=
 OpenBabel10222420593D

 51 59  0  0  1  0  0  0  0  0999 V2000
  188.9470  176.7490  136.9440 C   0  0  0  0  0  0  0  0  0  0  0  0
  183.4300  172.1960  137.5400 C   0  0  0  0  0  2  0  0  0  0  0  0
  185.4540  177.9680  139.8840 C   0  0  0  0  0  2  0  0  0  0  0  0
  183.1340  177.0560  139.6820 C   0  0  0  0  0  2  0  0  0  0  0  0
  189.8110  175.2770  135.2180 C   0  0  0  0  0  3  0  0  0  0  0  0
  184.3060  171.5770  136.4570 C   0  0  1  0  0  3  0  0  0  0  0  0
  182.0660  171.8090  135.5950 C   0  0  2  0  0  3  0  0  0  0  0  0
  181.7750  177.1540  138.9580 C   0  0  1  0  0  3  0  0  0  0  0  0
  189.7710  176.5360  135.8330 C   0  0  0  0  0  3  0  0  0  0  0  0
  187.6370  178.8090  136.9420 C   0  0  0  0  0  2  0  0  0  0  0  0
  189.0070  178.3610  138.8900 C   0  0  1  0  0  3  0  0  0  0  0  0
  186.5450  178.6300  139.1640 N   0  0  1  0  0  0  0  0  0  0  0  0
  181.9630  179.5480  139.6980 C   0  0  1  0  0  3  0  0  0  0  0  0
  189.0070  174.2360  135.6980 C   0  0  0  0  0  0  0  0  0  0  0  0
  182.1190  172.6110  136.8880 C   0  0  2  0  0  3  0  0  0  0  0  0
  179.7850  180.5560  139.3500 C   0  0  2  0  0  3  0  0  0  0  0  0
  188.2010  174.4480  136.8230 C   0  0  0  0  0  3  0  0  0  0  0  0
  188.7710  178.0730  137.4740 N   0  0  0  0  0  0  0  0  0  0  0  0
  183.5020  171.6140  135.1670 C   0  0  0  0  0  2  0  0  0  0  0  0
  186.5380  171.9360  135.6360 C   0  0  0  0  0  0  0  0  0  0  0  0
  187.8430  172.1500  135.1340 N   0  0  0  0  0  0  0  0  0  0  0  0
  188.1720  175.6930  137.4420 C   0  0  0  0  0  3  0  0  0  0  0  0
  183.5020  179.5860  139.6190 C   0  0  1  0  0  3  0  0  0  0  0  0
  184.0730  178.1980  139.2740 C   0  0  1  0  0  3  0  0  0  0  0  0
  185.5200  172.3620  136.3130 N   0  0  0  0  0  0  0  0  0  0  0  0
  182.1210  174.1190  136.6400 C   0  0  0  0  0  2  0  0  0  0  0  0
  181.3340  172.4520  134.5940 O   0  0  0  0  0  1  0  0  0  0  0  0
  188.9580  172.9890  135.0030 N   0  0  0  0  0  2  0  0  0  0  0  0
  187.7580  177.9800  139.6870 C   0  0  0  0  0  2  0  0  0  0  0  0
  181.2670  180.8740  139.5170 C   0  0  0  0  0  2  0  0  0  0  0  0
  181.3830  178.6100  138.6630 C   0  0  2  0  0  3  0  0  0  0  0  0
  181.8240  176.3670  137.6550 C   0  0  0  0  0  2  0  0  0  0  0  0
  179.5900  178.8670  138.6700 S   0  0  0  0  0  0  0  0  0  0  0  0
  186.3980  178.3680  137.7180 C   0  0  0  0  0  2  0  0  0  0  0  0
  187.1710  170.9450  134.8480 N   0  0  0  0  0  2  0  0  0  0  0  0
  183.9270  180.5040  138.6570 O   0  0  0  0  0  1  0  0  0  0  0  0
  181.8680  174.8740  137.9320 C   0  0  0  0  0  2  0  0  0  0  0  0
  179.8650  182.3880  137.8530 C   0  0  0  0  0  2  0  0  0  0  0  0
  179.1630  181.5090  138.4680 N   0  0  0  0  0  0  0  0  0  0  0  0
  190.2310  177.6420  139.4380 C   0  0  0  0  0  2  0  0  0  0  0  0
  189.9650  177.1530  140.8520 C   0  0  0  0  0  2  0  0  0  0  0  0
  191.1370  177.4870  141.7590 C   0  0  0  0  0  2  0  0  0  0  0  0
  189.5680  177.5430  144.9010 C   0  0  0  0  0  0  0  0  0  0  0  0
  190.7690  177.1280  145.2510 C   0  0  0  0  0  0  0  0  0  0  0  0
  192.0000  176.3930  147.1370 N   0  0  0  0  0  1  0  0  0  0  0  0
  189.7630  177.0230  147.3380 N   0  0  0  0  0  0  0  0  0  0  0  0
  189.4480  177.7600  143.5910 N   0  0  0  0  0  0  0  0  0  0  0  0
  190.7220  177.4500  143.1920 C   0  0  0  0  0  0  0  0  0  0  0  0
  188.5940  177.5600  146.2440 S   0  0  0  0  0  0  0  0  0  0  0  0
  190.9060  176.8320  146.6090 C   0  0  0  0  0  0  0  0  0  0  0  0
  191.5710  177.0400  144.1860 N   0  0  0  0  0  2  0  0  0  0  0  0
  1 22  1  0  0  0  0
  1 18  1  0  0  0  0
  5 14  2  0  0  0  0
  5  9  1  0  0  0  0
  6 19  1  6  0  0  0
  6  2  1  0  0  0  0
  7 27  1  6  0  0  0
  7 15  1  0  0  0  0
  8 32  1  6  0  0  0
  8  4  1  0  0  0  0
  9  1  2  0  0  0  0
 10 18  1  0  0  0  0
 10 34  1  0  0  0  0
 11 40  1  1  0  0  0
 11 29  1  0  0  0  0
 12 34  1  6  0  0  0
 12 29  1  0  0  0  0
 12  3  1  0  0  0  0
 13 30  1  6  0  0  0
 14 17  1  0  0  0  0
 15 26  1  6  0  0  0
 15  2  1  0  0  0  0
 16 39  1  6  0  0  0
 16 30  1  0  0  0  0
 17 22  2  0  0  0  0
 18 11  1  0  0  0  0
 19  7  1  0  0  0  0
 20 25  2  0  0  0  0
 21 20  1  0  0  0  0
 23 36  1  6  0  0  0
 23 13  1  0  0  0  0
 24 23  1  0  0  0  0
 24  4  1  1  0  0  0
 24  3  1  0  0  0  0
 25  6  1  0  0  0  0
 26 37  1  0  0  0  0
 28 21  1  0  0  0  0
 28 14  1  0  0  0  0
 31 33  1  1  0  0  0
 31  8  1  0  0  0  0
 31 13  1  0  0  0  0
 32 37  1  0  0  0  0
 33 16  1  0  0  0  0
 35 21  1  0  0  0  0
 35 20  1  0  0  0  0
 38 39  2  0  0  0  0
 40 41  1  0  0  0  0
 41 42  1  0  0  0  0
 42 48  1  0  0  0  0
 43 44  2  0  0  0  0
 43 49  1  0  0  0  0
 44 50  1  0  0  0  0
 47 43  1  0  0  0  0
 48 47  2  0  0  0  0
 48 51  1  0  0  0  0
 49 46  1  0  0  0  0
 50 45  1  0  0  0  0
 50 46  2  0  0  0  0
 51 44  1  0  0  0  0
M  END
>  <MODEL>
1

>  <REMARK>
 VINA RESULT:      -9.0      0.000      0.000
  Name = 
  5 active torsions:
  status: ('A' for Active; 'I' for Inactive)
    1  A    between atoms: C_12  and  C_35
    2  A    between atoms: C_15  and  C_35
    3  A    between atoms: C_15  and  C_36
    4  A    between atoms: C_20  and  N_51
    5  A    between atoms: C_34  and  C_36
                            x       y       z     vdW  Elec       q    Type
                         _______ _______ _______ _____ _____    ______ ____

>  <TORSDO>
F 5

$$$$
=
 OpenBabel10222420593D

 51 59  0  0  1  0  0  0  0  0999 V2000
  183.8220  177.8590  137.9780 C   0  0  0  0  0  0  0  0  0  0  0  0
  188.5560  176.2250  143.1200 C   0  0  0  0  0  2  0  0  0  0  0  0
  187.4870  175.1410  136.7480 C   0  0  0  0  0  2  0  0  0  0  0  0
  189.6320  175.0990  138.0330 C   0  0  0  0  0  2  0  0  0  0  0  0
  182.7230  179.2730  139.6160 C   0  0  0  0  0  3  0  0  0  0  0  0
  187.5850  177.1810  143.8010 C   0  0  1  0  0  3  0  0  0  0  0  0
  189.8260  178.0190  144.1010 C   0  0  2  0  0  3  0  0  0  0  0  0
  190.9840  175.7960  138.2970 C   0  0  1  0  0  3  0  0  0  0  0  0
  182.9650  178.9230  138.2810 C   0  0  0  0  0  3  0  0  0  0  0  0
  185.4390  178.2440  136.1910 C   0  0  0  0  0  2  0  0  0  0  0  0
  184.0330  176.2800  136.0160 C   0  0  1  0  0  3  0  0  0  0  0  0
  186.5080  176.0060  136.0840 N   0  0  1  0  0  0  0  0  0  0  0  0
  191.1820  175.5570  135.8030 C   0  0  1  0  0  3  0  0  0  0  0  0
  183.3560  178.5740  140.6500 C   0  0  0  0  0  0  0  0  0  0  0  0
  189.9110  176.9150  143.0550 C   0  0  2  0  0  3  0  0  0  0  0  0
  193.4880  176.0490  135.2390 C   0  0  2  0  0  3  0  0  0  0  0  0
  184.1950  177.4960  140.3440 C   0  0  0  0  0  3  0  0  0  0  0  0
  184.2080  177.6030  136.6180 N   0  0  0  0  0  0  0  0  0  0  0  0
  188.3750  178.4330  144.1520 C   0  0  0  0  0  2  0  0  0  0  0  0
  185.4310  178.1110  143.2720 C   0  0  0  0  0  0  0  0  0  0  0  0
  184.1720  178.6780  142.9630 N   0  0  0  0  0  0  0  0  0  0  0  0
  184.4240  177.1390  139.0180 C   0  0  0  0  0  3  0  0  0  0  0  0
  189.6680  175.6790  135.5430 C   0  0  1  0  0  3  0  0  0  0  0  0
  188.8820  175.7510  136.8650 C   0  0  1  0  0  3  0  0  0  0  0  0
  186.5090  177.5100  142.8820 N   0  0  0  0  0  0  0  0  0  0  0  0
  190.1450  177.4620  141.6470 C   0  0  0  0  0  2  0  0  0  0  0  0
  190.6430  179.1110  143.7960 O   0  0  0  0  0  1  0  0  0  0  0  0
  183.2020  179.0020  142.0040 N   0  0  0  0  0  2  0  0  0  0  0  0
  185.2120  175.3920  136.4170 C   0  0  0  0  0  2  0  0  0  0  0  0
  192.0760  175.9850  134.6670 C   0  0  0  0  0  2  0  0  0  0  0  0
  191.5980  176.3680  137.0100 C   0  0  2  0  0  3  0  0  0  0  0  0
  190.8010  176.9140  139.3140 C   0  0  0  0  0  2  0  0  0  0  0  0
  193.4100  176.3690  137.0410 S   0  0  0  0  0  0  0  0  0  0  0  0
  186.6000  177.3660  136.6540 C   0  0  0  0  0  2  0  0  0  0  0  0
  184.6430  178.7000  144.2910 N   0  0  0  0  0  2  0  0  0  0  0  0
  189.3840  176.8170  134.7830 O   0  0  0  0  0  1  0  0  0  0  0  0
  190.5240  176.3420  140.6950 C   0  0  0  0  0  2  0  0  0  0  0  0
  195.4680  177.3060  134.9170 C   0  0  0  0  0  2  0  0  0  0  0  0
  194.2460  177.0890  134.5940 N   0  0  0  0  0  0  0  0  0  0  0  0
  182.7140  175.6280  136.4080 C   0  0  0  0  0  2  0  0  0  0  0  0
  181.5830  176.1720  135.5520 C   0  0  0  0  0  2  0  0  0  0  0  0
  180.2520  175.5920  135.9990 C   0  0  0  0  0  2  0  0  0  0  0  0
  179.6910  176.8260  139.2390 C   0  0  0  0  0  0  0  0  0  0  0  0
  179.6310  175.5310  139.4730 C   0  0  0  0  0  0  0  0  0  0  0  0
  179.2000  173.9800  141.2100 N   0  0  0  0  0  1  0  0  0  0  0  0
  179.1330  176.2760  141.6110 N   0  0  0  0  0  0  0  0  0  0  0  0
  179.9270  177.1190  137.9590 N   0  0  0  0  0  0  0  0  0  0  0  0
  180.0250  175.8500  137.4500 C   0  0  0  0  0  0  0  0  0  0  0  0
  179.3550  177.6420  140.6440 S   0  0  0  0  0  0  0  0  0  0  0  0
  179.3230  175.1950  140.7930 C   0  0  0  0  0  0  0  0  0  0  0  0
  179.8350  174.8350  138.3510 N   0  0  0  0  0  2  0  0  0  0  0  0
  1  9  2  0  0  0  0
  1 22  1  0  0  0  0
  5 14  2  0  0  0  0
  6  2  1  6  0  0  0
  6 19  1  0  0  0  0
  7 27  1  6  0  0  0
  7 19  1  0  0  0  0
  8  4  1  6  0  0  0
  8 32  1  0  0  0  0
  9  5  1  0  0  0  0
 10 18  1  0  0  0  0
 10 34  1  0  0  0  0
 11 40  1  1  0  0  0
 11 29  1  0  0  0  0
 11 18  1  0  0  0  0
 12 29  1  1  0  0  0
 12 34  1  0  0  0  0
 12  3  1  0  0  0  0
 13 30  1  6  0  0  0
 13 31  1  0  0  0  0
 14 28  1  0  0  0  0
 15 26  1  6  0  0  0
 15  2  1  0  0  0  0
 15  7  1  0  0  0  0
 16 39  1  6  0  0  0
 16 33  1  0  0  0  0
 17 14  1  0  0  0  0
 18  1  1  0  0  0  0
 20 35  1  0  0  0  0
 21 20  1  0  0  0  0
 21 35  1  0  0  0  0
 22 17  2  0  0  0  0
 23 36  1  6  0  0  0
 23 13  1  0  0  0  0
 23 24  1  0  0  0  0
 24  3  1  6  0  0  0
 24  4  1  0  0  0  0
 25 20  2  0  0  0  0
 25  6  1  0  0  0  0
 28 21  1  0  0  0  0
 30 16  1  0  0  0  0
 31 33  1  1  0  0  0
 31  8  1  0  0  0  0
 32 37  1  0  0  0  0
 37 26  1  0  0  0  0
 39 38  2  0  0  0  0
 41 42  1  0  0  0  0
 41 40  1  0  0  0  0
 42 48  1  0  0  0  0
 43 44  2  0  0  0  0
 43 49  1  0  0  0  0
 44 50  1  0  0  0  0
 47 43  1  0  0  0  0
 48 47  2  0  0  0  0
 48 51  1  0  0  0  0
 49 46  1  0  0  0  0
 50 45  1  0  0  0  0
 50 46  2  0  0  0  0
 51 44  1  0  0  0  0
M  END
>  <MODEL>
2

>  <REMARK>
 VINA RESULT:      -7.2      3.767     10.333
  Name = 
  5 active torsions:
  status: ('A' for Active; 'I' for Inactive)
    1  A    between atoms: C_12  and  C_35
    2  A    between atoms: C_15  and  C_35
    3  A    between atoms: C_15  and  C_36
    4  A    between atoms: C_20  and  N_51
    5  A    between atoms: C_34  and  C_36
                            x       y       z     vdW  Elec       q    Type
                         _______ _______ _______ _____ _____    ______ ____

>  <TORSDO>
F 5

$$$$
=
 OpenBabel10222420593D

 51 59  0  0  1  0  0  0  0  0999 V2000
  183.8620  178.0230  138.2740 C   0  0  0  0  0  0  0  0  0  0  0  0
  188.7000  176.1830  143.2470 C   0  0  0  0  0  2  0  0  0  0  0  0
  187.4440  175.2720  136.8830 C   0  0  0  0  0  2  0  0  0  0  0  0
  189.6210  175.1620  138.1080 C   0  0  0  0  0  2  0  0  0  0  0  0
  182.8320  179.4160  139.9740 C   0  0  0  0  0  3  0  0  0  0  0  0
  187.7650  177.1400  143.9770 C   0  0  1  0  0  3  0  0  0  0  0  0
  190.0280  177.9300  144.2360 C   0  0  2  0  0  3  0  0  0  0  0  0
  190.9910  175.8280  138.3530 C   0  0  1  0  0  3  0  0  0  0  0  0
  183.0330  179.0950  138.6250 C   0  0  0  0  0  3  0  0  0  0  0  0
  185.4390  178.4230  136.4540 C   0  0  0  0  0  2  0  0  0  0  0  0
  183.9930  176.4880  136.2700 C   0  0  1  0  0  3  0  0  0  0  0  0
  186.4640  176.1700  136.2660 N   0  0  1  0  0  0  0  0  0  0  0  0
  191.1190  175.6460  135.8500 C   0  0  1  0  0  3  0  0  0  0  0  0
  183.4800  178.6810  140.9750 C   0  0  0  0  0  0  0  0  0  0  0  0
  190.0650  176.8510  143.1620 C   0  0  2  0  0  3  0  0  0  0  0  0
  193.4190  176.1110  135.2360 C   0  0  2  0  0  3  0  0  0  0  0  0
  184.2910  177.5970  140.6200 C   0  0  0  0  0  3  0  0  0  0  0  0
  184.2080  177.7930  136.8990 N   0  0  0  0  0  0  0  0  0  0  0  0
  188.5860  178.3690  144.3360 C   0  0  0  0  0  2  0  0  0  0  0  0
  185.6150  178.1200  143.5280 C   0  0  0  0  0  0  0  0  0  0  0  0
  184.3590  178.7150  143.2670 N   0  0  0  0  0  0  0  0  0  0  0  0
  184.4790  177.2680  139.2810 C   0  0  0  0  0  3  0  0  0  0  0  0
  189.6010  175.8010  135.6330 C   0  0  1  0  0  3  0  0  0  0  0  0
  188.8520  175.8550  136.9770 C   0  0  1  0  0  3  0  0  0  0  0  0
  186.6710  177.5100  143.0950 N   0  0  0  0  0  0  0  0  0  0  0  0
  190.2720  177.4280  141.7620 C   0  0  0  0  0  2  0  0  0  0  0  0
  190.8560  179.0150  143.9360 O   0  0  0  0  0  1  0  0  0  0  0  0
  183.3700  179.0800  142.3420 N   0  0  0  0  0  2  0  0  0  0  0  0
  185.1660  175.5710  136.6190 C   0  0  0  0  0  2  0  0  0  0  0  0
  191.9910  176.0860  134.7000 C   0  0  0  0  0  2  0  0  0  0  0  0
  191.5820  176.4200  137.0640 C   0  0  2  0  0  3  0  0  0  0  0  0
  190.8560  176.9250  139.4010 C   0  0  0  0  0  2  0  0  0  0  0  0
  193.3930  176.3900  137.0460 S   0  0  0  0  0  0  0  0  0  0  0  0
  186.5950  177.5130  136.8650 C   0  0  0  0  0  2  0  0  0  0  0  0
  184.8650  178.6970  144.5810 N   0  0  0  0  0  2  0  0  0  0  0  0
  189.3190  176.9610  134.9080 O   0  0  0  0  0  1  0  0  0  0  0  0
  190.6050  176.3250  140.7740 C   0  0  0  0  0  2  0  0  0  0  0  0
  195.4490  177.2270  134.7490 C   0  0  0  0  0  2  0  0  0  0  0  0
  194.1780  177.1530  134.5950 N   0  0  0  0  0  0  0  0  0  0  0  0
  182.6730  175.8500  136.6830 C   0  0  0  0  0  2  0  0  0  0  0  0
  181.5290  176.4350  135.8710 C   0  0  0  0  0  2  0  0  0  0  0  0
  180.1930  176.0270  136.4660 C   0  0  0  0  0  2  0  0  0  0  0  0
  179.7750  177.2640  139.7270 C   0  0  0  0  0  0  0  0  0  0  0  0
  179.4820  178.3450  139.0320 C   0  0  0  0  0  0  0  0  0  0  0  0
  178.9310  180.6320  139.3080 N   0  0  0  0  0  1  0  0  0  0  0  0
  179.3090  179.2600  141.1550 N   0  0  0  0  0  0  0  0  0  0  0  0
  180.0840  176.2150  138.9630 N   0  0  0  0  0  0  0  0  0  0  0  0
  179.9240  176.7810  137.7250 C   0  0  0  0  0  0  0  0  0  0  0  0
  179.7340  177.6370  141.3430 S   0  0  0  0  0  0  0  0  0  0  0  0
  179.2160  179.4760  139.8070 C   0  0  0  0  0  0  0  0  0  0  0  0
  179.5640  178.1030  137.7200 N   0  0  0  0  0  2  0  0  0  0  0  0
  1  9  2  0  0  0  0
  1 22  1  0  0  0  0
  5 14  2  0  0  0  0
  6  2  1  6  0  0  0
  6 19  1  0  0  0  0
  7 27  1  6  0  0  0
  7 19  1  0  0  0  0
  8  4  1  6  0  0  0
  8 32  1  0  0  0  0
  9  5  1  0  0  0  0
 10 34  1  0  0  0  0
 10 18  1  0  0  0  0
 11 29  1  0  0  0  0
 11 40  1  1  0  0  0
 11 18  1  0  0  0  0
 12 29  1  1  0  0  0
 12 34  1  0  0  0  0
 12  3  1  0  0  0  0
 13 30  1  6  0  0  0
 13 31  1  0  0  0  0
 14 28  1  0  0  0  0
 15 26  1  6  0  0  0
 15  2  1  0  0  0  0
 15  7  1  0  0  0  0
 16 39  1  6  0  0  0
 16 33  1  0  0  0  0
 17 14  1  0  0  0  0
 18  1  1  0  0  0  0
 20 35  1  0  0  0  0
 21 20  1  0  0  0  0
 21 35  1  0  0  0  0
 22 17  2  0  0  0  0
 23 36  1  1  0  0  0
 23 13  1  0  0  0  0
 23 24  1  0  0  0  0
 24  3  1  6  0  0  0
 24  4  1  0  0  0  0
 25 20  2  0  0  0  0
 25  6  1  0  0  0  0
 28 21  1  0  0  0  0
 30 16  1  0  0  0  0
 31 33  1  1  0  0  0
 31  8  1  0  0  0  0
 32 37  1  0  0  0  0
 37 26  1  0  0  0  0
 39 38  2  0  0  0  0
 41 42  1  0  0  0  0
 41 40  1  0  0  0  0
 42 48  1  0  0  0  0
 43 49  1  0  0  0  0
 44 43  2  0  0  0  0
 44 50  1  0  0  0  0
 45 50  1  0  0  0  0
 46 49  1  0  0  0  0
 47 43  1  0  0  0  0
 48 47  2  0  0  0  0
 50 46  2  0  0  0  0
 51 48  1  0  0  0  0
 51 44  1  0  0  0  0
M  END
>  <MODEL>
3

>  <REMARK>
 VINA RESULT:      -6.8      3.542     10.404
  Name = 
  5 active torsions:
  status: ('A' for Active; 'I' for Inactive)
    1  A    between atoms: C_12  and  C_35
    2  A    between atoms: C_15  and  C_35
    3  A    between atoms: C_15  and  C_36
    4  A    between atoms: C_20  and  N_51
    5  A    between atoms: C_34  and  C_36
                            x       y       z     vdW  Elec       q    Type
                         _______ _______ _______ _____ _____    ______ ____

>  <TORSDO>
F 5

$$$$
=
 OpenBabel10222420593D

 51 59  0  0  1  0  0  0  0  0999 V2000
  188.8730  176.4880  136.7630 C   0  0  0  0  0  0  0  0  0  0  0  0
  183.0930  172.3020  137.5390 C   0  0  0  0  0  2  0  0  0  0  0  0
  185.4770  178.0200  139.6700 C   0  0  0  0  0  2  0  0  0  0  0  0
  183.1050  177.2440  139.5090 C   0  0  0  0  0  2  0  0  0  0  0  0
  189.6360  174.9060  135.0870 C   0  0  0  0  0  3  0  0  0  0  0  0
  183.9230  171.5930  136.4770 C   0  0  1  0  0  3  0  0  0  0  0  0
  181.6970  171.9310  135.6140 C   0  0  2  0  0  3  0  0  0  0  0  0
  181.7510  177.3980  138.7860 C   0  0  1  0  0  3  0  0  0  0  0  0
  189.6760  176.1850  135.6570 C   0  0  0  0  0  3  0  0  0  0  0  0
  187.6910  178.6220  136.6920 C   0  0  0  0  0  2  0  0  0  0  0  0
  189.0410  178.1600  138.6490 C   0  0  1  0  0  3  0  0  0  0  0  0
  186.6020  178.5880  138.9230 N   0  0  1  0  0  0  0  0  0  0  0  0
  182.0870  179.8010  139.4410 C   0  0  1  0  0  3  0  0  0  0  0  0
  188.7730  173.9330  135.6070 C   0  0  0  0  0  0  0  0  0  0  0  0
  181.8060  172.7730  136.8780 C   0  0  2  0  0  3  0  0  0  0  0  0
  179.9730  180.9270  139.0640 C   0  0  2  0  0  3  0  0  0  0  0  0
  187.9870  174.2330  136.7260 C   0  0  0  0  0  3  0  0  0  0  0  0
  188.7810  177.8380  137.2450 N   0  0  0  0  0  0  0  0  0  0  0  0
  183.1160  171.6340  135.1880 C   0  0  0  0  0  2  0  0  0  0  0  0
  186.1680  171.7870  135.6350 C   0  0  0  0  0  0  0  0  0  0  0  0
  187.4810  171.9030  135.1210 N   0  0  0  0  0  0  0  0  0  0  0  0
  188.0380  175.4990  137.3010 C   0  0  0  0  0  3  0  0  0  0  0  0
  183.6250  179.7430  139.3550 C   0  0  1  0  0  3  0  0  0  0  0  0
  184.1090  178.3110  139.0570 C   0  0  1  0  0  3  0  0  0  0  0  0
  185.1830  172.2970  136.3000 N   0  0  0  0  0  0  0  0  0  0  0  0
  181.8980  174.2690  136.5760 C   0  0  0  0  0  2  0  0  0  0  0  0
  180.9990  172.5820  134.5940 O   0  0  0  0  0  1  0  0  0  0  0  0
  188.6440  172.6680  134.9560 N   0  0  0  0  0  2  0  0  0  0  0  0
  187.7760  177.8840  139.4640 C   0  0  0  0  0  2  0  0  0  0  0  0
  181.4730  181.1600  139.2150 C   0  0  0  0  0  2  0  0  0  0  0  0
  181.4460  178.8640  138.4420 C   0  0  2  0  0  3  0  0  0  0  0  0
  181.7440  176.5650  137.5120 C   0  0  0  0  0  2  0  0  0  0  0  0
  179.6710  179.2300  138.4460 S   0  0  0  0  0  0  0  0  0  0  0  0
  186.4320  178.2840  137.4880 C   0  0  0  0  0  2  0  0  0  0  0  0
  186.7360  170.7320  134.8800 N   0  0  0  0  0  2  0  0  0  0  0  0
  184.1000  180.5990  138.3590 O   0  0  0  0  0  1  0  0  0  0  0  0
  181.6990  175.0820  137.8420 C   0  0  0  0  0  2  0  0  0  0  0  0
  180.0200  182.9770  137.8810 C   0  0  0  0  0  2  0  0  0  0  0  0
  179.4050  181.8850  138.1520 N   0  0  0  0  0  0  0  0  0  0  0  0
  190.2240  177.3880  139.2180 C   0  0  0  0  0  2  0  0  0  0  0  0
  191.2870  177.1930  138.1500 C   0  0  0  0  0  2  0  0  0  0  0  0
  192.5960  176.7480  138.7800 C   0  0  0  0  0  2  0  0  0  0  0  0
  193.3370  173.8420  136.9520 C   0  0  0  0  0  0  0  0  0  0  0  0
  194.5410  174.3690  137.0430 C   0  0  0  0  0  0  0  0  0  0  0  0
  196.7730  174.0270  136.3270 N   0  0  0  0  0  1  0  0  0  0  0  0
  195.0820  172.5360  135.7300 N   0  0  0  0  0  0  0  0  0  0  0  0
  192.3960  174.5730  137.5510 N   0  0  0  0  0  0  0  0  0  0  0  0
  193.1740  175.5920  138.0350 C   0  0  0  0  0  0  0  0  0  0  0  0
  193.4210  172.4680  136.0240 S   0  0  0  0  0  0  0  0  0  0  0  0
  195.5370  173.6570  136.3700 C   0  0  0  0  0  0  0  0  0  0  0  0
  194.5080  175.5140  137.7320 N   0  0  0  0  0  2  0  0  0  0  0  0
  1 18  1  0  0  0  0
  1 22  1  0  0  0  0
  5 14  2  0  0  0  0
  5  9  1  0  0  0  0
  6 19  1  6  0  0  0
  6  2  1  0  0  0  0
  7 27  1  6  0  0  0
  7 15  1  0  0  0  0
  8 32  1  6  0  0  0
  8  4  1  0  0  0  0
  9  1  2  0  0  0  0
 10 18  1  0  0  0  0
 10 34  1  0  0  0  0
 11 40  1  1  0  0  0
 11 29  1  0  0  0  0
 12 34  1  6  0  0  0
 12 29  1  0  0  0  0
 12  3  1  0  0  0  0
 13 30  1  6  0  0  0
 14 17  1  0  0  0  0
 15 26  1  6  0  0  0
 15  2  1  0  0  0  0
 16 39  1  6  0  0  0
 16 30  1  0  0  0  0
 17 22  2  0  0  0  0
 18 11  1  0  0  0  0
 19  7  1  0  0  0  0
 20 25  2  0  0  0  0
 21 20  1  0  0  0  0
 23 36  1  6  0  0  0
 23 13  1  0  0  0  0
 24 23  1  0  0  0  0
 24  4  1  1  0  0  0
 24  3  1  0  0  0  0
 25  6  1  0  0  0  0
 26 37  1  0  0  0  0
 28 21  1  0  0  0  0
 28 14  1  0  0  0  0
 31 33  1  1  0  0  0
 31  8  1  0  0  0  0
 31 13  1  0  0  0  0
 32 37  1  0  0  0  0
 33 16  1  0  0  0  0
 35 21  1  0  0  0  0
 35 20  1  0  0  0  0
 38 39  2  0  0  0  0
 41 42  1  0  0  0  0
 41 40  1  0  0  0  0
 43 44  2  0  0  0  0
 43 47  1  0  0  0  0
 44 51  1  0  0  0  0
 45 50  1  0  0  0  0
 46 49  1  0  0  0  0
 46 50  2  0  0  0  0
 47 48  2  0  0  0  0
 48 42  1  0  0  0  0
 49 43  1  0  0  0  0
 50 44  1  0  0  0  0
 51 48  1  0  0  0  0
M  END
>  <MODEL>
4

>  <REMARK>
 VINA RESULT:      -6.2      3.313      4.358
  Name = 
  5 active torsions:
  status: ('A' for Active; 'I' for Inactive)
    1  A    between atoms: C_12  and  C_35
    2  A    between atoms: C_15  and  C_35
    3  A    between atoms: C_15  and  C_36
    4  A    between atoms: C_20  and  N_51
    5  A    between atoms: C_34  and  C_36
                            x       y       z     vdW  Elec       q    Type
                         _______ _______ _______ _____ _____    ______ ____

>  <TORSDO>
F 5

$$$$
=
 OpenBabel10222420593D

 51 59  0  0  1  0  0  0  0  0999 V2000
  182.7270  175.5570  136.9640 C   0  0  0  0  0  0  0  0  0  0  0  0
  189.3330  178.1430  138.0560 C   0  0  0  0  0  2  0  0  0  0  0  0
  183.1990  178.9640  140.2050 C   0  0  0  0  0  2  0  0  0  0  0  0
  185.3670  179.4480  141.3530 C   0  0  0  0  0  2  0  0  0  0  0  0
  183.7430  173.9530  135.4510 C   0  0  0  0  0  3  0  0  0  0  0  0
  189.5400  177.0100  137.0580 C   0  0  1  0  0  3  0  0  0  0  0  0
  191.0010  176.6510  138.9420 C   0  0  2  0  0  3  0  0  0  0  0  0
  186.3410  179.0440  142.4800 C   0  0  1  0  0  3  0  0  0  0  0  0
  182.6760  174.3400  136.2730 C   0  0  0  0  0  3  0  0  0  0  0  0
  182.0340  175.5050  139.3030 C   0  0  0  0  0  2  0  0  0  0  0  0
  180.9730  177.1390  137.8630 C   0  0  1  0  0  3  0  0  0  0  0  0
  182.2340  177.9140  139.8680 N   0  0  1  0  0  0  0  0  0  0  0  0
  184.2670  179.3100  143.8730 C   0  0  1  0  0  3  0  0  0  0  0  0
  184.8730  174.7710  135.3370 C   0  0  0  0  0  0  0  0  0  0  0  0
  190.0250  177.7450  139.3520 C   0  0  2  0  0  3  0  0  0  0  0  0
  184.9800  179.2990  146.1900 C   0  0  2  0  0  3  0  0  0  0  0  0
  184.9110  175.9960  136.0120 C   0  0  0  0  0  3  0  0  0  0  0  0
  181.7210  175.8820  137.9360 N   0  0  0  0  0  0  0  0  0  0  0  0
  190.3680  175.9480  137.7640 C   0  0  0  0  0  2  0  0  0  0  0  0
  188.1130  175.6570  135.6730 C   0  0  0  0  0  0  0  0  0  0  0  0
  187.2820  174.8440  134.8670 N   0  0  0  0  0  0  0  0  0  0  0  0
  183.8460  176.3880  136.8170 C   0  0  0  0  0  3  0  0  0  0  0  0
  183.3030  178.8790  142.7500 C   0  0  1  0  0  3  0  0  0  0  0  0
  184.0590  178.6520  141.4270 C   0  0  1  0  0  3  0  0  0  0  0  0
  188.2480  176.4650  136.6750 N   0  0  0  0  0  0  0  0  0  0  0  0
  188.9870  177.2520  140.3610 C   0  0  0  0  0  2  0  0  0  0  0  0
  191.2620  175.7480  139.9760 O   0  0  0  0  0  1  0  0  0  0  0  0
  186.0090  174.3240  134.5940 N   0  0  0  0  0  2  0  0  0  0  0  0
  181.8110  178.2510  138.4990 C   0  0  0  0  0  2  0  0  0  0  0  0
  183.7790  179.0710  145.2800 C   0  0  0  0  0  2  0  0  0  0  0  0
  185.6000  178.6060  143.7520 C   0  0  2  0  0  3  0  0  0  0  0  0
  187.2460  177.9160  142.0040 C   0  0  0  0  0  2  0  0  0  0  0  0
  186.5260  178.9750  145.2640 S   0  0  0  0  0  0  0  0  0  0  0  0
  182.9150  176.6040  139.8930 C   0  0  0  0  0  2  0  0  0  0  0  0
  188.6610  174.9230  134.5940 N   0  0  0  0  0  2  0  0  0  0  0  0
  182.6300  177.7050  143.0960 O   0  0  0  0  0  1  0  0  0  0  0  0
  188.2360  178.4230  140.9680 C   0  0  0  0  0  2  0  0  0  0  0  0
  185.8560  177.6030  147.5900 C   0  0  0  0  0  2  0  0  0  0  0  0
  184.9120  178.4340  147.3390 N   0  0  0  0  0  0  0  0  0  0  0  0
  180.5870  177.5080  136.4380 C   0  0  0  0  0  2  0  0  0  0  0  0
  179.5020  178.5730  136.4470 C   0  0  0  0  0  2  0  0  0  0  0  0
  179.5200  179.3600  135.1470 C   0  0  0  0  0  2  0  0  0  0  0  0
  179.4920  182.8610  135.4250 C   0  0  0  0  0  0  0  0  0  0  0  0
  180.5040  182.5760  136.2180 C   0  0  0  0  0  0  0  0  0  0  0  0
  182.0550  183.6020  137.6850 N   0  0  0  0  0  1  0  0  0  0  0  0
  180.4660  184.8710  136.5450 N   0  0  0  0  0  0  0  0  0  0  0  0
  178.9330  181.7810  134.8760 N   0  0  0  0  0  0  0  0  0  0  0  0
  179.7390  180.8120  135.4130 C   0  0  0  0  0  0  0  0  0  0  0  0
  179.2200  184.4980  135.4680 S   0  0  0  0  0  0  0  0  0  0  0  0
  181.0690  183.6820  136.8560 C   0  0  0  0  0  0  0  0  0  0  0  0
  180.7180  181.2570  136.2610 N   0  0  0  0  0  2  0  0  0  0  0  0
  1 18  1  0  0  0  0
  4 24  1  0  0  0  0
  5  9  1  0  0  0  0
  6 19  1  1  0  0  0
  6  2  1  0  0  0  0
  7 15  1  0  0  0  0
  7 27  1  1  0  0  0
  8  4  1  6  0  0  0
  8 31  1  0  0  0  0
  9  1  2  0  0  0  0
 10 34  1  0  0  0  0
 11 40  1  6  0  0  0
 11 18  1  0  0  0  0
 11 29  1  0  0  0  0
 12 29  1  6  0  0  0
 12 34  1  0  0  0  0
 12  3  1  0  0  0  0
 13 30  1  1  0  0  0
 14  5  2  0  0  0  0
 14 17  1  0  0  0  0
 15  2  1  6  0  0  0
 15 26  1  0  0  0  0
 16 39  1  1  0  0  0
 17 22  2  0  0  0  0
 18 10  1  0  0  0  0
 19  7  1  0  0  0  0
 20 25  2  0  0  0  0
 21 20  1  0  0  0  0
 22  1  1  0  0  0  0
 23 36  1  1  0  0  0
 23 13  1  0  0  0  0
 24  3  1  6  0  0  0
 24 23  1  0  0  0  0
 25  6  1  0  0  0  0
 26 37  1  0  0  0  0
 28 21  1  0  0  0  0
 28 14  1  0  0  0  0
 30 16  1  0  0  0  0
 31 13  1  0  0  0  0
 31 33  1  1  0  0  0
 32  8  1  0  0  0  0
 33 16  1  0  0  0  0
 35 21  1  0  0  0  0
 35 20  1  0  0  0  0
 37 32  1  0  0  0  0
 39 38  2  0  0  0  0
 40 41  1  0  0  0  0
 42 48  1  0  0  0  0
 42 41  1  0  0  0  0
 43 49  1  0  0  0  0
 43 44  2  0  0  0  0
 44 51  1  0  0  0  0
 44 50  1  0  0  0  0
 46 50  2  0  0  0  0
 47 48  2  0  0  0  0
 47 43  1  0  0  0  0
 48 51  1  0  0  0  0
 49 46  1  0  0  0  0
 50 45  1  0  0  0  0
M  END
>  <MODEL>
5

>  <REMARK>
 VINA RESULT:      -6.1      3.428      9.217
  Name = 
  5 active torsions:
  status: ('A' for Active; 'I' for Inactive)
    1  A    between atoms: C_12  and  C_35
    2  A    between atoms: C_15  and  C_35
    3  A    between atoms: C_15  and  C_36
    4  A    between atoms: C_20  and  N_51
    5  A    between atoms: C_34  and  C_36
                            x       y       z     vdW  Elec       q    Type
                         _______ _______ _______ _____ _____    ______ ____

>  <TORSDO>
F 5

$$$$
=
 OpenBabel10222420593D

 51 59  0  0  1  0  0  0  0  0999 V2000
  189.6370  175.5040  137.3670 C   0  0  0  0  0  0  0  0  0  0  0  0
  184.8200  179.5620  140.8090 C   0  0  0  0  0  2  0  0  0  0  0  0
  185.5320  176.3070  135.1690 C   0  0  0  0  0  2  0  0  0  0  0  0
  183.4430  176.9390  136.3900 C   0  0  0  0  0  2  0  0  0  0  0  0
  191.0020  175.6500  139.3700 C   0  0  0  0  0  3  0  0  0  0  0  0
  185.9560  179.4070  141.8110 C   0  0  1  0  0  3  0  0  0  0  0  0
  183.8990  178.7250  142.8690 C   0  0  2  0  0  3  0  0  0  0  0  0
  182.2380  176.4400  137.2150 C   0  0  1  0  0  3  0  0  0  0  0  0
  190.6710  175.0070  138.1700 C   0  0  0  0  0  3  0  0  0  0  0  0
  188.0660  173.8600  136.4800 C   0  0  0  0  0  2  0  0  0  0  0  0
  189.1120  175.3690  134.8990 C   0  0  1  0  0  3  0  0  0  0  0  0
  186.6280  175.3370  135.0980 N   0  0  1  0  0  0  0  0  0  0  0  0
  181.9410  174.9580  135.2070 C   0  0  1  0  0  3  0  0  0  0  0  0
  190.2840  176.7790  139.7820 C   0  0  0  0  0  0  0  0  0  0  0  0
  183.6020  178.8520  141.3810 C   0  0  2  0  0  3  0  0  0  0  0  0
  179.7400  173.9590  135.4000 C   0  0  2  0  0  3  0  0  0  0  0  0
  189.2650  177.2860  138.9660 C   0  0  0  0  0  3  0  0  0  0  0  0
  189.1800  174.7580  136.2280 N   0  0  0  0  0  0  0  0  0  0  0  0
  185.4010  178.6150  142.9850 C   0  0  0  0  0  2  0  0  0  0  0  0
  188.2240  178.6100  141.7310 C   0  0  0  0  0  0  0  0  0  0  0  0
  189.5540  178.1280  141.6980 N   0  0  0  0  0  0  0  0  0  0  0  0
  188.9460  176.6560  137.7670 C   0  0  0  0  0  3  0  0  0  0  0  0
  183.4470  174.8670  134.8920 C   0  0  1  0  0  3  0  0  0  0  0  0
  184.2660  175.7710  135.8320 C   0  0  1  0  0  3  0  0  0  0  0  0
  187.0510  178.6800  141.1900 N   0  0  0  0  0  0  0  0  0  0  0  0
  183.4310  177.4920  140.7030 C   0  0  0  0  0  2  0  0  0  0  0  0
  183.2750  177.6180  143.4500 O   0  0  0  0  0  1  0  0  0  0  0  0
  190.5410  177.3660  141.0580 N   0  0  0  0  0  2  0  0  0  0  0  0
  187.8070  176.1600  134.7840 C   0  0  0  0  0  2  0  0  0  0  0  0
  181.1060  173.7910  134.7430 C   0  0  0  0  0  2  0  0  0  0  0  0
  181.6990  175.0990  136.6930 C   0  0  2  0  0  3  0  0  0  0  0  0
  182.6340  176.2950  138.6780 C   0  0  0  0  0  2  0  0  0  0  0  0
  179.9160  174.9120  136.9540 S   0  0  0  0  0  0  0  0  0  0  0  0
  186.7850  174.6870  136.4150 C   0  0  0  0  0  2  0  0  0  0  0  0
  189.1260  178.9300  142.7740 N   0  0  0  0  0  2  0  0  0  0  0  0
  183.9030  173.5520  135.0150 O   0  0  0  0  0  1  0  0  0  0  0  0
  182.8430  177.6590  139.3140 C   0  0  0  0  0  2  0  0  0  0  0  0
  179.5140  172.0040  136.7160 C   0  0  0  0  0  2  0  0  0  0  0  0
  179.1560  172.6740  135.6820 N   0  0  0  0  0  0  0  0  0  0  0  0
  190.3080  176.2620  134.6030 C   0  0  0  0  0  2  0  0  0  0  0  0
  191.5880  175.4420  134.5940 C   0  0  0  0  0  2  0  0  0  0  0  0
  192.6800  176.1530  135.3730 C   0  0  0  0  0  2  0  0  0  0  0  0
  194.2160  173.4350  136.9820 C   0  0  0  0  0  0  0  0  0  0  0  0
  194.7240  174.4310  137.6790 C   0  0  0  0  0  0  0  0  0  0  0  0
  196.2700  174.8780  139.4180 N   0  0  0  0  0  1  0  0  0  0  0  0
  195.8670  172.6940  138.7050 N   0  0  0  0  0  0  0  0  0  0  0  0
  193.3820  173.8370  136.0210 N   0  0  0  0  0  0  0  0  0  0  0  0
  193.4290  175.1900  136.2320 C   0  0  0  0  0  0  0  0  0  0  0  0
  194.8850  172.0120  137.5140 S   0  0  0  0  0  0  0  0  0  0  0  0
  195.6500  174.0450  138.6510 C   0  0  0  0  0  0  0  0  0  0  0  0
  194.2580  175.6050  137.2400 N   0  0  0  0  0  2  0  0  0  0  0  0
  1 22  2  0  0  0  0
  1  9  1  0  0  0  0
  2 15  1  0  0  0  0
  5 14  1  0  0  0  0
  6  2  1  6  0  0  0
  6 19  1  0  0  0  0
  7 19  1  0  0  0  0
  7 27  1  6  0  0  0
  8  4  1  6  0  0  0
  8 32  1  0  0  0  0
  9  5  2  0  0  0  0
 11 40  1  1  0  0  0
 11 18  1  0  0  0  0
 12 29  1  1  0  0  0
 12  3  1  0  0  0  0
 12 34  1  0  0  0  0
 13 30  1  1  0  0  0
 13 31  1  0  0  0  0
 14 28  1  0  0  0  0
 15 26  1  6  0  0  0
 15  7  1  0  0  0  0
 16 39  1  1  0  0  0
 16 33  1  0  0  0  0
 17 14  2  0  0  0  0
 18 10  1  0  0  0  0
 18  1  1  0  0  0  0
 20 35  1  0  0  0  0
 21 20  1  0  0  0  0
 21 35  1  0  0  0  0
 22 17  1  0  0  0  0
 23 36  1  1  0  0  0
 23 13  1  0  0  0  0
 23 24  1  0  0  0  0
 24  3  1  6  0  0  0
 24  4  1  0  0  0  0
 25 20  2  0  0  0  0
 25  6  1  0  0  0  0
 28 21  1  0  0  0  0
 29 11  1  0  0  0  0
 30 16  1  0  0  0  0
 31 33  1  6  0  0  0
 31  8  1  0  0  0  0
 32 37  1  0  0  0  0
 34 10  1  0  0  0  0
 37 26  1  0  0  0  0
 39 38  2  0  0  0  0
 41 40  1  0  0  0  0
 41 42  1  0  0  0  0
 42 48  1  0  0  0  0
 43 49  1  0  0  0  0
 43 44  2  0  0  0  0
 44 50  1  0  0  0  0
 47 48  2  0  0  0  0
 47 43  1  0  0  0  0
 48 51  1  0  0  0  0
 49 46  1  0  0  0  0
 50 46  2  0  0  0  0
 50 45  1  0  0  0  0
 51 44  1  0  0  0  0
M  END
>  <MODEL>
6

>  <REMARK>
 VINA RESULT:      -6.0      3.693      7.322
  Name = 
  5 active torsions:
  status: ('A' for Active; 'I' for Inactive)
    1  A    between atoms: C_12  and  C_35
    2  A    between atoms: C_15  and  C_35
    3  A    between atoms: C_15  and  C_36
    4  A    between atoms: C_20  and  N_51
    5  A    between atoms: C_34  and  C_36
                            x       y       z     vdW  Elec       q    Type
                         _______ _______ _______ _____ _____    ______ ____

>  <TORSDO>
F 5

$$$$
