=
 OpenBabel10222421193D

 45 49  0  0  1  0  0  0  0  0999 V2000
  186.3830  178.5180  140.9110 C   0  0  0  0  0  0  0  0  0  0  0  0
  186.2280  178.2930  144.5900 C   0  0  0  0  0  0  0  0  0  0  0  0
  186.7290  178.5360  139.5040 C   0  0  0  0  0  0  0  0  0  0  0  0
  186.8430  178.3210  142.1970 C   0  0  0  0  0  3  0  0  0  0  0  0
  183.9600  178.7310  145.2310 N   0  0  0  0  0  0  0  0  0  0  0  0
  185.3770  178.8720  139.2140 N   0  0  0  0  0  2  0  0  0  0  0  0
  187.7720  178.3420  138.8270 O   0  0  0  0  0  0  0  0  0  0  0  0
  185.2340  178.4080  145.5630 C   0  0  0  0  0  3  0  0  0  0  0  0
  183.5730  178.9490  143.9470 C   0  0  0  0  0  0  0  0  0  0  0  0
  184.5050  178.8210  142.9040 C   0  0  0  0  0  0  0  0  0  0  0  0
  184.0990  179.0110  141.5540 C   0  0  0  0  0  3  0  0  0  0  0  0
  185.0940  178.8430  140.6150 C   0  0  0  0  0  0  0  0  0  0  0  0
  185.8790  178.4840  143.2320 C   0  0  0  0  0  0  0  0  0  0  0  0
  182.1400  179.2950  143.6760 C   0  0  0  0  0  2  0  0  0  0  0  0
  179.1420  177.5250  144.8150 O   0  0  0  0  0  0  0  0  0  0  0  0
  181.2580  178.3480  144.3430 N   0  0  0  0  0  2  0  0  0  0  0  0
  179.3250  178.5430  142.7410 N   0  0  0  0  0  2  0  0  0  0  0  0
  179.8860  178.1200  143.9910 C   0  0  0  0  0  0  0  0  0  0  0  0
  180.1010  178.9610  141.5790 C   0  0  1  0  0  3  0  0  0  0  0  0
  179.4890  176.6060  140.8400 C   0  0  0  0  0  2  0  0  0  0  0  0
  181.1240  177.4850  139.7550 C   0  0  0  0  0  2  0  0  0  0  0  0
  180.7590  176.0790  140.1970 C   0  0  0  0  0  2  0  0  0  0  0  0
  179.8490  178.0100  140.3940 C   0  0  0  0  0  3  0  0  0  0  0  0
  179.8840  180.4240  141.2900 C   0  0  0  0  0  0  0  0  0  0  0  0
  179.6370  181.1860  142.2110 O   0  0  0  0  0  0  0  0  0  0  0  0
  179.9880  180.9640  139.8980 C   0  0  0  0  0  1  0  0  0  0  0  0
  187.5500  177.9570  145.0360 N   0  0  0  0  0  2  0  0  0  0  0  0
  187.8800  177.3200  146.3020 C   0  0  0  0  0  2  0  0  0  0  0  0
  189.2110  177.8390  146.8160 C   0  0  0  0  0  2  0  0  0  0  0  0
  190.9080  176.4520  147.7940 O   0  0  0  0  0  1  0  0  0  0  0  0
  190.3280  176.8310  146.5810 C   0  0  2  0  0  3  0  0  0  0  0  0
  191.3810  177.4050  145.6370 C   0  0  0  0  0  2  0  0  0  0  0  0
  190.2970  175.9240  142.2950 C   0  0  0  0  0  2  0  0  0  0  0  0
  190.8140  176.9940  141.4430 N   0  0  0  0  0  0  0  0  0  0  0  0
  191.0320  175.9370  143.6350 C   0  0  0  0  0  2  0  0  0  0  0  0
  191.0140  179.5880  143.8770 O   0  0  0  0  0  0  0  0  0  0  0  0
  190.3670  178.2740  141.9920 C   0  0  0  0  0  2  0  0  0  0  0  0
  190.8280  178.4330  143.4100 C   0  0  0  0  0  0  0  0  0  0  0  0
  190.9850  177.2680  144.2400 N   0  0  0  0  0  0  0  0  0  0  0  0
  190.1890  176.8560  140.1960 N   0  0  0  0  0  2  0  0  0  0  0  0
  192.5480  177.0980  139.5710 C   0  0  0  0  0  1  0  0  0  0  0  0
  191.2100  176.4560  139.2360 C   0  0  2  0  0  3  0  0  0  0  0  0
  190.6840  176.8640  137.5320 S   0  0  0  0  0  0  0  0  0  0  0  0
  190.8910  174.2570  137.9580 O   0  0  0  0  0  1  0  0  0  0  0  0
  190.5810  175.1460  136.9300 C   0  0  0  0  0  2  0  0  0  0  0  0
  1  4  1  0  0  0  0
  2 27  1  0  0  0  0
  2  8  2  0  0  0  0
  3  1  1  0  0  0  0
  4 13  2  0  0  0  0
  5  8  1  0  0  0  0
  6  3  1  0  0  0  0
  6 12  1  0  0  0  0
  7  3  2  0  0  0  0
  9  5  2  0  0  0  0
 10 13  1  0  0  0  0
 10  9  1  0  0  0  0
 11 10  2  0  0  0  0
 12  1  2  0  0  0  0
 12 11  1  0  0  0  0
 13  2  1  0  0  0  0
 14  9  1  0  0  0  0
 14 16  1  0  0  0  0
 17 18  1  0  0  0  0
 18 16  1  0  0  0  0
 18 15  2  0  0  0  0
 19 24  1  6  0  0  0
 19 17  1  0  0  0  0
 21 22  1  0  0  0  0
 21 23  1  0  0  0  0
 22 20  1  0  0  0  0
 23 20  1  0  0  0  0
 23 19  1  0  0  0  0
 24 25  2  0  0  0  0
 26 24  1  0  0  0  0
 27 28  1  0  0  0  0
 28 29  1  0  0  0  0
 31 29  1  0  0  0  0
 31 30  1  1  0  0  0
 32 31  1  0  0  0  0
 33 35  1  0  0  0  0
 34 37  1  0  0  0  0
 34 33  1  0  0  0  0
 35 39  1  0  0  0  0
 37 38  1  0  0  0  0
 38 36  2  0  0  0  0
 38 39  1  0  0  0  0
 39 32  1  0  0  0  0
 40 34  1  0  0  0  0
 42 41  1  1  0  0  0
 42 40  1  0  0  0  0
 43 42  1  0  0  0  0
 45 43  1  0  0  0  0
 45 44  1  0  0  0  0
M  END
>  <MODEL>
1

>  <REMARK>
 VINA RESULT:      -7.7      0.000      0.000
  Name = 
  15 active torsions:
  status: ('A' for Active; 'I' for Inactive)
    1  A    between atoms: C_1  and  C_15
    2  A    between atoms: C_1  and  N_30
    3  A    between atoms: C_2  and  N_27
    4  A    between atoms: C_2  and  C_28
    5  A    between atoms: S_5  and  C_36
    6  A    between atoms: S_5  and  C_44
    7  A    between atoms: C_8  and  C_24
    8  A    between atoms: C_9  and  N_30
    9  A    between atoms: N_10  and  N_23
   10  A    between atoms: N_10  and  C_36
   11  A    between atoms: C_15  and  C_32
   12  A    between atoms: C_24  and  N_31
   13  A    between atoms: C_24  and  C_41
   14  A    between atoms: C_32  and  C_40
   15  A    between atoms: C_40  and  N_42
                            x       y       z     vdW  Elec       q    Type
                         _______ _______ _______ _____ _____    ______ ____

>  <TORSDO>
F 15

$$$$
=
 OpenBabel10222421193D

 45 49  0  0  1  0  0  0  0  0999 V2000
  186.8780  177.9240  145.5870 C   0  0  0  0  0  0  0  0  0  0  0  0
  184.5620  178.9640  142.9110 C   0  0  0  0  0  0  0  0  0  0  0  0
  187.5610  177.5760  146.8170 C   0  0  0  0  0  0  0  0  0  0  0  0
  185.7060  178.3820  145.0220 C   0  0  0  0  0  3  0  0  0  0  0  0
  185.7210  178.7020  140.8290 N   0  0  0  0  0  0  0  0  0  0  0  0
  188.7090  177.2490  146.0430 N   0  0  0  0  0  2  0  0  0  0  0  0
  187.2700  177.5690  148.0410 O   0  0  0  0  0  0  0  0  0  0  0  0
  184.5990  179.0270  141.5180 C   0  0  0  0  0  3  0  0  0  0  0  0
  186.8600  178.2910  141.4440 C   0  0  0  0  0  0  0  0  0  0  0  0
  186.8960  178.1700  142.8430 C   0  0  0  0  0  0  0  0  0  0  0  0
  188.0750  177.7030  143.4910 C   0  0  0  0  0  3  0  0  0  0  0  0
  187.9890  177.6080  144.8630 C   0  0  0  0  0  0  0  0  0  0  0  0
  185.7110  178.5190  143.6060 C   0  0  0  0  0  0  0  0  0  0  0  0
  188.0500  177.9470  140.5990 C   0  0  0  0  0  2  0  0  0  0  0  0
  188.8860  179.6410  137.4600 O   0  0  0  0  0  0  0  0  0  0  0  0
  187.9400  178.5790  139.2920 N   0  0  0  0  0  2  0  0  0  0  0  0
  190.3130  178.1760  138.5520 N   0  0  0  0  0  2  0  0  0  0  0  0
  189.0410  178.8230  138.4060 C   0  0  0  0  0  0  0  0  0  0  0  0
  190.5590  177.0040  139.3840 C   0  0  1  0  0  3  0  0  0  0  0  0
  191.5500  176.1000  137.2230 C   0  0  0  0  0  2  0  0  0  0  0  0
  189.5980  175.3330  137.7000 C   0  0  0  0  0  2  0  0  0  0  0  0
  190.3390  175.6640  136.4170 C   0  0  0  0  0  2  0  0  0  0  0  0
  190.8120  175.7650  138.5050 C   0  0  0  0  0  3  0  0  0  0  0  0
  191.6220  177.2940  140.4130 C   0  0  0  0  0  0  0  0  0  0  0  0
  192.7510  177.5770  140.0440 O   0  0  0  0  0  0  0  0  0  0  0  0
  191.3140  177.2620  141.8770 C   0  0  0  0  0  1  0  0  0  0  0  0
  183.3340  179.3360  143.5550 N   0  0  0  0  0  2  0  0  0  0  0  0
  182.4510  178.4330  144.2790 C   0  0  0  0  0  2  0  0  0  0  0  0
  181.0060  178.7040  143.9030 C   0  0  0  0  0  2  0  0  0  0  0  0
  180.3350  180.7020  142.7540 O   0  0  0  0  0  1  0  0  0  0  0  0
  180.9060  179.4410  142.5730 C   0  0  2  0  0  3  0  0  0  0  0  0
  180.1020  178.6240  141.5650 C   0  0  0  0  0  2  0  0  0  0  0  0
  182.1810  176.8910  138.8800 C   0  0  0  0  0  2  0  0  0  0  0  0
  182.7970  178.0930  138.3190 N   0  0  0  0  0  0  0  0  0  0  0  0
  181.7140  177.1740  140.3070 C   0  0  0  0  0  2  0  0  0  0  0  0
  180.4520  180.5080  139.4850 O   0  0  0  0  0  0  0  0  0  0  0  0
  181.7430  179.0780  138.0760 C   0  0  0  0  0  2  0  0  0  0  0  0
  181.0010  179.3840  139.3430 C   0  0  0  0  0  0  0  0  0  0  0  0
  180.8660  178.3640  140.3490 N   0  0  0  0  0  0  0  0  0  0  0  0
  183.3070  177.7380  137.0620 N   0  0  0  0  0  2  0  0  0  0  0  0
  185.6640  177.0910  137.2570 C   0  0  0  0  0  1  0  0  0  0  0  0
  184.2190  176.6180  137.2600 C   0  0  2  0  0  3  0  0  0  0  0  0
  183.9370  175.3290  135.9940 S   0  0  0  0  0  0  0  0  0  0  0  0
  184.5580  173.6370  137.9350 O   0  0  0  0  0  1  0  0  0  0  0  0
  185.0560  174.0830  136.7130 C   0  0  0  0  0  2  0  0  0  0  0  0
  1  3  1  0  0  0  0
  2 27  1  0  0  0  0
  2 13  1  0  0  0  0
  3  7  2  0  0  0  0
  4  1  1  0  0  0  0
  5  9  2  0  0  0  0
  5  8  1  0  0  0  0
  6  3  1  0  0  0  0
  8  2  2  0  0  0  0
  9 10  1  0  0  0  0
 10 11  2  0  0  0  0
 10 13  1  0  0  0  0
 11 12  1  0  0  0  0
 12  1  2  0  0  0  0
 12  6  1  0  0  0  0
 13  4  2  0  0  0  0
 14  9  1  0  0  0  0
 15 18  2  0  0  0  0
 16 14  1  0  0  0  0
 18 17  1  0  0  0  0
 18 16  1  0  0  0  0
 19 17  1  6  0  0  0
 19 24  1  0  0  0  0
 20 23  1  0  0  0  0
 21 23  1  0  0  0  0
 22 20  1  0  0  0  0
 22 21  1  0  0  0  0
 23 19  1  0  0  0  0
 24 26  1  0  0  0  0
 25 24  2  0  0  0  0
 27 28  1  0  0  0  0
 29 28  1  0  0  0  0
 31 30  1  1  0  0  0
 31 29  1  0  0  0  0
 32 31  1  0  0  0  0
 33 35  1  0  0  0  0
 34 33  1  0  0  0  0
 35 39  1  0  0  0  0
 37 34  1  0  0  0  0
 37 38  1  0  0  0  0
 38 36  2  0  0  0  0
 38 39  1  0  0  0  0
 39 32  1  0  0  0  0
 40 42  1  0  0  0  0
 40 34  1  0  0  0  0
 42 41  1  6  0  0  0
 43 45  1  0  0  0  0
 43 42  1  0  0  0  0
 45 44  1  0  0  0  0
M  END
>  <MODEL>
2

>  <REMARK>
 VINA RESULT:      -7.4      2.485      8.808
  Name = 
  15 active torsions:
  status: ('A' for Active; 'I' for Inactive)
    1  A    between atoms: C_1  and  C_15
    2  A    between atoms: C_1  and  N_30
    3  A    between atoms: C_2  and  N_27
    4  A    between atoms: C_2  and  C_28
    5  A    between atoms: S_5  and  C_36
    6  A    between atoms: S_5  and  C_44
    7  A    between atoms: C_8  and  C_24
    8  A    between atoms: C_9  and  N_30
    9  A    between atoms: N_10  and  N_23
   10  A    between atoms: N_10  and  C_36
   11  A    between atoms: C_15  and  C_32
   12  A    between atoms: C_24  and  N_31
   13  A    between atoms: C_24  and  C_41
   14  A    between atoms: C_32  and  C_40
   15  A    between atoms: C_40  and  N_42
                            x       y       z     vdW  Elec       q    Type
                         _______ _______ _______ _____ _____    ______ ____

>  <TORSDO>
F 15

$$$$
=
 OpenBabel10222421193D

 45 49  0  0  1  0  0  0  0  0999 V2000
  187.3550  177.7750  145.7200 C   0  0  0  0  0  0  0  0  0  0  0  0
  184.8940  179.0160  143.2680 C   0  0  0  0  0  0  0  0  0  0  0  0
  188.1130  177.3540  146.8810 C   0  0  0  0  0  0  0  0  0  0  0  0
  186.1680  178.3100  145.2640 C   0  0  0  0  0  3  0  0  0  0  0  0
  185.8670  178.7530  141.0920 N   0  0  0  0  0  0  0  0  0  0  0  0
  189.1760  176.9890  146.0080 N   0  0  0  0  0  2  0  0  0  0  0  0
  187.9200  177.3260  148.1240 O   0  0  0  0  0  0  0  0  0  0  0  0
  184.8230  179.1180  141.8780 C   0  0  0  0  0  3  0  0  0  0  0  0
  187.0270  178.2640  141.6020 C   0  0  0  0  0  0  0  0  0  0  0  0
  187.1680  178.0990  142.9900 C   0  0  0  0  0  0  0  0  0  0  0  0
  188.3660  177.5520  143.5280 C   0  0  0  0  0  3  0  0  0  0  0  0
  188.3840  177.4210  144.9000 C   0  0  0  0  0  0  0  0  0  0  0  0
  186.0680  178.4880  143.8550 C   0  0  0  0  0  0  0  0  0  0  0  0
  188.1240  177.8820  140.6550 C   0  0  0  0  0  2  0  0  0  0  0  0
  188.7760  179.6570  137.5170 O   0  0  0  0  0  0  0  0  0  0  0  0
  187.9390  178.5460  139.3730 N   0  0  0  0  0  2  0  0  0  0  0  0
  190.2650  178.1670  138.4870 N   0  0  0  0  0  2  0  0  0  0  0  0
  188.9860  178.8150  138.4310 C   0  0  0  0  0  0  0  0  0  0  0  0
  190.5590  176.9750  139.2730 C   0  0  1  0  0  3  0  0  0  0  0  0
  191.3370  176.2050  136.9770 C   0  0  0  0  0  2  0  0  0  0  0  0
  189.5960  175.1830  137.7190 C   0  0  0  0  0  2  0  0  0  0  0  0
  190.0920  175.6070  136.3470 C   0  0  0  0  0  2  0  0  0  0  0  0
  190.8460  175.7780  138.3470 C   0  0  0  0  0  3  0  0  0  0  0  0
  191.6220  177.2630  140.3020 C   0  0  0  0  0  0  0  0  0  0  0  0
  191.3080  177.3550  141.4780 O   0  0  0  0  0  0  0  0  0  0  0  0
  193.0590  177.4180  139.9110 C   0  0  0  0  0  1  0  0  0  0  0  0
  183.7440  179.4330  144.0180 N   0  0  0  0  0  2  0  0  0  0  0  0
  182.5510  178.6320  144.2550 C   0  0  0  0  0  2  0  0  0  0  0  0
  181.4520  179.0360  143.2890 C   0  0  0  0  0  2  0  0  0  0  0  0
  179.8260  177.5410  144.2280 O   0  0  0  0  0  1  0  0  0  0  0  0
  180.0740  178.8810  143.9190 C   0  0  2  0  0  3  0  0  0  0  0  0
  178.9940  179.4280  142.9910 C   0  0  0  0  0  2  0  0  0  0  0  0
  179.2200  177.4070  139.7660 C   0  0  0  0  0  2  0  0  0  0  0  0
  180.2500  178.2140  139.1140 N   0  0  0  0  0  0  0  0  0  0  0  0
  179.2830  177.6210  141.2780 C   0  0  0  0  0  2  0  0  0  0  0  0
  179.8550  181.2220  140.9810 O   0  0  0  0  0  0  0  0  0  0  0  0
  179.8600  179.6210  139.2110 C   0  0  0  0  0  2  0  0  0  0  0  0
  179.6760  180.0220  140.6440 C   0  0  0  0  0  0  0  0  0  0  0  0
  179.2300  179.0450  141.6030 N   0  0  0  0  0  0  0  0  0  0  0  0
  180.2190  177.8870  137.7510 N   0  0  0  0  0  2  0  0  0  0  0  0
  181.2760  178.7980  135.7350 C   0  0  0  0  0  1  0  0  0  0  0  0
  181.4800  178.3250  137.1660 C   0  0  2  0  0  3  0  0  0  0  0  0
  182.7280  176.9910  137.2560 S   0  0  0  0  0  0  0  0  0  0  0  0
  183.4870  179.1470  138.5950 O   0  0  0  0  0  1  0  0  0  0  0  0
  184.0290  177.9790  138.0640 C   0  0  0  0  0  2  0  0  0  0  0  0
  1  3  1  0  0  0  0
  2 13  1  0  0  0  0
  2 27  1  0  0  0  0
  3  7  2  0  0  0  0
  4  1  1  0  0  0  0
  5  9  2  0  0  0  0
  5  8  1  0  0  0  0
  6  3  1  0  0  0  0
  8  2  2  0  0  0  0
  9 10  1  0  0  0  0
 10 11  2  0  0  0  0
 10 13  1  0  0  0  0
 11 12  1  0  0  0  0
 12  1  2  0  0  0  0
 12  6  1  0  0  0  0
 13  4  2  0  0  0  0
 14  9  1  0  0  0  0
 15 18  2  0  0  0  0
 16 14  1  0  0  0  0
 18 17  1  0  0  0  0
 18 16  1  0  0  0  0
 19 17  1  6  0  0  0
 19 24  1  0  0  0  0
 20 23  1  0  0  0  0
 21 23  1  0  0  0  0
 22 20  1  0  0  0  0
 22 21  1  0  0  0  0
 23 19  1  0  0  0  0
 24 25  2  0  0  0  0
 26 24  1  0  0  0  0
 27 28  1  0  0  0  0
 29 31  1  0  0  0  0
 29 28  1  0  0  0  0
 31 30  1  6  0  0  0
 32 31  1  0  0  0  0
 33 35  1  0  0  0  0
 34 37  1  0  0  0  0
 34 33  1  0  0  0  0
 35 39  1  0  0  0  0
 37 38  1  0  0  0  0
 38 36  2  0  0  0  0
 38 39  1  0  0  0  0
 39 32  1  0  0  0  0
 40 34  1  0  0  0  0
 42 41  1  6  0  0  0
 42 43  1  0  0  0  0
 42 40  1  0  0  0  0
 43 45  1  0  0  0  0
 45 44  1  0  0  0  0
M  END
>  <MODEL>
3

>  <REMARK>
 VINA RESULT:      -7.2      2.344      9.406
  Name = 
  15 active torsions:
  status: ('A' for Active; 'I' for Inactive)
    1  A    between atoms: C_1  and  C_15
    2  A    between atoms: C_1  and  N_30
    3  A    between atoms: C_2  and  N_27
    4  A    between atoms: C_2  and  C_28
    5  A    between atoms: S_5  and  C_36
    6  A    between atoms: S_5  and  C_44
    7  A    between atoms: C_8  and  C_24
    8  A    between atoms: C_9  and  N_30
    9  A    between atoms: N_10  and  N_23
   10  A    between atoms: N_10  and  C_36
   11  A    between atoms: C_15  and  C_32
   12  A    between atoms: C_24  and  N_31
   13  A    between atoms: C_24  and  C_41
   14  A    between atoms: C_32  and  C_40
   15  A    between atoms: C_40  and  N_42
                            x       y       z     vdW  Elec       q    Type
                         _______ _______ _______ _____ _____    ______ ____

>  <TORSDO>
F 15

$$$$
=
 OpenBabel10222421193D

 45 49  0  0  1  0  0  0  0  0999 V2000
  185.6780  178.5960  144.9430 C   0  0  0  0  0  0  0  0  0  0  0  0
  185.6930  178.8030  141.2600 C   0  0  0  0  0  0  0  0  0  0  0  0
  185.9650  178.4960  146.3600 C   0  0  0  0  0  0  0  0  0  0  0  0
  186.2090  178.6270  143.6700 C   0  0  0  0  0  3  0  0  0  0  0  0
  183.4160  179.0570  140.5550 N   0  0  0  0  0  0  0  0  0  0  0  0
  184.5670  178.5860  146.6110 N   0  0  0  0  0  2  0  0  0  0  0  0
  187.0000  178.3780  147.0660 O   0  0  0  0  0  0  0  0  0  0  0  0
  184.7370  178.9770  140.2580 C   0  0  0  0  0  3  0  0  0  0  0  0
  182.9490  178.9840  141.8280 C   0  0  0  0  0  0  0  0  0  0  0  0
  183.8490  178.8410  142.8970 C   0  0  0  0  0  0  0  0  0  0  0  0
  183.3680  178.8020  144.2360 C   0  0  0  0  0  3  0  0  0  0  0  0
  184.3430  178.6770  145.2030 C   0  0  0  0  0  0  0  0  0  0  0  0
  185.2680  178.7450  142.6080 C   0  0  0  0  0  0  0  0  0  0  0  0
  181.4710  179.0880  142.0590 C   0  0  0  0  0  2  0  0  0  0  0  0
  179.0160  176.5970  140.9690 O   0  0  0  0  0  0  0  0  0  0  0  0
  180.8220  177.8210  141.7560 N   0  0  0  0  0  2  0  0  0  0  0  0
  179.2350  178.6950  140.0080 N   0  0  0  0  0  2  0  0  0  0  0  0
  179.6720  177.6710  140.9130 C   0  0  0  0  0  0  0  0  0  0  0  0
  180.0350  179.8460  139.6050 C   0  0  1  0  0  3  0  0  0  0  0  0
  179.7190  178.6060  137.4060 C   0  0  0  0  0  2  0  0  0  0  0  0
  181.5970  179.6390  137.5880 C   0  0  0  0  0  2  0  0  0  0  0  0
  181.1350  178.3570  136.9170 C   0  0  0  0  0  2  0  0  0  0  0  0
  180.1790  179.8900  138.0720 C   0  0  0  0  0  3  0  0  0  0  0  0
  179.5110  181.1090  140.2400 C   0  0  0  0  0  0  0  0  0  0  0  0
  179.5460  182.1540  139.6110 O   0  0  0  0  0  0  0  0  0  0  0  0
  178.9310  181.1000  141.6190 C   0  0  0  0  0  1  0  0  0  0  0  0
  187.0660  178.7200  140.8510 N   0  0  0  0  0  2  0  0  0  0  0  0
  187.5680  177.9540  139.7190 C   0  0  0  0  0  2  0  0  0  0  0  0
  188.8890  178.5310  139.2430 C   0  0  0  0  0  2  0  0  0  0  0  0
  190.6010  177.0300  138.4830 O   0  0  0  0  0  1  0  0  0  0  0  0
  190.0580  177.6310  139.6220 C   0  0  2  0  0  3  0  0  0  0  0  0
  189.6180  176.5750  140.6310 C   0  0  0  0  0  2  0  0  0  0  0  0
  191.5830  177.9600  143.5900 C   0  0  0  0  0  2  0  0  0  0  0  0
  191.0760  177.0310  144.5990 N   0  0  0  0  0  0  0  0  0  0  0  0
  191.4130  177.3480  142.2000 C   0  0  0  0  0  2  0  0  0  0  0  0
  188.0980  175.9920  142.9430 O   0  0  0  0  0  0  0  0  0  0  0  0
  189.6180  176.9870  144.4910 C   0  0  0  0  0  2  0  0  0  0  0  0
  189.2010  176.5770  143.1100 C   0  0  0  0  0  0  0  0  0  0  0  0
  190.0320  176.9180  141.9870 N   0  0  0  0  0  0  0  0  0  0  0  0
  191.3650  177.5950  145.8500 N   0  0  0  0  0  2  0  0  0  0  0  0
  190.5110  177.2460  148.1220 C   0  0  0  0  0  1  0  0  0  0  0  0
  191.0600  176.5930  146.8630 C   0  0  2  0  0  3  0  0  0  0  0  0
  192.5380  175.5800  147.2300 S   0  0  0  0  0  0  0  0  0  0  0  0
  193.9790  176.7090  149.1440 O   0  0  0  0  0  1  0  0  0  0  0  0
  192.7320  176.1150  148.9610 C   0  0  0  0  0  2  0  0  0  0  0  0
  1 12  1  0  0  0  0
  1  3  1  0  0  0  0
  2 13  1  0  0  0  0
  3  6  1  0  0  0  0
  3  7  2  0  0  0  0
  4  1  2  0  0  0  0
  5  9  2  0  0  0  0
  8  5  1  0  0  0  0
  8  2  2  0  0  0  0
  9 14  1  0  0  0  0
  9 10  1  0  0  0  0
 10 11  1  0  0  0  0
 11 12  2  0  0  0  0
 12  6  1  0  0  0  0
 13 10  2  0  0  0  0
 13  4  1  0  0  0  0
 16 14  1  0  0  0  0
 17 18  1  0  0  0  0
 18 15  2  0  0  0  0
 18 16  1  0  0  0  0
 19 17  1  6  0  0  0
 19 24  1  0  0  0  0
 20 23  1  0  0  0  0
 21 23  1  0  0  0  0
 22 20  1  0  0  0  0
 22 21  1  0  0  0  0
 23 19  1  0  0  0  0
 24 26  1  0  0  0  0
 25 24  2  0  0  0  0
 27  2  1  0  0  0  0
 28 27  1  0  0  0  0
 29 31  1  0  0  0  0
 29 28  1  0  0  0  0
 31 30  1  6  0  0  0
 31 32  1  0  0  0  0
 32 39  1  0  0  0  0
 33 34  1  0  0  0  0
 34 40  1  0  0  0  0
 35 33  1  0  0  0  0
 36 38  2  0  0  0  0
 37 34  1  0  0  0  0
 38 37  1  0  0  0  0
 39 35  1  0  0  0  0
 39 38  1  0  0  0  0
 40 42  1  0  0  0  0
 42 43  1  0  0  0  0
 42 41  1  1  0  0  0
 43 45  1  0  0  0  0
 45 44  1  0  0  0  0
M  END
>  <MODEL>
4

>  <REMARK>
 VINA RESULT:      -7.1      2.551      5.396
  Name = 
  15 active torsions:
  status: ('A' for Active; 'I' for Inactive)
    1  A    between atoms: C_1  and  C_15
    2  A    between atoms: C_1  and  N_30
    3  A    between atoms: C_2  and  N_27
    4  A    between atoms: C_2  and  C_28
    5  A    between atoms: S_5  and  C_36
    6  A    between atoms: S_5  and  C_44
    7  A    between atoms: C_8  and  C_24
    8  A    between atoms: C_9  and  N_30
    9  A    between atoms: N_10  and  N_23
   10  A    between atoms: N_10  and  C_36
   11  A    between atoms: C_15  and  C_32
   12  A    between atoms: C_24  and  N_31
   13  A    between atoms: C_24  and  C_41
   14  A    between atoms: C_32  and  C_40
   15  A    between atoms: C_40  and  N_42
                            x       y       z     vdW  Elec       q    Type
                         _______ _______ _______ _____ _____    ______ ____

>  <TORSDO>
F 15

$$$$
=
 OpenBabel10222421193D

 45 49  0  0  1  0  0  0  0  0999 V2000
  190.9100  176.0450  137.9410 C   0  0  0  0  0  0  0  0  0  0  0  0
  189.5190  177.4540  141.0530 C   0  0  0  0  0  0  0  0  0  0  0  0
  191.6840  175.4150  136.8890 C   0  0  0  0  0  0  0  0  0  0  0  0
  190.8600  176.3790  139.2780 C   0  0  0  0  0  3  0  0  0  0  0  0
  187.3620  178.3550  140.5210 N   0  0  0  0  0  0  0  0  0  0  0  0
  190.6360  175.7280  135.9800 N   0  0  0  0  0  2  0  0  0  0  0  0
  192.8020  174.8410  136.8110 O   0  0  0  0  0  0  0  0  0  0  0  0
  188.3310  178.0810  141.4300 C   0  0  0  0  0  3  0  0  0  0  0  0
  187.4830  178.0330  139.2070 C   0  0  0  0  0  0  0  0  0  0  0  0
  188.6360  177.3710  138.7510 C   0  0  0  0  0  0  0  0  0  0  0  0
  188.7520  176.9970  137.3830 C   0  0  0  0  0  3  0  0  0  0  0  0
  189.9170  176.3380  137.0540 C   0  0  0  0  0  0  0  0  0  0  0  0
  189.6910  177.0720  139.7010 C   0  0  0  0  0  0  0  0  0  0  0  0
  186.3570  178.3710  138.2760 C   0  0  0  0  0  2  0  0  0  0  0  0
  183.1750  179.9630  139.1470 O   0  0  0  0  0  0  0  0  0  0  0  0
  185.3320  179.1290  138.9790 N   0  0  0  0  0  2  0  0  0  0  0  0
  183.3390  177.9820  137.9530 N   0  0  0  0  0  2  0  0  0  0  0  0
  183.9260  179.0520  138.7070 C   0  0  0  0  0  0  0  0  0  0  0  0
  184.0030  176.7220  137.6420 C   0  0  1  0  0  3  0  0  0  0  0  0
  182.3710  174.7710  137.6840 C   0  0  0  0  0  2  0  0  0  0  0  0
  182.3050  176.0280  139.4280 C   0  0  0  0  0  2  0  0  0  0  0  0
  181.2850  175.2200  138.6450 C   0  0  0  0  0  2  0  0  0  0  0  0
  183.3920  175.5740  138.4680 C   0  0  0  0  0  3  0  0  0  0  0  0
  184.0450  176.4940  136.1530 C   0  0  0  0  0  0  0  0  0  0  0  0
  184.8630  175.7150  135.6890 O   0  0  0  0  0  0  0  0  0  0  0  0
  183.0890  177.1880  135.2350 C   0  0  0  0  0  1  0  0  0  0  0  0
  190.4900  177.2120  142.0810 N   0  0  0  0  0  2  0  0  0  0  0  0
  190.6200  175.9840  142.8510 C   0  0  0  0  0  2  0  0  0  0  0  0
  191.4050  176.2460  144.1230 C   0  0  0  0  0  2  0  0  0  0  0  0
  191.8060  178.2810  145.3310 O   0  0  0  0  0  1  0  0  0  0  0  0
  190.8060  177.3980  144.9190 C   0  0  2  0  0  3  0  0  0  0  0  0
  190.0240  176.8730  146.1190 C   0  0  0  0  0  2  0  0  0  0  0  0
  186.4340  177.4450  144.9690 C   0  0  0  0  0  2  0  0  0  0  0  0
  186.1590  178.6170  145.7980 N   0  0  0  0  0  0  0  0  0  0  0  0
  187.9430  177.2900  144.7850 C   0  0  0  0  0  2  0  0  0  0  0  0
  188.6930  178.1570  148.2590 O   0  0  0  0  0  0  0  0  0  0  0  0
  186.5770  178.3190  147.1680 C   0  0  0  0  0  2  0  0  0  0  0  0
  188.0290  177.9470  147.2100 C   0  0  0  0  0  0  0  0  0  0  0  0
  188.6260  177.2910  146.0780 N   0  0  0  0  0  0  0  0  0  0  0  0
  184.7660  178.7720  145.8320 N   0  0  0  0  0  2  0  0  0  0  0  0
  184.8230  180.0010  143.7120 C   0  0  0  0  0  1  0  0  0  0  0  0
  184.2930  178.7840  144.4540 C   0  0  2  0  0  3  0  0  0  0  0  0
  182.4660  178.7150  144.4010 S   0  0  0  0  0  0  0  0  0  0  0  0
  181.1720  179.4890  142.2230 O   0  0  0  0  0  1  0  0  0  0  0  0
  182.3090  178.7710  142.5850 C   0  0  0  0  0  2  0  0  0  0  0  0
  1  4  1  0  0  0  0
  2  8  2  0  0  0  0
  2 27  1  0  0  0  0
  3  1  1  0  0  0  0
  4 13  2  0  0  0  0
  5  8  1  0  0  0  0
  6  3  1  0  0  0  0
  6 12  1  0  0  0  0
  7  3  2  0  0  0  0
  9  5  2  0  0  0  0
 10  9  1  0  0  0  0
 10 13  1  0  0  0  0
 11 10  2  0  0  0  0
 12 11  1  0  0  0  0
 12  1  2  0  0  0  0
 13  2  1  0  0  0  0
 14 16  1  0  0  0  0
 14  9  1  0  0  0  0
 17 18  1  0  0  0  0
 18 16  1  0  0  0  0
 18 15  2  0  0  0  0
 19 24  1  6  0  0  0
 19 17  1  0  0  0  0
 19 23  1  0  0  0  0
 20 23  1  0  0  0  0
 20 22  1  0  0  0  0
 22 21  1  0  0  0  0
 23 21  1  0  0  0  0
 25 24  2  0  0  0  0
 26 24  1  0  0  0  0
 27 28  1  0  0  0  0
 28 29  1  0  0  0  0
 29 31  1  0  0  0  0
 31 30  1  1  0  0  0
 31 32  1  0  0  0  0
 33 34  1  0  0  0  0
 34 40  1  0  0  0  0
 34 37  1  0  0  0  0
 35 33  1  0  0  0  0
 35 39  1  0  0  0  0
 37 38  1  0  0  0  0
 38 36  2  0  0  0  0
 39 32  1  0  0  0  0
 39 38  1  0  0  0  0
 42 41  1  1  0  0  0
 42 40  1  0  0  0  0
 43 42  1  0  0  0  0
 44 45  1  0  0  0  0
 45 43  1  0  0  0  0
M  END
>  <MODEL>
5

>  <REMARK>
 VINA RESULT:      -7.1      2.844      6.401
  Name = 
  15 active torsions:
  status: ('A' for Active; 'I' for Inactive)
    1  A    between atoms: C_1  and  C_15
    2  A    between atoms: C_1  and  N_30
    3  A    between atoms: C_2  and  N_27
    4  A    between atoms: C_2  and  C_28
    5  A    between atoms: S_5  and  C_36
    6  A    between atoms: S_5  and  C_44
    7  A    between atoms: C_8  and  C_24
    8  A    between atoms: C_9  and  N_30
    9  A    between atoms: N_10  and  N_23
   10  A    between atoms: N_10  and  C_36
   11  A    between atoms: C_15  and  C_32
   12  A    between atoms: C_24  and  N_31
   13  A    between atoms: C_24  and  C_41
   14  A    between atoms: C_32  and  C_40
   15  A    between atoms: C_40  and  N_42
                            x       y       z     vdW  Elec       q    Type
                         _______ _______ _______ _____ _____    ______ ____

>  <TORSDO>
F 15

$$$$
=
 OpenBabel10222421193D

 45 49  0  0  1  0  0  0  0  0999 V2000
  186.7100  178.0690  145.0120 C   0  0  0  0  0  0  0  0  0  0  0  0
  188.2160  178.0960  141.6440 C   0  0  0  0  0  0  0  0  0  0  0  0
  186.3940  178.0060  146.4250 C   0  0  0  0  0  0  0  0  0  0  0  0
  187.7030  177.9790  144.0590 C   0  0  0  0  0  3  0  0  0  0  0  0
  186.4570  178.5700  140.0860 N   0  0  0  0  0  0  0  0  0  0  0  0
  185.0350  178.2640  146.0950 N   0  0  0  0  0  2  0  0  0  0  0  0
  187.0400  177.8070  147.4870 O   0  0  0  0  0  0  0  0  0  0  0  0
  187.7660  178.3280  140.3440 C   0  0  0  0  0  3  0  0  0  0  0  0
  185.5160  178.6110  141.0640 C   0  0  0  0  0  0  0  0  0  0  0  0
  185.8910  178.4200  142.4050 C   0  0  0  0  0  0  0  0  0  0  0  0
  184.9160  178.4990  143.4390 C   0  0  0  0  0  3  0  0  0  0  0  0
  185.4020  178.3130  144.7150 C   0  0  0  0  0  0  0  0  0  0  0  0
  187.2850  178.1510  142.7090 C   0  0  0  0  0  0  0  0  0  0  0  0
  184.0940  178.8920  140.6840 C   0  0  0  0  0  2  0  0  0  0  0  0
  182.0390  176.1550  139.3770 O   0  0  0  0  0  0  0  0  0  0  0  0
  183.5790  177.8270  139.8350 N   0  0  0  0  0  2  0  0  0  0  0  0
  181.2000  177.8970  140.6560 N   0  0  0  0  0  2  0  0  0  0  0  0
  182.2660  177.2600  139.9380 C   0  0  0  0  0  0  0  0  0  0  0  0
  181.2060  179.2890  141.0920 C   0  0  1  0  0  3  0  0  0  0  0  0
  179.5590  179.3320  139.1540 C   0  0  0  0  0  2  0  0  0  0  0  0
  181.1920  180.7190  138.9680 C   0  0  0  0  0  2  0  0  0  0  0  0
  180.3650  179.8950  137.9970 C   0  0  0  0  0  2  0  0  0  0  0  0
  180.3810  180.1590  140.1250 C   0  0  0  0  0  3  0  0  0  0  0  0
  180.8190  179.3940  142.5450 C   0  0  0  0  0  0  0  0  0  0  0  0
  181.4330  178.7460  143.3760 O   0  0  0  0  0  0  0  0  0  0  0  0
  179.7100  180.2950  142.9890 C   0  0  0  0  0  1  0  0  0  0  0  0
  189.6170  177.8390  141.8210 N   0  0  0  0  0  2  0  0  0  0  0  0
  190.3640  176.7560  141.1980 C   0  0  0  0  0  2  0  0  0  0  0  0
  191.2380  177.3010  140.0820 C   0  0  0  0  0  2  0  0  0  0  0  0
  192.3530  176.0770  138.3440 O   0  0  0  0  0  1  0  0  0  0  0  0
  191.0970  176.4730  138.8110 C   0  0  2  0  0  3  0  0  0  0  0  0
  190.3460  177.2560  137.7390 C   0  0  0  0  0  2  0  0  0  0  0  0
  187.3010  175.2590  136.6110 C   0  0  0  0  0  2  0  0  0  0  0  0
  188.0130  174.2940  135.7750 N   0  0  0  0  0  0  0  0  0  0  0  0
  188.2660  175.8620  137.6310 C   0  0  0  0  0  2  0  0  0  0  0  0
  191.0050  176.1460  135.2230 O   0  0  0  0  0  0  0  0  0  0  0  0
  188.9210  175.0310  134.8960 C   0  0  0  0  0  2  0  0  0  0  0  0
  189.8730  175.8670  135.6980 C   0  0  0  0  0  0  0  0  0  0  0  0
  189.4540  176.3970  136.9680 N   0  0  0  0  0  0  0  0  0  0  0  0
  187.0550  173.6950  134.9440 N   0  0  0  0  0  2  0  0  0  0  0  0
  187.1150  171.2480  135.1080 C   0  0  0  0  0  1  0  0  0  0  0  0
  186.5230  172.5380  135.6540 C   0  0  2  0  0  3  0  0  0  0  0  0
  184.6960  172.5190  135.5710 S   0  0  0  0  0  0  0  0  0  0  0  0
  184.4660  173.7910  137.8840 O   0  0  0  0  0  1  0  0  0  0  0  0
  184.4070  172.4970  137.3710 C   0  0  0  0  0  2  0  0  0  0  0  0
  1  3  1  0  0  0  0
  2 27  1  0  0  0  0
  2 13  1  0  0  0  0
  3  7  2  0  0  0  0
  4  1  2  0  0  0  0
  5  8  1  0  0  0  0
  5  9  2  0  0  0  0
  6  3  1  0  0  0  0
  8  2  2  0  0  0  0
  9 10  1  0  0  0  0
 10 13  2  0  0  0  0
 10 11  1  0  0  0  0
 11 12  2  0  0  0  0
 12  1  1  0  0  0  0
 12  6  1  0  0  0  0
 13  4  1  0  0  0  0
 14  9  1  0  0  0  0
 15 18  2  0  0  0  0
 16 18  1  0  0  0  0
 16 14  1  0  0  0  0
 18 17  1  0  0  0  0
 19 17  1  6  0  0  0
 19 24  1  0  0  0  0
 20 23  1  0  0  0  0
 21 23  1  0  0  0  0
 22 21  1  0  0  0  0
 22 20  1  0  0  0  0
 23 19  1  0  0  0  0
 24 26  1  0  0  0  0
 24 25  2  0  0  0  0
 28 27  1  0  0  0  0
 29 28  1  0  0  0  0
 31 30  1  6  0  0  0
 31 29  1  0  0  0  0
 32 31  1  0  0  0  0
 33 35  1  0  0  0  0
 34 33  1  0  0  0  0
 36 38  2  0  0  0  0
 37 38  1  0  0  0  0
 37 34  1  0  0  0  0
 38 39  1  0  0  0  0
 39 35  1  0  0  0  0
 39 32  1  0  0  0  0
 40 42  1  0  0  0  0
 40 34  1  0  0  0  0
 42 41  1  6  0  0  0
 43 42  1  0  0  0  0
 43 45  1  0  0  0  0
 45 44  1  0  0  0  0
M  END
>  <MODEL>
6

>  <REMARK>
 VINA RESULT:      -6.8      3.111      5.845
  Name = 
  15 active torsions:
  status: ('A' for Active; 'I' for Inactive)
    1  A    between atoms: C_1  and  C_15
    2  A    between atoms: C_1  and  N_30
    3  A    between atoms: C_2  and  N_27
    4  A    between atoms: C_2  and  C_28
    5  A    between atoms: S_5  and  C_36
    6  A    between atoms: S_5  and  C_44
    7  A    between atoms: C_8  and  C_24
    8  A    between atoms: C_9  and  N_30
    9  A    between atoms: N_10  and  N_23
   10  A    between atoms: N_10  and  C_36
   11  A    between atoms: C_15  and  C_32
   12  A    between atoms: C_24  and  N_31
   13  A    between atoms: C_24  and  C_41
   14  A    between atoms: C_32  and  C_40
   15  A    between atoms: C_40  and  N_42
                            x       y       z     vdW  Elec       q    Type
                         _______ _______ _______ _____ _____    ______ ____

>  <TORSDO>
F 15

$$$$
=
 OpenBabel10222421193D

 45 49  0  0  1  0  0  0  0  0999 V2000
  183.8270  178.9770  143.1170 C   0  0  0  0  0  0  0  0  0  0  0  0
  186.8540  178.2840  141.1260 C   0  0  0  0  0  0  0  0  0  0  0  0
  182.5320  179.3570  143.6450 C   0  0  0  0  0  0  0  0  0  0  0  0
  184.6410  178.9450  142.0040 C   0  0  0  0  0  3  0  0  0  0  0  0
  188.4290  177.2120  142.5810 N   0  0  0  0  0  0  0  0  0  0  0  0
  182.9430  178.8560  144.9120 N   0  0  0  0  0  2  0  0  0  0  0  0
  181.4930  179.8990  143.1870 O   0  0  0  0  0  0  0  0  0  0  0  0
  188.0890  177.6740  141.3520 C   0  0  0  0  0  3  0  0  0  0  0  0
  187.5970  177.3040  143.6510 C   0  0  0  0  0  0  0  0  0  0  0  0
  186.3220  177.8750  143.5000 C   0  0  0  0  0  0  0  0  0  0  0  0
  185.4320  177.9400  144.6080 C   0  0  0  0  0  3  0  0  0  0  0  0
  184.2040  178.5040  144.3380 C   0  0  0  0  0  0  0  0  0  0  0  0
  185.9350  178.3850  142.1970 C   0  0  0  0  0  0  0  0  0  0  0  0
  188.0580  176.7600  144.9700 C   0  0  0  0  0  2  0  0  0  0  0  0
  188.6750  178.7170  148.0040 O   0  0  0  0  0  0  0  0  0  0  0  0
  187.9800  177.7900  145.9950 N   0  0  0  0  0  2  0  0  0  0  0  0
  190.3140  177.5070  146.8980 N   0  0  0  0  0  2  0  0  0  0  0  0
  188.9800  178.0270  146.9960 C   0  0  0  0  0  0  0  0  0  0  0  0
  190.9070  176.9610  145.6820 C   0  0  1  0  0  3  0  0  0  0  0  0
  190.8520  179.3160  144.7230 C   0  0  0  0  0  2  0  0  0  0  0  0
  191.7120  177.8390  143.4160 C   0  0  0  0  0  2  0  0  0  0  0  0
  190.8920  179.1030  143.2200 C   0  0  0  0  0  2  0  0  0  0  0  0
  191.6750  178.0570  144.9200 C   0  0  0  0  0  3  0  0  0  0  0  0
  191.6950  175.7130  145.9870 C   0  0  0  0  0  0  0  0  0  0  0  0
  192.0770  175.0070  145.0670 O   0  0  0  0  0  0  0  0  0  0  0  0
  192.0370  175.3360  147.3940 C   0  0  0  0  0  1  0  0  0  0  0  0
  186.5840  178.7500  139.7960 N   0  0  0  0  0  2  0  0  0  0  0  0
  186.2060  177.9130  138.6660 C   0  0  0  0  0  2  0  0  0  0  0  0
  187.0760  178.2360  137.4640 C   0  0  0  0  0  2  0  0  0  0  0  0
  189.3330  178.7570  136.8340 O   0  0  0  0  0  1  0  0  0  0  0  0
  188.5560  178.1140  137.8010 C   0  0  2  0  0  3  0  0  0  0  0  0
  188.9600  176.6480  137.9260 C   0  0  0  0  0  2  0  0  0  0  0  0
  192.4120  175.8780  136.5030 C   0  0  0  0  0  2  0  0  0  0  0  0
  193.0740  175.5860  137.7740 N   0  0  0  0  0  0  0  0  0  0  0  0
  190.9020  175.6970  136.6600 C   0  0  0  0  0  2  0  0  0  0  0  0
  190.8200  177.2610  139.9660 O   0  0  0  0  0  0  0  0  0  0  0  0
  192.7610  176.6640  138.7120 C   0  0  0  0  0  2  0  0  0  0  0  0
  191.2780  176.8010  138.8870 C   0  0  0  0  0  0  0  0  0  0  0  0
  190.4020  176.4710  137.7950 N   0  0  0  0  0  0  0  0  0  0  0  0
  194.4540  175.6550  137.5360 N   0  0  0  0  0  2  0  0  0  0  0  0
  195.4480  173.5950  138.4200 C   0  0  0  0  0  1  0  0  0  0  0  0
  194.9070  174.3120  137.1930 C   0  0  2  0  0  3  0  0  0  0  0  0
  196.1520  174.3760  135.8550 S   0  0  0  0  0  0  0  0  0  0  0  0
  198.4650  174.9430  137.0160 O   0  0  0  0  0  1  0  0  0  0  0  0
  197.5780  173.8780  136.8750 C   0  0  0  0  0  2  0  0  0  0  0  0
  1  3  1  0  0  0  0
  1 12  1  0  0  0  0
  2  8  2  0  0  0  0
  2 13  1  0  0  0  0
  3  6  1  0  0  0  0
  4 13  1  0  0  0  0
  4  1  2  0  0  0  0
  5  9  2  0  0  0  0
  7  3  2  0  0  0  0
  8  5  1  0  0  0  0
  9 14  1  0  0  0  0
 10  9  1  0  0  0  0
 10 11  1  0  0  0  0
 12 11  2  0  0  0  0
 12  6  1  0  0  0  0
 13 10  2  0  0  0  0
 14 16  1  0  0  0  0
 16 18  1  0  0  0  0
 17 18  1  0  0  0  0
 18 15  2  0  0  0  0
 19 24  1  1  0  0  0
 19 17  1  0  0  0  0
 20 23  1  0  0  0  0
 21 23  1  0  0  0  0
 22 21  1  0  0  0  0
 22 20  1  0  0  0  0
 23 19  1  0  0  0  0
 24 26  1  0  0  0  0
 25 24  2  0  0  0  0
 27  2  1  0  0  0  0
 28 27  1  0  0  0  0
 29 31  1  0  0  0  0
 29 28  1  0  0  0  0
 31 30  1  6  0  0  0
 31 32  1  0  0  0  0
 33 35  1  0  0  0  0
 33 34  1  0  0  0  0
 34 37  1  0  0  0  0
 35 39  1  0  0  0  0
 37 38  1  0  0  0  0
 38 36  2  0  0  0  0
 39 32  1  0  0  0  0
 39 38  1  0  0  0  0
 40 34  1  0  0  0  0
 42 40  1  0  0  0  0
 42 41  1  1  0  0  0
 43 45  1  0  0  0  0
 43 42  1  0  0  0  0
 45 44  1  0  0  0  0
M  END
>  <MODEL>
7

>  <REMARK>
 VINA RESULT:      -6.7      2.771      8.029
  Name = 
  15 active torsions:
  status: ('A' for Active; 'I' for Inactive)
    1  A    between atoms: C_1  and  C_15
    2  A    between atoms: C_1  and  N_30
    3  A    between atoms: C_2  and  N_27
    4  A    between atoms: C_2  and  C_28
    5  A    between atoms: S_5  and  C_36
    6  A    between atoms: S_5  and  C_44
    7  A    between atoms: C_8  and  C_24
    8  A    between atoms: C_9  and  N_30
    9  A    between atoms: N_10  and  N_23
   10  A    between atoms: N_10  and  C_36
   11  A    between atoms: C_15  and  C_32
   12  A    between atoms: C_24  and  N_31
   13  A    between atoms: C_24  and  C_41
   14  A    between atoms: C_32  and  C_40
   15  A    between atoms: C_40  and  N_42
                            x       y       z     vdW  Elec       q    Type
                         _______ _______ _______ _____ _____    ______ ____

>  <TORSDO>
F 15

$$$$
=
 OpenBabel10222421193D

 45 49  0  0  1  0  0  0  0  0999 V2000
  184.9360  178.6050  144.2420 C   0  0  0  0  0  0  0  0  0  0  0  0
  187.3840  178.2530  141.5050 C   0  0  0  0  0  0  0  0  0  0  0  0
  184.2070  178.6960  145.4910 C   0  0  0  0  0  0  0  0  0  0  0  0
  186.1640  178.3990  143.6490 C   0  0  0  0  0  3  0  0  0  0  0  0
  186.2010  178.5890  139.4480 N   0  0  0  0  0  0  0  0  0  0  0  0
  183.0230  178.9400  144.7410 N   0  0  0  0  0  2  0  0  0  0  0  0
  184.4930  178.5990  146.7130 O   0  0  0  0  0  0  0  0  0  0  0  0
  187.3590  178.3540  140.1140 C   0  0  0  0  0  3  0  0  0  0  0  0
  185.0120  178.7490  140.0850 C   0  0  0  0  0  0  0  0  0  0  0  0
  184.9570  178.6930  141.4880 C   0  0  0  0  0  0  0  0  0  0  0  0
  183.7210  178.8970  142.1640 C   0  0  0  0  0  3  0  0  0  0  0  0
  183.7910  178.8370  143.5400 C   0  0  0  0  0  0  0  0  0  0  0  0
  186.1800  178.4350  142.2260 C   0  0  0  0  0  0  0  0  0  0  0  0
  183.7850  179.0110  139.2660 C   0  0  0  0  0  2  0  0  0  0  0  0
  182.3410  182.2490  138.3440 O   0  0  0  0  0  0  0  0  0  0  0  0
  183.5710  180.4440  139.1230 N   0  0  0  0  0  2  0  0  0  0  0  0
  181.0790  180.3530  138.7720 N   0  0  0  0  0  2  0  0  0  0  0  0
  182.3310  181.0520  138.7350 C   0  0  0  0  0  0  0  0  0  0  0  0
  180.8500  179.0940  139.4710 C   0  0  1  0  0  3  0  0  0  0  0  0
  179.6950  180.6560  141.1130 C   0  0  0  0  0  2  0  0  0  0  0  0
  180.0990  178.6890  141.8850 C   0  0  0  0  0  2  0  0  0  0  0  0
  180.0510  180.0880  142.4760 C   0  0  0  0  0  2  0  0  0  0  0  0
  179.7370  179.2580  140.5240 C   0  0  0  0  0  3  0  0  0  0  0  0
  180.6490  177.9670  138.4900 C   0  0  0  0  0  0  0  0  0  0  0  0
  180.5800  176.8200  138.9020 O   0  0  0  0  0  0  0  0  0  0  0  0
  180.5100  178.2310  137.0240 C   0  0  0  0  0  1  0  0  0  0  0  0
  188.6530  177.9940  142.1230 N   0  0  0  0  0  2  0  0  0  0  0  0
  189.2620  178.7950  143.1750 C   0  0  0  0  0  2  0  0  0  0  0  0
  190.4340  178.0480  143.7870 C   0  0  0  0  0  2  0  0  0  0  0  0
  191.3440  175.8360  143.5760 O   0  0  0  0  0  1  0  0  0  0  0  0
  190.9520  176.9640  142.8500 C   0  0  2  0  0  3  0  0  0  0  0  0
  192.1100  177.4910  142.0080 C   0  0  0  0  0  2  0  0  0  0  0  0
  190.5260  176.7870  138.6120 C   0  0  0  0  0  2  0  0  0  0  0  0
  191.6320  176.0120  138.0500 N   0  0  0  0  0  0  0  0  0  0  0  0
  190.6080  176.7620  140.1380 C   0  0  0  0  0  2  0  0  0  0  0  0
  194.2450  177.1560  140.1830 O   0  0  0  0  0  0  0  0  0  0  0  0
  192.8720  176.7550  138.2730 C   0  0  0  0  0  2  0  0  0  0  0  0
  193.0770  177.0180  139.7350 C   0  0  0  0  0  0  0  0  0  0  0  0
  191.9330  177.1810  140.5930 N   0  0  0  0  0  0  0  0  0  0  0  0
  191.4350  175.9750  136.6620 N   0  0  0  0  0  2  0  0  0  0  0  0
  189.7370  174.2970  136.1030 C   0  0  0  0  0  1  0  0  0  0  0  0
  190.0130  175.7560  136.4270 C   0  0  2  0  0  3  0  0  0  0  0  0
  189.4040  176.8600  135.1020 S   0  0  0  0  0  0  0  0  0  0  0  0
  186.8510  176.5700  135.7470 O   0  0  0  0  0  1  0  0  0  0  0  0
  187.7940  176.0370  134.8710 C   0  0  0  0  0  2  0  0  0  0  0  0
  1  3  1  0  0  0  0
  2 27  1  0  0  0  0
  2 13  1  0  0  0  0
  3  7  2  0  0  0  0
  4  1  1  0  0  0  0
  5  9  2  0  0  0  0
  5  8  1  0  0  0  0
  6  3  1  0  0  0  0
  8  2  2  0  0  0  0
  9 10  1  0  0  0  0
 10 11  2  0  0  0  0
 10 13  1  0  0  0  0
 11 12  1  0  0  0  0
 12  1  2  0  0  0  0
 12  6  1  0  0  0  0
 13  4  2  0  0  0  0
 14  9  1  0  0  0  0
 15 18  2  0  0  0  0
 16 14  1  0  0  0  0
 17 19  1  0  0  0  0
 18 17  1  0  0  0  0
 18 16  1  0  0  0  0
 19 24  1  6  0  0  0
 19 23  1  0  0  0  0
 20 22  1  0  0  0  0
 21 22  1  0  0  0  0
 23 20  1  0  0  0  0
 23 21  1  0  0  0  0
 24 25  2  0  0  0  0
 26 24  1  0  0  0  0
 27 28  1  0  0  0  0
 28 29  1  0  0  0  0
 31 30  1  1  0  0  0
 31 29  1  0  0  0  0
 32 31  1  0  0  0  0
 33 35  1  0  0  0  0
 34 37  1  0  0  0  0
 34 33  1  0  0  0  0
 35 39  1  0  0  0  0
 37 38  1  0  0  0  0
 38 36  2  0  0  0  0
 38 39  1  0  0  0  0
 39 32  1  0  0  0  0
 40 34  1  0  0  0  0
 42 41  1  6  0  0  0
 42 40  1  0  0  0  0
 43 42  1  0  0  0  0
 45 43  1  0  0  0  0
 45 44  1  0  0  0  0
M  END
>  <MODEL>
8

>  <REMARK>
 VINA RESULT:      -6.6      2.446      4.474
  Name = 
  15 active torsions:
  status: ('A' for Active; 'I' for Inactive)
    1  A    between atoms: C_1  and  C_15
    2  A    between atoms: C_1  and  N_30
    3  A    between atoms: C_2  and  N_27
    4  A    between atoms: C_2  and  C_28
    5  A    between atoms: S_5  and  C_36
    6  A    between atoms: S_5  and  C_44
    7  A    between atoms: C_8  and  C_24
    8  A    between atoms: C_9  and  N_30
    9  A    between atoms: N_10  and  N_23
   10  A    between atoms: N_10  and  C_36
   11  A    between atoms: C_15  and  C_32
   12  A    between atoms: C_24  and  N_31
   13  A    between atoms: C_24  and  C_41
   14  A    between atoms: C_32  and  C_40
   15  A    between atoms: C_40  and  N_42
                            x       y       z     vdW  Elec       q    Type
                         _______ _______ _______ _____ _____    ______ ____

>  <TORSDO>
F 15

$$$$
=
 OpenBabel10222421193D

 45 49  0  0  1  0  0  0  0  0999 V2000
  185.2870  178.7820  141.2630 C   0  0  0  0  0  0  0  0  0  0  0  0
  183.5370  178.8940  144.5080 C   0  0  0  0  0  0  0  0  0  0  0  0
  185.7210  178.8440  139.8810 C   0  0  0  0  0  0  0  0  0  0  0  0
  184.2500  179.0030  142.1450 C   0  0  0  0  0  3  0  0  0  0  0  0
  185.0920  178.1580  146.1780 N   0  0  0  0  0  0  0  0  0  0  0  0
  186.9880  178.3470  140.2950 N   0  0  0  0  0  2  0  0  0  0  0  0
  185.2020  179.1850  138.7860 O   0  0  0  0  0  0  0  0  0  0  0  0
  183.8670  178.6300  145.8380 C   0  0  0  0  0  3  0  0  0  0  0  0
  186.0650  177.9260  145.2580 C   0  0  0  0  0  0  0  0  0  0  0  0
  185.8240  178.1960  143.9000 C   0  0  0  0  0  0  0  0  0  0  0  0
  186.8510  177.9900  142.9370 C   0  0  0  0  0  3  0  0  0  0  0  0
  186.5070  178.3050  141.6400 C   0  0  0  0  0  0  0  0  0  0  0  0
  184.5180  178.6940  143.5080 C   0  0  0  0  0  0  0  0  0  0  0  0
  187.3910  177.4090  145.7280 C   0  0  0  0  0  2  0  0  0  0  0  0
  189.1490  178.2750  148.8240 O   0  0  0  0  0  0  0  0  0  0  0  0
  187.7900  178.0860  146.9540 N   0  0  0  0  0  2  0  0  0  0  0  0
  190.1680  177.2620  147.0050 N   0  0  0  0  0  2  0  0  0  0  0  0
  189.0390  177.8870  147.6300 C   0  0  0  0  0  0  0  0  0  0  0  0
  190.3070  177.0390  145.5700 C   0  0  1  0  0  3  0  0  0  0  0  0
  189.9180  178.2540  143.3700 C   0  0  0  0  0  2  0  0  0  0  0  0
  191.7470  178.7820  144.3710 C   0  0  0  0  0  2  0  0  0  0  0  0
  191.3110  178.6590  142.9210 C   0  0  0  0  0  2  0  0  0  0  0  0
  190.3510  178.3820  144.8180 C   0  0  0  0  0  3  0  0  0  0  0  0
  191.4520  176.1010  145.2840 C   0  0  0  0  0  0  0  0  0  0  0  0
  192.2780  175.8820  146.1550 O   0  0  0  0  0  0  0  0  0  0  0  0
  191.5820  175.4170  143.9600 C   0  0  0  0  0  1  0  0  0  0  0  0
  182.2140  179.3820  144.2430 N   0  0  0  0  0  2  0  0  0  0  0  0
  181.0940  178.5790  143.7720 C   0  0  0  0  0  2  0  0  0  0  0  0
  179.9370  179.4800  143.3780 C   0  0  0  0  0  2  0  0  0  0  0  0
  179.0500  177.7950  141.9160 O   0  0  0  0  0  1  0  0  0  0  0  0
  179.4180  179.1410  141.9870 C   0  0  2  0  0  3  0  0  0  0  0  0
  180.4650  179.4700  140.9270 C   0  0  0  0  0  2  0  0  0  0  0  0
  181.4280  176.1990  139.2210 C   0  0  0  0  0  2  0  0  0  0  0  0
  181.3000  176.6660  137.8410 N   0  0  0  0  0  0  0  0  0  0  0  0
  181.6370  177.3950  140.1490 C   0  0  0  0  0  2  0  0  0  0  0  0
  179.1840  179.4760  138.4060 O   0  0  0  0  0  0  0  0  0  0  0  0
  180.0140  177.3510  137.7060 C   0  0  0  0  0  2  0  0  0  0  0  0
  179.9130  178.4860  138.6800 C   0  0  0  0  0  0  0  0  0  0  0  0
  180.5940  178.3990  139.9450 N   0  0  0  0  0  0  0  0  0  0  0  0
  181.2290  175.5230  137.0320 N   0  0  0  0  0  2  0  0  0  0  0  0
  183.6420  175.2420  136.6960 C   0  0  0  0  0  1  0  0  0  0  0  0
  182.3830  174.6910  137.3480 C   0  0  2  0  0  3  0  0  0  0  0  0
  182.0800  172.9570  136.8520 S   0  0  0  0  0  0  0  0  0  0  0  0
  179.9660  171.4960  137.4950 O   0  0  0  0  0  1  0  0  0  0  0  0
  180.4860  172.7700  137.7160 C   0  0  0  0  0  2  0  0  0  0  0  0
  1 12  2  0  0  0  0
  1  4  1  0  0  0  0
  2  8  2  0  0  0  0
  3  6  1  0  0  0  0
  3  1  1  0  0  0  0
  4 13  2  0  0  0  0
  6 12  1  0  0  0  0
  7  3  2  0  0  0  0
  8  5  1  0  0  0  0
  9 14  1  0  0  0  0
  9  5  2  0  0  0  0
 10  9  1  0  0  0  0
 11 10  2  0  0  0  0
 12 11  1  0  0  0  0
 13 10  1  0  0  0  0
 13  2  1  0  0  0  0
 14 16  1  0  0  0  0
 16 18  1  0  0  0  0
 17 18  1  0  0  0  0
 18 15  2  0  0  0  0
 19 24  1  1  0  0  0
 19 17  1  0  0  0  0
 20 23  1  0  0  0  0
 21 23  1  0  0  0  0
 22 20  1  0  0  0  0
 22 21  1  0  0  0  0
 23 19  1  0  0  0  0
 24 25  2  0  0  0  0
 26 24  1  0  0  0  0
 27  2  1  0  0  0  0
 28 27  1  0  0  0  0
 29 28  1  0  0  0  0
 31 30  1  1  0  0  0
 31 29  1  0  0  0  0
 32 31  1  0  0  0  0
 33 35  1  0  0  0  0
 34 33  1  0  0  0  0
 36 38  2  0  0  0  0
 37 34  1  0  0  0  0
 37 38  1  0  0  0  0
 38 39  1  0  0  0  0
 39 35  1  0  0  0  0
 39 32  1  0  0  0  0
 40 42  1  0  0  0  0
 40 34  1  0  0  0  0
 42 41  1  6  0  0  0
 43 42  1  0  0  0  0
 43 45  1  0  0  0  0
 44 45  1  0  0  0  0
M  END
>  <MODEL>
9

>  <REMARK>
 VINA RESULT:      -6.6      2.967      9.178
  Name = 
  15 active torsions:
  status: ('A' for Active; 'I' for Inactive)
    1  A    between atoms: C_1  and  C_15
    2  A    between atoms: C_1  and  N_30
    3  A    between atoms: C_2  and  N_27
    4  A    between atoms: C_2  and  C_28
    5  A    between atoms: S_5  and  C_36
    6  A    between atoms: S_5  and  C_44
    7  A    between atoms: C_8  and  C_24
    8  A    between atoms: C_9  and  N_30
    9  A    between atoms: N_10  and  N_23
   10  A    between atoms: N_10  and  C_36
   11  A    between atoms: C_15  and  C_32
   12  A    between atoms: C_24  and  N_31
   13  A    between atoms: C_24  and  C_41
   14  A    between atoms: C_32  and  C_40
   15  A    between atoms: C_40  and  N_42
                            x       y       z     vdW  Elec       q    Type
                         _______ _______ _______ _____ _____    ______ ____

>  <TORSDO>
F 15

$$$$
