=
 OpenBabel10222418443D

 41 44  0  0  1  0  0  0  0  0999 V2000
  189.0680  177.9920  142.2450 C   0  0  0  0  0  0  0  0  0  0  0  0
  187.9930  178.5020  141.5040 C   0  0  0  0  0  0  0  0  0  0  0  0
  191.2390  176.8180  142.7210 S   0  0  0  0  0  0  0  0  0  0  0  0
  190.0980  177.3200  141.6010 C   0  0  0  0  0  0  0  0  0  0  0  0
  190.1090  177.1210  140.2240 C   0  0  0  0  0  3  0  0  0  0  0  0
  189.2330  178.0830  143.6350 C   0  0  0  0  0  3  0  0  0  0  0  0
  187.9840  178.3090  140.1120 C   0  0  0  0  0  3  0  0  0  0  0  0
  190.4110  177.4670  144.0490 C   0  0  0  0  0  0  0  0  0  0  0  0
  189.0380  177.6250  139.4700 C   0  0  0  0  0  0  0  0  0  0  0  0
  188.5040  178.6050  137.2610 C   0  0  0  0  0  0  0  0  0  0  0  0
  185.7530  176.6550  136.0840 C   0  0  0  0  0  0  0  0  0  0  0  0
  189.0310  177.4090  137.9880 C   0  0  2  0  0  3  0  0  0  0  0  0
  187.3090  178.4180  136.5250 N   0  0  0  0  0  2  0  0  0  0  0  0
  186.8890  177.0700  136.6240 C   0  0  0  0  0  0  0  0  0  0  0  0
  189.0840  179.7210  137.2930 O   0  0  0  0  0  0  0  0  0  0  0  0
  184.7230  175.5720  135.7820 C   0  0  0  0  0  2  0  0  0  0  0  0
  187.9620  175.9810  137.5490 S   0  0  0  0  0  0  0  0  0  0  0  0
  184.4730  176.8880  135.2900 C   0  0  0  0  0  2  0  0  0  0  0  0
  190.5250  177.1120  147.6940 O   0  0  0  0  0  0  0  0  0  0  0  0
  190.0020  177.1180  146.5470 C   0  0  0  0  0  0  0  0  0  0  0  0
  190.8290  177.4180  145.4190 N   0  0  0  0  0  2  0  0  0  0  0  0
  188.6390  176.8360  146.3790 O   0  0  0  0  0  0  0  0  0  0  0  0
  187.5900  177.6100  146.8900 C   0  0  0  0  0  0  0  0  0  0  0  0
  186.5930  178.1010  146.0020 N   0  0  0  0  0  1  0  0  0  0  0  0
  187.5140  177.8860  148.1160 O   0  0  0  0  0  0  0  0  0  0  0  0
  186.8510  179.2050  142.1610 C   0  0  0  0  0  2  0  0  0  0  0  0
  185.6680  178.2640  142.2900 C   0  0  0  0  0  2  0  0  0  0  0  0
  184.4920  179.0100  142.8070 C   0  0  0  0  0  3  0  0  0  0  0  0
  183.2900  178.6570  142.4510 C   0  0  0  0  0  0  0  0  0  0  0  0
  182.0890  178.3030  142.0900 C   0  0  0  0  0  3  0  0  0  0  0  0
  181.0920  179.2930  141.8660 N   0  0  0  0  0  2  0  0  0  0  0  0
  180.8900  179.8660  140.5460 C   0  0  2  0  0  3  0  0  0  0  0  0
  179.4150  181.7120  139.9560 N   0  0  0  0  0  1  0  0  0  0  0  0
  179.4520  180.3380  140.4260 C   0  0  0  0  0  2  0  0  0  0  0  0
  181.1810  178.8170  139.4760 C   0  0  0  0  0  2  0  0  0  0  0  0
  181.4400  179.3430  137.1650 O   0  0  0  0  0  1  0  0  0  0  0  0
  182.1190  179.3400  138.3860 C   0  0  0  0  0  0  0  0  0  0  0  0
  182.5210  180.6450  138.6900 O   0  0  0  0  0  1  0  0  0  0  0  0
  183.1010  177.0610  138.9190 C   0  0  0  0  0  1  0  0  0  0  0  0
  183.3470  178.4220  138.2820 C   0  0  0  0  0  3  0  0  0  0  0  0
  184.5750  179.0520  138.9200 C   0  0  0  0  0  1  0  0  0  0  0  0
  1  6  1  0  0  0  0
  2 26  1  0  0  0  0
  2  1  2  0  0  0  0
  3  8  1  0  0  0  0
  4  1  1  0  0  0  0
  4  3  1  0  0  0  0
  5  4  2  0  0  0  0
  6  8  2  0  0  0  0
  7  2  1  0  0  0  0
  8 21  1  0  0  0  0
  9  7  2  0  0  0  0
  9  5  1  0  0  0  0
 10 15  2  0  0  0  0
 10 12  1  0  0  0  0
 11 14  2  0  0  0  0
 12  9  1  1  0  0  0
 13 14  1  0  0  0  0
 13 10  1  0  0  0  0
 14 17  1  0  0  0  0
 16 11  1  0  0  0  0
 17 12  1  0  0  0  0
 18 16  1  0  0  0  0
 18 11  1  0  0  0  0
 20 19  2  0  0  0  0
 21 20  1  0  0  0  0
 22 20  1  0  0  0  0
 22 23  1  0  0  0  0
 23 25  2  0  0  0  0
 24 23  1  0  0  0  0
 26 27  1  0  0  0  0
 27 28  1  0  0  0  0
 29 28  2  0  0  0  0
 30 29  2  0  0  0  0
 31 30  1  0  0  0  0
 32 35  1  6  0  0  0
 32 31  1  0  0  0  0
 33 34  1  0  0  0  0
 34 32  1  0  0  0  0
 36 37  1  0  0  0  0
 37 38  1  0  0  0  0
 37 35  1  0  0  0  0
 40 37  1  0  0  0  0
 40 39  1  0  0  0  0
 40 41  1  0  0  0  0
M  END
>  <MODEL>
1

>  <REMARK>
 VINA RESULT:      -7.2      0.000      0.000
  Name = 
  13 active torsions:
  status: ('A' for Active; 'I' for Inactive)
    1  A    between atoms: C_2  and  C_4
    2  A    between atoms: C_2  and  C_33
    3  A    between atoms: O_8  and  C_13
    4  A    between atoms: O_8  and  C_34
    5  A    between atoms: C_9  and  C_32
    6  A    between atoms: C_11  and  C_33
    7  A    between atoms: C_14  and  C_40
    8  A    between atoms: N_15  and  C_37
    9  A    between atoms: N_19  and  C_32
   10  A    between atoms: N_19  and  C_39
   11  A    between atoms: C_20  and  C_29
   12  A    between atoms: C_20  and  C_32
   13  A    between atoms: C_26  and  C_29
                            x       y       z     vdW  Elec       q    Type
                         _______ _______ _______ _____ _____    ______ ____

>  <TORSDO>
F 13

$$$$
=
 OpenBabel10222418443D

 41 44  0  0  1  0  0  0  0  0999 V2000
  189.0550  177.5150  140.6900 C   0  0  0  0  0  0  0  0  0  0  0  0
  188.5890  177.7420  139.3870 C   0  0  0  0  0  0  0  0  0  0  0  0
  190.5880  176.7530  142.5310 S   0  0  0  0  0  0  0  0  0  0  0  0
  190.2860  176.9030  140.8900 C   0  0  0  0  0  0  0  0  0  0  0  0
  191.0910  176.4900  139.8340 C   0  0  0  0  0  3  0  0  0  0  0  0
  188.3900  177.8490  141.8780 C   0  0  0  0  0  3  0  0  0  0  0  0
  189.3860  177.3300  138.3070 C   0  0  0  0  0  3  0  0  0  0  0  0
  189.1310  177.4810  142.9980 C   0  0  0  0  0  0  0  0  0  0  0  0
  190.6360  176.7090  138.5240 C   0  0  0  0  0  0  0  0  0  0  0  0
  191.1770  174.8530  136.9790 C   0  0  0  0  0  0  0  0  0  0  0  0
  194.4850  173.8810  137.9100 C   0  0  0  0  0  0  0  0  0  0  0  0
  191.4870  176.2610  137.3760 C   0  0  2  0  0  3  0  0  0  0  0  0
  192.2230  173.9120  137.1300 N   0  0  0  0  0  2  0  0  0  0  0  0
  193.3860  174.5580  137.6130 C   0  0  0  0  0  0  0  0  0  0  0  0
  190.0510  174.5130  136.5310 O   0  0  0  0  0  0  0  0  0  0  0  0
  195.9240  173.8000  138.4080 C   0  0  0  0  0  2  0  0  0  0  0  0
  193.2670  176.3280  137.8300 S   0  0  0  0  0  0  0  0  0  0  0  0
  195.2830  172.5870  138.0180 C   0  0  0  0  0  2  0  0  0  0  0  0
  188.9600  177.9720  146.6250 O   0  0  0  0  0  0  0  0  0  0  0  0
  189.5070  177.7540  145.5110 C   0  0  0  0  0  0  0  0  0  0  0  0
  188.6860  177.7110  144.3410 N   0  0  0  0  0  2  0  0  0  0  0  0
  190.8930  177.5580  145.4190 O   0  0  0  0  0  0  0  0  0  0  0  0
  191.6190  176.6070  146.1470 C   0  0  0  0  0  0  0  0  0  0  0  0
  191.8830  176.8400  147.5250 N   0  0  0  0  0  1  0  0  0  0  0  0
  192.0490  175.5540  145.6050 O   0  0  0  0  0  0  0  0  0  0  0  0
  187.2600  178.3700  139.1290 C   0  0  0  0  0  2  0  0  0  0  0  0
  186.6700  177.8240  137.8430 C   0  0  0  0  0  2  0  0  0  0  0  0
  185.1960  177.7000  137.9840 C   0  0  0  0  0  3  0  0  0  0  0  0
  184.5040  178.6950  138.4630 C   0  0  0  0  0  0  0  0  0  0  0  0
  183.8150  179.6900  138.9450 C   0  0  0  0  0  3  0  0  0  0  0  0
  182.6980  179.4400  139.7920 N   0  0  0  0  0  2  0  0  0  0  0  0
  182.7550  178.4160  140.8200 C   0  0  2  0  0  3  0  0  0  0  0  0
  180.3370  178.5640  140.5670 N   0  0  0  0  0  1  0  0  0  0  0  0
  181.4390  177.6580  140.8380 C   0  0  0  0  0  2  0  0  0  0  0  0
  182.9970  179.0620  142.1820 C   0  0  0  0  0  2  0  0  0  0  0  0
  184.8410  177.5690  142.4140 O   0  0  0  0  0  1  0  0  0  0  0  0
  184.4380  178.8830  142.6640 C   0  0  0  0  0  0  0  0  0  0  0  0
  185.2830  179.7610  141.9770 O   0  0  0  0  0  1  0  0  0  0  0  0
  185.5430  178.2770  144.8680 C   0  0  0  0  0  1  0  0  0  0  0  0
  184.5120  179.1560  144.1750 C   0  0  0  0  0  3  0  0  0  0  0  0
  183.1620  178.9580  144.8470 C   0  0  0  0  0  1  0  0  0  0  0  0
  1  4  1  0  0  0  0
  1  6  1  0  0  0  0
  2  1  2  0  0  0  0
  3  8  1  0  0  0  0
  4  3  1  0  0  0  0
  5  4  2  0  0  0  0
  6  8  2  0  0  0  0
  7  9  2  0  0  0  0
  7  2  1  0  0  0  0
  8 21  1  0  0  0  0
  9  5  1  0  0  0  0
 10 13  1  0  0  0  0
 10 12  1  0  0  0  0
 11 18  1  0  0  0  0
 11 16  1  0  0  0  0
 12 17  1  0  0  0  0
 12  9  1  1  0  0  0
 13 14  1  0  0  0  0
 14 17  1  0  0  0  0
 14 11  2  0  0  0  0
 15 10  2  0  0  0  0
 18 16  1  0  0  0  0
 20 19  2  0  0  0  0
 21 20  1  0  0  0  0
 22 20  1  0  0  0  0
 22 23  1  0  0  0  0
 23 24  1  0  0  0  0
 25 23  2  0  0  0  0
 26  2  1  0  0  0  0
 27 28  1  0  0  0  0
 27 26  1  0  0  0  0
 28 29  2  0  0  0  0
 29 30  2  0  0  0  0
 30 31  1  0  0  0  0
 31 32  1  0  0  0  0
 32 34  1  1  0  0  0
 32 35  1  0  0  0  0
 33 34  1  0  0  0  0
 35 37  1  0  0  0  0
 36 37  1  0  0  0  0
 37 40  1  0  0  0  0
 38 37  1  0  0  0  0
 40 41  1  0  0  0  0
 40 39  1  0  0  0  0
M  END
>  <MODEL>
2

>  <REMARK>
 VINA RESULT:      -7.0      3.150      4.964
  Name = 
  13 active torsions:
  status: ('A' for Active; 'I' for Inactive)
    1  A    between atoms: C_2  and  C_4
    2  A    between atoms: C_2  and  C_33
    3  A    between atoms: O_8  and  C_13
    4  A    between atoms: O_8  and  C_34
    5  A    between atoms: C_9  and  C_32
    6  A    between atoms: C_11  and  C_33
    7  A    between atoms: C_14  and  C_40
    8  A    between atoms: N_15  and  C_37
    9  A    between atoms: N_19  and  C_32
   10  A    between atoms: N_19  and  C_39
   11  A    between atoms: C_20  and  C_29
   12  A    between atoms: C_20  and  C_32
   13  A    between atoms: C_26  and  C_29
                            x       y       z     vdW  Elec       q    Type
                         _______ _______ _______ _____ _____    ______ ____

>  <TORSDO>
F 13

$$$$
=
 OpenBabel10222418443D

 41 44  0  0  1  0  0  0  0  0999 V2000
  186.3410  177.6920  138.2920 C   0  0  0  0  0  0  0  0  0  0  0  0
  187.6870  177.6140  138.6780 C   0  0  0  0  0  0  0  0  0  0  0  0
  184.2490  177.2260  136.9780 S   0  0  0  0  0  0  0  0  0  0  0  0
  185.8820  176.9370  137.2210 C   0  0  0  0  0  0  0  0  0  0  0  0
  186.7160  176.0920  136.4950 C   0  0  0  0  0  3  0  0  0  0  0  0
  185.3520  178.4860  138.8890 C   0  0  0  0  0  3  0  0  0  0  0  0
  188.5460  176.7700  137.9560 C   0  0  0  0  0  3  0  0  0  0  0  0
  184.1210  178.3290  138.2570 C   0  0  0  0  0  0  0  0  0  0  0  0
  188.0660  176.0070  136.8700 C   0  0  0  0  0  0  0  0  0  0  0  0
  189.2360  173.8260  136.8140 C   0  0  0  0  0  0  0  0  0  0  0  0
  192.6930  174.6860  137.0700 C   0  0  0  0  0  0  0  0  0  0  0  0
  188.9780  175.1100  136.0910 C   0  0  2  0  0  3  0  0  0  0  0  0
  190.5750  173.5810  137.2020 N   0  0  0  0  0  2  0  0  0  0  0  0
  191.4050  174.6410  136.7660 C   0  0  0  0  0  0  0  0  0  0  0  0
  188.3200  173.0010  137.0660 O   0  0  0  0  0  0  0  0  0  0  0  0
  194.0640  175.3500  137.0270 C   0  0  0  0  0  2  0  0  0  0  0  0
  190.6020  175.9240  135.8160 S   0  0  0  0  0  0  0  0  0  0  0  0
  193.9430  174.1160  137.7310 C   0  0  0  0  0  2  0  0  0  0  0  0
  181.2770  179.6310  140.1660 O   0  0  0  0  0  0  0  0  0  0  0  0
  182.3220  178.9550  139.9600 C   0  0  0  0  0  0  0  0  0  0  0  0
  182.9360  179.0210  138.6700 N   0  0  0  0  0  2  0  0  0  0  0  0
  182.8700  178.1570  140.9730 O   0  0  0  0  0  0  0  0  0  0  0  0
  183.4110  178.6380  142.1710 C   0  0  0  0  0  0  0  0  0  0  0  0
  182.5380  178.9640  143.2460 N   0  0  0  0  0  1  0  0  0  0  0  0
  184.6530  178.7940  142.3150 O   0  0  0  0  0  0  0  0  0  0  0  0
  188.2260  178.4310  139.8050 C   0  0  0  0  0  2  0  0  0  0  0  0
  189.1580  177.5880  140.6560 C   0  0  0  0  0  2  0  0  0  0  0  0
  189.0920  178.0440  142.0690 C   0  0  0  0  0  3  0  0  0  0  0  0
  188.2780  177.4620  142.9020 C   0  0  0  0  0  0  0  0  0  0  0  0
  187.4610  176.8790  143.7330 C   0  0  0  0  0  3  0  0  0  0  0  0
  186.7870  177.6460  144.7260 N   0  0  0  0  0  2  0  0  0  0  0  0
  187.1950  177.5900  146.1180 C   0  0  2  0  0  3  0  0  0  0  0  0
  185.3060  179.1260  146.0900 N   0  0  0  0  0  1  0  0  0  0  0  0
  186.2190  178.3980  146.9540 C   0  0  0  0  0  2  0  0  0  0  0  0
  188.6020  178.1630  146.2690 C   0  0  0  0  0  2  0  0  0  0  0  0
  189.4470  178.2250  148.4980 O   0  0  0  0  0  1  0  0  0  0  0  0
  189.4150  177.4380  147.3440 C   0  0  0  0  0  0  0  0  0  0  0  0
  188.8190  176.2080  147.6440 O   0  0  0  0  0  1  0  0  0  0  0  0
  190.9100  177.0590  145.3280 C   0  0  0  0  0  1  0  0  0  0  0  0
  190.8500  177.2180  146.8410 C   0  0  0  0  0  3  0  0  0  0  0  0
  191.4930  176.0030  147.4910 C   0  0  0  0  0  1  0  0  0  0  0  0
  1  2  1  0  0  0  0
  1  6  1  0  0  0  0
  2 26  1  0  0  0  0
  3  4  1  0  0  0  0
  3  8  1  0  0  0  0
  4  1  2  0  0  0  0
  5  9  2  0  0  0  0
  5  4  1  0  0  0  0
  7  2  2  0  0  0  0
  8 21  1  0  0  0  0
  8  6  2  0  0  0  0
  9  7  1  0  0  0  0
 10 15  2  0  0  0  0
 10 13  1  0  0  0  0
 11 18  1  0  0  0  0
 12 10  1  0  0  0  0
 12  9  1  1  0  0  0
 14 11  2  0  0  0  0
 14 13  1  0  0  0  0
 16 11  1  0  0  0  0
 16 18  1  0  0  0  0
 17 12  1  0  0  0  0
 17 14  1  0  0  0  0
 20 19  2  0  0  0  0
 20 22  1  0  0  0  0
 21 20  1  0  0  0  0
 22 23  1  0  0  0  0
 23 25  2  0  0  0  0
 23 24  1  0  0  0  0
 26 27  1  0  0  0  0
 27 28  1  0  0  0  0
 28 29  2  0  0  0  0
 29 30  2  0  0  0  0
 30 31  1  0  0  0  0
 31 32  1  0  0  0  0
 32 35  1  6  0  0  0
 32 34  1  0  0  0  0
 33 34  1  0  0  0  0
 35 37  1  0  0  0  0
 37 38  1  0  0  0  0
 37 36  1  0  0  0  0
 39 40  1  0  0  0  0
 40 37  1  0  0  0  0
 40 41  1  0  0  0  0
M  END
>  <MODEL>
3

>  <REMARK>
 VINA RESULT:      -6.9      2.812      7.918
  Name = 
  13 active torsions:
  status: ('A' for Active; 'I' for Inactive)
    1  A    between atoms: C_2  and  C_4
    2  A    between atoms: C_2  and  C_33
    3  A    between atoms: O_8  and  C_13
    4  A    between atoms: O_8  and  C_34
    5  A    between atoms: C_9  and  C_32
    6  A    between atoms: C_11  and  C_33
    7  A    between atoms: C_14  and  C_40
    8  A    between atoms: N_15  and  C_37
    9  A    between atoms: N_19  and  C_32
   10  A    between atoms: N_19  and  C_39
   11  A    between atoms: C_20  and  C_29
   12  A    between atoms: C_20  and  C_32
   13  A    between atoms: C_26  and  C_29
                            x       y       z     vdW  Elec       q    Type
                         _______ _______ _______ _____ _____    ______ ____

>  <TORSDO>
F 13

$$$$
=
 OpenBabel10222418443D

 41 44  0  0  1  0  0  0  0  0999 V2000
  189.4490  177.6980  142.3490 C   0  0  0  0  0  0  0  0  0  0  0  0
  188.1960  177.9550  141.7760 C   0  0  0  0  0  0  0  0  0  0  0  0
  191.8970  177.1430  142.4810 S   0  0  0  0  0  0  0  0  0  0  0  0
  190.5390  177.4110  141.5380 C   0  0  0  0  0  0  0  0  0  0  0  0
  190.4390  177.3590  140.1510 C   0  0  0  0  0  3  0  0  0  0  0  0
  189.7480  177.6960  143.7190 C   0  0  0  0  0  3  0  0  0  0  0  0
  188.0740  177.9040  140.3770 C   0  0  0  0  0  3  0  0  0  0  0  0
  191.0900  177.3990  143.9480 C   0  0  0  0  0  0  0  0  0  0  0  0
  189.1900  177.6110  139.5640 C   0  0  0  0  0  0  0  0  0  0  0  0
  188.4550  178.7970  137.5190 C   0  0  0  0  0  0  0  0  0  0  0  0
  185.6570  176.8980  136.3680 C   0  0  0  0  0  0  0  0  0  0  0  0
  189.0650  177.5480  138.0720 C   0  0  2  0  0  3  0  0  0  0  0  0
  187.2080  178.6510  136.8660 N   0  0  0  0  0  2  0  0  0  0  0  0
  186.8250  177.2890  136.8560 C   0  0  0  0  0  0  0  0  0  0  0  0
  189.0130  179.9200  137.6210 O   0  0  0  0  0  0  0  0  0  0  0  0
  184.6280  175.8230  136.0370 C   0  0  0  0  0  2  0  0  0  0  0  0
  187.9930  176.1420  137.5740 S   0  0  0  0  0  0  0  0  0  0  0  0
  184.3120  177.1740  135.7070 C   0  0  0  0  0  2  0  0  0  0  0  0
  191.6350  176.9770  147.5470 O   0  0  0  0  0  0  0  0  0  0  0  0
  190.9830  176.9900  146.4680 C   0  0  0  0  0  0  0  0  0  0  0  0
  191.6640  177.3360  145.2590 N   0  0  0  0  0  2  0  0  0  0  0  0
  189.6180  176.6720  146.4530 O   0  0  0  0  0  0  0  0  0  0  0  0
  188.6250  177.3550  147.1660 C   0  0  0  0  0  0  0  0  0  0  0  0
  187.3670  177.5960  146.5480 N   0  0  0  0  0  1  0  0  0  0  0  0
  188.8250  177.7660  148.3390 O   0  0  0  0  0  0  0  0  0  0  0  0
  186.9940  178.2400  142.6140 C   0  0  0  0  0  2  0  0  0  0  0  0
  185.9490  178.9690  141.7890 C   0  0  0  0  0  2  0  0  0  0  0  0
  184.6440  178.9370  142.4990 C   0  0  0  0  0  3  0  0  0  0  0  0
  183.5600  178.6190  141.8520 C   0  0  0  0  0  0  0  0  0  0  0  0
  182.4760  178.3020  141.2010 C   0  0  0  0  0  3  0  0  0  0  0  0
  181.2480  178.9550  141.5020 N   0  0  0  0  0  2  0  0  0  0  0  0
  180.3070  179.3000  140.4500 C   0  0  2  0  0  3  0  0  0  0  0  0
  178.9970  177.8110  141.8640 N   0  0  0  0  0  1  0  0  0  0  0  0
  179.1140  178.3640  140.5260 C   0  0  0  0  0  2  0  0  0  0  0  0
  180.9820  179.1680  139.0870 C   0  0  0  0  0  2  0  0  0  0  0  0
  180.6460  181.5270  139.1420 O   0  0  0  0  0  1  0  0  0  0  0  0
  181.3720  180.5240  138.4960 C   0  0  0  0  0  0  0  0  0  0  0  0
  182.7390  180.7520  138.6860 O   0  0  0  0  0  1  0  0  0  0  0  0
  179.7040  181.2180  136.7130 C   0  0  0  0  0  1  0  0  0  0  0  0
  181.0390  180.5440  136.9950 C   0  0  0  0  0  3  0  0  0  0  0  0
  181.0200  179.1420  136.4060 C   0  0  0  0  0  1  0  0  0  0  0  0
  1  6  1  0  0  0  0
  2  1  1  0  0  0  0
  2 26  1  0  0  0  0
  3  8  1  0  0  0  0
  4  1  2  0  0  0  0
  4  3  1  0  0  0  0
  5  4  1  0  0  0  0
  6  8  2  0  0  0  0
  7  2  2  0  0  0  0
  8 21  1  0  0  0  0
  9  5  2  0  0  0  0
  9  7  1  0  0  0  0
 10 15  2  0  0  0  0
 10 12  1  0  0  0  0
 11 14  2  0  0  0  0
 12  9  1  1  0  0  0
 13 10  1  0  0  0  0
 14 13  1  0  0  0  0
 14 17  1  0  0  0  0
 16 11  1  0  0  0  0
 17 12  1  0  0  0  0
 18 16  1  0  0  0  0
 18 11  1  0  0  0  0
 20 19  2  0  0  0  0
 21 20  1  0  0  0  0
 22 20  1  0  0  0  0
 22 23  1  0  0  0  0
 23 25  2  0  0  0  0
 24 23  1  0  0  0  0
 27 28  1  0  0  0  0
 27 26  1  0  0  0  0
 29 28  2  0  0  0  0
 30 31  1  0  0  0  0
 30 29  2  0  0  0  0
 32 35  1  6  0  0  0
 32 34  1  0  0  0  0
 32 31  1  0  0  0  0
 34 33  1  0  0  0  0
 37 38  1  0  0  0  0
 37 35  1  0  0  0  0
 37 36  1  0  0  0  0
 39 40  1  0  0  0  0
 40 37  1  0  0  0  0
 41 40  1  0  0  0  0
M  END
>  <MODEL>
4

>  <REMARK>
 VINA RESULT:      -6.9      1.244      1.677
  Name = 
  13 active torsions:
  status: ('A' for Active; 'I' for Inactive)
    1  A    between atoms: C_2  and  C_4
    2  A    between atoms: C_2  and  C_33
    3  A    between atoms: O_8  and  C_13
    4  A    between atoms: O_8  and  C_34
    5  A    between atoms: C_9  and  C_32
    6  A    between atoms: C_11  and  C_33
    7  A    between atoms: C_14  and  C_40
    8  A    between atoms: N_15  and  C_37
    9  A    between atoms: N_19  and  C_32
   10  A    between atoms: N_19  and  C_39
   11  A    between atoms: C_20  and  C_29
   12  A    between atoms: C_20  and  C_32
   13  A    between atoms: C_26  and  C_29
                            x       y       z     vdW  Elec       q    Type
                         _______ _______ _______ _____ _____    ______ ____

>  <TORSDO>
F 13

$$$$
=
 OpenBabel10222418443D

 41 44  0  0  1  0  0  0  0  0999 V2000
  185.7260  178.1810  144.4760 C   0  0  0  0  0  0  0  0  0  0  0  0
  185.6210  178.0690  143.0830 C   0  0  0  0  0  0  0  0  0  0  0  0
  185.0460  178.6750  146.8460 S   0  0  0  0  0  0  0  0  0  0  0  0
  184.6450  178.6360  145.2200 C   0  0  0  0  0  0  0  0  0  0  0  0
  183.4390  179.0010  144.6300 C   0  0  0  0  0  3  0  0  0  0  0  0
  186.8540  177.8710  145.2500 C   0  0  0  0  0  3  0  0  0  0  0  0
  184.4120  178.4340  142.4680 C   0  0  0  0  0  3  0  0  0  0  0  0
  186.6210  178.1000  146.6040 C   0  0  0  0  0  0  0  0  0  0  0  0
  183.3210  178.8960  143.2350 C   0  0  0  0  0  0  0  0  0  0  0  0
  180.8730  178.5370  143.1510 C   0  0  0  0  0  0  0  0  0  0  0  0
  180.3220  177.0310  139.9600 C   0  0  0  0  0  0  0  0  0  0  0  0
  182.0310  179.2950  142.5850 C   0  0  2  0  0  3  0  0  0  0  0  0
  180.1790  177.6890  142.2560 N   0  0  0  0  0  2  0  0  0  0  0  0
  180.7460  177.7850  140.9630 C   0  0  0  0  0  0  0  0  0  0  0  0
  180.5250  178.6410  144.3560 O   0  0  0  0  0  0  0  0  0  0  0  0
  180.3760  176.5670  138.5080 C   0  0  0  0  0  2  0  0  0  0  0  0
  182.0870  178.9530  140.7810 S   0  0  0  0  0  0  0  0  0  0  0  0
  179.4090  175.9640  139.3670 C   0  0  0  0  0  2  0  0  0  0  0  0
  189.7600  177.6430  148.4390 O   0  0  0  0  0  0  0  0  0  0  0  0
  189.0250  177.8700  147.4400 C   0  0  0  0  0  0  0  0  0  0  0  0
  187.6060  177.8610  147.6180 N   0  0  0  0  0  2  0  0  0  0  0  0
  189.5860  178.1260  146.1810 O   0  0  0  0  0  0  0  0  0  0  0  0
  190.6270  177.3920  145.6010 C   0  0  0  0  0  0  0  0  0  0  0  0
  190.4920  176.9340  144.2610 N   0  0  0  0  0  1  0  0  0  0  0  0
  191.6770  177.1220  146.2420 O   0  0  0  0  0  0  0  0  0  0  0  0
  186.7680  177.6100  142.2450 C   0  0  0  0  0  2  0  0  0  0  0  0
  187.3190  178.7730  141.4400 C   0  0  0  0  0  2  0  0  0  0  0  0
  188.0330  178.2560  140.2440 C   0  0  0  0  0  3  0  0  0  0  0  0
  189.0910  177.5100  140.3910 C   0  0  0  0  0  0  0  0  0  0  0  0
  190.1500  176.7660  140.5420 C   0  0  0  0  0  3  0  0  0  0  0  0
  191.2430  176.8920  139.6380 N   0  0  0  0  0  2  0  0  0  0  0  0
  191.2570  176.1710  138.3770 C   0  0  2  0  0  3  0  0  0  0  0  0
  193.4870  176.7500  137.5880 N   0  0  0  0  0  1  0  0  0  0  0  0
  192.6650  175.6720  138.1080 C   0  0  0  0  0  2  0  0  0  0  0  0
  190.8120  177.0960  137.2470 C   0  0  0  0  0  2  0  0  0  0  0  0
  190.0000  176.0420  135.2690 O   0  0  0  0  0  1  0  0  0  0  0  0
  189.5890  176.5580  136.5000 C   0  0  0  0  0  0  0  0  0  0  0  0
  188.9860  175.5400  137.2460 O   0  0  0  0  0  1  0  0  0  0  0  0
  189.0450  179.0040  136.9030 C   0  0  0  0  0  1  0  0  0  0  0  0
  188.5890  177.7000  136.2630 C   0  0  0  0  0  3  0  0  0  0  0  0
  187.2040  177.3510  136.7850 C   0  0  0  0  0  1  0  0  0  0  0  0
  1  4  1  0  0  0  0
  1  6  1  0  0  0  0
  2  1  2  0  0  0  0
  4  3  1  0  0  0  0
  5  4  2  0  0  0  0
  6  8  2  0  0  0  0
  7  2  1  0  0  0  0
  7  9  2  0  0  0  0
  8  3  1  0  0  0  0
  8 21  1  0  0  0  0
  9  5  1  0  0  0  0
 10 15  2  0  0  0  0
 11 14  2  0  0  0  0
 12 10  1  0  0  0  0
 12  9  1  1  0  0  0
 13 10  1  0  0  0  0
 14 13  1  0  0  0  0
 16 18  1  0  0  0  0
 16 11  1  0  0  0  0
 17 14  1  0  0  0  0
 17 12  1  0  0  0  0
 18 11  1  0  0  0  0
 20 21  1  0  0  0  0
 20 19  2  0  0  0  0
 22 20  1  0  0  0  0
 23 22  1  0  0  0  0
 23 25  2  0  0  0  0
 24 23  1  0  0  0  0
 26  2  1  0  0  0  0
 27 26  1  0  0  0  0
 28 29  2  0  0  0  0
 28 27  1  0  0  0  0
 29 30  2  0  0  0  0
 31 30  1  0  0  0  0
 32 35  1  6  0  0  0
 32 31  1  0  0  0  0
 33 34  1  0  0  0  0
 34 32  1  0  0  0  0
 36 37  1  0  0  0  0
 37 38  1  0  0  0  0
 37 35  1  0  0  0  0
 40 37  1  0  0  0  0
 40 41  1  0  0  0  0
 40 39  1  0  0  0  0
M  END
>  <MODEL>
5

>  <REMARK>
 VINA RESULT:      -6.9      3.126      7.302
  Name = 
  13 active torsions:
  status: ('A' for Active; 'I' for Inactive)
    1  A    between atoms: C_2  and  C_4
    2  A    between atoms: C_2  and  C_33
    3  A    between atoms: O_8  and  C_13
    4  A    between atoms: O_8  and  C_34
    5  A    between atoms: C_9  and  C_32
    6  A    between atoms: C_11  and  C_33
    7  A    between atoms: C_14  and  C_40
    8  A    between atoms: N_15  and  C_37
    9  A    between atoms: N_19  and  C_32
   10  A    between atoms: N_19  and  C_39
   11  A    between atoms: C_20  and  C_29
   12  A    between atoms: C_20  and  C_32
   13  A    between atoms: C_26  and  C_29
                            x       y       z     vdW  Elec       q    Type
                         _______ _______ _______ _____ _____    ______ ____

>  <TORSDO>
F 13

$$$$
=
 OpenBabel10222418443D

 41 44  0  0  1  0  0  0  0  0999 V2000
  186.2990  178.4740  139.9740 C   0  0  0  0  0  0  0  0  0  0  0  0
  185.5090  178.6780  141.1140 C   0  0  0  0  0  0  0  0  0  0  0  0
  186.8810  178.1910  137.5450 S   0  0  0  0  0  0  0  0  0  0  0  0
  185.7130  178.4560  138.7160 C   0  0  0  0  0  0  0  0  0  0  0  0
  184.3440  178.6300  138.5320 C   0  0  0  0  0  3  0  0  0  0  0  0
  187.6870  178.2720  139.9530 C   0  0  0  0  0  3  0  0  0  0  0  0
  184.1250  178.8530  140.9500 C   0  0  0  0  0  3  0  0  0  0  0  0
  188.1570  178.0980  138.6540 C   0  0  0  0  0  0  0  0  0  0  0  0
  183.5410  178.8330  139.6650 C   0  0  0  0  0  0  0  0  0  0  0  0
  181.4680  177.8880  138.6980 C   0  0  0  0  0  0  0  0  0  0  0  0
  180.5840  180.1870  136.1120 C   0  0  0  0  0  0  0  0  0  0  0  0
  182.0650  179.0120  139.4830 C   0  0  2  0  0  3  0  0  0  0  0  0
  180.8910  178.2280  137.4520 N   0  0  0  0  0  2  0  0  0  0  0  0
  180.9860  179.6240  137.2420 C   0  0  0  0  0  0  0  0  0  0  0  0
  181.4710  176.7000  139.1150 O   0  0  0  0  0  0  0  0  0  0  0  0
  180.3740  181.4000  135.2120 C   0  0  0  0  0  2  0  0  0  0  0  0
  181.7100  180.5690  138.5750 S   0  0  0  0  0  0  0  0  0  0  0  0
  179.9780  180.1220  134.7150 C   0  0  0  0  0  2  0  0  0  0  0  0
  191.3550  176.6410  137.6160 O   0  0  0  0  0  0  0  0  0  0  0  0
  190.1150  176.6710  137.8400 C   0  0  0  0  0  0  0  0  0  0  0  0
  189.5400  177.8790  138.3460 N   0  0  0  0  0  2  0  0  0  0  0  0
  189.3150  175.5450  137.5990 O   0  0  0  0  0  0  0  0  0  0  0  0
  189.0000  175.0400  136.3320 C   0  0  0  0  0  0  0  0  0  0  0  0
  188.8530  175.9410  135.2410 N   0  0  0  0  0  1  0  0  0  0  0  0
  188.8370  173.8060  136.1390 O   0  0  0  0  0  0  0  0  0  0  0  0
  186.0970  178.6750  142.4860 C   0  0  0  0  0  2  0  0  0  0  0  0
  184.9940  178.7860  143.5230 C   0  0  0  0  0  2  0  0  0  0  0  0
  185.3180  177.9240  144.6890 C   0  0  0  0  0  3  0  0  0  0  0  0
  186.4330  178.1010  145.3370 C   0  0  0  0  0  0  0  0  0  0  0  0
  187.5510  178.2790  145.9830 C   0  0  0  0  0  3  0  0  0  0  0  0
  188.2630  177.1590  146.4970 N   0  0  0  0  0  2  0  0  0  0  0  0
  189.6780  176.9810  146.2210 C   0  0  2  0  0  3  0  0  0  0  0  0
  191.5010  176.1740  147.6200 N   0  0  0  0  0  1  0  0  0  0  0  0
  190.4620  177.1820  147.5050 C   0  0  0  0  0  2  0  0  0  0  0  0
  190.1320  177.9940  145.1730 C   0  0  0  0  0  2  0  0  0  0  0  0
  191.9350  178.1200  143.6180 O   0  0  0  0  0  1  0  0  0  0  0  0
  190.8440  177.3310  143.9920 C   0  0  0  0  0  0  0  0  0  0  0  0
  191.3010  176.0620  144.3620 O   0  0  0  0  0  1  0  0  0  0  0  0
  188.7700  176.1980  143.0650 C   0  0  0  0  0  1  0  0  0  0  0  0
  189.8730  177.2160  142.8070 C   0  0  0  0  0  3  0  0  0  0  0  0
  190.5970  176.8450  141.5220 C   0  0  0  0  0  1  0  0  0  0  0  0
  1  2  1  0  0  0  0
  2 26  1  0  0  0  0
  3  8  1  0  0  0  0
  3  4  1  0  0  0  0
  4  1  2  0  0  0  0
  5  4  1  0  0  0  0
  5  9  2  0  0  0  0
  6  1  1  0  0  0  0
  7  2  2  0  0  0  0
  8  6  2  0  0  0  0
  9  7  1  0  0  0  0
 10 15  2  0  0  0  0
 10 12  1  0  0  0  0
 11 14  2  0  0  0  0
 12  9  1  6  0  0  0
 13 10  1  0  0  0  0
 14 13  1  0  0  0  0
 14 17  1  0  0  0  0
 16 11  1  0  0  0  0
 17 12  1  0  0  0  0
 18 16  1  0  0  0  0
 18 11  1  0  0  0  0
 19 20  2  0  0  0  0
 20 21  1  0  0  0  0
 21  8  1  0  0  0  0
 22 20  1  0  0  0  0
 23 22  1  0  0  0  0
 24 23  1  0  0  0  0
 25 23  2  0  0  0  0
 26 27  1  0  0  0  0
 27 28  1  0  0  0  0
 28 29  2  0  0  0  0
 29 30  2  0  0  0  0
 30 31  1  0  0  0  0
 32 35  1  6  0  0  0
 32 31  1  0  0  0  0
 32 34  1  0  0  0  0
 34 33  1  0  0  0  0
 36 37  1  0  0  0  0
 37 38  1  0  0  0  0
 37 35  1  0  0  0  0
 40 39  1  0  0  0  0
 40 37  1  0  0  0  0
 41 40  1  0  0  0  0
M  END
>  <MODEL>
6

>  <REMARK>
 VINA RESULT:      -6.9      2.801      8.188
  Name = 
  13 active torsions:
  status: ('A' for Active; 'I' for Inactive)
    1  A    between atoms: C_2  and  C_4
    2  A    between atoms: C_2  and  C_33
    3  A    between atoms: O_8  and  C_13
    4  A    between atoms: O_8  and  C_34
    5  A    between atoms: C_9  and  C_32
    6  A    between atoms: C_11  and  C_33
    7  A    between atoms: C_14  and  C_40
    8  A    between atoms: N_15  and  C_37
    9  A    between atoms: N_19  and  C_32
   10  A    between atoms: N_19  and  C_39
   11  A    between atoms: C_20  and  C_29
   12  A    between atoms: C_20  and  C_32
   13  A    between atoms: C_26  and  C_29
                            x       y       z     vdW  Elec       q    Type
                         _______ _______ _______ _____ _____    ______ ____

>  <TORSDO>
F 13

$$$$
=
 OpenBabel10222418443D

 41 44  0  0  1  0  0  0  0  0999 V2000
  184.8110  178.6980  140.2480 C   0  0  0  0  0  0  0  0  0  0  0  0
  185.8560  178.8280  141.1730 C   0  0  0  0  0  0  0  0  0  0  0  0
  183.6650  178.2840  138.0490 S   0  0  0  0  0  0  0  0  0  0  0  0
  185.0890  178.3670  138.9280 C   0  0  0  0  0  0  0  0  0  0  0  0
  186.3870  178.1610  138.4710 C   0  0  0  0  0  3  0  0  0  0  0  0
  183.4450  178.8720  140.5110 C   0  0  0  0  0  3  0  0  0  0  0  0
  187.1740  178.6270  140.7310 C   0  0  0  0  0  3  0  0  0  0  0  0
  182.6750  178.6720  139.3680 C   0  0  0  0  0  0  0  0  0  0  0  0
  187.4430  178.2910  139.3870 C   0  0  0  0  0  0  0  0  0  0  0  0
  189.0950  178.7880  137.6120 C   0  0  0  0  0  0  0  0  0  0  0  0
  189.6400  175.6380  136.0200 C   0  0  0  0  0  0  0  0  0  0  0  0
  188.8470  178.0820  138.9070 C   0  0  2  0  0  3  0  0  0  0  0  0
  189.4050  177.9700  136.5000 N   0  0  0  0  0  2  0  0  0  0  0  0
  189.4430  176.6130  136.8950 C   0  0  0  0  0  0  0  0  0  0  0  0
  189.0370  180.0410  137.5070 O   0  0  0  0  0  0  0  0  0  0  0  0
  189.7870  174.1650  135.6550 C   0  0  0  0  0  2  0  0  0  0  0  0
  189.1760  176.2950  138.6340 S   0  0  0  0  0  0  0  0  0  0  0  0
  189.8900  175.1260  134.6060 C   0  0  0  0  0  2  0  0  0  0  0  0
  179.2310  179.8900  139.0870 O   0  0  0  0  0  0  0  0  0  0  0  0
  180.4900  179.9580  139.0560 C   0  0  0  0  0  0  0  0  0  0  0  0
  181.2470  178.7830  139.3570 N   0  0  0  0  0  2  0  0  0  0  0  0
  181.1350  181.1600  138.7330 O   0  0  0  0  0  0  0  0  0  0  0  0
  180.8080  181.9800  137.6460 C   0  0  0  0  0  0  0  0  0  0  0  0
  180.7250  183.3870  137.8380 N   0  0  0  0  0  1  0  0  0  0  0  0
  180.5800  181.4980  136.5050 O   0  0  0  0  0  0  0  0  0  0  0  0
  185.6020  179.2100  142.5940 C   0  0  0  0  0  2  0  0  0  0  0  0
  185.2420  177.9780  143.4040 C   0  0  0  0  0  2  0  0  0  0  0  0
  186.4710  177.4040  144.0110 C   0  0  0  0  0  3  0  0  0  0  0  0
  186.7730  177.6760  145.2480 C   0  0  0  0  0  0  0  0  0  0  0  0
  187.0730  177.9520  146.4860 C   0  0  0  0  0  3  0  0  0  0  0  0
  188.4330  178.1350  146.8650 N   0  0  0  0  0  2  0  0  0  0  0  0
  189.4920  177.3520  146.2520 C   0  0  2  0  0  3  0  0  0  0  0  0
  191.6860  176.7140  147.0960 N   0  0  0  0  0  1  0  0  0  0  0  0
  190.2580  176.6170  147.3380 C   0  0  0  0  0  2  0  0  0  0  0  0
  190.4390  178.2710  145.4850 C   0  0  0  0  0  2  0  0  0  0  0  0
  189.4610  178.6070  143.3360 O   0  0  0  0  0  1  0  0  0  0  0  0
  190.4950  177.9360  143.9930 C   0  0  0  0  0  0  0  0  0  0  0  0
  191.7210  178.3470  143.4570 O   0  0  0  0  0  1  0  0  0  0  0  0
  191.6510  175.7070  143.6180 C   0  0  0  0  0  1  0  0  0  0  0  0
  190.3190  176.4210  143.8010 C   0  0  0  0  0  3  0  0  0  0  0  0
  189.4220  176.1060  142.6130 C   0  0  0  0  0  1  0  0  0  0  0  0
  1  6  1  0  0  0  0
  1  2  1  0  0  0  0
  2 26  1  0  0  0  0
  3  4  1  0  0  0  0
  3  8  1  0  0  0  0
  4  1  2  0  0  0  0
  5  4  1  0  0  0  0
  5  9  2  0  0  0  0
  7  2  2  0  0  0  0
  8  6  2  0  0  0  0
  9  7  1  0  0  0  0
 10 12  1  0  0  0  0
 11 14  2  0  0  0  0
 12  9  1  6  0  0  0
 13 14  1  0  0  0  0
 13 10  1  0  0  0  0
 14 17  1  0  0  0  0
 15 10  2  0  0  0  0
 16 11  1  0  0  0  0
 17 12  1  0  0  0  0
 18 16  1  0  0  0  0
 18 11  1  0  0  0  0
 20 19  2  0  0  0  0
 20 21  1  0  0  0  0
 21  8  1  0  0  0  0
 22 20  1  0  0  0  0
 23 24  1  0  0  0  0
 23 22  1  0  0  0  0
 25 23  2  0  0  0  0
 26 27  1  0  0  0  0
 27 28  1  0  0  0  0
 28 29  2  0  0  0  0
 29 30  2  0  0  0  0
 30 31  1  0  0  0  0
 32 35  1  1  0  0  0
 32 31  1  0  0  0  0
 32 34  1  0  0  0  0
 33 34  1  0  0  0  0
 36 37  1  0  0  0  0
 37 35  1  0  0  0  0
 38 37  1  0  0  0  0
 39 40  1  0  0  0  0
 40 37  1  0  0  0  0
 41 40  1  0  0  0  0
M  END
>  <MODEL>
7

>  <REMARK>
 VINA RESULT:      -6.9      2.277      8.307
  Name = 
  13 active torsions:
  status: ('A' for Active; 'I' for Inactive)
    1  A    between atoms: C_2  and  C_4
    2  A    between atoms: C_2  and  C_33
    3  A    between atoms: O_8  and  C_13
    4  A    between atoms: O_8  and  C_34
    5  A    between atoms: C_9  and  C_32
    6  A    between atoms: C_11  and  C_33
    7  A    between atoms: C_14  and  C_40
    8  A    between atoms: N_15  and  C_37
    9  A    between atoms: N_19  and  C_32
   10  A    between atoms: N_19  and  C_39
   11  A    between atoms: C_20  and  C_29
   12  A    between atoms: C_20  and  C_32
   13  A    between atoms: C_26  and  C_29
                            x       y       z     vdW  Elec       q    Type
                         _______ _______ _______ _____ _____    ______ ____

>  <TORSDO>
F 13

$$$$
=
 OpenBabel10222418443D

 41 44  0  0  1  0  0  0  0  0999 V2000
  186.2390  178.5080  139.9740 C   0  0  0  0  0  0  0  0  0  0  0  0
  185.2200  178.8050  140.8900 C   0  0  0  0  0  0  0  0  0  0  0  0
  187.3220  177.9050  137.7880 S   0  0  0  0  0  0  0  0  0  0  0  0
  185.9230  178.2260  138.6520 C   0  0  0  0  0  0  0  0  0  0  0  0
  184.6120  178.2190  138.1860 C   0  0  0  0  0  3  0  0  0  0  0  0
  187.6130  178.4580  140.2510 C   0  0  0  0  0  3  0  0  0  0  0  0
  183.8890  178.8000  140.4410 C   0  0  0  0  0  3  0  0  0  0  0  0
  188.3500  178.1300  139.1160 C   0  0  0  0  0  0  0  0  0  0  0  0
  183.5820  178.5120  139.0930 C   0  0  0  0  0  0  0  0  0  0  0  0
  181.3070  177.6020  139.4440 C   0  0  0  0  0  0  0  0  0  0  0  0
  180.7580  175.5070  136.6040 C   0  0  0  0  0  0  0  0  0  0  0  0
  182.1650  178.4980  138.6080 C   0  0  2  0  0  3  0  0  0  0  0  0
  180.7390  176.4840  138.7890 N   0  0  0  0  0  2  0  0  0  0  0  0
  181.1030  176.4910  137.4210 C   0  0  0  0  0  0  0  0  0  0  0  0
  181.0940  177.8230  140.6650 O   0  0  0  0  0  0  0  0  0  0  0  0
  180.7460  174.8340  135.2360 C   0  0  0  0  0  2  0  0  0  0  0  0
  182.0810  177.8850  136.8780 S   0  0  0  0  0  0  0  0  0  0  0  0
  180.0710  174.1790  136.3090 C   0  0  0  0  0  2  0  0  0  0  0  0
  191.7920  176.8930  138.9120 O   0  0  0  0  0  0  0  0  0  0  0  0
  190.5340  176.8250  138.8800 C   0  0  0  0  0  0  0  0  0  0  0  0
  189.7780  178.0160  139.1160 N   0  0  0  0  0  2  0  0  0  0  0  0
  189.8880  175.6090  138.6170 O   0  0  0  0  0  0  0  0  0  0  0  0
  190.0050  174.8770  137.4300 C   0  0  0  0  0  0  0  0  0  0  0  0
  189.8310  175.5420  136.1840 N   0  0  0  0  0  1  0  0  0  0  0  0
  190.2530  173.6430  137.4410 O   0  0  0  0  0  0  0  0  0  0  0  0
  185.5140  179.0850  142.3270 C   0  0  0  0  0  2  0  0  0  0  0  0
  184.2200  179.3130  143.0860 C   0  0  0  0  0  2  0  0  0  0  0  0
  184.2740  178.5960  144.3870 C   0  0  0  0  0  3  0  0  0  0  0  0
  185.3690  178.6090  145.0910 C   0  0  0  0  0  0  0  0  0  0  0  0
  186.4670  178.6220  145.7920 C   0  0  0  0  0  3  0  0  0  0  0  0
  186.8620  177.4630  146.5190 N   0  0  0  0  0  2  0  0  0  0  0  0
  188.2490  177.0310  146.5400 C   0  0  2  0  0  3  0  0  0  0  0  0
  189.0430  178.3570  148.4220 N   0  0  0  0  0  1  0  0  0  0  0  0
  188.7390  177.0090  147.9770 C   0  0  0  0  0  2  0  0  0  0  0  0
  189.1040  177.9910  145.7170 C   0  0  0  0  0  2  0  0  0  0  0  0
  190.9530  176.5940  145.1570 O   0  0  0  0  0  1  0  0  0  0  0  0
  189.8700  177.2790  144.6000 C   0  0  0  0  0  0  0  0  0  0  0  0
  189.0310  176.3630  143.9560 O   0  0  0  0  0  1  0  0  0  0  0  0
  191.1810  177.6720  142.4620 C   0  0  0  0  0  1  0  0  0  0  0  0
  190.3900  178.3160  143.5920 C   0  0  0  0  0  3  0  0  0  0  0  0
  191.2570  179.3670  144.2660 C   0  0  0  0  0  1  0  0  0  0  0  0
  1  6  1  0  0  0  0
  1  2  1  0  0  0  0
  2 26  1  0  0  0  0
  3  4  1  0  0  0  0
  3  8  1  0  0  0  0
  4  1  2  0  0  0  0
  5  4  1  0  0  0  0
  5  9  2  0  0  0  0
  7  2  2  0  0  0  0
  8  6  2  0  0  0  0
  9  7  1  0  0  0  0
 10 15  2  0  0  0  0
 11 14  2  0  0  0  0
 12  9  1  1  0  0  0
 12 10  1  0  0  0  0
 13 10  1  0  0  0  0
 14 13  1  0  0  0  0
 16 18  1  0  0  0  0
 16 11  1  0  0  0  0
 17 14  1  0  0  0  0
 17 12  1  0  0  0  0
 18 11  1  0  0  0  0
 20 19  2  0  0  0  0
 20 21  1  0  0  0  0
 21  8  1  0  0  0  0
 22 20  1  0  0  0  0
 23 25  2  0  0  0  0
 23 22  1  0  0  0  0
 24 23  1  0  0  0  0
 26 27  1  0  0  0  0
 27 28  1  0  0  0  0
 28 29  2  0  0  0  0
 29 30  2  0  0  0  0
 30 31  1  0  0  0  0
 31 32  1  0  0  0  0
 32 35  1  6  0  0  0
 32 34  1  0  0  0  0
 34 33  1  0  0  0  0
 37 36  1  0  0  0  0
 37 35  1  0  0  0  0
 38 37  1  0  0  0  0
 39 40  1  0  0  0  0
 40 41  1  0  0  0  0
 40 37  1  0  0  0  0
M  END
>  <MODEL>
8

>  <REMARK>
 VINA RESULT:      -6.8      2.780      7.682
  Name = 
  13 active torsions:
  status: ('A' for Active; 'I' for Inactive)
    1  A    between atoms: C_2  and  C_4
    2  A    between atoms: C_2  and  C_33
    3  A    between atoms: O_8  and  C_13
    4  A    between atoms: O_8  and  C_34
    5  A    between atoms: C_9  and  C_32
    6  A    between atoms: C_11  and  C_33
    7  A    between atoms: C_14  and  C_40
    8  A    between atoms: N_15  and  C_37
    9  A    between atoms: N_19  and  C_32
   10  A    between atoms: N_19  and  C_39
   11  A    between atoms: C_20  and  C_29
   12  A    between atoms: C_20  and  C_32
   13  A    between atoms: C_26  and  C_29
                            x       y       z     vdW  Elec       q    Type
                         _______ _______ _______ _____ _____    ______ ____

>  <TORSDO>
F 13

$$$$
=
 OpenBabel10222418443D

 41 44  0  0  1  0  0  0  0  0999 V2000
  186.1560  178.2480  143.7130 C   0  0  0  0  0  0  0  0  0  0  0  0
  186.7050  178.0410  142.4400 C   0  0  0  0  0  0  0  0  0  0  0  0
  184.4100  178.6590  145.4740 S   0  0  0  0  0  0  0  0  0  0  0  0
  184.7870  178.4290  143.8580 C   0  0  0  0  0  0  0  0  0  0  0  0
  183.9170  178.4200  142.7720 C   0  0  0  0  0  3  0  0  0  0  0  0
  186.8640  178.2990  144.9220 C   0  0  0  0  0  3  0  0  0  0  0  0
  185.8430  178.0310  141.3300 C   0  0  0  0  0  3  0  0  0  0  0  0
  186.0140  178.5240  146.0020 C   0  0  0  0  0  0  0  0  0  0  0  0
  184.4530  178.2160  141.4910 C   0  0  0  0  0  0  0  0  0  0  0  0
  183.7050  179.4420  139.4750 C   0  0  0  0  0  0  0  0  0  0  0  0
  180.3560  180.4180  140.2420 C   0  0  0  0  0  0  0  0  0  0  0  0
  183.5300  178.2140  140.3120 C   0  0  2  0  0  3  0  0  0  0  0  0
  182.5860  180.3040  139.3830 N   0  0  0  0  0  2  0  0  0  0  0  0
  181.5000  179.7630  140.1100 C   0  0  0  0  0  0  0  0  0  0  0  0
  184.7830  179.7020  138.8800 O   0  0  0  0  0  0  0  0  0  0  0  0
  178.9320  180.5490  140.7710 C   0  0  0  0  0  2  0  0  0  0  0  0
  181.7780  178.1670  140.8640 S   0  0  0  0  0  0  0  0  0  0  0  0
  179.4530  181.6180  139.9840 C   0  0  0  0  0  2  0  0  0  0  0  0
  187.8570  178.0950  149.1400 O   0  0  0  0  0  0  0  0  0  0  0  0
  187.5740  177.8990  147.9270 C   0  0  0  0  0  0  0  0  0  0  0  0
  186.4760  178.6150  147.3560 N   0  0  0  0  0  2  0  0  0  0  0  0
  188.3200  176.9990  147.1530 O   0  0  0  0  0  0  0  0  0  0  0  0
  189.6900  177.1100  146.8880 C   0  0  0  0  0  0  0  0  0  0  0  0
  190.1200  177.8570  145.7560 N   0  0  0  0  0  1  0  0  0  0  0  0
  190.5490  176.5580  147.6260 O   0  0  0  0  0  0  0  0  0  0  0  0
  188.1740  177.8700  142.2380 C   0  0  0  0  0  2  0  0  0  0  0  0
  188.5970  176.4770  142.6670 C   0  0  0  0  0  2  0  0  0  0  0  0
  190.0230  176.2590  142.3120 C   0  0  0  0  0  3  0  0  0  0  0  0
  190.5400  176.8770  141.2880 C   0  0  0  0  0  0  0  0  0  0  0  0
  191.0530  177.4950  140.2630 C   0  0  0  0  0  3  0  0  0  0  0  0
  192.0060  176.8350  139.4360 N   0  0  0  0  0  2  0  0  0  0  0  0
  191.5800  175.9650  138.3530 C   0  0  2  0  0  3  0  0  0  0  0  0
  194.0100  175.9020  138.1970 N   0  0  0  0  0  1  0  0  0  0  0  0
  192.7880  175.2180  137.8150 C   0  0  0  0  0  2  0  0  0  0  0  0
  190.9490  176.7970  137.2390 C   0  0  0  0  0  2  0  0  0  0  0  0
  189.6440  175.9780  135.4190 O   0  0  0  0  0  1  0  0  0  0  0  0
  189.5960  176.2380  136.7910 C   0  0  0  0  0  0  0  0  0  0  0  0
  189.3210  175.0500  137.4740 O   0  0  0  0  0  1  0  0  0  0  0  0
  188.9790  178.7000  136.8510 C   0  0  0  0  0  1  0  0  0  0  0  0
  188.4960  177.2740  137.0720 C   0  0  0  0  0  3  0  0  0  0  0  0
  187.9560  177.1490  138.4890 C   0  0  0  0  0  1  0  0  0  0  0  0
  1  4  1  0  0  0  0
  1  6  1  0  0  0  0
  2  1  2  0  0  0  0
  3  8  1  0  0  0  0
  4  3  1  0  0  0  0
  5  4  2  0  0  0  0
  6  8  2  0  0  0  0
  7  9  2  0  0  0  0
  7  2  1  0  0  0  0
  8 21  1  0  0  0  0
  9  5  1  0  0  0  0
 10 12  1  0  0  0  0
 11 16  1  0  0  0  0
 12 17  1  0  0  0  0
 12  9  1  1  0  0  0
 13 10  1  0  0  0  0
 13 14  1  0  0  0  0
 14 11  2  0  0  0  0
 14 17  1  0  0  0  0
 15 10  2  0  0  0  0
 18 11  1  0  0  0  0
 18 16  1  0  0  0  0
 20 19  2  0  0  0  0
 21 20  1  0  0  0  0
 22 20  1  0  0  0  0
 23 22  1  0  0  0  0
 23 25  2  0  0  0  0
 24 23  1  0  0  0  0
 26  2  1  0  0  0  0
 26 27  1  0  0  0  0
 28 27  1  0  0  0  0
 29 28  2  0  0  0  0
 30 29  2  0  0  0  0
 31 30  1  0  0  0  0
 32 35  1  6  0  0  0
 32 31  1  0  0  0  0
 34 33  1  0  0  0  0
 34 32  1  0  0  0  0
 36 37  1  0  0  0  0
 37 40  1  0  0  0  0
 37 35  1  0  0  0  0
 37 38  1  0  0  0  0
 39 40  1  0  0  0  0
 40 41  1  0  0  0  0
M  END
>  <MODEL>
9

>  <REMARK>
 VINA RESULT:      -6.8      2.825      7.095
  Name = 
  13 active torsions:
  status: ('A' for Active; 'I' for Inactive)
    1  A    between atoms: C_2  and  C_4
    2  A    between atoms: C_2  and  C_33
    3  A    between atoms: O_8  and  C_13
    4  A    between atoms: O_8  and  C_34
    5  A    between atoms: C_9  and  C_32
    6  A    between atoms: C_11  and  C_33
    7  A    between atoms: C_14  and  C_40
    8  A    between atoms: N_15  and  C_37
    9  A    between atoms: N_19  and  C_32
   10  A    between atoms: N_19  and  C_39
   11  A    between atoms: C_20  and  C_29
   12  A    between atoms: C_20  and  C_32
   13  A    between atoms: C_26  and  C_29
                            x       y       z     vdW  Elec       q    Type
                         _______ _______ _______ _____ _____    ______ ____

>  <TORSDO>
F 13

$$$$
