=
 OpenBabel10222417403D

 30 36  0  0  1  0  0  0  0  0999 V2000
  189.7490  179.0930  142.1860 C   0  0  0  0  0  2  0  0  0  0  0  0
  186.9310  176.1080  144.9890 C   0  0  0  0  0  2  0  0  0  0  0  0
  187.0300  178.6830  147.7500 C   0  0  2  0  0  3  0  0  0  0  0  0
  188.3050  177.8440  148.0550 C   0  0  0  0  0  1  0  0  0  0  0  0
  186.1060  179.2500  146.0050 C   0  0  2  0  0  3  0  0  0  0  0  0
  186.6440  178.0590  143.3130 C   0  0  0  0  0  2  0  0  0  0  0  0
  192.1210  175.5010  146.9910 C   0  0  0  0  0  3  0  0  0  0  0  0
  187.2850  176.7000  143.6180 C   0  0  1  0  0  3  0  0  0  0  0  0
  191.2490  176.4760  147.4740 C   0  0  0  0  0  3  0  0  0  0  0  0
  189.5060  178.2010  147.0950 C   0  0  0  0  0  2  0  0  0  0  0  0
  191.3490  175.9250  144.7690 N   0  0  0  0  0  0  0  0  0  0  0  0
  192.1580  175.2370  145.6200 C   0  0  0  0  0  3  0  0  0  0  0  0
  189.6220  177.6160  144.2200 C   0  0  1  0  0  3  0  0  0  0  0  0
  190.4750  178.6280  143.4410 C   0  0  0  0  0  2  0  0  0  0  0  0
  188.7940  176.6400  143.3400 C   0  0  2  0  0  3  0  0  0  0  0  0
  185.2400  178.1400  143.9110 C   0  0  0  0  0  2  0  0  0  0  0  0
  185.7920  179.4970  147.4540 C   0  0  0  0  0  2  0  0  0  0  0  0
  189.0690  176.7540  141.8580 C   0  0  0  0  0  3  0  0  0  0  0  0
  185.2680  178.0850  145.4490 C   0  0  1  0  0  3  0  0  0  0  0  0
  186.2910  177.0740  146.0050 C   0  0  2  0  0  3  0  0  0  0  0  0
  188.2950  177.8720  147.3530 C   0  0  2  0  0  0  0  0  0  0  0  0
  190.4250  177.1780  146.5900 C   0  0  0  0  0  0  0  0  0  0  0  0
  187.2000  178.2420  146.3840 C   0  0  2  0  0  0  0  0  0  0  0  0
  190.4820  176.8770  145.2110 C   0  0  0  0  0  0  0  0  0  0  0  0
  189.4810  177.9050  141.3110 C   0  0  0  0  0  0  0  0  0  0  0  0
  189.8030  177.9630  139.8570 C   0  0  0  0  0  2  0  0  0  0  0  0
  187.8910  176.8150  138.0950 O   0  0  0  0  0  1  0  0  0  0  0  0
  188.7680  178.7040  139.1540 N   0  0  0  0  0  2  0  0  0  0  0  0
  187.8380  178.0590  138.2840 C   0  0  0  0  0  0  0  0  0  0  0  0
  186.8660  178.8120  137.6390 O   0  0  0  0  0  0  0  0  0  0  0  0
  1 14  1  0  0  0  0
  3 17  1  6  0  0  0
  5 23  1  0  0  0  0
  5 17  1  1  0  0  0
  6 16  1  0  0  0  0
  7  9  1  0  0  0  0
  8  6  1  1  0  0  0
  8  2  1  0  0  0  0
 10 21  1  0  0  0  0
 11 24  2  0  0  0  0
 11 12  1  0  0  0  0
 12  7  2  0  0  0  0
 13 14  1  6  0  0  0
 13 24  1  0  0  0  0
 15 18  1  6  0  0  0
 15  8  1  0  0  0  0
 15 13  1  0  0  0  0
 19 16  1  6  0  0  0
 19 20  1  0  0  0  0
 19  5  1  0  0  0  0
 20  2  1  6  0  0  0
 20 23  1  0  0  0  0
 21  3  1  0  0  0  0
 21  4  1  1  0  0  0
 22 10  1  0  0  0  0
 22  9  2  0  0  0  0
 23 21  1  0  0  0  0
 23  3  1  0  0  0  0
 24 22  1  0  0  0  0
 25 18  2  0  0  0  0
 25  1  1  0  0  0  0
 26 25  1  0  0  0  0
 27 29  1  0  0  0  0
 28 26  1  0  0  0  0
 29 28  1  0  0  0  0
 30 29  2  0  0  0  0
M  END
>  <MODEL>
1

>  <REMARK>
 VINA RESULT:      -8.9      0.000      0.000
  Name = 
  2 active torsions:
  status: ('A' for Active; 'I' for Inactive)
    1  A    between atoms: C_10  and  N_13
    2  A    between atoms: C_10  and  C_30
                            x       y       z     vdW  Elec       q    Type
                         _______ _______ _______ _____ _____    ______ ____

>  <TORSDO>
F 2

$$$$
=
 OpenBabel10222417403D

 30 36  0  0  1  0  0  0  0  0999 V2000
  190.1530  178.8930  142.1820 C   0  0  0  0  0  2  0  0  0  0  0  0
  187.1020  175.9880  144.8210 C   0  0  0  0  0  2  0  0  0  0  0  0
  186.8940  178.6800  147.4600 C   0  0  2  0  0  3  0  0  0  0  0  0
  188.1420  177.8760  147.9280 C   0  0  0  0  0  1  0  0  0  0  0  0
  186.1430  179.1570  145.6080 C   0  0  2  0  0  3  0  0  0  0  0  0
  186.9620  177.8590  143.0390 C   0  0  0  0  0  2  0  0  0  0  0  0
  192.0710  175.5500  147.3550 C   0  0  0  0  0  3  0  0  0  0  0  0
  187.5850  176.5250  143.4660 C   0  0  1  0  0  3  0  0  0  0  0  0
  191.1440  176.5310  147.7050 C   0  0  0  0  0  3  0  0  0  0  0  0
  189.4290  178.2100  147.0780 C   0  0  0  0  0  2  0  0  0  0  0  0
  191.5220  175.8650  145.0510 N   0  0  0  0  0  0  0  0  0  0  0  0
  192.2490  175.2280  146.0080 C   0  0  0  0  0  3  0  0  0  0  0  0
  189.8400  177.5030  144.2580 C   0  0  1  0  0  3  0  0  0  0  0  0
  190.7550  178.4930  143.5220 C   0  0  0  0  0  2  0  0  0  0  0  0
  189.1150  176.4770  143.3430 C   0  0  2  0  0  3  0  0  0  0  0  0
  185.5050  177.9440  143.4900 C   0  0  0  0  0  2  0  0  0  0  0  0
  185.6830  179.4610  147.0060 C   0  0  0  0  0  2  0  0  0  0  0  0
  189.5360  176.5310  141.8930 C   0  0  0  0  0  3  0  0  0  0  0  0
  185.3790  177.9550  145.0240 C   0  0  1  0  0  3  0  0  0  0  0  0
  186.3520  176.9860  145.7230 C   0  0  2  0  0  3  0  0  0  0  0  0
  188.2020  177.8730  147.2280 C   0  0  2  0  0  0  0  0  0  0  0  0
  190.4050  177.1810  146.7120 C   0  0  0  0  0  0  0  0  0  0  0  0
  187.2060  178.1840  146.1390 C   0  0  2  0  0  0  0  0  0  0  0  0
  190.6040  176.8220  145.3610 C   0  0  0  0  0  0  0  0  0  0  0  0
  189.9870  177.6640  141.3390 C   0  0  0  0  0  0  0  0  0  0  0  0
  190.4530  177.6640  139.9230 C   0  0  0  0  0  2  0  0  0  0  0  0
  192.2990  176.6320  138.0230 O   0  0  0  0  0  1  0  0  0  0  0  0
  190.4410  176.3060  139.4020 N   0  0  0  0  0  2  0  0  0  0  0  0
  191.4030  175.8550  138.4490 C   0  0  0  0  0  0  0  0  0  0  0  0
  191.3490  174.5470  137.9860 O   0  0  0  0  0  0  0  0  0  0  0  0
  1 14  1  0  0  0  0
  3 17  1  6  0  0  0
  5 23  1  0  0  0  0
  5 17  1  1  0  0  0
  6 16  1  0  0  0  0
  7  9  1  0  0  0  0
  8  6  1  1  0  0  0
  8  2  1  0  0  0  0
 10 21  1  0  0  0  0
 11 24  2  0  0  0  0
 11 12  1  0  0  0  0
 12  7  2  0  0  0  0
 13 14  1  6  0  0  0
 13 24  1  0  0  0  0
 15 18  1  6  0  0  0
 15  8  1  0  0  0  0
 15 13  1  0  0  0  0
 19 16  1  6  0  0  0
 19  5  1  0  0  0  0
 19 20  1  0  0  0  0
 20  2  1  6  0  0  0
 20 23  1  0  0  0  0
 21  3  1  0  0  0  0
 21  4  1  1  0  0  0
 22 10  1  0  0  0  0
 22  9  2  0  0  0  0
 23 21  1  0  0  0  0
 23  3  1  0  0  0  0
 24 22  1  0  0  0  0
 25 18  2  0  0  0  0
 25  1  1  0  0  0  0
 26 25  1  0  0  0  0
 27 29  1  0  0  0  0
 28 26  1  0  0  0  0
 29 28  1  0  0  0  0
 30 29  2  0  0  0  0
M  END
>  <MODEL>
2

>  <REMARK>
 VINA RESULT:      -8.8      1.566      1.711
  Name = 
  2 active torsions:
  status: ('A' for Active; 'I' for Inactive)
    1  A    between atoms: C_10  and  N_13
    2  A    between atoms: C_10  and  C_30
                            x       y       z     vdW  Elec       q    Type
                         _______ _______ _______ _____ _____    ______ ____

>  <TORSDO>
F 2

$$$$
=
 OpenBabel10222417403D

 30 36  0  0  1  0  0  0  0  0999 V2000
  192.7190  176.3660  136.6360 C   0  0  0  0  0  2  0  0  0  0  0  0
  188.1570  174.5510  137.4120 C   0  0  0  0  0  2  0  0  0  0  0  0
  186.7100  177.9160  136.4930 C   0  0  2  0  0  3  0  0  0  0  0  0
  186.9550  178.0850  138.0210 C   0  0  0  0  0  1  0  0  0  0  0  0
  187.7260  176.9220  135.0090 C   0  0  2  0  0  3  0  0  0  0  0  0
  189.8360  174.8490  135.4650 C   0  0  0  0  0  2  0  0  0  0  0  0
  189.2910  177.6100  141.9570 C   0  0  0  0  0  3  0  0  0  0  0  0
  189.5920  174.3660  136.9000 C   0  0  1  0  0  3  0  0  0  0  0  0
  188.6840  178.1580  140.8280 C   0  0  0  0  0  3  0  0  0  0  0  0
  188.4720  178.3510  138.3630 C   0  0  0  0  0  2  0  0  0  0  0  0
  190.7300  176.3230  140.5490 N   0  0  0  0  0  0  0  0  0  0  0  0
  190.3250  176.6850  141.7960 C   0  0  0  0  0  3  0  0  0  0  0  0
  190.6520  176.4060  138.0730 C   0  0  1  0  0  3  0  0  0  0  0  0
  192.0080  177.0690  137.7840 C   0  0  0  0  0  2  0  0  0  0  0  0
  190.6320  174.8600  137.9160 C   0  0  2  0  0  3  0  0  0  0  0  0
  188.6070  174.5950  134.5940 C   0  0  0  0  0  2  0  0  0  0  0  0
  186.4730  177.7520  135.0100 C   0  0  0  0  0  2  0  0  0  0  0  0
  191.9840  174.2460  137.6380 C   0  0  0  0  0  3  0  0  0  0  0  0
  187.3930  175.4200  135.0570 C   0  0  1  0  0  3  0  0  0  0  0  0
  187.2550  175.4920  136.5910 C   0  0  2  0  0  3  0  0  0  0  0  0
  187.5110  177.7110  137.8090 C   0  0  2  0  0  0  0  0  0  0  0  0
  189.1110  177.7800  139.5520 C   0  0  0  0  0  0  0  0  0  0  0  0
  187.7670  176.9310  136.5440 C   0  0  2  0  0  0  0  0  0  0  0  0
  190.1520  176.8340  139.4270 C   0  0  0  0  0  0  0  0  0  0  0  0
  192.9480  174.9330  137.0110 C   0  0  0  0  0  0  0  0  0  0  0  0
  194.2890  174.3160  136.8110 C   0  0  0  0  0  2  0  0  0  0  0  0
  195.4700  173.0660  139.0750 O   0  0  0  0  0  0  0  0  0  0  0  0
  195.2550  174.9430  137.7000 N   0  0  0  0  0  2  0  0  0  0  0  0
  195.8090  174.2520  138.8200 C   0  0  0  0  0  0  0  0  0  0  0  0
  196.7310  174.8950  139.6350 O   0  0  0  0  0  1  0  0  0  0  0  0
  1 25  1  0  0  0  0
  1 14  1  0  0  0  0
  3 17  1  6  0  0  0
  3 23  1  0  0  0  0
  3 21  1  0  0  0  0
  5 17  1  1  0  0  0
  5 19  1  0  0  0  0
  5 23  1  0  0  0  0
  8  6  1  6  0  0  0
  8  2  1  0  0  0  0
  8 15  1  0  0  0  0
  9  7  2  0  0  0  0
 10 22  1  0  0  0  0
 11 12  2  0  0  0  0
 12  7  1  0  0  0  0
 13 14  1  1  0  0  0
 13 24  1  0  0  0  0
 15 18  1  6  0  0  0
 15 13  1  0  0  0  0
 16  6  1  0  0  0  0
 19 16  1  1  0  0  0
 19 20  1  0  0  0  0
 20  2  1  1  0  0  0
 21  4  1  1  0  0  0
 21 10  1  0  0  0  0
 22  9  1  0  0  0  0
 23 20  1  0  0  0  0
 23 21  1  0  0  0  0
 24 22  2  0  0  0  0
 24 11  1  0  0  0  0
 25 18  2  0  0  0  0
 26 25  1  0  0  0  0
 26 28  1  0  0  0  0
 28 29  1  0  0  0  0
 29 27  2  0  0  0  0
 29 30  1  0  0  0  0
M  END
>  <MODEL>
3

>  <REMARK>
 VINA RESULT:      -6.9      4.802      8.411
  Name = 
  2 active torsions:
  status: ('A' for Active; 'I' for Inactive)
    1  A    between atoms: C_10  and  N_13
    2  A    between atoms: C_10  and  C_30
                            x       y       z     vdW  Elec       q    Type
                         _______ _______ _______ _____ _____    ______ ____

>  <TORSDO>
F 2

$$$$
=
 OpenBabel10222417403D

 30 36  0  0  1  0  0  0  0  0999 V2000
  185.3050  180.3160  143.7780 C   0  0  0  0  0  2  0  0  0  0  0  0
  187.8460  176.0470  143.5930 C   0  0  0  0  0  2  0  0  0  0  0  0
  191.0500  178.0190  143.2750 C   0  0  2  0  0  3  0  0  0  0  0  0
  190.6160  177.8810  141.7860 C   0  0  0  0  0  1  0  0  0  0  0  0
  190.0030  178.2530  145.0270 C   0  0  2  0  0  3  0  0  0  0  0  0
  187.0650  177.7820  145.3470 C   0  0  0  0  0  2  0  0  0  0  0  0
  187.6190  177.8290  138.2930 C   0  0  0  0  0  3  0  0  0  0  0  0
  186.6920  176.8840  144.1620 C   0  0  1  0  0  3  0  0  0  0  0  0
  188.6530  178.1950  139.1560 C   0  0  0  0  0  3  0  0  0  0  0  0
  189.4580  178.8820  141.4000 C   0  0  0  0  0  2  0  0  0  0  0  0
  186.0540  178.0660  140.0830 N   0  0  0  0  0  0  0  0  0  0  0  0
  186.3120  177.7700  138.7810 C   0  0  0  0  0  3  0  0  0  0  0  0
  186.6930  178.7490  142.3780 C   0  0  1  0  0  3  0  0  0  0  0  0
  186.0190  180.1280  142.4460 C   0  0  0  0  0  2  0  0  0  0  0  0
  185.9010  177.5980  143.0560 C   0  0  2  0  0  3  0  0  0  0  0  0
  188.1090  177.1010  146.2320 C   0  0  0  0  0  2  0  0  0  0  0  0
  191.4710  178.1540  144.7190 C   0  0  0  0  0  2  0  0  0  0  0  0
  184.5290  177.9950  143.5520 C   0  0  0  0  0  3  0  0  0  0  0  0
  189.4430  176.8970  145.4920 C   0  0  1  0  0  3  0  0  0  0  0  0
  189.2660  176.4590  144.0250 C   0  0  2  0  0  3  0  0  0  0  0  0
  190.0070  177.9780  142.1230 C   0  0  2  0  0  0  0  0  0  0  0  0
  188.3740  178.4990  140.4910 C   0  0  0  0  0  0  0  0  0  0  0  0
  189.6460  177.8720  143.5830 C   0  0  2  0  0  0  0  0  0  0  0  0
  187.0410  178.4190  140.9510 C   0  0  0  0  0  0  0  0  0  0  0  0
  184.2580  179.2530  143.9220 C   0  0  0  0  0  0  0  0  0  0  0  0
  182.8770  179.6210  144.3450 C   0  0  0  0  0  2  0  0  0  0  0  0
  180.5330  180.2030  142.8460 O   0  0  0  0  0  1  0  0  0  0  0  0
  181.9330  178.6290  143.8560 N   0  0  0  0  0  2  0  0  0  0  0  0
  180.7750  178.9940  143.1060 C   0  0  0  0  0  0  0  0  0  0  0  0
  179.9060  178.0070  142.6590 O   0  0  0  0  0  0  0  0  0  0  0  0
  1 25  1  0  0  0  0
  3 23  1  0  0  0  0
  3 17  1  1  0  0  0
  5 17  1  6  0  0  0
  5 19  1  0  0  0  0
  6 16  1  0  0  0  0
  7 12  2  0  0  0  0
  7  9  1  0  0  0  0
  8  2  1  6  0  0  0
  8  6  1  0  0  0  0
  9 22  2  0  0  0  0
 10 21  1  0  0  0  0
 11 24  2  0  0  0  0
 12 11  1  0  0  0  0
 13 14  1  6  0  0  0
 13 15  1  0  0  0  0
 14  1  1  0  0  0  0
 15 18  1  1  0  0  0
 15  8  1  0  0  0  0
 18 25  2  0  0  0  0
 19 16  1  6  0  0  0
 20  2  1  1  0  0  0
 20 19  1  0  0  0  0
 21  4  1  6  0  0  0
 21  3  1  0  0  0  0
 21 23  1  0  0  0  0
 22 24  1  0  0  0  0
 22 10  1  0  0  0  0
 23 20  1  0  0  0  0
 23  5  1  0  0  0  0
 24 13  1  0  0  0  0
 25 26  1  0  0  0  0
 27 29  1  0  0  0  0
 28 26  1  0  0  0  0
 29 28  1  0  0  0  0
 30 29  2  0  0  0  0
M  END
>  <MODEL>
4

>  <REMARK>
 VINA RESULT:      -6.3      3.142      6.261
  Name = 
  2 active torsions:
  status: ('A' for Active; 'I' for Inactive)
    1  A    between atoms: C_10  and  N_13
    2  A    between atoms: C_10  and  C_30
                            x       y       z     vdW  Elec       q    Type
                         _______ _______ _______ _____ _____    ______ ____

>  <TORSDO>
F 2

$$$$
=
 OpenBabel10222417403D

 30 36  0  0  1  0  0  0  0  0999 V2000
  184.2230  178.0040  139.6910 C   0  0  0  0  0  2  0  0  0  0  0  0
  179.2920  177.5030  139.3090 C   0  0  0  0  0  2  0  0  0  0  0  0
  179.7170  176.5250  135.6860 C   0  0  2  0  0  3  0  0  0  0  0  0
  179.6150  178.0760  135.5850 C   0  0  0  0  0  1  0  0  0  0  0  0
  180.5450  175.2600  137.0770 C   0  0  2  0  0  3  0  0  0  0  0  0
  181.3680  176.0530  139.8430 C   0  0  0  0  0  2  0  0  0  0  0  0
  180.4410  182.4130  136.8840 C   0  0  0  0  0  3  0  0  0  0  0  0
  180.5860  177.3420  140.1190 C   0  0  1  0  0  3  0  0  0  0  0  0
  180.4350  181.2150  136.1680 C   0  0  0  0  0  3  0  0  0  0  0  0
  180.9590  178.7960  135.9930 C   0  0  0  0  0  2  0  0  0  0  0  0
  181.4900  181.3010  138.7200 N   0  0  0  0  0  0  0  0  0  0  0  0
  180.9800  182.4360  138.1720 C   0  0  0  0  0  3  0  0  0  0  0  0
  182.0850  178.8950  138.7030 C   0  0  1  0  0  3  0  0  0  0  0  0
  183.6180  178.9970  138.7070 C   0  0  0  0  0  2  0  0  0  0  0  0
  181.4430  178.6170  140.0900 C   0  0  2  0  0  3  0  0  0  0  0  0
  180.4130  174.8910  139.5690 C   0  0  0  0  0  2  0  0  0  0  0  0
  179.8160  175.0210  135.7850 C   0  0  0  0  0  2  0  0  0  0  0  0
  182.4210  178.6290  141.2410 C   0  0  0  0  0  3  0  0  0  0  0  0
  179.5990  175.1080  138.2820 C   0  0  1  0  0  3  0  0  0  0  0  0
  179.1220  176.5630  138.1000 C   0  0  2  0  0  3  0  0  0  0  0  0
  179.9910  177.9770  136.1710 C   0  0  2  0  0  0  0  0  0  0  0  0
  180.9660  180.0560  136.7410 C   0  0  0  0  0  0  0  0  0  0  0  0
  180.1970  176.7550  137.0300 C   0  0  2  0  0  0  0  0  0  0  0  0
  181.4930  180.1150  138.0500 C   0  0  0  0  0  0  0  0  0  0  0  0
  183.7100  178.3110  141.0660 C   0  0  0  0  0  0  0  0  0  0  0  0
  184.6580  178.3960  142.2130 C   0  0  0  0  0  2  0  0  0  0  0  0
  185.7320  178.2780  144.8420 O   0  0  0  0  0  0  0  0  0  0  0  0
  183.9330  178.7400  143.4260 N   0  0  0  0  0  2  0  0  0  0  0  0
  184.5380  178.6590  144.7160 C   0  0  0  0  0  0  0  0  0  0  0  0
  183.8030  179.0030  145.8420 O   0  0  0  0  0  1  0  0  0  0  0  0
  1 25  1  0  0  0  0
  3 17  1  6  0  0  0
  3 21  1  0  0  0  0
  3 23  1  0  0  0  0
  5 17  1  6  0  0  0
  5 19  1  0  0  0  0
  6  8  1  0  0  0  0
  7 12  1  0  0  0  0
  8  2  1  6  0  0  0
  9 22  1  0  0  0  0
  9  7  2  0  0  0  0
 10 21  1  0  0  0  0
 10 22  1  0  0  0  0
 12 11  2  0  0  0  0
 13 14  1  1  0  0  0
 13 15  1  0  0  0  0
 14  1  1  0  0  0  0
 15  8  1  0  0  0  0
 15 18  1  1  0  0  0
 16  6  1  0  0  0  0
 19 16  1  1  0  0  0
 20 19  1  0  0  0  0
 20  2  1  1  0  0  0
 21  4  1  1  0  0  0
 21 23  1  0  0  0  0
 22 24  2  0  0  0  0
 23  5  1  0  0  0  0
 23 20  1  0  0  0  0
 24 13  1  0  0  0  0
 24 11  1  0  0  0  0
 25 18  2  0  0  0  0
 25 26  1  0  0  0  0
 26 28  1  0  0  0  0
 28 29  1  0  0  0  0
 29 27  2  0  0  0  0
 29 30  1  0  0  0  0
M  END
>  <MODEL>
5

>  <REMARK>
 VINA RESULT:      -6.1      6.998     10.990
  Name = 
  2 active torsions:
  status: ('A' for Active; 'I' for Inactive)
    1  A    between atoms: C_10  and  N_13
    2  A    between atoms: C_10  and  C_30
                            x       y       z     vdW  Elec       q    Type
                         _______ _______ _______ _____ _____    ______ ____

>  <TORSDO>
F 2

$$$$
