=
 OpenBabel10222420253D

 47 52  0  0  1  0  0  0  0  0999 V2000
  189.5210  177.1330  145.3380 C   0  0  2  0  0  3  0  0  0  0  0  0
  190.0670  177.3050  141.0690 C   0  0  0  0  0  0  0  0  0  0  0  0
  188.6100  177.3070  143.0150 C   0  0  0  0  0  3  0  0  0  0  0  0
  191.0100  177.1080  143.2940 C   0  0  0  0  0  3  0  0  0  0  0  0
  188.7780  177.3700  141.6290 C   0  0  0  0  0  3  0  0  0  0  0  0
  189.7240  177.1810  143.8540 C   0  0  0  0  0  0  0  0  0  0  0  0
  191.1770  177.1770  141.9080 C   0  0  0  0  0  3  0  0  0  0  0  0
  190.2760  177.4170  139.6220 C   0  0  0  0  0  3  0  0  0  0  0  0
  189.7420  176.5800  138.7910 N   0  0  0  0  0  0  0  0  0  0  0  0
  189.9090  176.6980  137.3730 C   0  0  0  0  0  0  0  0  0  0  0  0
  189.4110  177.6730  136.7480 O   0  0  0  0  0  0  0  0  0  0  0  0
  190.6430  175.7100  136.6490 N   0  0  0  0  0  2  0  0  0  0  0  0
  193.5340  173.8960  137.1770 C   0  0  1  0  0  3  0  0  0  0  0  0
  192.6430  174.9390  137.7760 C   0  0  0  0  0  2  0  0  0  0  0  0
  192.7020  173.3150  136.0630 C   0  0  2  0  0  3  0  0  0  0  0  0
  191.3440  173.4870  136.3770 O   0  0  0  0  0  0  0  0  0  0  0  0
  191.2610  174.5590  137.2890 C   0  0  2  0  0  3  0  0  0  0  0  0
  192.9910  171.8960  135.9160 N   0  0  0  0  0  1  0  0  0  0  0  0
  195.2390  174.2220  135.1070 O   0  0  0  0  0  0  0  0  0  0  0  0
  195.0310  174.6440  136.5410 S   0  0  0  0  0  0  0  0  0  0  0  0
  194.8870  176.1440  136.5920 O   0  0  0  0  0  0  0  0  0  0  0  0
  196.0490  174.0280  138.9770 C   0  0  0  0  0  1  0  0  0  0  0  0
  196.4470  174.1530  137.5150 C   0  0  0  0  0  2  0  0  0  0  0  0
  188.4160  178.0920  145.7840 C   0  0  0  0  0  2  0  0  0  0  0  0
  187.2400  177.3190  146.3770 C   0  0  0  0  0  2  0  0  0  0  0  0
  186.2750  178.6820  144.8470 O   0  0  0  0  0  0  0  0  0  0  0  0
  184.1550  178.9810  145.8540 C   0  0  0  0  0  2  0  0  0  0  0  0
  185.0490  179.3590  144.7040 C   0  0  2  0  0  3  0  0  0  0  0  0
  184.9920  177.9750  146.5700 C   0  0  0  0  0  2  0  0  0  0  0  0
  186.0240  177.5910  145.6240 N   0  0  0  0  0  0  0  0  0  0  0  0
  184.5510  178.5870  141.0080 C   0  0  0  0  0  0  0  0  0  0  0  0
  183.1570  178.4680  140.9420 C   0  0  0  0  0  3  0  0  0  0  0  0
  185.1700  178.8700  142.2270 C   0  0  0  0  0  3  0  0  0  0  0  0
  182.3870  178.6300  142.0970 C   0  0  0  0  0  3  0  0  0  0  0  0
  183.0090  178.9140  143.3190 C   0  0  0  0  0  3  0  0  0  0  0  0
  184.4010  179.0350  143.3880 C   0  0  0  0  0  0  0  0  0  0  0  0
  186.0090  177.3850  137.4710 C   0  0  1  0  0  3  0  0  0  0  0  0
  185.4820  178.5320  138.3600 C   0  0  2  0  0  0  0  0  0  0  0  0
  184.6550  177.2840  137.9830 C   0  0  0  0  0  2  0  0  0  0  0  0
  186.5290  178.5530  139.1560 O   0  0  0  0  0  0  0  0  0  0  0  0
  185.9800  177.7950  136.1360 O   0  0  0  0  0  1  0  0  0  0  0  0
  185.3450  178.4020  139.8410 N   0  0  0  0  0  0  0  0  0  0  0  0
  190.7660  177.4590  146.0160 N   0  0  0  0  0  2  0  0  0  0  0  0
  190.8200  176.6450  147.2220 C   0  0  0  0  0  2  0  0  0  0  0  0
  192.0710  175.8370  147.2170 C   0  0  0  0  0  0  0  0  0  0  0  0
  192.9690  175.9040  148.3220 N   0  0  0  0  0  1  0  0  0  0  0  0
  192.3560  175.1290  146.2170 O   0  0  0  0  0  0  0  0  0  0  0  0
  1 24  1  6  0  0  0
  1 43  1  0  0  0  0
  2  5  2  0  0  0  0
  2  7  1  0  0  0  0
  3  6  2  0  0  0  0
  4  6  1  0  0  0  0
  5  3  1  0  0  0  0
  6  1  1  0  0  0  0
  7  4  2  0  0  0  0
  8  2  1  0  0  0  0
  9  8  2  0  0  0  0
 10  9  1  0  0  0  0
 11 10  2  0  0  0  0
 12 10  1  0  0  0  0
 13 20  1  6  0  0  0
 13 14  1  0  0  0  0
 15 18  1  1  0  0  0
 15 16  1  0  0  0  0
 15 13  1  0  0  0  0
 16 17  1  0  0  0  0
 17 12  1  6  0  0  0
 17 14  1  0  0  0  0
 19 20  2  0  0  0  0
 20 21  2  0  0  0  0
 20 23  1  0  0  0  0
 23 22  1  0  0  0  0
 24 25  1  0  0  0  0
 26 30  1  0  0  0  0
 27 29  1  0  0  0  0
 28 36  1  6  0  0  0
 28 26  1  0  0  0  0
 28 27  1  0  0  0  0
 30 25  1  0  0  0  0
 30 29  1  0  0  0  0
 31 33  1  0  0  0  0
 32 31  2  0  0  0  0
 32 34  1  0  0  0  0
 33 36  2  0  0  0  0
 34 35  2  0  0  0  0
 35 36  1  0  0  0  0
 37 41  1  6  0  0  0
 37 39  1  0  0  0  0
 37 38  1  0  0  0  0
 38 39  1  6  0  0  0
 38 40  1  0  0  0  0
 38 42  1  0  0  0  0
 40 42  1  0  0  0  0
 42 31  1  0  0  0  0
 43 44  1  0  0  0  0
 45 44  1  0  0  0  0
 45 46  1  0  0  0  0
 47 45  2  0  0  0  0
M  END
>  <MODEL>
1

>  <REMARK>
 VINA RESULT:      -8.7      0.000      0.000
  Name = 
  14 active torsions:
  status: ('A' for Active; 'I' for Inactive)
    1  A    between atoms: C_1  and  C_15
    2  A    between atoms: C_1  and  C_45
    3  A    between atoms: C_4  and  C_5
    4  A    between atoms: C_6  and  S_17
    5  A    between atoms: C_7  and  C_13
    6  A    between atoms: C_7  and  N_30
    7  A    between atoms: C_14  and  N_36
    8  A    between atoms: C_15  and  N_32
    9  A    between atoms: S_17  and  C_42
   10  A    between atoms: C_20  and  C_45
   11  A    between atoms: C_22  and  C_44
   12  A    between atoms: C_27  and  N_41
   13  A    between atoms: N_30  and  C_45
   14  A    between atoms: N_35  and  C_38
                            x       y       z     vdW  Elec       q    Type
                         _______ _______ _______ _____ _____    ______ ____

>  <TORSDO>
F 14

$$$$
=
 OpenBabel10222420253D

 47 52  0  0  1  0  0  0  0  0999 V2000
  188.0890  177.6680  144.4710 C   0  0  2  0  0  3  0  0  0  0  0  0
  183.9800  178.6330  143.6130 C   0  0  0  0  0  0  0  0  0  0  0  0
  185.7930  178.3360  145.2050 C   0  0  0  0  0  3  0  0  0  0  0  0
  186.1780  177.9600  142.8410 C   0  0  0  0  0  3  0  0  0  0  0  0
  184.4600  178.6560  144.9350 C   0  0  0  0  0  3  0  0  0  0  0  0
  186.6590  177.9910  144.1600 C   0  0  0  0  0  0  0  0  0  0  0  0
  184.8450  178.2870  142.5710 C   0  0  0  0  0  3  0  0  0  0  0  0
  182.5990  179.0120  143.2960 C   0  0  0  0  0  3  0  0  0  0  0  0
  182.1210  178.8980  142.0970 N   0  0  0  0  0  0  0  0  0  0  0  0
  180.7650  179.2320  141.7800 C   0  0  0  0  0  0  0  0  0  0  0  0
  179.8680  179.1760  142.6640 O   0  0  0  0  0  0  0  0  0  0  0  0
  180.4120  179.6310  140.4560 N   0  0  0  0  0  2  0  0  0  0  0  0
  181.2130  181.0390  137.4060 C   0  0  1  0  0  3  0  0  0  0  0  0
  181.4310  181.1640  138.8820 C   0  0  0  0  0  2  0  0  0  0  0  0
  180.6090  179.6680  137.2500 C   0  0  2  0  0  3  0  0  0  0  0  0
  181.0260  178.8650  138.3240 O   0  0  0  0  0  0  0  0  0  0  0  0
  181.3820  179.7340  139.3770 C   0  0  2  0  0  3  0  0  0  0  0  0
  181.0500  179.0720  135.9970 N   0  0  0  0  0  1  0  0  0  0  0  0
  179.0860  181.7050  135.8800 O   0  0  0  0  0  0  0  0  0  0  0  0
  180.0880  182.3090  136.8320 S   0  0  0  0  0  0  0  0  0  0  0  0
  179.3500  182.8790  138.0180 O   0  0  0  0  0  0  0  0  0  0  0  0
  180.8590  184.9070  136.8010 C   0  0  0  0  0  1  0  0  0  0  0  0
  180.9790  183.6170  136.0050 C   0  0  0  0  0  2  0  0  0  0  0  0
  188.6970  176.7410  143.4160 C   0  0  0  0  0  2  0  0  0  0  0  0
  190.0660  177.2540  142.9760 C   0  0  0  0  0  2  0  0  0  0  0  0
  189.2920  176.6820  140.9250 O   0  0  0  0  0  0  0  0  0  0  0  0
  191.2390  177.0650  139.6380 C   0  0  0  0  0  2  0  0  0  0  0  0
  189.8150  176.5800  139.6220 C   0  0  2  0  0  3  0  0  0  0  0  0
  191.3910  177.5130  141.0520 C   0  0  0  0  0  2  0  0  0  0  0  0
  190.0390  177.6240  141.5670 N   0  0  0  0  0  0  0  0  0  0  0  0
  186.8560  177.8820  137.6080 C   0  0  0  0  0  0  0  0  0  0  0  0
  187.4840  178.8210  136.7810 C   0  0  0  0  0  3  0  0  0  0  0  0
  187.6070  177.1560  138.5360 C   0  0  0  0  0  3  0  0  0  0  0  0
  188.8610  179.0350  136.8870 C   0  0  0  0  0  3  0  0  0  0  0  0
  189.6130  178.3070  137.8170 C   0  0  0  0  0  3  0  0  0  0  0  0
  188.9890  177.3660  138.6430 C   0  0  0  0  0  0  0  0  0  0  0  0
  183.2020  176.3870  136.9030 C   0  0  1  0  0  3  0  0  0  0  0  0
  184.2550  176.8740  137.9230 C   0  0  2  0  0  0  0  0  0  0  0  0
  184.4790  175.6980  136.9480 C   0  0  0  0  0  2  0  0  0  0  0  0
  184.1590  178.1430  137.5920 O   0  0  0  0  0  0  0  0  0  0  0  0
  182.2350  175.6340  137.5740 O   0  0  0  0  0  1  0  0  0  0  0  0
  185.4500  177.6740  137.5230 N   0  0  0  0  0  0  0  0  0  0  0  0
  188.1790  177.0520  145.7860 N   0  0  0  0  0  2  0  0  0  0  0  0
  189.2930  177.6860  146.4770 C   0  0  0  0  0  2  0  0  0  0  0  0
  188.8950  177.9870  147.8800 C   0  0  0  0  0  0  0  0  0  0  0  0
  187.5410  177.8160  148.2910 N   0  0  0  0  0  1  0  0  0  0  0  0
  189.7460  178.4350  148.6910 O   0  0  0  0  0  0  0  0  0  0  0  0
  1 24  1  6  0  0  0
  1 43  1  0  0  0  0
  2  5  1  0  0  0  0
  4  6  2  0  0  0  0
  5  3  2  0  0  0  0
  6  1  1  0  0  0  0
  6  3  1  0  0  0  0
  7  4  1  0  0  0  0
  7  2  2  0  0  0  0
  8  2  1  0  0  0  0
  9  8  2  0  0  0  0
 10  9  1  0  0  0  0
 10 11  2  0  0  0  0
 12 10  1  0  0  0  0
 13 20  1  1  0  0  0
 13 14  1  0  0  0  0
 14 17  1  0  0  0  0
 15 18  1  6  0  0  0
 15 13  1  0  0  0  0
 15 16  1  0  0  0  0
 16 17  1  0  0  0  0
 17 12  1  1  0  0  0
 19 20  2  0  0  0  0
 20 21  2  0  0  0  0
 23 22  1  0  0  0  0
 23 20  1  0  0  0  0
 25 24  1  0  0  0  0
 26 30  1  0  0  0  0
 27 29  1  0  0  0  0
 28 36  1  6  0  0  0
 28 27  1  0  0  0  0
 28 26  1  0  0  0  0
 29 30  1  0  0  0  0
 30 25  1  0  0  0  0
 31 33  1  0  0  0  0
 32 34  1  0  0  0  0
 32 31  2  0  0  0  0
 33 36  2  0  0  0  0
 34 35  2  0  0  0  0
 35 36  1  0  0  0  0
 37 39  1  0  0  0  0
 37 41  1  1  0  0  0
 37 38  1  0  0  0  0
 38 39  1  1  0  0  0
 40 38  1  0  0  0  0
 42 40  1  0  0  0  0
 42 31  1  0  0  0  0
 42 38  1  0  0  0  0
 43 44  1  0  0  0  0
 44 45  1  0  0  0  0
 45 46  1  0  0  0  0
 45 47  2  0  0  0  0
M  END
>  <MODEL>
2

>  <REMARK>
 VINA RESULT:      -8.1      4.376      9.217
  Name = 
  14 active torsions:
  status: ('A' for Active; 'I' for Inactive)
    1  A    between atoms: C_1  and  C_15
    2  A    between atoms: C_1  and  C_45
    3  A    between atoms: C_4  and  C_5
    4  A    between atoms: C_6  and  S_17
    5  A    between atoms: C_7  and  C_13
    6  A    between atoms: C_7  and  N_30
    7  A    between atoms: C_14  and  N_36
    8  A    between atoms: C_15  and  N_32
    9  A    between atoms: S_17  and  C_42
   10  A    between atoms: C_20  and  C_45
   11  A    between atoms: C_22  and  C_44
   12  A    between atoms: C_27  and  N_41
   13  A    between atoms: N_30  and  C_45
   14  A    between atoms: N_35  and  C_38
                            x       y       z     vdW  Elec       q    Type
                         _______ _______ _______ _____ _____    ______ ____

>  <TORSDO>
F 14

$$$$
=
 OpenBabel10222420253D

 47 52  0  0  1  0  0  0  0  0999 V2000
  188.0710  177.6770  144.4360 C   0  0  2  0  0  3  0  0  0  0  0  0
  183.9430  178.7570  143.8510 C   0  0  0  0  0  0  0  0  0  0  0  0
  185.8750  178.5020  145.3040 C   0  0  0  0  0  3  0  0  0  0  0  0
  186.0370  177.9280  142.9540 C   0  0  0  0  0  3  0  0  0  0  0  0
  184.5360  178.8610  145.1220 C   0  0  0  0  0  3  0  0  0  0  0  0
  186.6330  178.0390  144.2210 C   0  0  0  0  0  0  0  0  0  0  0  0
  184.7000  178.2930  142.7720 C   0  0  0  0  0  3  0  0  0  0  0  0
  182.5550  179.1720  143.6210 C   0  0  0  0  0  3  0  0  0  0  0  0
  181.9790  179.0120  142.4720 N   0  0  0  0  0  0  0  0  0  0  0  0
  180.6140  179.3810  142.2430 C   0  0  0  0  0  0  0  0  0  0  0  0
  180.1530  180.4560  142.7140 O   0  0  0  0  0  0  0  0  0  0  0  0
  179.7580  178.5340  141.4770 N   0  0  0  0  0  2  0  0  0  0  0  0
  181.5020  176.9980  138.9220 C   0  0  1  0  0  3  0  0  0  0  0  0
  181.6080  177.4590  140.3430 C   0  0  0  0  0  2  0  0  0  0  0  0
  180.0220  177.0460  138.6430 C   0  0  2  0  0  3  0  0  0  0  0  0
  179.3280  176.8940  139.8540 O   0  0  0  0  0  0  0  0  0  0  0  0
  180.2060  177.2830  140.8870 C   0  0  2  0  0  3  0  0  0  0  0  0
  179.6550  175.9700  137.7330 N   0  0  0  0  0  1  0  0  0  0  0  0
  182.3790  177.5620  136.4310 O   0  0  0  0  0  0  0  0  0  0  0  0
  182.4000  178.1050  137.8390 S   0  0  0  0  0  0  0  0  0  0  0  0
  181.7260  179.4540  137.8510 O   0  0  0  0  0  0  0  0  0  0  0  0
  184.2440  179.5670  139.1820 C   0  0  0  0  0  1  0  0  0  0  0  0
  184.0930  178.2850  138.3800 C   0  0  0  0  0  2  0  0  0  0  0  0
  188.4840  176.4840  143.5720 C   0  0  0  0  0  2  0  0  0  0  0  0
  189.9220  176.6460  143.0860 C   0  0  0  0  0  2  0  0  0  0  0  0
  189.6680  176.1830  140.8820 O   0  0  0  0  0  0  0  0  0  0  0  0
  191.4940  177.4020  140.0010 C   0  0  0  0  0  2  0  0  0  0  0  0
  190.3520  176.4740  139.6870 C   0  0  2  0  0  3  0  0  0  0  0  0
  191.2970  177.6420  141.4600 C   0  0  0  0  0  2  0  0  0  0  0  0
  189.9410  177.2060  141.7410 N   0  0  0  0  0  0  0  0  0  0  0  0
  187.5740  176.8950  137.1150 C   0  0  0  0  0  0  0  0  0  0  0  0
  187.7490  178.2340  136.7450 C   0  0  0  0  0  3  0  0  0  0  0  0
  188.4130  176.3200  138.0740 C   0  0  0  0  0  3  0  0  0  0  0  0
  188.7600  178.9960  137.3370 C   0  0  0  0  0  3  0  0  0  0  0  0
  189.6000  178.4190  138.2980 C   0  0  0  0  0  3  0  0  0  0  0  0
  189.4290  177.0810  138.6680 C   0  0  0  0  0  0  0  0  0  0  0  0
  185.1520  173.9110  135.9720 C   0  0  1  0  0  3  0  0  0  0  0  0
  185.3350  175.2460  136.7250 C   0  0  2  0  0  0  0  0  0  0  0  0
  186.0980  173.9490  137.0730 C   0  0  0  0  0  2  0  0  0  0  0  0
  185.4990  175.9700  135.6390 O   0  0  0  0  0  0  0  0  0  0  0  0
  183.9610  173.3120  136.3950 O   0  0  0  0  0  1  0  0  0  0  0  0
  186.5330  176.1170  136.5340 N   0  0  0  0  0  0  0  0  0  0  0  0
  188.2970  177.3750  145.8410 N   0  0  0  0  0  2  0  0  0  0  0  0
  189.6260  177.8690  146.1740 C   0  0  0  0  0  2  0  0  0  0  0  0
  190.3050  176.8920  147.0700 C   0  0  0  0  0  0  0  0  0  0  0  0
  191.7180  176.9460  147.2460 N   0  0  0  0  0  1  0  0  0  0  0  0
  189.6350  175.9910  147.6380 O   0  0  0  0  0  0  0  0  0  0  0  0
  1 24  1  6  0  0  0
  1 43  1  0  0  0  0
  2  5  1  0  0  0  0
  4  6  2  0  0  0  0
  5  3  2  0  0  0  0
  6  1  1  0  0  0  0
  6  3  1  0  0  0  0
  7  4  1  0  0  0  0
  7  2  2  0  0  0  0
  8  2  1  0  0  0  0
  9  8  2  0  0  0  0
 10  9  1  0  0  0  0
 10 11  2  0  0  0  0
 12 10  1  0  0  0  0
 13 20  1  6  0  0  0
 13 14  1  0  0  0  0
 14 17  1  0  0  0  0
 15 18  1  6  0  0  0
 15 13  1  0  0  0  0
 15 16  1  0  0  0  0
 16 17  1  0  0  0  0
 17 12  1  6  0  0  0
 19 20  2  0  0  0  0
 20 21  2  0  0  0  0
 20 23  1  0  0  0  0
 23 22  1  0  0  0  0
 25 24  1  0  0  0  0
 26 30  1  0  0  0  0
 27 29  1  0  0  0  0
 28 36  1  6  0  0  0
 28 27  1  0  0  0  0
 28 26  1  0  0  0  0
 29 30  1  0  0  0  0
 30 25  1  0  0  0  0
 31 33  1  0  0  0  0
 32 31  2  0  0  0  0
 32 34  1  0  0  0  0
 33 36  2  0  0  0  0
 34 35  2  0  0  0  0
 35 36  1  0  0  0  0
 37 41  1  1  0  0  0
 37 38  1  0  0  0  0
 37 39  1  0  0  0  0
 38 39  1  1  0  0  0
 40 42  1  0  0  0  0
 40 38  1  0  0  0  0
 42 38  1  0  0  0  0
 42 31  1  0  0  0  0
 43 44  1  0  0  0  0
 44 45  1  0  0  0  0
 45 46  1  0  0  0  0
 45 47  2  0  0  0  0
M  END
>  <MODEL>
3

>  <REMARK>
 VINA RESULT:      -7.7      3.872      8.400
  Name = 
  14 active torsions:
  status: ('A' for Active; 'I' for Inactive)
    1  A    between atoms: C_1  and  C_15
    2  A    between atoms: C_1  and  C_45
    3  A    between atoms: C_4  and  C_5
    4  A    between atoms: C_6  and  S_17
    5  A    between atoms: C_7  and  C_13
    6  A    between atoms: C_7  and  N_30
    7  A    between atoms: C_14  and  N_36
    8  A    between atoms: C_15  and  N_32
    9  A    between atoms: S_17  and  C_42
   10  A    between atoms: C_20  and  C_45
   11  A    between atoms: C_22  and  C_44
   12  A    between atoms: C_27  and  N_41
   13  A    between atoms: N_30  and  C_45
   14  A    between atoms: N_35  and  C_38
                            x       y       z     vdW  Elec       q    Type
                         _______ _______ _______ _____ _____    ______ ____

>  <TORSDO>
F 14

$$$$
=
 OpenBabel10222420253D

 47 52  0  0  1  0  0  0  0  0999 V2000
  179.4740  178.0970  140.4260 C   0  0  2  0  0  3  0  0  0  0  0  0
  182.7280  179.0450  143.0840 C   0  0  0  0  0  0  0  0  0  0  0  0
  180.3460  178.8100  142.6590 C   0  0  0  0  0  3  0  0  0  0  0  0
  181.9450  178.3740  140.8890 C   0  0  0  0  0  3  0  0  0  0  0  0
  181.3960  179.1130  143.5300 C   0  0  0  0  0  3  0  0  0  0  0  0
  180.6150  178.4340  141.3370 C   0  0  0  0  0  0  0  0  0  0  0  0
  182.9950  178.6720  141.7630 C   0  0  0  0  0  3  0  0  0  0  0  0
  183.8510  179.3100  143.9890 C   0  0  0  0  0  3  0  0  0  0  0  0
  184.5180  178.3480  144.5440 N   0  0  0  0  0  0  0  0  0  0  0  0
  185.6380  178.5910  145.4030 C   0  0  0  0  0  0  0  0  0  0  0  0
  185.5010  179.2670  146.4590 O   0  0  0  0  0  0  0  0  0  0  0  0
  186.9260  178.0710  145.0730 N   0  0  0  0  0  2  0  0  0  0  0  0
  189.2400  176.9470  142.7690 C   0  0  1  0  0  3  0  0  0  0  0  0
  188.5080  176.5700  144.0190 C   0  0  0  0  0  2  0  0  0  0  0  0
  188.4940  178.1580  142.2710 C   0  0  2  0  0  3  0  0  0  0  0  0
  187.1710  178.0980  142.7390 O   0  0  0  0  0  0  0  0  0  0  0  0
  187.1740  177.2720  143.8830 C   0  0  2  0  0  3  0  0  0  0  0  0
  188.4940  178.1760  140.8150 N   0  0  0  0  0  1  0  0  0  0  0  0
  191.7460  177.3900  141.8640 O   0  0  0  0  0  0  0  0  0  0  0  0
  190.9450  177.3490  143.1420 S   0  0  0  0  0  0  0  0  0  0  0  0
  190.9950  178.7080  143.7930 O   0  0  0  0  0  0  0  0  0  0  0  0
  191.6610  176.6770  145.6680 C   0  0  0  0  0  1  0  0  0  0  0  0
  191.6530  176.1370  144.2470 C   0  0  0  0  0  2  0  0  0  0  0  0
  179.9070  177.1350  139.3180 C   0  0  0  0  0  2  0  0  0  0  0  0
  179.8880  175.6940  139.8220 C   0  0  0  0  0  2  0  0  0  0  0  0
  181.4720  175.7200  138.2040 O   0  0  0  0  0  0  0  0  0  0  0  0
  180.9780  173.6750  137.1220 C   0  0  0  0  0  2  0  0  0  0  0  0
  181.8410  174.9070  137.1150 C   0  0  2  0  0  3  0  0  0  0  0  0
  180.1780  173.8720  138.3660 C   0  0  0  0  0  2  0  0  0  0  0  0
  180.8810  174.8970  139.1150 N   0  0  0  0  0  0  0  0  0  0  0  0
  185.6410  175.1520  136.9970 C   0  0  0  0  0  0  0  0  0  0  0  0
  186.0050  173.8280  137.2670 C   0  0  0  0  0  3  0  0  0  0  0  0
  184.2910  175.5090  136.9520 C   0  0  0  0  0  3  0  0  0  0  0  0
  185.0190  172.8650  137.4960 C   0  0  0  0  0  3  0  0  0  0  0  0
  183.6670  173.2230  137.4510 C   0  0  0  0  0  3  0  0  0  0  0  0
  183.2980  174.5450  137.1780 C   0  0  0  0  0  0  0  0  0  0  0  0
  187.6950  178.5900  136.7890 C   0  0  1  0  0  3  0  0  0  0  0  0
  187.5660  177.1620  137.3630 C   0  0  2  0  0  0  0  0  0  0  0  0
  186.5170  178.2750  137.5770 C   0  0  0  0  0  2  0  0  0  0  0  0
  187.8270  176.5550  136.2260 O   0  0  0  0  0  0  0  0  0  0  0  0
  188.6050  179.3110  137.5670 O   0  0  0  0  0  1  0  0  0  0  0  0
  186.6390  176.1460  136.7850 N   0  0  0  0  0  0  0  0  0  0  0  0
  178.9340  179.3160  139.8430 N   0  0  0  0  0  2  0  0  0  0  0  0
  179.3580  179.3460  138.4510 C   0  0  0  0  0  2  0  0  0  0  0  0
  179.8980  180.6970  138.1290 C   0  0  0  0  0  0  0  0  0  0  0  0
  180.8770  181.2940  138.9740 N   0  0  0  0  0  1  0  0  0  0  0  0
  179.4570  181.3280  137.1350 O   0  0  0  0  0  0  0  0  0  0  0  0
  1 24  1  6  0  0  0
  1  6  1  0  0  0  0
  2  5  1  0  0  0  0
  2  8  1  0  0  0  0
  3  5  2  0  0  0  0
  4  6  2  0  0  0  0
  4  7  1  0  0  0  0
  6  3  1  0  0  0  0
  7  2  2  0  0  0  0
  8  9  2  0  0  0  0
  9 10  1  0  0  0  0
 10 11  2  0  0  0  0
 12 10  1  0  0  0  0
 13 20  1  1  0  0  0
 13 14  1  0  0  0  0
 15 18  1  6  0  0  0
 15 16  1  0  0  0  0
 15 13  1  0  0  0  0
 16 17  1  0  0  0  0
 17 14  1  0  0  0  0
 17 12  1  1  0  0  0
 19 20  2  0  0  0  0
 20 21  2  0  0  0  0
 20 23  1  0  0  0  0
 23 22  1  0  0  0  0
 24 25  1  0  0  0  0
 26 30  1  0  0  0  0
 27 29  1  0  0  0  0
 28 27  1  0  0  0  0
 28 36  1  1  0  0  0
 28 26  1  0  0  0  0
 29 30  1  0  0  0  0
 30 25  1  0  0  0  0
 31 32  1  0  0  0  0
 32 34  2  0  0  0  0
 33 31  2  0  0  0  0
 33 36  1  0  0  0  0
 35 34  1  0  0  0  0
 36 35  2  0  0  0  0
 37 38  1  0  0  0  0
 37 41  1  1  0  0  0
 37 39  1  0  0  0  0
 38 39  1  1  0  0  0
 40 42  1  0  0  0  0
 40 38  1  0  0  0  0
 42 31  1  0  0  0  0
 42 38  1  0  0  0  0
 43  1  1  0  0  0  0
 44 43  1  0  0  0  0
 45 44  1  0  0  0  0
 45 46  1  0  0  0  0
 47 45  2  0  0  0  0
M  END
>  <MODEL>
4

>  <REMARK>
 VINA RESULT:      -7.7      3.947      9.227
  Name = 
  14 active torsions:
  status: ('A' for Active; 'I' for Inactive)
    1  A    between atoms: C_1  and  C_15
    2  A    between atoms: C_1  and  C_45
    3  A    between atoms: C_4  and  C_5
    4  A    between atoms: C_6  and  S_17
    5  A    between atoms: C_7  and  C_13
    6  A    between atoms: C_7  and  N_30
    7  A    between atoms: C_14  and  N_36
    8  A    between atoms: C_15  and  N_32
    9  A    between atoms: S_17  and  C_42
   10  A    between atoms: C_20  and  C_45
   11  A    between atoms: C_22  and  C_44
   12  A    between atoms: C_27  and  N_41
   13  A    between atoms: N_30  and  C_45
   14  A    between atoms: N_35  and  C_38
                            x       y       z     vdW  Elec       q    Type
                         _______ _______ _______ _____ _____    ______ ____

>  <TORSDO>
F 14

$$$$
=
 OpenBabel10222420253D

 47 52  0  0  1  0  0  0  0  0999 V2000
  189.8760  176.7140  139.2670 C   0  0  2  0  0  3  0  0  0  0  0  0
  186.3000  177.0340  136.8870 C   0  0  0  0  0  0  0  0  0  0  0  0
  188.3270  175.8440  137.5060 C   0  0  0  0  0  3  0  0  0  0  0  0
  187.7730  177.9430  138.5850 C   0  0  0  0  0  3  0  0  0  0  0  0
  187.1660  175.9370  136.7340 C   0  0  0  0  0  3  0  0  0  0  0  0
  188.6340  176.8430  138.4380 C   0  0  0  0  0  0  0  0  0  0  0  0
  186.6080  178.0320  137.8170 C   0  0  0  0  0  3  0  0  0  0  0  0
  185.0500  177.1330  136.1260 C   0  0  0  0  0  3  0  0  0  0  0  0
  183.9350  176.6640  136.5870 N   0  0  0  0  0  0  0  0  0  0  0  0
  182.7000  176.7830  135.8700 C   0  0  0  0  0  0  0  0  0  0  0  0
  182.6210  176.4160  134.6660 O   0  0  0  0  0  0  0  0  0  0  0  0
  181.5440  177.3200  136.5110 N   0  0  0  0  0  2  0  0  0  0  0  0
  181.2390  179.9630  138.7140 C   0  0  1  0  0  3  0  0  0  0  0  0
  180.4890  178.8310  138.0830 C   0  0  0  0  0  2  0  0  0  0  0  0
  182.6810  179.6440  138.4150 C   0  0  2  0  0  3  0  0  0  0  0  0
  182.8130  178.2560  138.2500 O   0  0  0  0  0  0  0  0  0  0  0  0
  181.5410  177.7580  137.8980 C   0  0  2  0  0  3  0  0  0  0  0  0
  183.5250  180.0850  139.5160 N   0  0  0  0  0  1  0  0  0  0  0  0
  179.6140  182.1200  138.7600 O   0  0  0  0  0  0  0  0  0  0  0  0
  180.7560  181.5200  137.9760 S   0  0  0  0  0  0  0  0  0  0  0  0
  181.9290  182.4670  138.0210 O   0  0  0  0  0  0  0  0  0  0  0  0
  180.4240  182.5820  135.5040 C   0  0  0  0  0  1  0  0  0  0  0  0
  180.2500  181.2850  136.2780 C   0  0  0  0  0  2  0  0  0  0  0  0
  189.7510  177.4780  140.5860 C   0  0  0  0  0  2  0  0  0  0  0  0
  190.9110  177.1340  141.5170 C   0  0  0  0  0  2  0  0  0  0  0  0
  190.5500  178.0170  143.5730 O   0  0  0  0  0  0  0  0  0  0  0  0
  191.3420  176.2400  144.9190 C   0  0  0  0  0  2  0  0  0  0  0  0
  190.7810  177.6360  144.9080 C   0  0  2  0  0  3  0  0  0  0  0  0
  191.3040  175.8870  143.4700 C   0  0  0  0  0  2  0  0  0  0  0  0
  190.4180  176.8620  142.8610 N   0  0  0  0  0  0  0  0  0  0  0  0
  187.1500  178.2000  145.9090 C   0  0  0  0  0  0  0  0  0  0  0  0
  187.1960  177.8950  147.2750 C   0  0  0  0  0  3  0  0  0  0  0  0
  188.3090  178.1120  145.1350 C   0  0  0  0  0  3  0  0  0  0  0  0
  188.4010  177.4990  147.8620 C   0  0  0  0  0  3  0  0  0  0  0  0
  189.5620  177.4120  147.0850 C   0  0  0  0  0  3  0  0  0  0  0  0
  189.5200  177.7180  145.7210 C   0  0  0  0  0  0  0  0  0  0  0  0
  184.2890  179.2520  143.3040 C   0  0  1  0  0  3  0  0  0  0  0  0
  184.8110  178.2510  144.3570 C   0  0  2  0  0  0  0  0  0  0  0  0
  185.5590  178.5960  143.0510 C   0  0  0  0  0  2  0  0  0  0  0  0
  184.6340  179.0570  145.3810 O   0  0  0  0  0  0  0  0  0  0  0  0
  183.2820  178.6380  142.5530 O   0  0  0  0  0  1  0  0  0  0  0  0
  185.9220  178.5820  145.2970 N   0  0  0  0  0  0  0  0  0  0  0  0
  191.0210  177.2020  138.5150 N   0  0  0  0  0  2  0  0  0  0  0  0
  191.7960  176.0360  138.1160 C   0  0  0  0  0  2  0  0  0  0  0  0
  193.2480  176.3350  138.2640 C   0  0  0  0  0  0  0  0  0  0  0  0
  194.1980  175.7040  137.4090 N   0  0  0  0  0  1  0  0  0  0  0  0
  193.6390  177.1110  139.1730 O   0  0  0  0  0  0  0  0  0  0  0  0
  1 24  1  1  0  0  0
  2  7  1  0  0  0  0
  3  6  2  0  0  0  0
  5  2  2  0  0  0  0
  5  3  1  0  0  0  0
  6  4  1  0  0  0  0
  6  1  1  0  0  0  0
  7  4  2  0  0  0  0
  8  9  2  0  0  0  0
  8  2  1  0  0  0  0
 10 12  1  0  0  0  0
 10  9  1  0  0  0  0
 11 10  2  0  0  0  0
 13 20  1  6  0  0  0
 14 13  1  0  0  0  0
 15 13  1  0  0  0  0
 15 18  1  1  0  0  0
 16 15  1  0  0  0  0
 17 12  1  6  0  0  0
 17 14  1  0  0  0  0
 17 16  1  0  0  0  0
 20 21  2  0  0  0  0
 20 19  2  0  0  0  0
 22 23  1  0  0  0  0
 23 20  1  0  0  0  0
 24 25  1  0  0  0  0
 25 30  1  0  0  0  0
 26 28  1  0  0  0  0
 28 27  1  0  0  0  0
 28 36  1  1  0  0  0
 29 27  1  0  0  0  0
 30 29  1  0  0  0  0
 30 26  1  0  0  0  0
 31 32  1  0  0  0  0
 32 34  2  0  0  0  0
 33 36  1  0  0  0  0
 33 31  2  0  0  0  0
 35 34  1  0  0  0  0
 36 35  2  0  0  0  0
 37 41  1  6  0  0  0
 37 38  1  0  0  0  0
 38 39  1  1  0  0  0
 38 42  1  0  0  0  0
 38 40  1  0  0  0  0
 39 37  1  0  0  0  0
 42 40  1  0  0  0  0
 42 31  1  0  0  0  0
 43  1  1  0  0  0  0
 44 45  1  0  0  0  0
 44 43  1  0  0  0  0
 45 47  2  0  0  0  0
 46 45  1  0  0  0  0
M  END
>  <MODEL>
5

>  <REMARK>
 VINA RESULT:      -7.3      3.822      9.181
  Name = 
  14 active torsions:
  status: ('A' for Active; 'I' for Inactive)
    1  A    between atoms: C_1  and  C_15
    2  A    between atoms: C_1  and  C_45
    3  A    between atoms: C_4  and  C_5
    4  A    between atoms: C_6  and  S_17
    5  A    between atoms: C_7  and  C_13
    6  A    between atoms: C_7  and  N_30
    7  A    between atoms: C_14  and  N_36
    8  A    between atoms: C_15  and  N_32
    9  A    between atoms: S_17  and  C_42
   10  A    between atoms: C_20  and  C_45
   11  A    between atoms: C_22  and  C_44
   12  A    between atoms: C_27  and  N_41
   13  A    between atoms: N_30  and  C_45
   14  A    between atoms: N_35  and  C_38
                            x       y       z     vdW  Elec       q    Type
                         _______ _______ _______ _____ _____    ______ ____

>  <TORSDO>
F 14

$$$$
=
 OpenBabel10222420253D

 47 52  0  0  1  0  0  0  0  0999 V2000
  189.4070  176.9050  145.1220 C   0  0  2  0  0  3  0  0  0  0  0  0
  189.9630  177.4630  140.8880 C   0  0  0  0  0  0  0  0  0  0  0  0
  188.5230  176.9710  142.7830 C   0  0  0  0  0  3  0  0  0  0  0  0
  190.8860  177.3900  143.1290 C   0  0  0  0  0  3  0  0  0  0  0  0
  188.6930  177.1560  141.4090 C   0  0  0  0  0  3  0  0  0  0  0  0
  189.6160  177.0910  143.6500 C   0  0  0  0  0  0  0  0  0  0  0  0
  191.0540  177.5810  141.7540 C   0  0  0  0  0  3  0  0  0  0  0  0
  190.1610  177.7110  139.4560 C   0  0  0  0  0  3  0  0  0  0  0  0
  189.3690  177.2090  138.5630 N   0  0  0  0  0  0  0  0  0  0  0  0
  189.5290  177.4700  137.1640 C   0  0  0  0  0  0  0  0  0  0  0  0
  189.1570  178.5700  136.6720 O   0  0  0  0  0  0  0  0  0  0  0  0
  190.1120  176.4880  136.3090 N   0  0  0  0  0  2  0  0  0  0  0  0
  192.7930  174.3510  136.7310 C   0  0  1  0  0  3  0  0  0  0  0  0
  191.9420  175.3650  137.4310 C   0  0  0  0  0  2  0  0  0  0  0  0
  192.0130  174.0340  135.4820 C   0  0  2  0  0  3  0  0  0  0  0  0
  190.6510  174.2790  135.7240 O   0  0  0  0  0  0  0  0  0  0  0  0
  190.5790  175.1970  136.7920 C   0  0  2  0  0  3  0  0  0  0  0  0
  192.1980  172.6350  135.1240 N   0  0  0  0  0  1  0  0  0  0  0  0
  194.2100  176.3380  135.5740 O   0  0  0  0  0  0  0  0  0  0  0  0
  194.3930  175.0470  136.3340 S   0  0  0  0  0  0  0  0  0  0  0  0
  195.1320  175.3370  137.6170 O   0  0  0  0  0  0  0  0  0  0  0  0
  196.4360  173.2710  136.1970 C   0  0  0  0  0  1  0  0  0  0  0  0
  195.3510  173.9080  135.3450 C   0  0  0  0  0  2  0  0  0  0  0  0
  188.5210  178.0060  145.7070 C   0  0  0  0  0  2  0  0  0  0  0  0
  187.2340  177.4130  146.2770 C   0  0  0  0  0  2  0  0  0  0  0  0
  186.3800  178.7780  144.6830 O   0  0  0  0  0  0  0  0  0  0  0  0
  184.1090  178.7970  145.3430 C   0  0  0  0  0  2  0  0  0  0  0  0
  185.1260  179.3400  144.3760 C   0  0  2  0  0  3  0  0  0  0  0  0
  184.9260  177.8310  146.1330 C   0  0  0  0  0  2  0  0  0  0  0  0
  186.1290  177.6170  145.3500 N   0  0  0  0  0  0  0  0  0  0  0  0
  183.0680  178.4170  141.3070 C   0  0  0  0  0  0  0  0  0  0  0  0
  184.0430  178.4660  140.3040 C   0  0  0  0  0  3  0  0  0  0  0  0
  183.4130  178.7050  142.6300 C   0  0  0  0  0  3  0  0  0  0  0  0
  185.3590  178.8070  140.6250 C   0  0  0  0  0  3  0  0  0  0  0  0
  185.7040  179.0960  141.9510 C   0  0  0  0  0  3  0  0  0  0  0  0
  184.7330  179.0450  142.9570 C   0  0  0  0  0  0  0  0  0  0  0  0
  179.6470  177.5390  139.4080 C   0  0  1  0  0  3  0  0  0  0  0  0
  180.7470  177.1190  140.4070 C   0  0  2  0  0  0  0  0  0  0  0  0
  181.0120  177.4480  138.9220 C   0  0  0  0  0  2  0  0  0  0  0  0
  180.3940  177.9790  141.3370 O   0  0  0  0  0  0  0  0  0  0  0  0
  178.9310  176.4030  139.0190 O   0  0  0  0  0  1  0  0  0  0  0  0
  181.7190  178.0930  140.9860 N   0  0  0  0  0  0  0  0  0  0  0  0
  190.6930  176.8870  145.8030 N   0  0  0  0  0  2  0  0  0  0  0  0
  190.4190  176.7320  147.2250 C   0  0  0  0  0  2  0  0  0  0  0  0
  191.7070  176.6270  147.9660 C   0  0  0  0  0  0  0  0  0  0  0  0
  192.5710  175.5160  147.7420 N   0  0  0  0  0  1  0  0  0  0  0  0
  192.0110  177.4970  148.8220 O   0  0  0  0  0  0  0  0  0  0  0  0
  1 24  1  1  0  0  0
  1 43  1  0  0  0  0
  2  5  2  0  0  0  0
  2  7  1  0  0  0  0
  3  6  2  0  0  0  0
  4  6  1  0  0  0  0
  5  3  1  0  0  0  0
  6  1  1  0  0  0  0
  7  4  2  0  0  0  0
  8  2  1  0  0  0  0
  9  8  2  0  0  0  0
 10  9  1  0  0  0  0
 11 10  2  0  0  0  0
 12 10  1  0  0  0  0
 13 20  1  6  0  0  0
 13 14  1  0  0  0  0
 15 18  1  1  0  0  0
 15 16  1  0  0  0  0
 15 13  1  0  0  0  0
 16 17  1  0  0  0  0
 17 12  1  6  0  0  0
 17 14  1  0  0  0  0
 19 20  2  0  0  0  0
 20 21  2  0  0  0  0
 23 22  1  0  0  0  0
 23 20  1  0  0  0  0
 24 25  1  0  0  0  0
 26 30  1  0  0  0  0
 27 29  1  0  0  0  0
 28 36  1  6  0  0  0
 28 26  1  0  0  0  0
 28 27  1  0  0  0  0
 30 29  1  0  0  0  0
 30 25  1  0  0  0  0
 31 33  1  0  0  0  0
 32 34  1  0  0  0  0
 32 31  2  0  0  0  0
 33 36  2  0  0  0  0
 34 35  2  0  0  0  0
 35 36  1  0  0  0  0
 37 41  1  6  0  0  0
 37 38  1  0  0  0  0
 38 39  1  1  0  0  0
 38 42  1  0  0  0  0
 38 40  1  0  0  0  0
 39 37  1  0  0  0  0
 42 31  1  0  0  0  0
 42 40  1  0  0  0  0
 43 44  1  0  0  0  0
 44 45  1  0  0  0  0
 45 47  2  0  0  0  0
 46 45  1  0  0  0  0
M  END
>  <MODEL>
6

>  <REMARK>
 VINA RESULT:      -7.3      2.029      2.448
  Name = 
  14 active torsions:
  status: ('A' for Active; 'I' for Inactive)
    1  A    between atoms: C_1  and  C_15
    2  A    between atoms: C_1  and  C_45
    3  A    between atoms: C_4  and  C_5
    4  A    between atoms: C_6  and  S_17
    5  A    between atoms: C_7  and  C_13
    6  A    between atoms: C_7  and  N_30
    7  A    between atoms: C_14  and  N_36
    8  A    between atoms: C_15  and  N_32
    9  A    between atoms: S_17  and  C_42
   10  A    between atoms: C_20  and  C_45
   11  A    between atoms: C_22  and  C_44
   12  A    between atoms: C_27  and  N_41
   13  A    between atoms: N_30  and  C_45
   14  A    between atoms: N_35  and  C_38
                            x       y       z     vdW  Elec       q    Type
                         _______ _______ _______ _____ _____    ______ ____

>  <TORSDO>
F 14

$$$$
=
 OpenBabel10222420253D

 47 52  0  0  1  0  0  0  0  0999 V2000
  182.4030  178.8570  140.7170 C   0  0  2  0  0  3  0  0  0  0  0  0
  183.5770  176.1930  137.5430 C   0  0  0  0  0  0  0  0  0  0  0  0
  183.3610  178.4400  138.4440 C   0  0  0  0  0  3  0  0  0  0  0  0
  182.6170  176.5330  139.7430 C   0  0  0  0  0  3  0  0  0  0  0  0
  183.7500  177.5820  137.4120 C   0  0  0  0  0  3  0  0  0  0  0  0
  182.7980  177.9200  139.6160 C   0  0  0  0  0  0  0  0  0  0  0  0
  183.0120  175.6750  138.7120 C   0  0  0  0  0  3  0  0  0  0  0  0
  184.0210  175.2660  136.4960 C   0  0  0  0  0  3  0  0  0  0  0  0
  184.8010  174.2660  136.7600 N   0  0  0  0  0  0  0  0  0  0  0  0
  185.2140  173.3340  135.7550 C   0  0  0  0  0  0  0  0  0  0  0  0
  184.4330  173.0110  134.8190 O   0  0  0  0  0  0  0  0  0  0  0  0
  186.5180  172.7550  135.8010 N   0  0  0  0  0  2  0  0  0  0  0  0
  188.8920  174.9830  136.9550 C   0  0  1  0  0  3  0  0  0  0  0  0
  187.4610  174.5670  137.1040 C   0  0  0  0  0  2  0  0  0  0  0  0
  189.5140  173.8490  136.1840 C   0  0  2  0  0  3  0  0  0  0  0  0
  188.7790  172.6780  136.4280 O   0  0  0  0  0  0  0  0  0  0  0  0
  187.4890  173.0770  136.8360 C   0  0  2  0  0  3  0  0  0  0  0  0
  190.8920  173.6560  136.6120 N   0  0  0  0  0  1  0  0  0  0  0  0
  189.9290  177.4700  136.7630 O   0  0  0  0  0  0  0  0  0  0  0  0
  189.0020  176.5210  136.0450 S   0  0  0  0  0  0  0  0  0  0  0  0
  189.5620  176.2370  134.6730 O   0  0  0  0  0  0  0  0  0  0  0  0
  187.2900  178.4820  136.8010 C   0  0  0  0  0  1  0  0  0  0  0  0
  187.3910  177.2760  135.8810 C   0  0  0  0  0  2  0  0  0  0  0  0
  183.2420  178.6280  141.9760 C   0  0  0  0  0  2  0  0  0  0  0  0
  184.6320  179.2370  141.8130 C   0  0  0  0  0  2  0  0  0  0  0  0
  185.5080  177.8700  143.3930 O   0  0  0  0  0  0  0  0  0  0  0  0
  184.8160  179.0130  145.3440 C   0  0  0  0  0  2  0  0  0  0  0  0
  185.5170  177.7990  144.7980 C   0  0  2  0  0  3  0  0  0  0  0  0
  184.5130  179.7740  144.0980 C   0  0  0  0  0  2  0  0  0  0  0  0
  185.3580  179.1860  143.0750 N   0  0  0  0  0  0  0  0  0  0  0  0
  189.2960  177.3630  144.9770 C   0  0  0  0  0  0  0  0  0  0  0  0
  189.5180  177.4890  146.3530 C   0  0  0  0  0  3  0  0  0  0  0  0
  188.0000  177.4680  144.4660 C   0  0  0  0  0  3  0  0  0  0  0  0
  188.4440  177.7240  147.2150 C   0  0  0  0  0  3  0  0  0  0  0  0
  187.1450  177.8300  146.7020 C   0  0  0  0  0  3  0  0  0  0  0  0
  186.9200  177.7020  145.3280 C   0  0  0  0  0  0  0  0  0  0  0  0
  191.6130  176.8910  141.7380 C   0  0  1  0  0  3  0  0  0  0  0  0
  191.2900  177.6790  143.0250 C   0  0  2  0  0  0  0  0  0  0  0  0
  190.3080  177.5180  141.8450 C   0  0  0  0  0  2  0  0  0  0  0  0
  191.6750  176.7260  143.8460 O   0  0  0  0  0  0  0  0  0  0  0  0
  192.4450  177.6680  140.9270 O   0  0  0  0  0  1  0  0  0  0  0  0
  190.3880  177.1460  144.0880 N   0  0  0  0  0  0  0  0  0  0  0  0
  180.9910  178.6900  141.0230 N   0  0  0  0  0  2  0  0  0  0  0  0
  180.8060  179.0870  142.4110 C   0  0  0  0  0  2  0  0  0  0  0  0
  179.7290  178.2590  143.0210 C   0  0  0  0  0  0  0  0  0  0  0  0
  179.2100  178.5950  144.3060 N   0  0  0  0  0  1  0  0  0  0  0  0
  179.3070  177.2360  142.4220 O   0  0  0  0  0  0  0  0  0  0  0  0
  1 43  1  0  0  0  0
  1 24  1  1  0  0  0
  2  7  1  0  0  0  0
  3  6  2  0  0  0  0
  5  2  2  0  0  0  0
  5  3  1  0  0  0  0
  6  4  1  0  0  0  0
  6  1  1  0  0  0  0
  7  4  2  0  0  0  0
  8  9  2  0  0  0  0
  8  2  1  0  0  0  0
 10 12  1  0  0  0  0
 10  9  1  0  0  0  0
 11 10  2  0  0  0  0
 13 20  1  6  0  0  0
 13 14  1  0  0  0  0
 15 16  1  0  0  0  0
 15 18  1  1  0  0  0
 15 13  1  0  0  0  0
 16 17  1  0  0  0  0
 17 12  1  6  0  0  0
 17 14  1  0  0  0  0
 20 19  2  0  0  0  0
 21 20  2  0  0  0  0
 23 20  1  0  0  0  0
 23 22  1  0  0  0  0
 25 24  1  0  0  0  0
 25 30  1  0  0  0  0
 26 28  1  0  0  0  0
 28 36  1  1  0  0  0
 28 27  1  0  0  0  0
 29 27  1  0  0  0  0
 30 26  1  0  0  0  0
 30 29  1  0  0  0  0
 31 32  1  0  0  0  0
 32 34  2  0  0  0  0
 33 31  2  0  0  0  0
 33 36  1  0  0  0  0
 35 34  1  0  0  0  0
 36 35  2  0  0  0  0
 37 41  1  6  0  0  0
 37 39  1  0  0  0  0
 37 38  1  0  0  0  0
 38 39  1  1  0  0  0
 38 40  1  0  0  0  0
 38 42  1  0  0  0  0
 40 42  1  0  0  0  0
 42 31  1  0  0  0  0
 43 44  1  0  0  0  0
 44 45  1  0  0  0  0
 45 46  1  0  0  0  0
 47 45  2  0  0  0  0
M  END
>  <MODEL>
7

>  <REMARK>
 VINA RESULT:      -7.3      3.038      7.333
  Name = 
  14 active torsions:
  status: ('A' for Active; 'I' for Inactive)
    1  A    between atoms: C_1  and  C_15
    2  A    between atoms: C_1  and  C_45
    3  A    between atoms: C_4  and  C_5
    4  A    between atoms: C_6  and  S_17
    5  A    between atoms: C_7  and  C_13
    6  A    between atoms: C_7  and  N_30
    7  A    between atoms: C_14  and  N_36
    8  A    between atoms: C_15  and  N_32
    9  A    between atoms: S_17  and  C_42
   10  A    between atoms: C_20  and  C_45
   11  A    between atoms: C_22  and  C_44
   12  A    between atoms: C_27  and  N_41
   13  A    between atoms: N_30  and  C_45
   14  A    between atoms: N_35  and  C_38
                            x       y       z     vdW  Elec       q    Type
                         _______ _______ _______ _____ _____    ______ ____

>  <TORSDO>
F 14

$$$$
=
 OpenBabel10222420253D

 47 52  0  0  1  0  0  0  0  0999 V2000
  182.8500  179.3640  142.0400 C   0  0  2  0  0  3  0  0  0  0  0  0
  184.0600  177.3320  138.4400 C   0  0  0  0  0  0  0  0  0  0  0  0
  184.1640  179.2630  139.9140 C   0  0  0  0  0  3  0  0  0  0  0  0
  182.7420  177.3800  140.4750 C   0  0  0  0  0  3  0  0  0  0  0  0
  184.5670  178.6080  138.7470 C   0  0  0  0  0  3  0  0  0  0  0  0
  183.2550  178.6510  140.7850 C   0  0  0  0  0  0  0  0  0  0  0  0
  183.1510  176.7240  139.3100 C   0  0  0  0  0  3  0  0  0  0  0  0
  184.5030  176.6020  137.2480 C   0  0  0  0  0  3  0  0  0  0  0  0
  185.7410  176.6040  136.8700 N   0  0  0  0  0  0  0  0  0  0  0  0
  186.1940  175.8680  135.7280 C   0  0  0  0  0  0  0  0  0  0  0  0
  185.5170  174.9040  135.2780 O   0  0  0  0  0  0  0  0  0  0  0  0
  187.4200  176.2150  135.0860 N   0  0  0  0  0  2  0  0  0  0  0  0
  190.3010  177.1840  136.7280 C   0  0  1  0  0  3  0  0  0  0  0  0
  189.7160  176.9340  135.3720 C   0  0  0  0  0  2  0  0  0  0  0  0
  189.0960  177.2300  137.6320 C   0  0  2  0  0  3  0  0  0  0  0  0
  187.9800  177.6250  136.8780 O   0  0  0  0  0  0  0  0  0  0  0  0
  188.2600  177.3170  135.5300 C   0  0  2  0  0  3  0  0  0  0  0  0
  189.3200  178.1870  138.7070 N   0  0  0  0  0  1  0  0  0  0  0  0
  192.7350  176.4170  137.6120 O   0  0  0  0  0  0  0  0  0  0  0  0
  191.4030  175.8510  137.1880 S   0  0  0  0  0  0  0  0  0  0  0  0
  190.8010  175.0980  138.3480 O   0  0  0  0  0  0  0  0  0  0  0  0
  192.1110  173.3780  136.3340 C   0  0  0  0  0  1  0  0  0  0  0  0
  191.6450  174.7290  135.8170 C   0  0  0  0  0  2  0  0  0  0  0  0
  184.0420  179.5730  142.9760 C   0  0  0  0  0  2  0  0  0  0  0  0
  184.5060  178.2400  143.5580 C   0  0  0  0  0  2  0  0  0  0  0  0
  185.8400  177.2620  145.1060 O   0  0  0  0  0  0  0  0  0  0  0  0
  185.9070  178.9850  146.7260 C   0  0  0  0  0  2  0  0  0  0  0  0
  186.3380  177.5850  146.3830 C   0  0  2  0  0  3  0  0  0  0  0  0
  185.2090  179.4020  145.4760 C   0  0  0  0  0  2  0  0  0  0  0  0
  185.6260  178.4460  144.4660 N   0  0  0  0  0  0  0  0  0  0  0  0
  189.9590  177.0330  145.3360 C   0  0  0  0  0  0  0  0  0  0  0  0
  190.6200  177.1800  146.5610 C   0  0  0  0  0  3  0  0  0  0  0  0
  188.5700  177.1700  145.2710 C   0  0  0  0  0  3  0  0  0  0  0  0
  189.8900  177.4660  147.7180 C   0  0  0  0  0  3  0  0  0  0  0  0
  188.4980  177.6020  147.6520 C   0  0  0  0  0  3  0  0  0  0  0  0
  187.8340  177.4540  146.4300 C   0  0  0  0  0  0  0  0  0  0  0  0
  191.2320  176.8100  141.5400 C   0  0  1  0  0  3  0  0  0  0  0  0
  191.4770  177.2860  142.9880 C   0  0  2  0  0  0  0  0  0  0  0  0
  190.2720  177.7250  142.1290 C   0  0  0  0  0  2  0  0  0  0  0  0
  191.6810  176.0810  143.4740 O   0  0  0  0  0  0  0  0  0  0  0  0
  192.0850  177.5100  140.6820 O   0  0  0  0  0  1  0  0  0  0  0  0
  190.6960  176.7640  144.1480 N   0  0  0  0  0  0  0  0  0  0  0  0
  181.8080  178.6100  142.7200 N   0  0  0  0  0  2  0  0  0  0  0  0
  180.5820  179.3890  142.6160 C   0  0  0  0  0  2  0  0  0  0  0  0
  179.6030  178.6560  141.7660 C   0  0  0  0  0  0  0  0  0  0  0  0
  179.0080  179.3010  140.6430 N   0  0  0  0  0  1  0  0  0  0  0  0
  179.2690  177.4810  142.0660 O   0  0  0  0  0  0  0  0  0  0  0  0
  1 43  1  0  0  0  0
  1 24  1  1  0  0  0
  2  5  2  0  0  0  0
  2  7  1  0  0  0  0
  3  6  2  0  0  0  0
  4  6  1  0  0  0  0
  5  3  1  0  0  0  0
  6  1  1  0  0  0  0
  7  4  2  0  0  0  0
  8  2  1  0  0  0  0
  9  8  2  0  0  0  0
 10  9  1  0  0  0  0
 11 10  2  0  0  0  0
 12 10  1  0  0  0  0
 13 20  1  1  0  0  0
 13 15  1  0  0  0  0
 14 17  1  0  0  0  0
 14 13  1  0  0  0  0
 15 18  1  1  0  0  0
 16 15  1  0  0  0  0
 17 12  1  1  0  0  0
 17 16  1  0  0  0  0
 20 19  2  0  0  0  0
 20 21  2  0  0  0  0
 23 22  1  0  0  0  0
 23 20  1  0  0  0  0
 24 25  1  0  0  0  0
 25 30  1  0  0  0  0
 26 28  1  0  0  0  0
 28 36  1  6  0  0  0
 28 27  1  0  0  0  0
 29 27  1  0  0  0  0
 30 26  1  0  0  0  0
 30 29  1  0  0  0  0
 31 32  1  0  0  0  0
 32 34  2  0  0  0  0
 33 31  2  0  0  0  0
 33 36  1  0  0  0  0
 35 34  1  0  0  0  0
 36 35  2  0  0  0  0
 37 41  1  6  0  0  0
 37 39  1  0  0  0  0
 37 38  1  0  0  0  0
 38 39  1  1  0  0  0
 38 40  1  0  0  0  0
 38 42  1  0  0  0  0
 40 42  1  0  0  0  0
 42 31  1  0  0  0  0
 44 43  1  0  0  0  0
 45 47  2  0  0  0  0
 45 44  1  0  0  0  0
 46 45  1  0  0  0  0
M  END
>  <MODEL>
8

>  <REMARK>
 VINA RESULT:      -7.1      2.463      7.061
  Name = 
  14 active torsions:
  status: ('A' for Active; 'I' for Inactive)
    1  A    between atoms: C_1  and  C_15
    2  A    between atoms: C_1  and  C_45
    3  A    between atoms: C_4  and  C_5
    4  A    between atoms: C_6  and  S_17
    5  A    between atoms: C_7  and  C_13
    6  A    between atoms: C_7  and  N_30
    7  A    between atoms: C_14  and  N_36
    8  A    between atoms: C_15  and  N_32
    9  A    between atoms: S_17  and  C_42
   10  A    between atoms: C_20  and  C_45
   11  A    between atoms: C_22  and  C_44
   12  A    between atoms: C_27  and  N_41
   13  A    between atoms: N_30  and  C_45
   14  A    between atoms: N_35  and  C_38
                            x       y       z     vdW  Elec       q    Type
                         _______ _______ _______ _____ _____    ______ ____

>  <TORSDO>
F 14

$$$$
=
 OpenBabel10222420253D

 47 52  0  0  1  0  0  0  0  0999 V2000
  187.1100  178.3000  144.9170 C   0  0  2  0  0  3  0  0  0  0  0  0
  183.1000  178.7440  143.4090 C   0  0  0  0  0  0  0  0  0  0  0  0
  184.6830  178.8030  145.2530 C   0  0  0  0  0  3  0  0  0  0  0  0
  185.4350  178.2210  143.0230 C   0  0  0  0  0  3  0  0  0  0  0  0
  183.3800  178.9560  144.7720 C   0  0  0  0  0  3  0  0  0  0  0  0
  185.7170  178.4410  144.3820 C   0  0  0  0  0  0  0  0  0  0  0  0
  184.1330  178.3800  142.5410 C   0  0  0  0  0  3  0  0  0  0  0  0
  181.7520  178.9440  142.8680 C   0  0  0  0  0  3  0  0  0  0  0  0
  181.3540  178.3400  141.7940 N   0  0  0  0  0  0  0  0  0  0  0  0
  180.0290  178.4990  141.2720 C   0  0  0  0  0  0  0  0  0  0  0  0
  179.3840  179.5620  141.4770 O   0  0  0  0  0  0  0  0  0  0  0  0
  179.4220  177.4520  140.5150 N   0  0  0  0  0  2  0  0  0  0  0  0
  180.4080  175.1900  138.0980 C   0  0  1  0  0  3  0  0  0  0  0  0
  180.8810  176.3390  138.9350 C   0  0  0  0  0  2  0  0  0  0  0  0
  179.1100  174.7870  138.7490 C   0  0  2  0  0  3  0  0  0  0  0  0
  179.1490  175.1580  140.1030 O   0  0  0  0  0  0  0  0  0  0  0  0
  180.0960  176.1970  140.2210 C   0  0  2  0  0  3  0  0  0  0  0  0
  178.9310  173.3460  138.6440 N   0  0  0  0  0  1  0  0  0  0  0  0
  179.3020  174.6980  135.6840 O   0  0  0  0  0  0  0  0  0  0  0  0
  180.1460  175.7170  136.4070 S   0  0  0  0  0  0  0  0  0  0  0  0
  179.4170  177.0380  136.4150 O   0  0  0  0  0  0  0  0  0  0  0  0
  182.0080  177.3850  135.3590 C   0  0  0  0  0  1  0  0  0  0  0  0
  181.7050  175.9080  135.5550 C   0  0  0  0  0  2  0  0  0  0  0  0
  187.8070  177.0630  144.3470 C   0  0  0  0  0  2  0  0  0  0  0  0
  189.2850  177.3490  144.0950 C   0  0  0  0  0  2  0  0  0  0  0  0
  189.0900  176.7270  141.9250 O   0  0  0  0  0  0  0  0  0  0  0  0
  191.1610  177.5110  141.0930 C   0  0  0  0  0  2  0  0  0  0  0  0
  189.8900  176.7750  140.7680 C   0  0  2  0  0  3  0  0  0  0  0  0
  190.9200  177.9220  142.5070 C   0  0  0  0  0  2  0  0  0  0  0  0
  189.4920  177.7640  142.7140 N   0  0  0  0  0  0  0  0  0  0  0  0
  187.0990  178.0130  138.4910 C   0  0  0  0  0  0  0  0  0  0  0  0
  187.8340  178.6420  137.4790 C   0  0  0  0  0  3  0  0  0  0  0  0
  187.7610  177.4110  139.5640 C   0  0  0  0  0  3  0  0  0  0  0  0
  189.2300  178.6690  137.5450 C   0  0  0  0  0  3  0  0  0  0  0  0
  189.8920  178.0650  138.6200 C   0  0  0  0  0  3  0  0  0  0  0  0
  189.1610  177.4340  139.6320 C   0  0  0  0  0  0  0  0  0  0  0  0
  183.2060  178.8770  138.9130 C   0  0  1  0  0  3  0  0  0  0  0  0
  184.4100  178.6390  137.9780 C   0  0  2  0  0  0  0  0  0  0  0  0
  184.3560  179.7530  139.0460 C   0  0  0  0  0  2  0  0  0  0  0  0
  184.4870  177.3480  138.2120 O   0  0  0  0  0  0  0  0  0  0  0  0
  182.1970  179.5280  138.1980 O   0  0  0  0  0  1  0  0  0  0  0  0
  185.6760  177.9990  138.4450 N   0  0  0  0  0  0  0  0  0  0  0  0
  187.0730  178.2250  146.3700 N   0  0  0  0  0  2  0  0  0  0  0  0
  187.8810  177.0780  146.7580 C   0  0  0  0  0  2  0  0  0  0  0  0
  188.7620  177.4580  147.8970 C   0  0  0  0  0  0  0  0  0  0  0  0
  190.1760  177.4920  147.7260 N   0  0  0  0  0  1  0  0  0  0  0  0
  188.2590  177.7070  149.0230 O   0  0  0  0  0  0  0  0  0  0  0  0
  1 24  1  6  0  0  0
  1 43  1  0  0  0  0
  2  5  1  0  0  0  0
  4  6  2  0  0  0  0
  5  3  2  0  0  0  0
  6  1  1  0  0  0  0
  6  3  1  0  0  0  0
  7  4  1  0  0  0  0
  7  2  2  0  0  0  0
  8  2  1  0  0  0  0
  9  8  2  0  0  0  0
 10 11  2  0  0  0  0
 10  9  1  0  0  0  0
 12 10  1  0  0  0  0
 13 20  1  6  0  0  0
 13 15  1  0  0  0  0
 13 14  1  0  0  0  0
 14 17  1  0  0  0  0
 15 18  1  1  0  0  0
 15 16  1  0  0  0  0
 16 17  1  0  0  0  0
 17 12  1  6  0  0  0
 19 20  2  0  0  0  0
 20 21  2  0  0  0  0
 22 23  1  0  0  0  0
 23 20  1  0  0  0  0
 25 24  1  0  0  0  0
 26 30  1  0  0  0  0
 27 29  1  0  0  0  0
 28 36  1  6  0  0  0
 28 27  1  0  0  0  0
 28 26  1  0  0  0  0
 29 30  1  0  0  0  0
 30 25  1  0  0  0  0
 31 33  1  0  0  0  0
 32 34  1  0  0  0  0
 32 31  2  0  0  0  0
 33 36  2  0  0  0  0
 34 35  2  0  0  0  0
 35 36  1  0  0  0  0
 37 41  1  6  0  0  0
 37 39  1  0  0  0  0
 38 40  1  0  0  0  0
 38 42  1  0  0  0  0
 38 37  1  0  0  0  0
 38 39  1  6  0  0  0
 40 42  1  0  0  0  0
 42 31  1  0  0  0  0
 43 44  1  0  0  0  0
 44 45  1  0  0  0  0
 45 47  2  0  0  0  0
 46 45  1  0  0  0  0
M  END
>  <MODEL>
9

>  <REMARK>
 VINA RESULT:      -7.1      4.437      8.705
  Name = 
  14 active torsions:
  status: ('A' for Active; 'I' for Inactive)
    1  A    between atoms: C_1  and  C_15
    2  A    between atoms: C_1  and  C_45
    3  A    between atoms: C_4  and  C_5
    4  A    between atoms: C_6  and  S_17
    5  A    between atoms: C_7  and  C_13
    6  A    between atoms: C_7  and  N_30
    7  A    between atoms: C_14  and  N_36
    8  A    between atoms: C_15  and  N_32
    9  A    between atoms: S_17  and  C_42
   10  A    between atoms: C_20  and  C_45
   11  A    between atoms: C_22  and  C_44
   12  A    between atoms: C_27  and  N_41
   13  A    between atoms: N_30  and  C_45
   14  A    between atoms: N_35  and  C_38
                            x       y       z     vdW  Elec       q    Type
                         _______ _______ _______ _____ _____    ______ ____

>  <TORSDO>
F 14

$$$$
