=
 OpenBabel10222418053D

 35 38  0  0  0  0  0  0  0  0999 V2000
  187.7570  178.3120  148.0470 C   0  0  0  0  0  3  0  0  0  0  0  0
  189.0480  177.8700  147.7470 C   0  0  0  0  0  0  0  0  0  0  0  0
  189.3890  177.5340  146.4210 C   0  0  0  0  0  0  0  0  0  0  0  0
  189.9740  177.7530  148.7770 O   0  0  0  0  0  1  0  0  0  0  0  0
  186.7970  178.4260  147.0380 C   0  0  0  0  0  3  0  0  0  0  0  0
  188.4140  177.6580  145.4190 C   0  0  0  0  0  3  0  0  0  0  0  0
  187.1150  178.0980  145.7120 C   0  0  0  0  0  0  0  0  0  0  0  0
  184.7980  178.6560  144.9320 C   0  0  0  0  0  3  0  0  0  0  0  0
  186.4200  177.8920  143.3120 C   0  0  0  0  0  3  0  0  0  0  0  0
  185.4620  178.0050  142.3000 C   0  0  0  0  0  3  0  0  0  0  0  0
  186.0990  178.2170  144.6400 C   0  0  0  0  0  0  0  0  0  0  0  0
  184.1680  178.4460  142.5930 C   0  0  0  0  0  0  0  0  0  0  0  0
  183.8430  178.7700  143.9190 C   0  0  0  0  0  3  0  0  0  0  0  0
  183.2460  178.5450  141.5400 O   0  0  0  0  0  0  0  0  0  0  0  0
  183.5490  178.7380  140.1820 C   0  0  0  0  0  0  0  0  0  0  0  0
  184.0490  179.8220  139.7750 O   0  0  0  0  0  0  0  0  0  0  0  0
  182.8090  175.4500  138.5250 C   0  0  0  0  0  2  0  0  0  0  0  0
  182.6880  176.4330  139.6710 C   0  0  0  0  0  2  0  0  0  0  0  0
  182.8780  176.3900  136.9720 S   0  0  0  0  0  0  0  0  0  0  0  0
  183.2870  177.6850  139.2490 N   0  0  0  0  0  0  0  0  0  0  0  0
  183.5900  177.8190  137.8360 C   0  0  0  0  0  2  0  0  0  0  0  0
  190.7620  177.0970  146.0610 C   0  0  0  0  0  0  0  0  0  0  0  0
  191.3390  177.3870  144.8900 C   0  0  0  0  0  3  0  0  0  0  0  0
  192.1630  175.7450  147.7790 N   0  0  0  0  0  0  0  0  0  0  0  0
  191.5380  176.3480  147.0140 C   0  0  0  0  0  0  0  0  0  0  0  0
  190.6650  178.1300  143.7860 C   0  0  0  0  0  2  0  0  0  0  0  0
  190.7390  177.3190  142.5110 C   0  0  0  0  0  2  0  0  0  0  0  0
  189.8170  177.2590  137.4330 C   0  0  0  0  0  3  0  0  0  0  0  0
  188.6600  178.0650  139.3630 C   0  0  0  0  0  0  0  0  0  0  0  0
  188.7790  177.8520  137.9500 N   0  0  0  0  0  0  0  0  0  0  0  0
  190.8940  176.9330  139.6080 C   0  0  0  0  0  3  0  0  0  0  0  0
  189.7430  177.5980  140.2490 C   0  0  0  0  0  0  0  0  0  0  0  0
  190.9270  176.7750  138.2810 C   0  0  0  0  0  3  0  0  0  0  0  0
  187.6400  178.6420  139.8260 O   0  0  0  0  0  0  0  0  0  0  0  0
  189.6740  177.7740  141.5710 C   0  0  0  0  0  3  0  0  0  0  0  0
  2  1  1  0  0  0  0
  2  4  1  0  0  0  0
  3  2  2  0  0  0  0
  5  1  2  0  0  0  0
  6  7  2  0  0  0  0
  6  3  1  0  0  0  0
  7  5  1  0  0  0  0
  9 11  2  0  0  0  0
 10 12  2  0  0  0  0
 10  9  1  0  0  0  0
 11  8  1  0  0  0  0
 11  7  1  0  0  0  0
 12 13  1  0  0  0  0
 13  8  2  0  0  0  0
 14 12  1  0  0  0  0
 15 14  1  0  0  0  0
 16 15  2  0  0  0  0
 17 18  1  0  0  0  0
 19 21  1  0  0  0  0
 19 17  1  0  0  0  0
 20 18  1  0  0  0  0
 20 15  1  0  0  0  0
 21 20  1  0  0  0  0
 22  3  1  0  0  0  0
 22 25  1  0  0  0  0
 23 22  2  0  0  0  0
 25 24  3  0  0  0  0
 26 23  1  0  0  0  0
 27 26  1  0  0  0  0
 28 30  2  0  0  0  0
 28 33  1  0  0  0  0
 29 34  2  0  0  0  0
 29 32  1  0  0  0  0
 30 29  1  0  0  0  0
 31 32  1  0  0  0  0
 32 35  2  0  0  0  0
 33 31  2  0  0  0  0
 35 27  1  0  0  0  0
M  END
>  <MODEL>
1

>  <REMARK>
 VINA RESULT:     -10.2      0.000      0.000
  Name = 
  8 active torsions:
  status: ('A' for Active; 'I' for Inactive)
    1  A    between atoms: C_2  and  O_26
    2  A    between atoms: C_8  and  C_11
    3  A    between atoms: C_8  and  C_21
    4  A    between atoms: C_14  and  C_16
    5  A    between atoms: C_14  and  C_31
    6  A    between atoms: O_26  and  C_34
    7  A    between atoms: C_28  and  C_33
    8  A    between atoms: C_31  and  C_32
                            x       y       z     vdW  Elec       q    Type
                         _______ _______ _______ _____ _____    ______ ____

>  <TORSDO>
F 8

$$$$
=
 OpenBabel10222418053D

 35 38  0  0  0  0  0  0  0  0999 V2000
  191.4880  176.3510  145.0210 C   0  0  0  0  0  3  0  0  0  0  0  0
  190.6470  176.7110  146.0770 C   0  0  0  0  0  0  0  0  0  0  0  0
  189.4440  177.3980  145.8190 C   0  0  0  0  0  0  0  0  0  0  0  0
  191.0280  176.3940  147.3760 O   0  0  0  0  0  1  0  0  0  0  0  0
  191.1440  176.6680  143.7050 C   0  0  0  0  0  3  0  0  0  0  0  0
  189.1110  177.7050  144.4910 C   0  0  0  0  0  3  0  0  0  0  0  0
  189.9520  177.3510  143.4250 C   0  0  0  0  0  0  0  0  0  0  0  0
  190.4300  177.3460  140.9630 C   0  0  0  0  0  3  0  0  0  0  0  0
  188.3820  178.3590  141.7500 C   0  0  0  0  0  3  0  0  0  0  0  0
  188.0340  178.6770  140.4340 C   0  0  0  0  0  3  0  0  0  0  0  0
  189.5840  177.6890  142.0300 C   0  0  0  0  0  0  0  0  0  0  0  0
  188.8770  178.3320  139.3730 C   0  0  0  0  0  0  0  0  0  0  0  0
  190.0800  177.6630  139.6490 C   0  0  0  0  0  3  0  0  0  0  0  0
  188.4800  178.6710  138.0710 O   0  0  0  0  0  0  0  0  0  0  0  0
  188.1730  177.7750  137.0330 C   0  0  0  0  0  0  0  0  0  0  0  0
  189.0790  177.2960  136.2980 O   0  0  0  0  0  0  0  0  0  0  0  0
  184.4820  177.1450  137.3240 C   0  0  0  0  0  2  0  0  0  0  0  0
  185.7350  177.9450  137.6170 C   0  0  0  0  0  2  0  0  0  0  0  0
  184.6200  176.4600  135.6470 S   0  0  0  0  0  0  0  0  0  0  0  0
  186.8100  177.3990  136.8120 N   0  0  0  0  0  0  0  0  0  0  0  0
  186.4320  176.4680  135.7640 C   0  0  0  0  0  2  0  0  0  0  0  0
  188.5090  177.7620  146.9140 C   0  0  0  0  0  0  0  0  0  0  0  0
  187.1790  177.7510  146.7750 C   0  0  0  0  0  3  0  0  0  0  0  0
  189.4600  178.4100  149.2420 N   0  0  0  0  0  0  0  0  0  0  0  0
  189.0360  178.1220  148.2040 C   0  0  0  0  0  0  0  0  0  0  0  0
  186.4730  177.4280  145.5010 C   0  0  0  0  0  2  0  0  0  0  0  0
  185.5250  178.5540  145.1480 C   0  0  0  0  0  2  0  0  0  0  0  0
  181.3150  178.8710  142.1800 C   0  0  0  0  0  3  0  0  0  0  0  0
  183.6490  178.5240  141.7920 C   0  0  0  0  0  0  0  0  0  0  0  0
  182.2940  178.6700  141.3440 N   0  0  0  0  0  0  0  0  0  0  0  0
  182.7870  178.8350  144.1360 C   0  0  0  0  0  3  0  0  0  0  0  0
  183.9350  178.6050  143.2370 C   0  0  0  0  0  0  0  0  0  0  0  0
  181.5540  178.9590  143.6360 C   0  0  0  0  0  3  0  0  0  0  0  0
  184.5690  178.3320  140.9530 O   0  0  0  0  0  0  0  0  0  0  0  0
  185.1810  178.4760  143.6990 C   0  0  0  0  0  3  0  0  0  0  0  0
  1  2  1  0  0  0  0
  2  4  1  0  0  0  0
  3  2  2  0  0  0  0
  3 22  1  0  0  0  0
  5  1  2  0  0  0  0
  6  3  1  0  0  0  0
  7  5  1  0  0  0  0
  7  6  2  0  0  0  0
  8 11  1  0  0  0  0
  9 11  2  0  0  0  0
 10  9  1  0  0  0  0
 11  7  1  0  0  0  0
 12 13  1  0  0  0  0
 12 10  2  0  0  0  0
 13  8  2  0  0  0  0
 14 12  1  0  0  0  0
 15 14  1  0  0  0  0
 16 15  2  0  0  0  0
 17 18  1  0  0  0  0
 19 21  1  0  0  0  0
 19 17  1  0  0  0  0
 20 15  1  0  0  0  0
 20 18  1  0  0  0  0
 21 20  1  0  0  0  0
 22 25  1  0  0  0  0
 23 22  2  0  0  0  0
 25 24  3  0  0  0  0
 26 23  1  0  0  0  0
 27 26  1  0  0  0  0
 28 33  1  0  0  0  0
 29 32  1  0  0  0  0
 30 29  1  0  0  0  0
 30 28  2  0  0  0  0
 32 35  2  0  0  0  0
 32 31  1  0  0  0  0
 33 31  2  0  0  0  0
 34 29  2  0  0  0  0
 35 27  1  0  0  0  0
M  END
>  <MODEL>
2

>  <REMARK>
 VINA RESULT:      -9.8      1.831      5.410
  Name = 
  8 active torsions:
  status: ('A' for Active; 'I' for Inactive)
    1  A    between atoms: C_2  and  O_26
    2  A    between atoms: C_8  and  C_11
    3  A    between atoms: C_8  and  C_21
    4  A    between atoms: C_14  and  C_16
    5  A    between atoms: C_14  and  C_31
    6  A    between atoms: O_26  and  C_34
    7  A    between atoms: C_28  and  C_33
    8  A    between atoms: C_31  and  C_32
                            x       y       z     vdW  Elec       q    Type
                         _______ _______ _______ _____ _____    ______ ____

>  <TORSDO>
F 8

$$$$
=
 OpenBabel10222418053D

 35 38  0  0  0  0  0  0  0  0999 V2000
  187.2880  178.2360  147.7340 C   0  0  0  0  0  3  0  0  0  0  0  0
  188.4830  177.7650  147.1860 C   0  0  0  0  0  0  0  0  0  0  0  0
  188.5730  177.5070  145.8040 C   0  0  0  0  0  0  0  0  0  0  0  0
  189.5670  177.5430  148.0290 O   0  0  0  0  0  1  0  0  0  0  0  0
  186.1750  178.4540  146.9190 C   0  0  0  0  0  3  0  0  0  0  0  0
  187.4470  177.7360  144.9980 C   0  0  0  0  0  3  0  0  0  0  0  0
  186.2410  178.2050  145.5410 C   0  0  0  0  0  0  0  0  0  0  0  0
  185.1490  178.2550  143.2840 C   0  0  0  0  0  3  0  0  0  0  0  0
  183.8370  178.8410  145.2270 C   0  0  0  0  0  3  0  0  0  0  0  0
  182.7240  179.0580  144.4090 C   0  0  0  0  0  3  0  0  0  0  0  0
  185.0620  178.4360  144.6730 C   0  0  0  0  0  0  0  0  0  0  0  0
  182.8110  178.8740  143.0260 C   0  0  0  0  0  0  0  0  0  0  0  0
  184.0350  178.4710  142.4690 C   0  0  0  0  0  3  0  0  0  0  0  0
  181.6650  179.1020  142.2510 O   0  0  0  0  0  0  0  0  0  0  0  0
  180.6350  178.1810  141.9950 C   0  0  0  0  0  0  0  0  0  0  0  0
  179.7480  177.9420  142.8590 O   0  0  0  0  0  0  0  0  0  0  0  0
  181.1250  177.1100  138.4290 C   0  0  0  0  0  2  0  0  0  0  0  0
  181.6080  177.7360  139.7210 C   0  0  0  0  0  2  0  0  0  0  0  0
  179.9950  175.7480  138.8420 S   0  0  0  0  0  0  0  0  0  0  0  0
  180.5930  177.5100  140.7320 N   0  0  0  0  0  0  0  0  0  0  0  0
  179.5470  176.5570  140.4050 C   0  0  0  0  0  2  0  0  0  0  0  0
  189.8390  177.0420  145.1820 C   0  0  0  0  0  0  0  0  0  0  0  0
  189.9710  176.8190  143.8700 C   0  0  0  0  0  3  0  0  0  0  0  0
  191.9340  176.6800  146.6720 N   0  0  0  0  0  0  0  0  0  0  0  0
  191.0000  176.8410  146.0080 C   0  0  0  0  0  0  0  0  0  0  0  0
  188.8630  176.9530  142.8810 C   0  0  0  0  0  2  0  0  0  0  0  0
  189.1900  178.0580  141.9000 C   0  0  0  0  0  2  0  0  0  0  0  0
  188.4340  178.0160  136.7950 C   0  0  0  0  0  3  0  0  0  0  0  0
  187.0470  178.3240  138.7180 C   0  0  0  0  0  0  0  0  0  0  0  0
  187.2540  178.2380  137.3020 N   0  0  0  0  0  0  0  0  0  0  0  0
  189.5140  177.9050  138.9900 C   0  0  0  0  0  3  0  0  0  0  0  0
  188.2030  178.1540  139.6190 C   0  0  0  0  0  0  0  0  0  0  0  0
  189.6210  177.8410  137.6590 C   0  0  0  0  0  3  0  0  0  0  0  0
  185.8910  178.5380  139.1710 O   0  0  0  0  0  0  0  0  0  0  0  0
  188.0560  178.2250  140.9450 C   0  0  0  0  0  3  0  0  0  0  0  0
  2  1  1  0  0  0  0
  2  4  1  0  0  0  0
  3  2  2  0  0  0  0
  5  1  2  0  0  0  0
  6  7  2  0  0  0  0
  6  3  1  0  0  0  0
  7  5  1  0  0  0  0
  8 11  1  0  0  0  0
 10  9  1  0  0  0  0
 11  9  2  0  0  0  0
 11  7  1  0  0  0  0
 12 10  2  0  0  0  0
 13 12  1  0  0  0  0
 13  8  2  0  0  0  0
 14 12  1  0  0  0  0
 15 14  1  0  0  0  0
 15 16  2  0  0  0  0
 17 19  1  0  0  0  0
 17 18  1  0  0  0  0
 18 20  1  0  0  0  0
 19 21  1  0  0  0  0
 20 15  1  0  0  0  0
 21 20  1  0  0  0  0
 22  3  1  0  0  0  0
 22 25  1  0  0  0  0
 23 22  2  0  0  0  0
 25 24  3  0  0  0  0
 26 23  1  0  0  0  0
 27 26  1  0  0  0  0
 28 30  2  0  0  0  0
 28 33  1  0  0  0  0
 29 34  2  0  0  0  0
 29 32  1  0  0  0  0
 30 29  1  0  0  0  0
 31 32  1  0  0  0  0
 32 35  2  0  0  0  0
 33 31  2  0  0  0  0
 35 27  1  0  0  0  0
M  END
>  <MODEL>
3

>  <REMARK>
 VINA RESULT:      -9.7      1.735      2.281
  Name = 
  8 active torsions:
  status: ('A' for Active; 'I' for Inactive)
    1  A    between atoms: C_2  and  O_26
    2  A    between atoms: C_8  and  C_11
    3  A    between atoms: C_8  and  C_21
    4  A    between atoms: C_14  and  C_16
    5  A    between atoms: C_14  and  C_31
    6  A    between atoms: O_26  and  C_34
    7  A    between atoms: C_28  and  C_33
    8  A    between atoms: C_31  and  C_32
                            x       y       z     vdW  Elec       q    Type
                         _______ _______ _______ _____ _____    ______ ____

>  <TORSDO>
F 8

$$$$
=
 OpenBabel10222418053D

 35 38  0  0  0  0  0  0  0  0999 V2000
  188.6380  177.4820  147.1670 C   0  0  0  0  0  3  0  0  0  0  0  0
  189.6340  177.1320  146.2530 C   0  0  0  0  0  0  0  0  0  0  0  0
  189.3610  177.1470  144.8710 C   0  0  0  0  0  0  0  0  0  0  0  0
  190.8830  176.7540  146.7330 O   0  0  0  0  0  1  0  0  0  0  0  0
  187.3670  177.8500  146.7200 C   0  0  0  0  0  3  0  0  0  0  0  0
  188.0800  177.5230  144.4380 C   0  0  0  0  0  3  0  0  0  0  0  0
  187.0730  177.8720  145.3490 C   0  0  0  0  0  0  0  0  0  0  0  0
  185.4250  178.2680  143.5010 C   0  0  0  0  0  3  0  0  0  0  0  0
  184.7250  178.6350  145.7840 C   0  0  0  0  0  3  0  0  0  0  0  0
  183.4530  179.0030  145.3340 C   0  0  0  0  0  3  0  0  0  0  0  0
  185.7260  178.2630  144.8720 C   0  0  0  0  0  0  0  0  0  0  0  0
  183.1550  179.0040  143.9680 C   0  0  0  0  0  0  0  0  0  0  0  0
  184.1540  178.6330  143.0530 C   0  0  0  0  0  3  0  0  0  0  0  0
  181.8630  179.3770  143.5690 O   0  0  0  0  0  0  0  0  0  0  0  0
  180.8410  178.5130  143.1410 C   0  0  0  0  0  0  0  0  0  0  0  0
  180.1090  177.9090  143.9710 O   0  0  0  0  0  0  0  0  0  0  0  0
  180.8060  178.8000  139.3960 C   0  0  0  0  0  2  0  0  0  0  0  0
  181.4610  178.9790  140.7500 C   0  0  0  0  0  2  0  0  0  0  0  0
  179.8060  177.2840  139.4410 S   0  0  0  0  0  0  0  0  0  0  0  0
  180.6270  178.3230  141.7390 N   0  0  0  0  0  0  0  0  0  0  0  0
  179.5790  177.4540  141.2340 C   0  0  0  0  0  2  0  0  0  0  0  0
  190.4080  176.8160  143.8700 C   0  0  0  0  0  0  0  0  0  0  0  0
  190.5690  177.4950  142.7290 C   0  0  0  0  0  3  0  0  0  0  0  0
  192.0550  174.8660  144.3420 N   0  0  0  0  0  0  0  0  0  0  0  0
  191.3210  175.7350  144.1320 C   0  0  0  0  0  0  0  0  0  0  0  0
  189.6950  178.6230  142.2940 C   0  0  0  0  0  2  0  0  0  0  0  0
  188.7900  178.1590  141.1730 C   0  0  0  0  0  2  0  0  0  0  0  0
  189.6900  177.3960  136.1490 C   0  0  0  0  0  3  0  0  0  0  0  0
  190.3080  176.2890  138.1750 C   0  0  0  0  0  0  0  0  0  0  0  0
  190.3190  176.4260  136.7480 N   0  0  0  0  0  0  0  0  0  0  0  0
  188.8690  178.3530  138.2480 C   0  0  0  0  0  3  0  0  0  0  0  0
  189.5630  177.2750  138.9800 C   0  0  0  0  0  0  0  0  0  0  0  0
  188.9300  178.4080  136.9140 C   0  0  0  0  0  3  0  0  0  0  0  0
  190.9300  175.3370  138.7180 O   0  0  0  0  0  0  0  0  0  0  0  0
  189.5250  177.1870  140.3120 C   0  0  0  0  0  3  0  0  0  0  0  0
  2  4  1  0  0  0  0
  2  1  2  0  0  0  0
  3  2  1  0  0  0  0
  5  1  1  0  0  0  0
  6  3  2  0  0  0  0
  6  7  1  0  0  0  0
  7  5  2  0  0  0  0
  8 11  1  0  0  0  0
 10  9  1  0  0  0  0
 11  7  1  0  0  0  0
 11  9  2  0  0  0  0
 12 10  2  0  0  0  0
 13  8  2  0  0  0  0
 13 12  1  0  0  0  0
 14 12  1  0  0  0  0
 15 14  1  0  0  0  0
 15 16  2  0  0  0  0
 17 19  1  0  0  0  0
 17 18  1  0  0  0  0
 18 20  1  0  0  0  0
 19 21  1  0  0  0  0
 20 15  1  0  0  0  0
 21 20  1  0  0  0  0
 22 25  1  0  0  0  0
 22  3  1  0  0  0  0
 23 22  2  0  0  0  0
 25 24  3  0  0  0  0
 26 23  1  0  0  0  0
 27 26  1  0  0  0  0
 28 30  2  0  0  0  0
 28 33  1  0  0  0  0
 29 34  2  0  0  0  0
 29 32  1  0  0  0  0
 30 29  1  0  0  0  0
 31 32  1  0  0  0  0
 32 35  2  0  0  0  0
 33 31  2  0  0  0  0
 35 27  1  0  0  0  0
M  END
>  <MODEL>
4

>  <REMARK>
 VINA RESULT:      -9.4      2.212      2.871
  Name = 
  8 active torsions:
  status: ('A' for Active; 'I' for Inactive)
    1  A    between atoms: C_2  and  O_26
    2  A    between atoms: C_8  and  C_11
    3  A    between atoms: C_8  and  C_21
    4  A    between atoms: C_14  and  C_16
    5  A    between atoms: C_14  and  C_31
    6  A    between atoms: O_26  and  C_34
    7  A    between atoms: C_28  and  C_33
    8  A    between atoms: C_31  and  C_32
                            x       y       z     vdW  Elec       q    Type
                         _______ _______ _______ _____ _____    ______ ____

>  <TORSDO>
F 8

$$$$
=
 OpenBabel10222418053D

 35 38  0  0  0  0  0  0  0  0999 V2000
  181.8390  179.3840  139.8350 C   0  0  0  0  0  3  0  0  0  0  0  0
  181.4120  179.2280  141.1560 C   0  0  0  0  0  0  0  0  0  0  0  0
  182.3340  178.8620  142.1570 C   0  0  0  0  0  0  0  0  0  0  0  0
  180.0680  179.4210  141.4550 O   0  0  0  0  0  1  0  0  0  0  0  0
  183.1780  179.1810  139.4970 C   0  0  0  0  0  3  0  0  0  0  0  0
  183.6770  178.6660  141.8020 C   0  0  0  0  0  3  0  0  0  0  0  0
  184.1130  178.8180  140.4770 C   0  0  0  0  0  0  0  0  0  0  0  0
  185.9080  178.3180  138.7990 C   0  0  0  0  0  3  0  0  0  0  0  0
  186.5370  178.6770  141.1040 C   0  0  0  0  0  3  0  0  0  0  0  0
  187.8790  178.4740  140.7690 C   0  0  0  0  0  3  0  0  0  0  0  0
  185.5360  178.6020  140.1220 C   0  0  0  0  0  0  0  0  0  0  0  0
  188.2480  178.1940  139.4500 C   0  0  0  0  0  0  0  0  0  0  0  0
  187.2500  178.1170  138.4660 C   0  0  0  0  0  3  0  0  0  0  0  0
  189.6080  178.0030  139.1660 O   0  0  0  0  0  0  0  0  0  0  0  0
  190.2830  176.7710  139.1120 C   0  0  0  0  0  0  0  0  0  0  0  0
  190.6100  176.1620  140.1670 O   0  0  0  0  0  0  0  0  0  0  0  0
  190.4690  175.9030  135.4630 C   0  0  0  0  0  2  0  0  0  0  0  0
  190.2640  176.8810  136.6010 C   0  0  0  0  0  2  0  0  0  0  0  0
  191.7220  174.6890  135.9710 S   0  0  0  0  0  0  0  0  0  0  0  0
  190.5990  176.2010  137.8380 N   0  0  0  0  0  0  0  0  0  0  0  0
  191.2830  174.9260  137.7170 C   0  0  0  0  0  2  0  0  0  0  0  0
  181.9210  178.7230  143.5780 C   0  0  0  0  0  0  0  0  0  0  0  0
  182.7360  178.9860  144.6050 C   0  0  0  0  0  3  0  0  0  0  0  0
  179.4960  177.9850  144.1370 N   0  0  0  0  0  0  0  0  0  0  0  0
  180.5770  178.3140  143.8870 C   0  0  0  0  0  0  0  0  0  0  0  0
  184.1640  179.3940  144.4590 C   0  0  0  0  0  2  0  0  0  0  0  0
  184.9740  178.8190  145.6000 C   0  0  0  0  0  2  0  0  0  0  0  0
  189.4990  177.1210  147.4100 C   0  0  0  0  0  3  0  0  0  0  0  0
  188.4810  177.2790  145.2530 C   0  0  0  0  0  0  0  0  0  0  0  0
  189.5650  176.9270  146.1240 N   0  0  0  0  0  0  0  0  0  0  0  0
  187.2450  178.0700  147.2980 C   0  0  0  0  0  3  0  0  0  0  0  0
  187.2630  177.8740  145.8350 C   0  0  0  0  0  0  0  0  0  0  0  0
  188.2990  177.7150  148.0380 C   0  0  0  0  0  3  0  0  0  0  0  0
  188.5810  177.0760  144.0140 O   0  0  0  0  0  0  0  0  0  0  0  0
  186.2290  178.2170  145.0630 C   0  0  0  0  0  3  0  0  0  0  0  0
  1  2  1  0  0  0  0
  2  4  1  0  0  0  0
  2  3  2  0  0  0  0
  3 22  1  0  0  0  0
  5  1  2  0  0  0  0
  5  7  1  0  0  0  0
  6  3  1  0  0  0  0
  7  6  2  0  0  0  0
  8 11  1  0  0  0  0
 10  9  1  0  0  0  0
 11  7  1  0  0  0  0
 11  9  2  0  0  0  0
 12 10  2  0  0  0  0
 13  8  2  0  0  0  0
 13 12  1  0  0  0  0
 14 12  1  0  0  0  0
 15 14  1  0  0  0  0
 15 16  2  0  0  0  0
 17 19  1  0  0  0  0
 17 18  1  0  0  0  0
 18 20  1  0  0  0  0
 19 21  1  0  0  0  0
 20 15  1  0  0  0  0
 21 20  1  0  0  0  0
 22 25  1  0  0  0  0
 22 23  2  0  0  0  0
 25 24  3  0  0  0  0
 26 23  1  0  0  0  0
 26 27  1  0  0  0  0
 28 33  1  0  0  0  0
 29 32  1  0  0  0  0
 29 30  1  0  0  0  0
 30 28  2  0  0  0  0
 31 33  2  0  0  0  0
 32 31  1  0  0  0  0
 34 29  2  0  0  0  0
 35 27  1  0  0  0  0
 35 32  2  0  0  0  0
M  END
>  <MODEL>
5

>  <REMARK>
 VINA RESULT:      -9.1      2.842      8.003
  Name = 
  8 active torsions:
  status: ('A' for Active; 'I' for Inactive)
    1  A    between atoms: C_2  and  O_26
    2  A    between atoms: C_8  and  C_11
    3  A    between atoms: C_8  and  C_21
    4  A    between atoms: C_14  and  C_16
    5  A    between atoms: C_14  and  C_31
    6  A    between atoms: O_26  and  C_34
    7  A    between atoms: C_28  and  C_33
    8  A    between atoms: C_31  and  C_32
                            x       y       z     vdW  Elec       q    Type
                         _______ _______ _______ _____ _____    ______ ____

>  <TORSDO>
F 8

$$$$
=
 OpenBabel10222418053D

 35 38  0  0  0  0  0  0  0  0999 V2000
  180.9960  178.9680  142.8900 C   0  0  0  0  0  3  0  0  0  0  0  0
  181.1840  178.6440  141.5440 C   0  0  0  0  0  0  0  0  0  0  0  0
  182.4660  178.2910  141.0760 C   0  0  0  0  0  0  0  0  0  0  0  0
  180.0950  178.6940  140.6830 O   0  0  0  0  0  1  0  0  0  0  0  0
  182.0720  178.9430  143.7800 C   0  0  0  0  0  3  0  0  0  0  0  0
  183.5360  178.2670  141.9830 C   0  0  0  0  0  3  0  0  0  0  0  0
  183.3560  178.5940  143.3350 C   0  0  0  0  0  0  0  0  0  0  0  0
  184.3260  178.9150  145.6260 C   0  0  0  0  0  3  0  0  0  0  0  0
  185.7800  178.1940  143.8350 C   0  0  0  0  0  3  0  0  0  0  0  0
  186.8590  178.1680  144.7230 C   0  0  0  0  0  3  0  0  0  0  0  0
  184.5000  178.5670  144.2770 C   0  0  0  0  0  0  0  0  0  0  0  0
  186.6830  178.5110  146.0670 C   0  0  0  0  0  0  0  0  0  0  0  0
  185.4060  178.8870  146.5120 C   0  0  0  0  0  3  0  0  0  0  0  0
  187.7980  178.4650  146.9170 O   0  0  0  0  0  0  0  0  0  0  0  0
  188.4320  177.3070  147.3980 C   0  0  0  0  0  0  0  0  0  0  0  0
  187.8930  176.5900  148.2830 O   0  0  0  0  0  0  0  0  0  0  0  0
  191.5420  176.9470  145.3230 C   0  0  0  0  0  2  0  0  0  0  0  0
  190.3770  177.7470  145.8670 C   0  0  0  0  0  2  0  0  0  0  0  0
  192.0790  175.7760  146.6040 S   0  0  0  0  0  0  0  0  0  0  0  0
  189.7090  176.9370  146.8680 N   0  0  0  0  0  0  0  0  0  0  0  0
  190.4080  175.7450  147.3150 C   0  0  0  0  0  2  0  0  0  0  0  0
  182.6940  177.9050  139.6590 C   0  0  0  0  0  0  0  0  0  0  0  0
  182.9440  178.7920  138.6910 C   0  0  0  0  0  3  0  0  0  0  0  0
  182.6640  175.3940  139.0010 N   0  0  0  0  0  0  0  0  0  0  0  0
  182.6780  176.5130  139.2940 C   0  0  0  0  0  0  0  0  0  0  0  0
  182.9700  180.2700  138.8940 C   0  0  0  0  0  2  0  0  0  0  0  0
  181.6300  180.8580  138.5110 C   0  0  0  0  0  2  0  0  0  0  0  0
  180.0650  184.2330  134.9340 C   0  0  0  0  0  3  0  0  0  0  0  0
  181.4200  184.3440  136.9000 C   0  0  0  0  0  0  0  0  0  0  0  0
  180.7940  184.9350  135.7530 N   0  0  0  0  0  0  0  0  0  0  0  0
  180.3940  182.1580  136.1910 C   0  0  0  0  0  3  0  0  0  0  0  0
  181.2300  182.9030  137.1520 C   0  0  0  0  0  0  0  0  0  0  0  0
  179.8470  182.7860  135.1460 C   0  0  0  0  0  3  0  0  0  0  0  0
  182.1170  185.0560  137.6710 O   0  0  0  0  0  0  0  0  0  0  0  0
  181.7930  182.3100  138.2080 C   0  0  0  0  0  3  0  0  0  0  0  0
  1  5  1  0  0  0  0
  2  1  2  0  0  0  0
  3  2  1  0  0  0  0
  3  6  2  0  0  0  0
  4  2  1  0  0  0  0
  6  7  1  0  0  0  0
  7  5  2  0  0  0  0
  7 11  1  0  0  0  0
  8 13  1  0  0  0  0
  9 11  1  0  0  0  0
  9 10  2  0  0  0  0
 10 12  1  0  0  0  0
 11  8  2  0  0  0  0
 12 13  2  0  0  0  0
 12 14  1  0  0  0  0
 14 15  1  0  0  0  0
 15 16  2  0  0  0  0
 17 18  1  0  0  0  0
 17 19  1  0  0  0  0
 18 20  1  0  0  0  0
 19 21  1  0  0  0  0
 20 21  1  0  0  0  0
 20 15  1  0  0  0  0
 22  3  1  0  0  0  0
 23 26  1  0  0  0  0
 23 22  2  0  0  0  0
 24 25  3  0  0  0  0
 25 22  1  0  0  0  0
 27 26  1  0  0  0  0
 28 33  1  0  0  0  0
 28 30  2  0  0  0  0
 29 32  1  0  0  0  0
 29 34  2  0  0  0  0
 30 29  1  0  0  0  0
 31 32  1  0  0  0  0
 32 35  2  0  0  0  0
 33 31  2  0  0  0  0
 35 27  1  0  0  0  0
M  END
>  <MODEL>
6

>  <REMARK>
 VINA RESULT:      -9.1      4.187      9.409
  Name = 
  8 active torsions:
  status: ('A' for Active; 'I' for Inactive)
    1  A    between atoms: C_2  and  O_26
    2  A    between atoms: C_8  and  C_11
    3  A    between atoms: C_8  and  C_21
    4  A    between atoms: C_14  and  C_16
    5  A    between atoms: C_14  and  C_31
    6  A    between atoms: O_26  and  C_34
    7  A    between atoms: C_28  and  C_33
    8  A    between atoms: C_31  and  C_32
                            x       y       z     vdW  Elec       q    Type
                         _______ _______ _______ _____ _____    ______ ____

>  <TORSDO>
F 8

$$$$
=
 OpenBabel10222418053D

 35 38  0  0  0  0  0  0  0  0999 V2000
  185.9220  178.8790  147.1190 C   0  0  0  0  0  3  0  0  0  0  0  0
  187.1620  178.2760  146.8950 C   0  0  0  0  0  0  0  0  0  0  0  0
  187.4720  177.7480  145.6250 C   0  0  0  0  0  0  0  0  0  0  0  0
  188.0680  178.1920  147.9460 O   0  0  0  0  0  1  0  0  0  0  0  0
  184.9830  178.9650  146.0900 C   0  0  0  0  0  3  0  0  0  0  0  0
  186.5180  177.8470  144.6000 C   0  0  0  0  0  3  0  0  0  0  0  0
  185.2690  178.4480  144.8180 C   0  0  0  0  0  0  0  0  0  0  0  0
  182.9490  178.9160  143.9900 C   0  0  0  0  0  3  0  0  0  0  0  0
  184.6390  178.2440  142.4000 C   0  0  0  0  0  3  0  0  0  0  0  0
  183.7010  178.3300  141.3670 C   0  0  0  0  0  3  0  0  0  0  0  0
  184.2740  178.5380  143.7240 C   0  0  0  0  0  0  0  0  0  0  0  0
  182.3830  178.7110  141.6340 C   0  0  0  0  0  0  0  0  0  0  0  0
  182.0130  179.0030  142.9560 C   0  0  0  0  0  3  0  0  0  0  0  0
  181.4820  178.7840  140.5620 O   0  0  0  0  0  0  0  0  0  0  0  0
  181.7200  179.3820  139.3120 C   0  0  0  0  0  0  0  0  0  0  0  0
  182.5510  178.8880  138.5030 O   0  0  0  0  0  0  0  0  0  0  0  0
  179.2750  182.2250  139.0920 C   0  0  0  0  0  2  0  0  0  0  0  0
  180.0550  181.1820  139.8660 C   0  0  0  0  0  2  0  0  0  0  0  0
  180.3100  182.8080  137.7180 S   0  0  0  0  0  0  0  0  0  0  0  0
  181.0010  180.5670  138.9550 N   0  0  0  0  0  0  0  0  0  0  0  0
  181.1940  181.2230  137.6740 C   0  0  0  0  0  2  0  0  0  0  0  0
  188.7940  177.1340  145.3420 C   0  0  0  0  0  0  0  0  0  0  0  0
  189.1980  176.8020  144.1110 C   0  0  0  0  0  3  0  0  0  0  0  0
  190.4510  176.7130  147.2970 N   0  0  0  0  0  0  0  0  0  0  0  0
  189.7120  176.9010  146.4250 C   0  0  0  0  0  0  0  0  0  0  0  0
  188.3610  176.9530  142.8850 C   0  0  0  0  0  2  0  0  0  0  0  0
  189.0390  177.9040  141.9230 C   0  0  0  0  0  2  0  0  0  0  0  0
  188.3690  177.1060  136.8690 C   0  0  0  0  0  3  0  0  0  0  0  0
  189.9220  176.3470  138.5200 C   0  0  0  0  0  0  0  0  0  0  0  0
  189.4120  176.3910  137.1800 N   0  0  0  0  0  0  0  0  0  0  0  0
  188.0680  177.9250  139.1560 C   0  0  0  0  0  3  0  0  0  0  0  0
  189.2440  177.1340  139.5670 C   0  0  0  0  0  0  0  0  0  0  0  0
  187.6570  177.9100  137.8850 C   0  0  0  0  0  3  0  0  0  0  0  0
  190.9350  175.6450  138.7820 O   0  0  0  0  0  0  0  0  0  0  0  0
  189.6850  177.1240  140.8280 C   0  0  0  0  0  3  0  0  0  0  0  0
  2  1  1  0  0  0  0
  2  4  1  0  0  0  0
  3  2  2  0  0  0  0
  5  1  2  0  0  0  0
  6  7  2  0  0  0  0
  6  3  1  0  0  0  0
  7  5  1  0  0  0  0
  9 11  2  0  0  0  0
 10 12  2  0  0  0  0
 10  9  1  0  0  0  0
 11  8  1  0  0  0  0
 11  7  1  0  0  0  0
 12 13  1  0  0  0  0
 13  8  2  0  0  0  0
 14 12  1  0  0  0  0
 15 14  1  0  0  0  0
 16 15  2  0  0  0  0
 17 18  1  0  0  0  0
 19 17  1  0  0  0  0
 20 15  1  0  0  0  0
 20 18  1  0  0  0  0
 21 19  1  0  0  0  0
 21 20  1  0  0  0  0
 22  3  1  0  0  0  0
 22 25  1  0  0  0  0
 23 22  2  0  0  0  0
 25 24  3  0  0  0  0
 26 23  1  0  0  0  0
 27 26  1  0  0  0  0
 28 30  2  0  0  0  0
 28 33  1  0  0  0  0
 29 34  2  0  0  0  0
 29 32  1  0  0  0  0
 30 29  1  0  0  0  0
 31 32  1  0  0  0  0
 32 35  2  0  0  0  0
 33 31  2  0  0  0  0
 35 27  1  0  0  0  0
M  END
>  <MODEL>
7

>  <REMARK>
 VINA RESULT:      -9.0      2.432      3.030
  Name = 
  8 active torsions:
  status: ('A' for Active; 'I' for Inactive)
    1  A    between atoms: C_2  and  O_26
    2  A    between atoms: C_8  and  C_11
    3  A    between atoms: C_8  and  C_21
    4  A    between atoms: C_14  and  C_16
    5  A    between atoms: C_14  and  C_31
    6  A    between atoms: O_26  and  C_34
    7  A    between atoms: C_28  and  C_33
    8  A    between atoms: C_31  and  C_32
                            x       y       z     vdW  Elec       q    Type
                         _______ _______ _______ _____ _____    ______ ____

>  <TORSDO>
F 8

$$$$
=
 OpenBabel10222418053D

 35 38  0  0  0  0  0  0  0  0999 V2000
  191.2910  176.6660  145.3080 C   0  0  0  0  0  3  0  0  0  0  0  0
  190.2860  176.9890  146.2230 C   0  0  0  0  0  0  0  0  0  0  0  0
  189.0540  177.5010  145.7680 C   0  0  0  0  0  0  0  0  0  0  0  0
  190.5320  176.8130  147.5800 O   0  0  0  0  0  1  0  0  0  0  0  0
  191.0840  176.8470  143.9390 C   0  0  0  0  0  3  0  0  0  0  0  0
  188.8600  177.6720  144.3890 C   0  0  0  0  0  3  0  0  0  0  0  0
  189.8660  177.3540  143.4640 C   0  0  0  0  0  0  0  0  0  0  0  0
  190.6020  177.1260  141.0770 C   0  0  0  0  0  3  0  0  0  0  0  0
  188.4660  178.1540  141.5430 C   0  0  0  0  0  3  0  0  0  0  0  0
  188.2550  178.3350  140.1730 C   0  0  0  0  0  3  0  0  0  0  0  0
  189.6420  177.5460  142.0110 C   0  0  0  0  0  0  0  0  0  0  0  0
  189.2100  177.9130  139.2450 C   0  0  0  0  0  0  0  0  0  0  0  0
  190.3890  177.3070  139.7090 C   0  0  0  0  0  3  0  0  0  0  0  0
  188.9480  178.1150  137.8820 O   0  0  0  0  0  0  0  0  0  0  0  0
  187.9500  177.4810  137.1220 C   0  0  0  0  0  0  0  0  0  0  0  0
  186.7740  177.9320  137.0880 O   0  0  0  0  0  0  0  0  0  0  0  0
  189.7050  174.7000  135.3070 C   0  0  0  0  0  2  0  0  0  0  0  0
  189.6160  175.7400  136.4040 C   0  0  0  0  0  2  0  0  0  0  0  0
  188.0350  174.0560  134.9930 S   0  0  0  0  0  0  0  0  0  0  0  0
  188.2810  176.3070  136.3730 N   0  0  0  0  0  0  0  0  0  0  0  0
  187.2980  175.6150  135.5590 C   0  0  0  0  0  2  0  0  0  0  0  0
  187.9510  177.8190  146.7110 C   0  0  0  0  0  0  0  0  0  0  0  0
  186.6660  177.8640  146.3440 C   0  0  0  0  0  3  0  0  0  0  0  0
  188.4970  178.2690  149.2090 N   0  0  0  0  0  0  0  0  0  0  0  0
  188.2540  178.0680  148.0950 C   0  0  0  0  0  0  0  0  0  0  0  0
  186.1850  177.6560  144.9470 C   0  0  0  0  0  2  0  0  0  0  0  0
  185.7080  178.9730  144.3750 C   0  0  0  0  0  2  0  0  0  0  0  0
  182.8850  178.8850  140.0550 C   0  0  0  0  0  3  0  0  0  0  0  0
  182.4190  178.7450  142.3960 C   0  0  0  0  0  0  0  0  0  0  0  0
  182.0170  178.7630  141.0190 N   0  0  0  0  0  0  0  0  0  0  0  0
  184.7890  179.0040  141.5900 C   0  0  0  0  0  3  0  0  0  0  0  0
  183.8520  178.8680  142.7220 C   0  0  0  0  0  0  0  0  0  0  0  0
  184.3310  179.0120  140.3350 C   0  0  0  0  0  3  0  0  0  0  0  0
  181.5500  178.6240  143.3010 O   0  0  0  0  0  0  0  0  0  0  0  0
  184.2710  178.8560  143.9900 C   0  0  0  0  0  3  0  0  0  0  0  0
  1  2  1  0  0  0  0
  2  4  1  0  0  0  0
  3  2  2  0  0  0  0
  3 22  1  0  0  0  0
  5  1  2  0  0  0  0
  6  3  1  0  0  0  0
  7  5  1  0  0  0  0
  7  6  2  0  0  0  0
  8 11  1  0  0  0  0
  9 11  2  0  0  0  0
 10  9  1  0  0  0  0
 11  7  1  0  0  0  0
 12 13  1  0  0  0  0
 12 10  2  0  0  0  0
 13  8  2  0  0  0  0
 14 12  1  0  0  0  0
 15 14  1  0  0  0  0
 16 15  2  0  0  0  0
 17 18  1  0  0  0  0
 19 17  1  0  0  0  0
 19 21  1  0  0  0  0
 20 18  1  0  0  0  0
 20 15  1  0  0  0  0
 21 20  1  0  0  0  0
 22 25  1  0  0  0  0
 23 22  2  0  0  0  0
 25 24  3  0  0  0  0
 26 23  1  0  0  0  0
 27 26  1  0  0  0  0
 28 33  1  0  0  0  0
 28 30  2  0  0  0  0
 29 32  1  0  0  0  0
 29 34  2  0  0  0  0
 30 29  1  0  0  0  0
 31 32  1  0  0  0  0
 32 35  2  0  0  0  0
 33 31  2  0  0  0  0
 35 27  1  0  0  0  0
M  END
>  <MODEL>
8

>  <REMARK>
 VINA RESULT:      -8.9      2.095      5.565
  Name = 
  8 active torsions:
  status: ('A' for Active; 'I' for Inactive)
    1  A    between atoms: C_2  and  O_26
    2  A    between atoms: C_8  and  C_11
    3  A    between atoms: C_8  and  C_21
    4  A    between atoms: C_14  and  C_16
    5  A    between atoms: C_14  and  C_31
    6  A    between atoms: O_26  and  C_34
    7  A    between atoms: C_28  and  C_33
    8  A    between atoms: C_31  and  C_32
                            x       y       z     vdW  Elec       q    Type
                         _______ _______ _______ _____ _____    ______ ____

>  <TORSDO>
F 8

$$$$
=
 OpenBabel10222418053D

 35 38  0  0  0  0  0  0  0  0999 V2000
  181.2310  179.1730  142.1030 C   0  0  0  0  0  3  0  0  0  0  0  0
  181.4450  178.5210  140.8860 C   0  0  0  0  0  0  0  0  0  0  0  0
  182.6690  177.8660  140.6420 C   0  0  0  0  0  0  0  0  0  0  0  0
  180.4420  178.5490  139.9240 O   0  0  0  0  0  1  0  0  0  0  0  0
  182.2240  179.1790  143.0850 C   0  0  0  0  0  3  0  0  0  0  0  0
  183.6540  177.8770  141.6410 C   0  0  0  0  0  3  0  0  0  0  0  0
  183.4490  178.5320  142.8640 C   0  0  0  0  0  0  0  0  0  0  0  0
  185.7980  178.0760  143.6130 C   0  0  0  0  0  3  0  0  0  0  0  0
  184.2280  179.0020  145.2000 C   0  0  0  0  0  3  0  0  0  0  0  0
  185.2240  179.0070  146.1810 C   0  0  0  0  0  3  0  0  0  0  0  0
  184.5040  178.5370  143.9040 C   0  0  0  0  0  0  0  0  0  0  0  0
  186.5130  178.5510  145.8890 C   0  0  0  0  0  0  0  0  0  0  0  0
  186.7920  178.0840  144.5950 C   0  0  0  0  0  3  0  0  0  0  0  0
  187.4760  178.5810  146.9080 O   0  0  0  0  0  0  0  0  0  0  0  0
  188.1780  177.4780  147.4240 C   0  0  0  0  0  0  0  0  0  0  0  0
  187.7030  176.7880  148.3660 O   0  0  0  0  0  0  0  0  0  0  0  0
  191.2240  177.1380  145.2530 C   0  0  0  0  0  2  0  0  0  0  0  0
  190.0450  177.9170  145.7990 C   0  0  0  0  0  2  0  0  0  0  0  0
  191.8570  176.0620  146.5730 S   0  0  0  0  0  0  0  0  0  0  0  0
  189.4500  177.1340  146.8660 N   0  0  0  0  0  0  0  0  0  0  0  0
  190.2170  175.9990  147.3470 C   0  0  0  0  0  2  0  0  0  0  0  0
  182.9150  177.1310  139.3740 C   0  0  0  0  0  0  0  0  0  0  0  0
  183.8810  177.4650  138.5120 C   0  0  0  0  0  3  0  0  0  0  0  0
  181.4530  175.0660  138.7910 N   0  0  0  0  0  0  0  0  0  0  0  0
  182.1050  175.9870  139.0510 C   0  0  0  0  0  0  0  0  0  0  0  0
  184.7900  178.6360  138.6820 C   0  0  0  0  0  2  0  0  0  0  0  0
  186.1910  178.2550  138.2580 C   0  0  0  0  0  2  0  0  0  0  0  0
  190.9760  176.7420  139.4610 C   0  0  0  0  0  3  0  0  0  0  0  0
  189.1750  177.7860  140.6370 C   0  0  0  0  0  0  0  0  0  0  0  0
  190.5030  177.2490  140.5640 N   0  0  0  0  0  0  0  0  0  0  0  0
  188.9170  177.1770  138.2090 C   0  0  0  0  0  3  0  0  0  0  0  0
  188.3290  177.7620  139.4290 C   0  0  0  0  0  0  0  0  0  0  0  0
  190.1650  176.6960  138.2260 C   0  0  0  0  0  3  0  0  0  0  0  0
  188.7530  178.2680  141.7220 O   0  0  0  0  0  0  0  0  0  0  0  0
  187.0870  178.2520  139.4510 C   0  0  0  0  0  3  0  0  0  0  0  0
  1  5  1  0  0  0  0
  2  1  2  0  0  0  0
  3  2  1  0  0  0  0
  3  6  2  0  0  0  0
  4  2  1  0  0  0  0
  6  7  1  0  0  0  0
  7  5  2  0  0  0  0
  7 11  1  0  0  0  0
  8 11  2  0  0  0  0
  8 13  1  0  0  0  0
  9 10  2  0  0  0  0
 11  9  1  0  0  0  0
 12 10  1  0  0  0  0
 12 14  1  0  0  0  0
 13 12  2  0  0  0  0
 14 15  1  0  0  0  0
 15 16  2  0  0  0  0
 17 18  1  0  0  0  0
 17 19  1  0  0  0  0
 18 20  1  0  0  0  0
 19 21  1  0  0  0  0
 20 21  1  0  0  0  0
 20 15  1  0  0  0  0
 22  3  1  0  0  0  0
 23 26  1  0  0  0  0
 23 22  2  0  0  0  0
 24 25  3  0  0  0  0
 25 22  1  0  0  0  0
 27 26  1  0  0  0  0
 27 35  1  0  0  0  0
 28 30  2  0  0  0  0
 29 34  2  0  0  0  0
 30 29  1  0  0  0  0
 31 33  2  0  0  0  0
 31 32  1  0  0  0  0
 32 35  2  0  0  0  0
 32 29  1  0  0  0  0
 33 28  1  0  0  0  0
M  END
>  <MODEL>
9

>  <REMARK>
 VINA RESULT:      -8.8      2.846      7.782
  Name = 
  8 active torsions:
  status: ('A' for Active; 'I' for Inactive)
    1  A    between atoms: C_2  and  O_26
    2  A    between atoms: C_8  and  C_11
    3  A    between atoms: C_8  and  C_21
    4  A    between atoms: C_14  and  C_16
    5  A    between atoms: C_14  and  C_31
    6  A    between atoms: O_26  and  C_34
    7  A    between atoms: C_28  and  C_33
    8  A    between atoms: C_31  and  C_32
                            x       y       z     vdW  Elec       q    Type
                         _______ _______ _______ _____ _____    ______ ____

>  <TORSDO>
F 8

$$$$
