=
 OpenBabel10222415363D

 40 44  0  0  1  0  0  0  0  0999 V2000
  180.4650  178.3650  137.5660 C   0  0  0  0  0  0  0  0  0  0  0  0
  181.4800  178.8240  138.5930 C   0  0  1  0  0  3  0  0  0  0  0  0
  179.2760  175.6430  136.8520 C   0  0  0  0  0  2  0  0  0  0  0  0
  183.5410  172.9140  136.4530 C   0  0  0  0  0  0  0  0  0  0  0  0
  180.6310  179.7700  141.9980 O   0  0  0  0  0  0  0  0  0  0  0  0
  182.9190  175.5360  139.0770 C   0  0  0  0  0  2  0  0  0  0  0  0
  184.4890  171.9740  135.8060 C   0  0  0  0  0  3  0  0  0  0  0  0
  180.7950  179.3190  139.7550 O   0  0  0  0  0  0  0  0  0  0  0  0
  180.2960  175.2010  137.7420 O   0  0  0  0  0  0  0  0  0  0  0  0
  182.3930  171.7860  134.8710 N   0  0  0  0  0  0  0  0  0  0  0  0
  181.2200  173.4950  136.2800 C   0  0  0  0  0  2  0  0  0  0  0  0
  182.5320  178.4530  141.3530 C   0  0  1  0  0  3  0  0  0  0  0  0
  180.8230  177.5320  136.4520 N   0  0  0  0  0  0  0  0  0  0  0  0
  183.7490  173.8190  137.4890 C   0  0  0  0  0  3  0  0  0  0  0  0
  181.2960  179.2580  141.0590 C   0  0  0  0  0  0  0  0  0  0  0  0
  181.9350  176.5240  139.2280 O   0  0  0  0  0  0  0  0  0  0  0  0
  182.5490  177.7540  138.9380 C   0  0  2  0  0  3  0  0  0  0  0  0
  183.4120  178.2140  140.1270 C   0  0  1  0  0  3  0  0  0  0  0  0
  183.6990  171.2580  134.7790 N   0  0  0  0  0  0  0  0  0  0  0  0
  182.3310  172.7640  135.8780 C   0  0  0  0  0  0  0  0  0  0  0  0
  181.3820  174.4290  137.3240 C   0  0  0  0  0  0  0  0  0  0  0  0
  179.2640  178.7290  137.6970 O   0  0  0  0  0  0  0  0  0  0  0  0
  182.6600  174.5970  137.9320 C   0  0  0  0  0  0  0  0  0  0  0  0
  179.8380  176.6440  135.8380 C   0  0  0  0  0  2  0  0  0  0  0  0
  185.6350  179.0890  140.2130 F   0  0  0  0  0  0  0  0  0  0  0  0
  184.3600  179.6570  138.4340 F   0  0  0  0  0  0  0  0  0  0  0  0
  184.3530  179.3770  139.7890 C   0  0  0  0  0  3  0  0  0  0  0  0
  182.1200  177.5500  135.9190 C   0  0  0  0  0  0  0  0  0  0  0  0
  183.2320  177.5560  135.4550 C   0  0  0  0  0  3  0  0  0  0  0  0
  182.3570  178.7180  143.8730 C   0  0  0  0  0  1  0  0  0  0  0  0
  183.2760  178.7430  142.6630 C   0  0  1  0  0  3  0  0  0  0  0  0
  184.3140  177.8170  142.8220 O   0  0  0  0  0  0  0  0  0  0  0  0
  185.0140  179.9990  143.4740 C   0  0  0  0  0  1  0  0  0  0  0  0
  185.4290  178.5610  143.2380 C   0  0  1  0  0  3  0  0  0  0  0  0
  186.0700  177.9940  144.5150 C   0  0  2  0  0  3  0  0  0  0  0  0
  185.7640  178.9430  145.6740 C   0  0  0  0  0  3  0  0  0  0  0  0
  184.7610  178.2690  146.5960 C   0  0  0  0  0  2  0  0  0  0  0  0
  186.2080  178.3910  147.0200 C   0  0  0  0  0  2  0  0  0  0  0  0
  187.4490  177.8070  144.3500 O   0  0  0  0  0  0  0  0  0  0  0  0
  187.5720  176.6300  143.6130 C   0  0  0  0  0  1  0  0  0  0  0  0
  1 22  2  0  0  0  0
  2  1  1  6  0  0  0
  2 17  1  0  0  0  0
  2  8  1  0  0  0  0
  3  9  1  0  0  0  0
  4 14  2  0  0  0  0
  6 16  1  0  0  0  0
  7  4  1  0  0  0  0
  8 15  1  0  0  0  0
 10 20  2  0  0  0  0
 11 21  1  0  0  0  0
 12 31  1  1  0  0  0
 13  1  1  0  0  0  0
 14 23  1  0  0  0  0
 15 12  1  0  0  0  0
 15  5  2  0  0  0  0
 17 16  1  1  0  0  0
 17 18  1  0  0  0  0
 18 27  1  6  0  0  0
 18 12  1  0  0  0  0
 19 10  1  0  0  0  0
 19  7  2  0  0  0  0
 20 11  1  0  0  0  0
 20  4  1  0  0  0  0
 21  9  1  0  0  0  0
 21 23  2  0  0  0  0
 23  6  1  0  0  0  0
 24 13  1  0  0  0  0
 24  3  1  0  0  0  0
 26 27  1  0  0  0  0
 27 25  1  0  0  0  0
 28 13  1  0  0  0  0
 29 28  3  0  0  0  0
 31 32  1  0  0  0  0
 31 30  1  1  0  0  0
 32 34  1  0  0  0  0
 34 33  1  1  0  0  0
 34 35  1  0  0  0  0
 35 39  1  6  0  0  0
 35 36  1  0  0  0  0
 36 37  1  0  0  0  0
 36 38  1  0  0  0  0
 37 38  1  0  0  0  0
 40 39  1  0  0  0  0
M  END
>  <MODEL>
1

>  <REMARK>
 VINA RESULT:      -6.3      0.000      0.000
  Name = 
  8 active torsions:
  status: ('A' for Active; 'I' for Inactive)
    1  A    between atoms: C_4  and  N_23
    2  A    between atoms: C_8  and  C_17
    3  A    between atoms: O_9  and  C_35
    4  A    between atoms: O_9  and  C_40
    5  A    between atoms: C_17  and  O_19
    6  A    between atoms: C_17  and  C_35
    7  A    between atoms: C_22  and  C_40
    8  A    between atoms: C_29  and  C_30
                            x       y       z     vdW  Elec       q    Type
                         _______ _______ _______ _____ _____    ______ ____

>  <TORSDO>
F 8

$$$$
=
 OpenBabel10222415363D

 40 44  0  0  1  0  0  0  0  0999 V2000
  183.6160  178.5040  138.6960 C   0  0  0  0  0  0  0  0  0  0  0  0
  184.9360  178.4010  137.9590 C   0  0  1  0  0  3  0  0  0  0  0  0
  181.6830  176.4380  139.8490 C   0  0  0  0  0  2  0  0  0  0  0  0
  181.2230  173.3530  135.8410 C   0  0  2  0  0  3  0  0  0  0  0  0
  188.1710  178.2290  139.6070 O   0  0  0  0  0  0  0  0  0  0  0  0
  184.4400  174.9610  136.9410 C   0  0  0  0  0  2  0  0  0  0  0  0
  180.4930  172.5550  134.8250 C   0  0  0  0  0  3  0  0  0  0  0  0
  186.0180  178.5670  138.8890 O   0  0  0  0  0  0  0  0  0  0  0  0
  182.5390  175.5510  139.1360 O   0  0  0  0  0  0  0  0  0  0  0  0
  179.1220  173.0540  136.6070 N   0  0  0  0  0  0  0  0  0  0  0  0
  180.7800  174.3340  137.9850 C   0  0  0  0  0  3  0  0  0  0  0  0
  187.5070  176.9230  137.7040 C   0  0  1  0  0  3  0  0  0  0  0  0
  182.3770  178.0640  138.1180 N   0  0  0  0  0  0  0  0  0  0  0  0
  182.5430  173.7930  135.8480 C   0  0  0  0  0  3  0  0  0  0  0  0
  187.2770  177.9730  138.7560 C   0  0  0  0  0  0  0  0  0  0  0  0
  184.7350  175.9840  137.8560 O   0  0  0  0  0  0  0  0  0  0  0  0
  185.0740  177.1180  137.1000 C   0  0  2  0  0  3  0  0  0  0  0  0
  186.5070  176.9850  136.5500 C   0  0  1  0  0  3  0  0  0  0  0  0
  179.1250  172.3830  135.3670 N   0  0  0  0  0  0  0  0  0  0  0  0
  180.3840  173.6160  136.8630 C   0  0  0  0  0  0  0  0  0  0  0  0
  182.1080  174.8050  138.0370 C   0  0  0  0  0  0  0  0  0  0  0  0
  183.6090  178.9930  139.8590 O   0  0  0  0  0  0  0  0  0  0  0  0
  182.9980  174.5370  136.9570 C   0  0  0  0  0  0  0  0  0  0  0  0
  181.2730  177.6220  138.9670 C   0  0  0  0  0  2  0  0  0  0  0  0
  185.7900  178.1610  134.5970 F   0  0  0  0  0  0  0  0  0  0  0  0
  187.1700  179.2490  136.0210 F   0  0  0  0  0  0  0  0  0  0  0  0
  186.8490  178.0200  135.4720 C   0  0  0  0  0  3  0  0  0  0  0  0
  182.1880  178.0520  136.7290 C   0  0  0  0  0  0  0  0  0  0  0  0
  182.0140  178.0420  135.5360 C   0  0  0  0  0  3  0  0  0  0  0  0
  189.7790  177.8680  137.0750 C   0  0  0  0  0  1  0  0  0  0  0  0
  188.9580  176.6120  137.3130 C   0  0  1  0  0  3  0  0  0  0  0  0
  189.5490  175.8270  138.3120 O   0  0  0  0  0  0  0  0  0  0  0  0
  191.4110  176.6100  139.5760 C   0  0  0  0  0  1  0  0  0  0  0  0
  190.9260  176.0900  138.2380 C   0  0  1  0  0  3  0  0  0  0  0  0
  191.7400  174.8460  137.8420 C   0  0  2  0  0  3  0  0  0  0  0  0
  192.6300  175.2080  136.6540 C   0  0  0  0  0  3  0  0  0  0  0  0
  193.4780  176.4100  137.0350 C   0  0  0  0  0  2  0  0  0  0  0  0
  194.1120  175.0380  136.9550 C   0  0  0  0  0  2  0  0  0  0  0  0
  190.8990  173.7630  137.5500 O   0  0  0  0  0  0  0  0  0  0  0  0
  191.0710  173.5260  136.1870 C   0  0  0  0  0  1  0  0  0  0  0  0
  1 22  2  0  0  0  0
  2  1  1  1  0  0  0
  2  8  1  0  0  0  0
  4  7  1  1  0  0  0
  4 14  1  0  0  0  0
  4 20  1  0  0  0  0
  6 23  1  0  0  0  0
  6 16  1  0  0  0  0
  7 19  2  0  0  0  0
  9  3  1  0  0  0  0
 10 20  2  0  0  0  0
 11 21  2  0  0  0  0
 12 31  1  6  0  0  0
 12 15  1  0  0  0  0
 13  1  1  0  0  0  0
 13 24  1  0  0  0  0
 14 23  2  0  0  0  0
 15  8  1  0  0  0  0
 15  5  2  0  0  0  0
 17 16  1  1  0  0  0
 17  2  1  0  0  0  0
 18 27  1  6  0  0  0
 18 17  1  0  0  0  0
 18 12  1  0  0  0  0
 19 10  1  0  0  0  0
 20 11  1  0  0  0  0
 21  9  1  0  0  0  0
 23 21  1  0  0  0  0
 24  3  1  0  0  0  0
 25 27  1  0  0  0  0
 27 26  1  0  0  0  0
 28 13  1  0  0  0  0
 29 28  3  0  0  0  0
 31 30  1  1  0  0  0
 31 32  1  0  0  0  0
 34 32  1  0  0  0  0
 34 33  1  1  0  0  0
 35 39  1  6  0  0  0
 35 34  1  0  0  0  0
 36 38  1  0  0  0  0
 36 37  1  0  0  0  0
 36 35  1  0  0  0  0
 38 37  1  0  0  0  0
 40 39  1  0  0  0  0
M  END
>  <MODEL>
2

>  <REMARK>
 VINA RESULT:      -5.6      4.531      6.211
  Name = 
  8 active torsions:
  status: ('A' for Active; 'I' for Inactive)
    1  A    between atoms: C_4  and  N_23
    2  A    between atoms: C_8  and  C_17
    3  A    between atoms: O_9  and  C_35
    4  A    between atoms: O_9  and  C_40
    5  A    between atoms: C_17  and  O_19
    6  A    between atoms: C_17  and  C_35
    7  A    between atoms: C_22  and  C_40
    8  A    between atoms: C_29  and  C_30
                            x       y       z     vdW  Elec       q    Type
                         _______ _______ _______ _____ _____    ______ ____

>  <TORSDO>
F 8

$$$$
=
 OpenBabel10222415363D

 40 44  0  0  1  0  0  0  0  0999 V2000
  181.6740  178.1330  135.6990 C   0  0  0  0  0  0  0  0  0  0  0  0
  182.7290  177.0760  135.9470 C   0  0  1  0  0  3  0  0  0  0  0  0
  180.9410  180.7450  137.1040 C   0  0  0  0  0  2  0  0  0  0  0  0
  180.6930  179.1050  141.9040 C   0  0  0  0  0  0  0  0  0  0  0  0
  186.1000  177.2190  134.5940 O   0  0  0  0  0  0  0  0  0  0  0  0
  183.2800  178.0090  139.4020 C   0  0  0  0  0  2  0  0  0  0  0  0
  180.0830  178.9360  143.2460 C   0  0  0  0  0  3  0  0  0  0  0  0
  183.8660  177.3260  135.1040 O   0  0  0  0  0  0  0  0  0  0  0  0
  181.8660  180.2420  138.0630 O   0  0  0  0  0  0  0  0  0  0  0  0
  179.0830  180.6730  142.1110 N   0  0  0  0  0  0  0  0  0  0  0  0
  180.4440  180.5530  140.0080 C   0  0  0  0  0  3  0  0  0  0  0  0
  185.5230  176.5410  136.8240 C   0  0  1  0  0  3  0  0  0  0  0  0
  180.5770  178.3500  136.6010 N   0  0  0  0  0  0  0  0  0  0  0  0
  181.7300  178.3990  141.3010 C   0  0  0  0  0  3  0  0  0  0  0  0
  185.1850  176.9990  135.4320 C   0  0  0  0  0  0  0  0  0  0  0  0
  183.3930  178.1660  138.0120 O   0  0  0  0  0  0  0  0  0  0  0  0
  183.1140  176.9130  137.4400 C   0  0  2  0  0  3  0  0  0  0  0  0
  184.3270  175.9760  137.5890 C   0  0  1  0  0  3  0  0  0  0  0  0
  179.0370  179.9790  143.3380 N   0  0  0  0  0  2  0  0  0  0  0  0
  180.0820  180.1320  141.2820 C   0  0  0  0  0  0  0  0  0  0  0  0
  181.4870  179.8660  139.3530 C   0  0  0  0  0  0  0  0  0  0  0  0
  181.7650  178.8480  134.6620 O   0  0  0  0  0  0  0  0  0  0  0  0
  182.1330  178.7750  140.0030 C   0  0  0  0  0  0  0  0  0  0  0  0
  179.9380  179.6610  136.6960 C   0  0  0  0  0  2  0  0  0  0  0  0
  184.5610  173.6880  138.2380 F   0  0  0  0  0  0  0  0  0  0  0  0
  182.6490  174.2830  137.1870 F   0  0  0  0  0  0  0  0  0  0  0  0
  184.0110  174.5090  137.2740 C   0  0  0  0  0  3  0  0  0  0  0  0
  180.0850  177.3140  137.4070 C   0  0  0  0  0  0  0  0  0  0  0  0
  179.6510  176.4260  138.0970 C   0  0  0  0  0  3  0  0  0  0  0  0
  187.3920  175.2070  135.7400 C   0  0  0  0  0  1  0  0  0  0  0  0
  186.8540  175.8050  137.0280 C   0  0  1  0  0  3  0  0  0  0  0  0
  187.7910  176.6850  137.5840 O   0  0  0  0  0  0  0  0  0  0  0  0
  189.2820  177.6780  136.0120 C   0  0  0  0  0  1  0  0  0  0  0  0
  188.9840  176.4690  136.8760 C   0  0  1  0  0  3  0  0  0  0  0  0
  190.1760  176.1930  137.8070 C   0  0  2  0  0  3  0  0  0  0  0  0
  190.5850  174.7290  137.6500 C   0  0  0  0  0  3  0  0  0  0  0  0
  191.0590  174.5110  136.2230 C   0  0  0  0  0  2  0  0  0  0  0  0
  192.0670  174.5600  137.3510 C   0  0  0  0  0  2  0  0  0  0  0  0
  189.8630  176.5040  139.1370 O   0  0  0  0  0  0  0  0  0  0  0  0
  191.0440  177.0020  139.6830 C   0  0  0  0  0  1  0  0  0  0  0  0
  1  2  1  0  0  0  0
  1 13  1  0  0  0  0
  2  8  1  6  0  0  0
  2 17  1  0  0  0  0
  3  9  1  0  0  0  0
  4  7  2  0  0  0  0
  5 15  2  0  0  0  0
  6 23  1  0  0  0  0
  7 19  1  0  0  0  0
  8 15  1  0  0  0  0
  9 21  1  0  0  0  0
 10 19  1  0  0  0  0
 11 20  1  0  0  0  0
 12 31  1  6  0  0  0
 12 18  1  0  0  0  0
 13 24  1  0  0  0  0
 13 28  1  0  0  0  0
 14  4  1  0  0  0  0
 15 12  1  0  0  0  0
 16  6  1  0  0  0  0
 17 18  1  0  0  0  0
 17 16  1  6  0  0  0
 18 27  1  6  0  0  0
 20  4  1  0  0  0  0
 20 10  2  0  0  0  0
 21 23  1  0  0  0  0
 21 11  2  0  0  0  0
 22  1  2  0  0  0  0
 23 14  2  0  0  0  0
 24  3  1  0  0  0  0
 26 27  1  0  0  0  0
 27 25  1  0  0  0  0
 28 29  3  0  0  0  0
 31 30  1  6  0  0  0
 31 32  1  0  0  0  0
 34 33  1  1  0  0  0
 34 32  1  0  0  0  0
 34 35  1  0  0  0  0
 35 39  1  1  0  0  0
 36 35  1  0  0  0  0
 37 38  1  0  0  0  0
 37 36  1  0  0  0  0
 38 36  1  0  0  0  0
 39 40  1  0  0  0  0
M  END
>  <MODEL>
3

>  <REMARK>
 VINA RESULT:      -5.5      4.224      7.240
  Name = 
  8 active torsions:
  status: ('A' for Active; 'I' for Inactive)
    1  A    between atoms: C_4  and  N_23
    2  A    between atoms: C_8  and  C_17
    3  A    between atoms: O_9  and  C_35
    4  A    between atoms: O_9  and  C_40
    5  A    between atoms: C_17  and  O_19
    6  A    between atoms: C_17  and  C_35
    7  A    between atoms: C_22  and  C_40
    8  A    between atoms: C_29  and  C_30
                            x       y       z     vdW  Elec       q    Type
                         _______ _______ _______ _____ _____    ______ ____

>  <TORSDO>
F 8

$$$$
=
 OpenBabel10222415363D

 40 44  0  0  1  0  0  0  0  0999 V2000
  184.2790  178.1270  137.9140 C   0  0  0  0  0  0  0  0  0  0  0  0
  185.7640  178.1150  137.6200 C   0  0  1  0  0  3  0  0  0  0  0  0
  182.3040  175.9960  138.8610 C   0  0  0  0  0  2  0  0  0  0  0  0
  183.4210  172.2700  135.5950 C   0  0  2  0  0  3  0  0  0  0  0  0
  188.3320  178.7230  140.1190 O   0  0  0  0  0  0  0  0  0  0  0  0
  185.9600  174.5210  137.2180 C   0  0  0  0  0  2  0  0  0  0  0  0
  183.1250  171.2130  134.5960 C   0  0  0  0  0  3  0  0  0  0  0  0
  186.4840  178.5970  138.7660 O   0  0  0  0  0  0  0  0  0  0  0  0
  183.4240  175.1520  138.6150 O   0  0  0  0  0  0  0  0  0  0  0  0
  181.2270  171.7710  135.7760 N   0  0  0  0  0  0  0  0  0  0  0  0
  182.2390  173.5030  137.2810 C   0  0  0  0  0  3  0  0  0  0  0  0
  188.4250  177.0390  138.4100 C   0  0  1  0  0  3  0  0  0  0  0  0
  183.3300  177.4100  137.1080 N   0  0  0  0  0  0  0  0  0  0  0  0
  184.6220  172.9080  135.8890 C   0  0  0  0  0  3  0  0  0  0  0  0
  187.7760  178.1960  139.1190 C   0  0  0  0  0  0  0  0  0  0  0  0
  185.8520  175.7120  137.9530 O   0  0  0  0  0  0  0  0  0  0  0  0
  186.2910  176.7480  137.1120 C   0  0  2  0  0  3  0  0  0  0  0  0
  187.8300  176.7550  137.0320 C   0  0  1  0  0  3  0  0  0  0  0  0
  181.6820  170.9180  134.7490 N   0  0  0  0  0  0  0  0  0  0  0  0
  182.2850  172.5590  136.2610 C   0  0  0  0  0  0  0  0  0  0  0  0
  183.4320  174.1790  137.6120 C   0  0  0  0  0  0  0  0  0  0  0  0
  183.8630  178.7900  138.9040 O   0  0  0  0  0  0  0  0  0  0  0  0
  184.6340  173.8830  136.9070 C   0  0  0  0  0  0  0  0  0  0  0  0
  182.0680  176.9420  137.6790 C   0  0  0  0  0  2  0  0  0  0  0  0
  189.4590  177.0270  135.3040 F   0  0  0  0  0  0  0  0  0  0  0  0
  187.4160  177.9350  134.9630 F   0  0  0  0  0  0  0  0  0  0  0  0
  188.3810  177.6430  135.9100 C   0  0  0  0  0  3  0  0  0  0  0  0
  183.5820  177.1440  135.7550 C   0  0  0  0  0  0  0  0  0  0  0  0
  183.7990  176.9040  134.5940 C   0  0  0  0  0  3  0  0  0  0  0  0
  190.4790  177.3540  139.8690 C   0  0  0  0  0  1  0  0  0  0  0  0
  189.9490  176.9010  138.5200 C   0  0  1  0  0  3  0  0  0  0  0  0
  190.3130  175.5700  138.2760 O   0  0  0  0  0  0  0  0  0  0  0  0
  192.6230  175.9450  137.8260 C   0  0  0  0  0  1  0  0  0  0  0  0
  191.2620  175.6180  137.2440 C   0  0  1  0  0  3  0  0  0  0  0  0
  191.3420  174.2980  136.4590 C   0  0  2  0  0  3  0  0  0  0  0  0
  190.0160  173.5550  136.6240 C   0  0  0  0  0  3  0  0  0  0  0  0
  189.1230  173.8960  135.4430 C   0  0  0  0  0  2  0  0  0  0  0  0
  189.7740  172.5310  135.5240 C   0  0  0  0  0  2  0  0  0  0  0  0
  192.4280  173.5200  136.8850 O   0  0  0  0  0  0  0  0  0  0  0  0
  193.1530  173.2420  135.7280 C   0  0  0  0  0  1  0  0  0  0  0  0
  1 22  2  0  0  0  0
  2  1  1  1  0  0  0
  2  8  1  0  0  0  0
  4  7  1  1  0  0  0
  4 14  1  0  0  0  0
  4 20  1  0  0  0  0
  6 16  1  0  0  0  0
  7 19  2  0  0  0  0
  8 15  1  0  0  0  0
  9  3  1  0  0  0  0
 10 20  2  0  0  0  0
 11 21  2  0  0  0  0
 12 31  1  6  0  0  0
 12 15  1  0  0  0  0
 13 24  1  0  0  0  0
 13  1  1  0  0  0  0
 14 23  2  0  0  0  0
 15  5  2  0  0  0  0
 17  2  1  0  0  0  0
 17 16  1  1  0  0  0
 18 27  1  6  0  0  0
 18 17  1  0  0  0  0
 18 12  1  0  0  0  0
 19 10  1  0  0  0  0
 20 11  1  0  0  0  0
 21  9  1  0  0  0  0
 23  6  1  0  0  0  0
 23 21  1  0  0  0  0
 24  3  1  0  0  0  0
 25 27  1  0  0  0  0
 26 27  1  0  0  0  0
 28 13  1  0  0  0  0
 29 28  3  0  0  0  0
 31 30  1  1  0  0  0
 32 31  1  0  0  0  0
 34 33  1  1  0  0  0
 34 32  1  0  0  0  0
 35 36  1  0  0  0  0
 35 39  1  1  0  0  0
 35 34  1  0  0  0  0
 37 38  1  0  0  0  0
 37 36  1  0  0  0  0
 38 36  1  0  0  0  0
 40 39  1  0  0  0  0
M  END
>  <MODEL>
4

>  <REMARK>
 VINA RESULT:      -5.4      4.522      6.474
  Name = 
  8 active torsions:
  status: ('A' for Active; 'I' for Inactive)
    1  A    between atoms: C_4  and  N_23
    2  A    between atoms: C_8  and  C_17
    3  A    between atoms: O_9  and  C_35
    4  A    between atoms: O_9  and  C_40
    5  A    between atoms: C_17  and  O_19
    6  A    between atoms: C_17  and  C_35
    7  A    between atoms: C_22  and  C_40
    8  A    between atoms: C_29  and  C_30
                            x       y       z     vdW  Elec       q    Type
                         _______ _______ _______ _____ _____    ______ ____

>  <TORSDO>
F 8

$$$$
=
 OpenBabel10222415363D

 40 44  0  0  1  0  0  0  0  0999 V2000
  191.7740  177.3750  142.0240 C   0  0  0  0  0  0  0  0  0  0  0  0
  191.0330  177.5640  140.7170 C   0  0  1  0  0  3  0  0  0  0  0  0
  191.0440  176.0710  144.6890 C   0  0  0  0  0  2  0  0  0  0  0  0
  186.5430  178.2710  145.5230 C   0  0  0  0  0  0  0  0  0  0  0  0
  191.0220  175.1260  138.0210 O   0  0  0  0  0  0  0  0  0  0  0  0
  187.7490  177.0790  142.1650 C   0  0  0  0  0  2  0  0  0  0  0  0
  185.5210  179.0040  146.3100 C   0  0  0  0  0  3  0  0  0  0  0  0
  191.4060  176.5240  139.7990 O   0  0  0  0  0  0  0  0  0  0  0  0
  189.7580  176.0360  144.0770 O   0  0  0  0  0  0  0  0  0  0  0  0
  187.1310  178.1140  147.6950 N   0  0  0  0  0  0  0  0  0  0  0  0
  188.5390  177.0080  145.9400 C   0  0  0  0  0  3  0  0  0  0  0  0
  189.1140  176.3720  138.7780 C   0  0  1  0  0  3  0  0  0  0  0  0
  191.3820  178.0440  143.2330 N   0  0  0  0  0  0  0  0  0  0  0  0
  186.6300  178.0630  144.1490 C   0  0  0  0  0  3  0  0  0  0  0  0
  190.5720  176.0040  138.8050 C   0  0  0  0  0  0  0  0  0  0  0  0
  189.0020  176.6590  141.6930 O   0  0  0  0  0  0  0  0  0  0  0  0
  189.4960  177.6940  140.8820 C   0  0  2  0  0  3  0  0  0  0  0  0
  188.7990  177.6770  139.5080 C   0  0  1  0  0  3  0  0  0  0  0  0
  185.9440  178.8760  147.7230 N   0  0  0  0  0  2  0  0  0  0  0  0
  187.4580  177.7660  146.3730 C   0  0  0  0  0  0  0  0  0  0  0  0
  188.6730  176.7740  144.5560 C   0  0  0  0  0  0  0  0  0  0  0  0
  192.7710  176.6010  142.0480 O   0  0  0  0  0  0  0  0  0  0  0  0
  187.7130  177.3100  143.6510 C   0  0  0  0  0  0  0  0  0  0  0  0
  191.6780  177.4580  144.5390 C   0  0  0  0  0  2  0  0  0  0  0  0
  190.1830  178.7870  137.9070 F   0  0  0  0  0  0  0  0  0  0  0  0
  187.9690  179.2470  137.8670 F   0  0  0  0  0  0  0  0  0  0  0  0
  189.0480  178.9420  138.6780 C   0  0  0  0  0  3  0  0  0  0  0  0
  190.7130  179.2750  143.1970 C   0  0  0  0  0  0  0  0  0  0  0  0
  190.1470  180.3390  143.1650 C   0  0  0  0  0  3  0  0  0  0  0  0
  189.1850  176.4270  136.2400 C   0  0  0  0  0  1  0  0  0  0  0  0
  188.3440  176.1370  137.4710 C   0  0  1  0  0  3  0  0  0  0  0  0
  187.8750  174.8170  137.4400 O   0  0  0  0  0  0  0  0  0  0  0  0
  187.4420  173.6770  135.3940 C   0  0  0  0  0  1  0  0  0  0  0  0
  186.9850  174.7540  136.3570 C   0  0  1  0  0  3  0  0  0  0  0  0
  185.5400  174.4710  136.8000 C   0  0  2  0  0  3  0  0  0  0  0  0
  184.8930  175.7920  137.2170 C   0  0  0  0  0  3  0  0  0  0  0  0
  184.9890  176.7630  136.0520 C   0  0  0  0  0  2  0  0  0  0  0  0
  183.6580  176.1280  136.3940 C   0  0  0  0  0  2  0  0  0  0  0  0
  185.5040  173.5270  137.8360 O   0  0  0  0  0  0  0  0  0  0  0  0
  184.5160  172.6170  137.4660 C   0  0  0  0  0  1  0  0  0  0  0  0
  1 22  2  0  0  0  0
  1 13  1  0  0  0  0
  2  8  1  6  0  0  0
  2 17  1  0  0  0  0
  2  1  1  0  0  0  0
  4  7  2  0  0  0  0
  4 20  1  0  0  0  0
  5 15  2  0  0  0  0
  6 23  1  0  0  0  0
  7 19  1  0  0  0  0
  9 21  1  0  0  0  0
  9  3  1  0  0  0  0
 10 19  1  0  0  0  0
 11 20  1  0  0  0  0
 12 31  1  6  0  0  0
 12 15  1  0  0  0  0
 12 18  1  0  0  0  0
 13 24  1  0  0  0  0
 14  4  1  0  0  0  0
 15  8  1  0  0  0  0
 16  6  1  0  0  0  0
 17 16  1  1  0  0  0
 18 27  1  6  0  0  0
 18 17  1  0  0  0  0
 20 10  2  0  0  0  0
 21 11  2  0  0  0  0
 23 14  2  0  0  0  0
 23 21  1  0  0  0  0
 24  3  1  0  0  0  0
 25 27  1  0  0  0  0
 26 27  1  0  0  0  0
 28 13  1  0  0  0  0
 29 28  3  0  0  0  0
 31 30  1  6  0  0  0
 32 31  1  0  0  0  0
 34 33  1  6  0  0  0
 34 35  1  0  0  0  0
 34 32  1  0  0  0  0
 35 36  1  0  0  0  0
 35 39  1  1  0  0  0
 37 38  1  0  0  0  0
 37 36  1  0  0  0  0
 38 36  1  0  0  0  0
 40 39  1  0  0  0  0
M  END
>  <MODEL>
5

>  <REMARK>
 VINA RESULT:      -5.2      5.280     10.346
  Name = 
  8 active torsions:
  status: ('A' for Active; 'I' for Inactive)
    1  A    between atoms: C_4  and  N_23
    2  A    between atoms: C_8  and  C_17
    3  A    between atoms: O_9  and  C_35
    4  A    between atoms: O_9  and  C_40
    5  A    between atoms: C_17  and  O_19
    6  A    between atoms: C_17  and  C_35
    7  A    between atoms: C_22  and  C_40
    8  A    between atoms: C_29  and  C_30
                            x       y       z     vdW  Elec       q    Type
                         _______ _______ _______ _____ _____    ______ ____

>  <TORSDO>
F 8

$$$$
=
 OpenBabel10222415363D

 40 44  0  0  1  0  0  0  0  0999 V2000
  180.4780  178.5820  140.0350 C   0  0  0  0  0  0  0  0  0  0  0  0
  181.9090  178.9050  140.4140 C   0  0  1  0  0  3  0  0  0  0  0  0
  178.9660  175.9710  139.5560 C   0  0  0  0  0  2  0  0  0  0  0  0
  182.1900  173.6740  136.3740 C   0  0  2  0  0  3  0  0  0  0  0  0
  183.0990  179.1190  143.8410 O   0  0  0  0  0  0  0  0  0  0  0  0
  183.2240  175.6950  139.3740 C   0  0  0  0  0  2  0  0  0  0  0  0
  182.5880  172.9450  135.1440 C   0  0  0  0  0  3  0  0  0  0  0  0
  181.9920  179.1190  141.8320 O   0  0  0  0  0  0  0  0  0  0  0  0
  180.2840  175.4390  139.6420 O   0  0  0  0  0  0  0  0  0  0  0  0
  180.3150  172.7930  135.4810 N   0  0  0  0  0  0  0  0  0  0  0  0
  180.1800  174.1140  137.6080 C   0  0  0  0  0  3  0  0  0  0  0  0
  184.2760  178.0860  142.0220 C   0  0  1  0  0  3  0  0  0  0  0  0
  180.1320  178.0050  138.7650 N   0  0  0  0  0  0  0  0  0  0  0  0
  182.9720  174.3770  137.2870 C   0  0  0  0  0  3  0  0  0  0  0  0
  183.1190  178.8440  142.6120 C   0  0  0  0  0  0  0  0  0  0  0  0
  182.5280  176.5640  140.2280 O   0  0  0  0  0  0  0  0  0  0  0  0
  182.9420  177.8670  139.9020 C   0  0  2  0  0  3  0  0  0  0  0  0
  184.3350  178.1490  140.4960 C   0  0  1  0  0  3  0  0  0  0  0  0
  181.3330  172.3860  134.5940 N   0  0  0  0  0  0  0  0  0  0  0  0
  180.8570  173.5530  136.5310 C   0  0  0  0  0  0  0  0  0  0  0  0
  180.9290  174.8390  138.5570 C   0  0  0  0  0  0  0  0  0  0  0  0
  179.5610  178.8290  140.8650 O   0  0  0  0  0  0  0  0  0  0  0  0
  182.3380  174.9770  138.3940 C   0  0  0  0  0  0  0  0  0  0  0  0
  178.9310  177.1850  138.6220 C   0  0  0  0  0  2  0  0  0  0  0  0
  186.0910  179.0870  139.1740 F   0  0  0  0  0  0  0  0  0  0  0  0
  184.1070  180.1710  139.1890 F   0  0  0  0  0  0  0  0  0  0  0  0
  184.9920  179.4190  139.9410 C   0  0  0  0  0  3  0  0  0  0  0  0
  180.9270  178.2160  137.6310 C   0  0  0  0  0  0  0  0  0  0  0  0
  181.6170  178.3870  136.6570 C   0  0  0  0  0  3  0  0  0  0  0  0
  185.9120  179.5630  143.2830 C   0  0  0  0  0  1  0  0  0  0  0  0
  185.6280  178.1710  142.7450 C   0  0  1  0  0  3  0  0  0  0  0  0
  185.6580  177.2330  143.7840 O   0  0  0  0  0  0  0  0  0  0  0  0
  186.2490  177.6000  146.0630 C   0  0  0  0  0  1  0  0  0  0  0  0
  186.7140  177.6240  144.6200 C   0  0  1  0  0  3  0  0  0  0  0  0
  187.9520  176.7250  144.4630 C   0  0  2  0  0  3  0  0  0  0  0  0
  189.2020  177.5790  144.6740 C   0  0  0  0  0  3  0  0  0  0  0  0
  189.6140  177.4750  146.1330 C   0  0  0  0  0  2  0  0  0  0  0  0
  190.4180  176.7550  145.0720 C   0  0  0  0  0  2  0  0  0  0  0  0
  187.9620  176.0930  143.2120 O   0  0  0  0  0  0  0  0  0  0  0  0
  189.0030  176.6940  142.5080 C   0  0  0  0  0  1  0  0  0  0  0  0
  1 22  2  0  0  0  0
  2  1  1  1  0  0  0
  2  8  1  0  0  0  0
  3  9  1  0  0  0  0
  4  7  1  1  0  0  0
  4 20  1  0  0  0  0
  4 14  1  0  0  0  0
  6 16  1  0  0  0  0
  8 15  1  0  0  0  0
 10 20  2  0  0  0  0
 11 21  2  0  0  0  0
 12 15  1  0  0  0  0
 12 31  1  1  0  0  0
 13  1  1  0  0  0  0
 14 23  2  0  0  0  0
 15  5  2  0  0  0  0
 17 16  1  1  0  0  0
 17  2  1  0  0  0  0
 17 18  1  0  0  0  0
 18 27  1  1  0  0  0
 18 12  1  0  0  0  0
 19  7  2  0  0  0  0
 19 10  1  0  0  0  0
 20 11  1  0  0  0  0
 21  9  1  0  0  0  0
 23 21  1  0  0  0  0
 23  6  1  0  0  0  0
 24 13  1  0  0  0  0
 24  3  1  0  0  0  0
 25 27  1  0  0  0  0
 26 27  1  0  0  0  0
 28 13  1  0  0  0  0
 29 28  3  0  0  0  0
 31 30  1  1  0  0  0
 31 32  1  0  0  0  0
 32 34  1  0  0  0  0
 34 33  1  1  0  0  0
 35 39  1  6  0  0  0
 35 34  1  0  0  0  0
 35 36  1  0  0  0  0
 36 38  1  0  0  0  0
 36 37  1  0  0  0  0
 38 37  1  0  0  0  0
 40 39  1  0  0  0  0
M  END
>  <MODEL>
6

>  <REMARK>
 VINA RESULT:      -5.2      1.573      2.418
  Name = 
  8 active torsions:
  status: ('A' for Active; 'I' for Inactive)
    1  A    between atoms: C_4  and  N_23
    2  A    between atoms: C_8  and  C_17
    3  A    between atoms: O_9  and  C_35
    4  A    between atoms: O_9  and  C_40
    5  A    between atoms: C_17  and  O_19
    6  A    between atoms: C_17  and  C_35
    7  A    between atoms: C_22  and  C_40
    8  A    between atoms: C_29  and  C_30
                            x       y       z     vdW  Elec       q    Type
                         _______ _______ _______ _____ _____    ______ ____

>  <TORSDO>
F 8

$$$$
=
 OpenBabel10222415363D

 40 44  0  0  1  0  0  0  0  0999 V2000
  183.3320  178.6360  138.4820 C   0  0  0  0  0  0  0  0  0  0  0  0
  184.8090  178.6240  138.1480 C   0  0  1  0  0  3  0  0  0  0  0  0
  181.3410  176.4660  139.2950 C   0  0  0  0  0  2  0  0  0  0  0  0
  182.3010  173.0180  135.6910 C   0  0  2  0  0  3  0  0  0  0  0  0
  187.4510  178.9690  140.6200 O   0  0  0  0  0  0  0  0  0  0  0  0
  184.9240  175.0760  137.4330 C   0  0  0  0  0  2  0  0  0  0  0  0
  181.9590  172.0570  134.6140 C   0  0  0  0  0  3  0  0  0  0  0  0
  185.5670  178.9920  139.3120 O   0  0  0  0  0  0  0  0  0  0  0  0
  182.4380  175.6260  138.9470 O   0  0  0  0  0  0  0  0  0  0  0  0
  180.1040  172.5430  135.8880 N   0  0  0  0  0  0  0  0  0  0  0  0
  181.1870  174.1200  137.5080 C   0  0  0  0  0  3  0  0  0  0  0  0
  187.4670  177.4380  138.7710 C   0  0  1  0  0  3  0  0  0  0  0  0
  182.3500  178.0080  137.6430 N   0  0  0  0  0  0  0  0  0  0  0  0
  183.5220  173.6070  136.0070 C   0  0  0  0  0  3  0  0  0  0  0  0
  186.8590  178.5390  139.5940 C   0  0  0  0  0  0  0  0  0  0  0  0
  184.8580  176.1990  138.2710 O   0  0  0  0  0  0  0  0  0  0  0  0
  185.2960  177.2970  137.5110 C   0  0  2  0  0  3  0  0  0  0  0  0
  186.8320  177.2840  137.3900 C   0  0  1  0  0  3  0  0  0  0  0  0
  180.5150  171.7740  134.7800 N   0  0  0  0  0  0  0  0  0  0  0  0
  181.1890  173.2670  136.4110 C   0  0  0  0  0  0  0  0  0  0  0  0
  182.4010  174.7440  137.8650 C   0  0  0  0  0  0  0  0  0  0  0  0
  182.9550  179.2180  139.5360 O   0  0  0  0  0  0  0  0  0  0  0  0
  183.5790  174.4900  137.1050 C   0  0  0  0  0  0  0  0  0  0  0  0
  181.0940  177.5150  138.2060 C   0  0  0  0  0  2  0  0  0  0  0  0
  186.7300  178.0520  135.1290 F   0  0  0  0  0  0  0  0  0  0  0  0
  187.2240  179.5750  136.7250 F   0  0  0  0  0  0  0  0  0  0  0  0
  187.3720  178.2560  136.3350 C   0  0  0  0  0  3  0  0  0  0  0  0
  182.5620  177.8560  136.2660 C   0  0  0  0  0  0  0  0  0  0  0  0
  182.7330  177.7260  135.0800 C   0  0  0  0  0  3  0  0  0  0  0  0
  189.6710  177.6650  137.5290 C   0  0  0  0  0  1  0  0  0  0  0  0
  188.9910  177.2640  138.8270 C   0  0  1  0  0  3  0  0  0  0  0  0
  189.5040  178.0110  139.8950 O   0  0  0  0  0  0  0  0  0  0  0  0
  191.7780  177.4250  140.3010 C   0  0  0  0  0  1  0  0  0  0  0  0
  190.3250  177.1310  140.6170 C   0  0  1  0  0  3  0  0  0  0  0  0
  190.0980  177.2280  142.1340 C   0  0  2  0  0  3  0  0  0  0  0  0
  191.4260  177.5840  142.8020 C   0  0  0  0  0  3  0  0  0  0  0  0
  191.2370  178.8670  143.5950 C   0  0  0  0  0  2  0  0  0  0  0  0
  191.3520  177.5430  144.3210 C   0  0  0  0  0  2  0  0  0  0  0  0
  189.5660  176.0350  142.6440 O   0  0  0  0  0  0  0  0  0  0  0  0
  188.2920  176.3690  143.0990 C   0  0  0  0  0  1  0  0  0  0  0  0
  1 22  2  0  0  0  0
  2  1  1  1  0  0  0
  2  8  1  0  0  0  0
  4  7  1  1  0  0  0
  4 14  1  0  0  0  0
  4 20  1  0  0  0  0
  6 16  1  0  0  0  0
  7 19  2  0  0  0  0
  8 15  1  0  0  0  0
  9  3  1  0  0  0  0
 10 20  2  0  0  0  0
 11 21  2  0  0  0  0
 12 31  1  6  0  0  0
 12 15  1  0  0  0  0
 13 24  1  0  0  0  0
 13  1  1  0  0  0  0
 14 23  2  0  0  0  0
 15  5  2  0  0  0  0
 17  2  1  0  0  0  0
 17 16  1  1  0  0  0
 18 27  1  6  0  0  0
 18 17  1  0  0  0  0
 18 12  1  0  0  0  0
 19 10  1  0  0  0  0
 20 11  1  0  0  0  0
 21  9  1  0  0  0  0
 23  6  1  0  0  0  0
 23 21  1  0  0  0  0
 24  3  1  0  0  0  0
 25 27  1  0  0  0  0
 27 26  1  0  0  0  0
 28 13  1  0  0  0  0
 29 28  3  0  0  0  0
 31 30  1  6  0  0  0
 31 32  1  0  0  0  0
 32 34  1  0  0  0  0
 34 33  1  1  0  0  0
 34 35  1  0  0  0  0
 35 39  1  1  0  0  0
 35 36  1  0  0  0  0
 36 37  1  0  0  0  0
 36 38  1  0  0  0  0
 37 38  1  0  0  0  0
 39 40  1  0  0  0  0
M  END
>  <MODEL>
7

>  <REMARK>
 VINA RESULT:      -5.2      3.064      4.434
  Name = 
  8 active torsions:
  status: ('A' for Active; 'I' for Inactive)
    1  A    between atoms: C_4  and  N_23
    2  A    between atoms: C_8  and  C_17
    3  A    between atoms: O_9  and  C_35
    4  A    between atoms: O_9  and  C_40
    5  A    between atoms: C_17  and  O_19
    6  A    between atoms: C_17  and  C_35
    7  A    between atoms: C_22  and  C_40
    8  A    between atoms: C_29  and  C_30
                            x       y       z     vdW  Elec       q    Type
                         _______ _______ _______ _____ _____    ______ ____

>  <TORSDO>
F 8

$$$$
=
 OpenBabel10222415363D

 40 44  0  0  1  0  0  0  0  0999 V2000
  191.0300  176.3480  138.0610 C   0  0  0  0  0  0  0  0  0  0  0  0
  190.8120  176.2940  139.5590 C   0  0  1  0  0  3  0  0  0  0  0  0
  189.8430  178.0520  135.8200 C   0  0  0  0  0  2  0  0  0  0  0  0
  184.8990  177.5200  136.8580 C   0  0  0  0  0  0  0  0  0  0  0  0
  192.6210  178.3500  141.9470 O   0  0  0  0  0  0  0  0  0  0  0  0
  187.5920  177.9490  139.4490 C   0  0  0  0  0  2  0  0  0  0  0  0
  183.4760  177.2330  136.5510 C   0  0  0  0  0  3  0  0  0  0  0  0
  191.8250  177.0690  140.2190 O   0  0  0  0  0  0  0  0  0  0  0  0
  188.9690  178.4480  136.8730 O   0  0  0  0  0  0  0  0  0  0  0  0
  184.6520  177.6710  134.6200 N   0  0  0  0  0  0  0  0  0  0  0  0
  186.8950  178.0970  135.6570 C   0  0  0  0  0  2  0  0  0  0  0  0
  190.2710  177.8660  142.0280 C   0  0  1  0  0  3  0  0  0  0  0  0
  190.0170  175.9540  137.1220 N   0  0  0  0  0  0  0  0  0  0  0  0
  185.5560  177.5640  138.0840 C   0  0  0  0  0  3  0  0  0  0  0  0
  191.6460  177.7410  141.4320 C   0  0  0  0  0  0  0  0  0  0  0  0
  188.9930  177.8940  139.3900 O   0  0  0  0  0  0  0  0  0  0  0  0
  189.3760  176.6860  139.9960 C   0  0  2  0  0  3  0  0  0  0  0  0
  189.2900  176.8060  141.5290 C   0  0  1  0  0  3  0  0  0  0  0  0
  183.3600  177.3430  135.0790 N   0  0  0  0  0  0  0  0  0  0  0  0
  185.5440  177.7740  135.7020 C   0  0  0  0  0  0  0  0  0  0  0  0
  187.6040  178.1500  136.8750 C   0  0  0  0  0  0  0  0  0  0  0  0
  192.1430  176.7540  137.6260 O   0  0  0  0  0  0  0  0  0  0  0  0
  186.9310  177.8760  138.1000 C   0  0  0  0  0  0  0  0  0  0  0  0
  189.9830  176.5270  135.7770 C   0  0  0  0  0  2  0  0  0  0  0  0
  190.6130  175.3550  142.8930 F   0  0  0  0  0  0  0  0  0  0  0  0
  188.3700  175.2920  143.1740 F   0  0  0  0  0  0  0  0  0  0  0  0
  189.3910  175.4600  142.2560 C   0  0  0  0  0  3  0  0  0  0  0  0
  189.0390  175.0100  137.4630 C   0  0  0  0  0  0  0  0  0  0  0  0
  188.1900  174.2040  137.7500 C   0  0  0  0  0  3  0  0  0  0  0  0
  190.7550  179.5870  143.8320 C   0  0  0  0  0  1  0  0  0  0  0  0
  190.1690  178.2210  143.5180 C   0  0  1  0  0  3  0  0  0  0  0  0
  188.8280  178.1640  143.9180 O   0  0  0  0  0  0  0  0  0  0  0  0
  190.2060  177.0890  145.5390 C   0  0  0  0  0  1  0  0  0  0  0  0
  188.7960  177.2960  145.0200 C   0  0  1  0  0  3  0  0  0  0  0  0
  187.9020  177.8220  146.1550 C   0  0  2  0  0  3  0  0  0  0  0  0
  188.3960  177.2320  147.4760 C   0  0  0  0  0  3  0  0  0  0  0  0
  189.1500  178.3130  148.2330 C   0  0  0  0  0  2  0  0  0  0  0  0
  187.7670  177.8980  148.6900 C   0  0  0  0  0  2  0  0  0  0  0  0
  186.5540  177.5130  145.9220 O   0  0  0  0  0  0  0  0  0  0  0  0
  185.9130  178.7450  145.8070 C   0  0  0  0  0  1  0  0  0  0  0  0
  2  1  1  6  0  0  0
  2 17  1  0  0  0  0
  2  8  1  0  0  0  0
  3  9  1  0  0  0  0
  4 14  2  0  0  0  0
  7  4  1  0  0  0  0
  8 15  1  0  0  0  0
  9 21  1  0  0  0  0
 10 19  1  0  0  0  0
 10 20  2  0  0  0  0
 11 20  1  0  0  0  0
 11 21  1  0  0  0  0
 12 31  1  1  0  0  0
 13 28  1  0  0  0  0
 13  1  1  0  0  0  0
 14 23  1  0  0  0  0
 15  5  2  0  0  0  0
 15 12  1  0  0  0  0
 16  6  1  0  0  0  0
 17 16  1  6  0  0  0
 17 18  1  0  0  0  0
 18 12  1  0  0  0  0
 18 27  1  1  0  0  0
 19  7  2  0  0  0  0
 20  4  1  0  0  0  0
 21 23  2  0  0  0  0
 22  1  2  0  0  0  0
 23  6  1  0  0  0  0
 24  3  1  0  0  0  0
 24 13  1  0  0  0  0
 27 25  1  0  0  0  0
 27 26  1  0  0  0  0
 28 29  3  0  0  0  0
 31 30  1  6  0  0  0
 31 32  1  0  0  0  0
 32 34  1  0  0  0  0
 34 33  1  1  0  0  0
 34 35  1  0  0  0  0
 35 39  1  6  0  0  0
 35 36  1  0  0  0  0
 36 37  1  0  0  0  0
 36 38  1  0  0  0  0
 37 38  1  0  0  0  0
 40 39  1  0  0  0  0
M  END
>  <MODEL>
8

>  <REMARK>
 VINA RESULT:      -4.9      4.632      7.435
  Name = 
  8 active torsions:
  status: ('A' for Active; 'I' for Inactive)
    1  A    between atoms: C_4  and  N_23
    2  A    between atoms: C_8  and  C_17
    3  A    between atoms: O_9  and  C_35
    4  A    between atoms: O_9  and  C_40
    5  A    between atoms: C_17  and  O_19
    6  A    between atoms: C_17  and  C_35
    7  A    between atoms: C_22  and  C_40
    8  A    between atoms: C_29  and  C_30
                            x       y       z     vdW  Elec       q    Type
                         _______ _______ _______ _____ _____    ______ ____

>  <TORSDO>
F 8

$$$$
=
 OpenBabel10222415363D

 40 44  0  0  1  0  0  0  0  0999 V2000
  180.5390  176.0180  136.9690 C   0  0  0  0  0  0  0  0  0  0  0  0
  180.8250  177.1970  137.8760 C   0  0  1  0  0  3  0  0  0  0  0  0
  181.8540  173.2870  136.5900 C   0  0  0  0  0  2  0  0  0  0  0  0
  186.7070  174.7190  136.1380 C   0  0  0  0  0  0  0  0  0  0  0  0
  179.4760  177.5450  141.2330 O   0  0  0  0  0  0  0  0  0  0  0  0
  184.2480  176.2290  138.5520 C   0  0  0  0  0  2  0  0  0  0  0  0
  188.0520  174.7610  135.5130 C   0  0  0  0  0  3  0  0  0  0  0  0
  179.9770  177.1270  139.0340 O   0  0  0  0  0  0  0  0  0  0  0  0
  182.8320  173.8750  137.4420 O   0  0  0  0  0  0  0  0  0  0  0  0
  186.8570  172.9470  134.7500 N   0  0  0  0  0  0  0  0  0  0  0  0
  184.7630  173.3140  136.0780 C   0  0  0  0  0  2  0  0  0  0  0  0
  181.7260  178.0660  140.5770 C   0  0  1  0  0  3  0  0  0  0  0  0
  181.4310  175.6290  135.9120 N   0  0  0  0  0  0  0  0  0  0  0  0
  186.1290  175.5750  137.0710 C   0  0  0  0  0  3  0  0  0  0  0  0
  180.3190  177.6140  140.2990 C   0  0  0  0  0  0  0  0  0  0  0  0
  182.8540  176.1350  138.6820 O   0  0  0  0  0  0  0  0  0  0  0  0
  182.3240  177.3580  138.2390 C   0  0  2  0  0  3  0  0  0  0  0  0
  182.5070  178.4420  139.3190 C   0  0  1  0  0  3  0  0  0  0  0  0
  188.1070  173.5860  134.6140 N   0  0  0  0  0  0  0  0  0  0  0  0
  186.0490  173.6410  135.6660 C   0  0  0  0  0  0  0  0  0  0  0  0
  184.1340  174.1550  137.0190 C   0  0  0  0  0  0  0  0  0  0  0  0
  179.4800  175.3570  137.1510 O   0  0  0  0  0  0  0  0  0  0  0  0
  184.8200  175.3000  137.5170 C   0  0  0  0  0  0  0  0  0  0  0  0
  181.4810  174.2430  135.4520 C   0  0  0  0  0  2  0  0  0  0  0  0
  183.4200  180.5810  138.7670 F   0  0  0  0  0  0  0  0  0  0  0  0
  181.6470  179.8620  137.5610 F   0  0  0  0  0  0  0  0  0  0  0  0
  182.2400  179.8640  138.8110 C   0  0  0  0  0  3  0  0  0  0  0  0
  182.2700  176.5630  135.2890 C   0  0  0  0  0  0  0  0  0  0  0  0
  182.9970  177.3690  134.7640 C   0  0  0  0  0  3  0  0  0  0  0  0
  180.6740  179.5970  142.3080 C   0  0  0  0  0  1  0  0  0  0  0  0
  181.9580  178.9640  141.8000 C   0  0  1  0  0  3  0  0  0  0  0  0
  182.5670  178.2160  142.8160 O   0  0  0  0  0  0  0  0  0  0  0  0
  183.3690  179.1820  144.8410 C   0  0  0  0  0  1  0  0  0  0  0  0
  183.5720  179.0410  143.3450 C   0  0  1  0  0  3  0  0  0  0  0  0
  184.9830  178.4990  143.0650 C   0  0  2  0  0  3  0  0  0  0  0  0
  185.7000  178.2990  144.4010 C   0  0  0  0  0  3  0  0  0  0  0  0
  186.4690  176.9890  144.3420 C   0  0  0  0  0  2  0  0  0  0  0  0
  187.2150  178.3040  144.2630 C   0  0  0  0  0  2  0  0  0  0  0  0
  185.6970  179.3590  142.2190 O   0  0  0  0  0  0  0  0  0  0  0  0
  185.3500  178.9690  140.9270 C   0  0  0  0  0  1  0  0  0  0  0  0
  1 22  2  0  0  0  0
  2  1  1  1  0  0  0
  2 17  1  0  0  0  0
  2  8  1  0  0  0  0
  3  9  1  0  0  0  0
  4 14  2  0  0  0  0
  6 16  1  0  0  0  0
  7  4  1  0  0  0  0
  8 15  1  0  0  0  0
 10 20  2  0  0  0  0
 11 21  1  0  0  0  0
 12 31  1  1  0  0  0
 13  1  1  0  0  0  0
 14 23  1  0  0  0  0
 15 12  1  0  0  0  0
 15  5  2  0  0  0  0
 17 16  1  1  0  0  0
 17 18  1  0  0  0  0
 18 27  1  6  0  0  0
 18 12  1  0  0  0  0
 19 10  1  0  0  0  0
 19  7  2  0  0  0  0
 20 11  1  0  0  0  0
 20  4  1  0  0  0  0
 21  9  1  0  0  0  0
 21 23  2  0  0  0  0
 23  6  1  0  0  0  0
 24 13  1  0  0  0  0
 24  3  1  0  0  0  0
 25 27  1  0  0  0  0
 26 27  1  0  0  0  0
 28 13  1  0  0  0  0
 29 28  3  0  0  0  0
 31 30  1  1  0  0  0
 31 32  1  0  0  0  0
 32 34  1  0  0  0  0
 34 33  1  1  0  0  0
 35 39  1  6  0  0  0
 35 34  1  0  0  0  0
 35 36  1  0  0  0  0
 37 36  1  0  0  0  0
 38 37  1  0  0  0  0
 38 36  1  0  0  0  0
 40 39  1  0  0  0  0
M  END
>  <MODEL>
9

>  <REMARK>
 VINA RESULT:      -4.8      2.018      2.765
  Name = 
  8 active torsions:
  status: ('A' for Active; 'I' for Inactive)
    1  A    between atoms: C_4  and  N_23
    2  A    between atoms: C_8  and  C_17
    3  A    between atoms: O_9  and  C_35
    4  A    between atoms: O_9  and  C_40
    5  A    between atoms: C_17  and  O_19
    6  A    between atoms: C_17  and  C_35
    7  A    between atoms: C_22  and  C_40
    8  A    between atoms: C_29  and  C_30
                            x       y       z     vdW  Elec       q    Type
                         _______ _______ _______ _____ _____    ______ ____

>  <TORSDO>
F 8

$$$$
