=
 OpenBabel10222416393D

 30 33  0  0  1  0  0  0  0  0999 V2000
  189.9040  177.1270  137.9990 C   0  0  1  0  0  3  0  0  0  0  0  0
  191.7490  174.0650  136.6600 C   0  0  0  0  0  0  0  0  0  0  0  0
  194.6060  174.8740  137.7100 C   0  0  0  0  0  2  0  0  0  0  0  0
  193.1520  173.6220  136.3390 C   0  0  2  0  0  3  0  0  0  0  0  0
  193.6540  175.9100  138.2980 C   0  0  0  0  0  2  0  0  0  0  0  0
  193.1620  172.3110  135.7070 N   0  0  0  0  0  1  0  0  0  0  0  0
  190.7150  173.1830  136.5660 N   0  0  0  0  0  0  0  0  0  0  0  0
  189.4420  173.5270  136.8930 C   0  0  0  0  0  3  0  0  0  0  0  0
  189.1620  174.8120  137.3500 C   0  0  0  0  0  3  0  0  0  0  0  0
  191.5090  175.3760  137.1230 C   0  0  0  0  0  0  0  0  0  0  0  0
  190.1940  175.7480  137.4650 C   0  0  0  0  0  0  0  0  0  0  0  0
  193.9460  173.5820  137.5590 N   0  0  0  0  0  2  0  0  0  0  0  0
  192.6350  176.3650  137.2590 C   0  0  0  0  0  2  0  0  0  0  0  0
  186.7440  177.7610  136.3940 C   0  0  0  0  0  0  0  0  0  0  0  0
  188.5860  179.2080  137.3530 C   0  0  0  0  0  2  0  0  0  0  0  0
  187.1340  176.2150  134.5940 N   0  0  0  0  0  1  0  0  0  0  0  0
  187.6040  177.1540  135.5580 C   0  0  0  0  0  0  0  0  0  0  0  0
  189.5520  178.1250  136.8830 C   0  0  2  0  0  3  0  0  0  0  0  0
  189.0740  177.4870  135.5690 C   0  0  0  0  0  2  0  0  0  0  0  0
  187.2160  178.7050  137.3640 N   0  0  0  0  0  2  0  0  0  0  0  0
  185.2860  177.4400  136.3650 C   0  0  0  0  0  2  0  0  0  0  0  0
  184.7520  177.5660  137.6460 O   0  0  0  0  0  1  0  0  0  0  0  0
  188.9130  177.1000  139.1650 C   0  0  0  0  0  2  0  0  0  0  0  0
  190.9690  177.9610  142.8380 C   0  0  0  0  0  3  0  0  0  0  0  0
  188.9190  177.9600  141.5430 C   0  0  0  0  0  0  0  0  0  0  0  0
  190.9730  177.1050  140.5740 C   0  0  0  0  0  3  0  0  0  0  0  0
  189.6050  178.2450  142.7280 C   0  0  0  0  0  3  0  0  0  0  0  0
  189.6060  177.3830  140.4590 C   0  0  0  0  0  0  0  0  0  0  0  0
  191.6540  177.3910  141.7610 C   0  0  0  0  0  3  0  0  0  0  0  0
  187.5310  178.2630  141.4490 N   0  0  0  0  0  1  0  0  0  0  0  0
  1 23  1  1  0  0  0
  2 10  1  0  0  0  0
  3  5  1  0  0  0  0
  4  6  1  1  0  0  0
  4  2  1  0  0  0  0
  4 12  1  0  0  0  0
  7  2  2  0  0  0  0
  7  8  1  0  0  0  0
  8  9  2  0  0  0  0
  9 11  1  0  0  0  0
 10 13  1  0  0  0  0
 10 11  2  0  0  0  0
 11  1  1  0  0  0  0
 12  3  1  0  0  0  0
 13  5  1  0  0  0  0
 14 20  1  0  0  0  0
 15 20  1  0  0  0  0
 16 17  1  0  0  0  0
 17 19  1  0  0  0  0
 17 14  2  0  0  0  0
 18 15  1  0  0  0  0
 18  1  1  1  0  0  0
 19 18  1  0  0  0  0
 21 14  1  0  0  0  0
 21 22  1  0  0  0  0
 23 28  1  0  0  0  0
 25 27  2  0  0  0  0
 26 29  1  0  0  0  0
 27 24  1  0  0  0  0
 28 26  2  0  0  0  0
 28 25  1  0  0  0  0
 29 24  2  0  0  0  0
 30 25  1  0  0  0  0
M  END
>  <MODEL>
1

>  <REMARK>
 VINA RESULT:      -6.2      0.000      0.000
  Name = 
  5 active torsions:
  status: ('A' for Active; 'I' for Inactive)
    1  A    between atoms: CA_1  and  C_2
    2  A    between atoms: C_10  and  C_20
    3  A    between atoms: C_10  and  C_24
    4  A    between atoms: C_13  and  C_24
    5  A    between atoms: C_24  and  C_26
                            x       y       z     vdW  Elec       q    Type
                         _______ _______ _______ _____ _____    ______ ____

>  <TORSDO>
F 5

$$$$
=
 OpenBabel10222416393D

 30 33  0  0  1  0  0  0  0  0999 V2000
  180.8970  178.0490  139.6810 C   0  0  1  0  0  3  0  0  0  0  0  0
  183.1860  178.7380  142.6570 C   0  0  0  0  0  0  0  0  0  0  0  0
  185.8740  178.8880  141.0210 C   0  0  0  0  0  2  0  0  0  0  0  0
  184.6450  178.6640  143.0220 C   0  0  2  0  0  3  0  0  0  0  0  0
  184.7700  178.7830  139.9730 C   0  0  0  0  0  2  0  0  0  0  0  0
  184.8550  178.9630  144.4300 N   0  0  0  0  0  1  0  0  0  0  0  0
  182.2880  179.2700  143.5330 N   0  0  0  0  0  0  0  0  0  0  0  0
  180.9720  179.4010  143.2250 C   0  0  0  0  0  3  0  0  0  0  0  0
  180.5030  178.9970  141.9780 C   0  0  0  0  0  3  0  0  0  0  0  0
  182.7530  178.3200  141.3810 C   0  0  0  0  0  0  0  0  0  0  0  0
  181.3910  178.4500  141.0470 C   0  0  0  0  0  0  0  0  0  0  0  0
  185.4050  179.6000  142.2050 N   0  0  0  0  0  2  0  0  0  0  0  0
  183.7260  177.7510  140.3840 C   0  0  0  0  0  2  0  0  0  0  0  0
  180.1710  174.8060  138.2960 C   0  0  0  0  0  0  0  0  0  0  0  0
  179.7790  175.9250  140.5310 C   0  0  0  0  0  2  0  0  0  0  0  0
  179.2570  175.6760  136.2480 N   0  0  0  0  0  1  0  0  0  0  0  0
  179.4990  175.7750  137.6500 C   0  0  0  0  0  0  0  0  0  0  0  0
  179.6030  177.2210  139.7460 C   0  0  2  0  0  3  0  0  0  0  0  0
  178.9310  176.9600  138.3880 C   0  0  0  0  0  2  0  0  0  0  0  0
  180.4140  174.9050  139.7040 N   0  0  0  0  0  2  0  0  0  0  0  0
  180.7150  173.6260  137.5600 C   0  0  0  0  0  2  0  0  0  0  0  0
  179.9960  172.4830  137.9090 O   0  0  0  0  0  1  0  0  0  0  0  0
  180.8480  179.2320  138.7120 C   0  0  0  0  0  2  0  0  0  0  0  0
  182.1920  177.9800  134.8290 C   0  0  0  0  0  3  0  0  0  0  0  0
  180.6990  179.3210  136.1890 C   0  0  0  0  0  0  0  0  0  0  0  0
  182.3690  177.9090  137.2410 C   0  0  0  0  0  3  0  0  0  0  0  0
  181.1400  178.8950  134.9330 C   0  0  0  0  0  3  0  0  0  0  0  0
  181.3190  178.8280  137.3530 C   0  0  0  0  0  0  0  0  0  0  0  0
  182.8060  177.4870  135.9830 C   0  0  0  0  0  3  0  0  0  0  0  0
  179.6220  180.2490  136.2740 N   0  0  0  0  0  1  0  0  0  0  0  0
  1 23  1  6  0  0  0
  1 11  1  0  0  0  0
  2  4  1  0  0  0  0
  2  7  1  0  0  0  0
  3 12  1  0  0  0  0
  4  6  1  1  0  0  0
  5 13  1  0  0  0  0
  5  3  1  0  0  0  0
  8  7  2  0  0  0  0
  9  8  1  0  0  0  0
 10  2  2  0  0  0  0
 11 10  1  0  0  0  0
 11  9  2  0  0  0  0
 12  4  1  0  0  0  0
 13 10  1  0  0  0  0
 14 20  1  0  0  0  0
 16 17  1  0  0  0  0
 17 14  2  0  0  0  0
 17 19  1  0  0  0  0
 18  1  1  6  0  0  0
 18 15  1  0  0  0  0
 19 18  1  0  0  0  0
 20 15  1  0  0  0  0
 21 22  1  0  0  0  0
 21 14  1  0  0  0  0
 24 27  2  0  0  0  0
 24 29  1  0  0  0  0
 25 30  1  0  0  0  0
 25 28  2  0  0  0  0
 26 28  1  0  0  0  0
 27 25  1  0  0  0  0
 28 23  1  0  0  0  0
 29 26  2  0  0  0  0
M  END
>  <MODEL>
2

>  <REMARK>
 VINA RESULT:      -6.0      7.029     10.092
  Name = 
  5 active torsions:
  status: ('A' for Active; 'I' for Inactive)
    1  A    between atoms: CA_1  and  C_2
    2  A    between atoms: C_10  and  C_20
    3  A    between atoms: C_10  and  C_24
    4  A    between atoms: C_13  and  C_24
    5  A    between atoms: C_24  and  C_26
                            x       y       z     vdW  Elec       q    Type
                         _______ _______ _______ _____ _____    ______ ____

>  <TORSDO>
F 5

$$$$
=
 OpenBabel10222416393D

 30 33  0  0  1  0  0  0  0  0999 V2000
  183.4960  178.9280  139.5880 C   0  0  1  0  0  3  0  0  0  0  0  0
  187.1200  178.4170  140.6710 C   0  0  0  0  0  0  0  0  0  0  0  0
  186.5220  177.9270  143.7240 C   0  0  0  0  0  2  0  0  0  0  0  0
  187.9570  178.4390  141.9230 C   0  0  2  0  0  3  0  0  0  0  0  0
  185.1550  177.9890  143.0520 C   0  0  0  0  0  2  0  0  0  0  0  0
  189.3700  178.2780  141.6190 N   0  0  0  0  0  1  0  0  0  0  0  0
  187.6740  178.0390  139.4850 N   0  0  0  0  0  0  0  0  0  0  0  0
  186.9460  177.9580  138.3420 C   0  0  0  0  0  3  0  0  0  0  0  0
  185.5850  178.2560  138.3590 C   0  0  0  0  0  3  0  0  0  0  0  0
  185.7440  178.7240  140.7320 C   0  0  0  0  0  0  0  0  0  0  0  0
  184.9750  178.6440  139.5550 C   0  0  0  0  0  0  0  0  0  0  0  0
  187.5260  177.3760  142.8200 N   0  0  0  0  0  2  0  0  0  0  0  0
  185.1000  179.1220  142.0330 C   0  0  0  0  0  2  0  0  0  0  0  0
  180.2930  180.4260  138.9080 C   0  0  0  0  0  0  0  0  0  0  0  0
  182.7020  181.1690  138.6780 C   0  0  0  0  0  2  0  0  0  0  0  0
  179.4280  178.5030  137.7500 N   0  0  0  0  0  1  0  0  0  0  0  0
  180.5090  179.3550  138.1240 C   0  0  0  0  0  0  0  0  0  0  0  0
  183.0210  179.7130  138.3540 C   0  0  2  0  0  3  0  0  0  0  0  0
  181.8770  179.0550  137.5670 C   0  0  0  0  0  2  0  0  0  0  0  0
  181.3790  181.2830  139.2830 N   0  0  0  0  0  2  0  0  0  0  0  0
  178.9310  180.7280  139.4400 C   0  0  0  0  0  2  0  0  0  0  0  0
  179.0330  181.6070  140.5170 O   0  0  0  0  0  1  0  0  0  0  0  0
  182.6730  177.6760  139.9020 C   0  0  0  0  0  2  0  0  0  0  0  0
  179.7070  178.5930  142.8710 C   0  0  0  0  0  3  0  0  0  0  0  0
  180.4390  177.2340  141.0010 C   0  0  0  0  0  0  0  0  0  0  0  0
  181.8610  179.0070  141.8510 C   0  0  0  0  0  3  0  0  0  0  0  0
  179.4780  177.5520  141.9660 C   0  0  0  0  0  3  0  0  0  0  0  0
  181.6410  177.9640  140.9440 C   0  0  0  0  0  0  0  0  0  0  0  0
  180.8980  179.3200  142.8140 C   0  0  0  0  0  3  0  0  0  0  0  0
  180.1840  176.1750  140.0830 N   0  0  0  0  0  1  0  0  0  0  0  0
  1 23  1  6  0  0  0
  2 10  1  0  0  0  0
  2  4  1  0  0  0  0
  4  6  1  6  0  0  0
  4 12  1  0  0  0  0
  5  3  1  0  0  0  0
  7  2  2  0  0  0  0
  8  9  2  0  0  0  0
  8  7  1  0  0  0  0
  9 11  1  0  0  0  0
 10 13  1  0  0  0  0
 11  1  1  0  0  0  0
 11 10  2  0  0  0  0
 12  3  1  0  0  0  0
 13  5  1  0  0  0  0
 14 20  1  0  0  0  0
 14 21  1  0  0  0  0
 15 20  1  0  0  0  0
 16 17  1  0  0  0  0
 17 14  2  0  0  0  0
 18 15  1  0  0  0  0
 18  1  1  1  0  0  0
 19 17  1  0  0  0  0
 19 18  1  0  0  0  0
 21 22  1  0  0  0  0
 23 28  1  0  0  0  0
 25 27  1  0  0  0  0
 26 29  2  0  0  0  0
 27 24  2  0  0  0  0
 28 25  2  0  0  0  0
 28 26  1  0  0  0  0
 29 24  1  0  0  0  0
 30 25  1  0  0  0  0
M  END
>  <MODEL>
3

>  <REMARK>
 VINA RESULT:      -5.9      5.363      8.203
  Name = 
  5 active torsions:
  status: ('A' for Active; 'I' for Inactive)
    1  A    between atoms: CA_1  and  C_2
    2  A    between atoms: C_10  and  C_20
    3  A    between atoms: C_10  and  C_24
    4  A    between atoms: C_13  and  C_24
    5  A    between atoms: C_24  and  C_26
                            x       y       z     vdW  Elec       q    Type
                         _______ _______ _______ _____ _____    ______ ____

>  <TORSDO>
F 5

$$$$
=
 OpenBabel10222416393D

 30 33  0  0  1  0  0  0  0  0999 V2000
  184.8980  177.4790  137.3200 C   0  0  1  0  0  3  0  0  0  0  0  0
  181.4960  175.8830  136.6500 C   0  0  0  0  0  0  0  0  0  0  0  0
  180.9080  175.0190  139.6220 C   0  0  0  0  0  2  0  0  0  0  0  0
  180.5350  174.9190  137.2950 C   0  0  2  0  0  3  0  0  0  0  0  0
  182.1840  175.8520  139.6900 C   0  0  0  0  0  2  0  0  0  0  0  0
  179.4150  174.6200  136.4160 N   0  0  0  0  0  1  0  0  0  0  0  0
  181.1500  176.5290  135.5010 N   0  0  0  0  0  0  0  0  0  0  0  0
  181.9650  177.4420  134.9130 C   0  0  0  0  0  3  0  0  0  0  0  0
  183.1940  177.7530  135.4890 C   0  0  0  0  0  3  0  0  0  0  0  0
  182.7310  176.1720  137.2680 C   0  0  0  0  0  0  0  0  0  0  0  0
  183.5880  177.1170  136.6710 C   0  0  0  0  0  0  0  0  0  0  0  0
  180.0400  175.4800  138.5440 N   0  0  0  0  0  2  0  0  0  0  0  0
  183.1300  175.4920  138.5500 C   0  0  0  0  0  2  0  0  0  0  0  0
  188.3870  177.1280  138.1360 C   0  0  0  0  0  0  0  0  0  0  0  0
  186.7590  175.8700  136.6620 C   0  0  0  0  0  2  0  0  0  0  0  0
  188.8960  179.4530  137.7920 N   0  0  0  0  0  1  0  0  0  0  0  0
  188.1520  178.2780  137.4800 C   0  0  0  0  0  0  0  0  0  0  0  0
  186.1010  177.2210  136.3980 C   0  0  2  0  0  3  0  0  0  0  0  0
  187.1450  178.3490  136.3610 C   0  0  0  0  0  2  0  0  0  0  0  0
  187.6400  175.9460  137.8230 N   0  0  0  0  0  2  0  0  0  0  0  0
  189.4000  177.0600  139.2310 C   0  0  0  0  0  2  0  0  0  0  0  0
  190.2610  175.9860  139.0090 O   0  0  0  0  0  1  0  0  0  0  0  0
  184.8660  178.8730  137.9500 C   0  0  0  0  0  2  0  0  0  0  0  0
  184.1380  178.6930  142.1800 C   0  0  0  0  0  3  0  0  0  0  0  0
  183.3000  179.0270  139.9300 C   0  0  0  0  0  0  0  0  0  0  0  0
  185.6430  178.5110  140.2940 C   0  0  0  0  0  3  0  0  0  0  0  0
  183.0810  178.9760  141.3100 C   0  0  0  0  0  3  0  0  0  0  0  0
  184.5880  178.7900  139.4160 C   0  0  0  0  0  0  0  0  0  0  0  0
  185.4190  178.4600  141.6730 C   0  0  0  0  0  3  0  0  0  0  0  0
  182.2110  179.3240  139.0600 N   0  0  0  0  0  1  0  0  0  0  0  0
  1 23  1  6  0  0  0
  2 10  1  0  0  0  0
  2  4  1  0  0  0  0
  3  5  1  0  0  0  0
  4  6  1  6  0  0  0
  4 12  1  0  0  0  0
  7  2  2  0  0  0  0
  8  9  2  0  0  0  0
  8  7  1  0  0  0  0
  9 11  1  0  0  0  0
 10 13  1  0  0  0  0
 11 10  2  0  0  0  0
 11  1  1  0  0  0  0
 12  3  1  0  0  0  0
 13  5  1  0  0  0  0
 14 21  1  0  0  0  0
 15 20  1  0  0  0  0
 17 16  1  0  0  0  0
 17 14  2  0  0  0  0
 18 15  1  0  0  0  0
 18  1  1  1  0  0  0
 19 18  1  0  0  0  0
 19 17  1  0  0  0  0
 20 14  1  0  0  0  0
 22 21  1  0  0  0  0
 23 28  1  0  0  0  0
 25 27  1  0  0  0  0
 26 29  2  0  0  0  0
 27 24  2  0  0  0  0
 28 25  2  0  0  0  0
 28 26  1  0  0  0  0
 29 24  1  0  0  0  0
 30 25  1  0  0  0  0
M  END
>  <MODEL>
4

>  <REMARK>
 VINA RESULT:      -5.9      4.139      7.908
  Name = 
  5 active torsions:
  status: ('A' for Active; 'I' for Inactive)
    1  A    between atoms: CA_1  and  C_2
    2  A    between atoms: C_10  and  C_20
    3  A    between atoms: C_10  and  C_24
    4  A    between atoms: C_13  and  C_24
    5  A    between atoms: C_24  and  C_26
                            x       y       z     vdW  Elec       q    Type
                         _______ _______ _______ _____ _____    ______ ____

>  <TORSDO>
F 5

$$$$
=
 OpenBabel10222416393D

 30 33  0  0  1  0  0  0  0  0999 V2000
  180.9650  178.4110  140.3880 C   0  0  1  0  0  3  0  0  0  0  0  0
  180.7510  175.0670  138.5600 C   0  0  0  0  0  0  0  0  0  0  0  0
  183.4950  175.3110  137.0340 C   0  0  0  0  0  2  0  0  0  0  0  0
  181.3600  174.3680  137.3730 C   0  0  2  0  0  3  0  0  0  0  0  0
  183.4570  176.5030  137.9840 C   0  0  0  0  0  2  0  0  0  0  0  0
  180.7190  173.0850  137.1270 N   0  0  0  0  0  1  0  0  0  0  0  0
  179.8950  174.3980  139.3830 N   0  0  0  0  0  0  0  0  0  0  0  0
  179.3610  174.9740  140.4910 C   0  0  0  0  0  3  0  0  0  0  0  0
  179.6930  176.2850  140.8240 C   0  0  0  0  0  3  0  0  0  0  0  0
  181.1150  176.3960  138.8640 C   0  0  0  0  0  0  0  0  0  0  0  0
  180.5710  177.0070  140.0100 C   0  0  0  0  0  0  0  0  0  0  0  0
  182.7840  174.1680  137.5980 N   0  0  0  0  0  2  0  0  0  0  0  0
  182.0770  177.1520  137.9870 C   0  0  0  0  0  2  0  0  0  0  0  0
  180.3710  180.4270  137.4640 C   0  0  0  0  0  0  0  0  0  0  0  0
  178.9310  178.9900  138.9690 C   0  0  0  0  0  2  0  0  0  0  0  0
  181.5970  182.3240  138.2910 N   0  0  0  0  0  1  0  0  0  0  0  0
  180.7740  181.1790  138.5030 C   0  0  0  0  0  0  0  0  0  0  0  0
  179.8470  179.4290  140.1070 C   0  0  2  0  0  3  0  0  0  0  0  0
  180.3230  180.8780  139.9090 C   0  0  0  0  0  2  0  0  0  0  0  0
  179.5440  179.2760  137.6770 N   0  0  0  0  0  2  0  0  0  0  0  0
  180.8070  180.7430  136.0710 C   0  0  0  0  0  2  0  0  0  0  0  0
  181.0690  179.5610  135.3810 O   0  0  0  0  0  1  0  0  0  0  0  0
  181.5560  178.4870  141.7970 C   0  0  0  0  0  2  0  0  0  0  0  0
  185.8080  179.0720  141.5880 C   0  0  0  0  0  3  0  0  0  0  0  0
  183.8080  178.7440  142.9200 C   0  0  0  0  0  0  0  0  0  0  0  0
  183.6650  178.7960  140.4980 C   0  0  0  0  0  3  0  0  0  0  0  0
  185.1890  178.9460  142.8350 C   0  0  0  0  0  3  0  0  0  0  0  0
  183.0400  178.6650  141.7440 C   0  0  0  0  0  0  0  0  0  0  0  0
  185.0460  178.9970  140.4190 C   0  0  0  0  0  3  0  0  0  0  0  0
  183.1960  178.6250  144.2000 N   0  0  0  0  0  1  0  0  0  0  0  0
  1 23  1  1  0  0  0
  2 10  2  0  0  0  0
  2  7  1  0  0  0  0
  3 12  1  0  0  0  0
  3  5  1  0  0  0  0
  4  6  1  1  0  0  0
  4 12  1  0  0  0  0
  4  2  1  0  0  0  0
  5 13  1  0  0  0  0
  7  8  2  0  0  0  0
  8  9  1  0  0  0  0
 10 11  1  0  0  0  0
 11  1  1  0  0  0  0
 11  9  2  0  0  0  0
 13 10  1  0  0  0  0
 14 20  1  0  0  0  0
 14 17  2  0  0  0  0
 15 18  1  0  0  0  0
 16 17  1  0  0  0  0
 17 19  1  0  0  0  0
 18  1  1  6  0  0  0
 19 18  1  0  0  0  0
 20 15  1  0  0  0  0
 21 14  1  0  0  0  0
 22 21  1  0  0  0  0
 24 27  1  0  0  0  0
 25 30  1  0  0  0  0
 26 28  2  0  0  0  0
 27 25  2  0  0  0  0
 28 23  1  0  0  0  0
 28 25  1  0  0  0  0
 29 26  1  0  0  0  0
 29 24  2  0  0  0  0
M  END
>  <MODEL>
5

>  <REMARK>
 VINA RESULT:      -5.8      6.763      9.091
  Name = 
  5 active torsions:
  status: ('A' for Active; 'I' for Inactive)
    1  A    between atoms: CA_1  and  C_2
    2  A    between atoms: C_10  and  C_20
    3  A    between atoms: C_10  and  C_24
    4  A    between atoms: C_13  and  C_24
    5  A    between atoms: C_24  and  C_26
                            x       y       z     vdW  Elec       q    Type
                         _______ _______ _______ _____ _____    ______ ____

>  <TORSDO>
F 5

$$$$
=
 OpenBabel10222416393D

 30 33  0  0  1  0  0  0  0  0999 V2000
  188.6120  177.0810  143.7220 C   0  0  1  0  0  3  0  0  0  0  0  0
  185.1280  178.5970  143.3500 C   0  0  0  0  0  0  0  0  0  0  0  0
  184.3180  178.3970  146.3870 C   0  0  0  0  0  2  0  0  0  0  0  0
  183.8230  178.6670  144.0960 C   0  0  2  0  0  3  0  0  0  0  0  0
  185.7860  177.9860  146.3350 C   0  0  0  0  0  2  0  0  0  0  0  0
  182.7960  179.3310  143.3090 N   0  0  0  0  0  1  0  0  0  0  0  0
  185.2990  179.3110  142.2020 N   0  0  0  0  0  0  0  0  0  0  0  0
  186.4750  179.3160  141.5230 C   0  0  0  0  0  3  0  0  0  0  0  0
  187.5600  178.5850  142.0010 C   0  0  0  0  0  3  0  0  0  0  0  0
  186.2030  177.8460  143.8700 C   0  0  0  0  0  0  0  0  0  0  0  0
  187.4300  177.8410  143.1780 C   0  0  0  0  0  0  0  0  0  0  0  0
  184.0120  179.3790  145.3520 N   0  0  0  0  0  2  0  0  0  0  0  0
  186.0520  177.0660  145.1490 C   0  0  0  0  0  2  0  0  0  0  0  0
  191.4100  177.1260  141.4570 C   0  0  0  0  0  0  0  0  0  0  0  0
  190.4880  175.4640  143.1280 C   0  0  0  0  0  2  0  0  0  0  0  0
  190.1230  177.9100  139.5830 N   0  0  0  0  0  1  0  0  0  0  0  0
  190.2430  177.1640  140.7930 C   0  0  0  0  0  0  0  0  0  0  0  0
  189.1070  175.9960  142.7520 C   0  0  2  0  0  3  0  0  0  0  0  0
  189.0470  176.3780  141.2640 C   0  0  0  0  0  2  0  0  0  0  0  0
  191.5310  176.3770  142.6730 N   0  0  0  0  0  2  0  0  0  0  0  0
  192.5970  177.8930  140.9730 C   0  0  0  0  0  2  0  0  0  0  0  0
  193.3120  177.1230  140.0580 O   0  0  0  0  0  1  0  0  0  0  0  0
  189.7060  178.0110  144.2490 C   0  0  0  0  0  2  0  0  0  0  0  0
  190.0070  177.6180  148.5170 C   0  0  0  0  0  3  0  0  0  0  0  0
  190.9600  177.2670  146.3160 C   0  0  0  0  0  0  0  0  0  0  0  0
  188.8100  178.3660  146.5520 C   0  0  0  0  0  3  0  0  0  0  0  0
  191.0380  177.1360  147.7060 C   0  0  0  0  0  3  0  0  0  0  0  0
  189.8400  177.8890  145.7330 C   0  0  0  0  0  0  0  0  0  0  0  0
  188.8930  178.2330  147.9400 C   0  0  0  0  0  3  0  0  0  0  0  0
  192.0180  176.7620  145.5060 N   0  0  0  0  0  1  0  0  0  0  0  0
  1 23  1  6  0  0  0
  2 10  1  0  0  0  0
  2  4  1  0  0  0  0
  4  6  1  6  0  0  0
  4 12  1  0  0  0  0
  5  3  1  0  0  0  0
  7  2  2  0  0  0  0
  8  9  2  0  0  0  0
  8  7  1  0  0  0  0
  9 11  1  0  0  0  0
 10 13  1  0  0  0  0
 11  1  1  0  0  0  0
 11 10  2  0  0  0  0
 12  3  1  0  0  0  0
 13  5  1  0  0  0  0
 14 20  1  0  0  0  0
 16 17  1  0  0  0  0
 17 19  1  0  0  0  0
 17 14  2  0  0  0  0
 18 15  1  0  0  0  0
 18  1  1  1  0  0  0
 19 18  1  0  0  0  0
 20 15  1  0  0  0  0
 21 14  1  0  0  0  0
 22 21  1  0  0  0  0
 23 28  1  0  0  0  0
 25 27  1  0  0  0  0
 26 29  2  0  0  0  0
 27 24  2  0  0  0  0
 28 25  2  0  0  0  0
 28 26  1  0  0  0  0
 29 24  1  0  0  0  0
 30 25  1  0  0  0  0
M  END
>  <MODEL>
6

>  <REMARK>
 VINA RESULT:      -5.8      4.617      8.564
  Name = 
  5 active torsions:
  status: ('A' for Active; 'I' for Inactive)
    1  A    between atoms: CA_1  and  C_2
    2  A    between atoms: C_10  and  C_20
    3  A    between atoms: C_10  and  C_24
    4  A    between atoms: C_13  and  C_24
    5  A    between atoms: C_24  and  C_26
                            x       y       z     vdW  Elec       q    Type
                         _______ _______ _______ _____ _____    ______ ____

>  <TORSDO>
F 5

$$$$
=
 OpenBabel10222416393D

 30 33  0  0  1  0  0  0  0  0999 V2000
  180.2740  178.5600  139.6650 C   0  0  1  0  0  3  0  0  0  0  0  0
  183.2120  178.5510  142.1040 C   0  0  0  0  0  0  0  0  0  0  0  0
  185.4740  178.9540  139.9490 C   0  0  0  0  0  2  0  0  0  0  0  0
  184.7050  178.3590  142.0980 C   0  0  2  0  0  3  0  0  0  0  0  0
  184.1610  179.1010  139.1860 C   0  0  0  0  0  2  0  0  0  0  0  0
  185.2440  178.3550  143.4500 N   0  0  0  0  0  1  0  0  0  0  0  0
  182.5730  178.9170  143.2500 N   0  0  0  0  0  0  0  0  0  0  0  0
  181.2350  179.1490  143.2880 C   0  0  0  0  0  3  0  0  0  0  0  0
  180.4720  179.0250  142.1300 C   0  0  0  0  0  3  0  0  0  0  0  0
  182.4750  178.4180  140.9070 C   0  0  0  0  0  0  0  0  0  0  0  0
  181.0870  178.6550  140.9300 C   0  0  0  0  0  0  0  0  0  0  0  0
  185.3350  179.4200  141.3250 N   0  0  0  0  0  2  0  0  0  0  0  0
  183.1580  178.0380  139.6200 C   0  0  0  0  0  2  0  0  0  0  0  0
  180.8700  175.2960  138.2680 C   0  0  0  0  0  0  0  0  0  0  0  0
  179.9410  176.1630  140.4560 C   0  0  0  0  0  2  0  0  0  0  0  0
  179.8540  175.8100  136.1500 N   0  0  0  0  0  1  0  0  0  0  0  0
  179.9420  175.9670  137.5640 C   0  0  0  0  0  0  0  0  0  0  0  0
  179.3650  177.3200  139.6450 C   0  0  2  0  0  3  0  0  0  0  0  0
  178.9330  176.8550  138.2450 C   0  0  0  0  0  2  0  0  0  0  0  0
  180.9590  175.4540  139.6890 N   0  0  0  0  0  2  0  0  0  0  0  0
  181.8550  174.4030  137.5880 C   0  0  0  0  0  2  0  0  0  0  0  0
  183.1470  174.8790  137.8030 O   0  0  0  0  0  1  0  0  0  0  0  0
  179.5650  179.8750  139.3320 C   0  0  0  0  0  2  0  0  0  0  0  0
  180.7700  181.3000  135.4620 C   0  0  0  0  0  3  0  0  0  0  0  0
  179.8680  181.7530  137.6660 C   0  0  0  0  0  0  0  0  0  0  0  0
  180.5180  179.4970  137.0560 C   0  0  0  0  0  3  0  0  0  0  0  0
  180.2530  182.2000  136.3990 C   0  0  0  0  0  3  0  0  0  0  0  0
  180.0030  180.3930  138.0000 C   0  0  0  0  0  0  0  0  0  0  0  0
  180.9020  179.9480  135.7910 C   0  0  0  0  0  3  0  0  0  0  0  0
  179.3370  182.6850  138.6040 N   0  0  0  0  0  1  0  0  0  0  0  0
  1 23  1  1  0  0  0
  1 11  1  0  0  0  0
  2  7  1  0  0  0  0
  3 12  1  0  0  0  0
  4  2  1  0  0  0  0
  4  6  1  1  0  0  0
  5 13  1  0  0  0  0
  5  3  1  0  0  0  0
  7  8  2  0  0  0  0
  9  8  1  0  0  0  0
 10 11  1  0  0  0  0
 10  2  2  0  0  0  0
 11  9  2  0  0  0  0
 12  4  1  0  0  0  0
 13 10  1  0  0  0  0
 14 20  1  0  0  0  0
 16 17  1  0  0  0  0
 17 19  1  0  0  0  0
 17 14  2  0  0  0  0
 18  1  1  6  0  0  0
 18 15  1  0  0  0  0
 19 18  1  0  0  0  0
 20 15  1  0  0  0  0
 21 22  1  0  0  0  0
 21 14  1  0  0  0  0
 24 29  2  0  0  0  0
 24 27  1  0  0  0  0
 25 28  1  0  0  0  0
 25 30  1  0  0  0  0
 26 28  2  0  0  0  0
 27 25  2  0  0  0  0
 28 23  1  0  0  0  0
 29 26  1  0  0  0  0
M  END
>  <MODEL>
7

>  <REMARK>
 VINA RESULT:      -5.8      6.859     10.190
  Name = 
  5 active torsions:
  status: ('A' for Active; 'I' for Inactive)
    1  A    between atoms: CA_1  and  C_2
    2  A    between atoms: C_10  and  C_20
    3  A    between atoms: C_10  and  C_24
    4  A    between atoms: C_13  and  C_24
    5  A    between atoms: C_24  and  C_26
                            x       y       z     vdW  Elec       q    Type
                         _______ _______ _______ _____ _____    ______ ____

>  <TORSDO>
F 5

$$$$
=
 OpenBabel10222416393D

 30 33  0  0  1  0  0  0  0  0999 V2000
  189.0450  177.6010  139.3020 C   0  0  1  0  0  3  0  0  0  0  0  0
  188.4180  177.4730  143.0650 C   0  0  0  0  0  0  0  0  0  0  0  0
  191.3870  176.8460  143.9070 C   0  0  0  0  0  2  0  0  0  0  0  0
  189.0670  176.9480  144.3180 C   0  0  2  0  0  3  0  0  0  0  0  0
  191.4430  177.1130  142.4060 C   0  0  0  0  0  2  0  0  0  0  0  0
  188.2060  177.1270  145.4770 N   0  0  0  0  0  1  0  0  0  0  0  0
  187.2850  178.2270  143.1450 N   0  0  0  0  0  0  0  0  0  0  0  0
  186.6950  178.7620  142.0460 C   0  0  0  0  0  3  0  0  0  0  0  0
  187.2510  178.5570  140.7860 C   0  0  0  0  0  3  0  0  0  0  0  0
  189.0150  177.2450  141.8070 C   0  0  0  0  0  0  0  0  0  0  0  0
  188.4160  177.7930  140.6570 C   0  0  0  0  0  0  0  0  0  0  0  0
  190.3330  177.6310  144.5390 N   0  0  0  0  0  2  0  0  0  0  0  0
  190.2800  176.4360  141.6900 C   0  0  0  0  0  2  0  0  0  0  0  0
  187.8960  176.4370  136.0940 C   0  0  0  0  0  0  0  0  0  0  0  0
  186.8870  177.8090  137.9650 C   0  0  0  0  0  2  0  0  0  0  0  0
  189.8790  177.1280  134.9220 N   0  0  0  0  0  1  0  0  0  0  0  0
  188.9210  177.2970  135.9640 C   0  0  0  0  0  0  0  0  0  0  0  0
  188.2920  178.3580  138.1940 C   0  0  2  0  0  3  0  0  0  0  0  0
  189.0570  178.4960  136.8680 C   0  0  0  0  0  2  0  0  0  0  0  0
  186.9330  176.6060  137.1410 N   0  0  0  0  0  2  0  0  0  0  0  0
  187.7580  175.2620  135.1820 C   0  0  0  0  0  2  0  0  0  0  0  0
  188.1310  174.1000  135.8540 O   0  0  0  0  0  1  0  0  0  0  0  0
  190.5550  177.8440  139.3250 C   0  0  0  0  0  2  0  0  0  0  0  0
  192.6220  174.5040  137.5840 C   0  0  0  0  0  3  0  0  0  0  0  0
  192.6980  176.6380  138.7310 C   0  0  0  0  0  0  0  0  0  0  0  0
  190.5630  175.6290  138.1740 C   0  0  0  0  0  3  0  0  0  0  0  0
  193.3560  175.5500  138.1500 C   0  0  0  0  0  3  0  0  0  0  0  0
  191.2910  176.6790  138.7470 C   0  0  0  0  0  0  0  0  0  0  0  0
  191.2250  174.5440  137.5960 C   0  0  0  0  0  3  0  0  0  0  0  0
  193.4640  177.6980  139.2970 N   0  0  0  0  0  1  0  0  0  0  0  0
  1 23  1  1  0  0  0
  1 11  1  0  0  0  0
  2  7  1  0  0  0  0
  2  4  1  0  0  0  0
  3 12  1  0  0  0  0
  4 12  1  0  0  0  0
  4  6  1  1  0  0  0
  5  3  1  0  0  0  0
  8  7  2  0  0  0  0
  9  8  1  0  0  0  0
 10  2  2  0  0  0  0
 11  9  2  0  0  0  0
 11 10  1  0  0  0  0
 13 10  1  0  0  0  0
 13  5  1  0  0  0  0
 14 20  1  0  0  0  0
 15 18  1  0  0  0  0
 16 17  1  0  0  0  0
 17 14  2  0  0  0  0
 17 19  1  0  0  0  0
 18  1  1  1  0  0  0
 19 18  1  0  0  0  0
 20 15  1  0  0  0  0
 21 22  1  0  0  0  0
 21 14  1  0  0  0  0
 24 29  2  0  0  0  0
 24 27  1  0  0  0  0
 25 28  1  0  0  0  0
 25 30  1  0  0  0  0
 26 28  2  0  0  0  0
 27 25  2  0  0  0  0
 28 23  1  0  0  0  0
 29 26  1  0  0  0  0
M  END
>  <MODEL>
8

>  <REMARK>
 VINA RESULT:      -5.7      2.265      5.660
  Name = 
  5 active torsions:
  status: ('A' for Active; 'I' for Inactive)
    1  A    between atoms: CA_1  and  C_2
    2  A    between atoms: C_10  and  C_20
    3  A    between atoms: C_10  and  C_24
    4  A    between atoms: C_13  and  C_24
    5  A    between atoms: C_24  and  C_26
                            x       y       z     vdW  Elec       q    Type
                         _______ _______ _______ _____ _____    ______ ____

>  <TORSDO>
F 5

$$$$
=
 OpenBabel10222416393D

 30 33  0  0  1  0  0  0  0  0999 V2000
  185.1680  178.1540  138.7340 C   0  0  1  0  0  3  0  0  0  0  0  0
  181.3660  178.4630  138.6100 C   0  0  0  0  0  0  0  0  0  0  0  0
  180.7310  175.5830  139.7150 C   0  0  0  0  0  2  0  0  0  0  0  0
  180.1430  177.5830  138.6120 C   0  0  2  0  0  3  0  0  0  0  0  0
  182.2420  175.7380  139.8440 C   0  0  0  0  0  2  0  0  0  0  0  0
  178.9310  178.3600  138.4070 N   0  0  0  0  0  1  0  0  0  0  0  0
  181.2330  179.8180  138.6570 N   0  0  0  0  0  0  0  0  0  0  0  0
  182.3080  180.6470  138.7060 C   0  0  0  0  0  3  0  0  0  0  0  0
  183.5960  180.1180  138.7200 C   0  0  0  0  0  3  0  0  0  0  0  0
  182.6540  177.8870  138.6260 C   0  0  0  0  0  0  0  0  0  0  0  0
  183.7790  178.7320  138.6770 C   0  0  0  0  0  0  0  0  0  0  0  0
  180.0560  176.8660  139.8760 N   0  0  0  0  0  2  0  0  0  0  0  0
  182.8300  176.3920  138.5990 C   0  0  0  0  0  2  0  0  0  0  0  0
  188.4810  177.1440  137.7500 C   0  0  0  0  0  0  0  0  0  0  0  0
  186.1380  176.3420  137.2300 C   0  0  0  0  0  2  0  0  0  0  0  0
  189.2150  179.3770  137.2410 N   0  0  0  0  0  1  0  0  0  0  0  0
  188.1960  178.3820  137.3100 C   0  0  0  0  0  0  0  0  0  0  0  0
  185.7150  177.8040  137.3400 C   0  0  2  0  0  3  0  0  0  0  0  0
  186.8170  178.7410  136.8200 C   0  0  0  0  0  2  0  0  0  0  0  0
  187.4580  176.1440  137.8200 N   0  0  0  0  0  2  0  0  0  0  0  0
  189.8550  176.7910  138.2160 C   0  0  0  0  0  2  0  0  0  0  0  0
  190.0400  175.4120  138.1290 O   0  0  0  0  0  1  0  0  0  0  0  0
  186.1120  178.9970  139.5940 C   0  0  0  0  0  2  0  0  0  0  0  0
  185.6880  177.8790  143.7210 C   0  0  0  0  0  3  0  0  0  0  0  0
  187.1120  178.2500  141.7940 C   0  0  0  0  0  0  0  0  0  0  0  0
  184.7200  178.6250  141.6320 C   0  0  0  0  0  3  0  0  0  0  0  0
  186.9560  177.8780  143.1330 C   0  0  0  0  0  3  0  0  0  0  0  0
  185.9880  178.6300  141.0380 C   0  0  0  0  0  0  0  0  0  0  0  0
  184.5700  178.2520  142.9710 C   0  0  0  0  0  3  0  0  0  0  0  0
  188.4120  178.2350  141.2110 N   0  0  0  0  0  1  0  0  0  0  0  0
  1 23  1  6  0  0  0
  2  4  1  0  0  0  0
  2 10  2  0  0  0  0
  2  7  1  0  0  0  0
  3  5  1  0  0  0  0
  3 12  1  0  0  0  0
  4  6  1  1  0  0  0
  4 12  1  0  0  0  0
  7  8  2  0  0  0  0
  8  9  1  0  0  0  0
 10 11  1  0  0  0  0
 11  9  2  0  0  0  0
 11  1  1  0  0  0  0
 13 10  1  0  0  0  0
 13  5  1  0  0  0  0
 14 20  1  0  0  0  0
 14 21  1  0  0  0  0
 15 18  1  0  0  0  0
 15 20  1  0  0  0  0
 16 17  1  0  0  0  0
 17 14  2  0  0  0  0
 18  1  1  1  0  0  0
 19 17  1  0  0  0  0
 19 18  1  0  0  0  0
 22 21  1  0  0  0  0
 23 28  1  0  0  0  0
 25 27  2  0  0  0  0
 26 29  1  0  0  0  0
 27 24  1  0  0  0  0
 28 26  2  0  0  0  0
 28 25  1  0  0  0  0
 29 24  2  0  0  0  0
 30 25  1  0  0  0  0
M  END
>  <MODEL>
9

>  <REMARK>
 VINA RESULT:      -5.7      4.080      8.095
  Name = 
  5 active torsions:
  status: ('A' for Active; 'I' for Inactive)
    1  A    between atoms: CA_1  and  C_2
    2  A    between atoms: C_10  and  C_20
    3  A    between atoms: C_10  and  C_24
    4  A    between atoms: C_13  and  C_24
    5  A    between atoms: C_24  and  C_26
                            x       y       z     vdW  Elec       q    Type
                         _______ _______ _______ _____ _____    ______ ____

>  <TORSDO>
F 5

$$$$
