=
 OpenBabel10222421123D

 34 38  0  0  1  0  0  0  0  0999 V2000
  188.8500  177.2590  141.3570 C   0  0  0  0  0  2  0  0  0  0  0  0
  187.1450  177.9360  143.5440 C   0  0  0  0  0  3  0  0  0  0  0  0
  185.1240  179.2320  140.6660 N   0  0  0  0  0  0  0  0  0  0  0  0
  188.1440  177.0720  143.7710 C   0  0  0  0  0  0  0  0  0  0  0  0
  187.1110  178.2300  139.7670 C   0  0  0  0  0  0  0  0  0  0  0  0
  185.8800  178.8780  139.5960 C   0  0  0  0  0  3  0  0  0  0  0  0
  185.5160  178.9820  141.9440 C   0  0  0  0  0  0  0  0  0  0  0  0
  187.5270  177.9230  141.0810 C   0  0  0  0  0  0  0  0  0  0  0  0
  190.2000  175.9080  142.9390 C   0  0  0  0  0  1  0  0  0  0  0  0
  186.7220  178.2970  142.1750 C   0  0  0  0  0  0  0  0  0  0  0  0
  188.7940  176.3690  142.6000 C   0  0  2  0  0  3  0  0  0  0  0  0
  190.3460  174.8930  137.2190 C   0  0  1  0  0  3  0  0  0  0  0  0
  189.8380  177.2020  136.5740 O   0  0  0  0  0  0  0  0  0  0  0  0
  187.2800  177.1080  137.5410 C   0  0  0  0  0  2  0  0  0  0  0  0
  187.9910  175.7730  137.4200 C   0  0  0  0  0  2  0  0  0  0  0  0
  190.2000  177.7110  137.8080 N   0  0  2  0  0  0  0  0  0  0  0  0
  187.8980  177.8890  138.6070 N   0  0  0  0  0  0  0  0  0  0  0  0
  190.6640  176.7440  138.8210 C   0  0  0  0  0  2  0  0  0  0  0  0
  191.3470  175.5620  138.1580 C   0  0  0  0  0  2  0  0  0  0  0  0
  189.3140  175.8810  136.6590 C   0  0  2  0  0  3  0  0  0  0  0  0
  189.1570  178.5950  138.3430 C   0  0  2  0  0  3  0  0  0  0  0  0
  188.9360  179.6640  137.4720 O   0  0  0  0  0  1  0  0  0  0  0  0
  190.9570  174.0890  136.2310 O   0  0  0  0  0  0  0  0  0  0  0  0
  192.2670  173.7800  136.6320 C   0  0  0  0  0  1  0  0  0  0  0  0
  184.6140  179.3750  143.0790 C   0  0  2  0  0  3  0  0  0  0  0  0
  184.2980  178.2010  143.9110 N   0  0  0  0  0  2  0  0  0  0  0  0
  182.2670  179.5180  143.6800 C   0  0  0  0  0  1  0  0  0  0  0  0
  183.3170  178.7130  142.9450 C   0  0  1  0  0  3  0  0  0  0  0  0
  188.5450  176.7300  145.0760 O   0  0  0  0  0  0  0  0  0  0  0  0
  189.0130  177.6120  146.0650 C   0  0  0  0  0  0  0  0  0  0  0  0
  190.1530  178.1460  145.9770 O   0  0  0  0  0  0  0  0  0  0  0  0
  188.6530  177.8990  148.4590 C   0  0  0  0  0  2  0  0  0  0  0  0
  188.1570  177.8980  147.2280 C   0  0  0  0  0  0  0  0  0  0  0  0
  186.7110  178.1960  147.0380 C   0  0  0  0  0  1  0  0  0  0  0  0
  1 11  1  0  0  0  0
  2  4  2  0  0  0  0
  3  7  1  0  0  0  0
  4 29  1  0  0  0  0
  5  8  2  0  0  0  0
  6  5  1  0  0  0  0
  6  3  2  0  0  0  0
  7 10  2  0  0  0  0
  8  1  1  0  0  0  0
  8 10  1  0  0  0  0
 10  2  1  0  0  0  0
 11  9  1  1  0  0  0
 11  4  1  0  0  0  0
 12 23  1  6  0  0  0
 12 19  1  0  0  0  0
 13 20  1  0  0  0  0
 13 16  1  0  0  0  0
 14 17  1  0  0  0  0
 15 14  1  0  0  0  0
 16 21  1  0  0  0  0
 16 18  1  1  0  0  0
 17  5  1  0  0  0  0
 19 18  1  0  0  0  0
 20 12  1  0  0  0  0
 20 15  1  1  0  0  0
 21 22  1  6  0  0  0
 21 17  1  0  0  0  0
 23 24  1  0  0  0  0
 25  7  1  6  0  0  0
 25 26  1  0  0  0  0
 28 25  1  0  0  0  0
 28 27  1  1  0  0  0
 28 26  1  0  0  0  0
 29 30  1  0  0  0  0
 30 33  1  0  0  0  0
 31 30  2  0  0  0  0
 33 32  2  0  0  0  0
 34 33  1  0  0  0  0
M  END
>  <MODEL>
1

>  <REMARK>
 VINA RESULT:      -8.9      0.000      0.000
  Name = 
  6 active torsions:
  status: ('A' for Active; 'I' for Inactive)
    1  A    between atoms: C_4  and  O_23
    2  A    between atoms: C_5  and  O_24
    3  A    between atoms: C_7  and  N_21
    4  A    between atoms: C_10  and  C_12
    5  A    between atoms: C_11  and  C_14
    6  A    between atoms: C_14  and  O_23
                            x       y       z     vdW  Elec       q    Type
                         _______ _______ _______ _____ _____    ______ ____

>  <TORSDO>
F 6

$$$$
=
 OpenBabel10222421123D

 34 38  0  0  1  0  0  0  0  0999 V2000
  189.3150  177.9700  140.0210 C   0  0  0  0  0  2  0  0  0  0  0  0
  188.4200  178.5140  142.6770 C   0  0  0  0  0  3  0  0  0  0  0  0
  185.1850  178.7370  140.7970 N   0  0  0  0  0  0  0  0  0  0  0  0
  189.6460  177.9960  142.5220 C   0  0  0  0  0  0  0  0  0  0  0  0
  186.9040  178.1690  139.2210 C   0  0  0  0  0  0  0  0  0  0  0  0
  185.5610  178.4280  139.5300 C   0  0  0  0  0  3  0  0  0  0  0  0
  186.0770  178.8120  141.8200 C   0  0  0  0  0  0  0  0  0  0  0  0
  187.8490  178.2020  140.2710 C   0  0  0  0  0  0  0  0  0  0  0  0
  191.5010  177.3040  140.9870 C   0  0  0  0  0  1  0  0  0  0  0  0
  187.4320  178.5200  141.5780 C   0  0  0  0  0  0  0  0  0  0  0  0
  190.0010  177.3120  141.2210 C   0  0  2  0  0  3  0  0  0  0  0  0
  189.5850  175.2250  135.7230 C   0  0  1  0  0  3  0  0  0  0  0  0
  188.4430  177.3450  135.2660 O   0  0  0  0  0  0  0  0  0  0  0  0
  186.4740  176.8980  137.1130 C   0  0  0  0  0  2  0  0  0  0  0  0
  187.3370  175.7010  136.7640 C   0  0  0  0  0  2  0  0  0  0  0  0
  189.1190  178.0180  136.2680 N   0  0  2  0  0  0  0  0  0  0  0  0
  187.2710  177.8670  137.8590 N   0  0  0  0  0  0  0  0  0  0  0  0
  190.0940  177.2390  137.0570 C   0  0  0  0  0  2  0  0  0  0  0  0
  190.7070  176.1390  136.2100 C   0  0  0  0  0  2  0  0  0  0  0  0
  188.2500  175.9670  135.5650 C   0  0  2  0  0  3  0  0  0  0  0  0
  188.1890  178.7520  137.1340 C   0  0  2  0  0  3  0  0  0  0  0  0
  187.4670  179.6850  136.3860 O   0  0  0  0  0  1  0  0  0  0  0  0
  189.9420  174.4540  134.5950 O   0  0  0  0  0  0  0  0  0  0  0  0
  190.5230  173.2490  135.0250 C   0  0  0  0  0  1  0  0  0  0  0  0
  185.5850  179.1290  143.2030 C   0  0  2  0  0  3  0  0  0  0  0  0
  185.4720  177.8970  144.0010 N   0  0  0  0  0  2  0  0  0  0  0  0
  183.5410  179.2860  144.5030 C   0  0  0  0  0  1  0  0  0  0  0  0
  184.2740  178.5190  143.4240 C   0  0  1  0  0  3  0  0  0  0  0  0
  190.5850  177.9910  143.5700 O   0  0  0  0  0  0  0  0  0  0  0  0
  190.8240  176.9410  144.4730 C   0  0  0  0  0  0  0  0  0  0  0  0
  191.4740  175.9170  144.1260 O   0  0  0  0  0  0  0  0  0  0  0  0
  189.0430  177.4380  146.0620 C   0  0  0  0  0  2  0  0  0  0  0  0
  190.2910  177.0430  145.8410 C   0  0  0  0  0  0  0  0  0  0  0  0
  191.1490  176.6970  147.0070 C   0  0  0  0  0  1  0  0  0  0  0  0
  1  8  1  0  0  0  0
  1 11  1  0  0  0  0
  3  7  1  0  0  0  0
  4  2  2  0  0  0  0
  4 29  1  0  0  0  0
  5  6  1  0  0  0  0
  5  8  2  0  0  0  0
  6  3  2  0  0  0  0
  8 10  1  0  0  0  0
 10  7  2  0  0  0  0
 10  2  1  0  0  0  0
 11  9  1  6  0  0  0
 11  4  1  0  0  0  0
 12 23  1  6  0  0  0
 12 19  1  0  0  0  0
 13 20  1  0  0  0  0
 13 16  1  0  0  0  0
 14 17  1  0  0  0  0
 15 14  1  0  0  0  0
 16 18  1  1  0  0  0
 16 21  1  0  0  0  0
 17  5  1  0  0  0  0
 19 18  1  0  0  0  0
 20 12  1  0  0  0  0
 20 15  1  1  0  0  0
 21 22  1  6  0  0  0
 21 17  1  0  0  0  0
 23 24  1  0  0  0  0
 25  7  1  6  0  0  0
 25 28  1  0  0  0  0
 25 26  1  0  0  0  0
 28 26  1  0  0  0  0
 28 27  1  1  0  0  0
 29 30  1  0  0  0  0
 30 33  1  0  0  0  0
 31 30  2  0  0  0  0
 33 32  2  0  0  0  0
 33 34  1  0  0  0  0
M  END
>  <MODEL>
2

>  <REMARK>
 VINA RESULT:      -8.3      1.632      1.950
  Name = 
  6 active torsions:
  status: ('A' for Active; 'I' for Inactive)
    1  A    between atoms: C_4  and  O_23
    2  A    between atoms: C_5  and  O_24
    3  A    between atoms: C_7  and  N_21
    4  A    between atoms: C_10  and  C_12
    5  A    between atoms: C_11  and  C_14
    6  A    between atoms: C_14  and  O_23
                            x       y       z     vdW  Elec       q    Type
                         _______ _______ _______ _____ _____    ______ ____

>  <TORSDO>
F 6

$$$$
=
 OpenBabel10222421123D

 34 38  0  0  1  0  0  0  0  0999 V2000
  184.1020  178.2640  142.2930 C   0  0  0  0  0  2  0  0  0  0  0  0
  186.5070  178.0420  143.8150 C   0  0  0  0  0  3  0  0  0  0  0  0
  187.9060  178.3060  140.3480 N   0  0  0  0  0  0  0  0  0  0  0  0
  185.3720  178.3180  144.4720 C   0  0  0  0  0  0  0  0  0  0  0  0
  185.5160  178.4620  140.1820 C   0  0  0  0  0  0  0  0  0  0  0  0
  186.7890  178.4690  139.5940 C   0  0  0  0  0  3  0  0  0  0  0  0
  187.8510  178.1270  141.6950 C   0  0  0  0  0  0  0  0  0  0  0  0
  185.4300  178.3160  141.5850 C   0  0  0  0  0  0  0  0  0  0  0  0
  182.8810  178.5750  144.4290 C   0  0  0  0  0  1  0  0  0  0  0  0
  186.6040  178.1540  142.3450 C   0  0  0  0  0  0  0  0  0  0  0  0
  184.1850  178.8520  143.7030 C   0  0  2  0  0  3  0  0  0  0  0  0
  180.2630  178.9310  139.6540 C   0  0  1  0  0  3  0  0  0  0  0  0
  181.8740  178.5180  137.8530 O   0  0  0  0  0  0  0  0  0  0  0  0
  183.8670  179.9610  139.0520 C   0  0  0  0  0  2  0  0  0  0  0  0
  182.4790  180.1360  139.6390 C   0  0  0  0  0  2  0  0  0  0  0  0
  182.4110  177.4080  138.4800 N   0  0  2  0  0  0  0  0  0  0  0  0
  184.3500  178.6160  139.3470 N   0  0  0  0  0  0  0  0  0  0  0  0
  181.8380  177.0350  139.7870 C   0  0  0  0  0  2  0  0  0  0  0  0
  180.3720  177.4220  139.8570 C   0  0  0  0  0  2  0  0  0  0  0  0
  181.3930  179.4890  138.7770 C   0  0  2  0  0  3  0  0  0  0  0  0
  183.8760  177.4880  138.5370 C   0  0  2  0  0  3  0  0  0  0  0  0
  184.4050  177.5670  137.2470 O   0  0  0  0  0  1  0  0  0  0  0  0
  178.9750  179.3500  139.2540 O   0  0  0  0  0  0  0  0  0  0  0  0
  179.0190  180.7120  138.9100 C   0  0  0  0  0  1  0  0  0  0  0  0
  189.1300  177.9830  142.4690 C   0  0  2  0  0  3  0  0  0  0  0  0
  190.2110  177.5120  141.5880 N   0  0  0  0  0  2  0  0  0  0  0  0
  190.4250  176.3510  143.7130 C   0  0  0  0  0  1  0  0  0  0  0  0
  189.5420  176.5810  142.5060 C   0  0  1  0  0  3  0  0  0  0  0  0
  185.2830  178.2120  145.8720 O   0  0  0  0  0  0  0  0  0  0  0  0
  186.1370  178.8110  146.8130 C   0  0  0  0  0  0  0  0  0  0  0  0
  185.8980  179.9620  147.2720 O   0  0  0  0  0  0  0  0  0  0  0  0
  188.1140  177.4520  146.3810 C   0  0  0  0  0  2  0  0  0  0  0  0
  187.3360  178.0800  147.2540 C   0  0  0  0  0  0  0  0  0  0  0  0
  187.6990  178.0380  148.6970 C   0  0  0  0  0  1  0  0  0  0  0  0
  1 11  1  0  0  0  0
  2  4  2  0  0  0  0
  3  7  1  0  0  0  0
  4 29  1  0  0  0  0
  5  8  2  0  0  0  0
  6  5  1  0  0  0  0
  6  3  2  0  0  0  0
  7 10  2  0  0  0  0
  8  1  1  0  0  0  0
  8 10  1  0  0  0  0
 10  2  1  0  0  0  0
 11  9  1  1  0  0  0
 11  4  1  0  0  0  0
 12 23  1  6  0  0  0
 12 19  1  0  0  0  0
 13 16  1  0  0  0  0
 13 20  1  0  0  0  0
 14 17  1  0  0  0  0
 14 15  1  0  0  0  0
 16 21  1  0  0  0  0
 16 18  1  1  0  0  0
 17  5  1  0  0  0  0
 18 19  1  0  0  0  0
 20 15  1  1  0  0  0
 20 12  1  0  0  0  0
 21 22  1  6  0  0  0
 21 17  1  0  0  0  0
 24 23  1  0  0  0  0
 25  7  1  6  0  0  0
 25 28  1  0  0  0  0
 26 25  1  0  0  0  0
 26 28  1  0  0  0  0
 28 27  1  1  0  0  0
 29 30  1  0  0  0  0
 30 33  1  0  0  0  0
 30 31  2  0  0  0  0
 32 33  2  0  0  0  0
 33 34  1  0  0  0  0
M  END
>  <MODEL>
3

>  <REMARK>
 VINA RESULT:      -8.3      3.445      6.599
  Name = 
  6 active torsions:
  status: ('A' for Active; 'I' for Inactive)
    1  A    between atoms: C_4  and  O_23
    2  A    between atoms: C_5  and  O_24
    3  A    between atoms: C_7  and  N_21
    4  A    between atoms: C_10  and  C_12
    5  A    between atoms: C_11  and  C_14
    6  A    between atoms: C_14  and  O_23
                            x       y       z     vdW  Elec       q    Type
                         _______ _______ _______ _____ _____    ______ ____

>  <TORSDO>
F 6

$$$$
=
 OpenBabel10222421123D

 34 38  0  0  1  0  0  0  0  0999 V2000
  183.7530  178.3630  142.6140 C   0  0  0  0  0  2  0  0  0  0  0  0
  186.3070  178.1190  143.8660 C   0  0  0  0  0  3  0  0  0  0  0  0
  187.3270  178.4540  140.2750 N   0  0  0  0  0  0  0  0  0  0  0  0
  185.2490  178.3790  144.6450 C   0  0  0  0  0  0  0  0  0  0  0  0
  184.9330  178.6060  140.3680 C   0  0  0  0  0  0  0  0  0  0  0  0
  186.1350  178.6280  139.6480 C   0  0  0  0  0  3  0  0  0  0  0  0
  187.4160  178.2490  141.6160 C   0  0  0  0  0  0  0  0  0  0  0  0
  184.9970  178.4330  141.7690 C   0  0  0  0  0  0  0  0  0  0  0  0
  182.7660  178.6280  144.8740 C   0  0  0  0  0  1  0  0  0  0  0  0
  186.2460  178.2590  142.3960 C   0  0  0  0  0  0  0  0  0  0  0  0
  183.9850  178.9240  144.0180 C   0  0  2  0  0  3  0  0  0  0  0  0
  180.1070  180.7680  140.0090 C   0  0  1  0  0  3  0  0  0  0  0  0
  180.9830  178.9320  138.6410 O   0  0  0  0  0  0  0  0  0  0  0  0
  183.5560  179.8620  138.7050 C   0  0  0  0  0  2  0  0  0  0  0  0
  182.4900  180.8300  139.1840 C   0  0  0  0  0  2  0  0  0  0  0  0
  181.3190  178.1660  139.7440 N   0  0  2  0  0  0  0  0  0  0  0  0
  183.6840  178.7720  139.6660 N   0  0  0  0  0  0  0  0  0  0  0  0
  181.0330  178.7420  141.0720 C   0  0  0  0  0  2  0  0  0  0  0  0
  179.8200  179.6510  141.0090 C   0  0  0  0  0  2  0  0  0  0  0  0
  181.0730  180.3300  138.8990 C   0  0  2  0  0  3  0  0  0  0  0  0
  182.7020  177.6820  139.6510 C   0  0  2  0  0  3  0  0  0  0  0  0
  182.8650  176.9030  138.5050 O   0  0  0  0  0  1  0  0  0  0  0  0
  178.9410  181.4030  139.5270 O   0  0  0  0  0  0  0  0  0  0  0  0
  179.3030  182.5720  138.8380 C   0  0  0  0  0  1  0  0  0  0  0  0
  188.7710  178.0950  142.2470 C   0  0  2  0  0  3  0  0  0  0  0  0
  189.7200  177.5140  141.2820 N   0  0  0  0  0  2  0  0  0  0  0  0
  190.1360  176.4870  143.4470 C   0  0  0  0  0  1  0  0  0  0  0  0
  189.1270  176.6800  142.3350 C   0  0  1  0  0  3  0  0  0  0  0  0
  185.3090  178.2450  146.0450 O   0  0  0  0  0  0  0  0  0  0  0  0
  186.2400  178.8540  146.9040 C   0  0  0  0  0  0  0  0  0  0  0  0
  186.0560  180.0220  147.3430 O   0  0  0  0  0  0  0  0  0  0  0  0
  188.2770  177.6310  146.3560 C   0  0  0  0  0  2  0  0  0  0  0  0
  187.4540  178.1120  147.2810 C   0  0  0  0  0  0  0  0  0  0  0  0
  187.7820  177.8900  148.7160 C   0  0  0  0  0  1  0  0  0  0  0  0
  1 11  1  0  0  0  0
  2  4  2  0  0  0  0
  3  7  1  0  0  0  0
  4 29  1  0  0  0  0
  5  8  2  0  0  0  0
  6  3  2  0  0  0  0
  6  5  1  0  0  0  0
  7 10  2  0  0  0  0
  8 10  1  0  0  0  0
  8  1  1  0  0  0  0
 10  2  1  0  0  0  0
 11  4  1  0  0  0  0
 11  9  1  1  0  0  0
 12 23  1  6  0  0  0
 12 19  1  0  0  0  0
 13 20  1  0  0  0  0
 13 16  1  0  0  0  0
 14 15  1  0  0  0  0
 14 17  1  0  0  0  0
 16 18  1  1  0  0  0
 17  5  1  0  0  0  0
 19 18  1  0  0  0  0
 20 15  1  1  0  0  0
 20 12  1  0  0  0  0
 21 22  1  6  0  0  0
 21 17  1  0  0  0  0
 21 16  1  0  0  0  0
 24 23  1  0  0  0  0
 25  7  1  6  0  0  0
 25 28  1  0  0  0  0
 26 25  1  0  0  0  0
 26 28  1  0  0  0  0
 28 27  1  1  0  0  0
 29 30  1  0  0  0  0
 30 33  1  0  0  0  0
 30 31  2  0  0  0  0
 32 33  2  0  0  0  0
 33 34  1  0  0  0  0
M  END
>  <MODEL>
4

>  <REMARK>
 VINA RESULT:      -8.2      3.630      7.071
  Name = 
  6 active torsions:
  status: ('A' for Active; 'I' for Inactive)
    1  A    between atoms: C_4  and  O_23
    2  A    between atoms: C_5  and  O_24
    3  A    between atoms: C_7  and  N_21
    4  A    between atoms: C_10  and  C_12
    5  A    between atoms: C_11  and  C_14
    6  A    between atoms: C_14  and  O_23
                            x       y       z     vdW  Elec       q    Type
                         _______ _______ _______ _____ _____    ______ ____

>  <TORSDO>
F 6

$$$$
=
 OpenBabel10222421123D

 34 38  0  0  1  0  0  0  0  0999 V2000
  184.9730  178.1520  143.5540 C   0  0  0  0  0  2  0  0  0  0  0  0
  187.6290  177.5590  144.4150 C   0  0  0  0  0  3  0  0  0  0  0  0
  188.2190  178.2470  140.7790 N   0  0  0  0  0  0  0  0  0  0  0  0
  186.7050  177.8050  145.3540 C   0  0  0  0  0  0  0  0  0  0  0  0
  185.8810  178.5720  141.2100 C   0  0  0  0  0  0  0  0  0  0  0  0
  186.9810  178.5880  140.3410 C   0  0  0  0  0  3  0  0  0  0  0  0
  188.4560  177.8740  142.0650 C   0  0  0  0  0  0  0  0  0  0  0  0
  186.1020  178.2270  142.5610 C   0  0  0  0  0  0  0  0  0  0  0  0
  184.3050  178.2170  145.9410 C   0  0  0  0  0  1  0  0  0  0  0  0
  187.3980  177.8810  142.9920 C   0  0  0  0  0  0  0  0  0  0  0  0
  185.4290  178.5190  144.9670 C   0  0  2  0  0  3  0  0  0  0  0  0
  180.9010  177.2140  140.0050 C   0  0  1  0  0  3  0  0  0  0  0  0
  182.0360  179.2910  139.3680 O   0  0  0  0  0  0  0  0  0  0  0  0
  183.5560  179.3790  141.6420 C   0  0  0  0  0  2  0  0  0  0  0  0
  182.4040  178.3920  141.6540 C   0  0  0  0  0  2  0  0  0  0  0  0
  183.0970  178.6240  138.7810 N   0  0  2  0  0  0  0  0  0  0  0  0
  184.5750  178.9200  140.7040 N   0  0  0  0  0  0  0  0  0  0  0  0
  183.0610  177.1490  138.8120 C   0  0  0  0  0  2  0  0  0  0  0  0
  181.6280  176.6500  138.7870 C   0  0  0  0  0  2  0  0  0  0  0  0
  181.4690  178.5670  140.4550 C   0  0  2  0  0  3  0  0  0  0  0  0
  184.3820  179.1420  139.2670 C   0  0  2  0  0  3  0  0  0  0  0  0
  184.4960  180.5030  138.9720 O   0  0  0  0  0  1  0  0  0  0  0  0
  179.4950  177.2050  139.8720 O   0  0  0  0  0  0  0  0  0  0  0  0
  179.1590  177.3670  138.5170 C   0  0  0  0  0  1  0  0  0  0  0  0
  189.8580  177.5390  142.4860 C   0  0  2  0  0  3  0  0  0  0  0  0
  190.5370  176.7650  141.4330 N   0  0  0  0  0  2  0  0  0  0  0  0
  191.1500  175.7980  143.5780 C   0  0  0  0  0  1  0  0  0  0  0  0
  190.0100  176.0910  142.6260 C   0  0  1  0  0  3  0  0  0  0  0  0
  186.9270  177.4980  146.7090 O   0  0  0  0  0  0  0  0  0  0  0  0
  187.6570  178.2650  147.6320 C   0  0  0  0  0  0  0  0  0  0  0  0
  187.1480  179.2770  148.1880 O   0  0  0  0  0  0  0  0  0  0  0  0
  189.7480  178.5320  148.8560 C   0  0  0  0  0  2  0  0  0  0  0  0
  189.0450  177.8820  147.9380 C   0  0  0  0  0  0  0  0  0  0  0  0
  189.6850  176.7480  147.2160 C   0  0  0  0  0  1  0  0  0  0  0  0
  1 11  1  0  0  0  0
  2  4  2  0  0  0  0
  3  7  1  0  0  0  0
  4 29  1  0  0  0  0
  5  8  2  0  0  0  0
  6  3  2  0  0  0  0
  6  5  1  0  0  0  0
  7 10  2  0  0  0  0
  8 10  1  0  0  0  0
  8  1  1  0  0  0  0
 10  2  1  0  0  0  0
 11  4  1  0  0  0  0
 11  9  1  1  0  0  0
 12 23  1  6  0  0  0
 12 20  1  0  0  0  0
 13 20  1  0  0  0  0
 14 15  1  0  0  0  0
 16 18  1  1  0  0  0
 16 21  1  0  0  0  0
 16 13  1  0  0  0  0
 17  5  1  0  0  0  0
 17 14  1  0  0  0  0
 19 18  1  0  0  0  0
 19 12  1  0  0  0  0
 20 15  1  1  0  0  0
 21 22  1  1  0  0  0
 21 17  1  0  0  0  0
 24 23  1  0  0  0  0
 25  7  1  6  0  0  0
 25 28  1  0  0  0  0
 26 25  1  0  0  0  0
 26 28  1  0  0  0  0
 28 27  1  1  0  0  0
 29 30  1  0  0  0  0
 30 33  1  0  0  0  0
 30 31  2  0  0  0  0
 33 32  2  0  0  0  0
 34 33  1  0  0  0  0
M  END
>  <MODEL>
5

>  <REMARK>
 VINA RESULT:      -8.1      3.449      6.311
  Name = 
  6 active torsions:
  status: ('A' for Active; 'I' for Inactive)
    1  A    between atoms: C_4  and  O_23
    2  A    between atoms: C_5  and  O_24
    3  A    between atoms: C_7  and  N_21
    4  A    between atoms: C_10  and  C_12
    5  A    between atoms: C_11  and  C_14
    6  A    between atoms: C_14  and  O_23
                            x       y       z     vdW  Elec       q    Type
                         _______ _______ _______ _____ _____    ______ ____

>  <TORSDO>
F 6

$$$$
=
 OpenBabel10222421123D

 34 38  0  0  1  0  0  0  0  0999 V2000
  183.8340  178.9710  140.3130 C   0  0  0  0  0  2  0  0  0  0  0  0
  186.0030  178.9470  142.1680 C   0  0  0  0  0  3  0  0  0  0  0  0
  183.0840  178.9170  144.5180 N   0  0  0  0  0  0  0  0  0  0  0  0
  186.2720  178.6690  140.8850 C   0  0  0  0  0  0  0  0  0  0  0  0
  182.2160  178.8900  142.2800 C   0  0  0  0  0  0  0  0  0  0  0  0
  182.0260  178.8730  143.6690 C   0  0  0  0  0  3  0  0  0  0  0  0
  184.3670  178.9820  144.0740 C   0  0  0  0  0  0  0  0  0  0  0  0
  183.5400  178.9170  141.7880 C   0  0  0  0  0  0  0  0  0  0  0  0
  185.4820  178.5360  138.5110 C   0  0  0  0  0  1  0  0  0  0  0  0
  184.6210  178.9580  142.6900 C   0  0  0  0  0  0  0  0  0  0  0  0
  185.1430  178.2600  139.9650 C   0  0  2  0  0  3  0  0  0  0  0  0
  180.1410  178.7670  137.4040 C   0  0  1  0  0  3  0  0  0  0  0  0
  178.9310  179.2120  139.4890 O   0  0  0  0  0  0  0  0  0  0  0  0
  180.5310  177.5740  140.9870 C   0  0  0  0  0  2  0  0  0  0  0  0
  180.6700  177.4390  139.4830 C   0  0  0  0  0  2  0  0  0  0  0  0
  179.7790  180.2410  139.8550 N   0  0  2  0  0  0  0  0  0  0  0  0
  181.0670  178.8640  141.4080 N   0  0  0  0  0  0  0  0  0  0  0  0
  180.8890  180.5540  138.9350 C   0  0  0  0  0  2  0  0  0  0  0  0
  180.4950  180.2490  137.5010 C   0  0  0  0  0  2  0  0  0  0  0  0
  179.5880  178.2070  138.7230 C   0  0  2  0  0  3  0  0  0  0  0  0
  180.2530  180.0720  141.2340 C   0  0  2  0  0  3  0  0  0  0  0  0
  179.1720  180.0540  142.1180 O   0  0  0  0  0  1  0  0  0  0  0  0
  179.3490  178.4530  136.2780 O   0  0  0  0  0  0  0  0  0  0  0  0
  179.0810  179.6300  135.5590 C   0  0  0  0  0  1  0  0  0  0  0  0
  185.4900  178.9970  145.0710 C   0  0  2  0  0  3  0  0  0  0  0  0
  185.8870  177.6220  145.4150 N   0  0  0  0  0  2  0  0  0  0  0  0
  185.9100  178.9360  147.4600 C   0  0  0  0  0  1  0  0  0  0  0  0
  185.0510  178.4050  146.3340 C   0  0  1  0  0  3  0  0  0  0  0  0
  187.5890  178.6590  140.3900 O   0  0  0  0  0  0  0  0  0  0  0  0
  188.5930  177.7270  140.7040 C   0  0  0  0  0  0  0  0  0  0  0  0
  189.1650  177.0560  139.8020 O   0  0  0  0  0  0  0  0  0  0  0  0
  189.7790  178.3760  142.7320 C   0  0  0  0  0  2  0  0  0  0  0  0
  188.9660  177.5290  142.1140 C   0  0  0  0  0  0  0  0  0  0  0  0
  188.4300  176.3670  142.8740 C   0  0  0  0  0  1  0  0  0  0  0  0
  1  8  1  0  0  0  0
  2 10  1  0  0  0  0
  4  2  2  0  0  0  0
  5  6  1  0  0  0  0
  6  3  2  0  0  0  0
  7  3  1  0  0  0  0
  8  5  2  0  0  0  0
  8 10  1  0  0  0  0
 10  7  2  0  0  0  0
 11  9  1  6  0  0  0
 11  1  1  0  0  0  0
 11  4  1  0  0  0  0
 12 23  1  6  0  0  0
 12 19  1  0  0  0  0
 12 20  1  0  0  0  0
 13 16  1  0  0  0  0
 14 17  1  0  0  0  0
 15 14  1  0  0  0  0
 16 18  1  6  0  0  0
 16 21  1  0  0  0  0
 17  5  1  0  0  0  0
 19 18  1  0  0  0  0
 20 15  1  1  0  0  0
 20 13  1  0  0  0  0
 21 17  1  0  0  0  0
 21 22  1  1  0  0  0
 24 23  1  0  0  0  0
 25  7  1  6  0  0  0
 25 26  1  0  0  0  0
 25 28  1  0  0  0  0
 26 28  1  0  0  0  0
 28 27  1  1  0  0  0
 29 30  1  0  0  0  0
 29  4  1  0  0  0  0
 30 33  1  0  0  0  0
 31 30  2  0  0  0  0
 33 32  2  0  0  0  0
 33 34  1  0  0  0  0
M  END
>  <MODEL>
6

>  <REMARK>
 VINA RESULT:      -8.1      4.375      7.537
  Name = 
  6 active torsions:
  status: ('A' for Active; 'I' for Inactive)
    1  A    between atoms: C_4  and  O_23
    2  A    between atoms: C_5  and  O_24
    3  A    between atoms: C_7  and  N_21
    4  A    between atoms: C_10  and  C_12
    5  A    between atoms: C_11  and  C_14
    6  A    between atoms: C_14  and  O_23
                            x       y       z     vdW  Elec       q    Type
                         _______ _______ _______ _____ _____    ______ ____

>  <TORSDO>
F 6

$$$$
=
 OpenBabel10222421123D

 34 38  0  0  1  0  0  0  0  0999 V2000
  187.4760  178.3130  142.2050 C   0  0  0  0  0  2  0  0  0  0  0  0
  185.7950  178.7910  139.9470 C   0  0  0  0  0  3  0  0  0  0  0  0
  188.8450  177.4130  138.2600 N   0  0  0  0  0  0  0  0  0  0  0  0
  185.2320  178.8060  141.1630 C   0  0  0  0  0  0  0  0  0  0  0  0
  189.2530  177.3960  140.6250 C   0  0  0  0  0  0  0  0  0  0  0  0
  189.6530  177.1200  139.3110 C   0  0  0  0  0  3  0  0  0  0  0  0
  187.6220  177.9840  138.4240 C   0  0  0  0  0  0  0  0  0  0  0  0
  187.9710  177.9540  140.8290 C   0  0  0  0  0  0  0  0  0  0  0  0
  185.5060  178.7380  143.6520 C   0  0  0  0  0  1  0  0  0  0  0  0
  187.1500  178.2450  139.7230 C   0  0  0  0  0  0  0  0  0  0  0  0
  185.9580  178.1610  142.3220 C   0  0  2  0  0  3  0  0  0  0  0  0
  190.3540  177.3950  145.8100 C   0  0  1  0  0  3  0  0  0  0  0  0
  191.9300  176.9390  143.9890 O   0  0  0  0  0  0  0  0  0  0  0  0
  190.0320  175.7980  142.3810 C   0  0  0  0  0  2  0  0  0  0  0  0
  189.6310  176.0110  143.8280 C   0  0  0  0  0  2  0  0  0  0  0  0
  191.6490  178.1280  143.3400 N   0  0  2  0  0  0  0  0  0  0  0  0
  190.1470  177.0920  141.7160 N   0  0  0  0  0  0  0  0  0  0  0  0
  190.6470  179.0110  143.9680 C   0  0  0  0  0  2  0  0  0  0  0  0
  190.6650  178.8520  145.4770 C   0  0  0  0  0  2  0  0  0  0  0  0
  190.8120  176.4290  144.7080 C   0  0  2  0  0  3  0  0  0  0  0  0
  191.3540  177.9010  141.9210 C   0  0  2  0  0  3  0  0  0  0  0  0
  192.4470  177.3020  141.2900 O   0  0  0  0  0  1  0  0  0  0  0  0
  190.7720  177.0150  147.1050 O   0  0  0  0  0  0  0  0  0  0  0  0
  191.7380  176.0020  147.0000 C   0  0  0  0  0  1  0  0  0  0  0  0
  186.7690  178.2530  137.2170 C   0  0  2  0  0  3  0  0  0  0  0  0
  186.0260  177.0400  136.8360 N   0  0  0  0  0  2  0  0  0  0  0  0
  186.8040  178.1070  134.7950 C   0  0  0  0  0  1  0  0  0  0  0  0
  187.2240  177.4430  136.0880 C   0  0  1  0  0  3  0  0  0  0  0  0
  183.9420  179.3270  141.3740 O   0  0  0  0  0  0  0  0  0  0  0  0
  182.7360  178.6050  141.3610 C   0  0  0  0  0  0  0  0  0  0  0  0
  182.5630  177.6380  140.5690 O   0  0  0  0  0  0  0  0  0  0  0  0
  181.8440  179.0030  143.5940 C   0  0  0  0  0  2  0  0  0  0  0  0
  181.6580  179.0030  142.2810 C   0  0  0  0  0  0  0  0  0  0  0  0
  180.3320  179.4170  141.7450 C   0  0  0  0  0  1  0  0  0  0  0  0
  1 11  1  0  0  0  0
  2  4  2  0  0  0  0
  3  7  2  0  0  0  0
  3  6  1  0  0  0  0
  4 29  1  0  0  0  0
  4 11  1  0  0  0  0
  5  8  1  0  0  0  0
  5 17  1  0  0  0  0
  6  5  2  0  0  0  0
  7 10  1  0  0  0  0
  8  1  1  0  0  0  0
 10  2  1  0  0  0  0
 10  8  2  0  0  0  0
 11  9  1  1  0  0  0
 12 23  1  1  0  0  0
 13 20  1  0  0  0  0
 14 15  1  0  0  0  0
 16 18  1  1  0  0  0
 16 13  1  0  0  0  0
 17 21  1  0  0  0  0
 17 14  1  0  0  0  0
 18 19  1  0  0  0  0
 19 12  1  0  0  0  0
 20 15  1  6  0  0  0
 20 12  1  0  0  0  0
 21 22  1  1  0  0  0
 21 16  1  0  0  0  0
 24 23  1  0  0  0  0
 25  7  1  1  0  0  0
 26 25  1  0  0  0  0
 28 27  1  6  0  0  0
 28 26  1  0  0  0  0
 28 25  1  0  0  0  0
 30 29  1  0  0  0  0
 30 33  1  0  0  0  0
 31 30  2  0  0  0  0
 33 32  2  0  0  0  0
 34 33  1  0  0  0  0
M  END
>  <MODEL>
7

>  <REMARK>
 VINA RESULT:      -7.8      2.882      6.706
  Name = 
  6 active torsions:
  status: ('A' for Active; 'I' for Inactive)
    1  A    between atoms: C_4  and  O_23
    2  A    between atoms: C_5  and  O_24
    3  A    between atoms: C_7  and  N_21
    4  A    between atoms: C_10  and  C_12
    5  A    between atoms: C_11  and  C_14
    6  A    between atoms: C_14  and  O_23
                            x       y       z     vdW  Elec       q    Type
                         _______ _______ _______ _____ _____    ______ ____

>  <TORSDO>
F 6

$$$$
=
 OpenBabel10222421123D

 34 38  0  0  1  0  0  0  0  0999 V2000
  186.6050  178.6280  140.5030 C   0  0  0  0  0  2  0  0  0  0  0  0
  187.3710  178.2420  143.2250 C   0  0  0  0  0  3  0  0  0  0  0  0
  183.6380  178.2650  143.5550 N   0  0  0  0  0  0  0  0  0  0  0  0
  188.3020  178.0570  142.2790 C   0  0  0  0  0  0  0  0  0  0  0  0
  184.1640  178.5160  141.2260 C   0  0  0  0  0  0  0  0  0  0  0  0
  183.2320  178.3920  142.2660 C   0  0  0  0  0  3  0  0  0  0  0  0
  184.9520  178.2530  143.9020 C   0  0  0  0  0  0  0  0  0  0  0  0
  185.5370  178.4680  141.5520 C   0  0  0  0  0  0  0  0  0  0  0  0
  188.9660  178.2090  139.8690 C   0  0  0  0  0  1  0  0  0  0  0  0
  185.9330  178.3310  142.8970 C   0  0  0  0  0  0  0  0  0  0  0  0
  187.8670  177.8350  140.8480 C   0  0  2  0  0  3  0  0  0  0  0  0
  180.3070  179.7400  137.8020 C   0  0  1  0  0  3  0  0  0  0  0  0
  182.4410  178.6600  137.2640 O   0  0  0  0  0  0  0  0  0  0  0  0
  183.8180  179.9760  139.2290 C   0  0  0  0  0  2  0  0  0  0  0  0
  182.4340  180.5140  138.9170 C   0  0  0  0  0  2  0  0  0  0  0  0
  182.2520  177.6470  138.1870 N   0  0  2  0  0  0  0  0  0  0  0  0
  183.6950  178.6720  139.8710 N   0  0  0  0  0  0  0  0  0  0  0  0
  181.0060  177.6840  138.9760 C   0  0  0  0  0  2  0  0  0  0  0  0
  179.8860  178.3210  138.1740 C   0  0  0  0  0  2  0  0  0  0  0  0
  181.8300  179.8830  137.6610 C   0  0  2  0  0  3  0  0  0  0  0  0
  183.4310  177.4870  139.0470 C   0  0  2  0  0  3  0  0  0  0  0  0
  184.5540  177.1790  138.2750 O   0  0  0  0  0  1  0  0  0  0  0  0
  179.5850  180.2710  136.7100 O   0  0  0  0  0  0  0  0  0  0  0  0
  180.3760  181.2270  136.0540 C   0  0  0  0  0  1  0  0  0  0  0  0
  185.3290  178.0780  145.3460 C   0  0  2  0  0  3  0  0  0  0  0  0
  184.2780  178.6280  146.2190 N   0  0  0  0  0  2  0  0  0  0  0  0
  186.4300  179.2300  147.1750 C   0  0  0  0  0  1  0  0  0  0  0  0
  185.5150  179.3820  145.9800 C   0  0  1  0  0  3  0  0  0  0  0  0
  189.6710  177.9720  142.5940 O   0  0  0  0  0  0  0  0  0  0  0  0
  190.2770  178.3580  143.8020 C   0  0  0  0  0  0  0  0  0  0  0  0
  190.7160  179.5290  143.9680 O   0  0  0  0  0  0  0  0  0  0  0  0
  191.4430  176.5330  144.9220 C   0  0  0  0  0  2  0  0  0  0  0  0
  190.4100  177.3660  144.8810 C   0  0  0  0  0  0  0  0  0  0  0  0
  189.3810  177.2830  145.9540 C   0  0  0  0  0  1  0  0  0  0  0  0
  1 11  1  0  0  0  0
  1  8  1  0  0  0  0
  3  7  1  0  0  0  0
  4 29  1  0  0  0  0
  4  2  2  0  0  0  0
  5  8  2  0  0  0  0
  5  6  1  0  0  0  0
  6  3  2  0  0  0  0
  8 10  1  0  0  0  0
 10  2  1  0  0  0  0
 10  7  2  0  0  0  0
 11  9  1  6  0  0  0
 11  4  1  0  0  0  0
 12 23  1  6  0  0  0
 12 19  1  0  0  0  0
 13 20  1  0  0  0  0
 13 16  1  0  0  0  0
 14 17  1  0  0  0  0
 15 14  1  0  0  0  0
 16 18  1  1  0  0  0
 16 21  1  0  0  0  0
 17  5  1  0  0  0  0
 19 18  1  0  0  0  0
 20 12  1  0  0  0  0
 20 15  1  1  0  0  0
 21 22  1  6  0  0  0
 21 17  1  0  0  0  0
 24 23  1  0  0  0  0
 25  7  1  6  0  0  0
 25 28  1  0  0  0  0
 25 26  1  0  0  0  0
 28 26  1  0  0  0  0
 28 27  1  1  0  0  0
 29 30  1  0  0  0  0
 30 31  2  0  0  0  0
 30 33  1  0  0  0  0
 33 32  2  0  0  0  0
 33 34  1  0  0  0  0
M  END
>  <MODEL>
8

>  <REMARK>
 VINA RESULT:      -7.8      3.544      6.130
  Name = 
  6 active torsions:
  status: ('A' for Active; 'I' for Inactive)
    1  A    between atoms: C_4  and  O_23
    2  A    between atoms: C_5  and  O_24
    3  A    between atoms: C_7  and  N_21
    4  A    between atoms: C_10  and  C_12
    5  A    between atoms: C_11  and  C_14
    6  A    between atoms: C_14  and  O_23
                            x       y       z     vdW  Elec       q    Type
                         _______ _______ _______ _____ _____    ______ ____

>  <TORSDO>
F 6

$$$$
=
 OpenBabel10222421123D

 34 38  0  0  1  0  0  0  0  0999 V2000
  187.2490  178.2750  140.5410 C   0  0  0  0  0  2  0  0  0  0  0  0
  188.3600  178.2370  143.1710 C   0  0  0  0  0  3  0  0  0  0  0  0
  184.7000  178.3690  143.9680 N   0  0  0  0  0  0  0  0  0  0  0  0
  189.1610  177.9130  142.1460 C   0  0  0  0  0  0  0  0  0  0  0  0
  184.9220  178.3020  141.5790 C   0  0  0  0  0  0  0  0  0  0  0  0
  184.1310  178.3320  142.7360 C   0  0  0  0  0  3  0  0  0  0  0  0
  186.0490  178.3800  144.1430 C   0  0  0  0  0  0  0  0  0  0  0  0
  186.3260  178.2740  141.7300 C   0  0  0  0  0  0  0  0  0  0  0  0
  189.5090  177.7350  139.6720 C   0  0  0  0  0  1  0  0  0  0  0  0
  186.8920  178.3080  143.0190 C   0  0  0  0  0  0  0  0  0  0  0  0
  188.5450  177.5130  140.8240 C   0  0  2  0  0  3  0  0  0  0  0  0
  183.7790  175.8150  137.0390 C   0  0  1  0  0  3  0  0  0  0  0  0
  183.4300  178.1930  137.5230 O   0  0  0  0  0  0  0  0  0  0  0  0
  182.9220  177.7710  140.1780 C   0  0  0  0  0  2  0  0  0  0  0  0
  182.9210  176.5340  139.3000 C   0  0  0  0  0  2  0  0  0  0  0  0
  184.7490  178.3940  137.8900 N   0  0  2  0  0  0  0  0  0  0  0  0
  184.2830  178.2870  140.2860 N   0  0  0  0  0  0  0  0  0  0  0  0
  185.6450  177.2230  137.8320 C   0  0  0  0  0  2  0  0  0  0  0  0
  185.2060  176.2680  136.7380 C   0  0  0  0  0  2  0  0  0  0  0  0
  182.9770  176.8740  137.8100 C   0  0  2  0  0  3  0  0  0  0  0  0
  184.8400  179.0800  139.1840 C   0  0  2  0  0  3  0  0  0  0  0  0
  184.2050  180.3220  139.1180 O   0  0  0  0  0  1  0  0  0  0  0  0
  183.1040  175.3030  135.9100 O   0  0  0  0  0  0  0  0  0  0  0  0
  183.1970  173.9010  135.9130 C   0  0  0  0  0  1  0  0  0  0  0  0
  186.6080  178.3900  145.5370 C   0  0  2  0  0  3  0  0  0  0  0  0
  186.1430  177.2080  146.2830 N   0  0  0  0  0  2  0  0  0  0  0  0
  186.0790  179.1130  147.7920 C   0  0  0  0  0  1  0  0  0  0  0  0
  185.5280  178.5210  146.5130 C   0  0  1  0  0  3  0  0  0  0  0  0
  190.5590  177.8470  142.2920 O   0  0  0  0  0  0  0  0  0  0  0  0
  191.2830  177.9850  143.4890 C   0  0  0  0  0  0  0  0  0  0  0  0
  191.7620  179.0990  143.8370 O   0  0  0  0  0  0  0  0  0  0  0  0
  191.6690  175.5990  143.8000 C   0  0  0  0  0  2  0  0  0  0  0  0
  191.4920  176.8000  144.3360 C   0  0  0  0  0  0  0  0  0  0  0  0
  191.5120  176.9330  145.8190 C   0  0  0  0  0  1  0  0  0  0  0  0
  1 11  1  0  0  0  0
  1  8  1  0  0  0  0
  3  7  1  0  0  0  0
  4 29  1  0  0  0  0
  4  2  2  0  0  0  0
  5  8  2  0  0  0  0
  5  6  1  0  0  0  0
  6  3  2  0  0  0  0
  8 10  1  0  0  0  0
 10  2  1  0  0  0  0
 10  7  2  0  0  0  0
 11  9  1  6  0  0  0
 11  4  1  0  0  0  0
 12 23  1  6  0  0  0
 12 20  1  0  0  0  0
 13 20  1  0  0  0  0
 13 16  1  0  0  0  0
 14 17  1  0  0  0  0
 15 14  1  0  0  0  0
 16 18  1  1  0  0  0
 16 21  1  0  0  0  0
 17  5  1  0  0  0  0
 19 12  1  0  0  0  0
 19 18  1  0  0  0  0
 20 15  1  1  0  0  0
 21 22  1  6  0  0  0
 21 17  1  0  0  0  0
 23 24  1  0  0  0  0
 25  7  1  6  0  0  0
 25 26  1  0  0  0  0
 25 28  1  0  0  0  0
 26 28  1  0  0  0  0
 28 27  1  1  0  0  0
 29 30  1  0  0  0  0
 30 31  2  0  0  0  0
 30 33  1  0  0  0  0
 32 33  2  0  0  0  0
 33 34  1  0  0  0  0
M  END
>  <MODEL>
9

>  <REMARK>
 VINA RESULT:      -7.8      2.986      4.686
  Name = 
  6 active torsions:
  status: ('A' for Active; 'I' for Inactive)
    1  A    between atoms: C_4  and  O_23
    2  A    between atoms: C_5  and  O_24
    3  A    between atoms: C_7  and  N_21
    4  A    between atoms: C_10  and  C_12
    5  A    between atoms: C_11  and  C_14
    6  A    between atoms: C_14  and  O_23
                            x       y       z     vdW  Elec       q    Type
                         _______ _______ _______ _____ _____    ______ ____

>  <TORSDO>
F 6

$$$$
