=
 OpenBabel10222421053D

 55 62  0  0  1  0  0  0  0  0999 V2000
  187.1580  178.3640  146.4310 C   0  0  2  0  0  3  0  0  0  0  0  0
  186.9240  177.5000  147.6610 C   0  0  0  0  0  2  0  0  0  0  0  0
  187.9450  177.8170  148.7390 C   0  0  0  0  0  2  0  0  0  0  0  0
  189.2100  178.3660  148.1110 C   0  0  1  0  0  3  0  0  0  0  0  0
  190.4930  176.3080  147.2940 O   0  0  0  0  0  0  0  0  0  0  0  0
  190.2300  178.3300  149.0220 O   0  0  0  0  0  0  0  0  0  0  0  0
  190.0970  177.3310  147.9140 C   0  0  0  0  0  0  0  0  0  0  0  0
  186.0700  179.4150  146.3350 C   0  0  0  0  0  2  0  0  0  0  0  0
  184.2240  177.9900  146.0090 O   0  0  0  0  0  0  0  0  0  0  0  0
  184.9140  178.8900  145.5530 C   0  0  0  0  0  0  0  0  0  0  0  0
  184.1060  178.3300  142.5130 C   0  0  2  0  0  3  0  0  0  0  0  0
  182.9260  179.0760  143.6770 S   0  0  0  0  0  0  0  0  0  0  0  0
  185.3330  178.7810  143.1580 N   0  0  0  0  0  2  0  0  0  0  0  0
  184.6130  179.4840  144.2090 C   0  0  2  0  0  3  0  0  0  0  0  0
  183.9520  178.9890  141.1430 C   0  0  0  0  0  2  0  0  0  0  0  0
  184.1270  177.1400  136.4230 C   0  0  0  0  0  0  0  0  0  0  0  0
  184.0980  177.9400  138.8290 C   0  0  0  0  0  0  0  0  0  0  0  0
  182.0100  177.9710  137.4370 C   0  0  0  0  0  2  0  0  0  0  0  0
  183.5500  177.1320  135.2980 O   0  0  0  0  0  0  0  0  0  0  0  0
  181.8450  178.4870  139.8460 C   0  0  0  0  0  2  0  0  0  0  0  0
  185.3570  178.0070  138.8850 O   0  0  0  0  0  0  0  0  0  0  0  0
  183.4300  177.6480  137.5790 N   0  0  0  0  0  0  0  0  0  0  0  0
  181.2490  177.6660  138.7160 C   0  0  0  0  0  2  0  0  0  0  0  0
  183.2940  178.0770  140.1020 C   0  0  2  0  0  3  0  0  0  0  0  0
  186.3180  176.8140  135.2530 C   0  0  2  0  0  3  0  0  0  0  0  0
  185.5040  176.5560  136.5320 C   0  0  2  0  0  3  0  0  0  0  0  0
  186.8230  174.4740  137.0980 C   0  0  0  0  0  2  0  0  0  0  0  0
  187.9320  175.1790  136.3060 C   0  0  0  0  0  2  0  0  0  0  0  0
  185.4280  175.0670  136.8680 C   0  0  0  0  0  2  0  0  0  0  0  0
  187.4020  175.7590  134.9980 C   0  0  0  0  0  2  0  0  0  0  0  0
  186.9010  178.0820  135.3160 O   0  0  0  0  0  1  0  0  0  0  0  0
  187.1420  177.5470  145.2240 N   0  0  0  0  0  2  0  0  0  0  0  0
  189.3410  178.1510  144.5940 C   0  0  0  0  0  3  0  0  0  0  0  0
  190.6470  177.9810  143.8920 C   0  0  0  0  0  2  0  0  0  0  0  0
  189.7310  177.3150  141.6620 C   0  0  0  0  0  0  0  0  0  0  0  0
  188.9340  176.2080  142.2510 C   0  0  0  0  0  3  0  0  0  0  0  0
  188.2970  177.3440  144.4060 C   0  0  0  0  0  0  0  0  0  0  0  0
  190.4880  178.1230  142.4150 C   0  0  0  0  0  3  0  0  0  0  0  0
  188.3170  176.2170  143.4390 C   0  0  0  0  0  3  0  0  0  0  0  0
  188.8130  178.4040  139.5990 C   0  0  0  0  0  3  0  0  0  0  0  0
  188.8250  178.5890  138.2150 C   0  0  0  0  0  3  0  0  0  0  0  0
  189.7040  177.8980  137.4430 N   0  0  0  0  0  0  0  0  0  0  0  0
  190.6050  176.8080  139.3660 C   0  0  0  0  0  3  0  0  0  0  0  0
  190.5890  177.0100  137.9850 C   0  0  0  0  0  0  0  0  0  0  0  0
  189.7120  177.5050  140.1920 C   0  0  0  0  0  0  0  0  0  0  0  0
  191.6600  174.8170  137.5980 C   0  0  2  0  0  3  0  0  0  0  0  0
  191.5560  176.2340  137.1370 C   0  0  2  0  0  3  0  0  0  0  0  0
  192.8070  175.8310  137.9170 C   0  0  2  0  0  0  0  0  0  0  0  0
  193.7880  175.9200  136.8860 O   0  0  0  0  0  0  0  0  0  0  0  0
  191.7510  173.9940  136.3120 C   0  0  0  0  0  1  0  0  0  0  0  0
  194.1700  175.1490  137.9660 C   0  0  2  0  0  3  0  0  0  0  0  0
  194.3010  173.6850  137.5550 C   0  0  0  0  0  2  0  0  0  0  0  0
  195.2770  172.9940  138.4400 C   0  0  0  0  0  0  0  0  0  0  0  0
  196.0310  173.6670  139.1890 O   0  0  0  0  0  1  0  0  0  0  0  0
  195.3280  171.6050  138.4680 O   0  0  0  0  0  0  0  0  0  0  0  0
  1  8  1  6  0  0  0
  1  2  1  0  0  0  0
  2  3  1  0  0  0  0
  4  3  1  1  0  0  0
  4  6  1  0  0  0  0
  5  7  2  0  0  0  0
  7  4  1  0  0  0  0
  7  6  1  0  0  0  0
 10  9  2  0  0  0  0
 10  8  1  0  0  0  0
 11 15  1  6  0  0  0
 11 13  1  0  0  0  0
 11 12  1  0  0  0  0
 12 14  1  0  0  0  0
 13 14  1  0  0  0  0
 14 10  1  1  0  0  0
 16 22  1  0  0  0  0
 17 21  2  0  0  0  0
 17 24  1  0  0  0  0
 18 22  1  0  0  0  0
 18 23  1  0  0  0  0
 19 16  2  0  0  0  0
 20 24  1  0  0  0  0
 22 17  1  0  0  0  0
 23 20  1  0  0  0  0
 24 15  1  1  0  0  0
 25 31  1  1  0  0  0
 25 26  1  0  0  0  0
 26 16  1  6  0  0  0
 26 29  1  0  0  0  0
 28 27  1  0  0  0  0
 29 27  1  0  0  0  0
 30 25  1  0  0  0  0
 30 28  1  0  0  0  0
 32  1  1  0  0  0  0
 34 33  1  0  0  0  0
 35 36  1  0  0  0  0
 35 38  2  0  0  0  0
 36 39  2  0  0  0  0
 37 33  2  0  0  0  0
 37 32  1  0  0  0  0
 38 34  1  0  0  0  0
 39 37  1  0  0  0  0
 40 45  1  0  0  0  0
 41 40  2  0  0  0  0
 42 44  2  0  0  0  0
 42 41  1  0  0  0  0
 43 45  2  0  0  0  0
 44 43  1  0  0  0  0
 45 35  1  0  0  0  0
 46 50  1  6  0  0  0
 46 48  1  0  0  0  0
 47 46  1  0  0  0  0
 47 48  1  0  0  0  0
 47 44  1  1  0  0  0
 48 49  1  6  0  0  0
 48 51  1  0  0  0  0
 49 51  1  0  0  0  0
 51 52  1  6  0  0  0
 52 53  1  0  0  0  0
 53 55  2  0  0  0  0
 53 54  1  0  0  0  0
M  END
>  <MODEL>
1

>  <REMARK>
 VINA RESULT:      -8.6      0.000      0.000
  Name = 
  15 active torsions:
  status: ('A' for Active; 'I' for Inactive)
    1  A    between atoms: C_2  and  C_27
    2  A    between atoms: C_2  and  C_55
    3  A    between atoms: C_6  and  C_20
    4  A    between atoms: C_10  and  C_14
    5  A    between atoms: C_12  and  C_55
    6  A    between atoms: C_13  and  C_15
    7  A    between atoms: C_14  and  C_54
    8  A    between atoms: C_20  and  C_53
    9  A    between atoms: C_23  and  C_27
   10  A    between atoms: C_23  and  C_34
   11  A    between atoms: C_27  and  N_50
   12  A    between atoms: C_30  and  C_45
   13  A    between atoms: C_33  and  C_46
   14  A    between atoms: C_34  and  C_49
   15  A    between atoms: C_37  and  N_50
                            x       y       z     vdW  Elec       q    Type
                         _______ _______ _______ _____ _____    ______ ____

>  <TORSDO>
F 15

$$$$
=
 OpenBabel10222421053D

 55 62  0  0  1  0  0  0  0  0999 V2000
  188.9560  176.8010  143.6160 C   0  0  2  0  0  3  0  0  0  0  0  0
  189.4040  177.0310  145.0510 C   0  0  0  0  0  2  0  0  0  0  0  0
  190.8980  176.8050  145.1880 C   0  0  0  0  0  2  0  0  0  0  0  0
  191.3500  177.1540  146.5920 C   0  0  1  0  0  3  0  0  0  0  0  0
  192.8630  175.2170  147.3040 O   0  0  0  0  0  0  0  0  0  0  0  0
  190.5430  176.5290  147.5040 O   0  0  0  0  0  0  0  0  0  0  0  0
  191.9190  176.0400  147.1680 C   0  0  0  0  0  0  0  0  0  0  0  0
  189.3290  178.0020  142.7690 C   0  0  0  0  0  2  0  0  0  0  0  0
  190.8220  177.2120  141.1290 O   0  0  0  0  0  0  0  0  0  0  0  0
  189.6820  177.5690  141.3870 C   0  0  0  0  0  0  0  0  0  0  0  0
  188.9550  178.2190  138.3450 C   0  0  2  0  0  3  0  0  0  0  0  0
  189.0820  176.5050  138.9350 S   0  0  0  0  0  0  0  0  0  0  0  0
  188.6020  178.8400  139.6150 N   0  0  0  0  0  2  0  0  0  0  0  0
  188.6200  177.5720  140.3280 C   0  0  2  0  0  3  0  0  0  0  0  0
  187.7950  178.3320  137.3570 C   0  0  0  0  0  2  0  0  0  0  0  0
  187.0330  173.6330  135.6080 C   0  0  0  0  0  0  0  0  0  0  0  0
  187.2920  176.0220  136.4150 C   0  0  0  0  0  0  0  0  0  0  0  0
  189.1510  174.8710  135.1840 C   0  0  0  0  0  2  0  0  0  0  0  0
  187.6030  172.5790  135.2030 O   0  0  0  0  0  0  0  0  0  0  0  0
  189.3630  177.2810  135.6810 C   0  0  0  0  0  2  0  0  0  0  0  0
  186.2890  175.9370  137.1760 O   0  0  0  0  0  0  0  0  0  0  0  0
  187.7890  174.8560  135.7170 N   0  0  0  0  0  0  0  0  0  0  0  0
  189.4930  176.2290  134.5940 C   0  0  0  0  0  2  0  0  0  0  0  0
  187.9170  177.3760  136.1660 C   0  0  2  0  0  3  0  0  0  0  0  0
  185.2310  172.4910  136.9220 C   0  0  2  0  0  3  0  0  0  0  0  0
  185.5630  173.5910  135.8980 C   0  0  2  0  0  3  0  0  0  0  0  0
  183.2560  173.4950  134.8650 C   0  0  0  0  0  2  0  0  0  0  0  0
  182.8470  173.0100  136.2620 C   0  0  0  0  0  2  0  0  0  0  0  0
  184.7660  173.4250  134.6050 C   0  0  0  0  0  2  0  0  0  0  0  0
  183.8050  171.9430  136.7850 C   0  0  0  0  0  2  0  0  0  0  0  0
  185.4270  172.9800  138.2150 O   0  0  0  0  0  1  0  0  0  0  0  0
  187.5140  176.6040  143.5560 N   0  0  0  0  0  2  0  0  0  0  0  0
  186.2470  177.8080  145.1510 C   0  0  0  0  0  3  0  0  0  0  0  0
  185.3680  178.9140  145.6320 C   0  0  0  0  0  2  0  0  0  0  0  0
  183.7460  178.8900  143.7290 C   0  0  0  0  0  0  0  0  0  0  0  0
  184.8280  179.0410  142.7230 C   0  0  0  0  0  3  0  0  0  0  0  0
  186.5730  177.6350  143.8710 C   0  0  0  0  0  0  0  0  0  0  0  0
  184.0010  178.8140  145.0410 C   0  0  0  0  0  3  0  0  0  0  0  0
  186.0520  178.5040  142.7850 C   0  0  0  0  0  3  0  0  0  0  0  0
  181.2910  178.6310  144.1690 C   0  0  0  0  0  3  0  0  0  0  0  0
  179.9700  178.6260  143.7170 C   0  0  0  0  0  3  0  0  0  0  0  0
  179.6990  178.8330  142.4030 N   0  0  0  0  0  0  0  0  0  0  0  0
  182.0240  179.0640  141.9130 C   0  0  0  0  0  3  0  0  0  0  0  0
  180.6940  179.0460  141.4910 C   0  0  0  0  0  0  0  0  0  0  0  0
  182.3380  178.8540  143.2640 C   0  0  0  0  0  0  0  0  0  0  0  0
  181.5750  179.8730  139.3360 C   0  0  2  0  0  3  0  0  0  0  0  0
  180.4030  179.2650  140.0330 C   0  0  2  0  0  3  0  0  0  0  0  0
  180.3270  180.7490  139.6800 C   0  0  2  0  0  0  0  0  0  0  0  0
  179.3170  180.7180  138.6730 O   0  0  0  0  0  0  0  0  0  0  0  0
  181.6240  179.1760  137.9750 C   0  0  0  0  0  1  0  0  0  0  0  0
  180.1060  181.8520  138.6500 C   0  0  2  0  0  3  0  0  0  0  0  0
  180.9530  181.8850  137.3810 C   0  0  0  0  0  2  0  0  0  0  0  0
  180.3660  182.8410  136.4030 C   0  0  0  0  0  0  0  0  0  0  0  0
  179.2220  182.6260  135.9250 O   0  0  0  0  0  0  0  0  0  0  0  0
  181.0640  183.9880  136.0490 O   0  0  0  0  0  1  0  0  0  0  0  0
  1  8  1  6  0  0  0
  1  2  1  0  0  0  0
  2  3  1  0  0  0  0
  4  3  1  6  0  0  0
  4  7  1  0  0  0  0
  4  6  1  0  0  0  0
  7  5  2  0  0  0  0
  7  6  1  0  0  0  0
  9 10  2  0  0  0  0
 10  8  1  0  0  0  0
 11 15  1  6  0  0  0
 11 12  1  0  0  0  0
 11 13  1  0  0  0  0
 12 14  1  0  0  0  0
 13 14  1  0  0  0  0
 14 10  1  1  0  0  0
 16 22  1  0  0  0  0
 17 21  2  0  0  0  0
 18 22  1  0  0  0  0
 19 16  2  0  0  0  0
 20 24  1  0  0  0  0
 22 17  1  0  0  0  0
 23 18  1  0  0  0  0
 23 20  1  0  0  0  0
 24 17  1  0  0  0  0
 24 15  1  1  0  0  0
 25 31  1  1  0  0  0
 26 16  1  6  0  0  0
 26 25  1  0  0  0  0
 27 28  1  0  0  0  0
 28 30  1  0  0  0  0
 29 27  1  0  0  0  0
 29 26  1  0  0  0  0
 30 25  1  0  0  0  0
 32  1  1  0  0  0  0
 32 37  1  0  0  0  0
 33 34  1  0  0  0  0
 35 38  2  0  0  0  0
 36 39  2  0  0  0  0
 36 35  1  0  0  0  0
 37 33  2  0  0  0  0
 38 34  1  0  0  0  0
 39 37  1  0  0  0  0
 41 40  1  0  0  0  0
 42 41  2  0  0  0  0
 43 45  1  0  0  0  0
 44 43  2  0  0  0  0
 44 42  1  0  0  0  0
 45 35  1  0  0  0  0
 45 40  2  0  0  0  0
 46 50  1  6  0  0  0
 46 48  1  0  0  0  0
 46 47  1  0  0  0  0
 47 44  1  1  0  0  0
 48 49  1  6  0  0  0
 48 47  1  0  0  0  0
 51 52  1  6  0  0  0
 51 49  1  0  0  0  0
 51 48  1  0  0  0  0
 53 52  1  0  0  0  0
 54 53  2  0  0  0  0
 55 53  1  0  0  0  0
M  END
>  <MODEL>
2

>  <REMARK>
 VINA RESULT:      -8.2      3.327      8.602
  Name = 
  15 active torsions:
  status: ('A' for Active; 'I' for Inactive)
    1  A    between atoms: C_2  and  C_27
    2  A    between atoms: C_2  and  C_55
    3  A    between atoms: C_6  and  C_20
    4  A    between atoms: C_10  and  C_14
    5  A    between atoms: C_12  and  C_55
    6  A    between atoms: C_13  and  C_15
    7  A    between atoms: C_14  and  C_54
    8  A    between atoms: C_20  and  C_53
    9  A    between atoms: C_23  and  C_27
   10  A    between atoms: C_23  and  C_34
   11  A    between atoms: C_27  and  N_50
   12  A    between atoms: C_30  and  C_45
   13  A    between atoms: C_33  and  C_46
   14  A    between atoms: C_34  and  C_49
   15  A    between atoms: C_37  and  N_50
                            x       y       z     vdW  Elec       q    Type
                         _______ _______ _______ _____ _____    ______ ____

>  <TORSDO>
F 15

$$$$
=
 OpenBabel10222421053D

 55 62  0  0  1  0  0  0  0  0999 V2000
  188.2200  177.5320  143.7850 C   0  0  2  0  0  3  0  0  0  0  0  0
  189.2100  177.4920  144.9390 C   0  0  0  0  0  2  0  0  0  0  0  0
  190.4390  178.3220  144.6180 C   0  0  0  0  0  2  0  0  0  0  0  0
  191.6830  177.6300  145.1390 C   0  0  1  0  0  3  0  0  0  0  0  0
  191.7850  175.4070  143.8760 O   0  0  0  0  0  0  0  0  0  0  0  0
  191.3420  176.7600  146.1380 O   0  0  0  0  0  0  0  0  0  0  0  0
  191.6590  176.3110  144.7450 C   0  0  0  0  0  0  0  0  0  0  0  0
  186.8530  177.0930  144.2720 C   0  0  0  0  0  2  0  0  0  0  0  0
  186.0620  178.6570  145.8450 O   0  0  0  0  0  0  0  0  0  0  0  0
  186.0480  178.2790  144.6830 C   0  0  0  0  0  0  0  0  0  0  0  0
  183.5960  178.1170  142.6410 C   0  0  2  0  0  3  0  0  0  0  0  0
  183.4920  179.1120  144.1590 S   0  0  0  0  0  0  0  0  0  0  0  0
  185.0420  178.1680  142.4700 N   0  0  0  0  0  2  0  0  0  0  0  0
  185.2300  178.9970  143.6510 C   0  0  2  0  0  3  0  0  0  0  0  0
  182.8980  178.8560  141.5010 C   0  0  0  0  0  2  0  0  0  0  0  0
  182.6180  176.3710  137.0880 C   0  0  0  0  0  0  0  0  0  0  0  0
  182.7950  177.4880  139.3570 C   0  0  0  0  0  0  0  0  0  0  0  0
  180.7030  177.6860  137.9860 C   0  0  0  0  0  2  0  0  0  0  0  0
  182.0140  176.3070  135.9790 O   0  0  0  0  0  0  0  0  0  0  0  0
  180.6990  178.5510  140.2990 C   0  0  0  0  0  2  0  0  0  0  0  0
  184.0480  177.3450  139.3960 O   0  0  0  0  0  0  0  0  0  0  0  0
  182.0510  177.1460  138.1640 N   0  0  0  0  0  0  0  0  0  0  0  0
  179.9390  177.6960  139.3000 C   0  0  0  0  0  2  0  0  0  0  0  0
  182.0640  177.9360  140.6020 C   0  0  2  0  0  3  0  0  0  0  0  0
  184.8840  175.8720  136.1440 C   0  0  2  0  0  3  0  0  0  0  0  0
  183.8770  175.5800  137.2710 C   0  0  2  0  0  3  0  0  0  0  0  0
  184.8230  173.2710  137.6830 C   0  0  0  0  0  2  0  0  0  0  0  0
  186.1110  173.8960  137.1330 C   0  0  0  0  0  2  0  0  0  0  0  0
  183.5620  174.0890  137.3800 C   0  0  0  0  0  2  0  0  0  0  0  0
  185.8430  174.7070  135.8680 C   0  0  0  0  0  2  0  0  0  0  0  0
  185.6140  177.0210  136.4550 O   0  0  0  0  0  1  0  0  0  0  0  0
  188.6520  176.6450  142.7120 N   0  0  0  0  0  2  0  0  0  0  0  0
  188.3210  177.9170  140.7440 C   0  0  0  0  0  3  0  0  0  0  0  0
  188.7290  178.5760  139.4690 C   0  0  0  0  0  2  0  0  0  0  0  0
  190.0520  176.6730  138.5300 C   0  0  0  0  0  0  0  0  0  0  0  0
  190.8990  176.5800  139.7470 C   0  0  0  0  0  3  0  0  0  0  0  0
  189.1260  177.1240  141.4500 C   0  0  0  0  0  0  0  0  0  0  0  0
  189.0600  177.5670  138.4220 C   0  0  0  0  0  3  0  0  0  0  0  0
  190.5020  176.7790  141.0090 C   0  0  0  0  0  3  0  0  0  0  0  0
  189.3560  175.5050  136.4230 C   0  0  0  0  0  3  0  0  0  0  0  0
  189.6510  174.6710  135.3420 C   0  0  0  0  0  3  0  0  0  0  0  0
  190.8840  174.1120  135.2300 N   0  0  0  0  0  0  0  0  0  0  0  0
  191.6000  175.1750  137.2440 C   0  0  0  0  0  3  0  0  0  0  0  0
  191.8610  174.3410  136.1560 C   0  0  0  0  0  0  0  0  0  0  0  0
  190.3370  175.7690  137.3900 C   0  0  0  0  0  0  0  0  0  0  0  0
  193.8140  173.4670  137.3940 C   0  0  2  0  0  3  0  0  0  0  0  0
  193.2240  173.7180  136.0450 C   0  0  2  0  0  3  0  0  0  0  0  0
  194.3260  174.6610  136.5240 C   0  0  2  0  0  0  0  0  0  0  0  0
  195.3750  174.3000  135.6280 O   0  0  0  0  0  0  0  0  0  0  0  0
  194.5190  172.1160  137.2660 C   0  0  0  0  0  1  0  0  0  0  0  0
  195.8040  174.9480  136.7700 C   0  0  2  0  0  3  0  0  0  0  0  0
  196.6260  174.0030  137.6420 C   0  0  0  0  0  2  0  0  0  0  0  0
  197.1420  174.7310  138.8330 C   0  0  0  0  0  0  0  0  0  0  0  0
  196.5310  174.6520  139.9300 O   0  0  0  0  0  1  0  0  0  0  0  0
  198.3190  175.4640  138.7430 O   0  0  0  0  0  0  0  0  0  0  0  0
  1  8  1  1  0  0  0
  1  2  1  0  0  0  0
  3  2  1  0  0  0  0
  4  3  1  6  0  0  0
  4  6  1  0  0  0  0
  5  7  2  0  0  0  0
  7  4  1  0  0  0  0
  7  6  1  0  0  0  0
  8 10  1  0  0  0  0
 10  9  2  0  0  0  0
 11 15  1  6  0  0  0
 11 12  1  0  0  0  0
 13 11  1  0  0  0  0
 13 14  1  0  0  0  0
 14 12  1  0  0  0  0
 14 10  1  1  0  0  0
 16 22  1  0  0  0  0
 17 21  2  0  0  0  0
 17 24  1  0  0  0  0
 18 22  1  0  0  0  0
 18 23  1  0  0  0  0
 19 16  2  0  0  0  0
 20 24  1  0  0  0  0
 22 17  1  0  0  0  0
 23 20  1  0  0  0  0
 24 15  1  6  0  0  0
 25 31  1  1  0  0  0
 25 26  1  0  0  0  0
 26 16  1  6  0  0  0
 26 29  1  0  0  0  0
 28 27  1  0  0  0  0
 29 27  1  0  0  0  0
 30 25  1  0  0  0  0
 30 28  1  0  0  0  0
 32  1  1  0  0  0  0
 33 37  2  0  0  0  0
 34 33  1  0  0  0  0
 35 36  1  0  0  0  0
 36 39  2  0  0  0  0
 37 32  1  0  0  0  0
 38 35  2  0  0  0  0
 38 34  1  0  0  0  0
 39 37  1  0  0  0  0
 40 45  1  0  0  0  0
 41 40  2  0  0  0  0
 42 41  1  0  0  0  0
 42 44  2  0  0  0  0
 43 45  2  0  0  0  0
 44 43  1  0  0  0  0
 45 35  1  0  0  0  0
 46 50  1  6  0  0  0
 47 44  1  1  0  0  0
 47 48  1  0  0  0  0
 47 46  1  0  0  0  0
 48 49  1  6  0  0  0
 48 51  1  0  0  0  0
 48 46  1  0  0  0  0
 49 51  1  0  0  0  0
 51 52  1  1  0  0  0
 52 53  1  0  0  0  0
 53 54  1  0  0  0  0
 55 53  2  0  0  0  0
M  END
>  <MODEL>
3

>  <REMARK>
 VINA RESULT:      -8.2      1.853      2.895
  Name = 
  15 active torsions:
  status: ('A' for Active; 'I' for Inactive)
    1  A    between atoms: C_2  and  C_27
    2  A    between atoms: C_2  and  C_55
    3  A    between atoms: C_6  and  C_20
    4  A    between atoms: C_10  and  C_14
    5  A    between atoms: C_12  and  C_55
    6  A    between atoms: C_13  and  C_15
    7  A    between atoms: C_14  and  C_54
    8  A    between atoms: C_20  and  C_53
    9  A    between atoms: C_23  and  C_27
   10  A    between atoms: C_23  and  C_34
   11  A    between atoms: C_27  and  N_50
   12  A    between atoms: C_30  and  C_45
   13  A    between atoms: C_33  and  C_46
   14  A    between atoms: C_34  and  C_49
   15  A    between atoms: C_37  and  N_50
                            x       y       z     vdW  Elec       q    Type
                         _______ _______ _______ _____ _____    ______ ____

>  <TORSDO>
F 15

$$$$
=
 OpenBabel10222421053D

 55 62  0  0  1  0  0  0  0  0999 V2000
  189.9230  177.3130  138.9130 C   0  0  2  0  0  3  0  0  0  0  0  0
  190.6160  176.9780  137.6010 C   0  0  0  0  0  2  0  0  0  0  0  0
  191.4980  175.7530  137.7590 C   0  0  0  0  0  2  0  0  0  0  0  0
  192.7760  175.9280  136.9640 C   0  0  1  0  0  3  0  0  0  0  0  0
  194.4080  174.2180  137.9460 O   0  0  0  0  0  0  0  0  0  0  0  0
  193.6300  176.7570  137.6390 O   0  0  0  0  0  0  0  0  0  0  0  0
  193.7980  175.2690  137.6100 C   0  0  0  0  0  0  0  0  0  0  0  0
  190.4780  176.4360  140.0180 C   0  0  0  0  0  2  0  0  0  0  0  0
  192.4000  177.6480  140.6380 O   0  0  0  0  0  0  0  0  0  0  0  0
  191.2910  177.2530  140.9650 C   0  0  0  0  0  0  0  0  0  0  0  0
  188.6680  177.4410  142.7790 C   0  0  2  0  0  3  0  0  0  0  0  0
  189.9090  176.1400  143.0510 S   0  0  0  0  0  0  0  0  0  0  0  0
  189.5520  178.4370  142.1880 N   0  0  0  0  0  2  0  0  0  0  0  0
  190.7240  177.5840  142.3130 C   0  0  2  0  0  3  0  0  0  0  0  0
  188.1410  177.9290  144.1270 C   0  0  0  0  0  2  0  0  0  0  0  0
  183.4400  178.6700  142.3730 C   0  0  0  0  0  0  0  0  0  0  0  0
  185.7870  178.1680  143.1890 C   0  0  0  0  0  0  0  0  0  0  0  0
  184.0000  178.9090  144.7870 C   0  0  0  0  0  2  0  0  0  0  0  0
  182.3300  179.2280  142.6060 O   0  0  0  0  0  0  0  0  0  0  0  0
  186.1730  178.1600  145.6920 C   0  0  0  0  0  2  0  0  0  0  0  0
  186.2620  178.1860  142.0210 O   0  0  0  0  0  0  0  0  0  0  0  0
  184.4110  178.5430  143.4310 N   0  0  0  0  0  0  0  0  0  0  0  0
  184.6660  178.0160  145.8210 C   0  0  0  0  0  2  0  0  0  0  0  0
  186.6450  177.6620  144.3270 C   0  0  2  0  0  3  0  0  0  0  0  0
  183.6920  179.1970  139.9360 C   0  0  2  0  0  3  0  0  0  0  0  0
  183.6870  178.0950  141.0100 C   0  0  2  0  0  3  0  0  0  0  0  0
  182.9690  176.3190  139.3590 C   0  0  0  0  0  2  0  0  0  0  0  0
  183.6700  177.2340  138.3460 C   0  0  0  0  0  2  0  0  0  0  0  0
  182.6660  177.0020  140.6990 C   0  0  0  0  0  2  0  0  0  0  0  0
  183.2790  178.6950  138.5470 C   0  0  0  0  0  2  0  0  0  0  0  0
  184.9600  179.7800  139.8700 O   0  0  0  0  0  1  0  0  0  0  0  0
  188.4880  177.0910  138.8040 N   0  0  0  0  0  2  0  0  0  0  0  0
  187.1300  177.4500  136.8980 C   0  0  0  0  0  3  0  0  0  0  0  0
  186.5190  177.1020  135.5830 C   0  0  0  0  0  2  0  0  0  0  0  0
  185.8550  174.7570  136.1450 C   0  0  0  0  0  0  0  0  0  0  0  0
  187.2360  174.3990  136.5600 C   0  0  0  0  0  3  0  0  0  0  0  0
  187.8640  176.5980  137.6140 C   0  0  0  0  0  0  0  0  0  0  0  0
  185.5360  175.9870  135.7220 C   0  0  0  0  0  3  0  0  0  0  0  0
  188.1070  175.1960  137.1910 C   0  0  0  0  0  3  0  0  0  0  0  0
  185.1500  172.3520  136.0470 C   0  0  0  0  0  3  0  0  0  0  0  0
  184.1530  171.3760  136.0980 C   0  0  0  0  0  3  0  0  0  0  0  0
  182.8540  171.7380  136.2600 N   0  0  0  0  0  0  0  0  0  0  0  0
  183.4570  174.0460  136.3340 C   0  0  0  0  0  3  0  0  0  0  0  0
  182.4830  173.0470  136.3740 C   0  0  0  0  0  0  0  0  0  0  0  0
  184.8080  173.7070  136.1690 C   0  0  0  0  0  0  0  0  0  0  0  0
  180.9370  174.8990  136.9090 C   0  0  2  0  0  3  0  0  0  0  0  0
  181.0470  173.4550  136.5430 C   0  0  2  0  0  3  0  0  0  0  0  0
  180.7140  173.7960  137.9940 C   0  0  2  0  0  0  0  0  0  0  0  0
  179.3680  173.3300  138.0610 O   0  0  0  0  0  0  0  0  0  0  0  0
  179.7250  175.4090  136.1270 C   0  0  0  0  0  1  0  0  0  0  0  0
  179.7040  174.2350  139.0500 C   0  0  2  0  0  3  0  0  0  0  0  0
  178.9310  175.5380  138.8650 C   0  0  0  0  0  2  0  0  0  0  0  0
  178.9650  176.3310  140.1230 C   0  0  0  0  0  0  0  0  0  0  0  0
  178.9330  175.7450  141.2360 O   0  0  0  0  0  1  0  0  0  0  0  0
  179.0710  177.7160  140.0680 O   0  0  0  0  0  0  0  0  0  0  0  0
  1  2  1  6  0  0  0
  1  8  1  0  0  0  0
  2  3  1  0  0  0  0
  4  7  1  0  0  0  0
  4  6  1  0  0  0  0
  4  3  1  1  0  0  0
  7  6  1  0  0  0  0
  7  5  2  0  0  0  0
  8 10  1  0  0  0  0
  9 10  2  0  0  0  0
 11 12  1  0  0  0  0
 11 15  1  1  0  0  0
 13 14  1  0  0  0  0
 13 11  1  0  0  0  0
 14 10  1  6  0  0  0
 14 12  1  0  0  0  0
 16 19  2  0  0  0  0
 16 22  1  0  0  0  0
 17 22  1  0  0  0  0
 17 24  1  0  0  0  0
 18 23  1  0  0  0  0
 20 23  1  0  0  0  0
 21 17  2  0  0  0  0
 22 18  1  0  0  0  0
 24 15  1  6  0  0  0
 24 20  1  0  0  0  0
 25 31  1  6  0  0  0
 25 26  1  0  0  0  0
 26 16  1  1  0  0  0
 27 29  1  0  0  0  0
 28 30  1  0  0  0  0
 28 27  1  0  0  0  0
 29 26  1  0  0  0  0
 30 25  1  0  0  0  0
 32  1  1  0  0  0  0
 33 37  2  0  0  0  0
 34 38  1  0  0  0  0
 34 33  1  0  0  0  0
 35 45  1  0  0  0  0
 35 36  1  0  0  0  0
 36 39  2  0  0  0  0
 37 32  1  0  0  0  0
 38 35  2  0  0  0  0
 39 37  1  0  0  0  0
 40 41  2  0  0  0  0
 40 45  1  0  0  0  0
 41 42  1  0  0  0  0
 42 44  2  0  0  0  0
 43 44  1  0  0  0  0
 45 43  2  0  0  0  0
 46 50  1  6  0  0  0
 46 48  1  0  0  0  0
 47 44  1  1  0  0  0
 47 46  1  0  0  0  0
 47 48  1  0  0  0  0
 48 49  1  6  0  0  0
 48 51  1  0  0  0  0
 49 51  1  0  0  0  0
 51 52  1  6  0  0  0
 52 53  1  0  0  0  0
 53 54  1  0  0  0  0
 55 53  2  0  0  0  0
M  END
>  <MODEL>
4

>  <REMARK>
 VINA RESULT:      -8.0      2.968      9.313
  Name = 
  15 active torsions:
  status: ('A' for Active; 'I' for Inactive)
    1  A    between atoms: C_2  and  C_27
    2  A    between atoms: C_2  and  C_55
    3  A    between atoms: C_6  and  C_20
    4  A    between atoms: C_10  and  C_14
    5  A    between atoms: C_12  and  C_55
    6  A    between atoms: C_13  and  C_15
    7  A    between atoms: C_14  and  C_54
    8  A    between atoms: C_20  and  C_53
    9  A    between atoms: C_23  and  C_27
   10  A    between atoms: C_23  and  C_34
   11  A    between atoms: C_27  and  N_50
   12  A    between atoms: C_30  and  C_45
   13  A    between atoms: C_33  and  C_46
   14  A    between atoms: C_34  and  C_49
   15  A    between atoms: C_37  and  N_50
                            x       y       z     vdW  Elec       q    Type
                         _______ _______ _______ _____ _____    ______ ____

>  <TORSDO>
F 15

$$$$
=
 OpenBabel10222421053D

 55 62  0  0  1  0  0  0  0  0999 V2000
  190.0840  177.4010  138.9080 C   0  0  2  0  0  3  0  0  0  0  0  0
  190.7520  176.8860  137.6430 C   0  0  0  0  0  2  0  0  0  0  0  0
  191.6580  175.7090  137.9580 C   0  0  0  0  0  2  0  0  0  0  0  0
  192.9710  175.8510  137.2140 C   0  0  1  0  0  3  0  0  0  0  0  0
  194.2600  173.7000  137.7250 O   0  0  0  0  0  0  0  0  0  0  0  0
  193.9320  176.3310  138.0620 O   0  0  0  0  0  0  0  0  0  0  0  0
  193.8470  174.8890  137.6660 C   0  0  0  0  0  0  0  0  0  0  0  0
  190.4950  176.5410  140.0870 C   0  0  0  0  0  2  0  0  0  0  0  0
  192.3590  177.8780  140.6220 O   0  0  0  0  0  0  0  0  0  0  0  0
  191.3450  177.3290  141.0260 C   0  0  0  0  0  0  0  0  0  0  0  0
  188.9320  177.2530  143.1190 C   0  0  2  0  0  3  0  0  0  0  0  0
  190.1480  175.9040  143.0370 S   0  0  0  0  0  0  0  0  0  0  0  0
  189.7840  178.3190  142.6090 N   0  0  0  0  0  2  0  0  0  0  0  0
  190.9320  177.4380  142.4640 C   0  0  2  0  0  3  0  0  0  0  0  0
  188.5640  177.5170  144.5780 C   0  0  0  0  0  2  0  0  0  0  0  0
  183.9160  178.8650  143.0630 C   0  0  0  0  0  0  0  0  0  0  0  0
  186.2180  178.0620  143.7590 C   0  0  0  0  0  0  0  0  0  0  0  0
  184.6150  178.9970  145.4490 C   0  0  0  0  0  2  0  0  0  0  0  0
  182.8970  179.5540  143.3550 O   0  0  0  0  0  0  0  0  0  0  0  0
  186.7180  177.9690  146.2390 C   0  0  0  0  0  2  0  0  0  0  0  0
  186.6350  178.0370  142.5680 O   0  0  0  0  0  0  0  0  0  0  0  0
  184.9120  178.6030  144.0710 N   0  0  0  0  0  0  0  0  0  0  0  0
  185.2130  178.0120  146.4410 C   0  0  0  0  0  2  0  0  0  0  0  0
  187.0580  177.4360  144.8480 C   0  0  2  0  0  3  0  0  0  0  0  0
  184.3140  179.3780  140.6430 C   0  0  2  0  0  3  0  0  0  0  0  0
  184.0230  178.2840  141.6850 C   0  0  2  0  0  3  0  0  0  0  0  0
  182.8980  176.7900  139.9830 C   0  0  0  0  0  2  0  0  0  0  0  0
  183.8150  177.5270  138.9970 C   0  0  0  0  0  2  0  0  0  0  0  0
  182.7640  177.4900  141.3400 C   0  0  0  0  0  2  0  0  0  0  0  0
  183.8010  179.0330  139.2390 C   0  0  0  0  0  2  0  0  0  0  0  0
  185.6880  179.6260  140.5960 O   0  0  0  0  0  1  0  0  0  0  0  0
  188.6340  177.3620  138.7720 N   0  0  0  0  0  2  0  0  0  0  0  0
  187.8520  178.1160  136.6690 C   0  0  0  0  0  3  0  0  0  0  0  0
  187.2900  177.9620  135.2950 C   0  0  0  0  0  2  0  0  0  0  0  0
  185.4780  176.3360  135.8660 C   0  0  0  0  0  0  0  0  0  0  0  0
  186.4370  175.3960  136.5020 C   0  0  0  0  0  3  0  0  0  0  0  0
  187.9750  177.1040  137.5280 C   0  0  0  0  0  0  0  0  0  0  0  0
  185.8710  177.5030  135.3410 C   0  0  0  0  0  3  0  0  0  0  0  0
  187.5190  175.7260  137.2160 C   0  0  0  0  0  3  0  0  0  0  0  0
  183.6770  174.6140  135.5890 C   0  0  0  0  0  3  0  0  0  0  0  0
  182.3250  174.2670  135.5410 C   0  0  0  0  0  3  0  0  0  0  0  0
  181.3710  175.2240  135.6780 N   0  0  0  0  0  0  0  0  0  0  0  0
  183.0380  176.9150  135.9230 C   0  0  0  0  0  3  0  0  0  0  0  0
  181.6960  176.5380  135.8620 C   0  0  0  0  0  0  0  0  0  0  0  0
  184.0490  175.9520  135.7850 C   0  0  0  0  0  0  0  0  0  0  0  0
  181.2380  178.8780  136.5130 C   0  0  2  0  0  3  0  0  0  0  0  0
  180.6470  177.6040  136.0050 C   0  0  2  0  0  3  0  0  0  0  0  0
  180.3950  177.9700  137.4660 C   0  0  2  0  0  0  0  0  0  0  0  0
  178.9960  178.2450  137.4210 O   0  0  0  0  0  0  0  0  0  0  0  0
  180.5210  179.9800  135.7320 C   0  0  0  0  0  1  0  0  0  0  0  0
  179.6460  178.7880  138.5130 C   0  0  2  0  0  3  0  0  0  0  0  0
  179.6470  180.3120  138.4280 C   0  0  0  0  0  2  0  0  0  0  0  0
  179.8460  180.8960  139.7820 C   0  0  0  0  0  0  0  0  0  0  0  0
  179.3060  181.9930  140.0780 O   0  0  0  0  0  0  0  0  0  0  0  0
  180.5970  180.2110  140.7300 O   0  0  0  0  0  1  0  0  0  0  0  0
  1  2  1  6  0  0  0
  1  8  1  0  0  0  0
  2  3  1  0  0  0  0
  4  7  1  0  0  0  0
  4  3  1  1  0  0  0
  4  6  1  0  0  0  0
  7  5  2  0  0  0  0
  7  6  1  0  0  0  0
  8 10  1  0  0  0  0
  9 10  2  0  0  0  0
 11 15  1  1  0  0  0
 12 11  1  0  0  0  0
 13 11  1  0  0  0  0
 14 10  1  6  0  0  0
 14 13  1  0  0  0  0
 14 12  1  0  0  0  0
 16 19  2  0  0  0  0
 16 22  1  0  0  0  0
 17 22  1  0  0  0  0
 17 24  1  0  0  0  0
 18 23  1  0  0  0  0
 20 23  1  0  0  0  0
 21 17  2  0  0  0  0
 22 18  1  0  0  0  0
 24 15  1  6  0  0  0
 24 20  1  0  0  0  0
 25 31  1  6  0  0  0
 25 26  1  0  0  0  0
 26 16  1  1  0  0  0
 27 29  1  0  0  0  0
 28 30  1  0  0  0  0
 28 27  1  0  0  0  0
 29 26  1  0  0  0  0
 30 25  1  0  0  0  0
 32  1  1  0  0  0  0
 33 37  2  0  0  0  0
 34 38  1  0  0  0  0
 34 33  1  0  0  0  0
 35 36  1  0  0  0  0
 36 39  2  0  0  0  0
 37 32  1  0  0  0  0
 38 35  2  0  0  0  0
 39 37  1  0  0  0  0
 40 45  1  0  0  0  0
 41 40  2  0  0  0  0
 41 42  1  0  0  0  0
 42 44  2  0  0  0  0
 44 43  1  0  0  0  0
 45 35  1  0  0  0  0
 45 43  2  0  0  0  0
 46 50  1  6  0  0  0
 46 48  1  0  0  0  0
 47 44  1  1  0  0  0
 47 46  1  0  0  0  0
 47 48  1  0  0  0  0
 48 49  1  6  0  0  0
 48 51  1  0  0  0  0
 49 51  1  0  0  0  0
 51 52  1  6  0  0  0
 52 53  1  0  0  0  0
 53 54  2  0  0  0  0
 53 55  1  0  0  0  0
M  END
>  <MODEL>
5

>  <REMARK>
 VINA RESULT:      -7.7      2.590      9.558
  Name = 
  15 active torsions:
  status: ('A' for Active; 'I' for Inactive)
    1  A    between atoms: C_2  and  C_27
    2  A    between atoms: C_2  and  C_55
    3  A    between atoms: C_6  and  C_20
    4  A    between atoms: C_10  and  C_14
    5  A    between atoms: C_12  and  C_55
    6  A    between atoms: C_13  and  C_15
    7  A    between atoms: C_14  and  C_54
    8  A    between atoms: C_20  and  C_53
    9  A    between atoms: C_23  and  C_27
   10  A    between atoms: C_23  and  C_34
   11  A    between atoms: C_27  and  N_50
   12  A    between atoms: C_30  and  C_45
   13  A    between atoms: C_33  and  C_46
   14  A    between atoms: C_34  and  C_49
   15  A    between atoms: C_37  and  N_50
                            x       y       z     vdW  Elec       q    Type
                         _______ _______ _______ _____ _____    ______ ____

>  <TORSDO>
F 15

$$$$
=
 OpenBabel10222421053D

 55 62  0  0  1  0  0  0  0  0999 V2000
  190.6560  176.9850  139.7420 C   0  0  2  0  0  3  0  0  0  0  0  0
  191.2540  176.0140  138.7350 C   0  0  0  0  0  2  0  0  0  0  0  0
  192.7290  176.3040  138.5230 C   0  0  0  0  0  2  0  0  0  0  0  0
  193.2520  175.5020  137.3480 C   0  0  1  0  0  3  0  0  0  0  0  0
  194.7580  177.1200  136.0580 O   0  0  0  0  0  0  0  0  0  0  0  0
  192.4760  175.7400  136.2460 O   0  0  0  0  0  0  0  0  0  0  0  0
  193.8240  176.3640  136.4390 C   0  0  0  0  0  0  0  0  0  0  0  0
  190.1620  178.2240  139.0230 C   0  0  0  0  0  2  0  0  0  0  0  0
  188.1320  178.4180  140.2000 O   0  0  0  0  0  0  0  0  0  0  0  0
  188.6760  178.3120  139.1110 C   0  0  0  0  0  0  0  0  0  0  0  0
  186.7670  176.5820  137.2220 C   0  0  2  0  0  3  0  0  0  0  0  0
  186.1150  177.9660  138.2040 S   0  0  0  0  0  0  0  0  0  0  0  0
  188.1380  177.0570  137.0960 N   0  0  0  0  0  2  0  0  0  0  0  0
  187.8680  178.2730  137.8480 C   0  0  2  0  0  3  0  0  0  0  0  0
  186.0820  176.5620  135.8560 C   0  0  0  0  0  2  0  0  0  0  0  0
  182.6820  172.9140  136.7780 C   0  0  0  0  0  0  0  0  0  0  0  0
  184.2990  174.7810  136.2070 C   0  0  0  0  0  0  0  0  0  0  0  0
  185.0880  172.4060  136.3900 C   0  0  0  0  0  2  0  0  0  0  0  0
  182.5300  171.7280  137.1900 O   0  0  0  0  0  0  0  0  0  0  0  0
  186.6530  174.1220  135.5480 C   0  0  0  0  0  2  0  0  0  0  0  0
  183.4850  175.6760  136.5650 O   0  0  0  0  0  0  0  0  0  0  0  0
  183.9990  173.3830  136.4260 N   0  0  0  0  0  0  0  0  0  0  0  0
  186.0840  172.7380  135.2900 C   0  0  0  0  0  2  0  0  0  0  0  0
  185.5530  175.1780  135.4620 C   0  0  2  0  0  3  0  0  0  0  0  0
  180.6810  173.8960  137.9200 C   0  0  2  0  0  3  0  0  0  0  0  0
  181.4700  173.7790  136.6050 C   0  0  2  0  0  3  0  0  0  0  0  0
  179.4140  174.1910  135.1920 C   0  0  0  0  0  2  0  0  0  0  0  0
  178.9360  174.9570  136.4330 C   0  0  0  0  0  2  0  0  0  0  0  0
  180.5990  173.2570  135.4630 C   0  0  0  0  0  2  0  0  0  0  0  0
  179.1850  174.1620  137.7110 C   0  0  0  0  0  2  0  0  0  0  0  0
  181.2340  174.9070  138.7100 O   0  0  0  0  0  1  0  0  0  0  0  0
  191.6540  177.3720  140.7310 N   0  0  0  0  0  2  0  0  0  0  0  0
  191.5860  176.2080  142.7900 C   0  0  0  0  0  3  0  0  0  0  0  0
  191.4700  176.0760  144.2720 C   0  0  0  0  0  2  0  0  0  0  0  0
  189.5130  177.6020  144.5800 C   0  0  0  0  0  0  0  0  0  0  0  0
  190.1940  178.7190  143.8780 C   0  0  0  0  0  3  0  0  0  0  0  0
  191.4020  177.3560  142.1390 C   0  0  0  0  0  0  0  0  0  0  0  0
  190.0910  176.4040  144.7360 C   0  0  0  0  0  3  0  0  0  0  0  0
  191.0150  178.6150  142.8260 C   0  0  0  0  0  3  0  0  0  0  0  0
  187.8980  177.5370  146.4970 C   0  0  0  0  0  3  0  0  0  0  0  0
  186.6290  177.7860  147.0250 C   0  0  0  0  0  3  0  0  0  0  0  0
  185.6540  178.3100  146.2380 N   0  0  0  0  0  0  0  0  0  0  0  0
  187.1350  178.3730  144.3670 C   0  0  0  0  0  3  0  0  0  0  0  0
  185.8760  178.6040  144.9230 C   0  0  0  0  0  0  0  0  0  0  0  0
  188.1650  177.8340  145.1520 C   0  0  0  0  0  0  0  0  0  0  0  0
  183.6190  178.2620  143.9760 C   0  0  2  0  0  3  0  0  0  0  0  0
  184.8000  179.1740  144.0430 C   0  0  2  0  0  3  0  0  0  0  0  0
  184.6080  178.3540  142.7680 C   0  0  2  0  0  0  0  0  0  0  0  0
  184.2810  179.3920  141.8460 O   0  0  0  0  0  0  0  0  0  0  0  0
  182.4060  179.1920  143.9990 C   0  0  0  0  0  1  0  0  0  0  0  0
  183.8980  178.1300  141.4360 C   0  0  2  0  0  3  0  0  0  0  0  0
  182.3760  178.0220  141.3960 C   0  0  0  0  0  2  0  0  0  0  0  0
  181.8460  178.7530  140.2140 C   0  0  0  0  0  0  0  0  0  0  0  0
  182.3770  178.5890  139.0850 O   0  0  0  0  0  0  0  0  0  0  0  0
  180.7410  179.5850  140.3510 O   0  0  0  0  0  1  0  0  0  0  0  0
  1  2  1  6  0  0  0
  1 32  1  0  0  0  0
  3  2  1  0  0  0  0
  4  3  1  1  0  0  0
  5  7  2  0  0  0  0
  6  7  1  0  0  0  0
  6  4  1  0  0  0  0
  7  4  1  0  0  0  0
  8 10  1  0  0  0  0
  8  1  1  0  0  0  0
 10  9  2  0  0  0  0
 11 15  1  6  0  0  0
 11 12  1  0  0  0  0
 13 11  1  0  0  0  0
 13 14  1  0  0  0  0
 14 12  1  0  0  0  0
 14 10  1  1  0  0  0
 16 19  2  0  0  0  0
 17 22  1  0  0  0  0
 17 21  2  0  0  0  0
 18 22  1  0  0  0  0
 22 16  1  0  0  0  0
 23 20  1  0  0  0  0
 23 18  1  0  0  0  0
 24 20  1  0  0  0  0
 24 15  1  1  0  0  0
 24 17  1  0  0  0  0
 25 31  1  1  0  0  0
 26 16  1  1  0  0  0
 26 25  1  0  0  0  0
 27 29  1  0  0  0  0
 27 28  1  0  0  0  0
 28 30  1  0  0  0  0
 29 26  1  0  0  0  0
 30 25  1  0  0  0  0
 32 37  1  0  0  0  0
 33 34  1  0  0  0  0
 34 38  1  0  0  0  0
 35 38  2  0  0  0  0
 35 45  1  0  0  0  0
 36 35  1  0  0  0  0
 37 33  2  0  0  0  0
 37 39  1  0  0  0  0
 39 36  2  0  0  0  0
 40 41  1  0  0  0  0
 42 41  2  0  0  0  0
 43 44  2  0  0  0  0
 43 45  1  0  0  0  0
 44 42  1  0  0  0  0
 45 40  2  0  0  0  0
 46 50  1  6  0  0  0
 46 47  1  0  0  0  0
 47 44  1  1  0  0  0
 48 49  1  6  0  0  0
 48 46  1  0  0  0  0
 48 47  1  0  0  0  0
 51 52  1  1  0  0  0
 51 49  1  0  0  0  0
 51 48  1  0  0  0  0
 53 55  1  0  0  0  0
 53 52  1  0  0  0  0
 54 53  2  0  0  0  0
M  END
>  <MODEL>
6

>  <REMARK>
 VINA RESULT:      -7.7      2.830      8.600
  Name = 
  15 active torsions:
  status: ('A' for Active; 'I' for Inactive)
    1  A    between atoms: C_2  and  C_27
    2  A    between atoms: C_2  and  C_55
    3  A    between atoms: C_6  and  C_20
    4  A    between atoms: C_10  and  C_14
    5  A    between atoms: C_12  and  C_55
    6  A    between atoms: C_13  and  C_15
    7  A    between atoms: C_14  and  C_54
    8  A    between atoms: C_20  and  C_53
    9  A    between atoms: C_23  and  C_27
   10  A    between atoms: C_23  and  C_34
   11  A    between atoms: C_27  and  N_50
   12  A    between atoms: C_30  and  C_45
   13  A    between atoms: C_33  and  C_46
   14  A    between atoms: C_34  and  C_49
   15  A    between atoms: C_37  and  N_50
                            x       y       z     vdW  Elec       q    Type
                         _______ _______ _______ _____ _____    ______ ____

>  <TORSDO>
F 15

$$$$
=
 OpenBabel10222421053D

 55 62  0  0  1  0  0  0  0  0999 V2000
  188.4340  176.6470  144.2030 C   0  0  2  0  0  3  0  0  0  0  0  0
  188.7100  177.8120  145.1410 C   0  0  0  0  0  2  0  0  0  0  0  0
  189.9880  177.5760  145.9250 C   0  0  0  0  0  2  0  0  0  0  0  0
  189.6700  176.9010  147.2450 C   0  0  1  0  0  3  0  0  0  0  0  0
  187.7760  178.2900  148.2620 O   0  0  0  0  0  0  0  0  0  0  0  0
  190.3400  177.5320  148.2580 O   0  0  0  0  0  0  0  0  0  0  0  0
  188.8800  177.7410  147.9970 C   0  0  0  0  0  0  0  0  0  0  0  0
  189.6140  176.4530  143.2720 C   0  0  0  0  0  2  0  0  0  0  0  0
  189.2430  178.5310  142.2270 O   0  0  0  0  0  0  0  0  0  0  0  0
  189.4810  177.3410  142.0810 C   0  0  0  0  0  0  0  0  0  0  0  0
  190.0210  177.9120  138.9840 C   0  0  2  0  0  3  0  0  0  0  0  0
  191.2880  177.1370  140.0320 S   0  0  0  0  0  0  0  0  0  0  0  0
  188.8500  177.4760  139.7340 N   0  0  0  0  0  2  0  0  0  0  0  0
  189.6490  176.7530  140.7120 C   0  0  2  0  0  3  0  0  0  0  0  0
  190.0390  177.2620  137.6010 C   0  0  0  0  0  2  0  0  0  0  0  0
  193.0060  173.4130  136.1520 C   0  0  0  0  0  0  0  0  0  0  0  0
  191.5890  175.3340  137.0060 C   0  0  0  0  0  0  0  0  0  0  0  0
  190.5240  173.2850  136.0230 C   0  0  0  0  0  2  0  0  0  0  0  0
  193.0670  172.3710  135.4370 O   0  0  0  0  0  0  0  0  0  0  0  0
  189.0830  174.9810  137.0950 C   0  0  0  0  0  2  0  0  0  0  0  0
  192.5730  176.1210  137.0470 O   0  0  0  0  0  0  0  0  0  0  0  0
  191.7250  174.0120  136.4320 N   0  0  0  0  0  0  0  0  0  0  0  0
  189.3920  173.4960  137.0160 C   0  0  0  0  0  2  0  0  0  0  0  0
  190.2840  175.7490  137.6450 C   0  0  2  0  0  3  0  0  0  0  0  0
  195.3920  174.0240  135.6910 C   0  0  2  0  0  3  0  0  0  0  0  0
  194.2720  173.9560  136.7440 C   0  0  2  0  0  3  0  0  0  0  0  0
  195.9150  173.7430  138.6550 C   0  0  0  0  0  2  0  0  0  0  0  0
  196.8470  174.5020  137.7010 C   0  0  0  0  0  2  0  0  0  0  0  0
  194.6870  173.1360  137.9650 C   0  0  0  0  0  2  0  0  0  0  0  0
  196.7990  173.9190  136.2920 C   0  0  0  0  0  2  0  0  0  0  0  0
  195.2780  175.2090  134.9610 O   0  0  0  0  0  1  0  0  0  0  0  0
  187.2380  176.9010  143.4110 N   0  0  0  0  0  2  0  0  0  0  0  0
  185.8550  177.8830  145.0620 C   0  0  0  0  0  3  0  0  0  0  0  0
  184.9130  178.8990  145.6140 C   0  0  0  0  0  2  0  0  0  0  0  0
  183.3790  179.0230  143.6430 C   0  0  0  0  0  0  0  0  0  0  0  0
  184.4970  179.3190  142.7120 C   0  0  0  0  0  3  0  0  0  0  0  0
  186.2440  177.8590  143.7870 C   0  0  0  0  0  0  0  0  0  0  0  0
  183.5790  178.8150  144.9510 C   0  0  0  0  0  3  0  0  0  0  0  0
  185.7380  178.8210  142.7760 C   0  0  0  0  0  3  0  0  0  0  0  0
  180.9160  178.6520  143.9400 C   0  0  0  0  0  3  0  0  0  0  0  0
  179.6180  178.6500  143.4270 C   0  0  0  0  0  3  0  0  0  0  0  0
  179.4000  178.9690  142.1250 N   0  0  0  0  0  0  0  0  0  0  0  0
  181.7350  179.3140  141.7700 C   0  0  0  0  0  3  0  0  0  0  0  0
  180.4260  179.2960  141.2860 C   0  0  0  0  0  0  0  0  0  0  0  0
  181.9950  178.9890  143.1100 C   0  0  0  0  0  0  0  0  0  0  0  0
  181.4090  180.2620  139.2340 C   0  0  2  0  0  3  0  0  0  0  0  0
  180.1940  179.6400  139.8420 C   0  0  2  0  0  3  0  0  0  0  0  0
  180.1770  181.1490  139.6080 C   0  0  2  0  0  0  0  0  0  0  0  0
  179.2030  181.2340  138.5690 O   0  0  0  0  0  0  0  0  0  0  0  0
  181.4840  179.6740  137.8240 C   0  0  0  0  0  1  0  0  0  0  0  0
  180.0280  182.3380  138.6640 C   0  0  2  0  0  3  0  0  0  0  0  0
  180.9200  182.4440  137.4300 C   0  0  0  0  0  2  0  0  0  0  0  0
  180.9490  183.8500  136.9430 C   0  0  0  0  0  0  0  0  0  0  0  0
  181.9330  184.5870  137.2130 O   0  0  0  0  0  1  0  0  0  0  0  0
  179.9100  184.3350  136.1590 O   0  0  0  0  0  0  0  0  0  0  0  0
  1  8  1  6  0  0  0
  1  2  1  0  0  0  0
  2  3  1  0  0  0  0
  4  3  1  6  0  0  0
  4  7  1  0  0  0  0
  4  6  1  0  0  0  0
  7  6  1  0  0  0  0
  7  5  2  0  0  0  0
 10  9  2  0  0  0  0
 10  8  1  0  0  0  0
 11 15  1  6  0  0  0
 11 13  1  0  0  0  0
 11 12  1  0  0  0  0
 12 14  1  0  0  0  0
 13 14  1  0  0  0  0
 14 10  1  1  0  0  0
 16 22  1  0  0  0  0
 17 21  2  0  0  0  0
 17 24  1  0  0  0  0
 18 22  1  0  0  0  0
 18 23  1  0  0  0  0
 19 16  2  0  0  0  0
 20 24  1  0  0  0  0
 22 17  1  0  0  0  0
 23 20  1  0  0  0  0
 24 15  1  6  0  0  0
 25 31  1  1  0  0  0
 25 30  1  0  0  0  0
 25 26  1  0  0  0  0
 26 16  1  6  0  0  0
 26 29  1  0  0  0  0
 28 27  1  0  0  0  0
 29 27  1  0  0  0  0
 30 28  1  0  0  0  0
 32 37  1  0  0  0  0
 32  1  1  0  0  0  0
 33 34  1  0  0  0  0
 35 38  2  0  0  0  0
 36 39  2  0  0  0  0
 36 35  1  0  0  0  0
 37 33  2  0  0  0  0
 38 34  1  0  0  0  0
 39 37  1  0  0  0  0
 41 40  1  0  0  0  0
 42 41  2  0  0  0  0
 43 45  1  0  0  0  0
 44 43  2  0  0  0  0
 44 42  1  0  0  0  0
 45 35  1  0  0  0  0
 45 40  2  0  0  0  0
 46 50  1  6  0  0  0
 46 48  1  0  0  0  0
 46 47  1  0  0  0  0
 47 44  1  1  0  0  0
 48 49  1  6  0  0  0
 48 47  1  0  0  0  0
 49 51  1  0  0  0  0
 51 52  1  6  0  0  0
 51 48  1  0  0  0  0
 53 54  1  0  0  0  0
 53 52  1  0  0  0  0
 55 53  2  0  0  0  0
M  END
>  <MODEL>
7

>  <REMARK>
 VINA RESULT:      -7.6      3.254      9.509
  Name = 
  15 active torsions:
  status: ('A' for Active; 'I' for Inactive)
    1  A    between atoms: C_2  and  C_27
    2  A    between atoms: C_2  and  C_55
    3  A    between atoms: C_6  and  C_20
    4  A    between atoms: C_10  and  C_14
    5  A    between atoms: C_12  and  C_55
    6  A    between atoms: C_13  and  C_15
    7  A    between atoms: C_14  and  C_54
    8  A    between atoms: C_20  and  C_53
    9  A    between atoms: C_23  and  C_27
   10  A    between atoms: C_23  and  C_34
   11  A    between atoms: C_27  and  N_50
   12  A    between atoms: C_30  and  C_45
   13  A    between atoms: C_33  and  C_46
   14  A    between atoms: C_34  and  C_49
   15  A    between atoms: C_37  and  N_50
                            x       y       z     vdW  Elec       q    Type
                         _______ _______ _______ _____ _____    ______ ____

>  <TORSDO>
F 15

$$$$
=
 OpenBabel10222421053D

 55 62  0  0  1  0  0  0  0  0999 V2000
  188.4790  177.6040  142.7960 C   0  0  2  0  0  3  0  0  0  0  0  0
  189.2560  176.4750  142.1370 C   0  0  0  0  0  2  0  0  0  0  0  0
  190.6340  176.3400  142.7590 C   0  0  0  0  0  2  0  0  0  0  0  0
  190.5900  176.7590  144.2150 C   0  0  1  0  0  3  0  0  0  0  0  0
  191.9860  178.9010  144.3310 O   0  0  0  0  0  0  0  0  0  0  0  0
  191.7040  176.2960  144.8610 O   0  0  0  0  0  0  0  0  0  0  0  0
  191.5500  177.7230  144.4310 C   0  0  0  0  0  0  0  0  0  0  0  0
  187.2460  177.0430  143.4770 C   0  0  0  0  0  2  0  0  0  0  0  0
  187.5300  177.7490  145.7060 O   0  0  0  0  0  0  0  0  0  0  0  0
  186.8950  177.8690  144.6680 C   0  0  0  0  0  0  0  0  0  0  0  0
  183.7390  178.2660  144.3760 C   0  0  2  0  0  3  0  0  0  0  0  0
  184.5920  178.6300  145.9400 S   0  0  0  0  0  0  0  0  0  0  0  0
  184.8650  178.4910  143.4790 N   0  0  0  0  0  2  0  0  0  0  0  0
  185.7610  178.8460  144.5690 C   0  0  2  0  0  3  0  0  0  0  0  0
  182.6500  179.3110  144.1370 C   0  0  0  0  0  2  0  0  0  0  0  0
  180.5300  178.4950  139.6030 C   0  0  0  0  0  0  0  0  0  0  0  0
  181.6300  178.7630  141.8710 C   0  0  0  0  0  0  0  0  0  0  0  0
  179.2400  179.4390  141.5110 C   0  0  0  0  0  2  0  0  0  0  0  0
  179.5780  178.8210  138.8370 O   0  0  0  0  0  0  0  0  0  0  0  0
  180.1510  179.4570  143.8070 C   0  0  0  0  0  2  0  0  0  0  0  0
  182.7870  178.6040  141.3960 O   0  0  0  0  0  0  0  0  0  0  0  0
  180.4800  178.8580  140.9970 N   0  0  0  0  0  0  0  0  0  0  0  0
  178.9850  179.0040  142.9460 C   0  0  0  0  0  2  0  0  0  0  0  0
  181.4410  178.7630  143.3710 C   0  0  2  0  0  3  0  0  0  0  0  0
  182.3300  178.3950  137.8640 C   0  0  2  0  0  3  0  0  0  0  0  0
  181.6560  177.6770  139.0460 C   0  0  2  0  0  3  0  0  0  0  0  0
  182.3220  175.3900  138.1940 C   0  0  0  0  0  2  0  0  0  0  0  0
  183.4780  176.1660  137.5490 C   0  0  0  0  0  2  0  0  0  0  0  0
  181.1650  176.2830  138.6590 C   0  0  0  0  0  2  0  0  0  0  0  0
  182.9840  177.4350  136.8620 C   0  0  0  0  0  2  0  0  0  0  0  0
  183.2830  179.2960  138.3450 O   0  0  0  0  0  1  0  0  0  0  0  0
  188.0700  178.5890  141.8030 N   0  0  0  0  0  2  0  0  0  0  0  0
  186.9600  178.0580  139.7820 C   0  0  0  0  0  3  0  0  0  0  0  0
  186.8380  177.8870  138.3050 C   0  0  0  0  0  2  0  0  0  0  0  0
  188.9920  176.6710  137.9410 C   0  0  0  0  0  0  0  0  0  0  0  0
  189.7800  177.7380  138.6100 C   0  0  0  0  0  3  0  0  0  0  0  0
  188.1090  178.3390  140.3950 C   0  0  0  0  0  0  0  0  0  0  0  0
  187.6600  176.7380  137.8250 C   0  0  0  0  0  3  0  0  0  0  0  0
  189.3980  178.4640  139.6680 C   0  0  0  0  0  3  0  0  0  0  0  0
  189.0080  174.3810  136.9200 C   0  0  0  0  0  3  0  0  0  0  0  0
  189.6990  173.3100  136.3490 C   0  0  0  0  0  3  0  0  0  0  0  0
  191.0500  173.3630  136.2190 N   0  0  0  0  0  0  0  0  0  0  0  0
  191.1060  175.5350  137.2070 C   0  0  0  0  0  3  0  0  0  0  0  0
  191.7680  174.4470  136.6390 C   0  0  0  0  0  0  0  0  0  0  0  0
  189.7110  175.5140  137.3560 C   0  0  0  0  0  0  0  0  0  0  0  0
  193.9070  173.3000  137.1040 C   0  0  2  0  0  3  0  0  0  0  0  0
  193.2640  174.5090  136.5080 C   0  0  2  0  0  3  0  0  0  0  0  0
  193.9520  174.6660  137.8630 C   0  0  2  0  0  0  0  0  0  0  0  0
  195.0580  175.4850  137.4910 O   0  0  0  0  0  0  0  0  0  0  0  0
  195.0530  172.9570  136.1500 C   0  0  0  0  0  1  0  0  0  0  0  0
  195.2260  174.8160  138.6870 C   0  0  2  0  0  3  0  0  0  0  0  0
  196.3360  173.7750  138.5640 C   0  0  0  0  0  2  0  0  0  0  0  0
  197.6490  174.4520  138.3810 C   0  0  0  0  0  0  0  0  0  0  0  0
  197.9780  175.3990  139.1400 O   0  0  0  0  0  1  0  0  0  0  0  0
  198.5250  174.0110  137.3970 O   0  0  0  0  0  0  0  0  0  0  0  0
  1  2  1  6  0  0  0
  1  8  1  0  0  0  0
  2  3  1  0  0  0  0
  4  3  1  6  0  0  0
  4  7  1  0  0  0  0
  4  6  1  0  0  0  0
  5  7  2  0  0  0  0
  7  6  1  0  0  0  0
  8 10  1  0  0  0  0
 10  9  2  0  0  0  0
 11 15  1  6  0  0  0
 11 12  1  0  0  0  0
 13 11  1  0  0  0  0
 13 14  1  0  0  0  0
 14 10  1  1  0  0  0
 14 12  1  0  0  0  0
 16 22  1  0  0  0  0
 17 24  1  0  0  0  0
 18 23  1  0  0  0  0
 19 16  2  0  0  0  0
 21 17  2  0  0  0  0
 22 18  1  0  0  0  0
 22 17  1  0  0  0  0
 23 20  1  0  0  0  0
 24 20  1  0  0  0  0
 24 15  1  1  0  0  0
 25 31  1  1  0  0  0
 25 26  1  0  0  0  0
 26 16  1  6  0  0  0
 27 29  1  0  0  0  0
 28 27  1  0  0  0  0
 29 26  1  0  0  0  0
 30 28  1  0  0  0  0
 30 25  1  0  0  0  0
 32  1  1  0  0  0  0
 33 37  2  0  0  0  0
 34 33  1  0  0  0  0
 35 36  1  0  0  0  0
 36 39  2  0  0  0  0
 37 32  1  0  0  0  0
 38 35  2  0  0  0  0
 38 34  1  0  0  0  0
 39 37  1  0  0  0  0
 40 45  1  0  0  0  0
 41 40  2  0  0  0  0
 42 41  1  0  0  0  0
 42 44  2  0  0  0  0
 43 45  2  0  0  0  0
 44 43  1  0  0  0  0
 45 35  1  0  0  0  0
 46 50  1  6  0  0  0
 46 48  1  0  0  0  0
 47 44  1  1  0  0  0
 47 46  1  0  0  0  0
 47 48  1  0  0  0  0
 48 49  1  6  0  0  0
 48 51  1  0  0  0  0
 49 51  1  0  0  0  0
 51 52  1  6  0  0  0
 53 52  1  0  0  0  0
 53 54  1  0  0  0  0
 55 53  2  0  0  0  0
M  END
>  <MODEL>
8

>  <REMARK>
 VINA RESULT:      -7.6      2.413      4.160
  Name = 
  15 active torsions:
  status: ('A' for Active; 'I' for Inactive)
    1  A    between atoms: C_2  and  C_27
    2  A    between atoms: C_2  and  C_55
    3  A    between atoms: C_6  and  C_20
    4  A    between atoms: C_10  and  C_14
    5  A    between atoms: C_12  and  C_55
    6  A    between atoms: C_13  and  C_15
    7  A    between atoms: C_14  and  C_54
    8  A    between atoms: C_20  and  C_53
    9  A    between atoms: C_23  and  C_27
   10  A    between atoms: C_23  and  C_34
   11  A    between atoms: C_27  and  N_50
   12  A    between atoms: C_30  and  C_45
   13  A    between atoms: C_33  and  C_46
   14  A    between atoms: C_34  and  C_49
   15  A    between atoms: C_37  and  N_50
                            x       y       z     vdW  Elec       q    Type
                         _______ _______ _______ _____ _____    ______ ____

>  <TORSDO>
F 15

$$$$
=
 OpenBabel10222421053D

 55 62  0  0  1  0  0  0  0  0999 V2000
  183.3990  178.6450  143.9220 C   0  0  2  0  0  3  0  0  0  0  0  0
  184.3300  178.2370  142.7910 C   0  0  0  0  0  2  0  0  0  0  0  0
  185.2690  179.3740  142.4340 C   0  0  0  0  0  2  0  0  0  0  0  0
  185.8820  179.1330  141.0690 C   0  0  1  0  0  3  0  0  0  0  0  0
  184.2110  180.1260  139.4050 O   0  0  0  0  0  0  0  0  0  0  0  0
  185.3610  177.9900  140.5260 O   0  0  0  0  0  0  0  0  0  0  0  0
  184.9270  179.3600  140.1040 C   0  0  0  0  0  0  0  0  0  0  0  0
  182.3120  179.5540  143.3820 C   0  0  0  0  0  2  0  0  0  0  0  0
  180.1820  179.2580  144.3430 O   0  0  0  0  0  0  0  0  0  0  0  0
  180.9820  178.8890  143.4950 C   0  0  0  0  0  0  0  0  0  0  0  0
  179.6590  178.0610  140.7080 C   0  0  2  0  0  3  0  0  0  0  0  0
  181.4600  177.9990  140.9490 S   0  0  0  0  0  0  0  0  0  0  0  0
  179.2660  177.8750  142.0980 N   0  0  0  0  0  2  0  0  0  0  0  0
  180.6440  177.7710  142.5540 C   0  0  2  0  0  3  0  0  0  0  0  0
  179.2180  176.8650  139.8650 C   0  0  0  0  0  2  0  0  0  0  0  0
  182.8400  175.5310  136.5760 C   0  0  0  0  0  0  0  0  0  0  0  0
  180.9490  176.0890  138.1700 C   0  0  0  0  0  0  0  0  0  0  0  0
  181.9010  177.8360  136.6400 C   0  0  0  0  0  2  0  0  0  0  0  0
  183.7720  175.9630  135.8380 O   0  0  0  0  0  0  0  0  0  0  0  0
  179.8770  178.3720  137.9500 C   0  0  0  0  0  2  0  0  0  0  0  0
  181.1220  175.0330  138.8390 O   0  0  0  0  0  0  0  0  0  0  0  0
  181.8720  176.4520  137.1160 N   0  0  0  0  0  0  0  0  0  0  0  0
  180.4990  178.4190  136.5660 C   0  0  0  0  0  2  0  0  0  0  0  0
  179.7160  176.9260  138.4170 C   0  0  2  0  0  3  0  0  0  0  0  0
  184.1150  173.3800  136.7330 C   0  0  2  0  0  3  0  0  0  0  0  0
  182.7350  174.0550  136.8130 C   0  0  2  0  0  3  0  0  0  0  0  0
  181.5260  171.9370  136.1400 C   0  0  0  0  0  2  0  0  0  0  0  0
  182.7500  171.2540  136.7670 C   0  0  0  0  0  2  0  0  0  0  0  0
  181.7380  173.4260  135.8410 C   0  0  0  0  0  2  0  0  0  0  0  0
  184.0500  171.9080  136.3080 C   0  0  0  0  0  2  0  0  0  0  0  0
  184.7610  173.4870  137.9680 O   0  0  0  0  0  1  0  0  0  0  0  0
  184.1370  179.3500  144.9620 N   0  0  0  0  0  2  0  0  0  0  0  0
  185.5520  179.3780  146.8590 C   0  0  0  0  0  3  0  0  0  0  0  0
  186.4840  178.7920  147.8660 C   0  0  0  0  0  2  0  0  0  0  0  0
  187.9400  177.5360  146.2660 C   0  0  0  0  0  0  0  0  0  0  0  0
  186.7790  176.8260  145.6700 C   0  0  0  0  0  3  0  0  0  0  0  0
  185.1160  178.7140  145.7890 C   0  0  0  0  0  0  0  0  0  0  0  0
  187.7950  178.4370  147.2460 C   0  0  0  0  0  3  0  0  0  0  0  0
  185.5560  177.3320  145.4670 C   0  0  0  0  0  3  0  0  0  0  0  0
  190.3710  177.0840  146.6810 C   0  0  0  0  0  3  0  0  0  0  0  0
  191.6420  176.7510  146.2090 C   0  0  0  0  0  3  0  0  0  0  0  0
  191.8450  176.5530  144.8800 N   0  0  0  0  0  0  0  0  0  0  0  0
  189.5470  176.9980  144.4160 C   0  0  0  0  0  3  0  0  0  0  0  0
  190.8300  176.6730  143.9750 C   0  0  0  0  0  0  0  0  0  0  0  0
  189.3020  177.2090  145.7810 C   0  0  0  0  0  0  0  0  0  0  0  0
  191.2310  177.7690  141.7970 C   0  0  2  0  0  3  0  0  0  0  0  0
  191.0480  176.4660  142.5030 C   0  0  2  0  0  3  0  0  0  0  0  0
  189.8810  176.9920  141.6700 C   0  0  2  0  0  0  0  0  0  0  0  0
  189.8740  176.0360  140.6120 O   0  0  0  0  0  0  0  0  0  0  0  0
  192.3260  177.5020  140.7630 C   0  0  0  0  0  1  0  0  0  0  0  0
  189.2220  177.2170  140.3120 C   0  0  2  0  0  3  0  0  0  0  0  0
  189.9710  177.9770  139.2220 C   0  0  0  0  0  2  0  0  0  0  0  0
  189.0090  178.5070  138.2190 C   0  0  0  0  0  0  0  0  0  0  0  0
  189.0550  179.7190  137.8840 O   0  0  0  0  0  1  0  0  0  0  0  0
  188.0850  177.6550  137.6250 O   0  0  0  0  0  0  0  0  0  0  0  0
  1  2  1  6  0  0  0
  1 32  1  0  0  0  0
  3  2  1  0  0  0  0
  4  3  1  1  0  0  0
  5  7  2  0  0  0  0
  6  4  1  0  0  0  0
  7  6  1  0  0  0  0
  7  4  1  0  0  0  0
  8 10  1  0  0  0  0
  8  1  1  0  0  0  0
 10  9  2  0  0  0  0
 11 15  1  6  0  0  0
 11 12  1  0  0  0  0
 11 13  1  0  0  0  0
 12 14  1  0  0  0  0
 13 14  1  0  0  0  0
 14 10  1  1  0  0  0
 16 22  1  0  0  0  0
 17 24  1  0  0  0  0
 17 21  2  0  0  0  0
 18 22  1  0  0  0  0
 19 16  2  0  0  0  0
 20 24  1  0  0  0  0
 22 17  1  0  0  0  0
 23 18  1  0  0  0  0
 23 20  1  0  0  0  0
 24 15  1  1  0  0  0
 25 26  1  0  0  0  0
 25 31  1  1  0  0  0
 26 16  1  6  0  0  0
 27 28  1  0  0  0  0
 29 27  1  0  0  0  0
 29 26  1  0  0  0  0
 30 25  1  0  0  0  0
 30 28  1  0  0  0  0
 32 37  1  0  0  0  0
 33 34  1  0  0  0  0
 35 38  2  0  0  0  0
 36 35  1  0  0  0  0
 37 33  2  0  0  0  0
 38 34  1  0  0  0  0
 39 36  2  0  0  0  0
 39 37  1  0  0  0  0
 41 40  1  0  0  0  0
 42 41  2  0  0  0  0
 43 45  1  0  0  0  0
 44 43  2  0  0  0  0
 44 42  1  0  0  0  0
 45 35  1  0  0  0  0
 45 40  2  0  0  0  0
 46 50  1  6  0  0  0
 46 47  1  0  0  0  0
 47 44  1  1  0  0  0
 48 49  1  6  0  0  0
 48 46  1  0  0  0  0
 48 47  1  0  0  0  0
 51 52  1  6  0  0  0
 51 49  1  0  0  0  0
 51 48  1  0  0  0  0
 53 52  1  0  0  0  0
 54 53  1  0  0  0  0
 55 53  2  0  0  0  0
M  END
>  <MODEL>
9

>  <REMARK>
 VINA RESULT:      -7.5      3.430      5.777
  Name = 
  15 active torsions:
  status: ('A' for Active; 'I' for Inactive)
    1  A    between atoms: C_2  and  C_27
    2  A    between atoms: C_2  and  C_55
    3  A    between atoms: C_6  and  C_20
    4  A    between atoms: C_10  and  C_14
    5  A    between atoms: C_12  and  C_55
    6  A    between atoms: C_13  and  C_15
    7  A    between atoms: C_14  and  C_54
    8  A    between atoms: C_20  and  C_53
    9  A    between atoms: C_23  and  C_27
   10  A    between atoms: C_23  and  C_34
   11  A    between atoms: C_27  and  N_50
   12  A    between atoms: C_30  and  C_45
   13  A    between atoms: C_33  and  C_46
   14  A    between atoms: C_34  and  C_49
   15  A    between atoms: C_37  and  N_50
                            x       y       z     vdW  Elec       q    Type
                         _______ _______ _______ _____ _____    ______ ____

>  <TORSDO>
F 15

$$$$
