=
 OpenBabel10222416423D

 30 31  0  0  1  0  0  0  0  0999 V2000
  188.7750  177.9050  147.1880 N   0  0  0  0  0  0  0  0  0  0  0  0
  187.3520  178.1090  147.2700 C   0  0  0  0  0  0  0  0  0  0  0  0
  186.8360  178.5320  148.3400 O   0  0  0  0  0  0  0  0  0  0  0  0
  189.5840  178.0490  148.3920 C   0  0  0  0  0  1  0  0  0  0  0  0
  190.7090  177.1270  141.1230 N   0  0  0  0  0  0  0  0  0  0  0  0
  191.3270  176.7830  142.2850 C   0  0  0  0  0  3  0  0  0  0  0  0
  189.4320  177.5960  145.9480 C   0  0  0  0  0  0  0  0  0  0  0  0
  189.4480  177.6720  143.5200 C   0  0  0  0  0  0  0  0  0  0  0  0
  188.8340  178.0160  142.3140 C   0  0  0  0  0  3  0  0  0  0  0  0
  188.8190  177.9440  144.7340 C   0  0  0  0  0  3  0  0  0  0  0  0
  188.8770  178.0740  139.8750 N   0  0  0  0  0  1  0  0  0  0  0  0
  191.3270  176.7010  144.7090 C   0  0  0  0  0  3  0  0  0  0  0  0
  190.7090  177.0480  143.5070 C   0  0  0  0  0  0  0  0  0  0  0  0
  190.6960  176.9710  145.9370 C   0  0  0  0  0  0  0  0  0  0  0  0
  189.4890  177.7310  141.1120 C   0  0  0  0  0  0  0  0  0  0  0  0
  191.3020  176.6140  147.1480 O   0  0  0  0  0  0  0  0  0  0  0  0
  192.3070  175.6130  147.2420 C   0  0  0  0  0  1  0  0  0  0  0  0
  186.4530  177.8080  146.1090 C   0  0  0  0  0  2  0  0  0  0  0  0
  185.5880  179.0080  145.7600 C   0  0  0  0  0  2  0  0  0  0  0  0
  184.1170  178.6260  145.7630 C   0  0  0  0  0  2  0  0  0  0  0  0
  182.3120  178.7530  144.2540 O   0  0  0  0  0  0  0  0  0  0  0  0
  183.5150  178.8750  144.4210 C   0  0  0  0  0  0  0  0  0  0  0  0
  184.3950  179.2710  143.2830 C   0  0  0  0  0  2  0  0  0  0  0  0
  184.4310  178.1690  142.2330 C   0  0  0  0  0  2  0  0  0  0  0  0
  185.9880  179.6890  141.1990 O   0  0  0  0  0  1  0  0  0  0  0  0
  185.1360  178.6100  140.9530 C   0  0  2  0  0  3  0  0  0  0  0  0
  184.0080  177.8500  138.4270 O   0  0  0  0  0  0  0  0  0  0  0  0
  183.9500  179.0300  139.6370 P   0  0  0  0  0  0  0  0  0  0  0  0
  182.3830  179.1080  140.2700 O   0  0  0  0  0  1  0  0  0  0  0  0
  184.3160  180.3710  139.0440 O   0  0  0  0  0  1  0  0  0  0  0  0
  1  2  1  0  0  0  0
  1  4  1  0  0  0  0
  2  3  2  0  0  0  0
  5  6  1  0  0  0  0
  6 13  2  0  0  0  0
  7  1  1  0  0  0  0
  8 10  1  0  0  0  0
  9  8  2  0  0  0  0
 10  7  2  0  0  0  0
 11 15  1  0  0  0  0
 12 14  2  0  0  0  0
 13  8  1  0  0  0  0
 13 12  1  0  0  0  0
 14  7  1  0  0  0  0
 14 16  1  0  0  0  0
 15  5  2  0  0  0  0
 15  9  1  0  0  0  0
 16 17  1  0  0  0  0
 18  2  1  0  0  0  0
 19 20  1  0  0  0  0
 19 18  1  0  0  0  0
 21 22  2  0  0  0  0
 22 20  1  0  0  0  0
 23 22  1  0  0  0  0
 24 23  1  0  0  0  0
 26 25  1  1  0  0  0
 26 24  1  0  0  0  0
 27 28  2  0  0  0  0
 28 29  1  0  0  0  0
 28 26  1  0  0  0  0
 30 28  1  0  0  0  0
M  END
>  <MODEL>
1

>  <REMARK>
 VINA RESULT:      -8.4      0.000      0.000
  Name = 
  10 active torsions:
  status: ('A' for Active; 'I' for Inactive)
    1  A    between atoms: O_2  and  C_25
    2  A    between atoms: N_5  and  C_13
    3  A    between atoms: C_7  and  C_20
    4  A    between atoms: C_7  and  C_23
    5  A    between atoms: P_8  and  C_18
    6  A    between atoms: C_10  and  C_29
    7  A    between atoms: C_18  and  C_23
    8  A    between atoms: C_20  and  C_24
    9  A    between atoms: C_24  and  C_30
   10  A    between atoms: C_29  and  C_30
                            x       y       z     vdW  Elec       q    Type
                         _______ _______ _______ _____ _____    ______ ____

>  <TORSDO>
F 10

$$$$
=
 OpenBabel10222416423D

 30 31  0  0  1  0  0  0  0  0999 V2000
  189.8880  176.3300  143.1340 N   0  0  0  0  0  0  0  0  0  0  0  0
  189.8870  176.8850  141.8060 C   0  0  0  0  0  0  0  0  0  0  0  0
  190.4470  176.2640  140.8620 O   0  0  0  0  0  0  0  0  0  0  0  0
  190.6660  175.1260  143.4000 C   0  0  0  0  0  1  0  0  0  0  0  0
  185.4830  178.8270  147.0690 N   0  0  0  0  0  0  0  0  0  0  0  0
  186.7890  178.5270  147.3030 C   0  0  0  0  0  3  0  0  0  0  0  0
  189.1180  176.9040  144.2030 C   0  0  0  0  0  0  0  0  0  0  0  0
  186.9960  177.7600  145.0190 C   0  0  0  0  0  0  0  0  0  0  0  0
  185.6530  178.0760  144.8040 C   0  0  0  0  0  3  0  0  0  0  0  0
  187.7670  177.2200  143.9910 C   0  0  0  0  0  3  0  0  0  0  0  0
  183.5360  178.9450  145.6520 N   0  0  0  0  0  1  0  0  0  0  0  0
  188.9140  177.6740  146.5030 C   0  0  0  0  0  3  0  0  0  0  0  0
  187.5730  177.9880  146.2830 C   0  0  0  0  0  0  0  0  0  0  0  0
  189.6970  177.1310  145.4690 C   0  0  0  0  0  0  0  0  0  0  0  0
  184.9050  178.6160  145.8550 C   0  0  0  0  0  0  0  0  0  0  0  0
  191.0480  176.8270  145.6760 O   0  0  0  0  0  0  0  0  0  0  0  0
  191.5560  176.3890  146.9290 C   0  0  0  0  0  1  0  0  0  0  0  0
  189.2500  178.2100  141.5150 C   0  0  0  0  0  2  0  0  0  0  0  0
  188.3440  178.1270  140.2970 C   0  0  0  0  0  2  0  0  0  0  0  0
  189.0490  178.6750  139.0680 C   0  0  0  0  0  2  0  0  0  0  0  0
  187.3500  178.5240  137.4420 O   0  0  0  0  0  0  0  0  0  0  0  0
  188.4340  178.1160  137.8280 C   0  0  0  0  0  0  0  0  0  0  0  0
  189.1520  177.0540  137.0660 C   0  0  0  0  0  2  0  0  0  0  0  0
  190.6330  177.0580  137.4200 C   0  0  0  0  0  2  0  0  0  0  0  0
  190.7180  174.7230  138.0040 O   0  0  0  0  0  1  0  0  0  0  0  0
  191.2900  175.7010  137.1870 C   0  0  2  0  0  3  0  0  0  0  0  0
  193.6680  174.2150  137.7930 O   0  0  0  0  0  1  0  0  0  0  0  0
  193.0910  175.7660  137.4460 P   0  0  0  0  0  0  0  0  0  0  0  0
  193.8570  176.3540  136.0580 O   0  0  0  0  0  0  0  0  0  0  0  0
  193.3950  176.6820  138.6100 O   0  0  0  0  0  1  0  0  0  0  0  0
  1  4  1  0  0  0  0
  1  7  1  0  0  0  0
  2  1  1  0  0  0  0
  3  2  2  0  0  0  0
  5  6  1  0  0  0  0
  7 14  1  0  0  0  0
  8 13  1  0  0  0  0
  9  8  2  0  0  0  0
  9 15  1  0  0  0  0
 10  7  2  0  0  0  0
 10  8  1  0  0  0  0
 11 15  1  0  0  0  0
 13 12  1  0  0  0  0
 13  6  2  0  0  0  0
 14 16  1  0  0  0  0
 14 12  2  0  0  0  0
 15  5  2  0  0  0  0
 16 17  1  0  0  0  0
 18  2  1  0  0  0  0
 19 18  1  0  0  0  0
 20 19  1  0  0  0  0
 21 22  2  0  0  0  0
 22 20  1  0  0  0  0
 23 24  1  0  0  0  0
 23 22  1  0  0  0  0
 26 24  1  0  0  0  0
 26 28  1  0  0  0  0
 26 25  1  1  0  0  0
 28 27  1  0  0  0  0
 28 30  1  0  0  0  0
 29 28  2  0  0  0  0
M  END
>  <MODEL>
2

>  <REMARK>
 VINA RESULT:      -8.4      4.504      6.914
  Name = 
  10 active torsions:
  status: ('A' for Active; 'I' for Inactive)
    1  A    between atoms: O_2  and  C_25
    2  A    between atoms: N_5  and  C_13
    3  A    between atoms: C_7  and  C_20
    4  A    between atoms: C_7  and  C_23
    5  A    between atoms: P_8  and  C_18
    6  A    between atoms: C_10  and  C_29
    7  A    between atoms: C_18  and  C_23
    8  A    between atoms: C_20  and  C_24
    9  A    between atoms: C_24  and  C_30
   10  A    between atoms: C_29  and  C_30
                            x       y       z     vdW  Elec       q    Type
                         _______ _______ _______ _____ _____    ______ ____

>  <TORSDO>
F 10

$$$$
=
 OpenBabel10222416423D

 30 31  0  0  1  0  0  0  0  0999 V2000
  189.8890  176.2950  143.1760 N   0  0  0  0  0  0  0  0  0  0  0  0
  189.9820  176.8910  141.8690 C   0  0  0  0  0  0  0  0  0  0  0  0
  190.5570  176.2720  140.9330 O   0  0  0  0  0  0  0  0  0  0  0  0
  190.5920  175.0460  143.4390 C   0  0  0  0  0  1  0  0  0  0  0  0
  185.4100  178.8460  146.9910 N   0  0  0  0  0  0  0  0  0  0  0  0
  186.7000  178.5140  147.2650 C   0  0  0  0  0  3  0  0  0  0  0  0
  189.0970  176.8750  144.2250 C   0  0  0  0  0  0  0  0  0  0  0  0
  186.9670  177.7680  144.9800 C   0  0  0  0  0  0  0  0  0  0  0  0
  185.6400  178.1170  144.7250 C   0  0  0  0  0  3  0  0  0  0  0  0
  187.7600  177.2230  143.9720 C   0  0  0  0  0  3  0  0  0  0  0  0
  183.5150  179.0220  145.5120 N   0  0  0  0  0  1  0  0  0  0  0  0
  188.8320  177.6230  146.5270 C   0  0  0  0  0  3  0  0  0  0  0  0
  187.5060  177.9690  146.2650 C   0  0  0  0  0  0  0  0  0  0  0  0
  189.6370  177.0750  145.5130 C   0  0  0  0  0  0  0  0  0  0  0  0
  184.8690  178.6610  145.7560 C   0  0  0  0  0  0  0  0  0  0  0  0
  190.9740  176.7390  145.7610 O   0  0  0  0  0  0  0  0  0  0  0  0
  191.4740  176.4820  147.0670 C   0  0  0  0  0  1  0  0  0  0  0  0
  189.4260  178.2550  141.5930 C   0  0  0  0  0  2  0  0  0  0  0  0
  188.4590  178.2260  140.4200 C   0  0  0  0  0  2  0  0  0  0  0  0
  189.2050  178.3980  139.1070 C   0  0  0  0  0  2  0  0  0  0  0  0
  188.3930  179.3350  137.1030 O   0  0  0  0  0  0  0  0  0  0  0  0
  188.2400  178.4910  137.9730 C   0  0  0  0  0  0  0  0  0  0  0  0
  187.0870  177.5480  137.9100 C   0  0  0  0  0  2  0  0  0  0  0  0
  185.8130  178.2930  137.5340 C   0  0  0  0  0  2  0  0  0  0  0  0
  183.5190  177.5590  137.5160 O   0  0  0  0  0  1  0  0  0  0  0  0
  184.6080  177.8300  138.3480 C   0  0  2  0  0  3  0  0  0  0  0  0
  184.1160  180.5950  138.9370 O   0  0  0  0  0  0  0  0  0  0  0  0
  184.1420  179.0470  139.6190 P   0  0  0  0  0  0  0  0  0  0  0  0
  182.6120  178.6820  140.2400 O   0  0  0  0  0  1  0  0  0  0  0  0
  185.1560  179.0140  140.7400 O   0  0  0  0  0  1  0  0  0  0  0  0
  1  4  1  0  0  0  0
  1  7  1  0  0  0  0
  2  1  1  0  0  0  0
  3  2  2  0  0  0  0
  5  6  1  0  0  0  0
  7 14  1  0  0  0  0
  8 13  1  0  0  0  0
  9  8  2  0  0  0  0
  9 15  1  0  0  0  0
 10  7  2  0  0  0  0
 10  8  1  0  0  0  0
 11 15  1  0  0  0  0
 13 12  1  0  0  0  0
 13  6  2  0  0  0  0
 14 16  1  0  0  0  0
 14 12  2  0  0  0  0
 15  5  2  0  0  0  0
 16 17  1  0  0  0  0
 18  2  1  0  0  0  0
 19 18  1  0  0  0  0
 20 19  1  0  0  0  0
 21 22  2  0  0  0  0
 22 20  1  0  0  0  0
 23 22  1  0  0  0  0
 24 23  1  0  0  0  0
 24 26  1  0  0  0  0
 26 25  1  6  0  0  0
 26 28  1  0  0  0  0
 27 28  2  0  0  0  0
 28 29  1  0  0  0  0
 28 30  1  0  0  0  0
M  END
>  <MODEL>
3

>  <REMARK>
 VINA RESULT:      -8.4      2.442      5.316
  Name = 
  10 active torsions:
  status: ('A' for Active; 'I' for Inactive)
    1  A    between atoms: O_2  and  C_25
    2  A    between atoms: N_5  and  C_13
    3  A    between atoms: C_7  and  C_20
    4  A    between atoms: C_7  and  C_23
    5  A    between atoms: P_8  and  C_18
    6  A    between atoms: C_10  and  C_29
    7  A    between atoms: C_18  and  C_23
    8  A    between atoms: C_20  and  C_24
    9  A    between atoms: C_24  and  C_30
   10  A    between atoms: C_29  and  C_30
                            x       y       z     vdW  Elec       q    Type
                         _______ _______ _______ _____ _____    ______ ____

>  <TORSDO>
F 10

$$$$
=
 OpenBabel10222416423D

 30 31  0  0  1  0  0  0  0  0999 V2000
  189.7240  176.3870  142.9750 N   0  0  0  0  0  0  0  0  0  0  0  0
  189.7330  176.9450  141.6480 C   0  0  0  0  0  0  0  0  0  0  0  0
  190.3150  176.3340  140.7110 O   0  0  0  0  0  0  0  0  0  0  0  0
  190.5150  175.1940  143.2500 C   0  0  0  0  0  1  0  0  0  0  0  0
  185.2420  178.8670  146.8340 N   0  0  0  0  0  0  0  0  0  0  0  0
  186.5340  178.5350  147.1010 C   0  0  0  0  0  3  0  0  0  0  0  0
  188.9310  176.9480  144.0340 C   0  0  0  0  0  0  0  0  0  0  0  0
  186.8000  177.8240  144.8050 C   0  0  0  0  0  0  0  0  0  0  0  0
  185.4710  178.1730  144.5560 C   0  0  0  0  0  3  0  0  0  0  0  0
  187.5930  177.2960  143.7880 C   0  0  0  0  0  3  0  0  0  0  0  0
  183.3450  179.0610  145.3590 N   0  0  0  0  0  1  0  0  0  0  0  0
  188.6680  177.6610  146.3460 C   0  0  0  0  0  3  0  0  0  0  0  0
  187.3400  178.0070  146.0920 C   0  0  0  0  0  0  0  0  0  0  0  0
  189.4730  177.1300  145.3230 C   0  0  0  0  0  0  0  0  0  0  0  0
  184.7000  178.6990  145.5970 C   0  0  0  0  0  0  0  0  0  0  0  0
  190.8100  176.7940  145.5650 O   0  0  0  0  0  0  0  0  0  0  0  0
  191.3510  176.6770  146.8740 C   0  0  0  0  0  1  0  0  0  0  0  0
  189.0810  178.2610  141.3500 C   0  0  0  0  0  2  0  0  0  0  0  0
  188.2430  178.1840  140.0840 C   0  0  0  0  0  2  0  0  0  0  0  0
  189.0390  178.6710  138.8850 C   0  0  0  0  0  2  0  0  0  0  0  0
  187.5260  179.1550  137.1450 O   0  0  0  0  0  0  0  0  0  0  0  0
  188.3140  178.3530  137.6200 C   0  0  0  0  0  0  0  0  0  0  0  0
  188.5580  177.0470  136.9420 C   0  0  0  0  0  2  0  0  0  0  0  0
  190.0470  176.8460  136.6990 C   0  0  0  0  0  2  0  0  0  0  0  0
  189.2290  175.2680  135.0740 O   0  0  0  0  0  1  0  0  0  0  0  0
  190.3360  175.6090  135.8550 C   0  0  2  0  0  3  0  0  0  0  0  0
  189.4810  173.2930  137.3160 O   0  0  0  0  0  1  0  0  0  0  0  0
  190.8450  174.1930  136.8810 P   0  0  0  0  0  0  0  0  0  0  0  0
  191.9170  173.2070  136.0200 O   0  0  0  0  0  0  0  0  0  0  0  0
  191.5270  174.7000  138.1310 O   0  0  0  0  0  1  0  0  0  0  0  0
  1  4  1  0  0  0  0
  1  7  1  0  0  0  0
  2  1  1  0  0  0  0
  3  2  2  0  0  0  0
  5  6  1  0  0  0  0
  7 14  1  0  0  0  0
  8 13  1  0  0  0  0
  9  8  2  0  0  0  0
  9 15  1  0  0  0  0
 10  7  2  0  0  0  0
 10  8  1  0  0  0  0
 11 15  1  0  0  0  0
 13 12  1  0  0  0  0
 13  6  2  0  0  0  0
 14 16  1  0  0  0  0
 14 12  2  0  0  0  0
 15  5  2  0  0  0  0
 16 17  1  0  0  0  0
 18  2  1  0  0  0  0
 19 18  1  0  0  0  0
 20 19  1  0  0  0  0
 21 22  2  0  0  0  0
 22 20  1  0  0  0  0
 23 22  1  0  0  0  0
 24 23  1  0  0  0  0
 26 25  1  1  0  0  0
 26 24  1  0  0  0  0
 26 28  1  0  0  0  0
 28 27  1  0  0  0  0
 28 30  1  0  0  0  0
 29 28  2  0  0  0  0
M  END
>  <MODEL>
4

>  <REMARK>
 VINA RESULT:      -8.2      4.259      6.741
  Name = 
  10 active torsions:
  status: ('A' for Active; 'I' for Inactive)
    1  A    between atoms: O_2  and  C_25
    2  A    between atoms: N_5  and  C_13
    3  A    between atoms: C_7  and  C_20
    4  A    between atoms: C_7  and  C_23
    5  A    between atoms: P_8  and  C_18
    6  A    between atoms: C_10  and  C_29
    7  A    between atoms: C_18  and  C_23
    8  A    between atoms: C_20  and  C_24
    9  A    between atoms: C_24  and  C_30
   10  A    between atoms: C_29  and  C_30
                            x       y       z     vdW  Elec       q    Type
                         _______ _______ _______ _____ _____    ______ ____

>  <TORSDO>
F 10

$$$$
=
 OpenBabel10222416423D

 30 31  0  0  1  0  0  0  0  0999 V2000
  189.6330  177.1650  145.7900 N   0  0  0  0  0  0  0  0  0  0  0  0
  190.6440  177.4200  144.7960 C   0  0  0  0  0  0  0  0  0  0  0  0
  191.7670  176.8520  144.8790 O   0  0  0  0  0  0  0  0  0  0  0  0
  189.9730  176.3670  146.9610 C   0  0  0  0  0  1  0  0  0  0  0  0
  183.7170  178.8420  143.9690 N   0  0  0  0  0  0  0  0  0  0  0  0
  184.3230  178.9650  145.1820 C   0  0  0  0  0  3  0  0  0  0  0  0
  188.2860  177.6440  145.6490 C   0  0  0  0  0  0  0  0  0  0  0  0
  186.3210  177.9660  144.2560 C   0  0  0  0  0  0  0  0  0  0  0  0
  185.6780  177.8500  143.0230 C   0  0  0  0  0  3  0  0  0  0  0  0
  187.6350  177.5260  144.4110 C   0  0  0  0  0  3  0  0  0  0  0  0
  183.6900  178.1910  141.6490 N   0  0  0  0  0  1  0  0  0  0  0  0
  186.2760  178.6490  146.5850 C   0  0  0  0  0  3  0  0  0  0  0  0
  185.6370  178.5300  145.3500 C   0  0  0  0  0  0  0  0  0  0  0  0
  187.6020  178.2090  146.7450 C   0  0  0  0  0  0  0  0  0  0  0  0
  184.3590  178.3000  142.8990 C   0  0  0  0  0  0  0  0  0  0  0  0
  188.2560  178.3370  147.9770 O   0  0  0  0  0  0  0  0  0  0  0  0
  187.7080  177.8500  149.1950 C   0  0  0  0  0  1  0  0  0  0  0  0
  190.4020  178.3710  143.6640 C   0  0  0  0  0  2  0  0  0  0  0  0
  191.0350  177.8650  142.3780 C   0  0  0  0  0  2  0  0  0  0  0  0
  190.0790  176.9450  141.6380 C   0  0  0  0  0  2  0  0  0  0  0  0
  188.3240  178.3050  140.8510 O   0  0  0  0  0  0  0  0  0  0  0  0
  189.3500  177.7010  140.5790 C   0  0  0  0  0  0  0  0  0  0  0  0
  189.8800  177.7110  139.1850 C   0  0  0  0  0  2  0  0  0  0  0  0
  190.5570  176.3850  138.8660 C   0  0  0  0  0  2  0  0  0  0  0  0
  190.9420  175.5060  136.6570 O   0  0  0  0  0  1  0  0  0  0  0  0
  191.3860  176.4490  137.5870 C   0  0  2  0  0  3  0  0  0  0  0  0
  194.0630  176.8850  136.6510 O   0  0  0  0  0  0  0  0  0  0  0  0
  193.1620  176.2200  137.9180 P   0  0  0  0  0  0  0  0  0  0  0  0
  193.5850  176.9800  139.3680 O   0  0  0  0  0  1  0  0  0  0  0  0
  193.4650  174.7420  138.0230 O   0  0  0  0  0  1  0  0  0  0  0  0
  1  4  1  0  0  0  0
  2  3  2  0  0  0  0
  2  1  1  0  0  0  0
  5  6  1  0  0  0  0
  6 13  2  0  0  0  0
  7  1  1  0  0  0  0
  7 14  1  0  0  0  0
  8 10  1  0  0  0  0
  8 13  1  0  0  0  0
  9  8  2  0  0  0  0
 10  7  2  0  0  0  0
 11 15  1  0  0  0  0
 12 14  2  0  0  0  0
 13 12  1  0  0  0  0
 14 16  1  0  0  0  0
 15  9  1  0  0  0  0
 15  5  2  0  0  0  0
 16 17  1  0  0  0  0
 18  2  1  0  0  0  0
 19 18  1  0  0  0  0
 20 19  1  0  0  0  0
 22 21  2  0  0  0  0
 22 20  1  0  0  0  0
 23 22  1  0  0  0  0
 24 23  1  0  0  0  0
 26 25  1  6  0  0  0
 26 28  1  0  0  0  0
 26 24  1  0  0  0  0
 27 28  2  0  0  0  0
 28 30  1  0  0  0  0
 28 29  1  0  0  0  0
M  END
>  <MODEL>
5

>  <REMARK>
 VINA RESULT:      -7.9      4.241      6.518
  Name = 
  10 active torsions:
  status: ('A' for Active; 'I' for Inactive)
    1  A    between atoms: O_2  and  C_25
    2  A    between atoms: N_5  and  C_13
    3  A    between atoms: C_7  and  C_20
    4  A    between atoms: C_7  and  C_23
    5  A    between atoms: P_8  and  C_18
    6  A    between atoms: C_10  and  C_29
    7  A    between atoms: C_18  and  C_23
    8  A    between atoms: C_20  and  C_24
    9  A    between atoms: C_24  and  C_30
   10  A    between atoms: C_29  and  C_30
                            x       y       z     vdW  Elec       q    Type
                         _______ _______ _______ _____ _____    ______ ____

>  <TORSDO>
F 10

$$$$
=
 OpenBabel10222416423D

 30 31  0  0  1  0  0  0  0  0999 V2000
  185.3820  178.2530  141.8900 N   0  0  0  0  0  0  0  0  0  0  0  0
  186.3490  178.6280  140.8930 C   0  0  0  0  0  0  0  0  0  0  0  0
  185.9930  178.7710  139.6910 O   0  0  0  0  0  0  0  0  0  0  0  0
  184.0310  177.8980  141.4720 C   0  0  0  0  0  1  0  0  0  0  0  0
  187.8760  177.7070  147.7730 N   0  0  0  0  0  0  0  0  0  0  0  0
  186.6990  178.2610  147.3750 C   0  0  0  0  0  3  0  0  0  0  0  0
  185.6930  178.2490  143.2930 C   0  0  0  0  0  0  0  0  0  0  0  0
  187.2350  177.6900  145.0860 C   0  0  0  0  0  0  0  0  0  0  0  0
  188.4370  177.1290  145.5200 C   0  0  0  0  0  3  0  0  0  0  0  0
  186.9030  177.6880  143.7320 C   0  0  0  0  0  3  0  0  0  0  0  0
  189.9620  176.5770  147.3430 N   0  0  0  0  0  1  0  0  0  0  0  0
  185.1510  178.8260  145.5950 C   0  0  0  0  0  3  0  0  0  0  0  0
  186.3540  178.2630  146.0230 C   0  0  0  0  0  0  0  0  0  0  0  0
  184.8100  178.8240  144.2310 C   0  0  0  0  0  0  0  0  0  0  0  0
  188.7420  177.1470  146.8850 C   0  0  0  0  0  0  0  0  0  0  0  0
  183.5990  179.3730  143.7930 O   0  0  0  0  0  0  0  0  0  0  0  0
  182.3410  179.0030  144.3440 C   0  0  0  0  0  1  0  0  0  0  0  0
  187.7910  178.8350  141.2440 C   0  0  0  0  0  2  0  0  0  0  0  0
  188.6880  177.8960  140.4530 C   0  0  0  0  0  2  0  0  0  0  0  0
  189.9510  177.5770  141.2360 C   0  0  0  0  0  2  0  0  0  0  0  0
  192.2020  177.4760  140.5450 O   0  0  0  0  0  0  0  0  0  0  0  0
  191.0440  177.1670  140.3070 C   0  0  0  0  0  0  0  0  0  0  0  0
  190.7140  176.3790  139.0850 C   0  0  0  0  0  2  0  0  0  0  0  0
  191.7110  176.6820  137.9750 C   0  0  0  0  0  2  0  0  0  0  0  0
  191.7160  174.2740  137.9010 O   0  0  0  0  0  1  0  0  0  0  0  0
  192.1680  175.4210  137.2450 C   0  0  2  0  0  3  0  0  0  0  0  0
  194.4120  173.9940  136.1700 O   0  0  0  0  0  0  0  0  0  0  0  0
  193.9780  175.3680  137.0550 P   0  0  0  0  0  0  0  0  0  0  0  0
  194.5180  176.7520  136.2460 O   0  0  0  0  0  1  0  0  0  0  0  0
  194.6220  175.3050  138.4210 O   0  0  0  0  0  1  0  0  0  0  0  0
  1  7  1  0  0  0  0
  2 18  1  0  0  0  0
  2  1  1  0  0  0  0
  3  2  2  0  0  0  0
  4  1  1  0  0  0  0
  6  5  1  0  0  0  0
  7 10  2  0  0  0  0
  7 14  1  0  0  0  0
  8  9  2  0  0  0  0
  8 13  1  0  0  0  0
  9 15  1  0  0  0  0
 10  8  1  0  0  0  0
 12 13  1  0  0  0  0
 13  6  2  0  0  0  0
 14 12  2  0  0  0  0
 15 11  1  0  0  0  0
 15  5  2  0  0  0  0
 16 14  1  0  0  0  0
 16 17  1  0  0  0  0
 19 20  1  0  0  0  0
 19 18  1  0  0  0  0
 22 21  2  0  0  0  0
 22 20  1  0  0  0  0
 23 22  1  0  0  0  0
 24 23  1  0  0  0  0
 26 25  1  1  0  0  0
 26 24  1  0  0  0  0
 27 28  2  0  0  0  0
 28 26  1  0  0  0  0
 28 30  1  0  0  0  0
 29 28  1  0  0  0  0
M  END
>  <MODEL>
6

>  <REMARK>
 VINA RESULT:      -7.9      4.699      8.024
  Name = 
  10 active torsions:
  status: ('A' for Active; 'I' for Inactive)
    1  A    between atoms: O_2  and  C_25
    2  A    between atoms: N_5  and  C_13
    3  A    between atoms: C_7  and  C_20
    4  A    between atoms: C_7  and  C_23
    5  A    between atoms: P_8  and  C_18
    6  A    between atoms: C_10  and  C_29
    7  A    between atoms: C_18  and  C_23
    8  A    between atoms: C_20  and  C_24
    9  A    between atoms: C_24  and  C_30
   10  A    between atoms: C_29  and  C_30
                            x       y       z     vdW  Elec       q    Type
                         _______ _______ _______ _____ _____    ______ ____

>  <TORSDO>
F 10

$$$$
=
 OpenBabel10222416423D

 30 31  0  0  1  0  0  0  0  0999 V2000
  189.4040  176.4830  142.8160 N   0  0  0  0  0  0  0  0  0  0  0  0
  189.4590  177.0600  141.4970 C   0  0  0  0  0  0  0  0  0  0  0  0
  190.0580  176.4540  140.5680 O   0  0  0  0  0  0  0  0  0  0  0  0
  190.1700  175.2740  143.0950 C   0  0  0  0  0  1  0  0  0  0  0  0
  184.8400  178.9300  146.5990 N   0  0  0  0  0  0  0  0  0  0  0  0
  186.1330  178.6150  146.8850 C   0  0  0  0  0  3  0  0  0  0  0  0
  188.5900  177.0400  143.8600 C   0  0  0  0  0  0  0  0  0  0  0  0
  186.4380  177.8950  144.5970 C   0  0  0  0  0  0  0  0  0  0  0  0
  185.1090  178.2250  144.3280 C   0  0  0  0  0  3  0  0  0  0  0  0
  187.2520  177.3710  143.5940 C   0  0  0  0  0  3  0  0  0  0  0  0
  182.9610  179.0920  145.0980 N   0  0  0  0  0  1  0  0  0  0  0  0
  188.2860  177.7630  146.1650 C   0  0  0  0  0  3  0  0  0  0  0  0
  186.9580  178.0910  145.8900 C   0  0  0  0  0  0  0  0  0  0  0  0
  189.1120  177.2370  145.1550 C   0  0  0  0  0  0  0  0  0  0  0  0
  184.3170  178.7480  145.3550 C   0  0  0  0  0  0  0  0  0  0  0  0
  190.4500  176.9180  145.4170 O   0  0  0  0  0  0  0  0  0  0  0  0
  191.5200  177.8220  145.1750 C   0  0  0  0  0  1  0  0  0  0  0  0
  188.8340  178.3890  141.2020 C   0  0  0  0  0  2  0  0  0  0  0  0
  187.8110  178.2780  140.0830 C   0  0  0  0  0  2  0  0  0  0  0  0
  186.4240  178.6410  140.5870 C   0  0  0  0  0  2  0  0  0  0  0  0
  185.8950  178.7250  138.2930 O   0  0  0  0  0  0  0  0  0  0  0  0
  185.5060  178.8900  139.4380 C   0  0  0  0  0  0  0  0  0  0  0  0
  184.1090  179.3440  139.6990 C   0  0  0  0  0  2  0  0  0  0  0  0
  183.4340  178.4270  140.7100 C   0  0  0  0  0  2  0  0  0  0  0  0
  181.4700  178.7330  142.0700 O   0  0  0  0  0  1  0  0  0  0  0  0
  181.9220  178.6240  140.7530 C   0  0  2  0  0  3  0  0  0  0  0  0
  179.7680  176.7320  140.8610 O   0  0  0  0  0  1  0  0  0  0  0  0
  181.0400  177.2830  139.8930 P   0  0  0  0  0  0  0  0  0  0  0  0
  180.4230  177.8430  138.4210 O   0  0  0  0  0  0  0  0  0  0  0  0
  181.9970  176.1420  139.6310 O   0  0  0  0  0  1  0  0  0  0  0  0
  1  4  1  0  0  0  0
  1  7  1  0  0  0  0
  2  1  1  0  0  0  0
  3  2  2  0  0  0  0
  5  6  1  0  0  0  0
  7 14  1  0  0  0  0
  8 13  1  0  0  0  0
  9  8  2  0  0  0  0
  9 15  1  0  0  0  0
 10  7  2  0  0  0  0
 10  8  1  0  0  0  0
 11 15  1  0  0  0  0
 13 12  1  0  0  0  0
 13  6  2  0  0  0  0
 14 16  1  0  0  0  0
 14 12  2  0  0  0  0
 15  5  2  0  0  0  0
 17 16  1  0  0  0  0
 18  2  1  0  0  0  0
 19 20  1  0  0  0  0
 19 18  1  0  0  0  0
 21 22  2  0  0  0  0
 22 23  1  0  0  0  0
 22 20  1  0  0  0  0
 23 24  1  0  0  0  0
 24 26  1  0  0  0  0
 26 25  1  1  0  0  0
 28 26  1  0  0  0  0
 28 27  1  0  0  0  0
 29 28  2  0  0  0  0
 30 28  1  0  0  0  0
M  END
>  <MODEL>
7

>  <REMARK>
 VINA RESULT:      -7.6      2.499      5.108
  Name = 
  10 active torsions:
  status: ('A' for Active; 'I' for Inactive)
    1  A    between atoms: O_2  and  C_25
    2  A    between atoms: N_5  and  C_13
    3  A    between atoms: C_7  and  C_20
    4  A    between atoms: C_7  and  C_23
    5  A    between atoms: P_8  and  C_18
    6  A    between atoms: C_10  and  C_29
    7  A    between atoms: C_18  and  C_23
    8  A    between atoms: C_20  and  C_24
    9  A    between atoms: C_24  and  C_30
   10  A    between atoms: C_29  and  C_30
                            x       y       z     vdW  Elec       q    Type
                         _______ _______ _______ _____ _____    ______ ____

>  <TORSDO>
F 10

$$$$
=
 OpenBabel10222416423D

 30 31  0  0  1  0  0  0  0  0999 V2000
  184.9900  178.3150  141.7980 N   0  0  0  0  0  0  0  0  0  0  0  0
  185.9820  178.7110  140.8330 C   0  0  0  0  0  0  0  0  0  0  0  0
  185.6740  178.8010  139.6130 O   0  0  0  0  0  0  0  0  0  0  0  0
  183.6790  177.8790  141.3320 C   0  0  0  0  0  1  0  0  0  0  0  0
  187.2280  178.0440  147.8010 N   0  0  0  0  0  0  0  0  0  0  0  0
  186.0550  178.5460  147.3320 C   0  0  0  0  0  3  0  0  0  0  0  0
  185.2370  178.3670  143.2120 C   0  0  0  0  0  0  0  0  0  0  0  0
  186.7110  177.9180  145.0910 C   0  0  0  0  0  0  0  0  0  0  0  0
  187.9080  177.4100  145.5970 C   0  0  0  0  0  3  0  0  0  0  0  0
  186.4420  177.8600  143.7240 C   0  0  0  0  0  3  0  0  0  0  0  0
  189.3650  176.9680  147.5040 N   0  0  0  0  0  1  0  0  0  0  0  0
  184.5730  179.0030  145.4670 C   0  0  0  0  0  3  0  0  0  0  0  0
  185.7720  178.4940  145.9670 C   0  0  0  0  0  0  0  0  0  0  0  0
  184.2950  178.9450  144.0890 C   0  0  0  0  0  0  0  0  0  0  0  0
  188.1510  177.4830  146.9720 C   0  0  0  0  0  0  0  0  0  0  0  0
  183.0890  179.4400  143.5800 O   0  0  0  0  0  0  0  0  0  0  0  0
  181.8200  178.9320  143.9710 C   0  0  0  0  0  1  0  0  0  0  0  0
  187.3940  179.0020  141.2400 C   0  0  0  0  0  2  0  0  0  0  0  0
  188.3160  177.8470  140.8850 C   0  0  0  0  0  2  0  0  0  0  0  0
  189.5500  177.8550  141.7710 C   0  0  0  0  0  2  0  0  0  0  0  0
  191.8530  177.5040  141.4150 O   0  0  0  0  0  0  0  0  0  0  0  0
  190.7140  177.2720  141.0420 C   0  0  0  0  0  0  0  0  0  0  0  0
  190.4750  176.4030  139.8530 C   0  0  0  0  0  2  0  0  0  0  0  0
  190.8140  177.1540  138.5730 C   0  0  0  0  0  2  0  0  0  0  0  0
  190.8630  176.5130  136.2520 O   0  0  0  0  0  1  0  0  0  0  0  0
  190.0340  176.6320  137.3700 C   0  0  2  0  0  3  0  0  0  0  0  0
  188.4760  177.8770  135.3080 O   0  0  0  0  0  0  0  0  0  0  0  0
  188.6010  177.6860  136.9830 P   0  0  0  0  0  0  0  0  0  0  0  0
  187.1830  176.9790  137.5750 O   0  0  0  0  0  1  0  0  0  0  0  0
  188.7880  179.0410  137.6260 O   0  0  0  0  0  1  0  0  0  0  0  0
  1  7  1  0  0  0  0
  2 18  1  0  0  0  0
  2  1  1  0  0  0  0
  3  2  2  0  0  0  0
  4  1  1  0  0  0  0
  6  5  1  0  0  0  0
  7 10  2  0  0  0  0
  7 14  1  0  0  0  0
  8  9  2  0  0  0  0
  8 13  1  0  0  0  0
  9 15  1  0  0  0  0
 10  8  1  0  0  0  0
 12 13  1  0  0  0  0
 13  6  2  0  0  0  0
 14 12  2  0  0  0  0
 15 11  1  0  0  0  0
 15  5  2  0  0  0  0
 16 17  1  0  0  0  0
 16 14  1  0  0  0  0
 19 18  1  0  0  0  0
 19 20  1  0  0  0  0
 22 21  2  0  0  0  0
 22 20  1  0  0  0  0
 23 22  1  0  0  0  0
 24 23  1  0  0  0  0
 26 25  1  6  0  0  0
 26 24  1  0  0  0  0
 27 28  2  0  0  0  0
 28 26  1  0  0  0  0
 28 29  1  0  0  0  0
 28 30  1  0  0  0  0
M  END
>  <MODEL>
8

>  <REMARK>
 VINA RESULT:      -7.5      2.968      6.993
  Name = 
  10 active torsions:
  status: ('A' for Active; 'I' for Inactive)
    1  A    between atoms: O_2  and  C_25
    2  A    between atoms: N_5  and  C_13
    3  A    between atoms: C_7  and  C_20
    4  A    between atoms: C_7  and  C_23
    5  A    between atoms: P_8  and  C_18
    6  A    between atoms: C_10  and  C_29
    7  A    between atoms: C_18  and  C_23
    8  A    between atoms: C_20  and  C_24
    9  A    between atoms: C_24  and  C_30
   10  A    between atoms: C_29  and  C_30
                            x       y       z     vdW  Elec       q    Type
                         _______ _______ _______ _____ _____    ______ ____

>  <TORSDO>
F 10

$$$$
=
 OpenBabel10222416423D

 30 31  0  0  1  0  0  0  0  0999 V2000
  184.9120  178.6450  139.6020 N   0  0  0  0  0  0  0  0  0  0  0  0
  185.4540  178.7520  140.9310 C   0  0  0  0  0  0  0  0  0  0  0  0
  186.6940  178.6220  141.1190 O   0  0  0  0  0  0  0  0  0  0  0  0
  185.7860  178.2400  138.5080 C   0  0  0  0  0  1  0  0  0  0  0  0
  179.2440  181.2190  138.0580 N   0  0  0  0  0  0  0  0  0  0  0  0
  179.5590  179.9340  138.3780 C   0  0  0  0  0  3  0  0  0  0  0  0
  183.5410  178.9590  139.3090 C   0  0  0  0  0  0  0  0  0  0  0  0
  181.8670  180.5980  138.6650 C   0  0  0  0  0  0  0  0  0  0  0  0
  181.5180  181.9090  138.3340 C   0  0  0  0  0  3  0  0  0  0  0  0
  183.1880  180.2750  138.9720 C   0  0  0  0  0  3  0  0  0  0  0  0
  179.8140  183.5320  137.6920 N   0  0  0  0  0  1  0  0  0  0  0  0
  181.2190  178.2860  139.0200 C   0  0  0  0  0  3  0  0  0  0  0  0
  180.8770  179.5980  138.6880 C   0  0  0  0  0  0  0  0  0  0  0  0
  182.5500  177.9550  139.3320 C   0  0  0  0  0  0  0  0  0  0  0  0
  180.1860  182.2020  138.0300 C   0  0  0  0  0  0  0  0  0  0  0  0
  182.9000  176.6450  139.6800 O   0  0  0  0  0  0  0  0  0  0  0  0
  182.7830  175.5510  138.7800 C   0  0  0  0  0  1  0  0  0  0  0  0
  184.5710  178.9950  142.1170 C   0  0  0  0  0  2  0  0  0  0  0  0
  185.1120  178.3010  143.3560 C   0  0  0  0  0  2  0  0  0  0  0  0
  184.6160  178.9900  144.6160 C   0  0  0  0  0  2  0  0  0  0  0  0
  185.0570  178.8690  146.9270 O   0  0  0  0  0  0  0  0  0  0  0  0
  185.3580  178.4860  145.8070 C   0  0  0  0  0  0  0  0  0  0  0  0
  186.4730  177.5120  145.6210 C   0  0  0  0  0  2  0  0  0  0  0  0
  187.8050  178.1600  145.9700 C   0  0  0  0  0  2  0  0  0  0  0  0
  189.6720  177.2750  147.2100 O   0  0  0  0  0  1  0  0  0  0  0  0
  188.9470  177.1490  146.0230 C   0  0  2  0  0  3  0  0  0  0  0  0
  191.5350  176.5610  144.9330 O   0  0  0  0  0  1  0  0  0  0  0  0
  190.0550  177.3040  144.5870 P   0  0  0  0  0  0  0  0  0  0  0  0
  189.3600  176.5670  143.2330 O   0  0  0  0  0  0  0  0  0  0  0  0
  190.2900  178.7680  144.2920 O   0  0  0  0  0  1  0  0  0  0  0  0
  1  2  1  0  0  0  0
  2  3  2  0  0  0  0
  2 18  1  0  0  0  0
  4  1  1  0  0  0  0
  5  6  1  0  0  0  0
  6 13  2  0  0  0  0
  7 14  1  0  0  0  0
  7  1  1  0  0  0  0
  8 13  1  0  0  0  0
  8 10  1  0  0  0  0
  9  8  2  0  0  0  0
 10  7  2  0  0  0  0
 11 15  1  0  0  0  0
 12 14  2  0  0  0  0
 13 12  1  0  0  0  0
 14 16  1  0  0  0  0
 15  5  2  0  0  0  0
 15  9  1  0  0  0  0
 17 16  1  0  0  0  0
 18 19  1  0  0  0  0
 19 20  1  0  0  0  0
 20 22  1  0  0  0  0
 22 21  2  0  0  0  0
 23 22  1  0  0  0  0
 23 24  1  0  0  0  0
 24 26  1  0  0  0  0
 26 25  1  1  0  0  0
 28 27  1  0  0  0  0
 28 26  1  0  0  0  0
 29 28  2  0  0  0  0
 30 28  1  0  0  0  0
M  END
>  <MODEL>
9

>  <REMARK>
 VINA RESULT:      -7.5      4.448      8.764
  Name = 
  10 active torsions:
  status: ('A' for Active; 'I' for Inactive)
    1  A    between atoms: O_2  and  C_25
    2  A    between atoms: N_5  and  C_13
    3  A    between atoms: C_7  and  C_20
    4  A    between atoms: C_7  and  C_23
    5  A    between atoms: P_8  and  C_18
    6  A    between atoms: C_10  and  C_29
    7  A    between atoms: C_18  and  C_23
    8  A    between atoms: C_20  and  C_24
    9  A    between atoms: C_24  and  C_30
   10  A    between atoms: C_29  and  C_30
                            x       y       z     vdW  Elec       q    Type
                         _______ _______ _______ _____ _____    ______ ____

>  <TORSDO>
F 10

$$$$
