=
 OpenBabel10222416193D

 46 48  0  0  1  0  0  0  0  0999 V2000
  186.2350  177.5480  137.3860 C   0  0  0  0  0  0  0  0  0  0  0  0
  186.8960  177.9550  138.5650 C   0  0  0  0  0  2  0  0  0  0  0  0
  184.7400  178.1840  139.6190 C   0  0  0  0  0  0  0  0  0  0  0  0
  184.1400  178.5350  140.9380 C   0  0  0  0  0  3  0  0  0  0  0  0
  184.1020  177.8180  138.4420 C   0  0  0  0  0  3  0  0  0  0  0  0
  186.4950  178.7080  140.9900 C   0  0  0  0  0  0  0  0  0  0  0  0
  184.8650  177.5190  137.3510 N   0  0  0  0  0  0  0  0  0  0  0  0
  186.1050  178.2720  139.6670 C   0  0  0  0  0  0  0  0  0  0  0  0
  185.3870  178.8630  141.7270 C   0  0  0  0  0  0  0  0  0  0  0  0
  187.1230  175.8520  135.6910 N   0  0  0  0  0  2  0  0  0  0  0  0
  186.9950  177.1990  136.1660 C   0  0  0  0  0  0  0  0  0  0  0  0
  187.5520  178.1210  135.5160 O   0  0  0  0  0  0  0  0  0  0  0  0
  187.1620  173.6630  136.8260 C   0  0  0  0  0  0  0  0  0  0  0  0
  188.6440  173.5790  136.7330 C   0  0  0  0  0  1  0  0  0  0  0  0
  186.4540  174.7740  136.2810 N   0  0  0  0  0  2  0  0  0  0  0  0
  186.5240  172.7390  137.3940 O   0  0  0  0  0  0  0  0  0  0  0  0
  187.8850  179.0710  141.4130 C   0  0  0  0  0  2  0  0  0  0  0  0
  189.7600  177.6730  140.3600 C   0  0  2  0  0  3  0  0  0  0  0  0
  190.1090  178.1490  141.6500 O   0  0  0  0  0  0  0  0  0  0  0  0
  188.3640  176.6470  142.3340 C   0  0  0  0  0  1  0  0  0  0  0  0
  188.7560  177.8230  141.4540 C   0  0  1  0  0  0  0  0  0  0  0  0
  190.1360  176.2720  140.1910 N   0  0  0  0  0  2  0  0  0  0  0  0
  190.0230  175.9410  138.8350 N   0  0  0  0  0  2  0  0  0  0  0  0
  190.7070  176.9340  138.1200 N   0  0  0  0  0  2  0  0  0  0  0  0
  191.5160  176.2810  137.1790 N   0  0  0  0  0  2  0  0  0  0  0  0
  192.8800  176.2880  137.7080 C   0  0  0  0  0  2  0  0  0  0  0  0
  193.7410  175.3100  137.0350 N   0  0  0  0  0  0  0  0  0  0  0  0
  194.6480  174.7170  138.0100 C   0  0  0  0  0  1  0  0  0  0  0  0
  194.5520  175.9740  136.0260 C   0  0  0  0  0  1  0  0  0  0  0  0
  185.3930  179.2380  143.1730 C   0  0  1  0  0  3  0  0  0  0  0  0
  184.0160  179.7210  143.6150 C   0  0  0  0  0  2  0  0  0  0  0  0
  181.9120  179.0690  143.6760 C   0  0  0  0  0  1  0  0  0  0  0  0
  183.2050  178.6400  143.9580 O   0  0  0  0  0  0  0  0  0  0  0  0
  185.8440  178.0450  143.9990 C   0  0  0  0  0  2  0  0  0  0  0  0
  185.5500  178.2870  145.4650 C   0  0  0  0  0  2  0  0  0  0  0  0
  186.6840  177.7870  146.2900 C   0  0  0  0  0  3  0  0  0  0  0  0
  187.8930  177.6610  145.7500 C   0  0  0  0  0  3  0  0  0  0  0  0
  189.0490  177.1420  146.5550 C   0  0  2  0  0  3  0  0  0  0  0  0
  188.0010  176.6080  148.7730 O   0  0  0  0  0  1  0  0  0  0  0  0
  188.8410  177.4160  148.0170 C   0  0  0  0  0  0  0  0  0  0  0  0
  189.4150  178.3950  148.5490 O   0  0  0  0  0  0  0  0  0  0  0  0
  190.3920  177.6610  146.0210 C   0  0  2  0  0  3  0  0  0  0  0  0
  190.1920  178.5310  144.7940 C   0  0  0  0  0  1  0  0  0  0  0  0
  191.3920  176.5340  145.7530 C   0  0  0  0  0  2  0  0  0  0  0  0
  192.2960  176.7080  147.9180 O   0  0  0  0  0  0  0  0  0  0  0  0
  191.9150  175.9620  147.0310 C   0  0  0  0  0  3  0  0  0  0  0  0
  1  2  1  0  0  0  0
  2  8  1  0  0  0  0
  3  8  1  0  0  0  0
  3  4  1  0  0  0  0
  4  9  2  0  0  0  0
  5  3  2  0  0  0  0
  6 17  1  0  0  0  0
  6  9  1  0  0  0  0
  7  1  2  0  0  0  0
  7  5  1  0  0  0  0
  8  6  2  0  0  0  0
  9 30  1  0  0  0  0
 10 11  1  0  0  0  0
 10 15  1  0  0  0  0
 11  1  1  0  0  0  0
 12 11  2  0  0  0  0
 13 16  2  0  0  0  0
 14 13  1  0  0  0  0
 15 13  1  0  0  0  0
 17 21  1  0  0  0  0
 18 22  1  1  0  0  0
 18 21  1  0  0  0  0
 18 19  1  0  0  0  0
 21 19  1  0  0  0  0
 21 20  1  1  0  0  0
 23 22  1  0  0  0  0
 24 23  1  0  0  0  0
 25 26  1  0  0  0  0
 25 24  1  0  0  0  0
 27 26  1  0  0  0  0
 27 28  1  0  0  0  0
 29 27  1  0  0  0  0
 30 31  1  1  0  0  0
 30 34  1  0  0  0  0
 31 33  1  0  0  0  0
 32 33  1  0  0  0  0
 34 35  1  0  0  0  0
 35 36  1  0  0  0  0
 37 36  2  0  0  0  0
 38 37  1  6  0  0  0
 38 40  1  0  0  0  0
 40 41  2  0  0  0  0
 40 39  1  0  0  0  0
 42 43  1  6  0  0  0
 42 38  1  0  0  0  0
 44 42  1  0  0  0  0
 44 46  1  0  0  0  0
 46 45  2  0  0  0  0
M  END
>  <MODEL>
1

>  <REMARK>
 VINA RESULT:      -6.9      0.000      0.000
  Name = 
  21 active torsions:
  status: ('A' for Active; 'I' for Inactive)
    1  A    between atoms: C_1  and  C_33
    2  A    between atoms: C_1  and  C_41
    3  A    between atoms: N_2  and  C_4
    4  A    between atoms: C_4  and  N_38
    5  A    between atoms: C_6  and  N_28
    6  A    between atoms: N_8  and  N_16
    7  A    between atoms: C_9  and  C_34
    8  A    between atoms: N_10  and  N_19
    9  A    between atoms: N_10  and  N_38
   10  A    between atoms: C_11  and  C_27
   11  A    between atoms: C_12  and  C_20
   12  A    between atoms: C_12  and  C_21
   13  A    between atoms: C_15  and  C_20
   14  A    between atoms: C_15  and  C_40
   15  A    between atoms: C_15  and  C_42
   16  A    between atoms: N_19  and  N_28
   17  A    between atoms: C_24  and  C_25
   18  A    between atoms: C_24  and  C_27
   19  A    between atoms: C_25  and  C_26
   20  A    between atoms: C_25  and  C_46
   21  A    between atoms: C_26  and  O_45
                            x       y       z     vdW  Elec       q    Type
                         _______ _______ _______ _____ _____    ______ ____

>  <TORSDO>
F 21

$$$$
=
 OpenBabel10222416193D

 46 48  0  0  1  0  0  0  0  0999 V2000
  181.1140  175.3330  137.7340 C   0  0  0  0  0  0  0  0  0  0  0  0
  181.6250  176.5730  138.1710 C   0  0  0  0  0  3  0  0  0  0  0  0
  180.3400  176.3190  140.1940 C   0  0  0  0  0  0  0  0  0  0  0  0
  180.0880  177.0150  141.4890 C   0  0  0  0  0  2  0  0  0  0  0  0
  179.8160  175.1170  139.7350 C   0  0  0  0  0  3  0  0  0  0  0  0
  181.5580  178.2530  140.1170 C   0  0  0  0  0  0  0  0  0  0  0  0
  180.2080  174.6590  138.5110 N   0  0  0  0  0  0  0  0  0  0  0  0
  181.2050  177.0370  139.4160 C   0  0  0  0  0  0  0  0  0  0  0  0
  180.9290  178.2560  141.2990 C   0  0  0  0  0  0  0  0  0  0  0  0
  182.8020  174.2220  136.1660 N   0  0  0  0  0  2  0  0  0  0  0  0
  181.5010  174.7670  136.4220 C   0  0  0  0  0  0  0  0  0  0  0  0
  180.6520  174.7620  135.4930 O   0  0  0  0  0  0  0  0  0  0  0  0
  184.5160  172.8770  137.3200 C   0  0  0  0  0  0  0  0  0  0  0  0
  184.2400  171.6920  136.4670 C   0  0  0  0  0  1  0  0  0  0  0  0
  183.7750  174.0850  137.1620 N   0  0  0  0  0  2  0  0  0  0  0  0
  185.4170  172.8140  138.1970 O   0  0  0  0  0  0  0  0  0  0  0  0
  182.3630  179.3820  139.5510 C   0  0  0  0  0  2  0  0  0  0  0  0
  184.6430  179.0830  138.4140 C   0  0  2  0  0  3  0  0  0  0  0  0
  184.6350  180.1800  139.3150 O   0  0  0  0  0  0  0  0  0  0  0  0
  184.3900  178.4350  140.9470 C   0  0  0  0  0  1  0  0  0  0  0  0
  183.8490  179.0730  139.6780 C   0  0  1  0  0  0  0  0  0  0  0  0
  185.8580  178.2860  138.5610 N   0  0  0  0  0  2  0  0  0  0  0  0
  186.4360  178.1210  137.2950 N   0  0  0  0  0  2  0  0  0  0  0  0
  187.4750  179.0570  137.2030 N   0  0  0  0  0  2  0  0  0  0  0  0
  188.6030  178.3760  136.7200 N   0  0  0  0  0  2  0  0  0  0  0  0
  189.5210  178.2140  137.8470 C   0  0  0  0  0  2  0  0  0  0  0  0
  190.2440  176.9390  137.7940 N   0  0  0  0  0  0  0  0  0  0  0  0
  189.3080  175.8690  137.4710 C   0  0  0  0  0  1  0  0  0  0  0  0
  190.8200  176.6410  139.0960 C   0  0  0  0  0  1  0  0  0  0  0  0
  181.1040  179.3190  142.3340 C   0  0  1  0  0  3  0  0  0  0  0  0
  179.7680  179.9700  142.6760 C   0  0  0  0  0  2  0  0  0  0  0  0
  178.9340  179.1490  144.5440 C   0  0  0  0  0  1  0  0  0  0  0  0
  179.6790  180.2140  144.0460 O   0  0  0  0  0  0  0  0  0  0  0  0
  181.7500  178.7160  143.5700 C   0  0  0  0  0  2  0  0  0  0  0  0
  182.8830  179.6000  144.0490 C   0  0  0  0  0  2  0  0  0  0  0  0
  183.8290  178.7960  144.8700 C   0  0  0  0  0  3  0  0  0  0  0  0
  185.1260  178.7910  144.5750 C   0  0  0  0  0  3  0  0  0  0  0  0
  186.0980  177.9740  145.3760 C   0  0  2  0  0  3  0  0  0  0  0  0
  185.8360  179.7800  147.1000 O   0  0  0  0  0  0  0  0  0  0  0  0
  186.1590  178.4640  146.7930 C   0  0  0  0  0  0  0  0  0  0  0  0
  186.5280  177.6820  147.7020 O   0  0  0  0  0  1  0  0  0  0  0  0
  187.4720  177.8970  144.6950 C   0  0  2  0  0  3  0  0  0  0  0  0
  187.4150  177.0360  143.4470 C   0  0  0  0  0  1  0  0  0  0  0  0
  188.5750  177.4320  145.6480 C   0  0  0  0  0  2  0  0  0  0  0  0
  190.8400  176.8100  145.5250 O   0  0  0  0  0  0  0  0  0  0  0  0
  189.8490  177.1690  144.9120 C   0  0  0  0  0  3  0  0  0  0  0  0
  1  2  2  0  0  0  0
  1  7  1  0  0  0  0
  2  8  1  0  0  0  0
  3  4  1  0  0  0  0
  5  3  1  0  0  0  0
  6  9  2  0  0  0  0
  7  5  2  0  0  0  0
  8  6  1  0  0  0  0
  8  3  2  0  0  0  0
  9  4  1  0  0  0  0
  9 30  1  0  0  0  0
 10 11  1  0  0  0  0
 10 15  1  0  0  0  0
 11  1  1  0  0  0  0
 12 11  2  0  0  0  0
 13 16  2  0  0  0  0
 14 13  1  0  0  0  0
 15 13  1  0  0  0  0
 17 21  1  0  0  0  0
 17  6  1  0  0  0  0
 18 22  1  1  0  0  0
 18 19  1  0  0  0  0
 18 21  1  0  0  0  0
 19 21  1  0  0  0  0
 21 20  1  1  0  0  0
 23 22  1  0  0  0  0
 24 23  1  0  0  0  0
 25 24  1  0  0  0  0
 25 26  1  0  0  0  0
 27 26  1  0  0  0  0
 27 29  1  0  0  0  0
 28 27  1  0  0  0  0
 30 31  1  1  0  0  0
 30 34  1  0  0  0  0
 31 33  1  0  0  0  0
 33 32  1  0  0  0  0
 34 35  1  0  0  0  0
 35 36  1  0  0  0  0
 37 36  2  0  0  0  0
 38 37  1  6  0  0  0
 38 40  1  0  0  0  0
 40 39  2  0  0  0  0
 40 41  1  0  0  0  0
 42 43  1  6  0  0  0
 42 38  1  0  0  0  0
 42 44  1  0  0  0  0
 46 45  2  0  0  0  0
 46 44  1  0  0  0  0
M  END
>  <MODEL>
2

>  <REMARK>
 VINA RESULT:      -6.6      2.934      4.456
  Name = 
  21 active torsions:
  status: ('A' for Active; 'I' for Inactive)
    1  A    between atoms: C_1  and  C_33
    2  A    between atoms: C_1  and  C_41
    3  A    between atoms: N_2  and  C_4
    4  A    between atoms: C_4  and  N_38
    5  A    between atoms: C_6  and  N_28
    6  A    between atoms: N_8  and  N_16
    7  A    between atoms: C_9  and  C_34
    8  A    between atoms: N_10  and  N_19
    9  A    between atoms: N_10  and  N_38
   10  A    between atoms: C_11  and  C_27
   11  A    between atoms: C_12  and  C_20
   12  A    between atoms: C_12  and  C_21
   13  A    between atoms: C_15  and  C_20
   14  A    between atoms: C_15  and  C_40
   15  A    between atoms: C_15  and  C_42
   16  A    between atoms: N_19  and  N_28
   17  A    between atoms: C_24  and  C_25
   18  A    between atoms: C_24  and  C_27
   19  A    between atoms: C_25  and  C_26
   20  A    between atoms: C_25  and  C_46
   21  A    between atoms: C_26  and  O_45
                            x       y       z     vdW  Elec       q    Type
                         _______ _______ _______ _____ _____    ______ ____

>  <TORSDO>
F 21

$$$$
=
 OpenBabel10222416193D

 46 48  0  0  1  0  0  0  0  0999 V2000
  187.1250  177.9960  138.4060 C   0  0  0  0  0  0  0  0  0  0  0  0
  185.8510  177.9920  139.0130 C   0  0  0  0  0  3  0  0  0  0  0  0
  186.8920  178.7360  141.0560 C   0  0  0  0  0  0  0  0  0  0  0  0
  186.5340  179.1300  142.4480 C   0  0  0  0  0  2  0  0  0  0  0  0
  188.1440  178.7000  140.4550 C   0  0  0  0  0  3  0  0  0  0  0  0
  184.6280  178.4600  141.2260 C   0  0  0  0  0  0  0  0  0  0  0  0
  188.2300  178.3210  139.1480 N   0  0  0  0  0  0  0  0  0  0  0  0
  185.7780  178.3660  140.3530 C   0  0  0  0  0  0  0  0  0  0  0  0
  185.0420  178.8930  142.4240 C   0  0  0  0  0  0  0  0  0  0  0  0
  188.1560  176.5340  136.5790 N   0  0  0  0  0  2  0  0  0  0  0  0
  187.2970  177.6060  136.9890 C   0  0  0  0  0  0  0  0  0  0  0  0
  186.6630  178.2410  136.1060 O   0  0  0  0  0  0  0  0  0  0  0  0
  190.2370  175.5720  137.4870 C   0  0  0  0  0  0  0  0  0  0  0  0
  191.0680  176.2700  136.4710 C   0  0  0  0  0  1  0  0  0  0  0  0
  188.8170  175.7030  137.4890 N   0  0  0  0  0  2  0  0  0  0  0  0
  190.7950  174.8530  138.3560 O   0  0  0  0  0  0  0  0  0  0  0  0
  183.2420  178.0040  140.8910 C   0  0  0  0  0  2  0  0  0  0  0  0
  182.5850  177.5290  138.4580 C   0  0  2  0  0  3  0  0  0  0  0  0
  181.5320  178.1410  139.1850 O   0  0  0  0  0  0  0  0  0  0  0  0
  183.0400  180.0100  139.1910 C   0  0  0  0  0  1  0  0  0  0  0  0
  182.8350  178.5410  139.5260 C   0  0  1  0  0  0  0  0  0  0  0  0
  182.7320  178.1280  137.1330 N   0  0  0  0  0  2  0  0  0  0  0  0
  182.4430  177.1530  136.1700 N   0  0  0  0  0  2  0  0  0  0  0  0
  183.5160  176.2520  136.1750 N   0  0  0  0  0  2  0  0  0  0  0  0
  183.0060  175.0000  135.8010 N   0  0  0  0  0  2  0  0  0  0  0  0
  182.8890  174.2030  137.0220 C   0  0  0  0  0  2  0  0  0  0  0  0
  183.7370  173.0070  136.9870 N   0  0  0  0  0  0  0  0  0  0  0  0
  184.9600  173.2620  137.7380 C   0  0  0  0  0  1  0  0  0  0  0  0
  184.1160  172.7070  135.6160 C   0  0  0  0  0  1  0  0  0  0  0  0
  184.1260  179.1810  143.5680 C   0  0  1  0  0  3  0  0  0  0  0  0
  182.6730  179.2120  143.1080 C   0  0  0  0  0  2  0  0  0  0  0  0
  180.5540  178.8220  143.5720 C   0  0  0  0  0  1  0  0  0  0  0  0
  181.8390  178.6690  144.0840 O   0  0  0  0  0  0  0  0  0  0  0  0
  184.3330  178.1380  144.6530 C   0  0  0  0  0  2  0  0  0  0  0  0
  185.3130  178.6510  145.6880 C   0  0  0  0  0  2  0  0  0  0  0  0
  186.4270  177.6770  145.8440 C   0  0  0  0  0  3  0  0  0  0  0  0
  187.6820  178.1110  145.9330 C   0  0  0  0  0  3  0  0  0  0  0  0
  188.8250  177.1480  146.0720 C   0  0  2  0  0  3  0  0  0  0  0  0
  190.8070  176.8040  147.5750 O   0  0  0  0  0  0  0  0  0  0  0  0
  189.5630  177.3850  147.3570 C   0  0  0  0  0  0  0  0  0  0  0  0
  189.0400  178.0960  148.2480 O   0  0  0  0  0  1  0  0  0  0  0  0
  189.7330  177.1610  144.8330 C   0  0  2  0  0  3  0  0  0  0  0  0
  190.1880  178.5710  144.5050 C   0  0  0  0  0  1  0  0  0  0  0  0
  189.0870  176.4830  143.6240 C   0  0  0  0  0  2  0  0  0  0  0  0
  190.2530  176.0820  141.6220 O   0  0  0  0  0  0  0  0  0  0  0  0
  190.1070  175.7760  142.7930 C   0  0  0  0  0  3  0  0  0  0  0  0
  1  2  2  0  0  0  0
  1  7  1  0  0  0  0
  2  8  1  0  0  0  0
  3  4  1  0  0  0  0
  5  3  1  0  0  0  0
  6  9  2  0  0  0  0
  7  5  2  0  0  0  0
  8  3  2  0  0  0  0
  8  6  1  0  0  0  0
  9  4  1  0  0  0  0
  9 30  1  0  0  0  0
 10 11  1  0  0  0  0
 10 15  1  0  0  0  0
 11  1  1  0  0  0  0
 12 11  2  0  0  0  0
 13 15  1  0  0  0  0
 13 16  2  0  0  0  0
 14 13  1  0  0  0  0
 17  6  1  0  0  0  0
 18 22  1  6  0  0  0
 18 19  1  0  0  0  0
 18 21  1  0  0  0  0
 19 21  1  0  0  0  0
 21 20  1  6  0  0  0
 21 17  1  0  0  0  0
 23 24  1  0  0  0  0
 23 22  1  0  0  0  0
 25 24  1  0  0  0  0
 25 26  1  0  0  0  0
 27 26  1  0  0  0  0
 27 28  1  0  0  0  0
 29 27  1  0  0  0  0
 30 31  1  6  0  0  0
 30 34  1  0  0  0  0
 31 33  1  0  0  0  0
 32 33  1  0  0  0  0
 34 35  1  0  0  0  0
 35 36  1  0  0  0  0
 36 37  2  0  0  0  0
 38 37  1  6  0  0  0
 38 40  1  0  0  0  0
 40 39  2  0  0  0  0
 40 41  1  0  0  0  0
 42 43  1  6  0  0  0
 42 38  1  0  0  0  0
 44 42  1  0  0  0  0
 45 46  2  0  0  0  0
 46 44  1  0  0  0  0
M  END
>  <MODEL>
3

>  <REMARK>
 VINA RESULT:      -6.5      2.054      5.022
  Name = 
  21 active torsions:
  status: ('A' for Active; 'I' for Inactive)
    1  A    between atoms: C_1  and  C_33
    2  A    between atoms: C_1  and  C_41
    3  A    between atoms: N_2  and  C_4
    4  A    between atoms: C_4  and  N_38
    5  A    between atoms: C_6  and  N_28
    6  A    between atoms: N_8  and  N_16
    7  A    between atoms: C_9  and  C_34
    8  A    between atoms: N_10  and  N_19
    9  A    between atoms: N_10  and  N_38
   10  A    between atoms: C_11  and  C_27
   11  A    between atoms: C_12  and  C_20
   12  A    between atoms: C_12  and  C_21
   13  A    between atoms: C_15  and  C_20
   14  A    between atoms: C_15  and  C_40
   15  A    between atoms: C_15  and  C_42
   16  A    between atoms: N_19  and  N_28
   17  A    between atoms: C_24  and  C_25
   18  A    between atoms: C_24  and  C_27
   19  A    between atoms: C_25  and  C_26
   20  A    between atoms: C_25  and  C_46
   21  A    between atoms: C_26  and  O_45
                            x       y       z     vdW  Elec       q    Type
                         _______ _______ _______ _____ _____    ______ ____

>  <TORSDO>
F 21

$$$$
=
 OpenBabel10222416193D

 46 48  0  0  1  0  0  0  0  0999 V2000
  191.2340  176.6480  139.0990 C   0  0  0  0  0  0  0  0  0  0  0  0
  190.0800  177.2410  138.5460 C   0  0  0  0  0  3  0  0  0  0  0  0
  189.1410  177.3330  140.7640 C   0  0  0  0  0  0  0  0  0  0  0  0
  187.9200  177.8110  141.4740 C   0  0  0  0  0  2  0  0  0  0  0  0
  190.2680  176.7150  141.2890 C   0  0  0  0  0  3  0  0  0  0  0  0
  187.7620  178.1790  139.1470 C   0  0  0  0  0  0  0  0  0  0  0  0
  191.2830  176.3780  140.4410 N   0  0  0  0  0  0  0  0  0  0  0  0
  189.0440  177.5670  139.4200 C   0  0  0  0  0  0  0  0  0  0  0  0
  187.1090  178.3240  140.3070 C   0  0  0  0  0  0  0  0  0  0  0  0
  192.4310  175.0220  137.5290 N   0  0  0  0  0  2  0  0  0  0  0  0
  192.3800  176.2640  138.2440 C   0  0  0  0  0  0  0  0  0  0  0  0
  193.3490  177.0590  138.1390 O   0  0  0  0  0  0  0  0  0  0  0  0
  190.5680  173.9480  136.3240 C   0  0  0  0  0  0  0  0  0  0  0  0
  190.8130  174.7640  135.1050 C   0  0  0  0  0  1  0  0  0  0  0  0
  191.3600  174.1230  137.4960 N   0  0  0  0  0  2  0  0  0  0  0  0
  189.6450  173.0920  136.3210 O   0  0  0  0  0  0  0  0  0  0  0  0
  187.2020  178.4580  137.7870 C   0  0  0  0  0  2  0  0  0  0  0  0
  185.4360  177.2370  136.3840 C   0  0  2  0  0  3  0  0  0  0  0  0
  186.7040  177.2540  135.7480 O   0  0  0  0  0  0  0  0  0  0  0  0
  187.2990  175.8300  137.5890 C   0  0  0  0  0  1  0  0  0  0  0  0
  186.7150  177.1630  137.1510 C   0  0  1  0  0  0  0  0  0  0  0  0
  184.8130  175.9190  136.2900 N   0  0  0  0  0  2  0  0  0  0  0  0
  183.4300  176.0890  136.1570 N   0  0  0  0  0  2  0  0  0  0  0  0
  183.2260  177.4120  135.7410 N   0  0  0  0  0  2  0  0  0  0  0  0
  181.9280  177.7730  136.1330 N   0  0  0  0  0  2  0  0  0  0  0  0
  181.3020  176.5760  136.6940 C   0  0  0  0  0  2  0  0  0  0  0  0
  179.9710  176.8530  137.2450 N   0  0  0  0  0  0  0  0  0  0  0  0
  179.9360  176.4460  138.6440 C   0  0  0  0  0  1  0  0  0  0  0  0
  178.9680  176.0760  136.5350 C   0  0  0  0  0  1  0  0  0  0  0  0
  185.7760  178.9860  140.4370 C   0  0  1  0  0  3  0  0  0  0  0  0
  184.6620  178.0660  139.9510 C   0  0  0  0  0  2  0  0  0  0  0  0
  182.6390  178.8490  139.5590 C   0  0  0  0  0  1  0  0  0  0  0  0
  183.8930  178.7000  138.9760 O   0  0  0  0  0  0  0  0  0  0  0  0
  185.5550  179.3930  141.8840 C   0  0  0  0  0  2  0  0  0  0  0  0
  184.5700  178.4520  142.5450 C   0  0  0  0  0  2  0  0  0  0  0  0
  184.8810  178.3430  143.9960 C   0  0  0  0  0  3  0  0  0  0  0  0
  186.0430  177.8270  144.3890 C   0  0  0  0  0  3  0  0  0  0  0  0
  186.3730  177.6890  145.8470 C   0  0  2  0  0  3  0  0  0  0  0  0
  184.3030  178.3270  147.1170 O   0  0  0  0  0  1  0  0  0  0  0  0
  185.5740  178.6610  146.6650 C   0  0  0  0  0  0  0  0  0  0  0  0
  186.0520  179.7920  146.9220 O   0  0  0  0  0  0  0  0  0  0  0  0
  187.8860  177.7770  146.0980 C   0  0  2  0  0  3  0  0  0  0  0  0
  188.6670  177.2140  144.9260 C   0  0  0  0  0  1  0  0  0  0  0  0
  188.3020  177.1220  147.4170 C   0  0  0  0  0  2  0  0  0  0  0  0
  190.6360  177.3610  147.5830 O   0  0  0  0  0  0  0  0  0  0  0  0
  189.7040  176.6110  147.3460 C   0  0  0  0  0  3  0  0  0  0  0  0
  1  7  1  0  0  0  0
  2  1  2  0  0  0  0
  2  8  1  0  0  0  0
  3  5  1  0  0  0  0
  3  4  1  0  0  0  0
  6  8  1  0  0  0  0
  6  9  2  0  0  0  0
  7  5  2  0  0  0  0
  8  3  2  0  0  0  0
  9 30  1  0  0  0  0
  9  4  1  0  0  0  0
 10 11  1  0  0  0  0
 11  1  1  0  0  0  0
 12 11  2  0  0  0  0
 13 15  1  0  0  0  0
 14 13  1  0  0  0  0
 15 10  1  0  0  0  0
 16 13  2  0  0  0  0
 17  6  1  0  0  0  0
 18 22  1  6  0  0  0
 18 21  1  0  0  0  0
 19 18  1  0  0  0  0
 19 21  1  0  0  0  0
 21 20  1  1  0  0  0
 21 17  1  0  0  0  0
 23 22  1  0  0  0  0
 24 25  1  0  0  0  0
 24 23  1  0  0  0  0
 25 26  1  0  0  0  0
 26 27  1  0  0  0  0
 27 28  1  0  0  0  0
 29 27  1  0  0  0  0
 30 31  1  1  0  0  0
 30 34  1  0  0  0  0
 33 32  1  0  0  0  0
 33 31  1  0  0  0  0
 34 35  1  0  0  0  0
 35 36  1  0  0  0  0
 36 37  2  0  0  0  0
 38 37  1  6  0  0  0
 38 42  1  0  0  0  0
 38 40  1  0  0  0  0
 40 41  2  0  0  0  0
 40 39  1  0  0  0  0
 42 43  1  6  0  0  0
 42 44  1  0  0  0  0
 46 44  1  0  0  0  0
 46 45  2  0  0  0  0
M  END
>  <MODEL>
4

>  <REMARK>
 VINA RESULT:      -6.4      2.396      6.136
  Name = 
  21 active torsions:
  status: ('A' for Active; 'I' for Inactive)
    1  A    between atoms: C_1  and  C_33
    2  A    between atoms: C_1  and  C_41
    3  A    between atoms: N_2  and  C_4
    4  A    between atoms: C_4  and  N_38
    5  A    between atoms: C_6  and  N_28
    6  A    between atoms: N_8  and  N_16
    7  A    between atoms: C_9  and  C_34
    8  A    between atoms: N_10  and  N_19
    9  A    between atoms: N_10  and  N_38
   10  A    between atoms: C_11  and  C_27
   11  A    between atoms: C_12  and  C_20
   12  A    between atoms: C_12  and  C_21
   13  A    between atoms: C_15  and  C_20
   14  A    between atoms: C_15  and  C_40
   15  A    between atoms: C_15  and  C_42
   16  A    between atoms: N_19  and  N_28
   17  A    between atoms: C_24  and  C_25
   18  A    between atoms: C_24  and  C_27
   19  A    between atoms: C_25  and  C_26
   20  A    between atoms: C_25  and  C_46
   21  A    between atoms: C_26  and  O_45
                            x       y       z     vdW  Elec       q    Type
                         _______ _______ _______ _____ _____    ______ ____

>  <TORSDO>
F 21

$$$$
=
 OpenBabel10222416193D

 46 48  0  0  1  0  0  0  0  0999 V2000
  191.2300  176.7670  138.4000 C   0  0  0  0  0  0  0  0  0  0  0  0
  190.0460  177.2250  137.7850 C   0  0  0  0  0  3  0  0  0  0  0  0
  189.0740  177.4630  139.9780 C   0  0  0  0  0  0  0  0  0  0  0  0
  187.8150  177.9220  140.6320 C   0  0  0  0  0  2  0  0  0  0  0  0
  190.2340  176.9750  140.5670 C   0  0  0  0  0  3  0  0  0  0  0  0
  187.6630  178.0550  138.2790 C   0  0  0  0  0  0  0  0  0  0  0  0
  191.2790  176.6290  139.7620 N   0  0  0  0  0  0  0  0  0  0  0  0
  188.9800  177.5610  138.6170 C   0  0  0  0  0  0  0  0  0  0  0  0
  186.9870  178.2660  139.4150 C   0  0  0  0  0  0  0  0  0  0  0  0
  192.3630  175.3550  136.5930 N   0  0  0  0  0  2  0  0  0  0  0  0
  192.4100  176.3820  137.5930 C   0  0  0  0  0  0  0  0  0  0  0  0
  193.4990  176.9790  137.7920 O   0  0  0  0  0  0  0  0  0  0  0  0
  191.1550  173.3260  135.8860 C   0  0  0  0  0  0  0  0  0  0  0  0
  192.4070  172.5250  135.8530 C   0  0  0  0  0  1  0  0  0  0  0  0
  191.1780  174.7110  136.2240 N   0  0  0  0  0  2  0  0  0  0  0  0
  190.0580  172.7730  135.6090 O   0  0  0  0  0  0  0  0  0  0  0  0
  187.1030  178.1650  136.8940 C   0  0  0  0  0  2  0  0  0  0  0  0
  186.2640  175.7420  136.9090 C   0  0  2  0  0  3  0  0  0  0  0  0
  185.7910  176.4640  135.7820 O   0  0  0  0  0  0  0  0  0  0  0  0
  188.1150  176.4360  135.1790 C   0  0  0  0  0  1  0  0  0  0  0  0
  187.0800  176.7940  136.2340 C   0  0  1  0  0  0  0  0  0  0  0  0
  186.7230  174.4080  136.5290 N   0  0  0  0  0  2  0  0  0  0  0  0
  186.2740  173.4930  137.4900 N   0  0  0  0  0  2  0  0  0  0  0  0
  185.6970  172.4260  136.7890 N   0  0  0  0  0  2  0  0  0  0  0  0
  184.4170  172.2220  137.3280 N   0  0  0  0  0  2  0  0  0  0  0  0
  183.4530  172.5310  136.2720 C   0  0  0  0  0  2  0  0  0  0  0  0
  182.9520  173.9060  136.3650 N   0  0  0  0  0  0  0  0  0  0  0  0
  181.6270  173.8960  136.9720 C   0  0  0  0  0  1  0  0  0  0  0  0
  182.8220  174.4780  135.0340 C   0  0  0  0  0  1  0  0  0  0  0  0
  185.6100  178.8450  139.4720 C   0  0  1  0  0  3  0  0  0  0  0  0
  184.5740  177.8330  138.9950 C   0  0  0  0  0  2  0  0  0  0  0  0
  182.9780  177.3670  137.5490 C   0  0  0  0  0  1  0  0  0  0  0  0
  183.6800  178.4300  138.1080 O   0  0  0  0  0  0  0  0  0  0  0  0
  185.3150  179.3010  140.8920 C   0  0  0  0  0  2  0  0  0  0  0  0
  184.1360  178.5320  141.4500 C   0  0  0  0  0  2  0  0  0  0  0  0
  184.4950  177.9660  142.7790 C   0  0  0  0  0  3  0  0  0  0  0  0
  185.4660  178.5230  143.4990 C   0  0  0  0  0  3  0  0  0  0  0  0
  185.8590  177.9590  144.8330 C   0  0  2  0  0  3  0  0  0  0  0  0
  184.6090  178.2600  146.9890 O   0  0  0  0  0  1  0  0  0  0  0  0
  185.3360  178.8200  145.9460 C   0  0  0  0  0  0  0  0  0  0  0  0
  185.5410  180.0570  145.9190 O   0  0  0  0  0  0  0  0  0  0  0  0
  187.3710  177.7010  144.9180 C   0  0  2  0  0  3  0  0  0  0  0  0
  187.8080  176.6760  143.8890 C   0  0  0  0  0  1  0  0  0  0  0  0
  187.8220  177.3110  146.3270 C   0  0  0  0  0  2  0  0  0  0  0  0
  190.1400  176.9900  146.5590 O   0  0  0  0  0  0  0  0  0  0  0  0
  189.2140  177.7820  146.5970 C   0  0  0  0  0  3  0  0  0  0  0  0
  1  7  1  0  0  0  0
  2  1  2  0  0  0  0
  2  8  1  0  0  0  0
  3  5  1  0  0  0  0
  3  4  1  0  0  0  0
  6  8  1  0  0  0  0
  6  9  2  0  0  0  0
  7  5  2  0  0  0  0
  8  3  2  0  0  0  0
  9 30  1  0  0  0  0
  9  4  1  0  0  0  0
 10 11  1  0  0  0  0
 11 12  2  0  0  0  0
 11  1  1  0  0  0  0
 13 15  1  0  0  0  0
 14 13  1  0  0  0  0
 15 10  1  0  0  0  0
 16 13  2  0  0  0  0
 17  6  1  0  0  0  0
 18 22  1  6  0  0  0
 19 21  1  0  0  0  0
 19 18  1  0  0  0  0
 21 20  1  6  0  0  0
 21 17  1  0  0  0  0
 21 18  1  0  0  0  0
 22 23  1  0  0  0  0
 24 25  1  0  0  0  0
 24 23  1  0  0  0  0
 26 27  1  0  0  0  0
 26 25  1  0  0  0  0
 27 28  1  0  0  0  0
 29 27  1  0  0  0  0
 30 31  1  1  0  0  0
 30 34  1  0  0  0  0
 32 33  1  0  0  0  0
 33 31  1  0  0  0  0
 34 35  1  0  0  0  0
 35 36  1  0  0  0  0
 36 37  2  0  0  0  0
 38 37  1  6  0  0  0
 38 42  1  0  0  0  0
 38 40  1  0  0  0  0
 40 39  1  0  0  0  0
 41 40  2  0  0  0  0
 42 43  1  6  0  0  0
 42 44  1  0  0  0  0
 44 46  1  0  0  0  0
 45 46  2  0  0  0  0
M  END
>  <MODEL>
5

>  <REMARK>
 VINA RESULT:      -6.2      2.400      5.805
  Name = 
  21 active torsions:
  status: ('A' for Active; 'I' for Inactive)
    1  A    between atoms: C_1  and  C_33
    2  A    between atoms: C_1  and  C_41
    3  A    between atoms: N_2  and  C_4
    4  A    between atoms: C_4  and  N_38
    5  A    between atoms: C_6  and  N_28
    6  A    between atoms: N_8  and  N_16
    7  A    between atoms: C_9  and  C_34
    8  A    between atoms: N_10  and  N_19
    9  A    between atoms: N_10  and  N_38
   10  A    between atoms: C_11  and  C_27
   11  A    between atoms: C_12  and  C_20
   12  A    between atoms: C_12  and  C_21
   13  A    between atoms: C_15  and  C_20
   14  A    between atoms: C_15  and  C_40
   15  A    between atoms: C_15  and  C_42
   16  A    between atoms: N_19  and  N_28
   17  A    between atoms: C_24  and  C_25
   18  A    between atoms: C_24  and  C_27
   19  A    between atoms: C_25  and  C_26
   20  A    between atoms: C_25  and  C_46
   21  A    between atoms: C_26  and  O_45
                            x       y       z     vdW  Elec       q    Type
                         _______ _______ _______ _____ _____    ______ ____

>  <TORSDO>
F 21

$$$$
=
 OpenBabel10222416193D

 46 48  0  0  1  0  0  0  0  0999 V2000
  180.1980  173.7550  137.5460 C   0  0  0  0  0  0  0  0  0  0  0  0
  180.8750  174.9840  137.4100 C   0  0  0  0  0  3  0  0  0  0  0  0
  180.0800  175.5930  139.6030 C   0  0  0  0  0  0  0  0  0  0  0  0
  180.1820  176.7040  140.5920 C   0  0  0  0  0  2  0  0  0  0  0  0
  179.3880  174.3940  139.7070 C   0  0  0  0  0  3  0  0  0  0  0  0
  181.3700  177.2020  138.6140 C   0  0  0  0  0  0  0  0  0  0  0  0
  179.4550  173.5090  138.6710 N   0  0  0  0  0  0  0  0  0  0  0  0
  180.7870  175.8860  138.4690 C   0  0  0  0  0  0  0  0  0  0  0  0
  181.0340  177.6820  139.8180 C   0  0  0  0  0  0  0  0  0  0  0  0
  181.4310  172.4050  135.7580 N   0  0  0  0  0  2  0  0  0  0  0  0
  180.2320  172.7400  136.4690 C   0  0  0  0  0  0  0  0  0  0  0  0
  179.1650  172.1470  136.1640 O   0  0  0  0  0  0  0  0  0  0  0  0
  183.7820  172.0840  136.4280 C   0  0  0  0  0  0  0  0  0  0  0  0
  183.6210  170.6070  136.4880 C   0  0  0  0  0  1  0  0  0  0  0  0
  182.6830  172.9290  136.0950 N   0  0  0  0  0  2  0  0  0  0  0  0
  184.9050  172.5960  136.6760 O   0  0  0  0  0  0  0  0  0  0  0  0
  182.0940  177.9570  137.5420 C   0  0  0  0  0  2  0  0  0  0  0  0
  184.5420  178.2430  138.2500 C   0  0  2  0  0  3  0  0  0  0  0  0
  183.9970  177.0120  138.6990 O   0  0  0  0  0  0  0  0  0  0  0  0
  183.9610  176.5290  136.3470 C   0  0  0  0  0  1  0  0  0  0  0  0
  183.5370  177.4780  137.4550 C   0  0  1  0  0  0  0  0  0  0  0  0
  185.8830  178.0600  137.7010 N   0  0  0  0  0  2  0  0  0  0  0  0
  186.8130  178.5490  138.6270 N   0  0  0  0  0  2  0  0  0  0  0  0
  188.0120  178.7450  137.9270 N   0  0  0  0  0  2  0  0  0  0  0  0
  189.0550  178.3380  138.7730 N   0  0  0  0  0  2  0  0  0  0  0  0
  189.8900  177.4120  138.0080 C   0  0  0  0  0  2  0  0  0  0  0  0
  190.6670  176.5210  138.8750 N   0  0  0  0  0  0  0  0  0  0  0  0
  190.5380  176.9620  140.2580 C   0  0  0  0  0  1  0  0  0  0  0  0
  192.0760  176.5890  138.5210 C   0  0  0  0  0  1  0  0  0  0  0  0
  181.5130  178.9910  140.3580 C   0  0  1  0  0  3  0  0  0  0  0  0
  180.4030  180.0350  140.3130 C   0  0  0  0  0  2  0  0  0  0  0  0
  179.9080  181.1980  138.5080 C   0  0  0  0  0  1  0  0  0  0  0  0
  179.7080  179.9590  139.1070 O   0  0  0  0  0  0  0  0  0  0  0  0
  182.0210  178.7940  141.7760 C   0  0  0  0  0  2  0  0  0  0  0  0
  183.5320  178.6910  141.7780 C   0  0  0  0  0  2  0  0  0  0  0  0
  183.9980  178.2180  143.1100 C   0  0  0  0  0  3  0  0  0  0  0  0
  185.2070  178.5590  143.5500 C   0  0  0  0  0  3  0  0  0  0  0  0
  185.7070  178.0800  144.8820 C   0  0  2  0  0  3  0  0  0  0  0  0
  183.7780  178.8830  146.2740 O   0  0  0  0  0  0  0  0  0  0  0  0
  185.1380  178.9150  145.9930 C   0  0  0  0  0  0  0  0  0  0  0  0
  185.8980  179.6620  146.6540 O   0  0  0  0  0  1  0  0  0  0  0  0
  187.2400  177.9830  144.9120 C   0  0  2  0  0  3  0  0  0  0  0  0
  187.7760  177.4200  143.6090 C   0  0  0  0  0  1  0  0  0  0  0  0
  187.7550  177.1970  146.1190 C   0  0  0  0  0  2  0  0  0  0  0  0
  190.1010  177.1130  146.2560 O   0  0  0  0  0  0  0  0  0  0  0  0
  189.0850  177.7090  146.5680 C   0  0  0  0  0  3  0  0  0  0  0  0
  1  7  1  0  0  0  0
  2  1  2  0  0  0  0
  2  8  1  0  0  0  0
  3  5  1  0  0  0  0
  3  4  1  0  0  0  0
  6  9  2  0  0  0  0
  7  5  2  0  0  0  0
  8  6  1  0  0  0  0
  8  3  2  0  0  0  0
  9 30  1  0  0  0  0
  9  4  1  0  0  0  0
 10 15  1  0  0  0  0
 10 11  1  0  0  0  0
 11  1  1  0  0  0  0
 12 11  2  0  0  0  0
 13 14  1  0  0  0  0
 13 16  2  0  0  0  0
 15 13  1  0  0  0  0
 17  6  1  0  0  0  0
 18 22  1  6  0  0  0
 18 19  1  0  0  0  0
 21 20  1  6  0  0  0
 21 17  1  0  0  0  0
 21 18  1  0  0  0  0
 21 19  1  0  0  0  0
 22 23  1  0  0  0  0
 24 23  1  0  0  0  0
 24 25  1  0  0  0  0
 26 25  1  0  0  0  0
 26 27  1  0  0  0  0
 27 28  1  0  0  0  0
 29 27  1  0  0  0  0
 30 31  1  1  0  0  0
 30 34  1  0  0  0  0
 32 33  1  0  0  0  0
 33 31  1  0  0  0  0
 34 35  1  0  0  0  0
 35 36  1  0  0  0  0
 36 37  2  0  0  0  0
 38 37  1  6  0  0  0
 38 42  1  0  0  0  0
 38 40  1  0  0  0  0
 40 39  2  0  0  0  0
 40 41  1  0  0  0  0
 42 43  1  6  0  0  0
 42 44  1  0  0  0  0
 44 46  1  0  0  0  0
 45 46  2  0  0  0  0
M  END
>  <MODEL>
6

>  <REMARK>
 VINA RESULT:      -6.1      3.606      5.294
  Name = 
  21 active torsions:
  status: ('A' for Active; 'I' for Inactive)
    1  A    between atoms: C_1  and  C_33
    2  A    between atoms: C_1  and  C_41
    3  A    between atoms: N_2  and  C_4
    4  A    between atoms: C_4  and  N_38
    5  A    between atoms: C_6  and  N_28
    6  A    between atoms: N_8  and  N_16
    7  A    between atoms: C_9  and  C_34
    8  A    between atoms: N_10  and  N_19
    9  A    between atoms: N_10  and  N_38
   10  A    between atoms: C_11  and  C_27
   11  A    between atoms: C_12  and  C_20
   12  A    between atoms: C_12  and  C_21
   13  A    between atoms: C_15  and  C_20
   14  A    between atoms: C_15  and  C_40
   15  A    between atoms: C_15  and  C_42
   16  A    between atoms: N_19  and  N_28
   17  A    between atoms: C_24  and  C_25
   18  A    between atoms: C_24  and  C_27
   19  A    between atoms: C_25  and  C_26
   20  A    between atoms: C_25  and  C_46
   21  A    between atoms: C_26  and  O_45
                            x       y       z     vdW  Elec       q    Type
                         _______ _______ _______ _____ _____    ______ ____

>  <TORSDO>
F 21

$$$$
=
 OpenBabel10222416193D

 46 48  0  0  1  0  0  0  0  0999 V2000
  188.6210  177.8020  138.7810 C   0  0  0  0  0  0  0  0  0  0  0  0
  187.3770  178.3710  139.1270 C   0  0  0  0  0  3  0  0  0  0  0  0
  187.7920  177.7320  141.4140 C   0  0  0  0  0  0  0  0  0  0  0  0
  187.1700  177.8380  142.7650 C   0  0  0  0  0  2  0  0  0  0  0  0
  188.9970  177.1440  141.0530 C   0  0  0  0  0  3  0  0  0  0  0  0
  185.7950  178.8040  141.1070 C   0  0  0  0  0  0  0  0  0  0  0  0
  189.3760  177.1840  139.7430 N   0  0  0  0  0  0  0  0  0  0  0  0
  186.9940  178.3100  140.4650 C   0  0  0  0  0  0  0  0  0  0  0  0
  185.8800  178.5430  142.4170 C   0  0  0  0  0  0  0  0  0  0  0  0
  189.2330  176.6240  136.5960 N   0  0  0  0  0  2  0  0  0  0  0  0
  189.1050  177.8160  137.3830 C   0  0  0  0  0  0  0  0  0  0  0  0
  189.4170  178.9180  136.8620 O   0  0  0  0  0  0  0  0  0  0  0  0
  187.5340  174.8400  136.6990 C   0  0  0  0  0  0  0  0  0  0  0  0
  186.5720  175.6330  135.8880 C   0  0  0  0  0  1  0  0  0  0  0  0
  188.8120  175.3690  137.0480 N   0  0  0  0  0  2  0  0  0  0  0  0
  187.2150  173.6860  137.0860 O   0  0  0  0  0  0  0  0  0  0  0  0
  184.6000  179.3710  140.4030 C   0  0  0  0  0  2  0  0  0  0  0  0
  183.0450  177.3450  140.1710 C   0  0  2  0  0  3  0  0  0  0  0  0
  182.5780  178.4630  139.4330 O   0  0  0  0  0  0  0  0  0  0  0  0
  184.5500  178.0330  138.1310 C   0  0  0  0  0  1  0  0  0  0  0  0
  183.9730  178.3090  139.5100 C   0  0  1  0  0  0  0  0  0  0  0  0
  182.9380  176.1130  139.3920 N   0  0  0  0  0  2  0  0  0  0  0  0
  181.6470  175.5950  139.5550 N   0  0  0  0  0  2  0  0  0  0  0  0
  181.0820  175.5140  138.2750 N   0  0  0  0  0  2  0  0  0  0  0  0
  180.3440  174.3220  138.2250 N   0  0  0  0  0  2  0  0  0  0  0  0
  180.6530  173.6800  136.9460 C   0  0  0  0  0  2  0  0  0  0  0  0
  181.4650  172.4710  137.1150 N   0  0  0  0  0  0  0  0  0  0  0  0
  182.8580  172.7810  136.8170 C   0  0  0  0  0  1  0  0  0  0  0  0
  181.0320  171.4470  136.1780 C   0  0  0  0  0  1  0  0  0  0  0  0
  184.8570  178.9680  143.4210 C   0  0  1  0  0  3  0  0  0  0  0  0
  183.4470  178.6920  142.9120 C   0  0  0  0  0  2  0  0  0  0  0  0
  181.2830  179.0060  143.1830 C   0  0  0  0  0  1  0  0  0  0  0  0
  182.5000  179.0970  143.8510 O   0  0  0  0  0  0  0  0  0  0  0  0
  185.1140  178.2500  144.7360 C   0  0  0  0  0  2  0  0  0  0  0  0
  185.4990  179.2490  145.8070 C   0  0  0  0  0  2  0  0  0  0  0  0
  186.5050  178.6380  146.7180 C   0  0  0  0  0  3  0  0  0  0  0  0
  187.4000  177.7780  146.2390 C   0  0  0  0  0  3  0  0  0  0  0  0
  188.4130  177.1350  147.1410 C   0  0  2  0  0  3  0  0  0  0  0  0
  187.4930  177.3360  149.4680 O   0  0  0  0  0  1  0  0  0  0  0  0
  188.3910  177.7710  148.5010 C   0  0  0  0  0  0  0  0  0  0  0  0
  189.1760  178.7160  148.7540 O   0  0  0  0  0  0  0  0  0  0  0  0
  189.8090  177.1100  146.5000 C   0  0  2  0  0  3  0  0  0  0  0  0
  189.7160  177.1720  144.9870 C   0  0  0  0  0  1  0  0  0  0  0  0
  190.6460  175.9150  146.9630 C   0  0  0  0  0  2  0  0  0  0  0  0
  192.4250  176.7550  148.2510 O   0  0  0  0  0  0  0  0  0  0  0  0
  192.0730  176.3060  147.1740 C   0  0  0  0  0  3  0  0  0  0  0  0
  1  2  2  0  0  0  0
  1  7  1  0  0  0  0
  2  8  1  0  0  0  0
  3  4  1  0  0  0  0
  5  3  1  0  0  0  0
  6  9  2  0  0  0  0
  7  5  2  0  0  0  0
  8  6  1  0  0  0  0
  8  3  2  0  0  0  0
  9  4  1  0  0  0  0
  9 30  1  0  0  0  0
 10 15  1  0  0  0  0
 10 11  1  0  0  0  0
 11  1  1  0  0  0  0
 12 11  2  0  0  0  0
 13 15  1  0  0  0  0
 13 16  2  0  0  0  0
 14 13  1  0  0  0  0
 17  6  1  0  0  0  0
 18 22  1  6  0  0  0
 19 21  1  0  0  0  0
 19 18  1  0  0  0  0
 21 20  1  6  0  0  0
 21 18  1  0  0  0  0
 21 17  1  0  0  0  0
 22 23  1  0  0  0  0
 24 23  1  0  0  0  0
 25 24  1  0  0  0  0
 26 27  1  0  0  0  0
 26 25  1  0  0  0  0
 28 27  1  0  0  0  0
 29 27  1  0  0  0  0
 30 31  1  6  0  0  0
 30 34  1  0  0  0  0
 31 33  1  0  0  0  0
 32 33  1  0  0  0  0
 34 35  1  0  0  0  0
 35 36  1  0  0  0  0
 37 36  2  0  0  0  0
 38 37  1  6  0  0  0
 38 40  1  0  0  0  0
 40 41  2  0  0  0  0
 40 39  1  0  0  0  0
 42 43  1  6  0  0  0
 42 44  1  0  0  0  0
 42 38  1  0  0  0  0
 44 46  1  0  0  0  0
 46 45  2  0  0  0  0
M  END
>  <MODEL>
7

>  <REMARK>
 VINA RESULT:      -6.1      2.482      5.392
  Name = 
  21 active torsions:
  status: ('A' for Active; 'I' for Inactive)
    1  A    between atoms: C_1  and  C_33
    2  A    between atoms: C_1  and  C_41
    3  A    between atoms: N_2  and  C_4
    4  A    between atoms: C_4  and  N_38
    5  A    between atoms: C_6  and  N_28
    6  A    between atoms: N_8  and  N_16
    7  A    between atoms: C_9  and  C_34
    8  A    between atoms: N_10  and  N_19
    9  A    between atoms: N_10  and  N_38
   10  A    between atoms: C_11  and  C_27
   11  A    between atoms: C_12  and  C_20
   12  A    between atoms: C_12  and  C_21
   13  A    between atoms: C_15  and  C_20
   14  A    between atoms: C_15  and  C_40
   15  A    between atoms: C_15  and  C_42
   16  A    between atoms: N_19  and  N_28
   17  A    between atoms: C_24  and  C_25
   18  A    between atoms: C_24  and  C_27
   19  A    between atoms: C_25  and  C_26
   20  A    between atoms: C_25  and  C_46
   21  A    between atoms: C_26  and  O_45
                            x       y       z     vdW  Elec       q    Type
                         _______ _______ _______ _____ _____    ______ ____

>  <TORSDO>
F 21

$$$$
=
 OpenBabel10222416193D

 46 48  0  0  1  0  0  0  0  0999 V2000
  189.4640  177.4150  143.1820 C   0  0  0  0  0  0  0  0  0  0  0  0
  189.1570  177.0370  141.8580 C   0  0  0  0  0  3  0  0  0  0  0  0
  191.4800  177.3540  141.2960 C   0  0  0  0  0  0  0  0  0  0  0  0
  192.4090  177.2170  140.1380 C   0  0  0  0  0  3  0  0  0  0  0  0
  191.7600  177.7600  142.5950 C   0  0  0  0  0  3  0  0  0  0  0  0
  190.1910  176.6810  139.5310 C   0  0  0  0  0  0  0  0  0  0  0  0
  190.7420  177.7910  143.5030 N   0  0  0  0  0  0  0  0  0  0  0  0
  190.2020  177.0240  140.9360 C   0  0  1  0  0  3  0  0  0  0  0  0
  191.4400  176.7860  139.0610 C   0  0  0  0  0  0  0  0  0  0  0  0
  188.6640  177.1060  145.5920 N   0  0  0  0  0  2  0  0  0  0  0  0
  188.4150  177.4640  144.2260 C   0  0  0  0  0  0  0  0  0  0  0  0
  187.2570  177.8340  143.9010 O   0  0  0  0  0  0  0  0  0  0  0  0
  190.3450  177.1230  147.3950 C   0  0  0  0  0  0  0  0  0  0  0  0
  189.4450  177.8830  148.3020 C   0  0  0  0  0  1  0  0  0  0  0  0
  189.9390  176.7870  146.0700 N   0  0  0  0  0  2  0  0  0  0  0  0
  191.4830  176.7710  147.8030 O   0  0  0  0  0  0  0  0  0  0  0  0
  188.9680  176.4050  138.7120 C   0  0  0  0  0  2  0  0  0  0  0  0
  186.9950  178.0390  138.8380 C   0  0  2  0  0  3  0  0  0  0  0  0
  188.1910  178.6080  139.3450 O   0  0  0  0  0  0  0  0  0  0  0  0
  188.8720  178.4490  137.0470 C   0  0  0  0  0  1  0  0  0  0  0  0
  188.3360  177.7170  138.2670 C   0  0  1  0  0  0  0  0  0  0  0  0
  186.2810  178.9820  137.9810 N   0  0  0  0  0  2  0  0  0  0  0  0
  184.9340  179.0010  138.3660 N   0  0  0  0  0  2  0  0  0  0  0  0
  184.8890  179.5730  139.6440 N   0  0  0  0  0  2  0  0  0  0  0  0
  184.6320  178.5340  140.5520 N   0  0  0  0  0  2  0  0  0  0  0  0
  185.1090  178.9810  141.8610 C   0  0  0  0  0  2  0  0  0  0  0  0
  184.0340  179.5580  142.6750 N   0  0  0  0  0  0  0  0  0  0  0  0
  184.5180  179.7650  144.0340 C   0  0  0  0  0  1  0  0  0  0  0  0
  182.9130  178.6340  142.7430 C   0  0  0  0  0  1  0  0  0  0  0  0
  191.8380  176.4420  137.6620 C   0  0  1  0  0  3  0  0  0  0  0  0
  193.3340  176.1650  137.5750 C   0  0  0  0  0  2  0  0  0  0  0  0
  194.9650  174.7780  138.0970 C   0  0  0  0  0  1  0  0  0  0  0  0
  193.5990  174.8210  137.8350 O   0  0  0  0  0  0  0  0  0  0  0  0
  191.0320  175.2430  137.1920 C   0  0  0  0  0  2  0  0  0  0  0  0
  190.8990  175.2650  135.6830 C   0  0  0  0  0  2  0  0  0  0  0  0
  189.4650  175.1400  135.3070 C   0  0  0  0  0  3  0  0  0  0  0  0
  188.6730  174.3050  135.9760 C   0  0  0  0  0  3  0  0  0  0  0  0
  187.2270  174.1470  135.6040 C   0  0  2  0  0  3  0  0  0  0  0  0
  186.1210  176.3940  135.4300 O   0  0  0  0  0  0  0  0  0  0  0  0
  186.4060  175.2620  136.1840 C   0  0  0  0  0  0  0  0  0  0  0  0
  185.9960  175.1760  137.3660 O   0  0  0  0  0  1  0  0  0  0  0  0
  186.6980  172.7490  135.9590 C   0  0  2  0  0  3  0  0  0  0  0  0
  187.7730  171.6960  135.7700 C   0  0  0  0  0  1  0  0  0  0  0  0
  185.4210  172.3930  135.1950 C   0  0  0  0  0  2  0  0  0  0  0  0
  184.0450  170.9850  136.4810 O   0  0  0  0  0  0  0  0  0  0  0  0
  184.2890  172.1280  136.1330 C   0  0  0  0  0  3  0  0  0  0  0  0
  1  7  1  0  0  0  0
  1 11  1  0  0  0  0
  2  1  2  0  0  0  0
  3  5  1  0  0  0  0
  4  3  2  0  0  0  0
  5  7  2  0  0  0  0
  6  8  1  0  0  0  0
  8  3  1  0  0  0  0
  8  2  1  1  0  0  0
  9  6  2  0  0  0  0
  9  4  1  0  0  0  0
 10 15  1  0  0  0  0
 11 10  1  0  0  0  0
 12 11  2  0  0  0  0
 13 16  2  0  0  0  0
 13 14  1  0  0  0  0
 15 13  1  0  0  0  0
 17  6  1  0  0  0  0
 18 22  1  6  0  0  0
 18 19  1  0  0  0  0
 21 20  1  6  0  0  0
 21 17  1  0  0  0  0
 21 18  1  0  0  0  0
 21 19  1  0  0  0  0
 22 23  1  0  0  0  0
 23 24  1  0  0  0  0
 24 25  1  0  0  0  0
 25 26  1  0  0  0  0
 26 27  1  0  0  0  0
 27 29  1  0  0  0  0
 27 28  1  0  0  0  0
 30 34  1  1  0  0  0
 30  9  1  0  0  0  0
 31 30  1  0  0  0  0
 31 33  1  0  0  0  0
 33 32  1  0  0  0  0
 35 34  1  0  0  0  0
 36 35  1  0  0  0  0
 36 37  2  0  0  0  0
 38 42  1  0  0  0  0
 38 37  1  1  0  0  0
 38 40  1  0  0  0  0
 39 40  2  0  0  0  0
 40 41  1  0  0  0  0
 42 43  1  6  0  0  0
 44 42  1  0  0  0  0
 44 46  1  0  0  0  0
 46 45  2  0  0  0  0
M  END
>  <MODEL>
8

>  <REMARK>
 VINA RESULT:      -5.9      2.710      9.953
  Name = 
  21 active torsions:
  status: ('A' for Active; 'I' for Inactive)
    1  A    between atoms: C_1  and  C_33
    2  A    between atoms: C_1  and  C_41
    3  A    between atoms: N_2  and  C_4
    4  A    between atoms: C_4  and  N_38
    5  A    between atoms: C_6  and  N_28
    6  A    between atoms: N_8  and  N_16
    7  A    between atoms: C_9  and  C_34
    8  A    between atoms: N_10  and  N_19
    9  A    between atoms: N_10  and  N_38
   10  A    between atoms: C_11  and  C_27
   11  A    between atoms: C_12  and  C_20
   12  A    between atoms: C_12  and  C_21
   13  A    between atoms: C_15  and  C_20
   14  A    between atoms: C_15  and  C_40
   15  A    between atoms: C_15  and  C_42
   16  A    between atoms: N_19  and  N_28
   17  A    between atoms: C_24  and  C_25
   18  A    between atoms: C_24  and  C_27
   19  A    between atoms: C_25  and  C_26
   20  A    between atoms: C_25  and  C_46
   21  A    between atoms: C_26  and  O_45
                            x       y       z     vdW  Elec       q    Type
                         _______ _______ _______ _____ _____    ______ ____

>  <TORSDO>
F 21

$$$$
=
 OpenBabel10222416193D

 46 48  0  0  1  0  0  0  0  0999 V2000
  184.5840  178.9710  138.8330 C   0  0  0  0  0  0  0  0  0  0  0  0
  185.5580  179.0150  139.8520 C   0  0  0  0  0  2  0  0  0  0  0  0
  186.9410  177.5720  138.5050 C   0  0  0  0  0  0  0  0  0  0  0  0
  188.2870  176.9300  138.5230 C   0  0  0  0  0  3  0  0  0  0  0  0
  185.9580  177.5080  137.5270 C   0  0  0  0  0  3  0  0  0  0  0  0
  187.8920  178.1530  140.5030 C   0  0  0  0  0  0  0  0  0  0  0  0
  184.7980  178.2010  137.7200 N   0  0  0  0  0  0  0  0  0  0  0  0
  186.7310  178.2920  139.6500 C   0  0  0  0  0  0  0  0  0  0  0  0
  188.7870  177.3810  139.8760 C   0  0  0  0  0  0  0  0  0  0  0  0
  182.0820  179.0650  139.3560 N   0  0  0  0  0  2  0  0  0  0  0  0
  183.3050  179.7040  138.9660 C   0  0  0  0  0  0  0  0  0  0  0  0
  183.2890  180.9400  138.7270 O   0  0  0  0  0  0  0  0  0  0  0  0
  180.8680  176.9230  139.4870 C   0  0  0  0  0  0  0  0  0  0  0  0
  179.6600  177.5050  138.8460 C   0  0  0  0  0  1  0  0  0  0  0  0
  182.0200  177.7230  139.7450 N   0  0  0  0  0  2  0  0  0  0  0  0
  180.8740  175.7060  139.8090 O   0  0  0  0  0  0  0  0  0  0  0  0
  188.0050  178.6620  141.9070 C   0  0  0  0  0  2  0  0  0  0  0  0
  186.0390  178.6170  143.5540 C   0  0  2  0  0  3  0  0  0  0  0  0
  185.7650  177.8760  142.3750 O   0  0  0  0  0  0  0  0  0  0  0  0
  187.4890  176.4480  143.2450 C   0  0  0  0  0  1  0  0  0  0  0  0
  187.0960  177.8550  142.8250 C   0  0  1  0  0  0  0  0  0  0  0  0
  185.6090  177.8920  144.7470 N   0  0  0  0  0  2  0  0  0  0  0  0
  184.6280  178.6500  145.3980 N   0  0  0  0  0  2  0  0  0  0  0  0
  183.9310  179.3470  144.4020 N   0  0  0  0  0  2  0  0  0  0  0  0
  182.6100  178.8750  144.4150 N   0  0  0  0  0  2  0  0  0  0  0  0
  182.0940  179.0080  143.0530 C   0  0  0  0  0  2  0  0  0  0  0  0
  180.6660  178.6830  142.9670 N   0  0  0  0  0  0  0  0  0  0  0  0
  179.9690  179.7600  142.2760 C   0  0  0  0  0  1  0  0  0  0  0  0
  180.1000  178.5770  144.3020 C   0  0  0  0  0  1  0  0  0  0  0  0
  190.1450  177.0690  140.4160 C   0  0  1  0  0  3  0  0  0  0  0  0
  191.2320  177.5170  139.4460 C   0  0  0  0  0  2  0  0  0  0  0  0
  193.1390  176.5380  138.9320 C   0  0  0  0  0  1  0  0  0  0  0  0
  191.7620  176.4210  138.7660 O   0  0  0  0  0  0  0  0  0  0  0  0
  190.3120  177.7390  141.7700 C   0  0  0  0  0  2  0  0  0  0  0  0
  191.6830  177.4310  142.3370 C   0  0  0  0  0  2  0  0  0  0  0  0
  191.6880  177.6960  143.8010 C   0  0  0  0  0  3  0  0  0  0  0  0
  191.2310  176.7740  144.6450 C   0  0  0  0  0  3  0  0  0  0  0  0
  191.2080  177.0250  146.1250 C   0  0  2  0  0  3  0  0  0  0  0  0
  192.5010  176.2690  148.1400 O   0  0  0  0  0  1  0  0  0  0  0  0
  192.0600  176.0210  146.8460 C   0  0  0  0  0  0  0  0  0  0  0  0
  192.3920  174.9610  146.2630 O   0  0  0  0  0  0  0  0  0  0  0  0
  189.7730  177.1100  146.6650 C   0  0  2  0  0  3  0  0  0  0  0  0
  188.8760  177.8760  145.7100 C   0  0  0  0  0  1  0  0  0  0  0  0
  189.7110  177.6880  148.0800 C   0  0  0  0  0  2  0  0  0  0  0  0
  187.6180  178.6710  148.5100 O   0  0  0  0  0  0  0  0  0  0  0  0
  188.3130  177.6740  148.6070 C   0  0  0  0  0  3  0  0  0  0  0  0
  1 11  1  0  0  0  0
  1  2  1  0  0  0  0
  3  4  1  0  0  0  0
  3  8  1  0  0  0  0
  4  9  2  0  0  0  0
  5  7  1  0  0  0  0
  5  3  2  0  0  0  0
  6 17  1  0  0  0  0
  7  1  2  0  0  0  0
  8  2  1  0  0  0  0
  8  6  2  0  0  0  0
  9 30  1  0  0  0  0
  9  6  1  0  0  0  0
 10 15  1  0  0  0  0
 11 10  1  0  0  0  0
 12 11  2  0  0  0  0
 13 15  1  0  0  0  0
 13 16  2  0  0  0  0
 14 13  1  0  0  0  0
 17 21  1  0  0  0  0
 18 22  1  1  0  0  0
 19 21  1  0  0  0  0
 19 18  1  0  0  0  0
 21 20  1  1  0  0  0
 21 18  1  0  0  0  0
 22 23  1  0  0  0  0
 24 25  1  0  0  0  0
 24 23  1  0  0  0  0
 26 25  1  0  0  0  0
 27 26  1  0  0  0  0
 27 29  1  0  0  0  0
 28 27  1  0  0  0  0
 30 31  1  6  0  0  0
 30 34  1  0  0  0  0
 33 32  1  0  0  0  0
 33 31  1  0  0  0  0
 34 35  1  0  0  0  0
 35 36  1  0  0  0  0
 36 37  2  0  0  0  0
 38 37  1  6  0  0  0
 38 42  1  0  0  0  0
 38 40  1  0  0  0  0
 40 39  1  0  0  0  0
 41 40  2  0  0  0  0
 42 43  1  6  0  0  0
 42 44  1  0  0  0  0
 44 46  1  0  0  0  0
 45 46  2  0  0  0  0
M  END
>  <MODEL>
9

>  <REMARK>
 VINA RESULT:      -5.9      3.228      7.154
  Name = 
  21 active torsions:
  status: ('A' for Active; 'I' for Inactive)
    1  A    between atoms: C_1  and  C_33
    2  A    between atoms: C_1  and  C_41
    3  A    between atoms: N_2  and  C_4
    4  A    between atoms: C_4  and  N_38
    5  A    between atoms: C_6  and  N_28
    6  A    between atoms: N_8  and  N_16
    7  A    between atoms: C_9  and  C_34
    8  A    between atoms: N_10  and  N_19
    9  A    between atoms: N_10  and  N_38
   10  A    between atoms: C_11  and  C_27
   11  A    between atoms: C_12  and  C_20
   12  A    between atoms: C_12  and  C_21
   13  A    between atoms: C_15  and  C_20
   14  A    between atoms: C_15  and  C_40
   15  A    between atoms: C_15  and  C_42
   16  A    between atoms: N_19  and  N_28
   17  A    between atoms: C_24  and  C_25
   18  A    between atoms: C_24  and  C_27
   19  A    between atoms: C_25  and  C_26
   20  A    between atoms: C_25  and  C_46
   21  A    between atoms: C_26  and  O_45
                            x       y       z     vdW  Elec       q    Type
                         _______ _______ _______ _____ _____    ______ ____

>  <TORSDO>
F 21

$$$$
