=
 OpenBabel10222416513D

 41 44  0  0  1  0  0  0  0  0999 V2000
  184.4250  178.6800  142.1300 C   0  0  1  0  0  3  0  0  0  0  0  0
  183.1090  178.3960  141.4580 C   0  0  0  0  0  0  0  0  0  0  0  0
  180.7060  178.2580  139.9770 C   0  0  0  0  0  2  0  0  0  0  0  0
  180.6830  178.5560  141.4700 C   0  0  0  0  0  2  0  0  0  0  0  0
  182.0120  178.8410  141.9850 N   0  0  0  0  0  0  0  0  0  0  0  0
  181.7200  177.1490  139.7420 C   0  0  0  0  0  2  0  0  0  0  0  0
  183.1160  177.6160  140.1600 C   0  0  1  0  0  3  0  0  0  0  0  0
  183.7290  178.4600  139.0550 C   0  0  0  0  0  2  0  0  0  0  0  0
  186.2600  179.0140  137.9500 O   0  0  0  0  0  0  0  0  0  0  0  0
  184.4060  177.6060  138.0920 N   0  0  0  0  0  2  0  0  0  0  0  0
  185.7180  177.9240  137.6240 C   0  0  0  0  0  0  0  0  0  0  0  0
  187.4480  176.1580  137.5090 C   0  0  0  0  0  2  0  0  0  0  0  0
  188.3940  175.5350  136.5040 C   0  0  1  0  0  3  0  0  0  0  0  0
  186.4340  176.9670  136.7310 C   0  0  2  0  0  3  0  0  0  0  0  0
  188.5730  176.6740  135.0910 S   0  0  0  0  0  0  0  0  0  0  0  0
  187.1830  177.7130  135.6430 C   0  0  0  0  0  2  0  0  0  0  0  0
  189.7450  175.2830  137.1520 C   0  0  0  0  0  2  0  0  0  0  0  0
  191.9300  175.8960  136.6190 C   0  0  0  0  0  1  0  0  0  0  0  0
  190.7810  175.1560  136.1350 N   0  0  0  0  0  2  0  0  0  0  0  0
  184.4430  178.2050  143.5810 C   0  0  0  0  0  2  0  0  0  0  0  0
  185.1690  179.1910  144.4870 C   0  0  0  0  0  2  0  0  0  0  0  0
  185.4530  178.5880  145.7450 O   0  0  0  0  0  0  0  0  0  0  0  0
  190.5600  176.8100  147.3820 N   0  0  0  0  0  2  0  0  0  0  0  0
  191.7880  176.6150  146.6060 C   0  0  2  0  0  3  0  0  0  0  0  0
  191.4960  175.9000  145.3210 C   0  0  0  0  0  3  0  0  0  0  0  0
  190.8780  176.5330  144.3230 C   0  0  0  0  0  3  0  0  0  0  0  0
  192.7260  175.8280  147.3830 N   0  0  0  0  0  1  0  0  0  0  0  0
  186.9470  177.6940  147.4070 C   0  0  0  0  0  3  0  0  0  0  0  0
  189.3130  177.3730  146.9350 C   0  0  0  0  0  0  0  0  0  0  0  0
  187.8330  178.3250  145.2460 C   0  0  0  0  0  3  0  0  0  0  0  0
  188.2180  177.2750  147.8020 C   0  0  0  0  0  3  0  0  0  0  0  0
  186.7440  178.2060  146.1230 C   0  0  0  0  0  0  0  0  0  0  0  0
  189.1180  177.9300  145.6400 C   0  0  0  0  0  0  0  0  0  0  0  0
  190.4630  178.2690  144.4970 S   0  0  0  0  0  0  0  0  0  0  0  0
  185.4560  178.0560  141.4150 O   0  0  0  0  0  0  0  0  0  0  0  0
  186.5030  178.9870  141.3690 C   0  0  0  0  0  2  0  0  0  0  0  0
  187.8370  178.3140  141.6620 C   0  0  0  0  0  2  0  0  0  0  0  0
  188.6100  178.0620  140.3720 C   0  0  0  0  0  2  0  0  0  0  0  0
  189.6670  176.9860  140.5770 C   0  0  0  0  0  2  0  0  0  0  0  0
  191.0150  177.4570  140.1390 C   0  0  0  0  0  3  0  0  0  0  0  0
  191.9990  177.4400  140.9580 N   0  0  0  0  0  2  0  0  0  0  0  0
  1 20  1  1  0  0  0
  2  5  2  0  0  0  0
  2  1  1  0  0  0  0
  3  4  1  0  0  0  0
  4  5  1  0  0  0  0
  6  3  1  0  0  0  0
  6  7  1  0  0  0  0
  7  8  1  6  0  0  0
  7  2  1  0  0  0  0
 10  8  1  0  0  0  0
 11  9  2  0  0  0  0
 11 10  1  0  0  0  0
 13 17  1  1  0  0  0
 13 12  1  0  0  0  0
 14 12  1  0  0  0  0
 14 11  1  1  0  0  0
 15 16  1  0  0  0  0
 15 13  1  0  0  0  0
 16 14  1  0  0  0  0
 19 18  1  0  0  0  0
 19 17  1  0  0  0  0
 20 21  1  0  0  0  0
 21 22  1  0  0  0  0
 22 32  1  0  0  0  0
 24 23  1  0  0  0  0
 24 27  1  1  0  0  0
 25 24  1  0  0  0  0
 26 34  1  0  0  0  0
 26 25  2  0  0  0  0
 28 31  1  0  0  0  0
 29 23  1  0  0  0  0
 29 31  2  0  0  0  0
 30 33  2  0  0  0  0
 30 32  1  0  0  0  0
 32 28  2  0  0  0  0
 33 29  1  0  0  0  0
 34 33  1  0  0  0  0
 35  1  1  0  0  0  0
 36 35  1  0  0  0  0
 36 37  1  0  0  0  0
 38 39  1  0  0  0  0
 38 37  1  0  0  0  0
 40 39  1  0  0  0  0
 40 41  2  0  0  0  0
M  END
>  <MODEL>
1

>  <REMARK>
 VINA RESULT:      -7.0      0.000      0.000
  Name = 
  16 active torsions:
  status: ('A' for Active; 'I' for Inactive)
    1  A    between atoms: O_2  and  C_32
    2  A    between atoms: O_2  and  C_39
    3  A    between atoms: C_7  and  C_9
    4  A    between atoms: C_8  and  C_12
    5  A    between atoms: C_8  and  C_39
    6  A    between atoms: C_9  and  N_14
    7  A    between atoms: C_10  and  C_39
    8  A    between atoms: C_12  and  O_40
    9  A    between atoms: C_13  and  C_17
   10  A    between atoms: C_16  and  C_38
   11  A    between atoms: C_17  and  C_33
   12  A    between atoms: C_24  and  C_32
   13  A    between atoms: C_24  and  C_33
   14  A    between atoms: N_27  and  C_34
   15  A    between atoms: C_29  and  O_40
   16  A    between atoms: C_34  and  C_37
                            x       y       z     vdW  Elec       q    Type
                         _______ _______ _______ _____ _____    ______ ____

>  <TORSDO>
F 16

$$$$
=
 OpenBabel10222416513D

 41 44  0  0  1  0  0  0  0  0999 V2000
  184.8630  178.7940  142.0910 C   0  0  1  0  0  3  0  0  0  0  0  0
  183.5140  178.4520  141.5200 C   0  0  0  0  0  0  0  0  0  0  0  0
  181.0070  178.2120  140.2380 C   0  0  0  0  0  2  0  0  0  0  0  0
  181.0920  178.4610  141.7370 C   0  0  0  0  0  2  0  0  0  0  0  0
  182.4410  178.8110  142.1510 N   0  0  0  0  0  0  0  0  0  0  0  0
  182.0600  177.1750  139.8800 C   0  0  0  0  0  2  0  0  0  0  0  0
  183.4570  177.7130  140.1980 C   0  0  1  0  0  3  0  0  0  0  0  0
  183.9250  178.6280  139.0770 C   0  0  0  0  0  2  0  0  0  0  0  0
  186.5180  178.9080  138.0170 O   0  0  0  0  0  0  0  0  0  0  0  0
  184.4470  177.8370  137.9740 N   0  0  0  0  0  2  0  0  0  0  0  0
  185.7970  177.9950  137.5330 C   0  0  0  0  0  0  0  0  0  0  0  0
  185.3900  175.9390  136.2180 C   0  0  0  0  0  2  0  0  0  0  0  0
  186.1680  174.8720  135.4760 C   0  0  1  0  0  3  0  0  0  0  0  0
  186.3390  177.0870  136.4810 C   0  0  2  0  0  3  0  0  0  0  0  0
  187.8990  174.9120  136.0490 S   0  0  0  0  0  0  0  0  0  0  0  0
  187.6630  176.4930  136.9220 C   0  0  0  0  0  2  0  0  0  0  0  0
  185.5560  173.5070  135.7430 C   0  0  0  0  0  2  0  0  0  0  0  0
  184.2890  172.3510  137.3210 C   0  0  0  0  0  1  0  0  0  0  0  0
  184.4200  173.6270  136.6460 N   0  0  0  0  0  2  0  0  0  0  0  0
  185.1400  178.0530  143.3970 C   0  0  0  0  0  2  0  0  0  0  0  0
  185.2130  179.0060  144.5820 C   0  0  0  0  0  2  0  0  0  0  0  0
  185.4840  178.2860  145.7780 O   0  0  0  0  0  0  0  0  0  0  0  0
  190.6330  176.7910  147.5640 N   0  0  0  0  0  2  0  0  0  0  0  0
  191.8840  176.6330  146.8180 C   0  0  2  0  0  3  0  0  0  0  0  0
  191.6530  175.8720  145.5470 C   0  0  0  0  0  3  0  0  0  0  0  0
  191.0270  176.4500  144.5210 C   0  0  0  0  0  3  0  0  0  0  0  0
  192.8410  175.9120  147.6340 N   0  0  0  0  0  1  0  0  0  0  0  0
  186.9830  177.5060  147.4940 C   0  0  0  0  0  3  0  0  0  0  0  0
  189.3710  177.2830  147.0770 C   0  0  0  0  0  0  0  0  0  0  0  0
  187.8840  178.1210  145.3350 C   0  0  0  0  0  3  0  0  0  0  0  0
  188.2630  177.1570  147.9250 C   0  0  0  0  0  3  0  0  0  0  0  0
  186.7830  177.9740  146.1920 C   0  0  0  0  0  0  0  0  0  0  0  0
  189.1770  177.7970  145.7640 C   0  0  0  0  0  0  0  0  0  0  0  0
  190.5290  178.1680  144.6400 S   0  0  0  0  0  0  0  0  0  0  0  0
  185.8570  178.4870  141.1520 O   0  0  0  0  0  0  0  0  0  0  0  0
  187.0680  178.5170  141.8580 C   0  0  0  0  0  2  0  0  0  0  0  0
  188.2490  178.3390  140.9140 C   0  0  0  0  0  2  0  0  0  0  0  0
  189.0680  177.1130  141.2980 C   0  0  0  0  0  2  0  0  0  0  0  0
  190.5210  177.2790  140.8730 C   0  0  0  0  0  2  0  0  0  0  0  0
  190.6920  177.0310  139.4100 C   0  0  0  0  0  3  0  0  0  0  0  0
  190.6340  175.8380  138.9490 N   0  0  0  0  0  2  0  0  0  0  0  0
  1 20  1  1  0  0  0
  2  1  1  0  0  0  0
  2  5  2  0  0  0  0
  3  4  1  0  0  0  0
  4  5  1  0  0  0  0
  6  7  1  0  0  0  0
  6  3  1  0  0  0  0
  7  8  1  6  0  0  0
  7  2  1  0  0  0  0
 10  8  1  0  0  0  0
 11 10  1  0  0  0  0
 11  9  2  0  0  0  0
 12 14  1  0  0  0  0
 13 17  1  1  0  0  0
 13 15  1  0  0  0  0
 13 12  1  0  0  0  0
 14 16  1  0  0  0  0
 14 11  1  1  0  0  0
 15 16  1  0  0  0  0
 17 19  1  0  0  0  0
 19 18  1  0  0  0  0
 20 21  1  0  0  0  0
 21 22  1  0  0  0  0
 22 32  1  0  0  0  0
 24 23  1  0  0  0  0
 24 27  1  1  0  0  0
 25 24  1  0  0  0  0
 26 34  1  0  0  0  0
 26 25  2  0  0  0  0
 28 31  1  0  0  0  0
 29 23  1  0  0  0  0
 29 31  2  0  0  0  0
 30 33  2  0  0  0  0
 30 32  1  0  0  0  0
 32 28  2  0  0  0  0
 33 29  1  0  0  0  0
 34 33  1  0  0  0  0
 35 36  1  0  0  0  0
 35  1  1  0  0  0  0
 37 38  1  0  0  0  0
 37 36  1  0  0  0  0
 39 38  1  0  0  0  0
 40 39  1  0  0  0  0
 41 40  2  0  0  0  0
M  END
>  <MODEL>
2

>  <REMARK>
 VINA RESULT:      -7.0      1.431      2.062
  Name = 
  16 active torsions:
  status: ('A' for Active; 'I' for Inactive)
    1  A    between atoms: O_2  and  C_32
    2  A    between atoms: O_2  and  C_39
    3  A    between atoms: C_7  and  C_9
    4  A    between atoms: C_8  and  C_12
    5  A    between atoms: C_8  and  C_39
    6  A    between atoms: C_9  and  N_14
    7  A    between atoms: C_10  and  C_39
    8  A    between atoms: C_12  and  O_40
    9  A    between atoms: C_13  and  C_17
   10  A    between atoms: C_16  and  C_38
   11  A    between atoms: C_17  and  C_33
   12  A    between atoms: C_24  and  C_32
   13  A    between atoms: C_24  and  C_33
   14  A    between atoms: N_27  and  C_34
   15  A    between atoms: C_29  and  O_40
   16  A    between atoms: C_34  and  C_37
                            x       y       z     vdW  Elec       q    Type
                         _______ _______ _______ _____ _____    ______ ____

>  <TORSDO>
F 16

$$$$
=
 OpenBabel10222416513D

 41 44  0  0  1  0  0  0  0  0999 V2000
  187.7410  176.4850  137.6600 C   0  0  1  0  0  3  0  0  0  0  0  0
  189.1900  176.2690  137.3140 C   0  0  0  0  0  0  0  0  0  0  0  0
  191.9580  176.3110  136.7440 C   0  0  0  0  0  2  0  0  0  0  0  0
  190.9370  176.1370  135.6290 C   0  0  0  0  0  2  0  0  0  0  0  0
  189.5840  176.4030  136.0880 N   0  0  0  0  0  0  0  0  0  0  0  0
  191.5130  175.4510  137.9160 C   0  0  0  0  0  2  0  0  0  0  0  0
  190.1530  175.9260  138.4320 C   0  0  1  0  0  3  0  0  0  0  0  0
  190.3390  177.1310  139.3400 C   0  0  0  0  0  2  0  0  0  0  0  0
  188.3090  178.2040  140.9720 O   0  0  0  0  0  0  0  0  0  0  0  0
  190.1160  176.7500  140.7260 N   0  0  0  0  0  2  0  0  0  0  0  0
  189.0240  177.2940  141.4700 C   0  0  0  0  0  0  0  0  0  0  0  0
  187.3710  177.2100  143.3090 C   0  0  0  0  0  2  0  0  0  0  0  0
  187.3280  177.0380  144.8140 C   0  0  1  0  0  3  0  0  0  0  0  0
  188.7500  176.7930  142.8480 C   0  0  2  0  0  3  0  0  0  0  0  0
  188.9890  177.3790  145.4850 S   0  0  0  0  0  0  0  0  0  0  0  0
  189.7530  177.3670  143.8320 C   0  0  0  0  0  2  0  0  0  0  0  0
  186.3100  177.9940  145.4140 C   0  0  0  0  0  2  0  0  0  0  0  0
  184.2470  179.0490  145.1650 C   0  0  0  0  0  1  0  0  0  0  0  0
  185.2340  178.2510  144.4660 N   0  0  0  0  0  2  0  0  0  0  0  0
  187.3780  177.9670  137.7130 C   0  0  0  0  0  2  0  0  0  0  0  0
  185.8700  178.1790  137.7030 C   0  0  0  0  0  2  0  0  0  0  0  0
  185.4970  179.1160  138.7060 O   0  0  0  0  0  0  0  0  0  0  0  0
  180.9960  178.6150  142.0860 N   0  0  0  0  0  2  0  0  0  0  0  0
  179.6290  179.1130  141.9210 C   0  0  2  0  0  3  0  0  0  0  0  0
  179.6350  180.5380  141.4540 C   0  0  0  0  0  3  0  0  0  0  0  0
  179.9740  180.8340  140.1990 C   0  0  0  0  0  3  0  0  0  0  0  0
  178.9320  179.0340  143.1900 N   0  0  0  0  0  1  0  0  0  0  0  0
  184.4750  178.4430  140.7800 C   0  0  0  0  0  3  0  0  0  0  0  0
  182.0790  178.6750  141.1390 C   0  0  0  0  0  0  0  0  0  0  0  0
  183.0790  179.3220  139.0110 C   0  0  0  0  0  3  0  0  0  0  0  0
  183.3510  178.3100  141.5960 C   0  0  0  0  0  3  0  0  0  0  0  0
  184.3480  178.9650  139.4900 C   0  0  0  0  0  0  0  0  0  0  0  0
  181.9400  179.1700  139.8120 C   0  0  0  0  0  0  0  0  0  0  0  0
  180.3510  179.5120  139.0470 S   0  0  0  0  0  0  0  0  0  0  0  0
  186.9360  175.8340  136.7150 O   0  0  0  0  0  0  0  0  0  0  0  0
  186.8830  174.4930  137.1220 C   0  0  0  0  0  2  0  0  0  0  0  0
  185.6110  173.8260  136.6180 C   0  0  0  0  0  2  0  0  0  0  0  0
  184.4400  174.1260  137.5450 C   0  0  0  0  0  2  0  0  0  0  0  0
  183.4690  175.1010  136.8920 C   0  0  0  0  0  2  0  0  0  0  0  0
  182.4790  175.6270  137.8790 C   0  0  0  0  0  3  0  0  0  0  0  0
  182.7770  175.6740  139.1240 N   0  0  0  0  0  2  0  0  0  0  0  0
  1 20  1  6  0  0  0
  2  1  1  0  0  0  0
  2  7  1  0  0  0  0
  3  6  1  0  0  0  0
  4  5  1  0  0  0  0
  4  3  1  0  0  0  0
  5  2  2  0  0  0  0
  6  7  1  0  0  0  0
  7  8  1  1  0  0  0
  8 10  1  0  0  0  0
  9 11  2  0  0  0  0
 10 11  1  0  0  0  0
 12 13  1  0  0  0  0
 13 17  1  1  0  0  0
 13 15  1  0  0  0  0
 14 11  1  6  0  0  0
 14 12  1  0  0  0  0
 14 16  1  0  0  0  0
 16 15  1  0  0  0  0
 19 18  1  0  0  0  0
 19 17  1  0  0  0  0
 21 20  1  0  0  0  0
 21 22  1  0  0  0  0
 22 32  1  0  0  0  0
 24 23  1  0  0  0  0
 24 27  1  1  0  0  0
 25 24  1  0  0  0  0
 26 25  2  0  0  0  0
 28 31  1  0  0  0  0
 29 31  2  0  0  0  0
 29 23  1  0  0  0  0
 30 32  1  0  0  0  0
 30 33  2  0  0  0  0
 32 28  2  0  0  0  0
 33 29  1  0  0  0  0
 34 33  1  0  0  0  0
 34 26  1  0  0  0  0
 35 36  1  0  0  0  0
 35  1  1  0  0  0  0
 37 36  1  0  0  0  0
 37 38  1  0  0  0  0
 39 38  1  0  0  0  0
 39 40  1  0  0  0  0
 40 41  2  0  0  0  0
M  END
>  <MODEL>
3

>  <REMARK>
 VINA RESULT:      -6.7      2.856      9.032
  Name = 
  16 active torsions:
  status: ('A' for Active; 'I' for Inactive)
    1  A    between atoms: O_2  and  C_32
    2  A    between atoms: O_2  and  C_39
    3  A    between atoms: C_7  and  C_9
    4  A    between atoms: C_8  and  C_12
    5  A    between atoms: C_8  and  C_39
    6  A    between atoms: C_9  and  N_14
    7  A    between atoms: C_10  and  C_39
    8  A    between atoms: C_12  and  O_40
    9  A    between atoms: C_13  and  C_17
   10  A    between atoms: C_16  and  C_38
   11  A    between atoms: C_17  and  C_33
   12  A    between atoms: C_24  and  C_32
   13  A    between atoms: C_24  and  C_33
   14  A    between atoms: N_27  and  C_34
   15  A    between atoms: C_29  and  O_40
   16  A    between atoms: C_34  and  C_37
                            x       y       z     vdW  Elec       q    Type
                         _______ _______ _______ _____ _____    ______ ____

>  <TORSDO>
F 16

$$$$
=
 OpenBabel10222416513D

 41 44  0  0  1  0  0  0  0  0999 V2000
  187.8820  177.8470  144.7510 C   0  0  1  0  0  3  0  0  0  0  0  0
  188.8870  177.3510  143.7470 C   0  0  0  0  0  0  0  0  0  0  0  0
  190.4150  176.3480  141.5910 C   0  0  0  0  0  2  0  0  0  0  0  0
  190.2180  175.5220  142.8540 C   0  0  0  0  0  2  0  0  0  0  0  0
  189.2010  176.0940  143.7210 N   0  0  0  0  0  0  0  0  0  0  0  0
  190.6870  177.7830  142.0140 C   0  0  0  0  0  2  0  0  0  0  0  0
  189.4830  178.3460  142.7720 C   0  0  1  0  0  3  0  0  0  0  0  0
  188.4200  178.8010  141.7860 C   0  0  0  0  0  2  0  0  0  0  0  0
  186.4520  178.6620  139.7760 O   0  0  0  0  0  0  0  0  0  0  0  0
  188.5980  178.1210  140.5120 N   0  0  0  0  0  2  0  0  0  0  0  0
  187.5730  178.1480  139.5170 C   0  0  0  0  0  0  0  0  0  0  0  0
  189.0250  176.6180  138.2240 C   0  0  0  0  0  2  0  0  0  0  0  0
  189.4690  176.3840  136.7950 C   0  0  1  0  0  3  0  0  0  0  0  0
  187.8310  177.5460  138.1770 C   0  0  2  0  0  3  0  0  0  0  0  0
  189.1400  177.8950  135.8280 S   0  0  0  0  0  0  0  0  0  0  0  0
  188.1320  178.6270  137.1560 C   0  0  0  0  0  2  0  0  0  0  0  0
  190.9510  176.0500  136.7620 C   0  0  0  0  0  2  0  0  0  0  0  0
  192.6740  175.0230  137.9490 C   0  0  0  0  0  1  0  0  0  0  0  0
  191.4360  175.7610  138.1050 N   0  0  0  0  0  2  0  0  0  0  0  0
  186.4450  177.6220  144.2840 C   0  0  0  0  0  2  0  0  0  0  0  0
  185.5710  178.8410  144.5430 C   0  0  0  0  0  2  0  0  0  0  0  0
  184.2080  178.4540  144.6680 O   0  0  0  0  0  0  0  0  0  0  0  0
  180.3770  179.4060  140.6240 N   0  0  0  0  0  2  0  0  0  0  0  0
  180.5280  179.4410  139.1670 C   0  0  2  0  0  3  0  0  0  0  0  0
  181.7410  180.2290  138.7770 C   0  0  0  0  0  3  0  0  0  0  0  0
  182.9620  179.7260  138.9660 C   0  0  0  0  0  3  0  0  0  0  0  0
  179.3540  180.0560  138.5780 N   0  0  0  0  0  1  0  0  0  0  0  0
  181.9890  179.0650  143.9590 C   0  0  0  0  0  3  0  0  0  0  0  0
  181.3660  179.0470  141.6060 C   0  0  0  0  0  0  0  0  0  0  0  0
  183.6070  178.3770  142.2980 C   0  0  0  0  0  3  0  0  0  0  0  0
  181.0490  179.2800  142.9500 C   0  0  0  0  0  3  0  0  0  0  0  0
  183.2780  178.6290  143.6380 C   0  0  0  0  0  0  0  0  0  0  0  0
  182.6650  178.5650  141.2790 C   0  0  0  0  0  0  0  0  0  0  0  0
  183.1440  178.0660  139.6200 S   0  0  0  0  0  0  0  0  0  0  0  0
  188.0880  177.1980  145.9760 O   0  0  0  0  0  0  0  0  0  0  0  0
  189.1330  177.8940  146.6010 C   0  0  0  0  0  2  0  0  0  0  0  0
  190.1270  176.9260  147.2280 C   0  0  0  0  0  2  0  0  0  0  0  0
  191.3960  176.8370  146.3880 C   0  0  0  0  0  2  0  0  0  0  0  0
  192.2270  175.6270  146.7910 C   0  0  0  0  0  2  0  0  0  0  0  0
  192.4500  175.5880  148.2680 C   0  0  0  0  0  3  0  0  0  0  0  0
  193.1690  176.4840  148.8330 N   0  0  0  0  0  2  0  0  0  0  0  0
  1 20  1  6  0  0  0
  1 35  1  0  0  0  0
  2  1  1  0  0  0  0
  3  6  1  0  0  0  0
  3  4  1  0  0  0  0
  4  5  1  0  0  0  0
  5  2  2  0  0  0  0
  6  7  1  0  0  0  0
  7  8  1  6  0  0  0
  7  2  1  0  0  0  0
 10  8  1  0  0  0  0
 11  9  2  0  0  0  0
 11 10  1  0  0  0  0
 13 17  1  1  0  0  0
 13 12  1  0  0  0  0
 14 12  1  0  0  0  0
 14 11  1  1  0  0  0
 15 13  1  0  0  0  0
 15 16  1  0  0  0  0
 16 14  1  0  0  0  0
 17 19  1  0  0  0  0
 18 19  1  0  0  0  0
 20 21  1  0  0  0  0
 21 22  1  0  0  0  0
 23 29  1  0  0  0  0
 24 27  1  6  0  0  0
 24 23  1  0  0  0  0
 25 26  2  0  0  0  0
 25 24  1  0  0  0  0
 26 34  1  0  0  0  0
 29 31  1  0  0  0  0
 30 32  2  0  0  0  0
 31 28  2  0  0  0  0
 32 28  1  0  0  0  0
 32 22  1  0  0  0  0
 33 29  2  0  0  0  0
 33 30  1  0  0  0  0
 34 33  1  0  0  0  0
 35 36  1  0  0  0  0
 36 37  1  0  0  0  0
 38 39  1  0  0  0  0
 38 37  1  0  0  0  0
 39 40  1  0  0  0  0
 40 41  2  0  0  0  0
M  END
>  <MODEL>
4

>  <REMARK>
 VINA RESULT:      -6.6      2.278      7.258
  Name = 
  16 active torsions:
  status: ('A' for Active; 'I' for Inactive)
    1  A    between atoms: O_2  and  C_32
    2  A    between atoms: O_2  and  C_39
    3  A    between atoms: C_7  and  C_9
    4  A    between atoms: C_8  and  C_12
    5  A    between atoms: C_8  and  C_39
    6  A    between atoms: C_9  and  N_14
    7  A    between atoms: C_10  and  C_39
    8  A    between atoms: C_12  and  O_40
    9  A    between atoms: C_13  and  C_17
   10  A    between atoms: C_16  and  C_38
   11  A    between atoms: C_17  and  C_33
   12  A    between atoms: C_24  and  C_32
   13  A    between atoms: C_24  and  C_33
   14  A    between atoms: N_27  and  C_34
   15  A    between atoms: C_29  and  O_40
   16  A    between atoms: C_34  and  C_37
                            x       y       z     vdW  Elec       q    Type
                         _______ _______ _______ _____ _____    ______ ____

>  <TORSDO>
F 16

$$$$
=
 OpenBabel10222416513D

 41 44  0  0  1  0  0  0  0  0999 V2000
  188.2310  177.6250  138.9870 C   0  0  1  0  0  3  0  0  0  0  0  0
  188.1350  177.4250  137.4980 C   0  0  0  0  0  0  0  0  0  0  0  0
  188.0740  176.6190  134.7900 C   0  0  0  0  0  2  0  0  0  0  0  0
  189.1860  177.5200  135.3080 C   0  0  0  0  0  2  0  0  0  0  0  0
  189.1850  177.6020  136.7590 N   0  0  0  0  0  0  0  0  0  0  0  0
  186.7650  177.1100  135.3880 C   0  0  0  0  0  2  0  0  0  0  0  0
  186.8060  176.9930  136.9130 C   0  0  1  0  0  3  0  0  0  0  0  0
  186.5020  175.5630  137.3290 C   0  0  0  0  0  2  0  0  0  0  0  0
  185.2440  173.1160  137.9320 O   0  0  0  0  0  0  0  0  0  0  0  0
  185.2130  175.1520  136.7940 N   0  0  0  0  0  2  0  0  0  0  0  0
  184.6110  173.9200  137.1970 C   0  0  0  0  0  0  0  0  0  0  0  0
  182.2000  174.4140  137.4480 C   0  0  0  0  0  2  0  0  0  0  0  0
  180.8570  173.7450  137.2330 C   0  0  1  0  0  3  0  0  0  0  0  0
  183.2370  173.5840  136.7250 C   0  0  2  0  0  3  0  0  0  0  0  0
  181.1160  171.9430  137.1300 S   0  0  0  0  0  0  0  0  0  0  0  0
  182.9230  172.1240  136.9960 C   0  0  0  0  0  2  0  0  0  0  0  0
  179.9230  174.0780  138.3840 C   0  0  0  0  0  2  0  0  0  0  0  0
  179.7720  176.1200  139.4990 C   0  0  0  0  0  1  0  0  0  0  0  0
  180.5960  174.9360  139.3510 N   0  0  0  0  0  2  0  0  0  0  0  0
  189.6430  178.0050  139.4260 C   0  0  0  0  0  2  0  0  0  0  0  0
  190.2930  176.9040  140.2520 C   0  0  0  0  0  2  0  0  0  0  0  0
  191.0350  177.4660  141.3280 O   0  0  0  0  0  0  0  0  0  0  0  0
  189.4880  177.3580  146.7620 N   0  0  0  0  0  2  0  0  0  0  0  0
  188.1550  177.3950  147.3670 C   0  0  2  0  0  3  0  0  0  0  0  0
  187.3060  178.4470  146.7190 C   0  0  0  0  0  3  0  0  0  0  0  0
  186.8240  178.2620  145.4890 C   0  0  0  0  0  3  0  0  0  0  0  0
  188.2770  177.6900  148.7810 N   0  0  0  0  0  1  0  0  0  0  0  0
  191.5620  177.5000  143.6770 C   0  0  0  0  0  3  0  0  0  0  0  0
  189.8220  177.2750  145.3640 C   0  0  0  0  0  0  0  0  0  0  0  0
  189.2630  177.1900  142.9910 C   0  0  0  0  0  3  0  0  0  0  0  0
  191.1660  177.4540  145.0140 C   0  0  0  0  0  3  0  0  0  0  0  0
  190.6120  177.3840  142.6580 C   0  0  0  0  0  0  0  0  0  0  0  0
  188.8570  177.1180  144.3300 C   0  0  0  0  0  0  0  0  0  0  0  0
  187.1340  176.7130  144.6410 S   0  0  0  0  0  0  0  0  0  0  0  0
  187.3280  178.6210  139.3810 O   0  0  0  0  0  0  0  0  0  0  0  0
  186.9720  178.3080  140.7010 C   0  0  0  0  0  2  0  0  0  0  0  0
  185.6940  179.0320  141.1020 C   0  0  0  0  0  2  0  0  0  0  0  0
  185.0010  178.3100  142.2510 C   0  0  0  0  0  2  0  0  0  0  0  0
  183.7690  179.0780  142.7080 C   0  0  0  0  0  2  0  0  0  0  0  0
  183.2830  178.5880  144.0330 C   0  0  0  0  0  3  0  0  0  0  0  0
  183.5510  179.2450  145.0980 N   0  0  0  0  0  2  0  0  0  0  0  0
  1 35  1  0  0  0  0
  1 20  1  6  0  0  0
  2  1  1  0  0  0  0
  3  4  1  0  0  0  0
  3  6  1  0  0  0  0
  4  5  1  0  0  0  0
  5  2  2  0  0  0  0
  6  7  1  0  0  0  0
  7  8  1  6  0  0  0
  7  2  1  0  0  0  0
 10 11  1  0  0  0  0
 10  8  1  0  0  0  0
 11  9  2  0  0  0  0
 13 12  1  0  0  0  0
 13 17  1  1  0  0  0
 14 16  1  0  0  0  0
 14 11  1  1  0  0  0
 14 12  1  0  0  0  0
 15 13  1  0  0  0  0
 16 15  1  0  0  0  0
 17 19  1  0  0  0  0
 19 18  1  0  0  0  0
 20 21  1  0  0  0  0
 21 22  1  0  0  0  0
 22 32  1  0  0  0  0
 23 24  1  0  0  0  0
 24 27  1  1  0  0  0
 25 24  1  0  0  0  0
 26 25  2  0  0  0  0
 28 31  1  0  0  0  0
 29 23  1  0  0  0  0
 30 33  2  0  0  0  0
 31 29  2  0  0  0  0
 32 30  1  0  0  0  0
 32 28  2  0  0  0  0
 33 34  1  0  0  0  0
 33 29  1  0  0  0  0
 34 26  1  0  0  0  0
 35 36  1  0  0  0  0
 36 37  1  0  0  0  0
 37 38  1  0  0  0  0
 38 39  1  0  0  0  0
 39 40  1  0  0  0  0
 40 41  2  0  0  0  0
M  END
>  <MODEL>
5

>  <REMARK>
 VINA RESULT:      -6.5      3.067      6.423
  Name = 
  16 active torsions:
  status: ('A' for Active; 'I' for Inactive)
    1  A    between atoms: O_2  and  C_32
    2  A    between atoms: O_2  and  C_39
    3  A    between atoms: C_7  and  C_9
    4  A    between atoms: C_8  and  C_12
    5  A    between atoms: C_8  and  C_39
    6  A    between atoms: C_9  and  N_14
    7  A    between atoms: C_10  and  C_39
    8  A    between atoms: C_12  and  O_40
    9  A    between atoms: C_13  and  C_17
   10  A    between atoms: C_16  and  C_38
   11  A    between atoms: C_17  and  C_33
   12  A    between atoms: C_24  and  C_32
   13  A    between atoms: C_24  and  C_33
   14  A    between atoms: N_27  and  C_34
   15  A    between atoms: C_29  and  O_40
   16  A    between atoms: C_34  and  C_37
                            x       y       z     vdW  Elec       q    Type
                         _______ _______ _______ _____ _____    ______ ____

>  <TORSDO>
F 16

$$$$
=
 OpenBabel10222416513D

 41 44  0  0  1  0  0  0  0  0999 V2000
  186.9700  177.9110  143.8700 C   0  0  1  0  0  3  0  0  0  0  0  0
  188.2670  177.4060  143.2980 C   0  0  0  0  0  0  0  0  0  0  0  0
  190.4530  176.3420  141.8580 C   0  0  0  0  0  2  0  0  0  0  0  0
  189.8860  175.6080  143.0650 C   0  0  0  0  0  2  0  0  0  0  0  0
  188.6200  176.1760  143.4980 N   0  0  0  0  0  0  0  0  0  0  0  0
  190.5170  177.8210  142.2030 C   0  0  0  0  0  2  0  0  0  0  0  0
  189.1100  178.3590  142.4740 C   0  0  1  0  0  3  0  0  0  0  0  0
  188.4100  178.6590  141.1580 C   0  0  0  0  0  2  0  0  0  0  0  0
  188.7810  179.3840  138.4620 O   0  0  0  0  0  0  0  0  0  0  0  0
  188.8830  177.7510  140.1240 N   0  0  0  0  0  2  0  0  0  0  0  0
  189.1060  178.2120  138.7900 C   0  0  0  0  0  0  0  0  0  0  0  0
  188.6830  176.8900  136.7420 C   0  0  0  0  0  2  0  0  0  0  0  0
  189.2230  175.6690  136.0260 C   0  0  1  0  0  3  0  0  0  0  0  0
  189.7050  177.2890  137.7830 C   0  0  2  0  0  3  0  0  0  0  0  0
  190.2010  174.6850  137.2110 S   0  0  0  0  0  0  0  0  0  0  0  0
  190.1980  176.0190  138.4510 C   0  0  0  0  0  2  0  0  0  0  0  0
  188.0730  174.8410  135.4770 C   0  0  0  0  0  2  0  0  0  0  0  0
  186.2300  174.2800  136.7880 C   0  0  0  0  0  1  0  0  0  0  0  0
  186.8010  175.3400  135.9820 N   0  0  0  0  0  2  0  0  0  0  0  0
  185.8370  177.8730  142.8470 C   0  0  0  0  0  2  0  0  0  0  0  0
  185.1620  179.2300  142.7020 C   0  0  0  0  0  2  0  0  0  0  0  0
  185.2010  179.6570  141.3450 O   0  0  0  0  0  0  0  0  0  0  0  0
  182.9850  176.5850  137.1520 N   0  0  0  0  0  2  0  0  0  0  0  0
  181.7140  175.8600  137.0800 C   0  0  2  0  0  3  0  0  0  0  0  0
  181.4800  175.0730  138.3340 C   0  0  0  0  0  3  0  0  0  0  0  0
  181.1470  175.6930  139.4660 C   0  0  0  0  0  3  0  0  0  0  0  0
  181.7440  174.9520  135.9500 N   0  0  0  0  0  1  0  0  0  0  0  0
  185.3510  178.6170  139.1790 C   0  0  0  0  0  3  0  0  0  0  0  0
  183.4520  177.4470  138.2060 C   0  0  0  0  0  0  0  0  0  0  0  0
  183.2550  178.5310  140.3820 C   0  0  0  0  0  3  0  0  0  0  0  0
  184.7850  177.8720  138.1440 C   0  0  0  0  0  3  0  0  0  0  0  0
  184.5960  178.9370  140.3100 C   0  0  0  0  0  0  0  0  0  0  0  0
  182.6680  177.8040  139.3390 C   0  0  0  0  0  0  0  0  0  0  0  0
  180.9060  177.4700  139.4660 S   0  0  0  0  0  0  0  0  0  0  0  0
  186.6240  177.1410  144.9890 O   0  0  0  0  0  0  0  0  0  0  0  0
  186.6010  178.0330  146.0700 C   0  0  0  0  0  2  0  0  0  0  0  0
  187.9960  178.2090  146.6560 C   0  0  0  0  0  2  0  0  0  0  0  0
  188.4880  176.9080  147.2790 C   0  0  0  0  0  2  0  0  0  0  0  0
  189.9760  176.9860  147.5890 C   0  0  0  0  0  2  0  0  0  0  0  0
  190.7850  177.1330  146.3410 C   0  0  0  0  0  3  0  0  0  0  0  0
  191.7700  176.3460  146.1180 N   0  0  0  0  0  2  0  0  0  0  0  0
  1 20  1  6  0  0  0
  1 35  1  0  0  0  0
  2  5  2  0  0  0  0
  2  1  1  0  0  0  0
  3  6  1  0  0  0  0
  3  4  1  0  0  0  0
  4  5  1  0  0  0  0
  6  7  1  0  0  0  0
  7  8  1  6  0  0  0
  7  2  1  0  0  0  0
  9 11  2  0  0  0  0
 10  8  1  0  0  0  0
 11 10  1  0  0  0  0
 12 14  1  0  0  0  0
 13 17  1  1  0  0  0
 13 12  1  0  0  0  0
 13 15  1  0  0  0  0
 14 16  1  0  0  0  0
 14 11  1  1  0  0  0
 15 16  1  0  0  0  0
 17 19  1  0  0  0  0
 19 18  1  0  0  0  0
 21 20  1  0  0  0  0
 22 21  1  0  0  0  0
 23 29  1  0  0  0  0
 24 27  1  6  0  0  0
 24 23  1  0  0  0  0
 24 25  1  0  0  0  0
 25 26  2  0  0  0  0
 26 34  1  0  0  0  0
 28 32  1  0  0  0  0
 29 33  2  0  0  0  0
 31 29  1  0  0  0  0
 31 28  2  0  0  0  0
 32 30  2  0  0  0  0
 32 22  1  0  0  0  0
 33 34  1  0  0  0  0
 33 30  1  0  0  0  0
 35 36  1  0  0  0  0
 36 37  1  0  0  0  0
 37 38  1  0  0  0  0
 38 39  1  0  0  0  0
 40 39  1  0  0  0  0
 41 40  2  0  0  0  0
M  END
>  <MODEL>
6

>  <REMARK>
 VINA RESULT:      -6.5      2.465      7.475
  Name = 
  16 active torsions:
  status: ('A' for Active; 'I' for Inactive)
    1  A    between atoms: O_2  and  C_32
    2  A    between atoms: O_2  and  C_39
    3  A    between atoms: C_7  and  C_9
    4  A    between atoms: C_8  and  C_12
    5  A    between atoms: C_8  and  C_39
    6  A    between atoms: C_9  and  N_14
    7  A    between atoms: C_10  and  C_39
    8  A    between atoms: C_12  and  O_40
    9  A    between atoms: C_13  and  C_17
   10  A    between atoms: C_16  and  C_38
   11  A    between atoms: C_17  and  C_33
   12  A    between atoms: C_24  and  C_32
   13  A    between atoms: C_24  and  C_33
   14  A    between atoms: N_27  and  C_34
   15  A    between atoms: C_29  and  O_40
   16  A    between atoms: C_34  and  C_37
                            x       y       z     vdW  Elec       q    Type
                         _______ _______ _______ _____ _____    ______ ____

>  <TORSDO>
F 16

$$$$
=
 OpenBabel10222416513D

 41 44  0  0  1  0  0  0  0  0999 V2000
  189.1870  177.7910  144.1090 C   0  0  1  0  0  3  0  0  0  0  0  0
  188.8380  177.7410  145.5710 C   0  0  0  0  0  0  0  0  0  0  0  0
  188.0970  178.0920  148.2760 C   0  0  0  0  0  2  0  0  0  0  0  0
  189.5510  177.8600  147.8930 C   0  0  0  0  0  2  0  0  0  0  0  0
  189.7560  177.9650  146.4580 N   0  0  0  0  0  0  0  0  0  0  0  0
  187.2430  177.1420  147.4500 C   0  0  0  0  0  2  0  0  0  0  0  0
  187.4030  177.4520  145.9600 C   0  0  1  0  0  3  0  0  0  0  0  0
  186.5210  178.6320  145.5820 C   0  0  0  0  0  2  0  0  0  0  0  0
  184.9090  180.2080  143.8930 O   0  0  0  0  0  0  0  0  0  0  0  0
  185.3070  178.1590  144.9340 N   0  0  0  0  0  2  0  0  0  0  0  0
  184.5770  179.0010  144.0410 C   0  0  0  0  0  0  0  0  0  0  0  0
  183.6090  178.5680  141.8050 C   0  0  0  0  0  2  0  0  0  0  0  0
  182.2550  178.3850  141.1510 C   0  0  1  0  0  3  0  0  0  0  0  0
  183.4060  178.4490  143.2990 C   0  0  2  0  0  3  0  0  0  0  0  0
  180.9760  179.0600  142.2620 S   0  0  0  0  0  0  0  0  0  0  0  0
  182.1440  179.2140  143.6510 C   0  0  0  0  0  2  0  0  0  0  0  0
  182.2250  179.1060  139.8140 C   0  0  0  0  0  2  0  0  0  0  0  0
  181.7000  176.8900  139.3180 C   0  0  0  0  0  1  0  0  0  0  0  0
  181.6800  178.2360  138.7800 N   0  0  0  0  0  2  0  0  0  0  0  0
  190.6950  177.8710  143.8800 C   0  0  0  0  0  2  0  0  0  0  0  0
  191.1390  176.9830  142.7260 C   0  0  0  0  0  2  0  0  0  0  0  0
  191.6790  177.7740  141.6740 O   0  0  0  0  0  0  0  0  0  0  0  0
  192.7820  175.6010  136.5760 N   0  0  0  0  0  2  0  0  0  0  0  0
  191.9290  174.8200  135.6760 C   0  0  2  0  0  3  0  0  0  0  0  0
  191.2010  173.7490  136.4290 C   0  0  0  0  0  3  0  0  0  0  0  0
  190.1870  174.0640  137.2360 C   0  0  0  0  0  3  0  0  0  0  0  0
  192.7510  174.2030  134.6520 N   0  0  0  0  0  1  0  0  0  0  0  0
  193.1950  177.2780  139.8700 C   0  0  0  0  0  3  0  0  0  0  0  0
  192.4140  176.2270  137.8180 C   0  0  0  0  0  0  0  0  0  0  0  0
  190.8460  176.7610  139.6090 C   0  0  0  0  0  3  0  0  0  0  0  0
  193.4480  176.7520  138.6030 C   0  0  0  0  0  3  0  0  0  0  0  0
  191.8970  177.2700  140.3880 C   0  0  0  0  0  0  0  0  0  0  0  0
  191.0850  176.2540  138.3260 C   0  0  0  0  0  0  0  0  0  0  0  0
  189.6490  175.7710  137.3590 S   0  0  0  0  0  0  0  0  0  0  0  0
  188.6710  176.6570  143.4680 O   0  0  0  0  0  0  0  0  0  0  0  0
  187.6260  177.1230  142.6570 C   0  0  0  0  0  2  0  0  0  0  0  0
  188.1210  178.2010  141.7030 C   0  0  0  0  0  2  0  0  0  0  0  0
  187.0540  178.5380  140.6680 C   0  0  0  0  0  2  0  0  0  0  0  0
  187.5720  178.2920  139.2580 C   0  0  0  0  0  2  0  0  0  0  0  0
  186.4530  178.0110  138.3090 C   0  0  0  0  0  3  0  0  0  0  0  0
  185.4700  178.8250  138.2160 N   0  0  0  0  0  2  0  0  0  0  0  0
  1 20  1  1  0  0  0
  1  2  1  0  0  0  0
  2  7  1  0  0  0  0
  2  5  2  0  0  0  0
  4  3  1  0  0  0  0
  5  4  1  0  0  0  0
  6  3  1  0  0  0  0
  7  8  1  1  0  0  0
  7  6  1  0  0  0  0
  9 11  2  0  0  0  0
 10  8  1  0  0  0  0
 11 10  1  0  0  0  0
 12 14  1  0  0  0  0
 13 17  1  6  0  0  0
 13 12  1  0  0  0  0
 13 15  1  0  0  0  0
 14 16  1  0  0  0  0
 14 11  1  1  0  0  0
 15 16  1  0  0  0  0
 19 18  1  0  0  0  0
 19 17  1  0  0  0  0
 21 20  1  0  0  0  0
 22 21  1  0  0  0  0
 23 29  1  0  0  0  0
 24 27  1  6  0  0  0
 24 25  1  0  0  0  0
 24 23  1  0  0  0  0
 25 26  2  0  0  0  0
 26 34  1  0  0  0  0
 28 32  1  0  0  0  0
 29 33  2  0  0  0  0
 29 31  1  0  0  0  0
 30 32  2  0  0  0  0
 31 28  2  0  0  0  0
 32 22  1  0  0  0  0
 33 30  1  0  0  0  0
 34 33  1  0  0  0  0
 35  1  1  0  0  0  0
 36 35  1  0  0  0  0
 37 36  1  0  0  0  0
 38 37  1  0  0  0  0
 39 38  1  0  0  0  0
 40 39  1  0  0  0  0
 41 40  2  0  0  0  0
M  END
>  <MODEL>
7

>  <REMARK>
 VINA RESULT:      -6.5      2.558      8.125
  Name = 
  16 active torsions:
  status: ('A' for Active; 'I' for Inactive)
    1  A    between atoms: O_2  and  C_32
    2  A    between atoms: O_2  and  C_39
    3  A    between atoms: C_7  and  C_9
    4  A    between atoms: C_8  and  C_12
    5  A    between atoms: C_8  and  C_39
    6  A    between atoms: C_9  and  N_14
    7  A    between atoms: C_10  and  C_39
    8  A    between atoms: C_12  and  O_40
    9  A    between atoms: C_13  and  C_17
   10  A    between atoms: C_16  and  C_38
   11  A    between atoms: C_17  and  C_33
   12  A    between atoms: C_24  and  C_32
   13  A    between atoms: C_24  and  C_33
   14  A    between atoms: N_27  and  C_34
   15  A    between atoms: C_29  and  O_40
   16  A    between atoms: C_34  and  C_37
                            x       y       z     vdW  Elec       q    Type
                         _______ _______ _______ _____ _____    ______ ____

>  <TORSDO>
F 16

$$$$
=
 OpenBabel10222416513D

 41 44  0  0  1  0  0  0  0  0999 V2000
  183.9090  177.9870  140.6570 C   0  0  1  0  0  3  0  0  0  0  0  0
  182.8750  178.1380  139.5740 C   0  0  0  0  0  0  0  0  0  0  0  0
  181.2400  178.2180  137.2710 C   0  0  0  0  0  2  0  0  0  0  0  0
  181.8740  179.4890  137.8180 C   0  0  0  0  0  2  0  0  0  0  0  0
  182.8740  179.2010  138.8330 N   0  0  0  0  0  0  0  0  0  0  0  0
  180.7200  177.4150  138.4520 C   0  0  0  0  0  2  0  0  0  0  0  0
  181.8780  177.0170  139.3690 C   0  0  1  0  0  3  0  0  0  0  0  0
  182.5860  175.7960  138.8040 C   0  0  0  0  0  2  0  0  0  0  0  0
  184.4030  174.0150  137.5960 O   0  0  0  0  0  0  0  0  0  0  0  0
  183.7160  176.2090  137.9850 N   0  0  0  0  0  2  0  0  0  0  0  0
  184.5570  175.2420  137.3550 C   0  0  0  0  0  0  0  0  0  0  0  0
  186.9570  175.8060  137.1460 C   0  0  0  0  0  2  0  0  0  0  0  0
  187.8730  176.6450  136.2780 C   0  0  1  0  0  3  0  0  0  0  0  0
  185.6320  175.6950  136.4250 C   0  0  2  0  0  3  0  0  0  0  0  0
  186.8640  177.8780  135.3900 S   0  0  0  0  0  0  0  0  0  0  0  0
  185.3040  177.0640  135.8580 C   0  0  0  0  0  2  0  0  0  0  0  0
  188.9120  177.3380  137.1430 C   0  0  0  0  0  2  0  0  0  0  0  0
  189.1290  178.6200  139.0770 C   0  0  0  0  0  1  0  0  0  0  0  0
  188.3000  178.4180  137.9050 N   0  0  0  0  0  2  0  0  0  0  0  0
  184.7500  179.2500  140.8290 C   0  0  0  0  0  2  0  0  0  0  0  0
  186.1460  178.9320  141.3460 C   0  0  0  0  0  2  0  0  0  0  0  0
  186.0780  177.9750  142.3960 O   0  0  0  0  0  0  0  0  0  0  0  0
  189.9530  177.2730  146.4480 N   0  0  0  0  0  2  0  0  0  0  0  0
  191.3960  177.0400  146.3470 C   0  0  2  0  0  3  0  0  0  0  0  0
  191.6960  176.0030  145.3070 C   0  0  0  0  0  3  0  0  0  0  0  0
  191.5770  176.2940  144.0110 C   0  0  0  0  0  3  0  0  0  0  0  0
  191.9000  176.5860  147.6280 N   0  0  0  0  0  1  0  0  0  0  0  0
  186.6940  177.7010  144.7080 C   0  0  0  0  0  3  0  0  0  0  0  0
  189.0280  177.5570  145.3830 C   0  0  0  0  0  0  0  0  0  0  0  0
  188.4360  177.8830  143.0390 C   0  0  0  0  0  3  0  0  0  0  0  0
  187.6630  177.5450  145.6990 C   0  0  0  0  0  3  0  0  0  0  0  0
  187.0730  177.8540  143.3710 C   0  0  0  0  0  0  0  0  0  0  0  0
  189.4190  177.7520  144.0280 C   0  0  0  0  0  0  0  0  0  0  0  0
  191.1280  177.9570  143.5140 S   0  0  0  0  0  0  0  0  0  0  0  0
  183.2740  177.6740  141.8660 O   0  0  0  0  0  0  0  0  0  0  0  0
  182.7160  178.8750  142.3240 C   0  0  0  0  0  2  0  0  0  0  0  0
  182.3470  178.7730  143.7980 C   0  0  0  0  0  2  0  0  0  0  0  0
  180.8370  178.6630  143.9700 C   0  0  0  0  0  2  0  0  0  0  0  0
  180.1470  178.5280  142.6200 C   0  0  0  0  0  2  0  0  0  0  0  0
  179.2220  179.6730  142.3650 C   0  0  0  0  0  3  0  0  0  0  0  0
  179.6740  180.8700  142.3330 N   0  0  0  0  0  2  0  0  0  0  0  0
  1 20  1  1  0  0  0
  1 35  1  0  0  0  0
  2  1  1  0  0  0  0
  3  4  1  0  0  0  0
  3  6  1  0  0  0  0
  4  5  1  0  0  0  0
  5  2  2  0  0  0  0
  6  7  1  0  0  0  0
  7  8  1  6  0  0  0
  7  2  1  0  0  0  0
 10  8  1  0  0  0  0
 11  9  2  0  0  0  0
 11 10  1  0  0  0  0
 13 17  1  1  0  0  0
 13 12  1  0  0  0  0
 14 12  1  0  0  0  0
 14 11  1  1  0  0  0
 15 16  1  0  0  0  0
 15 13  1  0  0  0  0
 16 14  1  0  0  0  0
 17 19  1  0  0  0  0
 19 18  1  0  0  0  0
 20 21  1  0  0  0  0
 21 22  1  0  0  0  0
 22 32  1  0  0  0  0
 24 23  1  0  0  0  0
 24 27  1  1  0  0  0
 25 24  1  0  0  0  0
 26 25  2  0  0  0  0
 28 31  1  0  0  0  0
 29 31  2  0  0  0  0
 29 23  1  0  0  0  0
 30 32  1  0  0  0  0
 30 33  2  0  0  0  0
 32 28  2  0  0  0  0
 33 29  1  0  0  0  0
 34 26  1  0  0  0  0
 34 33  1  0  0  0  0
 35 36  1  0  0  0  0
 36 37  1  0  0  0  0
 37 38  1  0  0  0  0
 39 38  1  0  0  0  0
 40 39  1  0  0  0  0
 41 40  2  0  0  0  0
M  END
>  <MODEL>
8

>  <REMARK>
 VINA RESULT:      -6.5      2.066      4.309
  Name = 
  16 active torsions:
  status: ('A' for Active; 'I' for Inactive)
    1  A    between atoms: O_2  and  C_32
    2  A    between atoms: O_2  and  C_39
    3  A    between atoms: C_7  and  C_9
    4  A    between atoms: C_8  and  C_12
    5  A    between atoms: C_8  and  C_39
    6  A    between atoms: C_9  and  N_14
    7  A    between atoms: C_10  and  C_39
    8  A    between atoms: C_12  and  O_40
    9  A    between atoms: C_13  and  C_17
   10  A    between atoms: C_16  and  C_38
   11  A    between atoms: C_17  and  C_33
   12  A    between atoms: C_24  and  C_32
   13  A    between atoms: C_24  and  C_33
   14  A    between atoms: N_27  and  C_34
   15  A    between atoms: C_29  and  O_40
   16  A    between atoms: C_34  and  C_37
                            x       y       z     vdW  Elec       q    Type
                         _______ _______ _______ _____ _____    ______ ____

>  <TORSDO>
F 16

$$$$
=
 OpenBabel10222416513D

 41 44  0  0  1  0  0  0  0  0999 V2000
  186.7580  178.0690  143.6150 C   0  0  1  0  0  3  0  0  0  0  0  0
  188.0870  177.5210  143.1700 C   0  0  0  0  0  0  0  0  0  0  0  0
  190.3790  176.4250  141.9310 C   0  0  0  0  0  2  0  0  0  0  0  0
  189.6100  175.6350  142.9810 C   0  0  0  0  0  2  0  0  0  0  0  0
  188.3340  176.2560  143.2980 N   0  0  0  0  0  0  0  0  0  0  0  0
  190.4850  177.8620  142.4180 C   0  0  0  0  0  2  0  0  0  0  0  0
  189.0900  178.4760  142.5550 C   0  0  1  0  0  3  0  0  0  0  0  0
  188.5940  178.9360  141.1940 C   0  0  0  0  0  2  0  0  0  0  0  0
  189.0540  179.3340  138.4440 O   0  0  0  0  0  0  0  0  0  0  0  0
  188.7310  177.8610  140.2230 N   0  0  0  0  0  2  0  0  0  0  0  0
  189.0260  178.1430  138.8540 C   0  0  0  0  0  0  0  0  0  0  0  0
  190.6660  176.4440  138.1120 C   0  0  0  0  0  2  0  0  0  0  0  0
  190.9970  175.6210  136.8840 C   0  0  1  0  0  3  0  0  0  0  0  0
  189.2800  177.0170  137.9090 C   0  0  2  0  0  3  0  0  0  0  0  0
  190.1990  176.3910  135.4360 S   0  0  0  0  0  0  0  0  0  0  0  0
  189.1900  177.4970  136.4720 C   0  0  0  0  0  2  0  0  0  0  0  0
  192.5030  175.5670  136.6890 C   0  0  0  0  0  2  0  0  0  0  0  0
  194.3480  174.9830  137.9890 C   0  0  0  0  0  1  0  0  0  0  0  0
  193.1880  175.8510  137.9430 N   0  0  0  0  0  2  0  0  0  0  0  0
  185.6740  177.8770  142.5570 C   0  0  0  0  0  2  0  0  0  0  0  0
  185.0540  179.2030  142.1390 C   0  0  0  0  0  2  0  0  0  0  0  0
  185.2750  179.4360  140.7530 O   0  0  0  0  0  0  0  0  0  0  0  0
  181.7240  177.8280  136.6610 N   0  0  0  0  0  2  0  0  0  0  0  0
  181.8910  176.8280  135.6030 C   0  0  2  0  0  3  0  0  0  0  0  0
  183.2340  176.9610  134.9520 C   0  0  0  0  0  3  0  0  0  0  0  0
  184.3360  176.5720  135.5950 C   0  0  0  0  0  3  0  0  0  0  0  0
  180.8590  177.0130  134.6010 N   0  0  0  0  0  1  0  0  0  0  0  0
  183.2170  179.6740  139.5240 C   0  0  0  0  0  3  0  0  0  0  0  0
  182.6200  178.1200  137.7490 C   0  0  0  0  0  0  0  0  0  0  0  0
  184.6890  177.8250  139.0080 C   0  0  0  0  0  3  0  0  0  0  0  0
  182.3430  179.2550  138.5210 C   0  0  0  0  0  3  0  0  0  0  0  0
  184.4020  178.9730  139.7620 C   0  0  0  0  0  0  0  0  0  0  0  0
  183.8070  177.3810  138.0150 C   0  0  0  0  0  0  0  0  0  0  0  0
  184.1960  175.8180  137.2170 S   0  0  0  0  0  0  0  0  0  0  0  0
  186.3720  177.4410  144.8070 O   0  0  0  0  0  0  0  0  0  0  0  0
  186.7760  178.3020  145.8370 C   0  0  0  0  0  2  0  0  0  0  0  0
  187.6190  177.5590  146.8640 C   0  0  0  0  0  2  0  0  0  0  0  0
  189.1040  177.7240  146.5640 C   0  0  0  0  0  2  0  0  0  0  0  0
  189.9310  176.7240  147.3610 C   0  0  0  0  0  2  0  0  0  0  0  0
  191.2610  176.4870  146.7230 C   0  0  0  0  0  3  0  0  0  0  0  0
  191.6310  177.1990  145.7250 N   0  0  0  0  0  2  0  0  0  0  0  0
  1 20  1  6  0  0  0
  1 35  1  0  0  0  0
  2  5  2  0  0  0  0
  2  1  1  0  0  0  0
  3  6  1  0  0  0  0
  3  4  1  0  0  0  0
  4  5  1  0  0  0  0
  6  7  1  0  0  0  0
  7  8  1  6  0  0  0
  7  2  1  0  0  0  0
  9 11  2  0  0  0  0
 10  8  1  0  0  0  0
 11 10  1  0  0  0  0
 13 17  1  6  0  0  0
 13 12  1  0  0  0  0
 14 12  1  0  0  0  0
 14 11  1  1  0  0  0
 15 16  1  0  0  0  0
 15 13  1  0  0  0  0
 16 14  1  0  0  0  0
 17 19  1  0  0  0  0
 19 18  1  0  0  0  0
 21 20  1  0  0  0  0
 22 21  1  0  0  0  0
 23 29  1  0  0  0  0
 24 27  1  6  0  0  0
 24 23  1  0  0  0  0
 25 26  2  0  0  0  0
 25 24  1  0  0  0  0
 26 34  1  0  0  0  0
 28 32  1  0  0  0  0
 29 33  2  0  0  0  0
 29 31  1  0  0  0  0
 30 32  2  0  0  0  0
 31 28  2  0  0  0  0
 32 22  1  0  0  0  0
 33 30  1  0  0  0  0
 34 33  1  0  0  0  0
 35 36  1  0  0  0  0
 36 37  1  0  0  0  0
 38 37  1  0  0  0  0
 38 39  1  0  0  0  0
 40 39  1  0  0  0  0
 41 40  2  0  0  0  0
M  END
>  <MODEL>
9

>  <REMARK>
 VINA RESULT:      -6.5      2.524      7.671
  Name = 
  16 active torsions:
  status: ('A' for Active; 'I' for Inactive)
    1  A    between atoms: O_2  and  C_32
    2  A    between atoms: O_2  and  C_39
    3  A    between atoms: C_7  and  C_9
    4  A    between atoms: C_8  and  C_12
    5  A    between atoms: C_8  and  C_39
    6  A    between atoms: C_9  and  N_14
    7  A    between atoms: C_10  and  C_39
    8  A    between atoms: C_12  and  O_40
    9  A    between atoms: C_13  and  C_17
   10  A    between atoms: C_16  and  C_38
   11  A    between atoms: C_17  and  C_33
   12  A    between atoms: C_24  and  C_32
   13  A    between atoms: C_24  and  C_33
   14  A    between atoms: N_27  and  C_34
   15  A    between atoms: C_29  and  O_40
   16  A    between atoms: C_34  and  C_37
                            x       y       z     vdW  Elec       q    Type
                         _______ _______ _______ _____ _____    ______ ____

>  <TORSDO>
F 16

$$$$
