=
 OpenBabel10222419373D

 39 42  0  0  1  0  0  0  0  0999 V2000
  188.9500  176.6060  135.2810 C   0  0  0  0  0  2  0  0  0  0  0  0
  192.2370  176.6570  137.7430 N   0  0  0  0  0  0  0  0  0  0  0  0
  189.9580  175.4820  135.1380 C   0  0  0  0  0  2  0  0  0  0  0  0
  189.8590  177.1070  137.5960 C   0  0  1  0  0  3  0  0  0  0  0  0
  191.1370  176.4890  137.0690 C   0  0  0  0  0  0  0  0  0  0  0  0
  188.6100  176.7570  136.7620 C   0  0  1  0  0  3  0  0  0  0  0  0
  191.1500  175.8080  135.8440 O   0  0  0  0  0  0  0  0  0  0  0  0
  194.0140  174.9660  137.9920 N   0  0  0  0  0  2  0  0  0  0  0  0
  193.5360  176.1660  137.3830 C   0  0  0  0  0  0  0  0  0  0  0  0
  194.2530  176.7760  136.5430 O   0  0  0  0  0  0  0  0  0  0  0  0
  196.0690  174.1520  138.9790 C   0  0  0  0  0  2  0  0  0  0  0  0
  195.4090  173.0060  138.2420 C   0  0  0  0  0  2  0  0  0  0  0  0
  195.3230  174.4120  137.6860 C   0  0  0  0  0  3  0  0  0  0  0  0
  189.3710  178.8690  139.7840 O   0  0  0  0  0  0  0  0  0  0  0  0
  189.6430  176.6970  138.9780 N   0  0  0  0  0  2  0  0  0  0  0  0
  189.4250  177.6340  140.0370 C   0  0  0  0  0  0  0  0  0  0  0  0
  189.2500  177.1490  141.4200 C   0  0  0  0  0  0  0  0  0  0  0  0
  190.1310  176.2710  141.9200 C   0  0  0  0  0  3  0  0  0  0  0  0
  188.2540  178.1280  143.5190 C   0  0  0  0  0  2  0  0  0  0  0  0
  187.9910  177.5230  142.1520 C   0  0  0  0  0  2  0  0  0  0  0  0
  188.5790  177.0250  144.5080 C   0  0  2  0  0  3  0  0  0  0  0  0
  188.3450  177.5370  145.9140 C   0  0  0  0  0  1  0  0  0  0  0  0
  189.9740  176.6380  144.3700 N   0  0  0  0  0  2  0  0  0  0  0  0
  190.0940  175.7790  143.2640 N   0  0  0  0  0  2  0  0  0  0  0  0
  188.0490  179.0720  137.2150 O   0  0  0  0  0  1  0  0  0  0  0  0
  187.5070  177.8130  136.9380 C   0  0  2  0  0  3  0  0  0  0  0  0
  186.5100  177.4330  138.0330 C   0  0  0  0  0  2  0  0  0  0  0  0
  185.5610  178.5790  138.3580 C   0  0  0  0  0  2  0  0  0  0  0  0
  185.5190  178.7900  139.7950 N   0  0  0  0  0  2  0  0  0  0  0  0
  184.3450  178.9020  143.8650 C   0  0  0  0  0  0  0  0  0  0  0  0
  182.9150  178.9010  144.3150 C   0  0  0  0  0  2  0  0  0  0  0  0
  184.1670  178.7910  140.1680 N   0  0  0  0  0  2  0  0  0  0  0  0
  181.9500  178.8630  143.1630 C   0  0  0  0  0  3  0  0  0  0  0  0
  182.3370  178.8280  141.8790 C   0  0  0  0  0  0  0  0  0  0  0  0
  183.7740  178.8280  141.5400 C   0  0  0  0  0  0  0  0  0  0  0  0
  184.6790  178.8630  142.4730 N   0  0  0  0  0  0  0  0  0  0  0  0
  185.2650  178.9350  144.7240 O   0  0  0  0  0  0  0  0  0  0  0  0
  180.2240  177.9920  140.8810 C   0  0  0  0  0  1  0  0  0  0  0  0
  181.3980  178.7930  140.8410 O   0  0  0  0  0  0  0  0  0  0  0  0
  1  6  1  0  0  0  0
  3  1  1  0  0  0  0
  3  7  1  0  0  0  0
  4 15  1  1  0  0  0
  5  4  1  0  0  0  0
  5  2  2  0  0  0  0
  6 26  1  6  0  0  0
  6  4  1  0  0  0  0
  7  5  1  0  0  0  0
  9  2  1  0  0  0  0
  9  8  1  0  0  0  0
 10  9  2  0  0  0  0
 12 11  1  0  0  0  0
 13  8  1  0  0  0  0
 13 12  1  0  0  0  0
 13 11  1  0  0  0  0
 14 16  2  0  0  0  0
 15 16  1  0  0  0  0
 16 17  1  0  0  0  0
 17 18  2  0  0  0  0
 17 20  1  0  0  0  0
 18 24  1  0  0  0  0
 19 21  1  0  0  0  0
 20 19  1  0  0  0  0
 21 22  1  1  0  0  0
 23 21  1  0  0  0  0
 24 23  1  0  0  0  0
 26 25  1  1  0  0  0
 26 27  1  0  0  0  0
 27 28  1  0  0  0  0
 28 29  1  0  0  0  0
 29 32  1  0  0  0  0
 30 31  1  0  0  0  0
 30 37  2  0  0  0  0
 32 35  1  0  0  0  0
 33 31  1  0  0  0  0
 34 33  2  0  0  0  0
 35 34  1  0  0  0  0
 35 36  2  0  0  0  0
 36 30  1  0  0  0  0
 39 38  1  0  0  0  0
 39 34  1  0  0  0  0
M  END
>  <MODEL>
1

>  <REMARK>
 VINA RESULT:      -7.9      0.000      0.000
  Name = 
  10 active torsions:
  status: ('A' for Active; 'I' for Inactive)
    1  A    between atoms: N_1  and  C_26
    2  A    between atoms: C_3  and  C_21
    3  A    between atoms: C_6  and  C_22
    4  A    between atoms: C_6  and  C_33
    5  A    between atoms: N_9  and  C_19
    6  A    between atoms: N_12  and  N_36
    7  A    between atoms: C_14  and  N_16
    8  A    between atoms: C_22  and  N_36
    9  A    between atoms: C_24  and  C_33
   10  A    between atoms: C_25  and  O_37
                            x       y       z     vdW  Elec       q    Type
                         _______ _______ _______ _____ _____    ______ ____

>  <TORSDO>
F 10

$$$$
=
 OpenBabel10222419373D

 39 42  0  0  1  0  0  0  0  0999 V2000
  182.1170  178.1430  138.7100 C   0  0  0  0  0  2  0  0  0  0  0  0
  186.1890  178.5260  139.0770 N   0  0  0  0  0  0  0  0  0  0  0  0
  182.9910  177.2130  137.8920 C   0  0  0  0  0  2  0  0  0  0  0  0
  184.0740  178.5960  140.2590 C   0  0  1  0  0  3  0  0  0  0  0  0
  184.9210  178.2380  139.0560 C   0  0  0  0  0  0  0  0  0  0  0  0
  182.6120  178.1180  140.1540 C   0  0  1  0  0  3  0  0  0  0  0  0
  184.3390  177.6680  137.9150 O   0  0  0  0  0  0  0  0  0  0  0  0
  188.0140  177.1650  138.1320 N   0  0  0  0  0  2  0  0  0  0  0  0
  187.1320  178.2830  138.0240 C   0  0  0  0  0  0  0  0  0  0  0  0
  187.1900  179.0370  137.0140 O   0  0  0  0  0  0  0  0  0  0  0  0
  189.8620  175.7020  137.5790 C   0  0  0  0  0  2  0  0  0  0  0  0
  188.7510  175.4640  136.5780 C   0  0  0  0  0  2  0  0  0  0  0  0
  189.0030  176.8590  137.1110 C   0  0  0  0  0  3  0  0  0  0  0  0
  185.6390  180.0610  142.1390 O   0  0  0  0  0  0  0  0  0  0  0  0
  184.6710  178.0470  141.4700 N   0  0  0  0  0  2  0  0  0  0  0  0
  185.4680  178.8310  142.3630 C   0  0  0  0  0  0  0  0  0  0  0  0
  186.0720  178.1990  143.5520 C   0  0  0  0  0  0  0  0  0  0  0  0
  187.2040  177.4950  143.4110 C   0  0  0  0  0  3  0  0  0  0  0  0
  186.1110  178.7460  146.0130 C   0  0  0  0  0  2  0  0  0  0  0  0
  185.3000  178.2220  144.8410 C   0  0  0  0  0  2  0  0  0  0  0  0
  187.0420  177.6580  146.5140 C   0  0  2  0  0  3  0  0  0  0  0  0
  187.4590  177.9800  147.9330 C   0  0  0  0  0  1  0  0  0  0  0  0
  188.2260  177.6000  145.6710 N   0  0  0  0  0  2  0  0  0  0  0  0
  187.9100  176.8900  144.5010 N   0  0  0  0  0  2  0  0  0  0  0  0
  181.8780  178.6850  142.3940 O   0  0  0  0  0  1  0  0  0  0  0  0
  181.6820  178.9640  141.0380 C   0  0  2  0  0  3  0  0  0  0  0  0
  180.2080  178.7680  140.6820 C   0  0  0  0  0  2  0  0  0  0  0  0
  179.4830  180.0980  140.5210 C   0  0  0  0  0  2  0  0  0  0  0  0
  180.3280  181.0360  139.8020 N   0  0  0  0  0  2  0  0  0  0  0  0
  181.4680  184.1150  137.1230 C   0  0  0  0  0  0  0  0  0  0  0  0
  181.0150  184.1790  135.6950 C   0  0  0  0  0  2  0  0  0  0  0  0
  179.8810  181.0530  138.4730 N   0  0  0  0  0  2  0  0  0  0  0  0
  180.1200  183.0300  135.3230 C   0  0  0  0  0  3  0  0  0  0  0  0
  179.7680  182.0630  136.1820 C   0  0  0  0  0  0  0  0  0  0  0  0
  180.2670  182.0920  137.5720 C   0  0  0  0  0  0  0  0  0  0  0  0
  181.0470  183.0470  137.9800 N   0  0  0  0  0  0  0  0  0  0  0  0
  182.2260  185.0120  137.5730 O   0  0  0  0  0  0  0  0  0  0  0  0
  179.2600  180.1080  134.7400 C   0  0  0  0  0  1  0  0  0  0  0  0
  178.9310  181.0130  135.7860 O   0  0  0  0  0  0  0  0  0  0  0  0
  1  6  1  0  0  0  0
  3  7  1  0  0  0  0
  3  1  1  0  0  0  0
  4 15  1  1  0  0  0
  5  2  2  0  0  0  0
  5  4  1  0  0  0  0
  6  4  1  0  0  0  0
  6 26  1  1  0  0  0
  7  5  1  0  0  0  0
  9  8  1  0  0  0  0
  9  2  1  0  0  0  0
 10  9  2  0  0  0  0
 12 13  1  0  0  0  0
 12 11  1  0  0  0  0
 13 11  1  0  0  0  0
 13  8  1  0  0  0  0
 14 16  2  0  0  0  0
 15 16  1  0  0  0  0
 16 17  1  0  0  0  0
 17 20  1  0  0  0  0
 18 17  2  0  0  0  0
 18 24  1  0  0  0  0
 19 21  1  0  0  0  0
 20 19  1  0  0  0  0
 21 22  1  1  0  0  0
 23 21  1  0  0  0  0
 24 23  1  0  0  0  0
 26 25  1  1  0  0  0
 27 26  1  0  0  0  0
 28 27  1  0  0  0  0
 29 28  1  0  0  0  0
 30 37  2  0  0  0  0
 30 36  1  0  0  0  0
 31 30  1  0  0  0  0
 32 29  1  0  0  0  0
 33 31  1  0  0  0  0
 33 34  2  0  0  0  0
 34 35  1  0  0  0  0
 35 36  2  0  0  0  0
 35 32  1  0  0  0  0
 38 39  1  0  0  0  0
 39 34  1  0  0  0  0
M  END
>  <MODEL>
2

>  <REMARK>
 VINA RESULT:      -7.7      3.733      6.497
  Name = 
  10 active torsions:
  status: ('A' for Active; 'I' for Inactive)
    1  A    between atoms: N_1  and  C_26
    2  A    between atoms: C_3  and  C_21
    3  A    between atoms: C_6  and  C_22
    4  A    between atoms: C_6  and  C_33
    5  A    between atoms: N_9  and  C_19
    6  A    between atoms: N_12  and  N_36
    7  A    between atoms: C_14  and  N_16
    8  A    between atoms: C_22  and  N_36
    9  A    between atoms: C_24  and  C_33
   10  A    between atoms: C_25  and  O_37
                            x       y       z     vdW  Elec       q    Type
                         _______ _______ _______ _____ _____    ______ ____

>  <TORSDO>
F 10

$$$$
=
 OpenBabel10222419373D

 39 42  0  0  1  0  0  0  0  0999 V2000
  189.8390  178.0770  137.9800 C   0  0  0  0  0  2  0  0  0  0  0  0
  186.0780  178.1190  139.6310 N   0  0  0  0  0  0  0  0  0  0  0  0
  188.9110  179.2140  137.5980 C   0  0  0  0  0  2  0  0  0  0  0  0
  188.4180  177.6280  140.0330 C   0  0  1  0  0  3  0  0  0  0  0  0
  187.3050  178.2570  139.2220 C   0  0  0  0  0  0  0  0  0  0  0  0
  189.8300  177.9440  139.5010 C   0  0  1  0  0  3  0  0  0  0  0  0
  187.5840  178.9200  138.0180 O   0  0  0  0  0  0  0  0  0  0  0  0
  184.1220  177.7370  138.1800 N   0  0  0  0  0  2  0  0  0  0  0  0
  184.9040  178.6250  138.9800 C   0  0  0  0  0  0  0  0  0  0  0  0
  184.5600  179.8320  139.1040 O   0  0  0  0  0  0  0  0  0  0  0  0
  182.2040  176.9700  136.9180 C   0  0  0  0  0  2  0  0  0  0  0  0
  181.7060  177.6240  138.1890 C   0  0  0  0  0  2  0  0  0  0  0  0
  182.9250  178.1770  137.4820 C   0  0  0  0  0  3  0  0  0  0  0  0
  188.6830  175.9270  142.3060 O   0  0  0  0  0  0  0  0  0  0  0  0
  188.3230  178.0560  141.4230 N   0  0  0  0  0  2  0  0  0  0  0  0
  188.4430  177.1480  142.5220 C   0  0  0  0  0  0  0  0  0  0  0  0
  188.2990  177.6460  143.9040 C   0  0  0  0  0  0  0  0  0  0  0  0
  187.0710  177.8330  144.4050 C   0  0  0  0  0  3  0  0  0  0  0  0
  189.6860  177.4520  146.0010 C   0  0  0  0  0  2  0  0  0  0  0  0
  189.5360  178.0910  144.6320 C   0  0  0  0  0  2  0  0  0  0  0  0
  188.7720  178.1510  146.9900 C   0  0  2  0  0  3  0  0  0  0  0  0
  189.2670  177.8810  148.3950 C   0  0  0  0  0  1  0  0  0  0  0  0
  187.4190  177.6370  146.8550 N   0  0  0  0  0  2  0  0  0  0  0  0
  186.8110  178.2550  145.7490 N   0  0  0  0  0  2  0  0  0  0  0  0
  191.6770  177.3450  140.9530 O   0  0  0  0  0  1  0  0  0  0  0  0
  190.8430  176.8730  139.9350 C   0  0  2  0  0  3  0  0  0  0  0  0
  191.6940  176.3720  138.7680 C   0  0  0  0  0  2  0  0  0  0  0  0
  193.1780  176.6320  138.9940 C   0  0  0  0  0  2  0  0  0  0  0  0
  193.9340  176.2230  137.8240 N   0  0  0  0  0  2  0  0  0  0  0  0
  197.6600  174.8390  136.3540 C   0  0  0  0  0  0  0  0  0  0  0  0
  198.1710  173.4470  136.5750 C   0  0  0  0  0  2  0  0  0  0  0  0
  194.3720  174.9120  138.0580 N   0  0  0  0  0  2  0  0  0  0  0  0
  197.2190  172.6050  137.3770 C   0  0  0  0  0  3  0  0  0  0  0  0
  196.0430  173.0570  137.8350 C   0  0  0  0  0  0  0  0  0  0  0  0
  195.6280  174.4480  137.5610 C   0  0  0  0  0  0  0  0  0  0  0  0
  196.3900  175.2480  136.8770 N   0  0  0  0  0  0  0  0  0  0  0  0
  198.3560  175.6580  135.7000 O   0  0  0  0  0  0  0  0  0  0  0  0
  195.0460  170.8390  138.3320 C   0  0  0  0  0  1  0  0  0  0  0  0
  195.1900  172.2320  138.5790 O   0  0  0  0  0  0  0  0  0  0  0  0
  1  6  1  0  0  0  0
  3  1  1  0  0  0  0
  3  7  1  0  0  0  0
  4 15  1  1  0  0  0
  5  2  2  0  0  0  0
  5  4  1  0  0  0  0
  6 26  1  6  0  0  0
  6  4  1  0  0  0  0
  7  5  1  0  0  0  0
  8  9  1  0  0  0  0
  9 10  2  0  0  0  0
  9  2  1  0  0  0  0
 11 13  1  0  0  0  0
 11 12  1  0  0  0  0
 13  8  1  0  0  0  0
 13 12  1  0  0  0  0
 14 16  2  0  0  0  0
 15 16  1  0  0  0  0
 16 17  1  0  0  0  0
 17 18  2  0  0  0  0
 17 20  1  0  0  0  0
 18 24  1  0  0  0  0
 19 21  1  0  0  0  0
 20 19  1  0  0  0  0
 21 22  1  1  0  0  0
 23 21  1  0  0  0  0
 24 23  1  0  0  0  0
 26 25  1  1  0  0  0
 27 28  1  0  0  0  0
 27 26  1  0  0  0  0
 29 32  1  0  0  0  0
 29 28  1  0  0  0  0
 30 31  1  0  0  0  0
 30 36  1  0  0  0  0
 31 33  1  0  0  0  0
 33 34  2  0  0  0  0
 34 39  1  0  0  0  0
 35 34  1  0  0  0  0
 35 32  1  0  0  0  0
 36 35  2  0  0  0  0
 37 30  2  0  0  0  0
 38 39  1  0  0  0  0
M  END
>  <MODEL>
3

>  <REMARK>
 VINA RESULT:      -7.7      2.733      9.804
  Name = 
  10 active torsions:
  status: ('A' for Active; 'I' for Inactive)
    1  A    between atoms: N_1  and  C_26
    2  A    between atoms: C_3  and  C_21
    3  A    between atoms: C_6  and  C_22
    4  A    between atoms: C_6  and  C_33
    5  A    between atoms: N_9  and  C_19
    6  A    between atoms: N_12  and  N_36
    7  A    between atoms: C_14  and  N_16
    8  A    between atoms: C_22  and  N_36
    9  A    between atoms: C_24  and  C_33
   10  A    between atoms: C_25  and  O_37
                            x       y       z     vdW  Elec       q    Type
                         _______ _______ _______ _____ _____    ______ ____

>  <TORSDO>
F 10

$$$$
=
 OpenBabel10222419373D

 39 42  0  0  1  0  0  0  0  0999 V2000
  182.0200  179.2030  142.2920 C   0  0  0  0  0  2  0  0  0  0  0  0
  182.2480  180.1410  138.3000 N   0  0  0  0  0  0  0  0  0  0  0  0
  180.7290  179.2310  141.4970 C   0  0  0  0  0  2  0  0  0  0  0  0
  183.3270  178.9740  140.1310 C   0  0  1  0  0  3  0  0  0  0  0  0
  182.1340  179.6650  139.5050 C   0  0  0  0  0  0  0  0  0  0  0  0
  183.0380  178.3690  141.5190 C   0  0  1  0  0  3  0  0  0  0  0  0
  180.9500  179.8470  140.2340 O   0  0  0  0  0  0  0  0  0  0  0  0
  181.2600  182.2690  137.5430 N   0  0  0  0  0  2  0  0  0  0  0  0
  181.2350  180.8420  137.5650 C   0  0  0  0  0  0  0  0  0  0  0  0
  180.3310  180.2170  136.9450 O   0  0  0  0  0  0  0  0  0  0  0  0
  180.8130  184.4350  136.5580 C   0  0  0  0  0  2  0  0  0  0  0  0
  180.7950  183.3980  135.4550 C   0  0  0  0  0  2  0  0  0  0  0  0
  180.2630  183.0490  136.8290 C   0  0  0  0  0  3  0  0  0  0  0  0
  185.6350  179.1630  138.4660 O   0  0  0  0  0  0  0  0  0  0  0  0
  183.8170  177.9260  139.2440 N   0  0  0  0  0  2  0  0  0  0  0  0
  184.9710  178.0910  138.4140 C   0  0  0  0  0  0  0  0  0  0  0  0
  185.3870  176.9990  137.5130 C   0  0  0  0  0  0  0  0  0  0  0  0
  186.6400  176.9880  137.0380 C   0  0  0  0  0  3  0  0  0  0  0  0
  184.7120  174.5860  137.2370 C   0  0  0  0  0  2  0  0  0  0  0  0
  184.3380  176.0410  137.0220 C   0  0  0  0  0  2  0  0  0  0  0  0
  185.7000  174.1530  136.1700 C   0  0  2  0  0  3  0  0  0  0  0  0
  185.6840  172.6430  136.0660 C   0  0  0  0  0  1  0  0  0  0  0  0
  187.0380  174.5900  136.5340 N   0  0  0  0  0  2  0  0  0  0  0  0
  187.1710  175.9500  136.2060 N   0  0  0  0  0  2  0  0  0  0  0  0
  184.0670  178.3320  143.7140 O   0  0  0  0  0  1  0  0  0  0  0  0
  184.3260  178.2240  142.3450 C   0  0  2  0  0  3  0  0  0  0  0  0
  185.3910  179.2440  141.9420 C   0  0  0  0  0  2  0  0  0  0  0  0
  186.7950  178.6570  142.0160 C   0  0  0  0  0  2  0  0  0  0  0  0
  186.7620  177.3880  142.7200 N   0  0  0  0  0  2  0  0  0  0  0  0
  186.4050  178.2610  146.8510 C   0  0  0  0  0  0  0  0  0  0  0  0
  187.5650  178.2510  147.8030 C   0  0  0  0  0  2  0  0  0  0  0  0
  187.8750  177.3640  143.5730 N   0  0  0  0  0  2  0  0  0  0  0  0
  188.8590  177.8940  147.1280 C   0  0  0  0  0  3  0  0  0  0  0  0
  188.9560  177.6200  145.8190 C   0  0  0  0  0  0  0  0  0  0  0  0
  187.7520  177.6590  144.9640 C   0  0  0  0  0  0  0  0  0  0  0  0
  186.5900  177.9570  145.4640 N   0  0  0  0  0  0  0  0  0  0  0  0
  185.2560  178.5410  147.2790 O   0  0  0  0  0  0  0  0  0  0  0  0
  191.2980  176.8160  145.9860 C   0  0  0  0  0  1  0  0  0  0  0  0
  190.1870  177.2910  145.2370 O   0  0  0  0  0  0  0  0  0  0  0  0
  2  5  2  0  0  0  0
  3  1  1  0  0  0  0
  4 15  1  6  0  0  0
  4  6  1  0  0  0  0
  5  4  1  0  0  0  0
  5  7  1  0  0  0  0
  6  1  1  0  0  0  0
  6 26  1  1  0  0  0
  7  3  1  0  0  0  0
  8  9  1  0  0  0  0
  9  2  1  0  0  0  0
 10  9  2  0  0  0  0
 11 13  1  0  0  0  0
 12 11  1  0  0  0  0
 12 13  1  0  0  0  0
 13  8  1  0  0  0  0
 16 14  2  0  0  0  0
 16 15  1  0  0  0  0
 17 16  1  0  0  0  0
 18 17  2  0  0  0  0
 20 19  1  0  0  0  0
 20 17  1  0  0  0  0
 21 22  1  1  0  0  0
 21 23  1  0  0  0  0
 21 19  1  0  0  0  0
 24 23  1  0  0  0  0
 24 18  1  0  0  0  0
 26 25  1  1  0  0  0
 27 28  1  0  0  0  0
 27 26  1  0  0  0  0
 28 29  1  0  0  0  0
 29 32  1  0  0  0  0
 30 37  2  0  0  0  0
 30 31  1  0  0  0  0
 32 35  1  0  0  0  0
 33 31  1  0  0  0  0
 34 33  2  0  0  0  0
 35 36  2  0  0  0  0
 35 34  1  0  0  0  0
 36 30  1  0  0  0  0
 39 34  1  0  0  0  0
 39 38  1  0  0  0  0
M  END
>  <MODEL>
4

>  <REMARK>
 VINA RESULT:      -7.7      4.238      9.486
  Name = 
  10 active torsions:
  status: ('A' for Active; 'I' for Inactive)
    1  A    between atoms: N_1  and  C_26
    2  A    between atoms: C_3  and  C_21
    3  A    between atoms: C_6  and  C_22
    4  A    between atoms: C_6  and  C_33
    5  A    between atoms: N_9  and  C_19
    6  A    between atoms: N_12  and  N_36
    7  A    between atoms: C_14  and  N_16
    8  A    between atoms: C_22  and  N_36
    9  A    between atoms: C_24  and  C_33
   10  A    between atoms: C_25  and  O_37
                            x       y       z     vdW  Elec       q    Type
                         _______ _______ _______ _____ _____    ______ ____

>  <TORSDO>
F 10

$$$$
=
 OpenBabel10222419373D

 39 42  0  0  1  0  0  0  0  0999 V2000
  189.3620  174.8470  136.0320 C   0  0  0  0  0  2  0  0  0  0  0  0
  192.8720  176.1920  137.6870 N   0  0  0  0  0  0  0  0  0  0  0  0
  190.5760  173.9420  135.9490 C   0  0  0  0  0  2  0  0  0  0  0  0
  190.4610  176.1210  137.9310 C   0  0  1  0  0  3  0  0  0  0  0  0
  191.7560  175.6410  137.3100 C   0  0  0  0  0  0  0  0  0  0  0  0
  189.2210  175.3260  137.4750 C   0  0  1  0  0  3  0  0  0  0  0  0
  191.7470  174.6680  136.3000 O   0  0  0  0  0  0  0  0  0  0  0  0
  194.9120  174.8110  137.7940 N   0  0  0  0  0  2  0  0  0  0  0  0
  194.1820  175.8810  137.1920 C   0  0  0  0  0  0  0  0  0  0  0  0
  194.6910  176.5340  136.2400 O   0  0  0  0  0  0  0  0  0  0  0  0
  196.5850  173.0640  137.8850 C   0  0  0  0  0  2  0  0  0  0  0  0
  196.1550  173.2360  136.4440 C   0  0  0  0  0  2  0  0  0  0  0  0
  196.2470  174.4420  137.3540 C   0  0  0  0  0  3  0  0  0  0  0  0
  189.8120  178.2540  139.7080 O   0  0  0  0  0  0  0  0  0  0  0  0
  190.5570  176.0670  139.3840 N   0  0  0  0  0  2  0  0  0  0  0  0
  190.2380  177.1820  140.2220 C   0  0  0  0  0  0  0  0  0  0  0  0
  190.3940  177.0680  141.6850 C   0  0  0  0  0  0  0  0  0  0  0  0
  191.5380  177.4730  142.2530 C   0  0  0  0  0  3  0  0  0  0  0  0
  188.8000  177.1340  143.6380 C   0  0  0  0  0  2  0  0  0  0  0  0
  189.3320  176.3390  142.4600 C   0  0  0  0  0  2  0  0  0  0  0  0
  189.7860  177.0560  144.7890 C   0  0  2  0  0  3  0  0  0  0  0  0
  189.0680  177.3930  146.0780 C   0  0  0  0  0  1  0  0  0  0  0  0
  190.8610  178.0110  144.5800 N   0  0  0  0  0  2  0  0  0  0  0  0
  191.7770  177.4650  143.6650 N   0  0  0  0  0  2  0  0  0  0  0  0
  186.8230  175.4640  137.1440 O   0  0  0  0  0  1  0  0  0  0  0  0
  187.9380  176.1580  137.6250 C   0  0  2  0  0  3  0  0  0  0  0  0
  188.0400  177.5120  136.9230 C   0  0  0  0  0  2  0  0  0  0  0  0
  186.7600  178.3250  137.0700 C   0  0  0  0  0  2  0  0  0  0  0  0
  186.5440  178.6540  138.4680 N   0  0  0  0  0  2  0  0  0  0  0  0
  184.8760  178.6870  142.3640 C   0  0  0  0  0  0  0  0  0  0  0  0
  183.4010  178.7160  142.6330 C   0  0  0  0  0  2  0  0  0  0  0  0
  185.1570  178.6840  138.6710 N   0  0  0  0  0  2  0  0  0  0  0  0
  182.5860  178.7360  141.3700 C   0  0  0  0  0  3  0  0  0  0  0  0
  183.1290  178.7260  140.1430 C   0  0  0  0  0  0  0  0  0  0  0  0
  184.5970  178.6940  139.9850 C   0  0  0  0  0  0  0  0  0  0  0  0
  185.3790  178.6770  141.0230 N   0  0  0  0  0  0  0  0  0  0  0  0
  185.6820  178.6710  143.3300 O   0  0  0  0  0  0  0  0  0  0  0  0
  181.1600  177.9450  138.8490 C   0  0  0  0  0  1  0  0  0  0  0  0
  182.3260  178.7460  138.9970 O   0  0  0  0  0  0  0  0  0  0  0  0
  1  6  1  0  0  0  0
  3  1  1  0  0  0  0
  3  7  1  0  0  0  0
  4 15  1  1  0  0  0
  5  2  2  0  0  0  0
  5  4  1  0  0  0  0
  6 26  1  6  0  0  0
  6  4  1  0  0  0  0
  7  5  1  0  0  0  0
  9  2  1  0  0  0  0
  9  8  1  0  0  0  0
 10  9  2  0  0  0  0
 12 13  1  0  0  0  0
 12 11  1  0  0  0  0
 13  8  1  0  0  0  0
 13 11  1  0  0  0  0
 14 16  2  0  0  0  0
 15 16  1  0  0  0  0
 16 17  1  0  0  0  0
 17 18  2  0  0  0  0
 17 20  1  0  0  0  0
 18 24  1  0  0  0  0
 19 21  1  0  0  0  0
 20 19  1  0  0  0  0
 21 22  1  1  0  0  0
 23 21  1  0  0  0  0
 24 23  1  0  0  0  0
 26 25  1  6  0  0  0
 27 28  1  0  0  0  0
 27 26  1  0  0  0  0
 28 29  1  0  0  0  0
 29 32  1  0  0  0  0
 30 31  1  0  0  0  0
 30 37  2  0  0  0  0
 32 35  1  0  0  0  0
 33 31  1  0  0  0  0
 34 33  2  0  0  0  0
 35 34  1  0  0  0  0
 35 36  2  0  0  0  0
 36 30  1  0  0  0  0
 38 39  1  0  0  0  0
 39 34  1  0  0  0  0
M  END
>  <MODEL>
5

>  <REMARK>
 VINA RESULT:      -7.6      1.455      1.667
  Name = 
  10 active torsions:
  status: ('A' for Active; 'I' for Inactive)
    1  A    between atoms: N_1  and  C_26
    2  A    between atoms: C_3  and  C_21
    3  A    between atoms: C_6  and  C_22
    4  A    between atoms: C_6  and  C_33
    5  A    between atoms: N_9  and  C_19
    6  A    between atoms: N_12  and  N_36
    7  A    between atoms: C_14  and  N_16
    8  A    between atoms: C_22  and  N_36
    9  A    between atoms: C_24  and  C_33
   10  A    between atoms: C_25  and  O_37
                            x       y       z     vdW  Elec       q    Type
                         _______ _______ _______ _____ _____    ______ ____

>  <TORSDO>
F 10

$$$$
=
 OpenBabel10222419373D

 39 42  0  0  1  0  0  0  0  0999 V2000
  184.6850  178.8910  146.1950 C   0  0  0  0  0  2  0  0  0  0  0  0
  188.4070  177.1820  145.8850 N   0  0  0  0  0  0  0  0  0  0  0  0
  185.8070  179.4830  147.0260 C   0  0  0  0  0  2  0  0  0  0  0  0
  186.4030  177.8110  144.6730 C   0  0  1  0  0  3  0  0  0  0  0  0
  187.3050  177.8730  145.8880 C   0  0  0  0  0  0  0  0  0  0  0  0
  185.1800  178.7460  144.7580 C   0  0  1  0  0  3  0  0  0  0  0  0
  186.9280  178.6070  147.0210 O   0  0  0  0  0  0  0  0  0  0  0  0
  190.6560  176.5630  146.6810 N   0  0  0  0  0  2  0  0  0  0  0  0
  189.3630  177.1040  146.9520 C   0  0  0  0  0  0  0  0  0  0  0  0
  189.0760  177.5030  148.1140 O   0  0  0  0  0  0  0  0  0  0  0  0
  191.8230  174.9850  148.0990 C   0  0  0  0  0  2  0  0  0  0  0  0
  192.8320  175.6290  147.1730 C   0  0  0  0  0  2  0  0  0  0  0  0
  191.6750  176.4420  147.7120 C   0  0  0  0  0  3  0  0  0  0  0  0
  187.9080  175.9420  143.1320 O   0  0  0  0  0  0  0  0  0  0  0  0
  187.1660  178.1270  143.4720 N   0  0  0  0  0  2  0  0  0  0  0  0
  187.9210  177.1470  142.7540 C   0  0  0  0  0  0  0  0  0  0  0  0
  188.7000  177.5470  141.5660 C   0  0  0  0  0  0  0  0  0  0  0  0
  189.9800  177.1620  141.4650 C   0  0  0  0  0  3  0  0  0  0  0  0
  188.1210  178.0360  139.1610 C   0  0  0  0  0  2  0  0  0  0  0  0
  188.0780  178.5170  140.6010 C   0  0  0  0  0  2  0  0  0  0  0  0
  189.5090  178.2580  138.5930 C   0  0  2  0  0  3  0  0  0  0  0  0
  189.4290  178.2650  137.0810 C   0  0  0  0  0  1  0  0  0  0  0  0
  190.3910  177.1830  139.0180 N   0  0  0  0  0  2  0  0  0  0  0  0
  190.8120  177.4400  140.3330 N   0  0  0  0  0  2  0  0  0  0  0  0
  184.5030  177.8920  142.5920 O   0  0  0  0  0  1  0  0  0  0  0  0
  184.0360  178.2520  143.8600 C   0  0  2  0  0  3  0  0  0  0  0  0
  182.9200  179.2880  143.7200 C   0  0  0  0  0  2  0  0  0  0  0  0
  181.5580  178.6330  143.5310 C   0  0  0  0  0  2  0  0  0  0  0  0
  180.9450  179.1140  142.3060 N   0  0  0  0  0  2  0  0  0  0  0  0
  183.7800  179.1400  139.1550 C   0  0  0  0  0  0  0  0  0  0  0  0
  183.8920  178.0470  138.1330 C   0  0  0  0  0  2  0  0  0  0  0  0
  181.0160  178.0680  141.3740 N   0  0  0  0  0  2  0  0  0  0  0  0
  182.8940  176.9460  138.3570 C   0  0  0  0  0  3  0  0  0  0  0  0
  182.0030  176.9520  139.3590 C   0  0  0  0  0  0  0  0  0  0  0  0
  181.9710  178.0790  140.3130 C   0  0  0  0  0  0  0  0  0  0  0  0
  182.8000  179.0740  140.1970 N   0  0  0  0  0  0  0  0  0  0  0  0
  184.5560  180.1270  139.0940 O   0  0  0  0  0  0  0  0  0  0  0  0
  180.2590  175.4220  138.4780 C   0  0  0  0  0  1  0  0  0  0  0  0
  181.0920  175.9010  139.5250 O   0  0  0  0  0  0  0  0  0  0  0  0
  1  3  1  0  0  0  0
  2  5  2  0  0  0  0
  2  9  1  0  0  0  0
  4 15  1  6  0  0  0
  4  6  1  0  0  0  0
  4  5  1  0  0  0  0
  5  7  1  0  0  0  0
  6 26  1  6  0  0  0
  6  1  1  0  0  0  0
  7  3  1  0  0  0  0
  8  9  1  0  0  0  0
  8 13  1  0  0  0  0
  9 10  2  0  0  0  0
 12 13  1  0  0  0  0
 12 11  1  0  0  0  0
 13 11  1  0  0  0  0
 16 14  2  0  0  0  0
 16 15  1  0  0  0  0
 17 16  1  0  0  0  0
 18 17  2  0  0  0  0
 19 20  1  0  0  0  0
 20 17  1  0  0  0  0
 21 22  1  6  0  0  0
 21 23  1  0  0  0  0
 21 19  1  0  0  0  0
 23 24  1  0  0  0  0
 24 18  1  0  0  0  0
 26 25  1  6  0  0  0
 27 26  1  0  0  0  0
 28 27  1  0  0  0  0
 29 28  1  0  0  0  0
 30 36  1  0  0  0  0
 31 33  1  0  0  0  0
 31 30  1  0  0  0  0
 32 29  1  0  0  0  0
 33 34  2  0  0  0  0
 34 39  1  0  0  0  0
 34 35  1  0  0  0  0
 35 32  1  0  0  0  0
 36 35  2  0  0  0  0
 37 30  2  0  0  0  0
 38 39  1  0  0  0  0
M  END
>  <MODEL>
6

>  <REMARK>
 VINA RESULT:      -7.6      3.605      7.347
  Name = 
  10 active torsions:
  status: ('A' for Active; 'I' for Inactive)
    1  A    between atoms: N_1  and  C_26
    2  A    between atoms: C_3  and  C_21
    3  A    between atoms: C_6  and  C_22
    4  A    between atoms: C_6  and  C_33
    5  A    between atoms: N_9  and  C_19
    6  A    between atoms: N_12  and  N_36
    7  A    between atoms: C_14  and  N_16
    8  A    between atoms: C_22  and  N_36
    9  A    between atoms: C_24  and  C_33
   10  A    between atoms: C_25  and  O_37
                            x       y       z     vdW  Elec       q    Type
                         _______ _______ _______ _____ _____    ______ ____

>  <TORSDO>
F 10

$$$$
=
 OpenBabel10222419373D

 39 42  0  0  1  0  0  0  0  0999 V2000
  189.8640  177.9890  137.9070 C   0  0  0  0  0  2  0  0  0  0  0  0
  187.1090  178.0800  140.9520 N   0  0  0  0  0  0  0  0  0  0  0  0
  189.0470  179.2550  138.0850 C   0  0  0  0  0  2  0  0  0  0  0  0
  189.3130  177.3170  140.2900 C   0  0  1  0  0  3  0  0  0  0  0  0
  188.0820  178.1770  140.0940 C   0  0  0  0  0  0  0  0  0  0  0  0
  190.4330  177.5930  139.2670 C   0  0  1  0  0  3  0  0  0  0  0  0
  187.9640  179.0120  138.9740 O   0  0  0  0  0  0  0  0  0  0  0  0
  184.8790  178.4080  139.9540 N   0  0  0  0  0  2  0  0  0  0  0  0
  185.8670  178.7950  140.9100 C   0  0  0  0  0  0  0  0  0  0  0  0
  185.6390  179.7520  141.7000 O   0  0  0  0  0  0  0  0  0  0  0  0
  182.5720  178.1340  139.2760 C   0  0  0  0  0  2  0  0  0  0  0  0
  182.5990  178.4210  140.7620 C   0  0  0  0  0  2  0  0  0  0  0  0
  183.6000  179.0910  139.8440 C   0  0  0  0  0  3  0  0  0  0  0  0
  188.6840  175.6910  142.5460 O   0  0  0  0  0  0  0  0  0  0  0  0
  189.8390  177.5020  141.6370 N   0  0  0  0  0  2  0  0  0  0  0  0
  189.4660  176.6640  142.7350 C   0  0  0  0  0  0  0  0  0  0  0  0
  190.0100  176.9330  144.0800 C   0  0  0  0  0  0  0  0  0  0  0  0
  189.2150  177.4820  145.0080 C   0  0  0  0  0  3  0  0  0  0  0  0
  191.7980  175.8680  145.5040 C   0  0  0  0  0  2  0  0  0  0  0  0
  191.4840  176.7420  144.3030 C   0  0  0  0  0  2  0  0  0  0  0  0
  191.6440  176.6790  146.7770 C   0  0  2  0  0  3  0  0  0  0  0  0
  192.4160  176.0030  147.8900 C   0  0  0  0  0  1  0  0  0  0  0  0
  190.2390  176.7490  147.1460 N   0  0  0  0  0  2  0  0  0  0  0  0
  189.6160  177.7320  146.3600 N   0  0  0  0  0  2  0  0  0  0  0  0
  192.6750  176.6890  139.4620 O   0  0  0  0  0  1  0  0  0  0  0  0
  191.3580  176.3760  139.1090 C   0  0  2  0  0  3  0  0  0  0  0  0
  191.3300  175.8060  137.6910 C   0  0  0  0  0  2  0  0  0  0  0  0
  190.5420  174.5040  137.6190 C   0  0  0  0  0  2  0  0  0  0  0  0
  189.7100  174.4970  136.4300 N   0  0  0  0  0  2  0  0  0  0  0  0
  186.5390  177.2930  136.1280 C   0  0  0  0  0  0  0  0  0  0  0  0
  185.1330  177.0000  136.5590 C   0  0  0  0  0  2  0  0  0  0  0  0
  188.4080  174.1770  136.8430 N   0  0  0  0  0  2  0  0  0  0  0  0
  184.9760  175.6080  137.1020 C   0  0  0  0  0  3  0  0  0  0  0  0
  185.9900  174.7340  137.1910 C   0  0  0  0  0  0  0  0  0  0  0  0
  187.3420  175.1220  136.7410 C   0  0  0  0  0  0  0  0  0  0  0  0
  187.5680  176.3060  136.2560 N   0  0  0  0  0  0  0  0  0  0  0  0
  186.8180  178.4230  135.6490 O   0  0  0  0  0  0  0  0  0  0  0  0
  184.6940  172.6210  137.3350 C   0  0  0  0  0  1  0  0  0  0  0  0
  185.7920  173.4460  137.7040 O   0  0  0  0  0  0  0  0  0  0  0  0
  1  3  1  0  0  0  0
  1  6  1  0  0  0  0
  3  7  1  0  0  0  0
  4 15  1  1  0  0  0
  5  4  1  0  0  0  0
  5  2  2  0  0  0  0
  6 26  1  6  0  0  0
  6  4  1  0  0  0  0
  7  5  1  0  0  0  0
  8  9  1  0  0  0  0
  9  2  1  0  0  0  0
  9 10  2  0  0  0  0
 11 13  1  0  0  0  0
 11 12  1  0  0  0  0
 13  8  1  0  0  0  0
 13 12  1  0  0  0  0
 14 16  2  0  0  0  0
 15 16  1  0  0  0  0
 16 17  1  0  0  0  0
 17 20  1  0  0  0  0
 17 18  2  0  0  0  0
 18 24  1  0  0  0  0
 19 21  1  0  0  0  0
 20 19  1  0  0  0  0
 21 23  1  0  0  0  0
 21 22  1  1  0  0  0
 24 23  1  0  0  0  0
 26 25  1  6  0  0  0
 27 26  1  0  0  0  0
 28 27  1  0  0  0  0
 29 32  1  0  0  0  0
 29 28  1  0  0  0  0
 30 36  1  0  0  0  0
 30 31  1  0  0  0  0
 31 33  1  0  0  0  0
 33 34  2  0  0  0  0
 34 39  1  0  0  0  0
 35 32  1  0  0  0  0
 35 34  1  0  0  0  0
 36 35  2  0  0  0  0
 37 30  2  0  0  0  0
 38 39  1  0  0  0  0
M  END
>  <MODEL>
7

>  <REMARK>
 VINA RESULT:      -7.5      2.731      7.004
  Name = 
  10 active torsions:
  status: ('A' for Active; 'I' for Inactive)
    1  A    between atoms: N_1  and  C_26
    2  A    between atoms: C_3  and  C_21
    3  A    between atoms: C_6  and  C_22
    4  A    between atoms: C_6  and  C_33
    5  A    between atoms: N_9  and  C_19
    6  A    between atoms: N_12  and  N_36
    7  A    between atoms: C_14  and  N_16
    8  A    between atoms: C_22  and  N_36
    9  A    between atoms: C_24  and  C_33
   10  A    between atoms: C_25  and  O_37
                            x       y       z     vdW  Elec       q    Type
                         _______ _______ _______ _____ _____    ______ ____

>  <TORSDO>
F 10

$$$$
=
 OpenBabel10222419373D

 39 42  0  0  1  0  0  0  0  0999 V2000
  189.3850  174.6420  135.9270 C   0  0  0  0  0  2  0  0  0  0  0  0
  192.8400  176.1180  137.5870 N   0  0  0  0  0  0  0  0  0  0  0  0
  190.6270  173.7750  135.8640 C   0  0  0  0  0  2  0  0  0  0  0  0
  190.4310  175.9740  137.8160 C   0  0  1  0  0  3  0  0  0  0  0  0
  191.7440  175.5270  137.2100 C   0  0  0  0  0  0  0  0  0  0  0  0
  189.2190  175.1340  137.3630 C   0  0  1  0  0  3  0  0  0  0  0  0
  191.7730  174.5420  136.2130 O   0  0  0  0  0  0  0  0  0  0  0  0
  194.9350  174.8300  137.7490 N   0  0  0  0  0  2  0  0  0  0  0  0
  194.1620  175.8420  137.1040 C   0  0  0  0  0  0  0  0  0  0  0  0
  194.6440  176.4770  136.1270 O   0  0  0  0  0  0  0  0  0  0  0  0
  197.1760  174.3760  138.5440 C   0  0  0  0  0  2  0  0  0  0  0  0
  196.6540  173.1320  137.8580 C   0  0  0  0  0  2  0  0  0  0  0  0
  196.2860  174.5000  137.3240 C   0  0  0  0  0  3  0  0  0  0  0  0
  190.0510  178.2110  139.5430 O   0  0  0  0  0  0  0  0  0  0  0  0
  190.5180  175.9420  139.2710 N   0  0  0  0  0  2  0  0  0  0  0  0
  190.3390  177.1060  140.0820 C   0  0  0  0  0  0  0  0  0  0  0  0
  190.4790  177.0070  141.5480 C   0  0  0  0  0  0  0  0  0  0  0  0
  191.5950  177.4660  142.1300 C   0  0  0  0  0  3  0  0  0  0  0  0
  188.8560  177.0110  143.4780 C   0  0  0  0  0  2  0  0  0  0  0  0
  189.4390  176.2350  142.3120 C   0  0  0  0  0  2  0  0  0  0  0  0
  189.8270  176.9830  144.6430 C   0  0  2  0  0  3  0  0  0  0  0  0
  189.0760  177.2950  145.9200 C   0  0  0  0  0  1  0  0  0  0  0  0
  190.8610  177.9850  144.4430 N   0  0  0  0  0  2  0  0  0  0  0  0
  191.8140  177.4750  143.5450 N   0  0  0  0  0  2  0  0  0  0  0  0
  186.8000  175.1300  137.1950 O   0  0  0  0  0  1  0  0  0  0  0  0
  187.9100  175.9270  137.4930 C   0  0  2  0  0  3  0  0  0  0  0  0
  187.8960  177.1750  136.6090 C   0  0  0  0  0  2  0  0  0  0  0  0
  187.5780  178.4320  137.4080 C   0  0  0  0  0  2  0  0  0  0  0  0
  186.1420  178.5460  137.5960 N   0  0  0  0  0  2  0  0  0  0  0  0
  182.2170  178.4610  139.1920 C   0  0  0  0  0  0  0  0  0  0  0  0
  181.9200  178.5070  140.6610 C   0  0  0  0  0  2  0  0  0  0  0  0
  185.9120  178.5870  138.9780 N   0  0  0  0  0  2  0  0  0  0  0  0
  183.1660  178.5800  141.4980 C   0  0  0  0  0  3  0  0  0  0  0  0
  184.4020  178.6050  140.9780 C   0  0  0  0  0  0  0  0  0  0  0  0
  184.5890  178.5590  139.5140 C   0  0  0  0  0  0  0  0  0  0  0  0
  183.5670  178.4930  138.7140 N   0  0  0  0  0  0  0  0  0  0  0  0
  181.2680  178.3960  138.3690 O   0  0  0  0  0  0  0  0  0  0  0  0
  185.5120  178.3270  143.1800 C   0  0  0  0  0  1  0  0  0  0  0  0
  185.5320  178.6740  141.8020 O   0  0  0  0  0  0  0  0  0  0  0  0
  1  6  1  0  0  0  0
  3  1  1  0  0  0  0
  3  7  1  0  0  0  0
  4 15  1  1  0  0  0
  5  2  2  0  0  0  0
  5  4  1  0  0  0  0
  6 26  1  6  0  0  0
  6  4  1  0  0  0  0
  7  5  1  0  0  0  0
  9  2  1  0  0  0  0
  9  8  1  0  0  0  0
 10  9  2  0  0  0  0
 12 11  1  0  0  0  0
 13  8  1  0  0  0  0
 13 12  1  0  0  0  0
 13 11  1  0  0  0  0
 14 16  2  0  0  0  0
 15 16  1  0  0  0  0
 16 17  1  0  0  0  0
 17 18  2  0  0  0  0
 17 20  1  0  0  0  0
 18 24  1  0  0  0  0
 19 21  1  0  0  0  0
 20 19  1  0  0  0  0
 21 22  1  1  0  0  0
 23 21  1  0  0  0  0
 24 23  1  0  0  0  0
 26 25  1  6  0  0  0
 27 28  1  0  0  0  0
 27 26  1  0  0  0  0
 28 29  1  0  0  0  0
 29 32  1  0  0  0  0
 30 31  1  0  0  0  0
 31 33  1  0  0  0  0
 32 35  1  0  0  0  0
 34 33  2  0  0  0  0
 34 39  1  0  0  0  0
 35 34  1  0  0  0  0
 36 30  1  0  0  0  0
 36 35  2  0  0  0  0
 37 30  2  0  0  0  0
 39 38  1  0  0  0  0
M  END
>  <MODEL>
8

>  <REMARK>
 VINA RESULT:      -7.4      1.638      2.618
  Name = 
  10 active torsions:
  status: ('A' for Active; 'I' for Inactive)
    1  A    between atoms: N_1  and  C_26
    2  A    between atoms: C_3  and  C_21
    3  A    between atoms: C_6  and  C_22
    4  A    between atoms: C_6  and  C_33
    5  A    between atoms: N_9  and  C_19
    6  A    between atoms: N_12  and  N_36
    7  A    between atoms: C_14  and  N_16
    8  A    between atoms: C_22  and  N_36
    9  A    between atoms: C_24  and  C_33
   10  A    between atoms: C_25  and  O_37
                            x       y       z     vdW  Elec       q    Type
                         _______ _______ _______ _____ _____    ______ ____

>  <TORSDO>
F 10

$$$$
=
 OpenBabel10222419373D

 39 42  0  0  1  0  0  0  0  0999 V2000
  188.5600  176.5070  136.2980 C   0  0  0  0  0  2  0  0  0  0  0  0
  192.0010  175.3800  138.2360 N   0  0  0  0  0  0  0  0  0  0  0  0
  189.0340  175.0770  136.1230 C   0  0  0  0  0  2  0  0  0  0  0  0
  189.9760  176.7040  138.3930 C   0  0  1  0  0  3  0  0  0  0  0  0
  190.8200  175.6240  137.7500 C   0  0  0  0  0  0  0  0  0  0  0  0
  188.5630  176.8320  137.7900 C   0  0  1  0  0  3  0  0  0  0  0  0
  190.3640  174.9450  136.6110 O   0  0  0  0  0  0  0  0  0  0  0  0
  194.3360  174.6630  137.9060 N   0  0  0  0  0  2  0  0  0  0  0  0
  192.9390  174.4140  137.7420 C   0  0  0  0  0  0  0  0  0  0  0  0
  192.5490  173.3590  137.1700 O   0  0  0  0  0  0  0  0  0  0  0  0
  196.5810  174.5150  137.0120 C   0  0  0  0  0  2  0  0  0  0  0  0
  196.5500  173.7920  138.3420 C   0  0  0  0  0  2  0  0  0  0  0  0
  195.3480  173.7370  137.4230 C   0  0  0  0  0  3  0  0  0  0  0  0
  191.5720  177.9410  140.4070 O   0  0  0  0  0  0  0  0  0  0  0  0
  189.8650  176.4610  139.8260 N   0  0  0  0  0  2  0  0  0  0  0  0
  190.7140  177.0980  140.7870 C   0  0  0  0  0  0  0  0  0  0  0  0
  190.5690  176.7760  142.2190 C   0  0  0  0  0  0  0  0  0  0  0  0
  191.6470  176.3840  142.9120 C   0  0  0  0  0  3  0  0  0  0  0  0
  189.0380  177.5700  144.0590 C   0  0  0  0  0  2  0  0  0  0  0  0
  189.1840  176.7310  142.8030 C   0  0  0  0  0  2  0  0  0  0  0  0
  189.6310  176.8240  145.2400 C   0  0  2  0  0  3  0  0  0  0  0  0
  189.0580  177.3920  146.5210 C   0  0  0  0  0  1  0  0  0  0  0  0
  191.0750  176.9910  145.2500 N   0  0  0  0  0  2  0  0  0  0  0  0
  191.6370  176.1040  144.3160 N   0  0  0  0  0  2  0  0  0  0  0  0
  188.8650  179.0390  138.7490 O   0  0  0  0  0  1  0  0  0  0  0  0
  187.9830  178.2360  138.0180 C   0  0  2  0  0  3  0  0  0  0  0  0
  186.6250  178.1960  138.7200 C   0  0  0  0  0  2  0  0  0  0  0  0
  186.7680  178.2660  140.2350 C   0  0  0  0  0  2  0  0  0  0  0  0
  185.9660  179.3590  140.7560 N   0  0  0  0  0  2  0  0  0  0  0  0
  182.1440  178.9390  142.5370 C   0  0  0  0  0  0  0  0  0  0  0  0
  181.9350  178.7060  144.0030 C   0  0  0  0  0  2  0  0  0  0  0  0
  185.8200  179.1380  142.1330 N   0  0  0  0  0  2  0  0  0  0  0  0
  183.2290  178.6330  144.7640 C   0  0  0  0  0  3  0  0  0  0  0  0
  184.4320  178.7680  144.1860 C   0  0  0  0  0  0  0  0  0  0  0  0
  184.5300  178.9980  142.7310 C   0  0  0  0  0  0  0  0  0  0  0  0
  183.4630  179.0730  141.9940 N   0  0  0  0  0  0  0  0  0  0  0  0
  181.1470  179.0190  141.7740 O   0  0  0  0  0  0  0  0  0  0  0  0
  185.6660  178.9980  146.3270 C   0  0  0  0  0  1  0  0  0  0  0  0
  185.6090  178.6920  144.9400 O   0  0  0  0  0  0  0  0  0  0  0  0
  1  6  1  0  0  0  0
  3  1  1  0  0  0  0
  3  7  1  0  0  0  0
  4 15  1  1  0  0  0
  5  2  2  0  0  0  0
  5  4  1  0  0  0  0
  6 26  1  6  0  0  0
  6  4  1  0  0  0  0
  7  5  1  0  0  0  0
  9  8  1  0  0  0  0
  9  2  1  0  0  0  0
 10  9  2  0  0  0  0
 11 13  1  0  0  0  0
 11 12  1  0  0  0  0
 13  8  1  0  0  0  0
 13 12  1  0  0  0  0
 14 16  2  0  0  0  0
 15 16  1  0  0  0  0
 16 17  1  0  0  0  0
 17 20  1  0  0  0  0
 17 18  2  0  0  0  0
 18 24  1  0  0  0  0
 19 21  1  0  0  0  0
 20 19  1  0  0  0  0
 21 23  1  0  0  0  0
 21 22  1  1  0  0  0
 24 23  1  0  0  0  0
 26 27  1  0  0  0  0
 26 25  1  1  0  0  0
 27 28  1  0  0  0  0
 28 29  1  0  0  0  0
 29 32  1  0  0  0  0
 30 31  1  0  0  0  0
 31 33  1  0  0  0  0
 32 35  1  0  0  0  0
 34 33  2  0  0  0  0
 34 39  1  0  0  0  0
 35 34  1  0  0  0  0
 36 30  1  0  0  0  0
 36 35  2  0  0  0  0
 37 30  2  0  0  0  0
 39 38  1  0  0  0  0
M  END
>  <MODEL>
9

>  <REMARK>
 VINA RESULT:      -7.4      1.390      2.417
  Name = 
  10 active torsions:
  status: ('A' for Active; 'I' for Inactive)
    1  A    between atoms: N_1  and  C_26
    2  A    between atoms: C_3  and  C_21
    3  A    between atoms: C_6  and  C_22
    4  A    between atoms: C_6  and  C_33
    5  A    between atoms: N_9  and  C_19
    6  A    between atoms: N_12  and  N_36
    7  A    between atoms: C_14  and  N_16
    8  A    between atoms: C_22  and  N_36
    9  A    between atoms: C_24  and  C_33
   10  A    between atoms: C_25  and  O_37
                            x       y       z     vdW  Elec       q    Type
                         _______ _______ _______ _____ _____    ______ ____

>  <TORSDO>
F 10

$$$$
