=
 OpenBabel10222421173D

 37 40  0  0  1  0  0  0  0  0999 V2000
  186.1970  178.1620  144.5240 C   0  0  0  0  0  3  0  0  0  0  0  0
  182.4410  178.6870  139.5890 C   0  0  0  0  0  2  0  0  0  0  0  0
  183.8660  178.8090  144.3390 C   0  0  0  0  0  3  0  0  0  0  0  0
  185.1500  178.2860  142.3480 C   0  0  0  0  0  0  0  0  0  0  0  0
  185.0460  178.2640  140.5530 S   0  0  0  0  0  0  0  0  0  0  0  0
  181.5790  178.5680  142.4840 O   0  0  0  0  0  0  0  0  0  0  0  0
  183.2420  178.1290  140.7540 C   0  0  1  0  0  3  0  0  0  0  0  0
  179.2340  178.7180  141.8860 C   0  0  0  0  0  1  0  0  0  0  0  0
  182.8620  178.9160  141.9980 C   0  0  2  0  0  3  0  0  0  0  0  0
  183.9560  178.6480  142.9570 C   0  0  0  0  0  0  0  0  0  0  0  0
  180.9910  178.9850  140.0320 C   0  0  1  0  0  3  0  0  0  0  0  0
  180.6400  178.3720  141.4260 C   0  0  1  0  0  3  0  0  0  0  0  0
  184.9940  178.5580  145.1260 C   0  0  0  0  0  0  0  0  0  0  0  0
  186.2970  178.0070  143.1280 C   0  0  0  0  0  0  0  0  0  0  0  0
  187.5950  177.5790  142.5480 C   0  0  0  0  0  0  0  0  0  0  0  0
  188.1690  178.2570  141.4640 C   0  0  0  0  0  3  0  0  0  0  0  0
  188.2480  176.4450  143.0530 C   0  0  0  0  0  3  0  0  0  0  0  0
  189.3760  177.8100  140.9240 C   0  0  0  0  0  3  0  0  0  0  0  0
  189.4540  176.0270  142.4860 C   0  0  0  0  0  3  0  0  0  0  0  0
  189.9910  176.7140  141.4420 N   0  0  0  0  0  0  0  0  0  0  0  0
  184.9270  178.7410  146.6020 C   0  0  0  0  0  2  0  0  0  0  0  0
  186.3210  178.9750  147.1600 C   0  0  0  0  0  2  0  0  0  0  0  0
  186.8010  177.7510  147.9250 C   0  0  0  0  0  2  0  0  0  0  0  0
  188.2260  177.9350  148.4270 C   0  0  0  0  0  2  0  0  0  0  0  0
  189.2040  177.1890  147.5340 C   0  0  0  0  0  2  0  0  0  0  0  0
  191.9920  178.5890  143.5640 C   0  0  0  0  0  1  0  0  0  0  0  0
  190.7720  178.6070  144.3530 N   0  0  0  0  0  2  0  0  0  0  0  0
  189.4210  177.9330  146.3030 N   0  0  0  0  0  2  0  0  0  0  0  0
  190.6470  177.8710  145.5690 C   0  0  0  0  0  0  0  0  0  0  0  0
  191.6100  177.1780  145.9970 O   0  0  0  0  0  0  0  0  0  0  0  0
  180.6100  180.4710  139.8780 C   0  0  1  0  0  3  0  0  0  0  0  0
  180.4080  180.9550  137.4080 N   0  0  0  0  0  2  0  0  0  0  0  0
  181.1360  181.1020  138.6250 C   0  0  0  0  0  0  0  0  0  0  0  0
  182.1970  181.7820  138.6490 O   0  0  0  0  0  0  0  0  0  0  0  0
  180.8350  181.5480  136.2690 O   0  0  0  0  0  1  0  0  0  0  0  0
  178.9310  181.8880  140.6850 C   0  0  0  0  0  1  0  0  0  0  0  0
  179.1680  180.6440  139.9730 N   0  0  0  0  0  2  0  0  0  0  0  0
  1 13  1  0  0  0  0
  2 11  1  0  0  0  0
  3 13  2  0  0  0  0
  4 10  2  0  0  0  0
  4 14  1  0  0  0  0
  5  7  1  0  0  0  0
  5  4  1  0  0  0  0
  7  2  1  6  0  0  0
  7  9  1  0  0  0  0
  9  6  1  1  0  0  0
  9 10  1  0  0  0  0
 10  3  1  0  0  0  0
 11 31  1  1  0  0  0
 11 12  1  0  0  0  0
 12  8  1  1  0  0  0
 12  6  1  0  0  0  0
 13 21  1  0  0  0  0
 14  1  2  0  0  0  0
 15 17  1  0  0  0  0
 15 14  1  0  0  0  0
 16 15  2  0  0  0  0
 18 20  2  0  0  0  0
 18 16  1  0  0  0  0
 19 17  2  0  0  0  0
 20 19  1  0  0  0  0
 21 22  1  0  0  0  0
 22 23  1  0  0  0  0
 23 24  1  0  0  0  0
 25 24  1  0  0  0  0
 26 27  1  0  0  0  0
 27 29  1  0  0  0  0
 28 25  1  0  0  0  0
 29 30  2  0  0  0  0
 29 28  1  0  0  0  0
 31 33  1  6  0  0  0
 31 37  1  0  0  0  0
 32 33  1  0  0  0  0
 33 34  2  0  0  0  0
 35 32  1  0  0  0  0
 37 36  1  0  0  0  0
M  END
>  <MODEL>
1

>  <REMARK>
 VINA RESULT:      -8.1      0.000      0.000
  Name = 
  10 active torsions:
  status: ('A' for Active; 'I' for Inactive)
    1  A    between atoms: C_3  and  C_34
    2  A    between atoms: C_5  and  C_9
    3  A    between atoms: C_8  and  C_29
    4  A    between atoms: C_8  and  C_30
    5  A    between atoms: C_9  and  C_24
    6  A    between atoms: C_9  and  N_33
    7  A    between atoms: C_12  and  C_28
    8  A    between atoms: C_12  and  C_37
    9  A    between atoms: N_26  and  C_28
   10  A    between atoms: C_30  and  C_37
                            x       y       z     vdW  Elec       q    Type
                         _______ _______ _______ _____ _____    ______ ____

>  <TORSDO>
F 10

$$$$
=
 OpenBabel10222421173D

 37 40  0  0  1  0  0  0  0  0999 V2000
  187.2550  178.4510  142.1860 C   0  0  0  0  0  3  0  0  0  0  0  0
  181.0710  178.7060  141.5350 C   0  0  0  0  0  2  0  0  0  0  0  0
  185.8520  178.6260  140.2150 C   0  0  0  0  0  3  0  0  0  0  0  0
  184.8490  178.4550  142.4170 C   0  0  0  0  0  0  0  0  0  0  0  0
  183.2620  178.3140  143.2510 S   0  0  0  0  0  0  0  0  0  0  0  0
  183.1190  179.4300  139.4330 O   0  0  0  0  0  0  0  0  0  0  0  0
  182.5250  179.0800  141.7730 C   0  0  1  0  0  3  0  0  0  0  0  0
  181.3980  180.0280  137.8330 C   0  0  0  0  0  1  0  0  0  0  0  0
  183.3270  178.6120  140.5690 C   0  0  2  0  0  3  0  0  0  0  0  0
  184.7300  178.5930  141.0410 C   0  0  0  0  0  0  0  0  0  0  0  0
  180.6840  178.9730  140.0630 C   0  0  1  0  0  3  0  0  0  0  0  0
  181.7510  179.8180  139.2950 C   0  0  1  0  0  3  0  0  0  0  0  0
  187.1230  178.5600  140.7950 C   0  0  0  0  0  0  0  0  0  0  0  0
  186.1250  178.4080  143.0250 C   0  0  0  0  0  0  0  0  0  0  0  0
  186.3290  178.2990  144.4920 C   0  0  0  0  0  0  0  0  0  0  0  0
  187.3180  177.4650  145.0310 C   0  0  0  0  0  3  0  0  0  0  0  0
  185.4880  179.0000  145.3700 C   0  0  0  0  0  3  0  0  0  0  0  0
  187.4620  177.3630  146.4160 C   0  0  0  0  0  3  0  0  0  0  0  0
  185.6630  178.8710  146.7490 C   0  0  0  0  0  3  0  0  0  0  0  0
  186.6400  178.0630  147.2410 N   0  0  0  0  0  0  0  0  0  0  0  0
  188.3360  178.5750  139.9320 C   0  0  0  0  0  2  0  0  0  0  0  0
  189.0230  177.2210  139.9770 C   0  0  0  0  0  2  0  0  0  0  0  0
  190.5340  177.3870  139.9240 C   0  0  0  0  0  2  0  0  0  0  0  0
  191.1320  177.4660  141.3210 C   0  0  0  0  0  2  0  0  0  0  0  0
  190.5550  176.3750  142.2070 C   0  0  0  0  0  2  0  0  0  0  0  0
  192.0780  176.0600  147.0110 C   0  0  0  0  0  1  0  0  0  0  0  0
  191.3090  176.6710  145.9400 N   0  0  0  0  0  2  0  0  0  0  0  0
  190.5560  176.8090  143.5960 N   0  0  0  0  0  2  0  0  0  0  0  0
  191.3390  176.1660  144.6050 C   0  0  0  0  0  0  0  0  0  0  0  0
  192.0430  175.1590  144.3200 O   0  0  0  0  0  0  0  0  0  0  0  0
  180.2300  177.7000  139.3210 C   0  0  1  0  0  3  0  0  0  0  0  0
  179.0330  176.2700  141.0240 N   0  0  0  0  0  2  0  0  0  0  0  0
  180.1710  176.4820  140.1930 C   0  0  0  0  0  0  0  0  0  0  0  0
  181.1050  175.6360  140.1720 O   0  0  0  0  0  0  0  0  0  0  0  0
  178.9310  175.1590  141.7900 O   0  0  0  0  0  1  0  0  0  0  0  0
  178.9770  177.1630  137.4190 C   0  0  0  0  0  1  0  0  0  0  0  0
  178.9530  177.9180  138.6600 N   0  0  0  0  0  2  0  0  0  0  0  0
  1 14  1  0  0  0  0
  3 13  1  0  0  0  0
  3 10  2  0  0  0  0
  4 14  2  0  0  0  0
  4  5  1  0  0  0  0
  7  2  1  6  0  0  0
  7  5  1  0  0  0  0
  9  6  1  6  0  0  0
  9 10  1  0  0  0  0
  9  7  1  0  0  0  0
 10  4  1  0  0  0  0
 11 31  1  6  0  0  0
 11  2  1  0  0  0  0
 12  8  1  6  0  0  0
 12  6  1  0  0  0  0
 12 11  1  0  0  0  0
 13  1  2  0  0  0  0
 14 15  1  0  0  0  0
 15 16  2  0  0  0  0
 15 17  1  0  0  0  0
 16 18  1  0  0  0  0
 17 19  2  0  0  0  0
 18 20  2  0  0  0  0
 19 20  1  0  0  0  0
 21 22  1  0  0  0  0
 21 13  1  0  0  0  0
 23 22  1  0  0  0  0
 23 24  1  0  0  0  0
 24 25  1  0  0  0  0
 25 28  1  0  0  0  0
 27 26  1  0  0  0  0
 28 29  1  0  0  0  0
 29 27  1  0  0  0  0
 30 29  2  0  0  0  0
 31 37  1  1  0  0  0
 31 33  1  0  0  0  0
 32 35  1  0  0  0  0
 33 32  1  0  0  0  0
 34 33  2  0  0  0  0
 36 37  1  0  0  0  0
M  END
>  <MODEL>
2

>  <REMARK>
 VINA RESULT:      -8.0      2.148      4.768
  Name = 
  10 active torsions:
  status: ('A' for Active; 'I' for Inactive)
    1  A    between atoms: C_3  and  C_34
    2  A    between atoms: C_5  and  C_9
    3  A    between atoms: C_8  and  C_29
    4  A    between atoms: C_8  and  C_30
    5  A    between atoms: C_9  and  C_24
    6  A    between atoms: C_9  and  N_33
    7  A    between atoms: C_12  and  C_28
    8  A    between atoms: C_12  and  C_37
    9  A    between atoms: N_26  and  C_28
   10  A    between atoms: C_30  and  C_37
                            x       y       z     vdW  Elec       q    Type
                         _______ _______ _______ _____ _____    ______ ____

>  <TORSDO>
F 10

$$$$
=
 OpenBabel10222421173D

 37 40  0  0  1  0  0  0  0  0999 V2000
  185.5090  178.5100  143.6220 C   0  0  0  0  0  3  0  0  0  0  0  0
  182.3500  177.9700  138.2860 C   0  0  0  0  0  2  0  0  0  0  0  0
  183.1410  178.7010  143.1290 C   0  0  0  0  0  3  0  0  0  0  0  0
  184.7300  178.2790  141.3450 C   0  0  0  0  0  0  0  0  0  0  0  0
  184.8520  178.1060  139.5590 S   0  0  0  0  0  0  0  0  0  0  0  0
  181.1750  177.9080  141.0710 O   0  0  0  0  0  0  0  0  0  0  0  0
  183.0880  177.6560  139.5780 C   0  0  1  0  0  3  0  0  0  0  0  0
  178.9310  177.5790  140.2150 C   0  0  0  0  0  1  0  0  0  0  0  0
  182.4270  178.4490  140.6940 C   0  0  2  0  0  3  0  0  0  0  0  0
  183.4260  178.4590  141.7860 C   0  0  0  0  0  0  0  0  0  0  0  0
  180.8270  178.0280  138.5420 C   0  0  1  0  0  3  0  0  0  0  0  0
  180.4200  177.4650  139.9420 C   0  0  1  0  0  3  0  0  0  0  0  0
  184.1910  178.7210  144.0520 C   0  0  0  0  0  0  0  0  0  0  0  0
  185.8040  178.2740  142.2650 C   0  0  0  0  0  0  0  0  0  0  0  0
  187.2180  178.0510  141.8710 C   0  0  0  0  0  0  0  0  0  0  0  0
  187.7460  178.6130  140.7010 C   0  0  0  0  0  3  0  0  0  0  0  0
  188.0400  177.2220  142.6480 C   0  0  0  0  0  3  0  0  0  0  0  0
  189.0710  178.3580  140.3430 C   0  0  0  0  0  3  0  0  0  0  0  0
  189.3600  176.9900  142.2580 C   0  0  0  0  0  3  0  0  0  0  0  0
  189.8470  177.5600  141.1230 N   0  0  0  0  0  0  0  0  0  0  0  0
  183.9140  178.9970  145.4890 C   0  0  0  0  0  2  0  0  0  0  0  0
  184.8990  178.2390  146.3630 C   0  0  0  0  0  2  0  0  0  0  0  0
  185.8450  179.2060  147.0600 C   0  0  0  0  0  2  0  0  0  0  0  0
  186.9800  178.4680  147.7530 C   0  0  0  0  0  2  0  0  0  0  0  0
  187.8560  177.7610  146.7310 C   0  0  0  0  0  2  0  0  0  0  0  0
  192.4240  175.6250  146.9630 C   0  0  0  0  0  1  0  0  0  0  0  0
  191.1330  175.9720  147.5320 N   0  0  0  0  0  2  0  0  0  0  0  0
  188.8970  177.0020  147.4070 N   0  0  0  0  0  2  0  0  0  0  0  0
  190.1500  176.6950  146.7920 C   0  0  0  0  0  0  0  0  0  0  0  0
  190.3830  177.0550  145.6060 O   0  0  0  0  0  0  0  0  0  0  0  0
  180.2140  179.4030  138.2090 C   0  0  1  0  0  3  0  0  0  0  0  0
  182.0860  181.0990  138.2140 N   0  0  0  0  0  2  0  0  0  0  0  0
  180.9320  180.5530  138.8480 C   0  0  0  0  0  0  0  0  0  0  0  0
  180.5040  181.0550  139.9220 O   0  0  0  0  0  0  0  0  0  0  0  0
  182.7300  182.1640  138.7440 O   0  0  0  0  0  1  0  0  0  0  0  0
  178.9670  178.8450  136.3090 C   0  0  0  0  0  1  0  0  0  0  0  0
  180.1260  179.5910  136.7690 N   0  0  0  0  0  2  0  0  0  0  0  0
  1 13  1  0  0  0  0
  2 11  1  0  0  0  0
  3 13  2  0  0  0  0
  4 10  2  0  0  0  0
  4 14  1  0  0  0  0
  5  7  1  0  0  0  0
  5  4  1  0  0  0  0
  7  2  1  6  0  0  0
  7  9  1  0  0  0  0
  9  6  1  1  0  0  0
  9 10  1  0  0  0  0
 10  3  1  0  0  0  0
 11 31  1  1  0  0  0
 11 12  1  0  0  0  0
 12  8  1  1  0  0  0
 12  6  1  0  0  0  0
 13 21  1  0  0  0  0
 14  1  2  0  0  0  0
 15 14  1  0  0  0  0
 15 17  1  0  0  0  0
 16 15  2  0  0  0  0
 18 16  1  0  0  0  0
 18 20  2  0  0  0  0
 19 17  2  0  0  0  0
 20 19  1  0  0  0  0
 21 22  1  0  0  0  0
 22 23  1  0  0  0  0
 23 24  1  0  0  0  0
 25 28  1  0  0  0  0
 25 24  1  0  0  0  0
 26 27  1  0  0  0  0
 29 28  1  0  0  0  0
 29 27  1  0  0  0  0
 30 29  2  0  0  0  0
 31 37  1  6  0  0  0
 31 33  1  0  0  0  0
 32 35  1  0  0  0  0
 32 33  1  0  0  0  0
 33 34  2  0  0  0  0
 36 37  1  0  0  0  0
M  END
>  <MODEL>
3

>  <REMARK>
 VINA RESULT:      -7.9      1.622      2.062
  Name = 
  10 active torsions:
  status: ('A' for Active; 'I' for Inactive)
    1  A    between atoms: C_3  and  C_34
    2  A    between atoms: C_5  and  C_9
    3  A    between atoms: C_8  and  C_29
    4  A    between atoms: C_8  and  C_30
    5  A    between atoms: C_9  and  C_24
    6  A    between atoms: C_9  and  N_33
    7  A    between atoms: C_12  and  C_28
    8  A    between atoms: C_12  and  C_37
    9  A    between atoms: N_26  and  C_28
   10  A    between atoms: C_30  and  C_37
                            x       y       z     vdW  Elec       q    Type
                         _______ _______ _______ _____ _____    ______ ____

>  <TORSDO>
F 10

$$$$
=
 OpenBabel10222421173D

 37 40  0  0  1  0  0  0  0  0999 V2000
  186.4550  178.1480  143.4920 C   0  0  0  0  0  3  0  0  0  0  0  0
  182.3740  179.0160  138.8740 C   0  0  0  0  0  2  0  0  0  0  0  0
  184.0820  178.6510  143.5170 C   0  0  0  0  0  3  0  0  0  0  0  0
  185.2700  178.4670  141.4090 C   0  0  0  0  0  0  0  0  0  0  0  0
  185.0560  178.6580  139.6340 S   0  0  0  0  0  0  0  0  0  0  0  0
  181.7040  178.4840  141.7730 O   0  0  0  0  0  0  0  0  0  0  0  0
  183.2800  178.3760  139.9130 C   0  0  1  0  0  3  0  0  0  0  0  0
  179.3210  178.5440  141.3260 C   0  0  0  0  0  1  0  0  0  0  0  0
  182.9300  178.9760  141.2660 C   0  0  2  0  0  3  0  0  0  0  0  0
  184.0960  178.6680  142.1230 C   0  0  0  0  0  0  0  0  0  0  0  0
  180.9400  179.1580  139.4290 C   0  0  1  0  0  3  0  0  0  0  0  0
  180.7140  178.3550  140.7510 C   0  0  1  0  0  3  0  0  0  0  0  0
  185.2710  178.3840  144.2040 C   0  0  0  0  0  0  0  0  0  0  0  0
  186.4780  178.1740  142.0840 C   0  0  0  0  0  0  0  0  0  0  0  0
  187.7610  177.9100  141.3860 C   0  0  0  0  0  0  0  0  0  0  0  0
  188.7870  177.1770  141.9970 C   0  0  0  0  0  3  0  0  0  0  0  0
  187.9860  178.4430  140.1070 C   0  0  0  0  0  3  0  0  0  0  0  0
  189.9930  176.9740  141.3240 C   0  0  0  0  0  3  0  0  0  0  0  0
  189.2050  178.2180  139.4660 C   0  0  0  0  0  3  0  0  0  0  0  0
  190.1770  177.4920  140.0810 N   0  0  0  0  0  0  0  0  0  0  0  0
  185.2850  178.3780  145.6920 C   0  0  0  0  0  2  0  0  0  0  0  0
  186.6530  177.9510  146.1980 C   0  0  0  0  0  2  0  0  0  0  0  0
  186.8640  178.4260  147.6280 C   0  0  0  0  0  2  0  0  0  0  0  0
  187.9040  177.5780  148.3450 C   0  0  0  0  0  2  0  0  0  0  0  0
  189.2890  178.1800  148.1740 C   0  0  0  0  0  2  0  0  0  0  0  0
  191.7580  176.1210  144.2810 C   0  0  0  0  0  1  0  0  0  0  0  0
  191.4110  176.2020  145.6900 N   0  0  0  0  0  2  0  0  0  0  0  0
  190.1890  177.2010  147.5840 N   0  0  0  0  0  2  0  0  0  0  0  0
  190.4930  177.1760  146.1880 C   0  0  0  0  0  0  0  0  0  0  0  0
  189.9510  178.0010  145.4020 O   0  0  0  0  0  0  0  0  0  0  0  0
  180.4590  180.6220  139.4860 C   0  0  1  0  0  3  0  0  0  0  0  0
  180.7420  182.5860  137.9230 N   0  0  0  0  0  2  0  0  0  0  0  0
  181.3370  181.5740  138.7320 C   0  0  0  0  0  0  0  0  0  0  0  0
  182.5920  181.5030  138.8340 O   0  0  0  0  0  0  0  0  0  0  0  0
  181.5070  183.4870  137.2650 O   0  0  0  0  0  1  0  0  0  0  0  0
  178.9310  179.8310  137.8990 C   0  0  0  0  0  1  0  0  0  0  0  0
  179.0800  180.7280  139.0320 N   0  0  0  0  0  2  0  0  0  0  0  0
  1 13  1  0  0  0  0
  2 11  1  0  0  0  0
  3 13  2  0  0  0  0
  4 14  1  0  0  0  0
  4 10  2  0  0  0  0
  5  7  1  0  0  0  0
  5  4  1  0  0  0  0
  7  2  1  6  0  0  0
  7  9  1  0  0  0  0
  9  6  1  1  0  0  0
  9 10  1  0  0  0  0
 10  3  1  0  0  0  0
 11 31  1  1  0  0  0
 11 12  1  0  0  0  0
 12  8  1  1  0  0  0
 12  6  1  0  0  0  0
 13 21  1  0  0  0  0
 14  1  2  0  0  0  0
 15 16  1  0  0  0  0
 15 14  1  0  0  0  0
 17 15  2  0  0  0  0
 18 16  2  0  0  0  0
 19 20  2  0  0  0  0
 19 17  1  0  0  0  0
 20 18  1  0  0  0  0
 21 22  1  0  0  0  0
 22 23  1  0  0  0  0
 23 24  1  0  0  0  0
 25 24  1  0  0  0  0
 26 27  1  0  0  0  0
 27 29  1  0  0  0  0
 28 25  1  0  0  0  0
 29 28  1  0  0  0  0
 30 29  2  0  0  0  0
 31 33  1  6  0  0  0
 32 33  1  0  0  0  0
 33 34  2  0  0  0  0
 35 32  1  0  0  0  0
 36 37  1  0  0  0  0
 37 31  1  0  0  0  0
M  END
>  <MODEL>
4

>  <REMARK>
 VINA RESULT:      -7.8      1.286      1.589
  Name = 
  10 active torsions:
  status: ('A' for Active; 'I' for Inactive)
    1  A    between atoms: C_3  and  C_34
    2  A    between atoms: C_5  and  C_9
    3  A    between atoms: C_8  and  C_29
    4  A    between atoms: C_8  and  C_30
    5  A    between atoms: C_9  and  C_24
    6  A    between atoms: C_9  and  N_33
    7  A    between atoms: C_12  and  C_28
    8  A    between atoms: C_12  and  C_37
    9  A    between atoms: N_26  and  C_28
   10  A    between atoms: C_30  and  C_37
                            x       y       z     vdW  Elec       q    Type
                         _______ _______ _______ _____ _____    ______ ____

>  <TORSDO>
F 10

$$$$
=
 OpenBabel10222421173D

 37 40  0  0  1  0  0  0  0  0999 V2000
  188.8280  177.8990  142.3620 C   0  0  0  0  0  3  0  0  0  0  0  0
  190.3020  176.3260  136.5230 C   0  0  0  0  0  2  0  0  0  0  0  0
  190.8430  176.9340  141.4170 C   0  0  0  0  0  3  0  0  0  0  0  0
  188.9270  177.3910  140.0000 C   0  0  0  0  0  0  0  0  0  0  0  0
  188.3220  177.1950  138.3180 S   0  0  0  0  0  0  0  0  0  0  0  0
  192.2330  176.6580  138.8250 O   0  0  0  0  0  0  0  0  0  0  0  0
  190.0660  177.1130  137.8020 C   0  0  1  0  0  3  0  0  0  0  0  0
  194.1390  176.1330  137.4200 C   0  0  0  0  0  1  0  0  0  0  0  0
  190.8400  176.4290  138.9180 C   0  0  2  0  0  3  0  0  0  0  0  0
  190.2330  176.9460  140.1640 C   0  0  0  0  0  0  0  0  0  0  0  0
  191.7810  175.8910  136.4290 C   0  0  1  0  0  3  0  0  0  0  0  0
  192.6970  176.6070  137.4750 C   0  0  1  0  0  3  0  0  0  0  0  0
  190.1350  177.4190  142.5210 C   0  0  0  0  0  0  0  0  0  0  0  0
  188.2020  177.9060  141.1000 C   0  0  0  0  0  0  0  0  0  0  0  0
  186.8180  178.4330  140.9930 C   0  0  0  0  0  0  0  0  0  0  0  0
  186.0470  178.6960  142.1330 C   0  0  0  0  0  3  0  0  0  0  0  0
  186.2380  178.6280  139.7300 C   0  0  0  0  0  3  0  0  0  0  0  0
  184.7390  179.1620  141.9960 C   0  0  0  0  0  3  0  0  0  0  0  0
  184.9260  179.0950  139.6330 C   0  0  0  0  0  3  0  0  0  0  0  0
  184.2080  179.3530  140.7580 N   0  0  0  0  0  0  0  0  0  0  0  0
  190.7590  177.3980  143.8730 C   0  0  0  0  0  2  0  0  0  0  0  0
  189.9050  178.1850  144.8520 C   0  0  0  0  0  2  0  0  0  0  0  0
  189.2730  177.2530  145.8760 C   0  0  0  0  0  2  0  0  0  0  0  0
  189.3330  177.8450  147.2760 C   0  0  0  0  0  2  0  0  0  0  0  0
  187.9470  177.8780  147.8980 C   0  0  0  0  0  2  0  0  0  0  0  0
  183.7580  179.0060  145.3130 C   0  0  0  0  0  1  0  0  0  0  0  0
  184.9040  178.1610  145.6060 N   0  0  0  0  0  2  0  0  0  0  0  0
  186.9390  177.6070  146.8830 N   0  0  0  0  0  2  0  0  0  0  0  0
  185.8340  178.4810  146.6410 C   0  0  0  0  0  0  0  0  0  0  0  0
  185.6790  179.5210  147.3380 O   0  0  0  0  0  0  0  0  0  0  0  0
  191.9560  174.3600  136.3770 C   0  0  1  0  0  3  0  0  0  0  0  0
  190.0540  173.1080  135.2830 N   0  0  0  0  0  2  0  0  0  0  0  0
  190.6660  173.6030  136.4720 C   0  0  0  0  0  0  0  0  0  0  0  0
  190.1380  173.3780  137.5950 O   0  0  0  0  0  0  0  0  0  0  0  0
  188.9120  172.3850  135.3410 O   0  0  0  0  0  1  0  0  0  0  0  0
  193.6320  172.9320  135.5850 C   0  0  0  0  0  1  0  0  0  0  0  0
  192.6930  173.9670  135.1860 N   0  0  0  0  0  2  0  0  0  0  0  0
  1 13  1  0  0  0  0
  3 13  2  0  0  0  0
  4 10  2  0  0  0  0
  4 14  1  0  0  0  0
  5  4  1  0  0  0  0
  7  2  1  6  0  0  0
  7  5  1  0  0  0  0
  7  9  1  0  0  0  0
  9  6  1  1  0  0  0
  9 10  1  0  0  0  0
 10  3  1  0  0  0  0
 11 31  1  1  0  0  0
 11  2  1  0  0  0  0
 11 12  1  0  0  0  0
 12  8  1  1  0  0  0
 12  6  1  0  0  0  0
 13 21  1  0  0  0  0
 14  1  2  0  0  0  0
 15 14  1  0  0  0  0
 15 16  1  0  0  0  0
 17 15  2  0  0  0  0
 18 16  2  0  0  0  0
 19 17  1  0  0  0  0
 19 20  2  0  0  0  0
 20 18  1  0  0  0  0
 21 22  1  0  0  0  0
 22 23  1  0  0  0  0
 23 24  1  0  0  0  0
 24 25  1  0  0  0  0
 26 27  1  0  0  0  0
 27 29  1  0  0  0  0
 28 25  1  0  0  0  0
 29 28  1  0  0  0  0
 29 30  2  0  0  0  0
 31 37  1  6  0  0  0
 31 33  1  0  0  0  0
 32 35  1  0  0  0  0
 32 33  1  0  0  0  0
 33 34  2  0  0  0  0
 37 36  1  0  0  0  0
M  END
>  <MODEL>
5

>  <REMARK>
 VINA RESULT:      -7.7      4.702      8.752
  Name = 
  10 active torsions:
  status: ('A' for Active; 'I' for Inactive)
    1  A    between atoms: C_3  and  C_34
    2  A    between atoms: C_5  and  C_9
    3  A    between atoms: C_8  and  C_29
    4  A    between atoms: C_8  and  C_30
    5  A    between atoms: C_9  and  C_24
    6  A    between atoms: C_9  and  N_33
    7  A    between atoms: C_12  and  C_28
    8  A    between atoms: C_12  and  C_37
    9  A    between atoms: N_26  and  C_28
   10  A    between atoms: C_30  and  C_37
                            x       y       z     vdW  Elec       q    Type
                         _______ _______ _______ _____ _____    ______ ____

>  <TORSDO>
F 10

$$$$
=
 OpenBabel10222421173D

 37 40  0  0  1  0  0  0  0  0999 V2000
  183.8320  178.7790  144.0070 C   0  0  0  0  0  3  0  0  0  0  0  0
  185.2150  178.0090  137.9880 C   0  0  0  0  0  2  0  0  0  0  0  0
  185.9380  178.3400  142.8850 C   0  0  0  0  0  3  0  0  0  0  0  0
  183.8800  178.4870  141.6080 C   0  0  0  0  0  0  0  0  0  0  0  0
  183.2200  178.2970  139.9460 S   0  0  0  0  0  0  0  0  0  0  0  0
  187.1820  178.5670  140.2140 O   0  0  0  0  0  0  0  0  0  0  0  0
  184.9040  178.6270  139.3410 C   0  0  1  0  0  3  0  0  0  0  0  0
  189.0580  178.5690  138.6780 C   0  0  0  0  0  1  0  0  0  0  0  0
  185.8750  178.0400  140.3540 C   0  0  2  0  0  3  0  0  0  0  0  0
  185.2570  178.3190  141.6690 C   0  0  0  0  0  0  0  0  0  0  0  0
  186.7430  177.9070  137.7840 C   0  0  1  0  0  3  0  0  0  0  0  0
  187.5560  178.7190  138.8440 C   0  0  1  0  0  3  0  0  0  0  0  0
  185.2190  178.5770  144.0600 C   0  0  0  0  0  0  0  0  0  0  0  0
  183.1370  178.7490  142.7830 C   0  0  0  0  0  0  0  0  0  0  0  0
  181.6700  178.9770  142.7890 C   0  0  0  0  0  0  0  0  0  0  0  0
  181.0230  179.5920  141.7090 C   0  0  0  0  0  3  0  0  0  0  0  0
  180.9100  178.6190  143.9130 C   0  0  0  0  0  3  0  0  0  0  0  0
  179.6460  179.8180  141.7610 C   0  0  0  0  0  3  0  0  0  0  0  0
  179.5350  178.8610  143.9280 C   0  0  0  0  0  3  0  0  0  0  0  0
  178.9350  179.4500  142.8590 N   0  0  0  0  0  0  0  0  0  0  0  0
  185.9210  178.5860  145.3730 C   0  0  0  0  0  2  0  0  0  0  0  0
  186.9350  177.4560  145.4280 C   0  0  0  0  0  2  0  0  0  0  0  0
  187.5700  177.3770  146.8080 C   0  0  0  0  0  2  0  0  0  0  0  0
  188.9810  177.9470  146.8020 C   0  0  0  0  0  2  0  0  0  0  0  0
  189.9910  176.8610  146.4700 C   0  0  0  0  0  2  0  0  0  0  0  0
  191.5960  177.4210  141.7160 C   0  0  0  0  0  1  0  0  0  0  0  0
  191.7100  177.6350  143.1490 N   0  0  0  0  0  2  0  0  0  0  0  0
  190.9310  177.3430  145.4690 N   0  0  0  0  0  2  0  0  0  0  0  0
  190.7600  177.1020  144.0710 C   0  0  0  0  0  0  0  0  0  0  0  0
  189.7840  176.4180  143.6560 O   0  0  0  0  0  0  0  0  0  0  0  0
  187.2280  176.4570  137.5880 C   0  0  1  0  0  3  0  0  0  0  0  0
  185.8610  175.8660  135.5480 N   0  0  0  0  0  2  0  0  0  0  0  0
  186.2330  175.5770  136.8930 C   0  0  0  0  0  0  0  0  0  0  0  0
  185.7480  174.5730  137.4810 O   0  0  0  0  0  0  0  0  0  0  0  0
  184.9980  175.0660  134.8800 O   0  0  0  0  0  1  0  0  0  0  0  0
  189.1670  175.1900  137.2560 C   0  0  0  0  0  1  0  0  0  0  0  0
  188.5060  176.4320  136.8930 N   0  0  0  0  0  2  0  0  0  0  0  0
  1 13  1  0  0  0  0
  3 13  2  0  0  0  0
  4 10  2  0  0  0  0
  4 14  1  0  0  0  0
  5  4  1  0  0  0  0
  7  2  1  6  0  0  0
  7  5  1  0  0  0  0
  7  9  1  0  0  0  0
  9  6  1  1  0  0  0
  9 10  1  0  0  0  0
 10  3  1  0  0  0  0
 11 31  1  1  0  0  0
 11  2  1  0  0  0  0
 11 12  1  0  0  0  0
 12  8  1  1  0  0  0
 12  6  1  0  0  0  0
 13 21  1  0  0  0  0
 14 15  1  0  0  0  0
 14  1  2  0  0  0  0
 15 17  1  0  0  0  0
 16 18  1  0  0  0  0
 16 15  2  0  0  0  0
 17 19  2  0  0  0  0
 18 20  2  0  0  0  0
 20 19  1  0  0  0  0
 21 22  1  0  0  0  0
 22 23  1  0  0  0  0
 24 23  1  0  0  0  0
 25 24  1  0  0  0  0
 26 27  1  0  0  0  0
 27 29  1  0  0  0  0
 28 25  1  0  0  0  0
 29 28  1  0  0  0  0
 30 29  2  0  0  0  0
 31 37  1  6  0  0  0
 32 33  1  0  0  0  0
 33 34  2  0  0  0  0
 33 31  1  0  0  0  0
 35 32  1  0  0  0  0
 37 36  1  0  0  0  0
M  END
>  <MODEL>
6

>  <REMARK>
 VINA RESULT:      -7.5      3.343      6.183
  Name = 
  10 active torsions:
  status: ('A' for Active; 'I' for Inactive)
    1  A    between atoms: C_3  and  C_34
    2  A    between atoms: C_5  and  C_9
    3  A    between atoms: C_8  and  C_29
    4  A    between atoms: C_8  and  C_30
    5  A    between atoms: C_9  and  C_24
    6  A    between atoms: C_9  and  N_33
    7  A    between atoms: C_12  and  C_28
    8  A    between atoms: C_12  and  C_37
    9  A    between atoms: N_26  and  C_28
   10  A    between atoms: C_30  and  C_37
                            x       y       z     vdW  Elec       q    Type
                         _______ _______ _______ _____ _____    ______ ____

>  <TORSDO>
F 10

$$$$
=
 OpenBabel10222421173D

 37 40  0  0  1  0  0  0  0  0999 V2000
  186.4440  178.7140  138.7170 C   0  0  0  0  0  3  0  0  0  0  0  0
  187.7170  177.1780  144.6120 C   0  0  0  0  0  2  0  0  0  0  0  0
  188.5190  178.0750  139.7990 C   0  0  0  0  0  3  0  0  0  0  0  0
  186.4720  178.2570  141.0900 C   0  0  0  0  0  0  0  0  0  0  0  0
  185.8360  178.1600  142.7700 S   0  0  0  0  0  0  0  0  0  0  0  0
  189.4860  176.6740  142.2140 O   0  0  0  0  0  0  0  0  0  0  0  0
  187.2820  177.1240  143.1570 C   0  0  1  0  0  3  0  0  0  0  0  0
  191.1780  175.5960  143.5760 C   0  0  0  0  0  1  0  0  0  0  0  0
  188.4400  177.6230  142.3070 C   0  0  2  0  0  3  0  0  0  0  0  0
  187.8270  177.9650  141.0050 C   0  0  0  0  0  0  0  0  0  0  0  0
  189.1790  176.6990  144.7510 C   0  0  1  0  0  3  0  0  0  0  0  0
  189.7220  176.0110  143.4570 C   0  0  1  0  0  3  0  0  0  0  0  0
  187.8180  178.4480  138.6480 C   0  0  0  0  0  0  0  0  0  0  0  0
  185.7420  178.6140  139.9330 C   0  0  0  0  0  0  0  0  0  0  0  0
  184.2850  178.9020  139.9430 C   0  0  0  0  0  0  0  0  0  0  0  0
  183.4160  178.2390  140.8190 C   0  0  0  0  0  3  0  0  0  0  0  0
  183.7450  179.8180  139.0270 C   0  0  0  0  0  3  0  0  0  0  0  0
  182.0480  178.5120  140.7810 C   0  0  0  0  0  3  0  0  0  0  0  0
  182.3710  180.0640  139.0180 C   0  0  0  0  0  3  0  0  0  0  0  0
  181.5560  179.4130  139.8900 N   0  0  0  0  0  0  0  0  0  0  0  0
  188.5390  178.5900  137.3520 C   0  0  0  0  0  2  0  0  0  0  0  0
  187.6000  178.2790  136.1990 C   0  0  0  0  0  2  0  0  0  0  0  0
  187.9870  176.9650  135.5370 C   0  0  0  0  0  2  0  0  0  0  0  0
  187.3700  175.7770  136.2610 C   0  0  0  0  0  2  0  0  0  0  0  0
  188.4560  174.8690  136.8130 C   0  0  0  0  0  2  0  0  0  0  0  0
  193.1290  176.3840  137.9780 C   0  0  0  0  0  1  0  0  0  0  0  0
  192.0570  176.1220  137.0320 N   0  0  0  0  0  2  0  0  0  0  0  0
  189.7680  175.3970  136.4720 N   0  0  0  0  0  2  0  0  0  0  0  0
  190.7840  175.6310  137.4510 C   0  0  0  0  0  0  0  0  0  0  0  0
  190.5550  175.4120  138.6720 O   0  0  0  0  0  0  0  0  0  0  0  0
  190.1120  177.7790  145.3350 C   0  0  1  0  0  3  0  0  0  0  0  0
  191.8950  176.8200  146.8430 N   0  0  0  0  0  2  0  0  0  0  0  0
  190.6270  177.4540  146.7040 C   0  0  0  0  0  0  0  0  0  0  0  0
  189.9600  177.7650  147.7280 O   0  0  0  0  0  0  0  0  0  0  0  0
  192.4060  176.5520  148.0680 O   0  0  0  0  0  1  0  0  0  0  0  0
  191.0950  179.4400  144.0110 C   0  0  0  0  0  1  0  0  0  0  0  0
  191.2140  178.0520  144.4240 N   0  0  0  0  0  2  0  0  0  0  0  0
  1 14  1  0  0  0  0
  2 11  1  0  0  0  0
  3 10  2  0  0  0  0
  4  5  1  0  0  0  0
  5  7  1  0  0  0  0
  6  9  1  0  0  0  0
  6 12  1  0  0  0  0
  7  2  1  1  0  0  0
  9 10  1  6  0  0  0
  9  7  1  0  0  0  0
 10  4  1  0  0  0  0
 11 31  1  6  0  0  0
 12  8  1  1  0  0  0
 12 11  1  0  0  0  0
 13  1  2  0  0  0  0
 13  3  1  0  0  0  0
 14 15  1  0  0  0  0
 14  4  2  0  0  0  0
 15 16  1  0  0  0  0
 17 15  2  0  0  0  0
 18 16  2  0  0  0  0
 19 17  1  0  0  0  0
 19 20  2  0  0  0  0
 20 18  1  0  0  0  0
 21 13  1  0  0  0  0
 22 21  1  0  0  0  0
 23 22  1  0  0  0  0
 23 24  1  0  0  0  0
 24 25  1  0  0  0  0
 27 29  1  0  0  0  0
 27 26  1  0  0  0  0
 28 25  1  0  0  0  0
 28 29  1  0  0  0  0
 29 30  2  0  0  0  0
 31 37  1  6  0  0  0
 31 33  1  0  0  0  0
 32 35  1  0  0  0  0
 33 32  1  0  0  0  0
 33 34  2  0  0  0  0
 36 37  1  0  0  0  0
M  END
>  <MODEL>
7

>  <REMARK>
 VINA RESULT:      -7.4      3.582      9.442
  Name = 
  10 active torsions:
  status: ('A' for Active; 'I' for Inactive)
    1  A    between atoms: C_3  and  C_34
    2  A    between atoms: C_5  and  C_9
    3  A    between atoms: C_8  and  C_29
    4  A    between atoms: C_8  and  C_30
    5  A    between atoms: C_9  and  C_24
    6  A    between atoms: C_9  and  N_33
    7  A    between atoms: C_12  and  C_28
    8  A    between atoms: C_12  and  C_37
    9  A    between atoms: N_26  and  C_28
   10  A    between atoms: C_30  and  C_37
                            x       y       z     vdW  Elec       q    Type
                         _______ _______ _______ _____ _____    ______ ____

>  <TORSDO>
F 10

$$$$
=
 OpenBabel10222421173D

 37 40  0  0  1  0  0  0  0  0999 V2000
  187.2350  178.4100  142.2540 C   0  0  0  0  0  3  0  0  0  0  0  0
  181.0690  178.8010  141.5010 C   0  0  0  0  0  2  0  0  0  0  0  0
  185.8690  178.6160  140.2600 C   0  0  0  0  0  3  0  0  0  0  0  0
  184.8260  178.4660  142.4450 C   0  0  0  0  0  0  0  0  0  0  0  0
  183.2220  178.3610  143.2520 S   0  0  0  0  0  0  0  0  0  0  0  0
  183.1670  179.4800  139.4330 O   0  0  0  0  0  0  0  0  0  0  0  0
  182.5270  179.1420  141.7630 C   0  0  1  0  0  3  0  0  0  0  0  0
  181.4860  180.1150  137.8050 C   0  0  0  0  0  1  0  0  0  0  0  0
  183.3390  178.6570  140.5730 C   0  0  2  0  0  3  0  0  0  0  0  0
  184.7330  178.6070  141.0670 C   0  0  0  0  0  0  0  0  0  0  0  0
  180.7130  179.0760  140.0230 C   0  0  1  0  0  3  0  0  0  0  0  0
  181.8110  179.8980  139.2730 C   0  0  1  0  0  3  0  0  0  0  0  0
  187.1280  178.5210  140.8600 C   0  0  0  0  0  0  0  0  0  0  0  0
  186.0910  178.3910  143.0740 C   0  0  0  0  0  0  0  0  0  0  0  0
  186.2680  178.2780  144.5440 C   0  0  0  0  0  0  0  0  0  0  0  0
  185.4740  179.0160  145.4330 C   0  0  0  0  0  3  0  0  0  0  0  0
  187.2780  177.4580  145.0670 C   0  0  0  0  0  3  0  0  0  0  0  0
  185.6870  178.9090  146.8080 C   0  0  0  0  0  3  0  0  0  0  0  0
  187.4620  177.3770  146.4490 C   0  0  0  0  0  3  0  0  0  0  0  0
  186.6670  178.0970  147.2860 N   0  0  0  0  0  0  0  0  0  0  0  0
  188.3560  178.5090  140.0180 C   0  0  0  0  0  2  0  0  0  0  0  0
  189.1750  177.2640  140.3100 C   0  0  0  0  0  2  0  0  0  0  0  0
  189.8660  176.7730  139.0470 C   0  0  0  0  0  2  0  0  0  0  0  0
  189.2480  177.3890  137.8010 C   0  0  0  0  0  2  0  0  0  0  0  0
  188.4730  176.3410  137.0200 C   0  0  0  0  0  2  0  0  0  0  0  0
  183.4840  177.0970  136.8410 C   0  0  0  0  0  1  0  0  0  0  0  0
  184.6860  176.5680  137.4630 N   0  0  0  0  0  2  0  0  0  0  0  0
  187.1250  176.2180  137.5540 N   0  0  0  0  0  2  0  0  0  0  0  0
  185.9800  176.7580  136.8900 C   0  0  0  0  0  0  0  0  0  0  0  0
  186.1120  177.4020  135.8140 O   0  0  0  0  0  0  0  0  0  0  0  0
  180.2430  177.8130  139.2730 C   0  0  1  0  0  3  0  0  0  0  0  0
  179.1380  176.3030  140.9690 N   0  0  0  0  0  2  0  0  0  0  0  0
  180.2480  176.5750  140.1170 C   0  0  0  0  0  0  0  0  0  0  0  0
  181.2100  175.7620  140.0530 O   0  0  0  0  0  0  0  0  0  0  0  0
  179.0930  175.1720  141.7100 O   0  0  0  0  0  1  0  0  0  0  0  0
  178.9310  177.3630  137.3880 C   0  0  0  0  0  1  0  0  0  0  0  0
  178.9310  178.0260  138.6820 N   0  0  0  0  0  2  0  0  0  0  0  0
  1 14  1  0  0  0  0
  3 13  1  0  0  0  0
  3 10  2  0  0  0  0
  4 14  2  0  0  0  0
  4  5  1  0  0  0  0
  7  2  1  6  0  0  0
  7  5  1  0  0  0  0
  9  6  1  6  0  0  0
  9 10  1  0  0  0  0
  9  7  1  0  0  0  0
 10  4  1  0  0  0  0
 11 31  1  6  0  0  0
 11  2  1  0  0  0  0
 12  8  1  6  0  0  0
 12  6  1  0  0  0  0
 12 11  1  0  0  0  0
 13  1  2  0  0  0  0
 14 15  1  0  0  0  0
 15 17  2  0  0  0  0
 15 16  1  0  0  0  0
 16 18  2  0  0  0  0
 17 19  1  0  0  0  0
 18 20  1  0  0  0  0
 19 20  2  0  0  0  0
 21 22  1  0  0  0  0
 21 13  1  0  0  0  0
 23 22  1  0  0  0  0
 24 23  1  0  0  0  0
 25 28  1  0  0  0  0
 25 24  1  0  0  0  0
 26 27  1  0  0  0  0
 29 27  1  0  0  0  0
 29 28  1  0  0  0  0
 30 29  2  0  0  0  0
 31 37  1  1  0  0  0
 31 33  1  0  0  0  0
 32 35  1  0  0  0  0
 33 32  1  0  0  0  0
 34 33  2  0  0  0  0
 36 37  1  0  0  0  0
M  END
>  <MODEL>
8

>  <REMARK>
 VINA RESULT:      -7.4      3.010      6.254
  Name = 
  10 active torsions:
  status: ('A' for Active; 'I' for Inactive)
    1  A    between atoms: C_3  and  C_34
    2  A    between atoms: C_5  and  C_9
    3  A    between atoms: C_8  and  C_29
    4  A    between atoms: C_8  and  C_30
    5  A    between atoms: C_9  and  C_24
    6  A    between atoms: C_9  and  N_33
    7  A    between atoms: C_12  and  C_28
    8  A    between atoms: C_12  and  C_37
    9  A    between atoms: N_26  and  C_28
   10  A    between atoms: C_30  and  C_37
                            x       y       z     vdW  Elec       q    Type
                         _______ _______ _______ _____ _____    ______ ____

>  <TORSDO>
F 10

$$$$
=
 OpenBabel10222421173D

 37 40  0  0  1  0  0  0  0  0999 V2000
  188.1580  178.1150  139.9320 C   0  0  0  0  0  3  0  0  0  0  0  0
  182.1160  178.5140  138.4920 C   0  0  0  0  0  2  0  0  0  0  0  0
  186.2390  178.8240  141.2350 C   0  0  0  0  0  3  0  0  0  0  0  0
  185.9650  178.1650  138.9160 C   0  0  0  0  0  0  0  0  0  0  0  0
  184.7420  178.0590  137.6010 S   0  0  0  0  0  0  0  0  0  0  0  0
  183.2960  178.5640  141.2750 O   0  0  0  0  0  0  0  0  0  0  0  0
  183.4800  177.9900  138.9110 C   0  0  1  0  0  3  0  0  0  0  0  0
  181.1050  178.7570  142.2970 C   0  0  0  0  0  1  0  0  0  0  0  0
  183.9730  178.8480  140.0650 C   0  0  2  0  0  3  0  0  0  0  0  0
  185.4300  178.5930  140.1230 C   0  0  0  0  0  0  0  0  0  0  0  0
  181.2780  178.8790  139.7370 C   0  0  1  0  0  3  0  0  0  0  0  0
  181.8990  178.3460  141.0700 C   0  0  1  0  0  3  0  0  0  0  0  0
  187.6110  178.5770  141.1370 C   0  0  0  0  0  0  0  0  0  0  0  0
  187.3480  177.8890  138.8020 C   0  0  0  0  0  0  0  0  0  0  0  0
  187.9830  177.3930  137.5550 C   0  0  0  0  0  0  0  0  0  0  0  0
  188.5030  178.2770  136.6010 C   0  0  0  0  0  3  0  0  0  0  0  0
  188.0250  176.0160  137.2890 C   0  0  0  0  0  3  0  0  0  0  0  0
  189.0670  177.7780  135.4250 C   0  0  0  0  0  3  0  0  0  0  0  0
  188.5960  175.5550  136.1020 C   0  0  0  0  0  3  0  0  0  0  0  0
  189.1040  176.4380  135.2010 N   0  0  0  0  0  0  0  0  0  0  0  0
  188.4980  178.8330  142.3050 C   0  0  0  0  0  2  0  0  0  0  0  0
  189.6430  177.8340  142.3180 C   0  0  0  0  0  2  0  0  0  0  0  0
  189.7640  177.1820  143.6880 C   0  0  0  0  0  2  0  0  0  0  0  0
  189.2610  178.1040  144.7880 C   0  0  0  0  0  2  0  0  0  0  0  0
  188.4030  177.3320  145.7760 C   0  0  0  0  0  2  0  0  0  0  0  0
  183.6920  179.0250  145.1200 C   0  0  0  0  0  1  0  0  0  0  0  0
  184.9420  178.9450  145.8560 N   0  0  0  0  0  2  0  0  0  0  0  0
  187.2480  178.1290  146.1620 N   0  0  0  0  0  2  0  0  0  0  0  0
  186.0420  178.1620  145.3950 C   0  0  0  0  0  0  0  0  0  0  0  0
  185.9550  177.5120  144.3170 O   0  0  0  0  0  0  0  0  0  0  0  0
  180.8760  180.3670  139.7770 C   0  0  1  0  0  3  0  0  0  0  0  0
  180.5820  181.3640  137.4750 N   0  0  0  0  0  2  0  0  0  0  0  0
  181.4040  181.1640  138.6230 C   0  0  0  0  0  0  0  0  0  0  0  0
  182.5530  181.6810  138.6750 O   0  0  0  0  0  0  0  0  0  0  0  0
  181.0140  182.1150  136.4350 O   0  0  0  0  0  1  0  0  0  0  0  0
  179.1650  181.4740  140.9280 C   0  0  0  0  0  1  0  0  0  0  0  0
  179.4310  180.5060  139.8770 N   0  0  0  0  0  2  0  0  0  0  0  0
  1 13  1  0  0  0  0
  2 11  1  0  0  0  0
  4 10  2  0  0  0  0
  5  7  1  0  0  0  0
  5  4  1  0  0  0  0
  7  2  1  6  0  0  0
  7  9  1  0  0  0  0
  9 10  1  1  0  0  0
  9  6  1  0  0  0  0
 10  3  1  0  0  0  0
 11 31  1  1  0  0  0
 11 12  1  0  0  0  0
 12  6  1  0  0  0  0
 12  8  1  1  0  0  0
 13  3  2  0  0  0  0
 13 21  1  0  0  0  0
 14  4  1  0  0  0  0
 14  1  2  0  0  0  0
 15 14  1  0  0  0  0
 16 15  2  0  0  0  0
 17 15  1  0  0  0  0
 18 16  1  0  0  0  0
 19 17  2  0  0  0  0
 20 18  2  0  0  0  0
 20 19  1  0  0  0  0
 21 22  1  0  0  0  0
 22 23  1  0  0  0  0
 23 24  1  0  0  0  0
 24 25  1  0  0  0  0
 25 28  1  0  0  0  0
 26 27  1  0  0  0  0
 29 27  1  0  0  0  0
 29 28  1  0  0  0  0
 30 29  2  0  0  0  0
 31 33  1  6  0  0  0
 31 37  1  0  0  0  0
 32 33  1  0  0  0  0
 33 34  2  0  0  0  0
 35 32  1  0  0  0  0
 37 36  1  0  0  0  0
M  END
>  <MODEL>
9

>  <REMARK>
 VINA RESULT:      -7.4      2.680      4.062
  Name = 
  10 active torsions:
  status: ('A' for Active; 'I' for Inactive)
    1  A    between atoms: C_3  and  C_34
    2  A    between atoms: C_5  and  C_9
    3  A    between atoms: C_8  and  C_29
    4  A    between atoms: C_8  and  C_30
    5  A    between atoms: C_9  and  C_24
    6  A    between atoms: C_9  and  N_33
    7  A    between atoms: C_12  and  C_28
    8  A    between atoms: C_12  and  C_37
    9  A    between atoms: N_26  and  C_28
   10  A    between atoms: C_30  and  C_37
                            x       y       z     vdW  Elec       q    Type
                         _______ _______ _______ _____ _____    ______ ____

>  <TORSDO>
F 10

$$$$
