=
 OpenBabel10222418423D

 41 46  0  0  1  0  0  0  0  0999 V2000
  187.8100  175.0280  136.0030 C   0  0  0  0  0  3  0  0  0  0  0  0
  188.5810  178.0190  140.2260 C   0  0  0  0  0  0  0  0  0  0  0  0
  189.7320  176.5650  138.6540 C   0  0  0  0  0  0  0  0  0  0  0  0
  188.6580  176.6900  137.7350 C   0  0  0  0  0  0  0  0  0  0  0  0
  188.7780  175.9540  136.4970 N   0  0  0  0  0  2  0  0  0  0  0  0
  185.5220  177.1860  136.7090 N   0  0  0  0  0  0  0  0  0  0  0  0
  186.5910  175.2100  136.3680 C   0  0  0  0  0  0  0  0  0  0  0  0
  188.5280  178.8130  141.4850 C   0  0  0  0  0  1  0  0  0  0  0  0
  187.5230  177.4980  138.0920 C   0  0  0  0  0  0  0  0  0  0  0  0
  189.6940  177.2320  139.8950 C   0  0  0  0  0  0  0  0  0  0  0  0
  186.4520  177.9120  137.2110 N   0  0  0  0  0  0  0  0  0  0  0  0
  185.4920  175.7610  136.7500 C   0  0  0  0  0  0  0  0  0  0  0  0
  187.5340  178.1520  139.3240 C   0  0  0  0  0  3  0  0  0  0  0  0
  183.0580  175.9380  137.0290 C   0  0  0  0  0  2  0  0  0  0  0  0
  184.1940  175.0440  136.5700 C   0  0  0  0  0  3  0  0  0  0  0  0
  183.5310  174.8090  137.9160 C   0  0  0  0  0  2  0  0  0  0  0  0
  192.0500  176.6130  137.8140 C   0  0  1  0  0  3  0  0  0  0  0  0
  191.2510  175.8880  136.9180 O   0  0  0  0  0  0  0  0  0  0  0  0
  190.9450  175.7420  138.2880 C   0  0  2  0  0  3  0  0  0  0  0  0
  193.3500  175.9100  137.9900 C   0  0  0  0  0  3  0  0  0  0  0  0
  193.8940  175.2500  136.9700 C   0  0  0  0  0  3  0  0  0  0  0  0
  197.5630  175.3910  136.9110 O   0  0  0  0  0  0  0  0  0  0  0  0
  197.7600  175.3440  138.2820 N   0  0  0  0  0  2  0  0  0  0  0  0
  195.5380  174.4470  138.6140 C   0  0  0  0  0  2  0  0  0  0  0  0
  196.3020  175.1990  136.3350 C   0  0  0  0  0  0  0  0  0  0  0  0
  195.2000  174.5360  137.1260 C   0  0  2  0  0  3  0  0  0  0  0  0
  197.0250  174.2060  138.8250 C   0  0  0  0  0  2  0  0  0  0  0  0
  196.1330  175.4700  135.1170 O   0  0  0  0  0  0  0  0  0  0  0  0
  190.7910  177.1340  140.7630 O   0  0  0  0  0  0  0  0  0  0  0  0
  190.7080  176.6360  142.0680 C   0  0  0  0  0  0  0  0  0  0  0  0
  190.0900  175.5640  142.3150 O   0  0  0  0  0  0  0  0  0  0  0  0
  191.3610  177.3790  143.1760 C   0  0  0  0  0  2  0  0  0  0  0  0
  191.6830  176.4240  144.3110 C   0  0  0  0  0  2  0  0  0  0  0  0
  190.9210  176.7950  145.5360 C   0  0  0  0  0  0  0  0  0  0  0  0
  191.3800  176.6910  146.7720 C   0  0  0  0  0  2  0  0  0  0  0  0
  189.5150  177.2760  145.5470 C   0  0  0  0  0  3  0  0  0  0  0  0
  190.3800  177.0920  147.6970 N   0  0  0  0  0  0  0  0  0  0  0  0
  189.3310  177.4230  147.0190 C   0  0  0  0  0  0  0  0  0  0  0  0
  188.0930  178.2560  148.8580 O   0  0  0  0  0  1  0  0  0  0  0  0
  188.0940  177.8920  147.6520 C   0  0  0  0  0  0  0  0  0  0  0  0
  186.9140  177.9370  146.9210 O   0  0  0  0  0  0  0  0  0  0  0  0
  1  7  2  0  0  0  0
  1  5  1  0  0  0  0
  2  8  1  0  0  0  0
  3 10  2  0  0  0  0
  4  9  2  0  0  0  0
  4  3  1  0  0  0  0
  5  4  1  0  0  0  0
  6 12  1  0  0  0  0
  6 11  2  0  0  0  0
  7 12  2  0  0  0  0
  9 13  1  0  0  0  0
 10  2  1  0  0  0  0
 10 29  1  0  0  0  0
 11  9  1  0  0  0  0
 13  2  2  0  0  0  0
 14 16  1  0  0  0  0
 15 12  1  0  0  0  0
 15 14  1  0  0  0  0
 15 16  1  0  0  0  0
 17 20  1  1  0  0  0
 17 19  1  0  0  0  0
 18 17  1  0  0  0  0
 18 19  1  0  0  0  0
 19  3  1  6  0  0  0
 21 20  2  0  0  0  0
 22 23  1  0  0  0  0
 23 27  1  0  0  0  0
 24 27  1  0  0  0  0
 25 22  1  0  0  0  0
 25 26  1  0  0  0  0
 26 21  1  1  0  0  0
 26 24  1  0  0  0  0
 28 25  2  0  0  0  0
 29 30  1  0  0  0  0
 30 31  2  0  0  0  0
 30 32  1  0  0  0  0
 32 33  1  0  0  0  0
 33 34  1  0  0  0  0
 34 36  2  0  0  0  0
 34 35  1  0  0  0  0
 35 37  1  0  0  0  0
 36 38  1  0  0  0  0
 38 40  1  0  0  0  0
 38 37  2  0  0  0  0
 40 39  1  0  0  0  0
 41 40  2  0  0  0  0
M  END
>  <MODEL>
1

>  <REMARK>
 VINA RESULT:      -8.6      0.000      0.000
  Name = 
  10 active torsions:
  status: ('A' for Active; 'I' for Inactive)
    1  A    between atoms: C_3  and  C_4
    2  A    between atoms: C_3  and  C_28
    3  A    between atoms: C_7  and  C_28
    4  A    between atoms: C_7  and  O_40
    5  A    between atoms: C_10  and  C_39
    6  A    between atoms: C_20  and  C_33
    7  A    between atoms: CA_21  and  C_36
    8  A    between atoms: C_22  and  C_30
    9  A    between atoms: C_25  and  C_35
   10  A    between atoms: C_27  and  O_40
                            x       y       z     vdW  Elec       q    Type
                         _______ _______ _______ _____ _____    ______ ____

>  <TORSDO>
F 10

$$$$
=
 OpenBabel10222418423D

 41 46  0  0  1  0  0  0  0  0999 V2000
  187.6520  178.3880  137.6920 C   0  0  0  0  0  3  0  0  0  0  0  0
  187.2790  177.3420  142.8050 C   0  0  0  0  0  0  0  0  0  0  0  0
  188.8870  177.6100  141.0020 C   0  0  0  0  0  0  0  0  0  0  0  0
  187.9170  178.2910  140.2230 C   0  0  0  0  0  0  0  0  0  0  0  0
  188.3300  178.7180  138.9060 N   0  0  0  0  0  2  0  0  0  0  0  0
  184.8770  179.1490  139.1460 N   0  0  0  0  0  0  0  0  0  0  0  0
  186.3920  178.1520  137.7760 C   0  0  0  0  0  0  0  0  0  0  0  0
  186.9150  176.9440  144.1940 C   0  0  0  0  0  1  0  0  0  0  0  0
  186.5990  178.4870  140.7620 C   0  0  0  0  0  0  0  0  0  0  0  0
  188.5690  177.1400  142.2930 C   0  0  0  0  0  0  0  0  0  0  0  0
  185.5620  179.3350  140.2130 N   0  0  0  0  0  0  0  0  0  0  0  0
  185.1630  178.1590  138.1600 C   0  0  0  0  0  0  0  0  0  0  0  0
  186.3310  178.0190  142.0490 C   0  0  0  0  0  3  0  0  0  0  0  0
  182.7350  177.9000  137.8910 C   0  0  0  0  0  2  0  0  0  0  0  0
  184.0860  177.7140  137.2260 C   0  0  0  0  0  3  0  0  0  0  0  0
  183.3460  176.5200  137.8050 C   0  0  0  0  0  2  0  0  0  0  0  0
  190.2880  176.4520  139.3350 C   0  0  1  0  0  3  0  0  0  0  0  0
  190.6990  176.0760  140.6220 O   0  0  0  0  0  0  0  0  0  0  0  0
  190.2860  177.4160  140.4630 C   0  0  2  0  0  3  0  0  0  0  0  0
  191.4870  176.6810  138.4840 C   0  0  0  0  0  3  0  0  0  0  0  0
  191.8830  175.7460  137.6230 C   0  0  0  0  0  3  0  0  0  0  0  0
  195.1960  174.5880  136.5420 O   0  0  0  0  0  0  0  0  0  0  0  0
  194.8110  174.0980  135.3030 N   0  0  0  0  0  2  0  0  0  0  0  0
  192.7860  175.4210  135.3600 C   0  0  0  0  0  2  0  0  0  0  0  0
  194.3220  175.3210  137.3530 C   0  0  0  0  0  0  0  0  0  0  0  0
  193.0870  175.9550  136.7600 C   0  0  2  0  0  3  0  0  0  0  0  0
  194.0700  175.1370  134.5940 C   0  0  0  0  0  2  0  0  0  0  0  0
  194.6390  175.5500  138.5500 O   0  0  0  0  0  0  0  0  0  0  0  0
  189.5600  176.5160  143.0620 O   0  0  0  0  0  0  0  0  0  0  0  0
  190.3700  177.1900  143.9820 C   0  0  0  0  0  0  0  0  0  0  0  0
  190.6730  178.4020  143.8130 O   0  0  0  0  0  0  0  0  0  0  0  0
  190.8750  176.4660  145.1770 C   0  0  0  0  0  2  0  0  0  0  0  0
  190.9040  177.4060  146.3690 C   0  0  0  0  0  2  0  0  0  0  0  0
  189.5360  177.5690  146.9370 C   0  0  0  0  0  0  0  0  0  0  0  0
  189.0760  176.9220  147.9940 C   0  0  0  0  0  2  0  0  0  0  0  0
  188.4750  178.4340  146.3590 C   0  0  0  0  0  3  0  0  0  0  0  0
  187.7240  177.2850  148.2360 N   0  0  0  0  0  0  0  0  0  0  0  0
  187.3790  178.1330  147.3240 C   0  0  0  0  0  0  0  0  0  0  0  0
  185.0730  178.0730  146.7890 O   0  0  0  0  0  0  0  0  0  0  0  0
  186.0410  178.7280  147.2610 C   0  0  0  0  0  0  0  0  0  0  0  0
  185.8320  180.0210  147.7230 O   0  0  0  0  0  1  0  0  0  0  0  0
  1  7  2  0  0  0  0
  1  5  1  0  0  0  0
  2  8  1  0  0  0  0
  3 10  2  0  0  0  0
  4  9  2  0  0  0  0
  4  3  1  0  0  0  0
  5  4  1  0  0  0  0
  6 11  2  0  0  0  0
  7 12  2  0  0  0  0
  9 13  1  0  0  0  0
 10  2  1  0  0  0  0
 10 29  1  0  0  0  0
 11  9  1  0  0  0  0
 12  6  1  0  0  0  0
 13  2  2  0  0  0  0
 15 16  1  0  0  0  0
 15 14  1  0  0  0  0
 15 12  1  0  0  0  0
 16 14  1  0  0  0  0
 17 20  1  6  0  0  0
 17 19  1  0  0  0  0
 17 18  1  0  0  0  0
 19 18  1  0  0  0  0
 19  3  1  1  0  0  0
 21 20  2  0  0  0  0
 22 25  1  0  0  0  0
 23 22  1  0  0  0  0
 24 26  1  0  0  0  0
 25 28  2  0  0  0  0
 26 25  1  0  0  0  0
 26 21  1  1  0  0  0
 27 23  1  0  0  0  0
 27 24  1  0  0  0  0
 29 30  1  0  0  0  0
 30 32  1  0  0  0  0
 31 30  2  0  0  0  0
 32 33  1  0  0  0  0
 33 34  1  0  0  0  0
 34 35  1  0  0  0  0
 35 37  1  0  0  0  0
 36 34  2  0  0  0  0
 36 38  1  0  0  0  0
 38 37  2  0  0  0  0
 39 40  2  0  0  0  0
 40 38  1  0  0  0  0
 40 41  1  0  0  0  0
M  END
>  <MODEL>
2

>  <REMARK>
 VINA RESULT:      -8.5      2.104      2.985
  Name = 
  10 active torsions:
  status: ('A' for Active; 'I' for Inactive)
    1  A    between atoms: C_3  and  C_4
    2  A    between atoms: C_3  and  C_28
    3  A    between atoms: C_7  and  C_28
    4  A    between atoms: C_7  and  O_40
    5  A    between atoms: C_10  and  C_39
    6  A    between atoms: C_20  and  C_33
    7  A    between atoms: CA_21  and  C_36
    8  A    between atoms: C_22  and  C_30
    9  A    between atoms: C_25  and  C_35
   10  A    between atoms: C_27  and  O_40
                            x       y       z     vdW  Elec       q    Type
                         _______ _______ _______ _____ _____    ______ ____

>  <TORSDO>
F 10

$$$$
=
 OpenBabel10222418423D

 41 46  0  0  1  0  0  0  0  0999 V2000
  181.5660  179.4100  139.9170 C   0  0  0  0  0  3  0  0  0  0  0  0
  186.0470  177.8150  137.7370 C   0  0  0  0  0  0  0  0  0  0  0  0
  185.0930  178.6150  139.8260 C   0  0  0  0  0  0  0  0  0  0  0  0
  183.7890  178.2990  139.3640 C   0  0  0  0  0  0  0  0  0  0  0  0
  182.6960  178.6050  140.2580 N   0  0  0  0  0  2  0  0  0  0  0  0
  181.3480  177.7660  137.1520 N   0  0  0  0  0  0  0  0  0  0  0  0
  181.2310  179.4470  138.6770 C   0  0  0  0  0  0  0  0  0  0  0  0
  187.2070  177.4550  136.8750 C   0  0  0  0  0  1  0  0  0  0  0  0
  183.6300  177.7360  138.0510 C   0  0  0  0  0  0  0  0  0  0  0  0
  186.2200  178.3680  139.0150 C   0  0  0  0  0  0  0  0  0  0  0  0
  182.4200  177.1580  137.5040 N   0  0  0  0  0  0  0  0  0  0  0  0
  181.0570  179.1320  137.4410 C   0  0  0  0  0  0  0  0  0  0  0  0
  184.7720  177.4950  137.2880 C   0  0  0  0  0  3  0  0  0  0  0  0
  180.5320  179.9520  135.1860 C   0  0  0  0  0  2  0  0  0  0  0  0
  180.0450  179.8610  136.6190 C   0  0  0  0  0  3  0  0  0  0  0  0
  180.6310  181.1590  136.0910 C   0  0  0  0  0  2  0  0  0  0  0  0
  185.4470  178.0980  142.2100 C   0  0  1  0  0  3  0  0  0  0  0  0
  184.2330  178.7840  142.0650 O   0  0  0  0  0  0  0  0  0  0  0  0
  185.2840  179.1840  141.2130 C   0  0  2  0  0  3  0  0  0  0  0  0
  186.1650  178.6200  143.4060 C   0  0  0  0  0  3  0  0  0  0  0  0
  186.4450  177.8080  144.4220 C   0  0  0  0  0  3  0  0  0  0  0  0
  186.6610  177.9860  148.0840 O   0  0  0  0  0  0  0  0  0  0  0  0
  187.7220  177.1070  148.2380 N   0  0  0  0  0  2  0  0  0  0  0  0
  188.3520  177.3950  145.9190 C   0  0  0  0  0  2  0  0  0  0  0  0
  186.2440  178.4340  146.8250 C   0  0  0  0  0  0  0  0  0  0  0  0
  187.1640  178.3130  145.6340 C   0  0  2  0  0  3  0  0  0  0  0  0
  188.8130  177.5270  147.3630 C   0  0  0  0  0  2  0  0  0  0  0  0
  185.1490  179.0470  146.7210 O   0  0  0  0  0  0  0  0  0  0  0  0
  187.5010  178.6410  139.5150 O   0  0  0  0  0  0  0  0  0  0  0  0
  188.4090  177.6510  139.9060 C   0  0  0  0  0  0  0  0  0  0  0  0
  188.8560  176.8150  139.0740 O   0  0  0  0  0  0  0  0  0  0  0  0
  188.8560  177.5890  141.3210 C   0  0  0  0  0  2  0  0  0  0  0  0
  190.3170  177.1830  141.3770 C   0  0  0  0  0  2  0  0  0  0  0  0
  190.8280  177.2670  142.7750 C   0  0  0  0  0  0  0  0  0  0  0  0
  191.2150  178.3810  143.3720 C   0  0  0  0  0  3  0  0  0  0  0  0
  191.0330  176.1020  143.6750 C   0  0  0  0  0  2  0  0  0  0  0  0
  191.6800  178.0940  144.6830 N   0  0  0  0  0  0  0  0  0  0  0  0
  191.5820  176.8180  144.8610 C   0  0  0  0  0  0  0  0  0  0  0  0
  192.2730  174.9360  146.1210 O   0  0  0  0  0  0  0  0  0  0  0  0
  191.9740  176.1600  146.1110 C   0  0  0  0  0  0  0  0  0  0  0  0
  192.0190  176.8860  147.2940 O   0  0  0  0  0  1  0  0  0  0  0  0
  1  5  1  0  0  0  0
  2 10  1  0  0  0  0
  4  3  1  0  0  0  0
  4  5  1  0  0  0  0
  6 12  1  0  0  0  0
  6 11  2  0  0  0  0
  7  1  2  0  0  0  0
  8  2  1  0  0  0  0
  9  4  2  0  0  0  0
 10 29  1  0  0  0  0
 10  3  2  0  0  0  0
 11  9  1  0  0  0  0
 12  7  2  0  0  0  0
 13  2  2  0  0  0  0
 13  9  1  0  0  0  0
 14 16  1  0  0  0  0
 14 15  1  0  0  0  0
 15 12  1  0  0  0  0
 16 15  1  0  0  0  0
 17 20  1  1  0  0  0
 18 17  1  0  0  0  0
 19  3  1  6  0  0  0
 19 18  1  0  0  0  0
 19 17  1  0  0  0  0
 20 21  2  0  0  0  0
 22 23  1  0  0  0  0
 24 27  1  0  0  0  0
 25 22  1  0  0  0  0
 26 21  1  6  0  0  0
 26 24  1  0  0  0  0
 26 25  1  0  0  0  0
 27 23  1  0  0  0  0
 28 25  2  0  0  0  0
 29 30  1  0  0  0  0
 30 32  1  0  0  0  0
 31 30  2  0  0  0  0
 32 33  1  0  0  0  0
 33 34  1  0  0  0  0
 34 35  2  0  0  0  0
 34 36  1  0  0  0  0
 35 37  1  0  0  0  0
 36 38  1  0  0  0  0
 37 38  2  0  0  0  0
 38 40  1  0  0  0  0
 40 39  2  0  0  0  0
 40 41  1  0  0  0  0
M  END
>  <MODEL>
3

>  <REMARK>
 VINA RESULT:      -8.5      4.168      7.755
  Name = 
  10 active torsions:
  status: ('A' for Active; 'I' for Inactive)
    1  A    between atoms: C_3  and  C_4
    2  A    between atoms: C_3  and  C_28
    3  A    between atoms: C_7  and  C_28
    4  A    between atoms: C_7  and  O_40
    5  A    between atoms: C_10  and  C_39
    6  A    between atoms: C_20  and  C_33
    7  A    between atoms: CA_21  and  C_36
    8  A    between atoms: C_22  and  C_30
    9  A    between atoms: C_25  and  C_35
   10  A    between atoms: C_27  and  O_40
                            x       y       z     vdW  Elec       q    Type
                         _______ _______ _______ _____ _____    ______ ____

>  <TORSDO>
F 10

$$$$
=
 OpenBabel10222418423D

 41 46  0  0  1  0  0  0  0  0999 V2000
  181.2980  180.1190  139.3140 C   0  0  0  0  0  3  0  0  0  0  0  0
  185.0550  177.3520  136.9480 C   0  0  0  0  0  0  0  0  0  0  0  0
  184.5130  178.4880  139.0280 C   0  0  0  0  0  0  0  0  0  0  0  0
  183.1350  178.4700  138.6910 C   0  0  0  0  0  0  0  0  0  0  0  0
  182.2320  179.0870  139.6350 N   0  0  0  0  0  2  0  0  0  0  0  0
  180.4450  178.4100  136.7170 N   0  0  0  0  0  0  0  0  0  0  0  0
  180.8700  180.1600  138.1030 C   0  0  0  0  0  0  0  0  0  0  0  0
  186.0130  176.6680  136.0340 C   0  0  0  0  0  1  0  0  0  0  0  0
  182.7270  177.8820  137.4440 C   0  0  0  0  0  0  0  0  0  0  0  0
  185.4700  177.9250  138.1590 C   0  0  0  0  0  0  0  0  0  0  0  0
  181.3700  177.5830  137.0380 N   0  0  0  0  0  0  0  0  0  0  0  0
  180.5140  179.8210  136.9130 C   0  0  0  0  0  0  0  0  0  0  0  0
  183.7050  177.3240  136.6210 C   0  0  0  0  0  3  0  0  0  0  0  0
  180.0400  180.6550  134.6520 C   0  0  0  0  0  2  0  0  0  0  0  0
  179.6320  180.7210  136.1120 C   0  0  0  0  0  3  0  0  0  0  0  0
  180.4480  181.8430  135.4930 C   0  0  0  0  0  2  0  0  0  0  0  0
  185.0750  178.0240  141.3830 C   0  0  1  0  0  3  0  0  0  0  0  0
  183.9730  178.8890  141.3360 O   0  0  0  0  0  0  0  0  0  0  0  0
  184.9600  179.0780  140.3450 C   0  0  2  0  0  3  0  0  0  0  0  0
  186.0070  178.4750  142.4530 C   0  0  0  0  0  3  0  0  0  0  0  0
  185.8610  178.0250  143.6970 C   0  0  0  0  0  3  0  0  0  0  0  0
  186.6960  178.0470  147.2740 O   0  0  0  0  0  0  0  0  0  0  0  0
  187.7460  177.1450  147.2110 N   0  0  0  0  0  2  0  0  0  0  0  0
  187.9830  177.5180  144.8320 C   0  0  0  0  0  2  0  0  0  0  0  0
  186.0830  178.5530  146.1220 C   0  0  0  0  0  0  0  0  0  0  0  0
  186.7850  178.4670  144.7880 C   0  0  2  0  0  3  0  0  0  0  0  0
  188.6830  177.5830  146.1820 C   0  0  0  0  0  2  0  0  0  0  0  0
  185.0010  179.1880  146.2280 O   0  0  0  0  0  0  0  0  0  0  0  0
  186.8200  177.9080  138.5390 O   0  0  0  0  0  0  0  0  0  0  0  0
  187.8480  178.4790  137.7810 C   0  0  0  0  0  0  0  0  0  0  0  0
  187.6410  179.5000  137.0710 O   0  0  0  0  0  0  0  0  0  0  0  0
  189.2040  177.8730  137.8180 C   0  0  0  0  0  2  0  0  0  0  0  0
  189.2340  176.7510  138.8390 C   0  0  0  0  0  2  0  0  0  0  0  0
  190.1740  177.0810  139.9480 C   0  0  0  0  0  0  0  0  0  0  0  0
  191.4870  177.1660  139.8240 C   0  0  0  0  0  3  0  0  0  0  0  0
  189.7740  177.2990  141.3630 C   0  0  0  0  0  2  0  0  0  0  0  0
  192.0760  177.4570  141.0840 N   0  0  0  0  0  0  0  0  0  0  0  0
  191.1230  177.5340  141.9520 C   0  0  0  0  0  0  0  0  0  0  0  0
  191.2760  179.0030  143.8020 O   0  0  0  0  0  0  0  0  0  0  0  0
  191.3630  177.8230  143.3690 C   0  0  0  0  0  0  0  0  0  0  0  0
  191.6880  176.7950  144.2430 O   0  0  0  0  0  1  0  0  0  0  0  0
  1  5  1  0  0  0  0
  2 10  1  0  0  0  0
  4  3  1  0  0  0  0
  4  5  1  0  0  0  0
  6 12  1  0  0  0  0
  6 11  2  0  0  0  0
  7  1  2  0  0  0  0
  8  2  1  0  0  0  0
  9  4  2  0  0  0  0
 10 29  1  0  0  0  0
 10  3  2  0  0  0  0
 11  9  1  0  0  0  0
 12  7  2  0  0  0  0
 13  2  2  0  0  0  0
 13  9  1  0  0  0  0
 14 16  1  0  0  0  0
 14 15  1  0  0  0  0
 15 12  1  0  0  0  0
 16 15  1  0  0  0  0
 17 20  1  1  0  0  0
 18 17  1  0  0  0  0
 19  3  1  6  0  0  0
 19 18  1  0  0  0  0
 19 17  1  0  0  0  0
 20 21  2  0  0  0  0
 23 22  1  0  0  0  0
 24 27  1  0  0  0  0
 25 28  2  0  0  0  0
 25 22  1  0  0  0  0
 26 21  1  6  0  0  0
 26 24  1  0  0  0  0
 26 25  1  0  0  0  0
 27 23  1  0  0  0  0
 30 32  1  0  0  0  0
 30 29  1  0  0  0  0
 31 30  2  0  0  0  0
 32 33  1  0  0  0  0
 33 34  1  0  0  0  0
 34 36  1  0  0  0  0
 35 34  2  0  0  0  0
 35 37  1  0  0  0  0
 36 38  1  0  0  0  0
 37 38  2  0  0  0  0
 38 40  1  0  0  0  0
 40 39  2  0  0  0  0
 40 41  1  0  0  0  0
M  END
>  <MODEL>
4

>  <REMARK>
 VINA RESULT:      -8.3      3.803      8.200
  Name = 
  10 active torsions:
  status: ('A' for Active; 'I' for Inactive)
    1  A    between atoms: C_3  and  C_4
    2  A    between atoms: C_3  and  C_28
    3  A    between atoms: C_7  and  C_28
    4  A    between atoms: C_7  and  O_40
    5  A    between atoms: C_10  and  C_39
    6  A    between atoms: C_20  and  C_33
    7  A    between atoms: CA_21  and  C_36
    8  A    between atoms: C_22  and  C_30
    9  A    between atoms: C_25  and  C_35
   10  A    between atoms: C_27  and  O_40
                            x       y       z     vdW  Elec       q    Type
                         _______ _______ _______ _____ _____    ______ ____

>  <TORSDO>
F 10

$$$$
=
 OpenBabel10222418423D

 41 46  0  0  1  0  0  0  0  0999 V2000
  189.7710  175.9120  137.9760 C   0  0  0  0  0  3  0  0  0  0  0  0
  185.2490  178.4590  138.6350 C   0  0  0  0  0  0  0  0  0  0  0  0
  187.4950  178.2480  139.5400 C   0  0  0  0  0  0  0  0  0  0  0  0
  187.9350  177.6380  138.3370 C   0  0  0  0  0  0  0  0  0  0  0  0
  189.3200  177.2310  138.2870 N   0  0  0  0  0  2  0  0  0  0  0  0
  187.7010  175.8880  135.5050 N   0  0  0  0  0  0  0  0  0  0  0  0
  189.0060  175.1960  137.2320 C   0  0  0  0  0  0  0  0  0  0  0  0
  183.8450  178.9530  138.7040 C   0  0  0  0  0  1  0  0  0  0  0  0
  186.9910  177.4340  137.2710 C   0  0  0  0  0  0  0  0  0  0  0  0
  186.1550  178.6620  139.6860 C   0  0  0  0  0  0  0  0  0  0  0  0
  187.2990  177.0340  135.9150 N   0  0  0  0  0  0  0  0  0  0  0  0
  188.1380  174.8300  136.3550 C   0  0  0  0  0  0  0  0  0  0  0  0
  185.6790  177.8720  137.4530 C   0  0  0  0  0  3  0  0  0  0  0  0
  186.7840  173.1130  135.2350 C   0  0  0  0  0  2  0  0  0  0  0  0
  188.1370  173.4260  135.8460 C   0  0  0  0  0  3  0  0  0  0  0  0
  187.1270  172.5880  136.6110 C   0  0  0  0  0  2  0  0  0  0  0  0
  188.5320  177.3300  141.5800 C   0  0  1  0  0  3  0  0  0  0  0  0
  187.8180  178.4910  141.9100 O   0  0  0  0  0  0  0  0  0  0  0  0
  188.4770  178.4950  140.6620 C   0  0  2  0  0  3  0  0  0  0  0  0
  189.8300  177.3280  142.3090 C   0  0  0  0  0  3  0  0  0  0  0  0
  190.1350  176.3210  143.1240 C   0  0  0  0  0  3  0  0  0  0  0  0
  191.9580  176.9320  146.2530 O   0  0  0  0  0  0  0  0  0  0  0  0
  192.1120  175.6060  146.6250 N   0  0  0  0  0  2  0  0  0  0  0  0
  191.6990  174.8770  144.3550 C   0  0  0  0  0  2  0  0  0  0  0  0
  191.4490  177.2980  145.0020 C   0  0  0  0  0  0  0  0  0  0  0  0
  191.4330  176.3010  143.8670 C   0  0  2  0  0  3  0  0  0  0  0  0
  192.6930  174.8680  145.5070 C   0  0  0  0  0  2  0  0  0  0  0  0
  191.1200  178.4960  144.7960 O   0  0  0  0  0  0  0  0  0  0  0  0
  185.7590  179.3100  140.8650 O   0  0  0  0  0  0  0  0  0  0  0  0
  185.0020  178.7000  141.8700 C   0  0  0  0  0  0  0  0  0  0  0  0
  184.4500  177.5820  141.6800 O   0  0  0  0  0  0  0  0  0  0  0  0
  184.8490  179.3790  143.1830 C   0  0  0  0  0  2  0  0  0  0  0  0
  184.3630  178.3830  144.2200 C   0  0  0  0  0  2  0  0  0  0  0  0
  185.3000  178.3380  145.3780 C   0  0  0  0  0  0  0  0  0  0  0  0
  185.0620  178.8730  146.5630 C   0  0  0  0  0  2  0  0  0  0  0  0
  186.6600  177.7390  145.3460 C   0  0  0  0  0  3  0  0  0  0  0  0
  186.1800  178.6810  147.4170 N   0  0  0  0  0  0  0  0  0  0  0  0
  187.0810  178.0450  146.7430 C   0  0  0  0  0  0  0  0  0  0  0  0
  189.0690  178.5190  147.9390 O   0  0  0  0  0  1  0  0  0  0  0  0
  188.3790  177.6710  147.3120 C   0  0  0  0  0  0  0  0  0  0  0  0
  188.8570  176.3750  147.1620 O   0  0  0  0  0  0  0  0  0  0  0  0
  1  5  1  0  0  0  0
  2  8  1  0  0  0  0
  2 10  1  0  0  0  0
  3 10  2  0  0  0  0
  4  3  1  0  0  0  0
  5  4  1  0  0  0  0
  6 11  2  0  0  0  0
  6 12  1  0  0  0  0
  7  1  2  0  0  0  0
  9 13  1  0  0  0  0
  9  4  2  0  0  0  0
 10 29  1  0  0  0  0
 11  9  1  0  0  0  0
 12  7  2  0  0  0  0
 13  2  2  0  0  0  0
 14 15  1  0  0  0  0
 14 16  1  0  0  0  0
 15 12  1  0  0  0  0
 15 16  1  0  0  0  0
 17 18  1  0  0  0  0
 17 20  1  1  0  0  0
 19  3  1  6  0  0  0
 19 17  1  0  0  0  0
 19 18  1  0  0  0  0
 20 21  2  0  0  0  0
 22 23  1  0  0  0  0
 24 27  1  0  0  0  0
 25 22  1  0  0  0  0
 26 21  1  1  0  0  0
 26 24  1  0  0  0  0
 26 25  1  0  0  0  0
 27 23  1  0  0  0  0
 28 25  2  0  0  0  0
 29 30  1  0  0  0  0
 30 32  1  0  0  0  0
 31 30  2  0  0  0  0
 32 33  1  0  0  0  0
 33 34  1  0  0  0  0
 34 35  1  0  0  0  0
 35 37  1  0  0  0  0
 36 34  2  0  0  0  0
 36 38  1  0  0  0  0
 38 40  1  0  0  0  0
 38 37  2  0  0  0  0
 40 39  1  0  0  0  0
 41 40  2  0  0  0  0
M  END
>  <MODEL>
5

>  <REMARK>
 VINA RESULT:      -8.3      4.067      5.656
  Name = 
  10 active torsions:
  status: ('A' for Active; 'I' for Inactive)
    1  A    between atoms: C_3  and  C_4
    2  A    between atoms: C_3  and  C_28
    3  A    between atoms: C_7  and  C_28
    4  A    between atoms: C_7  and  O_40
    5  A    between atoms: C_10  and  C_39
    6  A    between atoms: C_20  and  C_33
    7  A    between atoms: CA_21  and  C_36
    8  A    between atoms: C_22  and  C_30
    9  A    between atoms: C_25  and  C_35
   10  A    between atoms: C_27  and  O_40
                            x       y       z     vdW  Elec       q    Type
                         _______ _______ _______ _____ _____    ______ ____

>  <TORSDO>
F 10

$$$$
=
 OpenBabel10222418423D

 41 46  0  0  1  0  0  0  0  0999 V2000
  186.6540  175.6510  136.0500 C   0  0  0  0  0  3  0  0  0  0  0  0
  183.9110  178.2650  139.6560 C   0  0  0  0  0  0  0  0  0  0  0  0
  186.1050  178.1380  138.6170 C   0  0  0  0  0  0  0  0  0  0  0  0
  185.5600  177.4100  137.5280 C   0  0  0  0  0  0  0  0  0  0  0  0
  186.4860  176.9960  136.5000 N   0  0  0  0  0  2  0  0  0  0  0  0
  183.4440  175.3890  135.9240 N   0  0  0  0  0  0  0  0  0  0  0  0
  185.6420  174.8670  136.1650 C   0  0  0  0  0  0  0  0  0  0  0  0
  182.9810  178.7690  140.7050 C   0  0  0  0  0  1  0  0  0  0  0  0
  184.1550  177.1050  137.5260 C   0  0  0  0  0  0  0  0  0  0  0  0
  185.2810  178.5690  139.6770 C   0  0  0  0  0  0  0  0  0  0  0  0
  183.3930  176.5710  136.4160 N   0  0  0  0  0  0  0  0  0  0  0  0
  184.4390  174.4180  136.2450 C   0  0  0  0  0  0  0  0  0  0  0  0
  183.3730  177.5630  138.5860 C   0  0  0  0  0  3  0  0  0  0  0  0
  182.8980  172.5690  136.7360 C   0  0  0  0  0  2  0  0  0  0  0  0
  184.1630  172.9710  136.0010 C   0  0  0  0  0  3  0  0  0  0  0  0
  184.2490  172.1920  137.3020 C   0  0  0  0  0  2  0  0  0  0  0  0
  188.4050  177.2860  138.8740 C   0  0  1  0  0  3  0  0  0  0  0  0
  188.1440  178.2180  139.8890 O   0  0  0  0  0  0  0  0  0  0  0  0
  187.5750  178.4910  138.6270 C   0  0  2  0  0  3  0  0  0  0  0  0
  189.7790  177.5080  138.3460 C   0  0  0  0  0  3  0  0  0  0  0  0
  190.6910  176.5430  138.4350 C   0  0  0  0  0  3  0  0  0  0  0  0
  194.3010  176.0190  138.8570 O   0  0  0  0  0  0  0  0  0  0  0  0
  194.4460  175.0320  137.8940 N   0  0  0  0  0  2  0  0  0  0  0  0
  192.3640  175.6850  136.8500 C   0  0  0  0  0  2  0  0  0  0  0  0
  193.1060  176.7290  139.0180 C   0  0  0  0  0  0  0  0  0  0  0  0
  192.0780  176.7460  137.9120 C   0  0  2  0  0  3  0  0  0  0  0  0
  193.8600  175.5040  136.6430 C   0  0  0  0  0  2  0  0  0  0  0  0
  192.9500  177.4490  140.0390 O   0  0  0  0  0  0  0  0  0  0  0  0
  185.8350  179.3310  140.7150 O   0  0  0  0  0  0  0  0  0  0  0  0
  185.7320  178.9940  142.0680 C   0  0  0  0  0  0  0  0  0  0  0  0
  185.0280  179.6810  142.8570 O   0  0  0  0  0  0  0  0  0  0  0  0
  186.4610  177.8050  142.5810 C   0  0  0  0  0  2  0  0  0  0  0  0
  186.2460  177.6810  144.0780 C   0  0  0  0  0  2  0  0  0  0  0  0
  187.5500  177.5060  144.7780 C   0  0  0  0  0  0  0  0  0  0  0  0
  187.7640  177.7740  146.0550 C   0  0  0  0  0  2  0  0  0  0  0  0
  188.8110  177.0650  144.1260 C   0  0  0  0  0  3  0  0  0  0  0  0
  189.1250  177.5320  146.3810 N   0  0  0  0  0  0  0  0  0  0  0  0
  189.7190  177.1340  145.3050 C   0  0  0  0  0  0  0  0  0  0  0  0
  191.8920  177.0650  146.2430 O   0  0  0  0  0  1  0  0  0  0  0  0
  191.1430  176.7880  145.2690 C   0  0  0  0  0  0  0  0  0  0  0  0
  191.6760  176.1520  144.1550 O   0  0  0  0  0  0  0  0  0  0  0  0
  1  7  2  0  0  0  0
  1  5  1  0  0  0  0
  2 10  1  0  0  0  0
  2  8  1  0  0  0  0
  3 10  2  0  0  0  0
  4  3  1  0  0  0  0
  5  4  1  0  0  0  0
  6 12  1  0  0  0  0
  6 11  2  0  0  0  0
  7 12  2  0  0  0  0
  9  4  2  0  0  0  0
  9 13  1  0  0  0  0
 10 29  1  0  0  0  0
 11  9  1  0  0  0  0
 13  2  2  0  0  0  0
 14 16  1  0  0  0  0
 15 12  1  0  0  0  0
 15 14  1  0  0  0  0
 15 16  1  0  0  0  0
 17 20  1  6  0  0  0
 17 18  1  0  0  0  0
 19  3  1  1  0  0  0
 19 17  1  0  0  0  0
 19 18  1  0  0  0  0
 20 21  2  0  0  0  0
 22 25  1  0  0  0  0
 23 22  1  0  0  0  0
 24 26  1  0  0  0  0
 25 28  2  0  0  0  0
 26 21  1  1  0  0  0
 26 25  1  0  0  0  0
 27 24  1  0  0  0  0
 27 23  1  0  0  0  0
 29 30  1  0  0  0  0
 30 32  1  0  0  0  0
 30 31  2  0  0  0  0
 32 33  1  0  0  0  0
 33 34  1  0  0  0  0
 34 35  1  0  0  0  0
 35 37  1  0  0  0  0
 36 34  2  0  0  0  0
 36 38  1  0  0  0  0
 38 37  2  0  0  0  0
 40 38  1  0  0  0  0
 40 39  1  0  0  0  0
 41 40  2  0  0  0  0
M  END
>  <MODEL>
6

>  <REMARK>
 VINA RESULT:      -8.3      2.499      4.048
  Name = 
  10 active torsions:
  status: ('A' for Active; 'I' for Inactive)
    1  A    between atoms: C_3  and  C_4
    2  A    between atoms: C_3  and  C_28
    3  A    between atoms: C_7  and  C_28
    4  A    between atoms: C_7  and  O_40
    5  A    between atoms: C_10  and  C_39
    6  A    between atoms: C_20  and  C_33
    7  A    between atoms: CA_21  and  C_36
    8  A    between atoms: C_22  and  C_30
    9  A    between atoms: C_25  and  C_35
   10  A    between atoms: C_27  and  O_40
                            x       y       z     vdW  Elec       q    Type
                         _______ _______ _______ _____ _____    ______ ____

>  <TORSDO>
F 10

$$$$
=
 OpenBabel10222418423D

 41 46  0  0  1  0  0  0  0  0999 V2000
  180.9750  181.2130  138.0750 C   0  0  0  0  0  3  0  0  0  0  0  0
  183.9940  177.1960  136.6170 C   0  0  0  0  0  0  0  0  0  0  0  0
  183.5610  178.7150  138.4660 C   0  0  0  0  0  0  0  0  0  0  0  0
  182.2950  179.0420  137.9150 C   0  0  0  0  0  0  0  0  0  0  0  0
  181.5080  180.0130  138.6390 N   0  0  0  0  0  2  0  0  0  0  0  0
  179.9810  179.4720  135.5490 N   0  0  0  0  0  0  0  0  0  0  0  0
  180.7340  181.2050  136.8120 C   0  0  0  0  0  0  0  0  0  0  0  0
  184.8090  176.1490  135.9390 C   0  0  0  0  0  1  0  0  0  0  0  0
  181.8900  178.4260  136.6810 C   0  0  0  0  0  0  0  0  0  0  0  0
  184.4060  177.7900  137.8190 C   0  0  0  0  0  0  0  0  0  0  0  0
  180.5680  178.4700  136.0920 N   0  0  0  0  0  0  0  0  0  0  0  0
  180.4450  180.8190  135.6190 C   0  0  0  0  0  0  0  0  0  0  0  0
  182.7500  177.5060  136.0820 C   0  0  0  0  0  3  0  0  0  0  0  0
  180.4810  183.1930  134.9870 C   0  0  0  0  0  2  0  0  0  0  0  0
  179.9830  181.8130  134.6040 C   0  0  0  0  0  3  0  0  0  0  0  0
  179.0390  182.8180  135.2410 C   0  0  0  0  0  2  0  0  0  0  0  0
  183.9580  178.3270  140.8680 C   0  0  1  0  0  3  0  0  0  0  0  0
  182.9460  179.2870  140.7190 O   0  0  0  0  0  0  0  0  0  0  0  0
  183.9950  179.3310  139.7760 C   0  0  2  0  0  3  0  0  0  0  0  0
  184.8740  178.7470  141.9640 C   0  0  0  0  0  3  0  0  0  0  0  0
  184.7180  178.2510  143.1900 C   0  0  0  0  0  3  0  0  0  0  0  0
  185.5680  178.0700  146.7580 O   0  0  0  0  0  0  0  0  0  0  0  0
  186.6590  177.2240  146.6330 N   0  0  0  0  0  2  0  0  0  0  0  0
  186.8660  177.7680  144.2840 C   0  0  0  0  0  2  0  0  0  0  0  0
  184.9270  178.6240  145.6440 C   0  0  0  0  0  0  0  0  0  0  0  0
  185.6260  178.6610  144.3060 C   0  0  2  0  0  3  0  0  0  0  0  0
  187.5700  177.7740  145.6330 C   0  0  0  0  0  2  0  0  0  0  0  0
  183.8170  179.1990  145.7940 O   0  0  0  0  0  0  0  0  0  0  0  0
  185.6300  177.4440  138.4110 O   0  0  0  0  0  0  0  0  0  0  0  0
  186.8410  178.0790  138.1180 C   0  0  0  0  0  0  0  0  0  0  0  0
  186.9090  178.9710  137.2290 O   0  0  0  0  0  0  0  0  0  0  0  0
  188.0650  177.6980  138.8700 C   0  0  0  0  0  2  0  0  0  0  0  0
  187.9910  178.2530  140.2810 C   0  0  0  0  0  2  0  0  0  0  0  0
  189.2020  177.8630  141.0580 C   0  0  0  0  0  0  0  0  0  0  0  0
  190.1690  177.0820  140.6070 C   0  0  0  0  0  3  0  0  0  0  0  0
  189.4630  178.2450  142.4700 C   0  0  0  0  0  2  0  0  0  0  0  0
  191.1450  176.8850  141.6200 N   0  0  0  0  0  0  0  0  0  0  0  0
  190.7580  177.5340  142.6680 C   0  0  0  0  0  0  0  0  0  0  0  0
  192.0530  178.6280  144.3210 O   0  0  0  0  0  0  0  0  0  0  0  0
  191.5270  177.5570  143.9150 C   0  0  0  0  0  0  0  0  0  0  0  0
  191.6810  176.3940  144.6590 O   0  0  0  0  0  1  0  0  0  0  0  0
  1  5  1  0  0  0  0
  2 10  1  0  0  0  0
  4  3  1  0  0  0  0
  4  5  1  0  0  0  0
  6 12  1  0  0  0  0
  6 11  2  0  0  0  0
  7  1  2  0  0  0  0
  8  2  1  0  0  0  0
  9  4  2  0  0  0  0
 10 29  1  0  0  0  0
 10  3  2  0  0  0  0
 11  9  1  0  0  0  0
 12  7  2  0  0  0  0
 13  2  2  0  0  0  0
 13  9  1  0  0  0  0
 14 16  1  0  0  0  0
 15 14  1  0  0  0  0
 15 16  1  0  0  0  0
 15 12  1  0  0  0  0
 17 20  1  1  0  0  0
 18 17  1  0  0  0  0
 19  3  1  6  0  0  0
 19 18  1  0  0  0  0
 19 17  1  0  0  0  0
 20 21  2  0  0  0  0
 23 22  1  0  0  0  0
 24 26  1  0  0  0  0
 24 27  1  0  0  0  0
 25 28  2  0  0  0  0
 25 22  1  0  0  0  0
 26 21  1  6  0  0  0
 26 25  1  0  0  0  0
 27 23  1  0  0  0  0
 30 29  1  0  0  0  0
 30 32  1  0  0  0  0
 31 30  2  0  0  0  0
 32 33  1  0  0  0  0
 33 34  1  0  0  0  0
 34 36  1  0  0  0  0
 35 34  2  0  0  0  0
 35 37  1  0  0  0  0
 36 38  1  0  0  0  0
 37 38  2  0  0  0  0
 38 40  1  0  0  0  0
 40 39  2  0  0  0  0
 40 41  1  0  0  0  0
M  END
>  <MODEL>
7

>  <REMARK>
 VINA RESULT:      -8.2      4.316      8.697
  Name = 
  10 active torsions:
  status: ('A' for Active; 'I' for Inactive)
    1  A    between atoms: C_3  and  C_4
    2  A    between atoms: C_3  and  C_28
    3  A    between atoms: C_7  and  C_28
    4  A    between atoms: C_7  and  O_40
    5  A    between atoms: C_10  and  C_39
    6  A    between atoms: C_20  and  C_33
    7  A    between atoms: CA_21  and  C_36
    8  A    between atoms: C_22  and  C_30
    9  A    between atoms: C_25  and  C_35
   10  A    between atoms: C_27  and  O_40
                            x       y       z     vdW  Elec       q    Type
                         _______ _______ _______ _____ _____    ______ ____

>  <TORSDO>
F 10

$$$$
=
 OpenBabel10222418423D

 41 46  0  0  1  0  0  0  0  0999 V2000
  188.6750  173.2690  135.8900 C   0  0  0  0  0  3  0  0  0  0  0  0
  188.6040  177.4750  139.0020 C   0  0  0  0  0  0  0  0  0  0  0  0
  190.0910  175.8040  138.0470 C   0  0  0  0  0  0  0  0  0  0  0  0
  189.1180  175.4840  137.0650 C   0  0  0  0  0  0  0  0  0  0  0  0
  189.4630  174.4360  136.1320 N   0  0  0  0  0  2  0  0  0  0  0  0
  186.0780  175.1710  135.7260 N   0  0  0  0  0  0  0  0  0  0  0  0
  187.4110  173.3680  136.0960 C   0  0  0  0  0  0  0  0  0  0  0  0
  188.3160  178.5940  139.9420 C   0  0  0  0  0  1  0  0  0  0  0  0
  187.8610  176.1820  137.0730 C   0  0  0  0  0  0  0  0  0  0  0  0
  189.8350  176.8010  139.0110 C   0  0  0  0  0  0  0  0  0  0  0  0
  186.8510  176.1450  136.0370 N   0  0  0  0  0  0  0  0  0  0  0  0
  186.2180  173.8370  136.2110 C   0  0  0  0  0  0  0  0  0  0  0  0
  187.6550  177.1710  138.0350 C   0  0  0  0  0  3  0  0  0  0  0  0
  183.8300  173.6210  136.7460 C   0  0  0  0  0  2  0  0  0  0  0  0
  185.0450  172.9130  136.1780 C   0  0  0  0  0  3  0  0  0  0  0  0
  184.5730  172.6100  137.5890 C   0  0  0  0  0  2  0  0  0  0  0  0
  192.4850  175.9840  137.4870 C   0  0  1  0  0  3  0  0  0  0  0  0
  191.9100  174.9590  136.7220 O   0  0  0  0  0  0  0  0  0  0  0  0
  191.4280  175.1010  138.0410 C   0  0  2  0  0  3  0  0  0  0  0  0
  193.8170  175.5390  137.9800 C   0  0  0  0  0  3  0  0  0  0  0  0
  194.5540  174.7050  137.2500 C   0  0  0  0  0  3  0  0  0  0  0  0
  198.1450  175.3770  137.6150 O   0  0  0  0  0  0  0  0  0  0  0  0
  198.1320  175.6530  138.9740 N   0  0  0  0  0  2  0  0  0  0  0  0
  196.0060  174.5240  139.2250 C   0  0  0  0  0  2  0  0  0  0  0  0
  197.0200  174.8810  136.9480 C   0  0  0  0  0  0  0  0  0  0  0  0
  195.8940  174.2430  137.7270 C   0  0  2  0  0  3  0  0  0  0  0  0
  197.4610  174.5590  139.6700 C   0  0  0  0  0  2  0  0  0  0  0  0
  197.0100  174.8590  135.6890 O   0  0  0  0  0  0  0  0  0  0  0  0
  190.8320  177.1360  139.9380 O   0  0  0  0  0  0  0  0  0  0  0  0
  190.7310  176.8910  141.3110 C   0  0  0  0  0  0  0  0  0  0  0  0
  190.2230  175.8210  141.7450 O   0  0  0  0  0  0  0  0  0  0  0  0
  191.2320  177.9070  142.2720 C   0  0  0  0  0  2  0  0  0  0  0  0
  190.0940  178.3750  143.1610 C   0  0  0  0  0  2  0  0  0  0  0  0
  190.2550  177.8340  144.5400 C   0  0  0  0  0  0  0  0  0  0  0  0
  189.3220  177.8660  145.4770 C   0  0  0  0  0  2  0  0  0  0  0  0
  191.5060  177.2400  145.0790 C   0  0  0  0  0  3  0  0  0  0  0  0
  189.8230  177.3020  146.6810 N   0  0  0  0  0  0  0  0  0  0  0  0
  191.0470  176.9480  146.4660 C   0  0  0  0  0  0  0  0  0  0  0  0
  192.1900  175.1040  147.4160 O   0  0  0  0  0  0  0  0  0  0  0  0
  191.8830  176.3240  147.4960 C   0  0  0  0  0  0  0  0  0  0  0  0
  192.3430  177.0770  148.5680 O   0  0  0  0  0  1  0  0  0  0  0  0
  1  7  2  0  0  0  0
  1  5  1  0  0  0  0
  2 10  1  0  0  0  0
  2  8  1  0  0  0  0
  3 10  2  0  0  0  0
  4  9  2  0  0  0  0
  4  3  1  0  0  0  0
  5  4  1  0  0  0  0
  6 11  2  0  0  0  0
  6 12  1  0  0  0  0
  7 12  2  0  0  0  0
  9 13  1  0  0  0  0
 10 29  1  0  0  0  0
 11  9  1  0  0  0  0
 13  2  2  0  0  0  0
 14 16  1  0  0  0  0
 15 12  1  0  0  0  0
 15 14  1  0  0  0  0
 15 16  1  0  0  0  0
 17 20  1  1  0  0  0
 17 19  1  0  0  0  0
 18 17  1  0  0  0  0
 18 19  1  0  0  0  0
 19  3  1  6  0  0  0
 21 20  2  0  0  0  0
 22 23  1  0  0  0  0
 23 27  1  0  0  0  0
 24 27  1  0  0  0  0
 25 22  1  0  0  0  0
 25 26  1  0  0  0  0
 26 21  1  6  0  0  0
 26 24  1  0  0  0  0
 28 25  2  0  0  0  0
 29 30  1  0  0  0  0
 30 31  2  0  0  0  0
 30 32  1  0  0  0  0
 32 33  1  0  0  0  0
 33 34  1  0  0  0  0
 34 36  2  0  0  0  0
 34 35  1  0  0  0  0
 35 37  1  0  0  0  0
 36 38  1  0  0  0  0
 38 37  2  0  0  0  0
 38 40  1  0  0  0  0
 39 40  2  0  0  0  0
 40 41  1  0  0  0  0
M  END
>  <MODEL>
8

>  <REMARK>
 VINA RESULT:      -8.2      1.682      2.067
  Name = 
  10 active torsions:
  status: ('A' for Active; 'I' for Inactive)
    1  A    between atoms: C_3  and  C_4
    2  A    between atoms: C_3  and  C_28
    3  A    between atoms: C_7  and  C_28
    4  A    between atoms: C_7  and  O_40
    5  A    between atoms: C_10  and  C_39
    6  A    between atoms: C_20  and  C_33
    7  A    between atoms: CA_21  and  C_36
    8  A    between atoms: C_22  and  C_30
    9  A    between atoms: C_25  and  C_35
   10  A    between atoms: C_27  and  O_40
                            x       y       z     vdW  Elec       q    Type
                         _______ _______ _______ _____ _____    ______ ____

>  <TORSDO>
F 10

$$$$
=
 OpenBabel10222418423D

 41 46  0  0  1  0  0  0  0  0999 V2000
  188.3430  177.3520  145.6410 C   0  0  0  0  0  3  0  0  0  0  0  0
  191.1420  177.3330  141.2210 C   0  0  0  0  0  0  0  0  0  0  0  0
  188.8710  177.5230  142.0670 C   0  0  0  0  0  0  0  0  0  0  0  0
  189.3670  177.8320  143.3600 C   0  0  0  0  0  0  0  0  0  0  0  0
  188.3820  178.0490  144.3950 N   0  0  0  0  0  2  0  0  0  0  0  0
  191.5160  177.8540  145.9130 N   0  0  0  0  0  0  0  0  0  0  0  0
  189.4600  176.9030  146.0910 C   0  0  0  0  0  0  0  0  0  0  0  0
  192.1220  177.1680  140.1110 C   0  0  0  0  0  1  0  0  0  0  0  0
  190.7880  177.8800  143.5700 C   0  0  0  0  0  0  0  0  0  0  0  0
  189.7580  177.2780  140.9990 C   0  0  0  0  0  0  0  0  0  0  0  0
  191.4670  178.3830  144.7460 N   0  0  0  0  0  0  0  0  0  0  0  0
  190.7140  176.7550  146.3400 C   0  0  0  0  0  0  0  0  0  0  0  0
  191.6300  177.6460  142.4830 C   0  0  0  0  0  3  0  0  0  0  0  0
  192.4450  176.4950  148.0640 C   0  0  0  0  0  2  0  0  0  0  0  0
  191.1530  175.9300  147.5050 C   0  0  0  0  0  3  0  0  0  0  0  0
  192.4780  175.2530  147.2020 C   0  0  0  0  0  2  0  0  0  0  0  0
  186.9010  178.8080  141.3260 C   0  0  1  0  0  3  0  0  0  0  0  0
  186.7170  178.4120  142.6590 O   0  0  0  0  0  0  0  0  0  0  0  0
  187.3810  177.4930  141.8190 C   0  0  2  0  0  3  0  0  0  0  0  0
  185.6260  178.6290  140.5810 C   0  0  0  0  0  3  0  0  0  0  0  0
  184.4720  178.9920  141.1360 C   0  0  0  0  0  3  0  0  0  0  0  0
  182.6640  178.9760  137.9400 O   0  0  0  0  0  0  0  0  0  0  0  0
  182.5210  177.6020  137.8280 N   0  0  0  0  0  2  0  0  0  0  0  0
  182.9270  177.3250  140.1980 C   0  0  0  0  0  2  0  0  0  0  0  0
  183.1620  179.5790  139.1000 C   0  0  0  0  0  0  0  0  0  0  0  0
  183.1780  178.8180  140.4040 C   0  0  2  0  0  3  0  0  0  0  0  0
  181.9400  177.0870  139.0640 C   0  0  0  0  0  2  0  0  0  0  0  0
  183.4810  180.7970  139.0730 O   0  0  0  0  0  0  0  0  0  0  0  0
  189.2430  177.0270  139.7190 O   0  0  0  0  0  0  0  0  0  0  0  0
  189.2260  177.9720  138.6890 C   0  0  0  0  0  0  0  0  0  0  0  0
  189.0590  179.1980  138.9340 O   0  0  0  0  0  0  0  0  0  0  0  0
  189.4110  177.5230  137.2840 C   0  0  0  0  0  2  0  0  0  0  0  0
  188.1160  177.7090  136.5140 C   0  0  0  0  0  2  0  0  0  0  0  0
  187.1960  176.5620  136.7580 C   0  0  0  0  0  0  0  0  0  0  0  0
  185.8900  176.6660  136.9350 C   0  0  0  0  0  2  0  0  0  0  0  0
  187.6250  175.1460  136.9000 C   0  0  0  0  0  3  0  0  0  0  0  0
  185.3300  175.3850  137.1830 N   0  0  0  0  0  0  0  0  0  0  0  0
  186.2950  174.5260  137.1640 C   0  0  0  0  0  0  0  0  0  0  0  0
  187.0620  172.2970  137.3870 O   0  0  0  0  0  0  0  0  0  0  0  0
  186.0850  173.0920  137.3830 C   0  0  0  0  0  0  0  0  0  0  0  0
  184.8010  172.6020  137.5880 O   0  0  0  0  0  1  0  0  0  0  0  0
  1  7  2  0  0  0  0
  2 13  1  0  0  0  0
  3  4  2  0  0  0  0
  4  9  1  0  0  0  0
  4  5  1  0  0  0  0
  5  1  1  0  0  0  0
  6 12  1  0  0  0  0
  7 12  2  0  0  0  0
  8  2  1  0  0  0  0
  9 11  1  0  0  0  0
 10  2  2  0  0  0  0
 10  3  1  0  0  0  0
 11  6  2  0  0  0  0
 12 15  1  0  0  0  0
 13  9  2  0  0  0  0
 15 14  1  0  0  0  0
 16 15  1  0  0  0  0
 16 14  1  0  0  0  0
 17 20  1  6  0  0  0
 17 19  1  0  0  0  0
 17 18  1  0  0  0  0
 19  3  1  1  0  0  0
 19 18  1  0  0  0  0
 20 21  2  0  0  0  0
 22 25  1  0  0  0  0
 23 22  1  0  0  0  0
 23 27  1  0  0  0  0
 24 26  1  0  0  0  0
 25 26  1  0  0  0  0
 26 21  1  6  0  0  0
 27 24  1  0  0  0  0
 28 25  2  0  0  0  0
 29 10  1  0  0  0  0
 30 31  2  0  0  0  0
 30 29  1  0  0  0  0
 32 30  1  0  0  0  0
 33 34  1  0  0  0  0
 33 32  1  0  0  0  0
 34 36  2  0  0  0  0
 34 35  1  0  0  0  0
 35 37  1  0  0  0  0
 36 38  1  0  0  0  0
 38 37  2  0  0  0  0
 38 40  1  0  0  0  0
 40 39  2  0  0  0  0
 40 41  1  0  0  0  0
M  END
>  <MODEL>
9

>  <REMARK>
 VINA RESULT:      -8.2      3.696     10.118
  Name = 
  10 active torsions:
  status: ('A' for Active; 'I' for Inactive)
    1  A    between atoms: C_3  and  C_4
    2  A    between atoms: C_3  and  C_28
    3  A    between atoms: C_7  and  C_28
    4  A    between atoms: C_7  and  O_40
    5  A    between atoms: C_10  and  C_39
    6  A    between atoms: C_20  and  C_33
    7  A    between atoms: CA_21  and  C_36
    8  A    between atoms: C_22  and  C_30
    9  A    between atoms: C_25  and  C_35
   10  A    between atoms: C_27  and  O_40
                            x       y       z     vdW  Elec       q    Type
                         _______ _______ _______ _____ _____    ______ ____

>  <TORSDO>
F 10

$$$$
