=
 OpenBabel10222418593D

 43 48  0  0  1  0  0  0  0  0999 V2000
  191.1420  177.1860  141.8390 C   0  0  0  0  0  3  0  0  0  0  0  0
  189.2480  177.4340  140.4100 N   0  0  0  0  0  0  0  0  0  0  0  0
  191.4120  177.1610  139.4290 C   0  0  0  0  0  0  0  0  0  0  0  0
  191.9630  177.0850  140.7150 C   0  0  0  0  0  3  0  0  0  0  0  0
  190.0270  177.3370  139.2960 C   0  0  0  0  0  0  0  0  0  0  0  0
  189.7660  177.3610  141.6680 C   0  0  0  0  0  0  0  0  0  0  0  0
  187.1130  177.5300  137.1800 C   0  0  2  0  0  3  0  0  0  0  0  0
  187.5000  176.0720  137.3110 C   0  0  0  0  0  2  0  0  0  0  0  0
  189.0150  176.0760  137.3860 C   0  0  0  0  0  2  0  0  0  0  0  0
  188.1510  178.2900  137.9790 C   0  0  0  0  0  2  0  0  0  0  0  0
  189.4120  177.4420  137.9320 C   0  0  1  0  0  3  0  0  0  0  0  0
  185.7570  177.7780  137.7420 C   0  0  0  0  0  3  0  0  0  0  0  0
  185.6170  178.4330  138.8500 N   0  0  0  0  0  0  0  0  0  0  0  0
  184.3460  178.6910  139.4560 C   0  0  0  0  0  0  0  0  0  0  0  0
  181.8830  179.2000  140.7000 C   0  0  0  0  0  0  0  0  0  0  0  0
  180.5500  179.4060  141.3570 C   0  0  0  0  0  2  0  0  0  0  0  0
  183.2100  178.9990  138.6860 C   0  0  0  0  0  3  0  0  0  0  0  0
  180.7190  179.8760  142.7320 N   0  0  0  0  0  2  0  0  0  0  0  0
  184.2380  178.6360  140.8510 C   0  0  0  0  0  3  0  0  0  0  0  0
  182.9350  178.8700  142.9800 C   0  0  0  0  0  2  0  0  0  0  0  0
  181.4880  178.8750  143.4660 C   0  0  0  0  0  2  0  0  0  0  0  0
  183.0100  178.8710  141.4780 C   0  0  0  0  0  0  0  0  0  0  0  0
  181.9820  179.2480  139.3060 C   0  0  0  0  0  3  0  0  0  0  0  0
  187.1370  177.5390  144.0450 C   0  0  0  0  0  3  0  0  0  0  0  0
  188.2140  177.5440  144.8460 N   0  0  0  0  0  0  0  0  0  0  0  0
  189.3100  177.4980  144.1120 N   0  0  0  0  0  0  0  0  0  0  0  0
  188.8750  177.4410  142.8380 C   0  0  0  0  0  0  0  0  0  0  0  0
  187.5250  177.4670  142.7510 N   0  0  0  0  0  0  0  0  0  0  0  0
  188.2070  177.7070  146.2360 C   0  0  0  0  0  0  0  0  0  0  0  0
  188.1860  177.9810  148.8880 C   0  0  0  0  0  1  0  0  0  0  0  0
  188.1990  177.8350  147.4350 C   0  0  0  0  0  0  0  0  0  0  0  0
  192.2190  177.0740  138.2910 O   0  0  0  0  0  0  0  0  0  0  0  0
  193.5640  176.7830  138.3820 N   0  0  0  0  0  2  0  0  0  0  0  0
  193.9480  176.2430  137.1480 N   0  0  0  0  0  2  0  0  0  0  0  0
  197.6880  171.4590  136.6220 C   0  0  0  0  0  2  0  0  0  0  0  0
  194.4280  174.9510  137.4140 N   0  0  0  0  0  2  0  0  0  0  0  0
  195.5710  170.9120  137.5450 C   0  0  0  0  0  2  0  0  0  0  0  0
  196.5750  175.4470  136.6610 O   0  0  0  0  0  0  0  0  0  0  0  0
  196.2380  173.2570  137.4010 N   0  0  0  0  0  0  0  0  0  0  0  0
  195.7820  174.5920  137.1420 C   0  0  0  0  0  0  0  0  0  0  0  0
  197.6320  172.8880  137.1600 C   0  0  0  0  0  2  0  0  0  0  0  0
  195.3800  172.3180  138.1160 C   0  0  0  0  0  2  0  0  0  0  0  0
  196.9920  170.5600  137.5390 N   0  0  0  0  0  2  0  0  0  0  0  0
  2  6  2  0  0  0  0
  3  4  1  0  0  0  0
  4  1  2  0  0  0  0
  5  3  2  0  0  0  0
  5  2  1  0  0  0  0
  6  1  1  0  0  0  0
  6 27  1  0  0  0  0
  7  8  1  0  0  0  0
  7 12  1  1  0  0  0
  7 10  1  0  0  0  0
  8  9  1  0  0  0  0
  9 11  1  0  0  0  0
 11 10  1  0  0  0  0
 11  5  1  1  0  0  0
 12 13  2  0  0  0  0
 13 14  1  0  0  0  0
 14 19  1  0  0  0  0
 15 16  1  0  0  0  0
 15 22  1  0  0  0  0
 16 18  1  0  0  0  0
 17 23  1  0  0  0  0
 17 14  2  0  0  0  0
 18 21  1  0  0  0  0
 19 22  2  0  0  0  0
 20 21  1  0  0  0  0
 22 20  1  0  0  0  0
 23 15  2  0  0  0  0
 24 25  1  0  0  0  0
 25 29  1  0  0  0  0
 26 25  1  0  0  0  0
 27 26  2  0  0  0  0
 28 27  1  0  0  0  0
 28 24  2  0  0  0  0
 29 31  3  0  0  0  0
 31 30  1  0  0  0  0
 32 33  1  0  0  0  0
 32  3  1  0  0  0  0
 34 36  1  0  0  0  0
 34 33  1  0  0  0  0
 35 41  1  0  0  0  0
 35 43  1  0  0  0  0
 37 42  1  0  0  0  0
 38 40  2  0  0  0  0
 39 42  1  0  0  0  0
 40 39  1  0  0  0  0
 40 36  1  0  0  0  0
 41 39  1  0  0  0  0
 43 37  1  0  0  0  0
M  END
>  <MODEL>
1

>  <REMARK>
 VINA RESULT:      -9.0      0.000      0.000
  Name = 
  9 active torsions:
  status: ('A' for Active; 'I' for Inactive)
    1  A    between atoms: C_3  and  C_21
    2  A    between atoms: C_4  and  O_32
    3  A    between atoms: N_7  and  C_8
    4  A    between atoms: N_9  and  N_12
    5  A    between atoms: N_9  and  N_18
    6  A    between atoms: C_10  and  N_37
    7  A    between atoms: C_16  and  C_25
    8  A    between atoms: N_18  and  O_32
    9  A    between atoms: C_27  and  C_30
                            x       y       z     vdW  Elec       q    Type
                         _______ _______ _______ _____ _____    ______ ____

>  <TORSDO>
F 9

$$$$
=
 OpenBabel10222418593D

 43 48  0  0  1  0  0  0  0  0999 V2000
  189.8820  177.2570  137.6790 C   0  0  0  0  0  3  0  0  0  0  0  0
  189.1590  177.1320  139.9480 N   0  0  0  0  0  0  0  0  0  0  0  0
  191.4930  176.9360  139.4620 C   0  0  0  0  0  0  0  0  0  0  0  0
  191.2020  177.0860  138.1010 C   0  0  0  0  0  3  0  0  0  0  0  0
  190.4390  176.9640  140.3870 C   0  0  0  0  0  0  0  0  0  0  0  0
  188.8570  177.2800  138.6280 C   0  0  0  0  0  0  0  0  0  0  0  0
  189.4230  177.2820  143.8320 C   0  0  2  0  0  3  0  0  0  0  0  0
  190.1800  178.5370  143.4500 C   0  0  0  0  0  2  0  0  0  0  0  0
  191.2490  178.0670  142.4820 C   0  0  0  0  0  2  0  0  0  0  0  0
  189.4490  176.4100  142.5950 C   0  0  0  0  0  2  0  0  0  0  0  0
  190.7190  176.7860  141.8500 C   0  0  1  0  0  3  0  0  0  0  0  0
  188.0160  177.5970  144.2050 C   0  0  0  0  0  3  0  0  0  0  0  0
  187.1470  177.8890  143.2900 N   0  0  0  0  0  0  0  0  0  0  0  0
  185.7850  178.2200  143.5780 C   0  0  0  0  0  0  0  0  0  0  0  0
  183.0960  178.8450  144.0860 C   0  0  0  0  0  0  0  0  0  0  0  0
  181.6740  179.2450  144.3470 C   0  0  0  0  0  2  0  0  0  0  0  0
  185.3690  178.5760  144.8740 C   0  0  0  0  0  3  0  0  0  0  0  0
  180.7750  178.6200  143.3780 N   0  0  0  0  0  2  0  0  0  0  0  0
  184.8460  178.1830  142.5400 C   0  0  0  0  0  3  0  0  0  0  0  0
  182.5070  178.4000  141.6630 C   0  0  0  0  0  2  0  0  0  0  0  0
  181.1770  179.0480  142.0400 C   0  0  0  0  0  2  0  0  0  0  0  0
  183.5070  178.5110  142.7810 C   0  0  0  0  0  0  0  0  0  0  0  0
  184.0300  178.8920  145.1250 C   0  0  0  0  0  3  0  0  0  0  0  0
  185.6220  177.3290  137.1710 C   0  0  0  0  0  3  0  0  0  0  0  0
  185.4810  178.2370  138.1500 N   0  0  0  0  0  0  0  0  0  0  0  0
  186.6220  178.3630  138.8020 N   0  0  0  0  0  0  0  0  0  0  0  0
  187.4610  177.4900  138.2110 C   0  0  0  0  0  0  0  0  0  0  0  0
  186.8780  176.8250  137.1860 N   0  0  0  0  0  0  0  0  0  0  0  0
  184.3540  179.0350  138.3780 C   0  0  0  0  0  0  0  0  0  0  0  0
  182.2230  180.5820  138.7940 C   0  0  0  0  0  1  0  0  0  0  0  0
  183.3890  179.7310  138.5680 C   0  0  0  0  0  0  0  0  0  0  0  0
  192.8070  176.7510  139.9040 O   0  0  0  0  0  0  0  0  0  0  0  0
  193.8420  176.5440  139.0180 N   0  0  0  0  0  2  0  0  0  0  0  0
  194.7380  175.6620  139.6360 N   0  0  0  0  0  2  0  0  0  0  0  0
  198.5790  171.8660  136.8100 C   0  0  0  0  0  2  0  0  0  0  0  0
  195.6370  175.2490  138.6410 N   0  0  0  0  0  2  0  0  0  0  0  0
  198.8550  174.1380  136.1800 C   0  0  0  0  0  2  0  0  0  0  0  0
  195.3150  172.9890  139.0970 O   0  0  0  0  0  0  0  0  0  0  0  0
  196.8450  173.4750  137.4000 N   0  0  0  0  0  0  0  0  0  0  0  0
  195.9020  173.8670  138.4070 C   0  0  0  0  0  0  0  0  0  0  0  0
  197.0980  172.0610  137.1280 C   0  0  0  0  0  2  0  0  0  0  0  0
  197.3930  174.4720  136.4860 C   0  0  0  0  0  2  0  0  0  0  0  0
  198.9690  172.7540  135.7180 N   0  0  0  0  0  2  0  0  0  0  0  0
  1  4  2  0  0  0  0
  1  6  1  0  0  0  0
  2  5  1  0  0  0  0
  3 32  1  0  0  0  0
  3  5  2  0  0  0  0
  4  3  1  0  0  0  0
  6  2  2  0  0  0  0
  7 12  1  6  0  0  0
  8  7  1  0  0  0  0
  9  8  1  0  0  0  0
 10  7  1  0  0  0  0
 11  5  1  6  0  0  0
 11  9  1  0  0  0  0
 11 10  1  0  0  0  0
 13 14  1  0  0  0  0
 13 12  2  0  0  0  0
 14 17  1  0  0  0  0
 15 16  1  0  0  0  0
 15 23  1  0  0  0  0
 17 23  2  0  0  0  0
 18 16  1  0  0  0  0
 19 22  1  0  0  0  0
 19 14  2  0  0  0  0
 20 21  1  0  0  0  0
 20 22  1  0  0  0  0
 21 18  1  0  0  0  0
 22 15  2  0  0  0  0
 24 28  2  0  0  0  0
 24 25  1  0  0  0  0
 25 29  1  0  0  0  0
 25 26  1  0  0  0  0
 27  6  1  0  0  0  0
 27 26  2  0  0  0  0
 28 27  1  0  0  0  0
 29 31  3  0  0  0  0
 31 30  1  0  0  0  0
 33 34  1  0  0  0  0
 33 32  1  0  0  0  0
 35 41  1  0  0  0  0
 36 34  1  0  0  0  0
 37 42  1  0  0  0  0
 39 40  1  0  0  0  0
 40 36  1  0  0  0  0
 40 38  2  0  0  0  0
 41 39  1  0  0  0  0
 42 39  1  0  0  0  0
 43 37  1  0  0  0  0
 43 35  1  0  0  0  0
M  END
>  <MODEL>
2

>  <REMARK>
 VINA RESULT:      -8.9      1.674      4.877
  Name = 
  9 active torsions:
  status: ('A' for Active; 'I' for Inactive)
    1  A    between atoms: C_3  and  C_21
    2  A    between atoms: C_4  and  O_32
    3  A    between atoms: N_7  and  C_8
    4  A    between atoms: N_9  and  N_12
    5  A    between atoms: N_9  and  N_18
    6  A    between atoms: C_10  and  N_37
    7  A    between atoms: C_16  and  C_25
    8  A    between atoms: N_18  and  O_32
    9  A    between atoms: C_27  and  C_30
                            x       y       z     vdW  Elec       q    Type
                         _______ _______ _______ _____ _____    ______ ____

>  <TORSDO>
F 9

$$$$
=
 OpenBabel10222418593D

 43 48  0  0  1  0  0  0  0  0999 V2000
  187.2120  176.5080  136.3480 C   0  0  0  0  0  3  0  0  0  0  0  0
  186.5050  177.6090  138.3430 N   0  0  0  0  0  0  0  0  0  0  0  0
  184.9210  177.2660  136.5840 C   0  0  0  0  0  0  0  0  0  0  0  0
  185.9220  176.6410  135.8310 C   0  0  0  0  0  3  0  0  0  0  0  0
  185.2380  177.7510  137.8620 C   0  0  0  0  0  0  0  0  0  0  0  0
  187.4920  177.0030  137.6250 C   0  0  0  0  0  0  0  0  0  0  0  0
  184.0150  178.9030  141.0520 C   0  0  2  0  0  3  0  0  0  0  0  0
  183.4530  177.5180  140.8090 C   0  0  0  0  0  2  0  0  0  0  0  0
  183.2210  177.4500  139.3120 C   0  0  0  0  0  2  0  0  0  0  0  0
  184.8320  179.2230  139.8180 C   0  0  0  0  0  2  0  0  0  0  0  0
  184.1910  178.4420  138.6840 C   0  0  1  0  0  3  0  0  0  0  0  0
  184.8860  178.9250  142.2600 C   0  0  0  0  0  3  0  0  0  0  0  0
  184.5880  178.2050  143.2940 N   0  0  0  0  0  0  0  0  0  0  0  0
  185.3690  178.1920  144.4940 C   0  0  0  0  0  0  0  0  0  0  0  0
  186.9520  178.1540  146.8110 C   0  0  0  0  0  0  0  0  0  0  0  0
  187.7700  178.0730  148.0660 C   0  0  0  0  0  2  0  0  0  0  0  0
  184.8630  178.6870  145.7100 C   0  0  0  0  0  3  0  0  0  0  0  0
  189.1980  178.0710  147.7520 N   0  0  0  0  0  2  0  0  0  0  0  0
  186.6700  177.6760  144.4490 C   0  0  0  0  0  3  0  0  0  0  0  0
  188.8750  177.1380  145.5140 C   0  0  0  0  0  2  0  0  0  0  0  0
  189.4770  176.9180  146.8990 C   0  0  0  0  0  2  0  0  0  0  0  0
  187.4590  177.6360  145.6030 C   0  0  0  0  0  0  0  0  0  0  0  0
  185.6510  178.6630  146.8650 C   0  0  0  0  0  3  0  0  0  0  0  0
  190.4910  176.9770  139.5210 C   0  0  0  0  0  3  0  0  0  0  0  0
  190.8570  176.2630  138.4450 N   0  0  0  0  0  0  0  0  0  0  0  0
  189.8420  176.1830  137.6040 N   0  0  0  0  0  0  0  0  0  0  0  0
  188.8360  176.8480  138.2050 C   0  0  0  0  0  0  0  0  0  0  0  0
  189.2000  177.3630  139.4030 N   0  0  0  0  0  0  0  0  0  0  0  0
  192.1430  175.7820  138.1730 C   0  0  0  0  0  0  0  0  0  0  0  0
  194.6060  174.9010  137.6620 C   0  0  0  0  0  1  0  0  0  0  0  0
  193.2550  175.3800  137.9420 C   0  0  0  0  0  0  0  0  0  0  0  0
  183.6270  177.4200  136.0790 O   0  0  0  0  0  0  0  0  0  0  0  0
  182.7920  176.3380  135.8950 N   0  0  0  0  0  2  0  0  0  0  0  0
  181.5450  176.8460  135.5080 N   0  0  0  0  0  2  0  0  0  0  0  0
  180.5670  182.0480  138.5280 C   0  0  0  0  0  2  0  0  0  0  0  0
  181.1010  177.6530  136.5660 N   0  0  0  0  0  2  0  0  0  0  0  0
  180.4990  180.1210  139.9110 C   0  0  0  0  0  2  0  0  0  0  0  0
  180.9990  179.5660  135.2420 O   0  0  0  0  0  0  0  0  0  0  0  0
  180.4120  179.8500  137.4860 N   0  0  0  0  0  0  0  0  0  0  0  0
  180.8400  179.0440  136.3800 C   0  0  0  0  0  0  0  0  0  0  0  0
  180.1070  181.2680  137.2980 C   0  0  0  0  0  2  0  0  0  0  0  0
  180.0590  179.2210  138.7540 C   0  0  0  0  0  2  0  0  0  0  0  0
  179.9670  181.4720  139.7290 N   0  0  0  0  0  2  0  0  0  0  0  0
  1  6  1  0  0  0  0
  3  5  2  0  0  0  0
  4  1  2  0  0  0  0
  4  3  1  0  0  0  0
  5  2  1  0  0  0  0
  6 27  1  0  0  0  0
  6  2  2  0  0  0  0
  7 12  1  1  0  0  0
  8  7  1  0  0  0  0
  9  8  1  0  0  0  0
 10  7  1  0  0  0  0
 11  5  1  1  0  0  0
 11  9  1  0  0  0  0
 11 10  1  0  0  0  0
 12 13  2  0  0  0  0
 13 14  1  0  0  0  0
 14 17  1  0  0  0  0
 15 23  1  0  0  0  0
 15 16  1  0  0  0  0
 17 23  2  0  0  0  0
 18 16  1  0  0  0  0
 19 14  2  0  0  0  0
 19 22  1  0  0  0  0
 20 22  1  0  0  0  0
 20 21  1  0  0  0  0
 21 18  1  0  0  0  0
 22 15  2  0  0  0  0
 25 24  1  0  0  0  0
 26 27  2  0  0  0  0
 26 25  1  0  0  0  0
 27 28  1  0  0  0  0
 28 24  2  0  0  0  0
 29 25  1  0  0  0  0
 30 31  1  0  0  0  0
 31 29  3  0  0  0  0
 32  3  1  0  0  0  0
 33 32  1  0  0  0  0
 34 33  1  0  0  0  0
 34 36  1  0  0  0  0
 35 43  1  0  0  0  0
 38 40  2  0  0  0  0
 39 42  1  0  0  0  0
 40 36  1  0  0  0  0
 40 39  1  0  0  0  0
 41 39  1  0  0  0  0
 41 35  1  0  0  0  0
 42 37  1  0  0  0  0
 43 37  1  0  0  0  0
M  END
>  <MODEL>
3

>  <REMARK>
 VINA RESULT:      -8.8      3.629     10.435
  Name = 
  9 active torsions:
  status: ('A' for Active; 'I' for Inactive)
    1  A    between atoms: C_3  and  C_21
    2  A    between atoms: C_4  and  O_32
    3  A    between atoms: N_7  and  C_8
    4  A    between atoms: N_9  and  N_12
    5  A    between atoms: N_9  and  N_18
    6  A    between atoms: C_10  and  N_37
    7  A    between atoms: C_16  and  C_25
    8  A    between atoms: N_18  and  O_32
    9  A    between atoms: C_27  and  C_30
                            x       y       z     vdW  Elec       q    Type
                         _______ _______ _______ _____ _____    ______ ____

>  <TORSDO>
F 9

$$$$
=
 OpenBabel10222418593D

 43 48  0  0  1  0  0  0  0  0999 V2000
  187.0180  176.7370  136.4220 C   0  0  0  0  0  3  0  0  0  0  0  0
  186.3370  177.8320  138.4280 N   0  0  0  0  0  0  0  0  0  0  0  0
  184.7000  177.3690  136.7470 C   0  0  0  0  0  0  0  0  0  0  0  0
  185.7020  176.7880  135.9600 C   0  0  0  0  0  3  0  0  0  0  0  0
  185.0440  177.8940  138.0020 C   0  0  0  0  0  0  0  0  0  0  0  0
  187.3240  177.2700  137.6770 C   0  0  0  0  0  0  0  0  0  0  0  0
  183.8580  178.9530  141.2380 C   0  0  2  0  0  3  0  0  0  0  0  0
  183.3310  177.5570  140.9810 C   0  0  0  0  0  2  0  0  0  0  0  0
  183.0680  177.5090  139.4880 C   0  0  0  0  0  2  0  0  0  0  0  0
  184.6390  179.3190  139.9930 C   0  0  0  0  0  2  0  0  0  0  0  0
  183.9950  178.5400  138.8580 C   0  0  1  0  0  3  0  0  0  0  0  0
  184.7540  178.9780  142.4270 C   0  0  0  0  0  3  0  0  0  0  0  0
  184.5260  178.1980  143.4350 N   0  0  0  0  0  0  0  0  0  0  0  0
  185.3330  178.1830  144.6160 C   0  0  0  0  0  0  0  0  0  0  0  0
  186.9690  178.1430  146.8970 C   0  0  0  0  0  0  0  0  0  0  0  0
  187.8160  178.0590  148.1320 C   0  0  0  0  0  2  0  0  0  0  0  0
  184.8470  178.6540  145.8490 C   0  0  0  0  0  3  0  0  0  0  0  0
  189.2370  178.0850  147.7860 N   0  0  0  0  0  2  0  0  0  0  0  0
  186.6410  177.6900  144.5350 C   0  0  0  0  0  3  0  0  0  0  0  0
  188.8790  177.1750  145.5430 C   0  0  0  0  0  2  0  0  0  0  0  0
  189.5150  176.9480  146.9120 C   0  0  0  0  0  2  0  0  0  0  0  0
  187.4570  177.6490  145.6710 C   0  0  0  0  0  0  0  0  0  0  0  0
  185.6610  178.6290  146.9860 C   0  0  0  0  0  3  0  0  0  0  0  0
  190.4320  177.5520  139.3660 C   0  0  0  0  0  3  0  0  0  0  0  0
  190.7230  176.6260  138.4380 N   0  0  0  0  0  0  0  0  0  0  0  0
  189.6580  176.4040  137.6890 N   0  0  0  0  0  0  0  0  0  0  0  0
  188.6990  177.2010  138.1990 C   0  0  0  0  0  0  0  0  0  0  0  0
  189.1410  177.9380  139.2450 N   0  0  0  0  0  0  0  0  0  0  0  0
  191.9830  176.0690  138.1960 C   0  0  0  0  0  0  0  0  0  0  0  0
  194.3680  174.9750  137.7280 C   0  0  0  0  0  1  0  0  0  0  0  0
  193.0640  175.5780  137.9850 C   0  0  0  0  0  0  0  0  0  0  0  0
  183.3780  177.4400  136.2970 O   0  0  0  0  0  0  0  0  0  0  0  0
  182.9360  176.6810  135.2350 N   0  0  0  0  0  2  0  0  0  0  0  0
  181.5510  176.8710  135.1450 N   0  0  0  0  0  2  0  0  0  0  0  0
  179.2560  177.1890  140.7820 C   0  0  0  0  0  2  0  0  0  0  0  0
  181.0060  176.3780  136.3400 N   0  0  0  0  0  2  0  0  0  0  0  0
  180.0530  175.0300  140.2020 C   0  0  0  0  0  2  0  0  0  0  0  0
  180.0650  178.4280  136.9150 O   0  0  0  0  0  0  0  0  0  0  0  0
  179.7310  176.6930  138.4430 N   0  0  0  0  0  0  0  0  0  0  0  0
  180.2550  177.2180  137.2160 C   0  0  0  0  0  0  0  0  0  0  0  0
  178.9310  177.5360  139.3310 C   0  0  0  0  0  2  0  0  0  0  0  0
  179.7970  175.2600  138.7110 C   0  0  0  0  0  2  0  0  0  0  0  0
  179.0650  175.7570  141.0010 N   0  0  0  0  0  2  0  0  0  0  0  0
  1  6  1  0  0  0  0
  3  5  2  0  0  0  0
  4  1  2  0  0  0  0
  4  3  1  0  0  0  0
  5  2  1  0  0  0  0
  6 27  1  0  0  0  0
  6  2  2  0  0  0  0
  7 12  1  1  0  0  0
  8  7  1  0  0  0  0
  9  8  1  0  0  0  0
 10  7  1  0  0  0  0
 11  5  1  1  0  0  0
 11  9  1  0  0  0  0
 11 10  1  0  0  0  0
 12 13  2  0  0  0  0
 13 14  1  0  0  0  0
 14 17  1  0  0  0  0
 15 23  1  0  0  0  0
 15 16  1  0  0  0  0
 17 23  2  0  0  0  0
 18 16  1  0  0  0  0
 19 14  2  0  0  0  0
 19 22  1  0  0  0  0
 20 22  1  0  0  0  0
 20 21  1  0  0  0  0
 21 18  1  0  0  0  0
 22 15  2  0  0  0  0
 25 24  1  0  0  0  0
 26 27  2  0  0  0  0
 26 25  1  0  0  0  0
 27 28  1  0  0  0  0
 28 24  2  0  0  0  0
 29 25  1  0  0  0  0
 30 31  1  0  0  0  0
 31 29  3  0  0  0  0
 32  3  1  0  0  0  0
 33 32  1  0  0  0  0
 34 33  1  0  0  0  0
 34 36  1  0  0  0  0
 35 43  1  0  0  0  0
 36 40  1  0  0  0  0
 37 43  1  0  0  0  0
 38 40  2  0  0  0  0
 39 42  1  0  0  0  0
 39 41  1  0  0  0  0
 40 39  1  0  0  0  0
 41 35  1  0  0  0  0
 42 37  1  0  0  0  0
M  END
>  <MODEL>
4

>  <REMARK>
 VINA RESULT:      -8.8      3.761     10.302
  Name = 
  9 active torsions:
  status: ('A' for Active; 'I' for Inactive)
    1  A    between atoms: C_3  and  C_21
    2  A    between atoms: C_4  and  O_32
    3  A    between atoms: N_7  and  C_8
    4  A    between atoms: N_9  and  N_12
    5  A    between atoms: N_9  and  N_18
    6  A    between atoms: C_10  and  N_37
    7  A    between atoms: C_16  and  C_25
    8  A    between atoms: N_18  and  O_32
    9  A    between atoms: C_27  and  C_30
                            x       y       z     vdW  Elec       q    Type
                         _______ _______ _______ _____ _____    ______ ____

>  <TORSDO>
F 9

$$$$
=
 OpenBabel10222418593D

 43 48  0  0  1  0  0  0  0  0999 V2000
  190.9780  177.1570  141.8320 C   0  0  0  0  0  3  0  0  0  0  0  0
  189.1170  177.4030  140.3590 N   0  0  0  0  0  0  0  0  0  0  0  0
  191.3040  177.1300  139.4290 C   0  0  0  0  0  0  0  0  0  0  0  0
  191.8240  177.0550  140.7270 C   0  0  0  0  0  3  0  0  0  0  0  0
  189.9220  177.3060  139.2630 C   0  0  0  0  0  0  0  0  0  0  0  0
  189.6060  177.3310  141.6290 C   0  0  0  0  0  0  0  0  0  0  0  0
  187.0600  177.5480  137.0830 C   0  0  2  0  0  3  0  0  0  0  0  0
  187.4050  176.0820  137.2400 C   0  0  0  0  0  2  0  0  0  0  0  0
  188.9170  176.0480  137.3470 C   0  0  0  0  0  2  0  0  0  0  0  0
  188.1010  178.2910  137.8950 C   0  0  0  0  0  2  0  0  0  0  0  0
  189.3390  177.4090  137.8850 C   0  0  1  0  0  3  0  0  0  0  0  0
  185.6990  177.8390  137.6130 C   0  0  0  0  0  3  0  0  0  0  0  0
  185.5540  178.4220  138.7600 N   0  0  0  0  0  0  0  0  0  0  0  0
  184.2770  178.7140  139.3370 C   0  0  0  0  0  0  0  0  0  0  0  0
  181.7530  179.3080  140.4120 C   0  0  0  0  0  0  0  0  0  0  0  0
  180.4330  179.6790  141.0190 C   0  0  0  0  0  2  0  0  0  0  0  0
  183.9070  178.2170  140.6000 C   0  0  0  0  0  3  0  0  0  0  0  0
  179.4540  179.9860  139.9770 N   0  0  0  0  0  2  0  0  0  0  0  0
  183.3770  179.5120  138.6200 C   0  0  0  0  0  3  0  0  0  0  0  0
  181.1520  180.6310  138.3380 C   0  0  0  0  0  2  0  0  0  0  0  0
  179.9670  181.0980  139.1810 C   0  0  0  0  0  2  0  0  0  0  0  0
  182.1250  179.8280  139.1560 C   0  0  0  0  0  0  0  0  0  0  0  0
  182.6510  178.5180  141.1370 C   0  0  0  0  0  3  0  0  0  0  0  0
  187.8680  177.2080  144.7200 C   0  0  0  0  0  3  0  0  0  0  0  0
  186.9840  177.8610  143.9490 N   0  0  0  0  0  0  0  0  0  0  0  0
  187.4700  177.9850  142.7280 N   0  0  0  0  0  0  0  0  0  0  0  0
  188.6880  177.4100  142.7770 C   0  0  0  0  0  0  0  0  0  0  0  0
  188.9750  176.9090  144.0020 N   0  0  0  0  0  0  0  0  0  0  0  0
  185.6890  178.2430  144.3210 C   0  0  0  0  0  0  0  0  0  0  0  0
  183.2150  178.9720  144.9940 C   0  0  0  0  0  1  0  0  0  0  0  0
  184.5720  178.5710  144.6300 C   0  0  0  0  0  0  0  0  0  0  0  0
  192.1370  177.0430  138.3100 O   0  0  0  0  0  0  0  0  0  0  0  0
  193.5020  176.8940  138.4380 N   0  0  0  0  0  2  0  0  0  0  0  0
  193.9740  176.3920  137.2180 N   0  0  0  0  0  2  0  0  0  0  0  0
  197.6650  171.5860  136.5730 C   0  0  0  0  0  2  0  0  0  0  0  0
  194.4650  175.1050  137.4830 N   0  0  0  0  0  2  0  0  0  0  0  0
  195.6060  171.0650  137.6320 C   0  0  0  0  0  2  0  0  0  0  0  0
  196.5640  175.5770  136.5930 O   0  0  0  0  0  0  0  0  0  0  0  0
  196.2670  173.4050  137.3990 N   0  0  0  0  0  0  0  0  0  0  0  0
  195.8000  174.7350  137.1390 C   0  0  0  0  0  0  0  0  0  0  0  0
  197.6440  173.0250  137.0820 C   0  0  0  0  0  2  0  0  0  0  0  0
  195.4520  172.4840  138.1840 C   0  0  0  0  0  2  0  0  0  0  0  0
  197.0230  170.7090  137.5490 N   0  0  0  0  0  2  0  0  0  0  0  0
  2  6  2  0  0  0  0
  3  4  1  0  0  0  0
  4  1  2  0  0  0  0
  5  3  2  0  0  0  0
  5  2  1  0  0  0  0
  6  1  1  0  0  0  0
  6 27  1  0  0  0  0
  7  8  1  0  0  0  0
  7 12  1  1  0  0  0
  7 10  1  0  0  0  0
  8  9  1  0  0  0  0
  9 11  1  0  0  0  0
 11 10  1  0  0  0  0
 11  5  1  1  0  0  0
 12 13  2  0  0  0  0
 13 14  1  0  0  0  0
 14 17  1  0  0  0  0
 15 16  1  0  0  0  0
 15 23  1  0  0  0  0
 17 23  2  0  0  0  0
 18 16  1  0  0  0  0
 19 22  1  0  0  0  0
 19 14  2  0  0  0  0
 20 22  1  0  0  0  0
 20 21  1  0  0  0  0
 21 18  1  0  0  0  0
 22 15  2  0  0  0  0
 25 29  1  0  0  0  0
 25 24  1  0  0  0  0
 26 27  2  0  0  0  0
 26 25  1  0  0  0  0
 27 28  1  0  0  0  0
 28 24  2  0  0  0  0
 29 31  3  0  0  0  0
 31 30  1  0  0  0  0
 32 33  1  0  0  0  0
 32  3  1  0  0  0  0
 34 36  1  0  0  0  0
 34 33  1  0  0  0  0
 35 41  1  0  0  0  0
 35 43  1  0  0  0  0
 37 42  1  0  0  0  0
 38 40  2  0  0  0  0
 39 42  1  0  0  0  0
 40 39  1  0  0  0  0
 40 36  1  0  0  0  0
 41 39  1  0  0  0  0
 43 37  1  0  0  0  0
M  END
>  <MODEL>
5

>  <REMARK>
 VINA RESULT:      -8.7      1.105      2.000
  Name = 
  9 active torsions:
  status: ('A' for Active; 'I' for Inactive)
    1  A    between atoms: C_3  and  C_21
    2  A    between atoms: C_4  and  O_32
    3  A    between atoms: N_7  and  C_8
    4  A    between atoms: N_9  and  N_12
    5  A    between atoms: N_9  and  N_18
    6  A    between atoms: C_10  and  N_37
    7  A    between atoms: C_16  and  C_25
    8  A    between atoms: N_18  and  O_32
    9  A    between atoms: C_27  and  C_30
                            x       y       z     vdW  Elec       q    Type
                         _______ _______ _______ _____ _____    ______ ____

>  <TORSDO>
F 9

$$$$
=
 OpenBabel10222418593D

 43 48  0  0  1  0  0  0  0  0999 V2000
  187.1820  178.3970  142.0480 C   0  0  0  0  0  3  0  0  0  0  0  0
  188.3210  177.8350  140.0290 N   0  0  0  0  0  0  0  0  0  0  0  0
  186.0680  178.6300  139.9060 C   0  0  0  0  0  0  0  0  0  0  0  0
  186.0540  178.7430  141.3020 C   0  0  0  0  0  3  0  0  0  0  0  0
  187.2340  178.1670  139.2770 C   0  0  0  0  0  0  0  0  0  0  0  0
  188.3260  177.9400  141.3870 C   0  0  0  0  0  0  0  0  0  0  0  0
  188.7210  176.7650  136.3070 C   0  0  2  0  0  3  0  0  0  0  0  0
  189.3780  178.1040  136.5710 C   0  0  0  0  0  2  0  0  0  0  0  0
  188.2750  178.9700  137.1480 C   0  0  0  0  0  2  0  0  0  0  0  0
  187.6870  176.6070  137.4010 C   0  0  0  0  0  2  0  0  0  0  0  0
  187.2720  178.0170  137.7850 C   0  0  1  0  0  3  0  0  0  0  0  0
  189.7140  175.6570  136.3800 C   0  0  0  0  0  3  0  0  0  0  0  0
  190.9510  175.9050  136.6720 N   0  0  0  0  0  0  0  0  0  0  0  0
  191.9600  174.8930  136.7410 C   0  0  0  0  0  0  0  0  0  0  0  0
  193.9650  172.9370  136.9270 C   0  0  0  0  0  0  0  0  0  0  0  0
  195.0660  171.9200  136.9690 C   0  0  0  0  0  2  0  0  0  0  0  0
  191.8490  173.6900  136.0210 C   0  0  0  0  0  3  0  0  0  0  0  0
  195.8130  172.0200  138.2230 N   0  0  0  0  0  2  0  0  0  0  0  0
  193.0820  175.1100  137.5500 C   0  0  0  0  0  3  0  0  0  0  0  0
  195.2570  174.3780  138.5600 C   0  0  0  0  0  2  0  0  0  0  0  0
  196.3730  173.3650  138.3150 C   0  0  0  0  0  2  0  0  0  0  0  0
  194.0950  174.1490  137.6340 C   0  0  0  0  0  0  0  0  0  0  0  0
  192.8510  172.7180  136.1100 C   0  0  0  0  0  3  0  0  0  0  0  0
  191.5520  177.1670  142.6460 C   0  0  0  0  0  3  0  0  0  0  0  0
  190.8140  177.1080  143.7660 N   0  0  0  0  0  0  0  0  0  0  0  0
  189.5510  177.3600  143.4750 N   0  0  0  0  0  0  0  0  0  0  0  0
  189.5380  177.5980  142.1490 C   0  0  0  0  0  0  0  0  0  0  0  0
  190.7670  177.4850  141.5910 N   0  0  0  0  0  0  0  0  0  0  0  0
  191.2650  176.7130  145.0300 C   0  0  0  0  0  0  0  0  0  0  0  0
  192.1040  175.9880  147.4540 C   0  0  0  0  0  1  0  0  0  0  0  0
  191.6460  176.3810  146.1240 C   0  0  0  0  0  0  0  0  0  0  0  0
  184.9450  178.9590  139.1430 O   0  0  0  0  0  0  0  0  0  0  0  0
  184.2080  180.0970  139.3990 N   0  0  0  0  0  2  0  0  0  0  0  0
  182.8680  179.7810  139.1420 N   0  0  0  0  0  2  0  0  0  0  0  0
  180.0730  183.1970  134.9400 C   0  0  0  0  0  2  0  0  0  0  0  0
  182.2830  180.9400  138.6100 N   0  0  0  0  0  2  0  0  0  0  0  0
  181.1660  184.4670  136.6210 C   0  0  0  0  0  2  0  0  0  0  0  0
  181.0600  179.7570  137.0210 O   0  0  0  0  0  0  0  0  0  0  0  0
  180.8040  182.0780  136.9790 N   0  0  0  0  0  0  0  0  0  0  0  0
  181.3660  180.8750  137.5190 C   0  0  0  0  0  0  0  0  0  0  0  0
  179.8360  182.0210  135.8840 C   0  0  0  0  0  2  0  0  0  0  0  0
  181.0150  183.3520  137.6580 C   0  0  0  0  0  2  0  0  0  0  0  0
  180.0340  184.4480  135.6930 N   0  0  0  0  0  2  0  0  0  0  0  0
  2  6  2  0  0  0  0
  3  4  1  0  0  0  0
  4  1  2  0  0  0  0
  5  3  2  0  0  0  0
  5  2  1  0  0  0  0
  6  1  1  0  0  0  0
  6 27  1  0  0  0  0
  7 12  1  1  0  0  0
  7  8  1  0  0  0  0
  7 10  1  0  0  0  0
  8  9  1  0  0  0  0
  9 11  1  0  0  0  0
 10 11  1  0  0  0  0
 11  5  1  1  0  0  0
 12 13  2  0  0  0  0
 13 14  1  0  0  0  0
 14 19  1  0  0  0  0
 15 16  1  0  0  0  0
 15 22  1  0  0  0  0
 16 18  1  0  0  0  0
 17 23  1  0  0  0  0
 17 14  2  0  0  0  0
 18 21  1  0  0  0  0
 19 22  2  0  0  0  0
 21 20  1  0  0  0  0
 22 20  1  0  0  0  0
 23 15  2  0  0  0  0
 24 25  1  0  0  0  0
 25 29  1  0  0  0  0
 26 25  1  0  0  0  0
 27 26  2  0  0  0  0
 28 27  1  0  0  0  0
 28 24  2  0  0  0  0
 29 31  3  0  0  0  0
 31 30  1  0  0  0  0
 32 33  1  0  0  0  0
 32  3  1  0  0  0  0
 34 33  1  0  0  0  0
 35 43  1  0  0  0  0
 35 41  1  0  0  0  0
 36 34  1  0  0  0  0
 37 42  1  0  0  0  0
 38 40  2  0  0  0  0
 39 40  1  0  0  0  0
 39 42  1  0  0  0  0
 40 36  1  0  0  0  0
 41 39  1  0  0  0  0
 43 37  1  0  0  0  0
M  END
>  <MODEL>
6

>  <REMARK>
 VINA RESULT:      -8.5      3.737     11.340
  Name = 
  9 active torsions:
  status: ('A' for Active; 'I' for Inactive)
    1  A    between atoms: C_3  and  C_21
    2  A    between atoms: C_4  and  O_32
    3  A    between atoms: N_7  and  C_8
    4  A    between atoms: N_9  and  N_12
    5  A    between atoms: N_9  and  N_18
    6  A    between atoms: C_10  and  N_37
    7  A    between atoms: C_16  and  C_25
    8  A    between atoms: N_18  and  O_32
    9  A    between atoms: C_27  and  C_30
                            x       y       z     vdW  Elec       q    Type
                         _______ _______ _______ _____ _____    ______ ____

>  <TORSDO>
F 9

$$$$
=
 OpenBabel10222418593D

 43 48  0  0  1  0  0  0  0  0999 V2000
  190.7640  177.3080  142.6430 C   0  0  0  0  0  3  0  0  0  0  0  0
  189.2490  177.4510  140.8070 N   0  0  0  0  0  0  0  0  0  0  0  0
  191.5920  177.2610  140.3650 C   0  0  0  0  0  0  0  0  0  0  0  0
  191.8290  177.2280  141.7440 C   0  0  0  0  0  3  0  0  0  0  0  0
  190.2700  177.3740  139.9080 C   0  0  0  0  0  0  0  0  0  0  0  0
  189.4600  177.4190  142.1530 C   0  0  0  0  0  0  0  0  0  0  0  0
  187.9370  177.6850  137.1770 C   0  0  2  0  0  3  0  0  0  0  0  0
  188.1190  176.2100  137.4700 C   0  0  0  0  0  2  0  0  0  0  0  0
  189.5700  176.0730  137.8880 C   0  0  0  0  0  2  0  0  0  0  0  0
  188.8510  178.3990  138.1490 C   0  0  0  0  0  2  0  0  0  0  0  0
  189.9870  177.4320  138.4360 C   0  0  1  0  0  3  0  0  0  0  0  0
  186.5260  178.1060  137.4000 C   0  0  0  0  0  3  0  0  0  0  0  0
  185.5670  177.2380  137.3420 N   0  0  0  0  0  0  0  0  0  0  0  0
  184.1890  177.5770  137.5280 C   0  0  0  0  0  0  0  0  0  0  0  0
  181.5000  178.2670  137.9470 C   0  0  0  0  0  0  0  0  0  0  0  0
  180.0510  178.5690  138.1840 C   0  0  0  0  0  2  0  0  0  0  0  0
  183.2610  177.5010  136.4730 C   0  0  0  0  0  3  0  0  0  0  0  0
  179.8930  179.4970  139.3040 N   0  0  0  0  0  2  0  0  0  0  0  0
  183.7590  177.9970  138.7930 C   0  0  0  0  0  3  0  0  0  0  0  0
  181.9960  178.8360  140.3650 C   0  0  0  0  0  2  0  0  0  0  0  0
  180.4750  178.8810  140.4930 C   0  0  0  0  0  2  0  0  0  0  0  0
  182.4180  178.3250  139.0150 C   0  0  0  0  0  0  0  0  0  0  0  0
  181.9210  177.8400  136.6840 C   0  0  0  0  0  3  0  0  0  0  0  0
  187.1030  177.2310  144.7980 C   0  0  0  0  0  3  0  0  0  0  0  0
  186.4030  177.9050  143.8720 N   0  0  0  0  0  0  0  0  0  0  0  0
  187.1390  178.0560  142.7860 N   0  0  0  0  0  0  0  0  0  0  0  0
  188.3180  177.4750  143.0800 C   0  0  0  0  0  0  0  0  0  0  0  0
  188.3380  176.9450  144.3250 N   0  0  0  0  0  0  0  0  0  0  0  0
  185.0580  178.2830  143.9680 C   0  0  0  0  0  0  0  0  0  0  0  0
  182.5080  179.0370  144.1410 C   0  0  0  0  0  1  0  0  0  0  0  0
  183.9040  178.6190  144.0470 C   0  0  0  0  0  0  0  0  0  0  0  0
  192.6450  177.1950  139.4480 O   0  0  0  0  0  0  0  0  0  0  0  0
  193.9390  177.4970  139.8150 N   0  0  0  0  0  2  0  0  0  0  0  0
  194.6280  176.2810  139.9210 N   0  0  0  0  0  2  0  0  0  0  0  0
  195.8620  172.3720  135.4110 C   0  0  0  0  0  2  0  0  0  0  0  0
  194.4020  175.5930  138.7190 N   0  0  0  0  0  2  0  0  0  0  0  0
  194.2350  174.0010  134.8360 C   0  0  0  0  0  2  0  0  0  0  0  0
  195.8740  173.8750  139.2690 O   0  0  0  0  0  0  0  0  0  0  0  0
  194.8380  173.6970  137.1830 N   0  0  0  0  0  0  0  0  0  0  0  0
  195.0690  174.3650  138.4310 C   0  0  0  0  0  0  0  0  0  0  0  0
  195.4890  172.4200  136.8920 C   0  0  0  0  0  2  0  0  0  0  0  0
  193.7840  174.1640  136.2890 C   0  0  0  0  0  2  0  0  0  0  0  0
  194.6770  172.6260  134.5970 N   0  0  0  0  0  2  0  0  0  0  0  0
  2  6  2  0  0  0  0
  3  4  1  0  0  0  0
  4  1  2  0  0  0  0
  5  3  2  0  0  0  0
  5  2  1  0  0  0  0
  6  1  1  0  0  0  0
  6 27  1  0  0  0  0
  7 12  1  1  0  0  0
  7  8  1  0  0  0  0
  7 10  1  0  0  0  0
  8  9  1  0  0  0  0
  9 11  1  0  0  0  0
 10 11  1  0  0  0  0
 11  5  1  1  0  0  0
 13 12  2  0  0  0  0
 13 14  1  0  0  0  0
 14 19  1  0  0  0  0
 15 16  1  0  0  0  0
 15 22  1  0  0  0  0
 16 18  1  0  0  0  0
 17 23  1  0  0  0  0
 17 14  2  0  0  0  0
 18 21  1  0  0  0  0
 19 22  2  0  0  0  0
 20 21  1  0  0  0  0
 22 20  1  0  0  0  0
 23 15  2  0  0  0  0
 25 29  1  0  0  0  0
 25 24  1  0  0  0  0
 26 27  2  0  0  0  0
 26 25  1  0  0  0  0
 27 28  1  0  0  0  0
 28 24  2  0  0  0  0
 29 31  3  0  0  0  0
 31 30  1  0  0  0  0
 32 33  1  0  0  0  0
 32  3  1  0  0  0  0
 33 34  1  0  0  0  0
 35 41  1  0  0  0  0
 36 34  1  0  0  0  0
 37 42  1  0  0  0  0
 39 40  1  0  0  0  0
 40 36  1  0  0  0  0
 40 38  2  0  0  0  0
 41 39  1  0  0  0  0
 42 39  1  0  0  0  0
 43 37  1  0  0  0  0
 43 35  1  0  0  0  0
M  END
>  <MODEL>
7

>  <REMARK>
 VINA RESULT:      -8.2      1.697      2.625
  Name = 
  9 active torsions:
  status: ('A' for Active; 'I' for Inactive)
    1  A    between atoms: C_3  and  C_21
    2  A    between atoms: C_4  and  O_32
    3  A    between atoms: N_7  and  C_8
    4  A    between atoms: N_9  and  N_12
    5  A    between atoms: N_9  and  N_18
    6  A    between atoms: C_10  and  N_37
    7  A    between atoms: C_16  and  C_25
    8  A    between atoms: N_18  and  O_32
    9  A    between atoms: C_27  and  C_30
                            x       y       z     vdW  Elec       q    Type
                         _______ _______ _______ _____ _____    ______ ____

>  <TORSDO>
F 9

$$$$
=
 OpenBabel10222418593D

 43 48  0  0  1  0  0  0  0  0999 V2000
  182.3390  178.6610  142.5670 C   0  0  0  0  0  3  0  0  0  0  0  0
  184.5760  178.2090  141.8730 N   0  0  0  0  0  0  0  0  0  0  0  0
  184.1890  178.9940  144.0990 C   0  0  0  0  0  0  0  0  0  0  0  0
  182.8170  179.0350  143.8240 C   0  0  0  0  0  3  0  0  0  0  0  0
  185.0680  178.5680  143.0920 C   0  0  0  0  0  0  0  0  0  0  0  0
  183.2440  178.2420  141.5880 C   0  0  0  0  0  0  0  0  0  0  0  0
  188.4320  177.9280  141.9630 C   0  0  2  0  0  3  0  0  0  0  0  0
  187.9040  176.6600  142.6010 C   0  0  0  0  0  2  0  0  0  0  0  0
  187.0170  177.1360  143.7350 C   0  0  0  0  0  2  0  0  0  0  0  0
  187.3150  178.9400  142.1060 C   0  0  0  0  0  2  0  0  0  0  0  0
  186.5450  178.5330  143.3510 C   0  0  1  0  0  3  0  0  0  0  0  0
  188.7440  177.7140  140.5220 C   0  0  0  0  0  3  0  0  0  0  0  0
  189.6950  176.9090  140.1710 N   0  0  0  0  0  0  0  0  0  0  0  0
  190.0600  176.6710  138.8080 C   0  0  0  0  0  0  0  0  0  0  0  0
  190.8350  176.1880  136.1540 C   0  0  0  0  0  0  0  0  0  0  0  0
  191.2510  175.9980  134.7250 C   0  0  0  0  0  2  0  0  0  0  0  0
  189.0970  176.6150  137.7840 C   0  0  0  0  0  3  0  0  0  0  0  0
  192.5210  175.2770  134.6490 N   0  0  0  0  0  2  0  0  0  0  0  0
  191.4120  176.4870  138.4920 C   0  0  0  0  0  3  0  0  0  0  0  0
  193.2580  176.0050  136.8660 C   0  0  0  0  0  2  0  0  0  0  0  0
  193.5310  176.0540  135.3650 C   0  0  0  0  0  2  0  0  0  0  0  0
  191.8080  176.2640  137.1690 C   0  0  0  0  0  0  0  0  0  0  0  0
  189.4840  176.3790  136.4620 C   0  0  0  0  0  3  0  0  0  0  0  0
  182.0690  177.8490  138.2630 C   0  0  0  0  0  3  0  0  0  0  0  0
  182.1590  176.5700  138.6610 N   0  0  0  0  0  0  0  0  0  0  0  0
  182.5760  176.5260  139.9120 N   0  0  0  0  0  0  0  0  0  0  0  0
  182.7630  177.8130  140.2640 C   0  0  0  0  0  0  0  0  0  0  0  0
  182.4550  178.6730  139.2650 N   0  0  0  0  0  0  0  0  0  0  0  0
  181.7530  175.4490  137.9280 C   0  0  0  0  0  0  0  0  0  0  0  0
  180.9810  173.2920  136.5650 C   0  0  0  0  0  1  0  0  0  0  0  0
  181.4030  174.4760  137.3080 C   0  0  0  0  0  0  0  0  0  0  0  0
  184.6880  179.3760  145.3480 O   0  0  0  0  0  0  0  0  0  0  0  0
  184.7950  178.4770  146.3870 N   0  0  0  0  0  2  0  0  0  0  0  0
  185.7930  178.9600  147.2440 N   0  0  0  0  0  2  0  0  0  0  0  0
  191.4700  176.7560  147.4610 C   0  0  0  0  0  2  0  0  0  0  0  0
  187.0140  178.5030  146.7270 N   0  0  0  0  0  2  0  0  0  0  0  0
  190.9350  177.7970  145.3970 C   0  0  0  0  0  2  0  0  0  0  0  0
  187.5510  177.3310  148.6650 O   0  0  0  0  0  0  0  0  0  0  0  0
  189.1360  177.2410  146.9520 N   0  0  0  0  0  0  0  0  0  0  0  0
  187.8820  177.6730  147.4970 C   0  0  0  0  0  0  0  0  0  0  0  0
  190.0170  176.3620  147.7200 C   0  0  0  0  0  2  0  0  0  0  0  0
  189.4450  177.4860  145.5470 C   0  0  0  0  0  2  0  0  0  0  0  0
  191.7350  176.7440  146.0250 N   0  0  0  0  0  2  0  0  0  0  0  0
  1  4  1  0  0  0  0
  2  5  2  0  0  0  0
  3 32  1  0  0  0  0
  4  3  2  0  0  0  0
  5  3  1  0  0  0  0
  6  2  1  0  0  0  0
  6  1  2  0  0  0  0
  7 12  1  6  0  0  0
  7 10  1  0  0  0  0
  7  8  1  0  0  0  0
  8  9  1  0  0  0  0
 10 11  1  0  0  0  0
 11  5  1  6  0  0  0
 11  9  1  0  0  0  0
 13 12  2  0  0  0  0
 14 13  1  0  0  0  0
 15 23  2  0  0  0  0
 15 22  1  0  0  0  0
 16 15  1  0  0  0  0
 17 14  2  0  0  0  0
 18 16  1  0  0  0  0
 18 21  1  0  0  0  0
 19 14  1  0  0  0  0
 20 22  1  0  0  0  0
 21 20  1  0  0  0  0
 22 19  2  0  0  0  0
 23 17  1  0  0  0  0
 24 25  1  0  0  0  0
 24 28  2  0  0  0  0
 25 26  1  0  0  0  0
 26 27  2  0  0  0  0
 27  6  1  0  0  0  0
 28 27  1  0  0  0  0
 29 25  1  0  0  0  0
 30 31  1  0  0  0  0
 31 29  3  0  0  0  0
 32 33  1  0  0  0  0
 33 34  1  0  0  0  0
 35 41  1  0  0  0  0
 36 34  1  0  0  0  0
 36 40  1  0  0  0  0
 37 42  1  0  0  0  0
 37 43  1  0  0  0  0
 39 40  1  0  0  0  0
 39 41  1  0  0  0  0
 40 38  2  0  0  0  0
 42 39  1  0  0  0  0
 43 35  1  0  0  0  0
M  END
>  <MODEL>
8

>  <REMARK>
 VINA RESULT:      -8.1      4.050     10.155
  Name = 
  9 active torsions:
  status: ('A' for Active; 'I' for Inactive)
    1  A    between atoms: C_3  and  C_21
    2  A    between atoms: C_4  and  O_32
    3  A    between atoms: N_7  and  C_8
    4  A    between atoms: N_9  and  N_12
    5  A    between atoms: N_9  and  N_18
    6  A    between atoms: C_10  and  N_37
    7  A    between atoms: C_16  and  C_25
    8  A    between atoms: N_18  and  O_32
    9  A    between atoms: C_27  and  C_30
                            x       y       z     vdW  Elec       q    Type
                         _______ _______ _______ _____ _____    ______ ____

>  <TORSDO>
F 9

$$$$
=
 OpenBabel10222418593D

 43 48  0  0  1  0  0  0  0  0999 V2000
  187.5540  177.7480  143.0570 C   0  0  0  0  0  3  0  0  0  0  0  0
  188.8850  177.6130  141.0820 N   0  0  0  0  0  0  0  0  0  0  0  0
  186.7180  178.6180  140.9530 C   0  0  0  0  0  0  0  0  0  0  0  0
  186.5470  178.3750  142.3210 C   0  0  0  0  0  3  0  0  0  0  0  0
  187.9180  178.2230  140.3410 C   0  0  0  0  0  0  0  0  0  0  0  0
  188.7360  177.3690  142.4140 C   0  0  0  0  0  0  0  0  0  0  0  0
  187.8170  177.0300  136.9400 C   0  0  2  0  0  3  0  0  0  0  0  0
  189.2090  176.7790  137.4830 C   0  0  0  0  0  2  0  0  0  0  0  0
  189.4830  177.9490  138.4080 C   0  0  0  0  0  2  0  0  0  0  0  0
  187.0690  177.7130  138.0660 C   0  0  0  0  0  2  0  0  0  0  0  0
  188.1220  178.4530  138.8730 C   0  0  1  0  0  3  0  0  0  0  0  0
  187.1420  175.7520  136.5820 C   0  0  0  0  0  3  0  0  0  0  0  0
  185.9990  175.4460  137.1080 N   0  0  0  0  0  0  0  0  0  0  0  0
  185.3050  174.2270  136.8230 C   0  0  0  0  0  0  0  0  0  0  0  0
  183.8870  171.8690  136.2670 C   0  0  0  0  0  0  0  0  0  0  0  0
  183.1420  170.5880  136.0350 C   0  0  0  0  0  2  0  0  0  0  0  0
  185.9820  173.0770  136.3810 C   0  0  0  0  0  3  0  0  0  0  0  0
  181.7460  170.8580  135.6930 N   0  0  0  0  0  2  0  0  0  0  0  0
  183.9150  174.1870  136.9880 C   0  0  0  0  0  3  0  0  0  0  0  0
  181.7040  173.0120  136.8520 C   0  0  0  0  0  2  0  0  0  0  0  0
  181.1390  171.5950  136.7990 C   0  0  0  0  0  2  0  0  0  0  0  0
  183.2030  173.0100  136.7310 C   0  0  0  0  0  0  0  0  0  0  0  0
  185.2760  171.9010  136.1090 C   0  0  0  0  0  3  0  0  0  0  0  0
  191.4820  175.5180  143.6880 C   0  0  0  0  0  3  0  0  0  0  0  0
  191.1400  176.2500  144.7610 N   0  0  0  0  0  0  0  0  0  0  0  0
  190.0990  177.0050  144.4650 N   0  0  0  0  0  0  0  0  0  0  0  0
  189.8250  176.7340  143.1740 C   0  0  0  0  0  0  0  0  0  0  0  0
  190.6630  175.8080  142.6510 N   0  0  0  0  0  0  0  0  0  0  0  0
  191.6990  176.1480  146.0400 C   0  0  0  0  0  0  0  0  0  0  0  0
  192.7390  175.9790  148.4890 C   0  0  0  0  0  1  0  0  0  0  0  0
  192.1710  176.0680  147.1460 C   0  0  0  0  0  0  0  0  0  0  0  0
  185.7170  179.2320  140.1970 O   0  0  0  0  0  0  0  0  0  0  0  0
  184.4360  179.3850  140.6850 N   0  0  0  0  0  2  0  0  0  0  0  0
  183.5720  178.7940  139.7540 N   0  0  0  0  0  2  0  0  0  0  0  0
  180.4460  181.9030  135.5460 C   0  0  0  0  0  2  0  0  0  0  0  0
  182.7600  179.8250  139.2580 N   0  0  0  0  0  2  0  0  0  0  0  0
  180.9640  183.1790  137.4790 C   0  0  0  0  0  2  0  0  0  0  0  0
  182.0850  178.5870  137.4060 O   0  0  0  0  0  0  0  0  0  0  0  0
  181.2190  180.7520  137.5510 N   0  0  0  0  0  0  0  0  0  0  0  0
  182.0210  179.6710  138.0470 C   0  0  0  0  0  0  0  0  0  0  0  0
  180.4310  180.5920  136.3300 C   0  0  0  0  0  2  0  0  0  0  0  0
  181.0030  181.9380  138.3730 C   0  0  0  0  0  2  0  0  0  0  0  0
  179.9890  182.9940  136.4030 N   0  0  0  0  0  2  0  0  0  0  0  0
  2  6  2  0  0  0  0
  3  4  1  0  0  0  0
  4  1  2  0  0  0  0
  5  3  2  0  0  0  0
  5  2  1  0  0  0  0
  6  1  1  0  0  0  0
  6 27  1  0  0  0  0
  7 12  1  1  0  0  0
  7  8  1  0  0  0  0
  7 10  1  0  0  0  0
  8  9  1  0  0  0  0
  9 11  1  0  0  0  0
 10 11  1  0  0  0  0
 11  5  1  1  0  0  0
 12 13  2  0  0  0  0
 14 19  1  0  0  0  0
 14 13  1  0  0  0  0
 15 22  1  0  0  0  0
 16 15  1  0  0  0  0
 17 14  2  0  0  0  0
 18 16  1  0  0  0  0
 18 21  1  0  0  0  0
 21 20  1  0  0  0  0
 22 20  1  0  0  0  0
 22 19  2  0  0  0  0
 23 15  2  0  0  0  0
 23 17  1  0  0  0  0
 24 25  1  0  0  0  0
 25 29  1  0  0  0  0
 26 25  1  0  0  0  0
 27 26  2  0  0  0  0
 28 27  1  0  0  0  0
 28 24  2  0  0  0  0
 29 31  3  0  0  0  0
 31 30  1  0  0  0  0
 32 33  1  0  0  0  0
 32  3  1  0  0  0  0
 34 33  1  0  0  0  0
 35 41  1  0  0  0  0
 35 43  1  0  0  0  0
 36 34  1  0  0  0  0
 37 42  1  0  0  0  0
 38 40  2  0  0  0  0
 39 40  1  0  0  0  0
 39 42  1  0  0  0  0
 40 36  1  0  0  0  0
 41 39  1  0  0  0  0
 43 37  1  0  0  0  0
M  END
>  <MODEL>
9

>  <REMARK>
 VINA RESULT:      -7.8      4.909      9.620
  Name = 
  9 active torsions:
  status: ('A' for Active; 'I' for Inactive)
    1  A    between atoms: C_3  and  C_21
    2  A    between atoms: C_4  and  O_32
    3  A    between atoms: N_7  and  C_8
    4  A    between atoms: N_9  and  N_12
    5  A    between atoms: N_9  and  N_18
    6  A    between atoms: C_10  and  N_37
    7  A    between atoms: C_16  and  C_25
    8  A    between atoms: N_18  and  O_32
    9  A    between atoms: C_27  and  C_30
                            x       y       z     vdW  Elec       q    Type
                         _______ _______ _______ _____ _____    ______ ____

>  <TORSDO>
F 9

$$$$
