=
 OpenBabel10222418083D

 25 28  0  0  1  0  0  0  0  0999 V2000
  192.4310  176.0390  147.4200 N   0  0  0  0  0  0  0  0  0  0  0  0
  187.9000  176.5160  143.7750 C   0  0  0  0  0  3  0  0  0  0  0  0
  192.0190  174.7020  147.8180 C   0  0  0  0  0  1  0  0  0  0  0  0
  187.8630  178.0990  147.9300 C   0  0  0  0  0  3  0  0  0  0  0  0
  189.2230  178.1810  145.0210 C   0  0  1  0  0  3  0  0  0  0  0  0
  185.6730  177.2120  145.3000 O   0  0  0  0  0  0  0  0  0  0  0  0
  191.5940  177.6450  141.4290 C   0  0  0  0  0  2  0  0  0  0  0  0
  190.7840  177.3320  146.7730 C   0  0  0  0  0  0  0  0  0  0  0  0
  191.5550  176.6740  142.6040 C   0  0  0  0  0  2  0  0  0  0  0  0
  190.7730  177.1340  140.2830 C   0  0  0  0  0  0  0  0  0  0  0  0
  186.8270  177.4010  145.7680 C   0  0  0  0  0  0  0  0  0  0  0  0
  188.9990  176.4310  142.7640 C   0  0  1  0  0  3  0  0  0  0  0  0
  187.9810  177.3310  144.8350 C   0  0  0  0  0  0  0  0  0  0  0  0
  191.7550  176.3410  146.1840 C   0  0  0  0  0  2  0  0  0  0  0  0
  189.7750  178.1310  146.4040 C   0  0  0  0  0  0  0  0  0  0  0  0
  189.4420  176.9990  140.3700 C   0  0  0  0  0  3  0  0  0  0  0  0
  189.0140  178.9000  147.4140 C   0  0  0  0  0  2  0  0  0  0  0  0
  186.9520  177.5210  147.2000 N   0  0  0  0  0  0  0  0  0  0  0  0
  190.2060  178.1440  143.9930 O   0  0  0  0  0  0  0  0  0  0  0  0
  188.6600  177.3570  141.5970 C   0  0  0  0  0  2  0  0  0  0  0  0
  191.5200  176.9670  148.0380 C   0  0  0  0  0  2  0  0  0  0  0  0
  190.3010  176.8390  143.4650 C   0  0  2  0  0  3  0  0  0  0  0  0
  191.4740  176.7490  139.0190 C   0  0  0  0  0  2  0  0  0  0  0  0
  191.1650  174.6250  137.9660 O   0  0  0  0  0  1  0  0  0  0  0  0
  190.5880  175.8850  138.1340 C   0  0  0  0  0  2  0  0  0  0  0  0
  1  3  1  0  0  0  0
  1 21  1  0  0  0  0
  2 13  2  0  0  0  0
  5 19  1  6  0  0  0
  5 15  1  0  0  0  0
  6 11  2  0  0  0  0
  7  9  1  0  0  0  0
  8 21  1  0  0  0  0
 10 16  2  0  0  0  0
 10  7  1  0  0  0  0
 11 18  1  0  0  0  0
 12 20  1  6  0  0  0
 12 22  1  0  0  0  0
 12  2  1  0  0  0  0
 13  5  1  0  0  0  0
 13 11  1  0  0  0  0
 14  8  1  0  0  0  0
 14  1  1  0  0  0  0
 15  8  2  0  0  0  0
 15 17  1  0  0  0  0
 16 20  1  0  0  0  0
 17  4  1  0  0  0  0
 18  4  2  0  0  0  0
 22  9  1  6  0  0  0
 22 19  1  0  0  0  0
 23 10  1  0  0  0  0
 24 25  1  0  0  0  0
 25 23  1  0  0  0  0
M  END
>  <MODEL>
1

>  <REMARK>
 VINA RESULT:      -7.0      0.000      0.000
  Name = 
  2 active torsions:
  status: ('A' for Active; 'I' for Inactive)
    1  A    between atoms: C_10  and  C_21
    2  A    between atoms: C_19  and  C_21
                            x       y       z     vdW  Elec       q    Type
                         _______ _______ _______ _____ _____    ______ ____

>  <TORSDO>
F 2

$$$$
=
 OpenBabel10222418083D

 25 28  0  0  1  0  0  0  0  0999 V2000
  185.0010  177.4850  137.5360 N   0  0  0  0  0  0  0  0  0  0  0  0
  188.6320  176.6190  142.0200 C   0  0  0  0  0  3  0  0  0  0  0  0
  184.9250  176.0560  137.2720 C   0  0  0  0  0  1  0  0  0  0  0  0
  190.0220  177.6170  137.9160 C   0  0  0  0  0  3  0  0  0  0  0  0
  188.3050  178.5140  140.4790 C   0  0  1  0  0  3  0  0  0  0  0  0
  191.1880  176.2630  140.9660 O   0  0  0  0  0  0  0  0  0  0  0  0
  185.3130  179.2940  143.5190 C   0  0  0  0  0  2  0  0  0  0  0  0
  186.8770  178.1280  138.4690 C   0  0  0  0  0  0  0  0  0  0  0  0
  185.1810  178.2580  142.4070 C   0  0  0  0  0  2  0  0  0  0  0  0
  185.6520  178.6390  144.8250 C   0  0  0  0  0  0  0  0  0  0  0  0
  190.3010  176.8180  140.2650 C   0  0  0  0  0  0  0  0  0  0  0  0
  187.4260  177.0610  142.7850 C   0  0  1  0  0  3  0  0  0  0  0  0
  189.0650  177.2860  140.9420 C   0  0  0  0  0  0  0  0  0  0  0  0
  185.5090  177.6420  138.8760 C   0  0  0  0  0  2  0  0  0  0  0  0
  188.0330  178.5260  139.0140 C   0  0  0  0  0  0  0  0  0  0  0  0
  186.8180  178.0060  145.0180 C   0  0  0  0  0  3  0  0  0  0  0  0
  189.2000  178.8410  138.1590 C   0  0  0  0  0  2  0  0  0  0  0  0
  190.4900  176.8220  138.8360 N   0  0  0  0  0  0  0  0  0  0  0  0
  187.2190  178.9590  141.2830 O   0  0  0  0  0  0  0  0  0  0  0  0
  187.8830  177.9120  143.9680 C   0  0  0  0  0  2  0  0  0  0  0  0
  186.2960  177.9320  137.0910 C   0  0  0  0  0  2  0  0  0  0  0  0
  186.5310  177.8490  141.8190 C   0  0  2  0  0  3  0  0  0  0  0  0
  184.6430  178.6830  145.9290 C   0  0  0  0  0  2  0  0  0  0  0  0
  185.8220  179.8270  147.6650 O   0  0  0  0  0  1  0  0  0  0  0  0
  185.3080  178.5840  147.2930 C   0  0  0  0  0  2  0  0  0  0  0  0
  1 14  1  0  0  0  0
  3  1  1  0  0  0  0
  4 17  1  0  0  0  0
  4 18  2  0  0  0  0
  5 15  1  6  0  0  0
  5 13  1  0  0  0  0
  5 19  1  0  0  0  0
  7 10  1  0  0  0  0
  8 14  1  0  0  0  0
  8 15  2  0  0  0  0
  9  7  1  0  0  0  0
 10 16  2  0  0  0  0
 10 23  1  0  0  0  0
 11 13  1  0  0  0  0
 11  6  2  0  0  0  0
 12  2  1  6  0  0  0
 12 20  1  0  0  0  0
 13  2  2  0  0  0  0
 17 15  1  0  0  0  0
 18 11  1  0  0  0  0
 19 22  1  0  0  0  0
 20 16  1  0  0  0  0
 21  1  1  0  0  0  0
 21  8  1  0  0  0  0
 22  9  1  1  0  0  0
 22 12  1  0  0  0  0
 23 25  1  0  0  0  0
 25 24  1  0  0  0  0
M  END
>  <MODEL>
2

>  <REMARK>
 VINA RESULT:      -6.6      3.844      8.224
  Name = 
  2 active torsions:
  status: ('A' for Active; 'I' for Inactive)
    1  A    between atoms: C_10  and  C_21
    2  A    between atoms: C_19  and  C_21
                            x       y       z     vdW  Elec       q    Type
                         _______ _______ _______ _____ _____    ______ ____

>  <TORSDO>
F 2

$$$$
=
 OpenBabel10222418083D

 25 28  0  0  1  0  0  0  0  0999 V2000
  192.6030  174.3910  144.7760 N   0  0  0  0  0  0  0  0  0  0  0  0
  187.5450  177.0830  143.6740 C   0  0  0  0  0  3  0  0  0  0  0  0
  191.9200  173.1370  145.0490 C   0  0  0  0  0  1  0  0  0  0  0  0
  189.5580  177.2050  147.6370 C   0  0  0  0  0  3  0  0  0  0  0  0
  189.7200  177.8920  144.5030 C   0  0  1  0  0  3  0  0  0  0  0  0
  186.4100  177.7610  146.1290 O   0  0  0  0  0  0  0  0  0  0  0  0
  190.2950  177.9910  140.2060 C   0  0  0  0  0  2  0  0  0  0  0  0
  191.4000  176.1770  145.1860 C   0  0  0  0  0  0  0  0  0  0  0  0
  190.3410  176.7320  141.0660 C   0  0  0  0  0  2  0  0  0  0  0  0
  188.9950  178.0880  139.4660 C   0  0  0  0  0  0  0  0  0  0  0  0
  187.6420  177.5080  146.0660 C   0  0  0  0  0  0  0  0  0  0  0  0
  188.1030  177.0680  142.2870 C   0  0  1  0  0  3  0  0  0  0  0  0
  188.2810  177.4690  144.7250 C   0  0  0  0  0  0  0  0  0  0  0  0
  191.6810  175.2280  144.0500 C   0  0  0  0  0  2  0  0  0  0  0  0
  190.6760  177.2690  145.4610 C   0  0  0  0  0  0  0  0  0  0  0  0
  187.8270  178.2530  140.1030 C   0  0  0  0  0  3  0  0  0  0  0  0
  190.6500  177.8310  146.8310 C   0  0  0  0  0  2  0  0  0  0  0  0
  188.3050  177.1270  147.2880 N   0  0  0  0  0  0  0  0  0  0  0  0
  190.1890  177.9540  143.1610 O   0  0  0  0  0  0  0  0  0  0  0  0
  187.7160  178.3730  141.5930 C   0  0  0  0  0  2  0  0  0  0  0  0
  192.3620  175.2610  145.9000 C   0  0  0  0  0  2  0  0  0  0  0  0
  189.6240  176.9050  142.4050 C   0  0  2  0  0  3  0  0  0  0  0  0
  189.0130  177.9740  137.9740 C   0  0  0  0  0  2  0  0  0  0  0  0
  187.7870  179.6880  136.8430 O   0  0  0  0  0  1  0  0  0  0  0  0
  189.0550  179.3450  137.3140 C   0  0  0  0  0  2  0  0  0  0  0  0
  1  3  1  0  0  0  0
  1 21  1  0  0  0  0
  2 13  2  0  0  0  0
  5 19  1  6  0  0  0
  5 13  1  0  0  0  0
  5 15  1  0  0  0  0
  7  9  1  0  0  0  0
  8 15  2  0  0  0  0
  8 21  1  0  0  0  0
 10 16  2  0  0  0  0
 10  7  1  0  0  0  0
 11  6  2  0  0  0  0
 11 18  1  0  0  0  0
 12 20  1  1  0  0  0
 12 22  1  0  0  0  0
 12  2  1  0  0  0  0
 13 11  1  0  0  0  0
 14  1  1  0  0  0  0
 14  8  1  0  0  0  0
 15 17  1  0  0  0  0
 16 20  1  0  0  0  0
 17  4  1  0  0  0  0
 18  4  2  0  0  0  0
 22  9  1  6  0  0  0
 22 19  1  0  0  0  0
 23 10  1  0  0  0  0
 24 25  1  0  0  0  0
 25 23  1  0  0  0  0
M  END
>  <MODEL>
3

>  <REMARK>
 VINA RESULT:      -6.5      2.087      2.347
  Name = 
  2 active torsions:
  status: ('A' for Active; 'I' for Inactive)
    1  A    between atoms: C_10  and  C_21
    2  A    between atoms: C_19  and  C_21
                            x       y       z     vdW  Elec       q    Type
                         _______ _______ _______ _____ _____    ______ ____

>  <TORSDO>
F 2

$$$$
=
 OpenBabel10222418083D

 25 28  0  0  1  0  0  0  0  0999 V2000
  185.0460  178.7740  142.0360 N   0  0  0  0  0  0  0  0  0  0  0  0
  190.0630  175.8060  141.7770 C   0  0  0  0  0  3  0  0  0  0  0  0
  184.2770  177.5730  141.7510 C   0  0  0  0  0  1  0  0  0  0  0  0
  188.3880  178.0670  138.3330 C   0  0  0  0  0  3  0  0  0  0  0  0
  189.4960  178.1660  141.3480 C   0  0  1  0  0  3  0  0  0  0  0  0
  190.7270  175.5240  139.0840 O   0  0  0  0  0  0  0  0  0  0  0  0
  190.1260  178.1520  145.6380 C   0  0  0  0  0  2  0  0  0  0  0  0
  187.0750  178.7590  141.2070 C   0  0  0  0  0  0  0  0  0  0  0  0
  188.8740  177.6360  144.9360 C   0  0  0  0  0  2  0  0  0  0  0  0
  191.0020  177.0160  146.0750 C   0  0  0  0  0  0  0  0  0  0  0  0
  189.9080  176.4170  139.4290 C   0  0  0  0  0  0  0  0  0  0  0  0
  190.0410  176.0900  143.2440 C   0  0  1  0  0  3  0  0  0  0  0  0
  189.8160  176.7620  140.8710 C   0  0  0  0  0  0  0  0  0  0  0  0
  186.3550  178.3480  142.4650 C   0  0  0  0  0  2  0  0  0  0  0  0
  188.3050  178.7620  140.6790 C   0  0  0  0  0  0  0  0  0  0  0  0
  191.6030  176.2040  145.1930 C   0  0  0  0  0  3  0  0  0  0  0  0
  188.5260  179.2110  139.2850 C   0  0  0  0  0  2  0  0  0  0  0  0
  189.0180  176.9290  138.4180 N   0  0  0  0  0  0  0  0  0  0  0  0
  189.5740  178.4210  142.7450 O   0  0  0  0  0  0  0  0  0  0  0  0
  191.4700  176.3650  143.7090 C   0  0  0  0  0  2  0  0  0  0  0  0
  185.6820  179.1740  140.8060 C   0  0  0  0  0  2  0  0  0  0  0  0
  189.1190  177.2960  143.4660 C   0  0  2  0  0  3  0  0  0  0  0  0
  191.1880  176.7810  147.5410 C   0  0  0  0  0  2  0  0  0  0  0  0
  193.1790  176.3060  148.7760 O   0  0  0  0  0  1  0  0  0  0  0  0
  192.3150  175.7940  147.8070 C   0  0  0  0  0  2  0  0  0  0  0  0
  1 14  1  0  0  0  0
  3  1  1  0  0  0  0
  4 18  2  0  0  0  0
  4 17  1  0  0  0  0
  5 15  1  1  0  0  0
  5 19  1  0  0  0  0
  6 11  2  0  0  0  0
  7 10  1  0  0  0  0
  8 14  1  0  0  0  0
  9  7  1  0  0  0  0
 10 23  1  0  0  0  0
 11 13  1  0  0  0  0
 12  2  1  6  0  0  0
 12 22  1  0  0  0  0
 12 20  1  0  0  0  0
 13  5  1  0  0  0  0
 13  2  2  0  0  0  0
 15  8  2  0  0  0  0
 16 10  2  0  0  0  0
 17 15  1  0  0  0  0
 18 11  1  0  0  0  0
 19 22  1  0  0  0  0
 20 16  1  0  0  0  0
 21  8  1  0  0  0  0
 21  1  1  0  0  0  0
 22  9  1  1  0  0  0
 23 25  1  0  0  0  0
 25 24  1  0  0  0  0
M  END
>  <MODEL>
4

>  <REMARK>
 VINA RESULT:      -6.5      3.004      6.997
  Name = 
  2 active torsions:
  status: ('A' for Active; 'I' for Inactive)
    1  A    between atoms: C_10  and  C_21
    2  A    between atoms: C_19  and  C_21
                            x       y       z     vdW  Elec       q    Type
                         _______ _______ _______ _____ _____    ______ ____

>  <TORSDO>
F 2

$$$$
=
 OpenBabel10222418083D

 25 28  0  0  1  0  0  0  0  0999 V2000
  186.6850  177.5650  137.5320 N   0  0  0  0  0  0  0  0  0  0  0  0
  187.9300  176.4030  143.1130 C   0  0  0  0  0  3  0  0  0  0  0  0
  186.4770  176.1540  137.2450 C   0  0  0  0  0  1  0  0  0  0  0  0
  191.0410  176.8980  139.9740 C   0  0  0  0  0  3  0  0  0  0  0  0
  188.6060  178.2240  141.5970 C   0  0  1  0  0  3  0  0  0  0  0  0
  190.5870  175.5660  143.2180 O   0  0  0  0  0  0  0  0  0  0  0  0
  184.8130  179.6730  143.1190 C   0  0  0  0  0  2  0  0  0  0  0  0
  188.0910  177.9500  139.1700 C   0  0  0  0  0  0  0  0  0  0  0  0
  184.9720  178.6060  142.0420 C   0  0  0  0  0  2  0  0  0  0  0  0
  184.4630  179.0560  144.4400 C   0  0  0  0  0  0  0  0  0  0  0  0
  190.1810  176.2140  142.2160 C   0  0  0  0  0  0  0  0  0  0  0  0
  186.6130  177.0830  143.3090 C   0  0  1  0  0  3  0  0  0  0  0  0
  188.8780  176.9200  142.3210 C   0  0  0  0  0  0  0  0  0  0  0  0
  186.6150  177.7220  138.9630 C   0  0  0  0  0  2  0  0  0  0  0  0
  188.9680  178.1880  140.1520 C   0  0  0  0  0  0  0  0  0  0  0  0
  185.3140  178.2550  145.0960 C   0  0  0  0  0  3  0  0  0  0  0  0
  190.4200  178.2530  139.8660 C   0  0  0  0  0  2  0  0  0  0  0  0
  190.9410  176.0960  140.9970 N   0  0  0  0  0  0  0  0  0  0  0  0
  187.3800  178.8900  141.8780 O   0  0  0  0  0  0  0  0  0  0  0  0
  186.6830  177.9210  144.5850 C   0  0  0  0  0  2  0  0  0  0  0  0
  188.1050  177.7650  137.6730 C   0  0  0  0  0  2  0  0  0  0  0  0
  186.3500  177.9440  142.0670 C   0  0  2  0  0  3  0  0  0  0  0  0
  183.1120  179.3340  145.0220 C   0  0  0  0  0  2  0  0  0  0  0  0
  181.5470  179.5360  143.2270 O   0  0  0  0  0  1  0  0  0  0  0  0
  182.0110  178.6650  144.2130 C   0  0  0  0  0  2  0  0  0  0  0  0
  1 21  1  0  0  0  0
  1 14  1  0  0  0  0
  3  1  1  0  0  0  0
  4 18  2  0  0  0  0
  5 15  1  6  0  0  0
  5 19  1  0  0  0  0
  5 13  1  0  0  0  0
  7 10  1  0  0  0  0
  8 15  2  0  0  0  0
  9  7  1  0  0  0  0
 10 23  1  0  0  0  0
 10 16  2  0  0  0  0
 11 13  1  0  0  0  0
 11  6  2  0  0  0  0
 12  2  1  6  0  0  0
 12 20  1  0  0  0  0
 13  2  2  0  0  0  0
 14  8  1  0  0  0  0
 17  4  1  0  0  0  0
 17 15  1  0  0  0  0
 18 11  1  0  0  0  0
 19 22  1  0  0  0  0
 20 16  1  0  0  0  0
 21  8  1  0  0  0  0
 22  9  1  1  0  0  0
 22 12  1  0  0  0  0
 24 25  1  0  0  0  0
 25 23  1  0  0  0  0
M  END
>  <MODEL>
5

>  <REMARK>
 VINA RESULT:      -6.5      3.655      7.691
  Name = 
  2 active torsions:
  status: ('A' for Active; 'I' for Inactive)
    1  A    between atoms: C_10  and  C_21
    2  A    between atoms: C_19  and  C_21
                            x       y       z     vdW  Elec       q    Type
                         _______ _______ _______ _____ _____    ______ ____

>  <TORSDO>
F 2

$$$$
=
 OpenBabel10222418083D

 25 28  0  0  1  0  0  0  0  0999 V2000
  193.7910  175.6020  136.7960 N   0  0  0  0  0  0  0  0  0  0  0  0
  188.8380  178.4150  138.0600 C   0  0  0  0  0  3  0  0  0  0  0  0
  194.3060  176.7540  136.0720 C   0  0  0  0  0  1  0  0  0  0  0  0
  189.2610  175.6620  134.5940 C   0  0  0  0  0  3  0  0  0  0  0  0
  189.3770  176.0260  137.7840 C   0  0  1  0  0  3  0  0  0  0  0  0
  187.1930  178.2560  135.8150 O   0  0  0  0  0  0  0  0  0  0  0  0
  190.4050  176.7110  141.9400 C   0  0  0  0  0  2  0  0  0  0  0  0
  191.6050  175.4550  136.8130 C   0  0  0  0  0  0  0  0  0  0  0  0
  191.2600  177.1280  140.7480 C   0  0  0  0  0  2  0  0  0  0  0  0
  189.6750  177.8880  142.5150 C   0  0  0  0  0  0  0  0  0  0  0  0
  188.1450  177.4410  135.9430 C   0  0  0  0  0  0  0  0  0  0  0  0
  189.4310  178.3680  139.4320 C   0  0  1  0  0  3  0  0  0  0  0  0
  188.7980  177.3310  137.2740 C   0  0  0  0  0  0  0  0  0  0  0  0
  192.7130  176.0710  137.6280 C   0  0  0  0  0  2  0  0  0  0  0  0
  190.2700  175.3490  136.8010 C   0  0  0  0  0  0  0  0  0  0  0  0
  188.7290  178.5410  141.8250 C   0  0  0  0  0  3  0  0  0  0  0  0
  189.5760  174.6810  135.6760 C   0  0  0  0  0  2  0  0  0  0  0  0
  188.6260  176.7890  134.7520 N   0  0  0  0  0  0  0  0  0  0  0  0
  189.8490  175.9950  139.1260 O   0  0  0  0  0  0  0  0  0  0  0  0
  188.3060  178.1490  140.4410 C   0  0  0  0  0  2  0  0  0  0  0  0
  192.7720  175.0020  135.9720 C   0  0  0  0  0  2  0  0  0  0  0  0
  190.4560  177.2260  139.4510 C   0  0  2  0  0  3  0  0  0  0  0  0
  190.0370  178.3500  143.8920 C   0  0  0  0  0  2  0  0  0  0  0  0
  191.6670  177.3030  145.2920 O   0  0  0  0  0  1  0  0  0  0  0  0
  191.5150  178.1310  144.1790 C   0  0  0  0  0  2  0  0  0  0  0  0
  1 14  1  0  0  0  0
  3  1  1  0  0  0  0
  4 18  2  0  0  0  0
  4 17  1  0  0  0  0
  5 15  1  6  0  0  0
  5 19  1  0  0  0  0
  6 11  2  0  0  0  0
  7 10  1  0  0  0  0
  8 14  1  0  0  0  0
  9  7  1  0  0  0  0
 10 23  1  0  0  0  0
 11 13  1  0  0  0  0
 12  2  1  6  0  0  0
 12 22  1  0  0  0  0
 12 20  1  0  0  0  0
 13  5  1  0  0  0  0
 13  2  2  0  0  0  0
 15  8  2  0  0  0  0
 16 10  2  0  0  0  0
 17 15  1  0  0  0  0
 18 11  1  0  0  0  0
 19 22  1  0  0  0  0
 20 16  1  0  0  0  0
 21  1  1  0  0  0  0
 21  8  1  0  0  0  0
 22  9  1  1  0  0  0
 23 25  1  0  0  0  0
 25 24  1  0  0  0  0
M  END
>  <MODEL>
6

>  <REMARK>
 VINA RESULT:      -6.5      4.292      8.358
  Name = 
  2 active torsions:
  status: ('A' for Active; 'I' for Inactive)
    1  A    between atoms: C_10  and  C_21
    2  A    between atoms: C_19  and  C_21
                            x       y       z     vdW  Elec       q    Type
                         _______ _______ _______ _____ _____    ______ ____

>  <TORSDO>
F 2

$$$$
=
 OpenBabel10222418083D

 25 28  0  0  1  0  0  0  0  0999 V2000
  181.2480  180.5670  138.0310 N   0  0  0  0  0  0  0  0  0  0  0  0
  184.6510  179.3600  142.6150 C   0  0  0  0  0  3  0  0  0  0  0  0
  181.1090  181.9530  138.4510 C   0  0  0  0  0  1  0  0  0  0  0  0
  180.2680  178.6130  142.5700 C   0  0  0  0  0  3  0  0  0  0  0  0
  183.1300  177.9780  141.2550 C   0  0  1  0  0  3  0  0  0  0  0  0
  182.9810  178.9580  144.8100 O   0  0  0  0  0  0  0  0  0  0  0  0
  186.7980  177.8240  138.9480 C   0  0  0  0  0  2  0  0  0  0  0  0
  181.6030  179.1620  139.6760 C   0  0  0  0  0  0  0  0  0  0  0  0
  185.8330  179.0040  138.9780 C   0  0  0  0  0  2  0  0  0  0  0  0
  188.0070  178.0970  139.7920 C   0  0  0  0  0  0  0  0  0  0  0  0
  182.5050  178.8720  143.6470 C   0  0  0  0  0  0  0  0  0  0  0  0
  185.6780  179.2550  141.5330 C   0  0  1  0  0  3  0  0  0  0  0  0
  183.4550  178.7670  142.5090 C   0  0  0  0  0  0  0  0  0  0  0  0
  182.3900  180.0260  138.7240 C   0  0  0  0  0  2  0  0  0  0  0  0
  181.7930  178.2990  140.6810 C   0  0  0  0  0  0  0  0  0  0  0  0
  187.9250  178.2380  141.1220 C   0  0  0  0  0  3  0  0  0  0  0  0
  180.6390  177.7350  141.4190 C   0  0  0  0  0  2  0  0  0  0  0  0
  181.0810  179.0320  143.4980 N   0  0  0  0  0  0  0  0  0  0  0  0
  184.1620  177.8220  140.2890 O   0  0  0  0  0  0  0  0  0  0  0  0
  186.6380  178.1190  141.8810 C   0  0  0  0  0  2  0  0  0  0  0  0
  180.4450  179.7700  138.9240 C   0  0  0  0  0  2  0  0  0  0  0  0
  184.9350  179.0000  140.2150 C   0  0  2  0  0  3  0  0  0  0  0  0
  189.3340  178.2350  139.1140 C   0  0  0  0  0  2  0  0  0  0  0  0
  188.9960  179.7810  137.3220 O   0  0  0  0  0  1  0  0  0  0  0  0
  189.1730  178.4280  137.6140 C   0  0  0  0  0  2  0  0  0  0  0  0
  1  3  1  0  0  0  0
  1 14  1  0  0  0  0
  1 21  1  0  0  0  0
  4 18  2  0  0  0  0
  5 19  1  6  0  0  0
  5 13  1  0  0  0  0
  7  9  1  0  0  0  0
  7 10  1  0  0  0  0
  8 15  2  0  0  0  0
 10 16  2  0  0  0  0
 11  6  2  0  0  0  0
 12 20  1  1  0  0  0
 12  2  1  0  0  0  0
 13  2  2  0  0  0  0
 13 11  1  0  0  0  0
 14  8  1  0  0  0  0
 15  5  1  0  0  0  0
 15 17  1  0  0  0  0
 16 20  1  0  0  0  0
 17  4  1  0  0  0  0
 18 11  1  0  0  0  0
 21  8  1  0  0  0  0
 22  9  1  6  0  0  0
 22 19  1  0  0  0  0
 22 12  1  0  0  0  0
 23 10  1  0  0  0  0
 24 25  1  0  0  0  0
 25 23  1  0  0  0  0
M  END
>  <MODEL>
7

>  <REMARK>
 VINA RESULT:      -6.3      5.886      8.339
  Name = 
  2 active torsions:
  status: ('A' for Active; 'I' for Inactive)
    1  A    between atoms: C_10  and  C_21
    2  A    between atoms: C_19  and  C_21
                            x       y       z     vdW  Elec       q    Type
                         _______ _______ _______ _____ _____    ______ ____

>  <TORSDO>
F 2

$$$$
=
 OpenBabel10222418083D

 25 28  0  0  1  0  0  0  0  0999 V2000
  184.5670  179.2490  143.8100 N   0  0  0  0  0  0  0  0  0  0  0  0
  190.3220  178.3720  143.4220 C   0  0  0  0  0  3  0  0  0  0  0  0
  184.7660  180.6320  144.2160 C   0  0  0  0  0  1  0  0  0  0  0  0
  187.9360  177.3350  147.0280 C   0  0  0  0  0  3  0  0  0  0  0  0
  188.4310  176.8620  143.8900 C   0  0  1  0  0  3  0  0  0  0  0  0
  191.2700  177.9080  146.0020 O   0  0  0  0  0  0  0  0  0  0  0  0
  188.5090  176.9000  139.5540 C   0  0  0  0  0  2  0  0  0  0  0  0
  186.2130  177.9070  144.3530 C   0  0  0  0  0  0  0  0  0  0  0  0
  187.9430  178.0150  140.4280 C   0  0  0  0  0  2  0  0  0  0  0  0
  189.8590  177.2720  139.0180 C   0  0  0  0  0  0  0  0  0  0  0  0
  190.0430  177.7650  145.7590 C   0  0  0  0  0  0  0  0  0  0  0  0
  189.9830  178.3110  141.9670 C   0  0  1  0  0  3  0  0  0  0  0  0
  189.6140  177.6980  144.3380 C   0  0  0  0  0  0  0  0  0  0  0  0
  185.7990  178.8010  143.2110 C   0  0  0  0  0  2  0  0  0  0  0  0
  187.2050  177.0820  144.7070 C   0  0  0  0  0  0  0  0  0  0  0  0
  190.9200  177.4360  139.8210 C   0  0  0  0  0  3  0  0  0  0  0  0
  187.2240  176.4580  146.0500 C   0  0  0  0  0  2  0  0  0  0  0  0
  189.1330  177.8280  146.8750 N   0  0  0  0  0  0  0  0  0  0  0  0
  188.1940  176.7530  142.4910 O   0  0  0  0  0  0  0  0  0  0  0  0
  190.8590  177.2490  141.3070 C   0  0  0  0  0  2  0  0  0  0  0  0
  184.9190  178.4200  144.9350 C   0  0  0  0  0  2  0  0  0  0  0  0
  188.4890  177.9790  141.8560 C   0  0  2  0  0  3  0  0  0  0  0  0
  190.0080  177.4820  137.5440 C   0  0  0  0  0  2  0  0  0  0  0  0
  189.0470  179.6680  137.4340 O   0  0  0  0  0  1  0  0  0  0  0  0
  188.8900  178.3540  136.9920 C   0  0  0  0  0  2  0  0  0  0  0  0
  1  3  1  0  0  0  0
  1 21  1  0  0  0  0
  2 13  2  0  0  0  0
  5 19  1  6  0  0  0
  5 13  1  0  0  0  0
  5 15  1  0  0  0  0
  7  9  1  0  0  0  0
  8 15  2  0  0  0  0
  8 21  1  0  0  0  0
 10  7  1  0  0  0  0
 10 16  2  0  0  0  0
 11  6  2  0  0  0  0
 11 18  1  0  0  0  0
 12 20  1  6  0  0  0
 12  2  1  0  0  0  0
 13 11  1  0  0  0  0
 14  1  1  0  0  0  0
 14  8  1  0  0  0  0
 15 17  1  0  0  0  0
 16 20  1  0  0  0  0
 17  4  1  0  0  0  0
 18  4  2  0  0  0  0
 22  9  1  6  0  0  0
 22 12  1  0  0  0  0
 22 19  1  0  0  0  0
 23 10  1  0  0  0  0
 25 24  1  0  0  0  0
 25 23  1  0  0  0  0
M  END
>  <MODEL>
8

>  <REMARK>
 VINA RESULT:      -6.3      2.321      4.537
  Name = 
  2 active torsions:
  status: ('A' for Active; 'I' for Inactive)
    1  A    between atoms: C_10  and  C_21
    2  A    between atoms: C_19  and  C_21
                            x       y       z     vdW  Elec       q    Type
                         _______ _______ _______ _____ _____    ______ ____

>  <TORSDO>
F 2

$$$$
=
 OpenBabel10222418083D

 25 28  0  0  1  0  0  0  0  0999 V2000
  188.7710  178.1070  141.5330 N   0  0  0  0  0  0  0  0  0  0  0  0
  189.2350  174.4340  137.0230 C   0  0  0  0  0  3  0  0  0  0  0  0
  188.1600  177.0770  142.3590 C   0  0  0  0  0  1  0  0  0  0  0  0
  185.8460  177.2700  137.5180 C   0  0  0  0  0  3  0  0  0  0  0  0
  189.0160  176.8850  137.1640 C   0  0  1  0  0  3  0  0  0  0  0  0
  186.7460  174.3290  135.7740 O   0  0  0  0  0  0  0  0  0  0  0  0
  193.2960  176.3330  137.5910 C   0  0  0  0  0  2  0  0  0  0  0  0
  188.4210  177.8600  139.3830 C   0  0  0  0  0  0  0  0  0  0  0  0
  192.2690  176.0940  138.6930 C   0  0  0  0  0  2  0  0  0  0  0  0
  193.7580  175.0350  136.9980 C   0  0  0  0  0  0  0  0  0  0  0  0
  187.0180  175.2990  136.5300 C   0  0  0  0  0  0  0  0  0  0  0  0
  190.6860  174.5660  137.3610 C   0  0  1  0  0  3  0  0  0  0  0  0
  188.4360  175.5050  136.9210 C   0  0  0  0  0  0  0  0  0  0  0  0
  189.4190  177.4400  140.4320 C   0  0  0  0  0  2  0  0  0  0  0  0
  188.1860  177.7250  138.0730 C   0  0  0  0  0  0  0  0  0  0  0  0
  192.9310  174.2340  136.3120 C   0  0  0  0  0  3  0  0  0  0  0  0
  186.9510  178.2750  137.4680 C   0  0  0  0  0  2  0  0  0  0  0  0
  185.9130  176.0450  137.0780 N   0  0  0  0  0  0  0  0  0  0  0  0
  190.4170  176.9800  137.3920 O   0  0  0  0  0  0  0  0  0  0  0  0
  191.4900  174.5650  136.0630 C   0  0  0  0  0  2  0  0  0  0  0  0
  187.7800  178.5270  140.5750 C   0  0  0  0  0  2  0  0  0  0  0  0
  190.8580  175.8720  138.1470 C   0  0  2  0  0  3  0  0  0  0  0  0
  195.1830  174.6250  137.2020 C   0  0  0  0  0  2  0  0  0  0  0  0
  195.4550  172.9670  138.9030 O   0  0  0  0  0  1  0  0  0  0  0  0
  195.4740  174.3430  138.6690 C   0  0  0  0  0  2  0  0  0  0  0  0
  1  3  1  0  0  0  0
  2 12  1  0  0  0  0
  5 13  1  1  0  0  0
  5 19  1  0  0  0  0
  5 15  1  0  0  0  0
  6 11  2  0  0  0  0
  7  9  1  0  0  0  0
  8 14  1  0  0  0  0
  8 21  1  0  0  0  0
 10 23  1  0  0  0  0
 10  7  1  0  0  0  0
 11 13  1  0  0  0  0
 11 18  1  0  0  0  0
 12 20  1  6  0  0  0
 12 22  1  0  0  0  0
 13  2  2  0  0  0  0
 14  1  1  0  0  0  0
 15  8  2  0  0  0  0
 16 10  2  0  0  0  0
 17  4  1  0  0  0  0
 17 15  1  0  0  0  0
 18  4  2  0  0  0  0
 19 22  1  0  0  0  0
 20 16  1  0  0  0  0
 21  1  1  0  0  0  0
 22  9  1  6  0  0  0
 23 25  1  0  0  0  0
 25 24  1  0  0  0  0
M  END
>  <MODEL>
9

>  <REMARK>
 VINA RESULT:      -6.1      4.532      7.385
  Name = 
  2 active torsions:
  status: ('A' for Active; 'I' for Inactive)
    1  A    between atoms: C_10  and  C_21
    2  A    between atoms: C_19  and  C_21
                            x       y       z     vdW  Elec       q    Type
                         _______ _______ _______ _____ _____    ______ ____

>  <TORSDO>
F 2

$$$$
