=
 OpenBabel10222416533D

 41 45  0  0  1  0  0  0  0  0999 V2000
  184.9240  178.2700  141.6340 C   0  0  0  0  0  0  0  0  0  0  0  0
  183.7100  177.9040  141.2090 C   0  0  0  0  0  3  0  0  0  0  0  0
  183.4460  177.6950  139.7740 C   0  0  0  0  0  0  0  0  0  0  0  0
  185.8120  178.3430  139.3320 C   0  0  0  0  0  0  0  0  0  0  0  0
  182.2370  177.3120  139.3480 C   0  0  0  0  0  3  0  0  0  0  0  0
  186.0030  178.5110  140.6490 C   0  0  0  0  0  3  0  0  0  0  0  0
  184.5250  177.9160  138.8410 N   0  0  0  0  0  0  0  0  0  0  0  0
  184.2330  179.2630  143.7850 C   0  0  0  0  0  3  0  0  0  0  0  0
  186.3340  178.0350  143.7470 C   0  0  0  0  0  0  0  0  0  0  0  0
  184.3990  179.5220  145.1420 C   0  0  0  0  0  3  0  0  0  0  0  0
  185.1800  178.5140  143.0730 C   0  0  0  0  0  0  0  0  0  0  0  0
  187.6650  177.3090  142.8350 Cl  0  0  0  0  0  0  0  0  0  0  0  0
  186.4800  178.2730  145.1360 C   0  0  0  0  0  0  0  0  0  0  0  0
  185.5140  179.0280  145.8120 C   0  0  0  0  0  3  0  0  0  0  0  0
  187.5040  177.1410  147.0560 N   0  0  0  0  0  0  0  0  0  0  0  0
  192.1050  176.4050  146.9350 N   0  0  0  0  0  1  0  0  0  0  0  0
  187.6250  177.7680  145.9170 C   0  0  0  0  0  0  0  0  0  0  0  0
  191.1800  177.5690  144.9770 C   0  0  0  0  0  3  0  0  0  0  0  0
  188.8130  176.7060  147.4860 C   0  0  0  0  0  3  0  0  0  0  0  0
  191.0550  177.0070  146.1870 C   0  0  0  0  0  0  0  0  0  0  0  0
  189.8370  178.0490  144.5290 C   0  0  0  0  0  3  0  0  0  0  0  0
  189.0210  177.7530  145.5310 C   0  0  0  0  0  0  0  0  0  0  0  0
  189.6730  177.0960  146.5640 C   0  0  0  0  0  0  0  0  0  0  0  0
  181.0750  177.0560  140.2590 C   0  0  2  0  0  3  0  0  0  0  0  0
  180.1220  176.2620  139.6170 O   0  0  0  0  0  1  0  0  0  0  0  0
  179.5560  180.4220  139.9950 C   0  0  0  0  0  3  0  0  0  0  0  0
  180.4750  178.3150  140.6820 N   0  0  0  0  0  0  0  0  0  0  0  0
  180.1150  178.5190  142.0920 C   0  0  0  0  0  2  0  0  0  0  0  0
  179.3820  180.7920  141.4070 C   0  0  0  0  0  0  0  0  0  0  0  0
  178.9310  182.0330  141.7110 F   0  0  0  0  0  0  0  0  0  0  0  0
  179.6780  179.9310  142.3860 C   0  0  0  0  0  0  0  0  0  0  0  0
  179.5100  180.3030  143.6790 F   0  0  0  0  0  0  0  0  0  0  0  0
  180.0790  179.2440  139.6660 C   0  0  0  0  0  3  0  0  0  0  0  0
  184.6710  176.4900  136.9980 O   0  0  0  0  0  1  0  0  0  0  0  0
  184.3140  177.7770  137.4030 C   0  0  0  0  0  2  0  0  0  0  0  0
  186.8820  178.5850  138.4100 N   0  0  0  0  0  2  0  0  0  0  0  0
  187.9120  177.6040  138.1020 C   0  0  0  0  0  2  0  0  0  0  0  0
  189.2480  178.1020  138.6070 C   0  0  0  0  0  2  0  0  0  0  0  0
  189.4210  177.6970  140.0590 C   0  0  0  0  0  2  0  0  0  0  0  0
  191.8710  177.4570  140.4540 C   0  0  0  0  0  1  0  0  0  0  0  0
  190.5710  176.7170  140.2040 C   0  0  0  0  0  2  0  0  0  0  0  0
  1 11  1  0  0  0  0
  2  1  2  0  0  0  0
  3  2  1  0  0  0  0
  4  6  2  0  0  0  0
  5  3  2  0  0  0  0
  5 24  1  0  0  0  0
  6  1  1  0  0  0  0
  7  4  1  0  0  0  0
  7  3  1  0  0  0  0
  8 10  1  0  0  0  0
  9 13  2  0  0  0  0
 10 14  2  0  0  0  0
 11  9  1  0  0  0  0
 11  8  2  0  0  0  0
 12  9  1  0  0  0  0
 13 14  1  0  0  0  0
 13 17  1  0  0  0  0
 15 19  1  0  0  0  0
 17 15  2  0  0  0  0
 18 20  2  0  0  0  0
 20 23  1  0  0  0  0
 20 16  1  0  0  0  0
 21 18  1  0  0  0  0
 21 22  2  0  0  0  0
 22 17  1  0  0  0  0
 22 23  1  0  0  0  0
 23 19  2  0  0  0  0
 24 25  1  6  0  0  0
 24 27  1  0  0  0  0
 26 29  1  0  0  0  0
 27 28  1  0  0  0  0
 28 31  1  0  0  0  0
 29 30  1  0  0  0  0
 29 31  2  0  0  0  0
 31 32  1  0  0  0  0
 33 26  2  0  0  0  0
 33 27  1  0  0  0  0
 34 35  1  0  0  0  0
 35  7  1  0  0  0  0
 36  4  1  0  0  0  0
 37 36  1  0  0  0  0
 37 38  1  0  0  0  0
 38 39  1  0  0  0  0
 39 41  1  0  0  0  0
 41 40  1  0  0  0  0
M  END
>  <MODEL>
1

>  <REMARK>
 VINA RESULT:      -9.3      0.000      0.000
  Name = 
  10 active torsions:
  status: ('A' for Active; 'I' for Inactive)
    1  A    between atoms: C_2  and  C_18
    2  A    between atoms: C_6  and  N_11
    3  A    between atoms: C_6  and  C_29
    4  A    between atoms: C_8  and  C_25
    5  A    between atoms: C_8  and  N_40
    6  A    between atoms: C_9  and  C_22
    7  A    between atoms: C_20  and  C_35
    8  A    between atoms: C_25  and  C_35
    9  A    between atoms: C_26  and  N_40
   10  A    between atoms: C_28  and  N_31
                            x       y       z     vdW  Elec       q    Type
                         _______ _______ _______ _____ _____    ______ ____

>  <TORSDO>
F 10

$$$$
=
 OpenBabel10222416533D

 41 45  0  0  1  0  0  0  0  0999 V2000
  184.0000  178.5970  141.6950 C   0  0  0  0  0  0  0  0  0  0  0  0
  184.7720  178.3650  140.6270 C   0  0  0  0  0  3  0  0  0  0  0  0
  184.2140  178.4390  139.2660 C   0  0  0  0  0  0  0  0  0  0  0  0
  182.0040  178.9600  140.2910 C   0  0  0  0  0  0  0  0  0  0  0  0
  184.9880  178.2240  138.1950 C   0  0  0  0  0  3  0  0  0  0  0  0
  182.5610  178.8890  141.5090 C   0  0  0  0  0  3  0  0  0  0  0  0
  182.8130  178.7480  139.1160 N   0  0  0  0  0  0  0  0  0  0  0  0
  183.6990  178.7820  144.1380 C   0  0  0  0  0  3  0  0  0  0  0  0
  185.8960  178.1140  143.3330 C   0  0  0  0  0  0  0  0  0  0  0  0
  184.1430  178.6910  145.4530 C   0  0  0  0  0  3  0  0  0  0  0  0
  184.5530  178.4890  143.0660 C   0  0  0  0  0  0  0  0  0  0  0  0
  187.0660  177.9810  142.0120 Cl  0  0  0  0  0  0  0  0  0  0  0  0
  186.3320  177.9880  144.6740 C   0  0  0  0  0  0  0  0  0  0  0  0
  185.4500  178.2940  145.7180 C   0  0  0  0  0  3  0  0  0  0  0  0
  188.5910  177.1840  144.1600 N   0  0  0  0  0  0  0  0  0  0  0  0
  191.6470  176.9210  147.6700 N   0  0  0  0  0  1  0  0  0  0  0  0
  187.6970  177.5570  145.0340 C   0  0  0  0  0  0  0  0  0  0  0  0
  189.4040  177.7110  148.2930 C   0  0  0  0  0  3  0  0  0  0  0  0
  189.8340  176.9280  144.8510 C   0  0  0  0  0  3  0  0  0  0  0  0
  190.2880  177.2450  147.4010 C   0  0  0  0  0  0  0  0  0  0  0  0
  188.1040  177.9560  147.5980 C   0  0  0  0  0  3  0  0  0  0  0  0
  188.3170  177.5870  146.3430 C   0  0  0  0  0  0  0  0  0  0  0  0
  189.6220  177.1680  146.1320 C   0  0  0  0  0  0  0  0  0  0  0  0
  186.4510  177.9070  138.2750 C   0  0  2  0  0  3  0  0  0  0  0  0
  187.2040  178.9660  137.7640 O   0  0  0  0  0  1  0  0  0  0  0  0
  185.8550  174.8150  136.3260 C   0  0  0  0  0  3  0  0  0  0  0  0
  186.7460  176.6830  137.5400 N   0  0  0  0  0  0  0  0  0  0  0  0
  188.1390  176.3330  137.2300 C   0  0  0  0  0  2  0  0  0  0  0  0
  187.2150  174.2790  136.1780 C   0  0  0  0  0  0  0  0  0  0  0  0
  187.3860  173.0710  135.5870 F   0  0  0  0  0  0  0  0  0  0  0  0
  188.2760  174.9570  136.6300 C   0  0  0  0  0  0  0  0  0  0  0  0
  189.5180  174.4350  136.4820 F   0  0  0  0  0  0  0  0  0  0  0  0
  185.6470  175.9560  136.9780 C   0  0  0  0  0  3  0  0  0  0  0  0
  181.6690  177.5270  137.4870 O   0  0  0  0  0  1  0  0  0  0  0  0
  182.1880  178.7850  137.7970 C   0  0  0  0  0  2  0  0  0  0  0  0
  180.6060  179.2470  140.1510 N   0  0  0  0  0  2  0  0  0  0  0  0
  180.0160  180.5380  140.4740 C   0  0  0  0  0  2  0  0  0  0  0  0
  178.9310  180.3500  141.5110 C   0  0  0  0  0  2  0  0  0  0  0  0
  179.5480  180.3660  142.8960 C   0  0  0  0  0  2  0  0  0  0  0  0
  179.9980  178.3250  144.2570 C   0  0  0  0  0  1  0  0  0  0  0  0
  178.9310  179.2840  143.7650 C   0  0  0  0  0  2  0  0  0  0  0  0
  1 11  1  0  0  0  0
  2  1  2  0  0  0  0
  3  2  1  0  0  0  0
  4  6  2  0  0  0  0
  5 24  1  0  0  0  0
  5  3  2  0  0  0  0
  6  1  1  0  0  0  0
  7  3  1  0  0  0  0
  7  4  1  0  0  0  0
  8 10  1  0  0  0  0
  9 13  2  0  0  0  0
 10 14  2  0  0  0  0
 11  9  1  0  0  0  0
 11  8  2  0  0  0  0
 12  9  1  0  0  0  0
 13 17  1  0  0  0  0
 13 14  1  0  0  0  0
 15 19  2  0  0  0  0
 15 17  1  0  0  0  0
 17 22  2  0  0  0  0
 19 23  1  0  0  0  0
 20 16  1  0  0  0  0
 20 18  1  0  0  0  0
 21 18  2  0  0  0  0
 22 21  1  0  0  0  0
 23 22  1  0  0  0  0
 23 20  2  0  0  0  0
 24 25  1  6  0  0  0
 26 33  2  0  0  0  0
 27 24  1  0  0  0  0
 28 27  1  0  0  0  0
 29 26  1  0  0  0  0
 29 31  2  0  0  0  0
 30 29  1  0  0  0  0
 31 28  1  0  0  0  0
 32 31  1  0  0  0  0
 33 27  1  0  0  0  0
 34 35  1  0  0  0  0
 35  7  1  0  0  0  0
 36  4  1  0  0  0  0
 36 37  1  0  0  0  0
 37 38  1  0  0  0  0
 38 39  1  0  0  0  0
 39 41  1  0  0  0  0
 41 40  1  0  0  0  0
M  END
>  <MODEL>
2

>  <REMARK>
 VINA RESULT:      -9.2      3.508      6.608
  Name = 
  10 active torsions:
  status: ('A' for Active; 'I' for Inactive)
    1  A    between atoms: C_2  and  C_18
    2  A    between atoms: C_6  and  N_11
    3  A    between atoms: C_6  and  C_29
    4  A    between atoms: C_8  and  C_25
    5  A    between atoms: C_8  and  N_40
    6  A    between atoms: C_9  and  C_22
    7  A    between atoms: C_20  and  C_35
    8  A    between atoms: C_25  and  C_35
    9  A    between atoms: C_26  and  N_40
   10  A    between atoms: C_28  and  N_31
                            x       y       z     vdW  Elec       q    Type
                         _______ _______ _______ _____ _____    ______ ____

>  <TORSDO>
F 10

$$$$
=
 OpenBabel10222416533D

 41 45  0  0  1  0  0  0  0  0999 V2000
  185.0880  178.3780  141.4060 C   0  0  0  0  0  0  0  0  0  0  0  0
  186.1200  178.3600  140.5530 C   0  0  0  0  0  3  0  0  0  0  0  0
  185.9050  178.1130  139.1170 C   0  0  0  0  0  0  0  0  0  0  0  0
  183.4750  177.8640  139.6100 C   0  0  0  0  0  0  0  0  0  0  0  0
  186.9340  178.1120  138.2610 C   0  0  0  0  0  3  0  0  0  0  0  0
  183.7220  178.1030  140.9060 C   0  0  0  0  0  3  0  0  0  0  0  0
  184.5590  177.8710  138.6580 N   0  0  0  0  0  0  0  0  0  0  0  0
  184.3470  179.3320  143.5570 C   0  0  0  0  0  3  0  0  0  0  0  0
  186.4410  178.0920  143.5490 C   0  0  0  0  0  0  0  0  0  0  0  0
  184.4800  179.5640  144.9230 C   0  0  0  0  0  3  0  0  0  0  0  0
  185.3080  178.5920  142.8550 C   0  0  0  0  0  0  0  0  0  0  0  0
  187.7910  177.3740  142.6580 Cl  0  0  0  0  0  0  0  0  0  0  0  0
  186.5520  178.3010  144.9460 C   0  0  0  0  0  0  0  0  0  0  0  0
  185.5740  179.0500  145.6110 C   0  0  0  0  0  3  0  0  0  0  0  0
  187.5170  177.0710  146.8360 N   0  0  0  0  0  0  0  0  0  0  0  0
  192.1360  176.4520  146.8850 N   0  0  0  0  0  1  0  0  0  0  0  0
  187.6740  177.7730  145.7460 C   0  0  0  0  0  0  0  0  0  0  0  0
  191.2710  177.7190  144.9640 C   0  0  0  0  0  3  0  0  0  0  0  0
  188.8160  176.6400  147.2990 C   0  0  0  0  0  3  0  0  0  0  0  0
  191.1060  177.0770  146.1280 C   0  0  0  0  0  0  0  0  0  0  0  0
  189.9380  178.1960  144.4850 C   0  0  0  0  0  3  0  0  0  0  0  0
  189.0860  177.8160  145.4260 C   0  0  0  0  0  0  0  0  0  0  0  0
  189.7070  177.1090  146.4450 C   0  0  0  0  0  0  0  0  0  0  0  0
  188.3550  178.3640  138.6640 C   0  0  2  0  0  3  0  0  0  0  0  0
  188.8470  179.5010  138.0190 O   0  0  0  0  0  1  0  0  0  0  0  0
  191.3040  176.1270  138.6510 C   0  0  0  0  0  3  0  0  0  0  0  0
  189.1850  177.2100  138.3470 N   0  0  0  0  0  0  0  0  0  0  0  0
  188.6110  176.0740  137.6120 C   0  0  0  0  0  2  0  0  0  0  0  0
  190.8790  175.0640  137.7300 C   0  0  0  0  0  0  0  0  0  0  0  0
  191.7620  174.0920  137.3930 F   0  0  0  0  0  0  0  0  0  0  0  0
  189.6460  175.0540  137.2120 C   0  0  0  0  0  0  0  0  0  0  0  0
  189.2840  174.0620  136.3620 F   0  0  0  0  0  0  0  0  0  0  0  0
  190.4910  177.1410  138.9330 C   0  0  0  0  0  3  0  0  0  0  0  0
  184.3530  176.1890  137.0510 O   0  0  0  0  0  1  0  0  0  0  0  0
  184.2860  177.5680  137.2560 C   0  0  0  0  0  2  0  0  0  0  0  0
  182.1380  177.6030  139.1650 N   0  0  0  0  0  2  0  0  0  0  0  0
  181.1170  176.9970  140.0070 C   0  0  0  0  0  2  0  0  0  0  0  0
  179.9820  177.9770  140.2060 C   0  0  0  0  0  2  0  0  0  0  0  0
  180.2780  178.8530  141.4090 C   0  0  0  0  0  2  0  0  0  0  0  0
  180.7080  178.6510  143.8570 C   0  0  0  0  0  1  0  0  0  0  0  0
  179.8780  178.1470  142.6920 C   0  0  0  0  0  2  0  0  0  0  0  0
  1 11  1  0  0  0  0
  2  1  2  0  0  0  0
  3  2  1  0  0  0  0
  4  6  2  0  0  0  0
  5 24  1  0  0  0  0
  5  3  2  0  0  0  0
  6  1  1  0  0  0  0
  7  3  1  0  0  0  0
  7  4  1  0  0  0  0
  8 10  1  0  0  0  0
  9 13  2  0  0  0  0
 10 14  2  0  0  0  0
 11  9  1  0  0  0  0
 11  8  2  0  0  0  0
 12  9  1  0  0  0  0
 13 14  1  0  0  0  0
 13 17  1  0  0  0  0
 15 19  1  0  0  0  0
 17 15  2  0  0  0  0
 18 20  2  0  0  0  0
 20 23  1  0  0  0  0
 20 16  1  0  0  0  0
 21 18  1  0  0  0  0
 21 22  2  0  0  0  0
 22 17  1  0  0  0  0
 22 23  1  0  0  0  0
 23 19  2  0  0  0  0
 24 25  1  6  0  0  0
 26 33  2  0  0  0  0
 27 24  1  0  0  0  0
 27 33  1  0  0  0  0
 28 27  1  0  0  0  0
 29 26  1  0  0  0  0
 30 29  1  0  0  0  0
 31 28  1  0  0  0  0
 31 29  2  0  0  0  0
 32 31  1  0  0  0  0
 34 35  1  0  0  0  0
 35  7  1  0  0  0  0
 36  4  1  0  0  0  0
 36 37  1  0  0  0  0
 37 38  1  0  0  0  0
 38 39  1  0  0  0  0
 39 41  1  0  0  0  0
 41 40  1  0  0  0  0
M  END
>  <MODEL>
3

>  <REMARK>
 VINA RESULT:      -9.0      3.471      6.844
  Name = 
  10 active torsions:
  status: ('A' for Active; 'I' for Inactive)
    1  A    between atoms: C_2  and  C_18
    2  A    between atoms: C_6  and  N_11
    3  A    between atoms: C_6  and  C_29
    4  A    between atoms: C_8  and  C_25
    5  A    between atoms: C_8  and  N_40
    6  A    between atoms: C_9  and  C_22
    7  A    between atoms: C_20  and  C_35
    8  A    between atoms: C_25  and  C_35
    9  A    between atoms: C_26  and  N_40
   10  A    between atoms: C_28  and  N_31
                            x       y       z     vdW  Elec       q    Type
                         _______ _______ _______ _____ _____    ______ ____

>  <TORSDO>
F 10

$$$$
=
 OpenBabel10222416533D

 41 45  0  0  1  0  0  0  0  0999 V2000
  185.5080  178.5150  142.0210 C   0  0  0  0  0  0  0  0  0  0  0  0
  184.6060  178.5760  141.0340 C   0  0  0  0  0  3  0  0  0  0  0  0
  183.1920  178.8720  141.3240 C   0  0  0  0  0  0  0  0  0  0  0  0
  183.7950  178.9660  143.7400 C   0  0  0  0  0  0  0  0  0  0  0  0
  182.2920  178.9510  140.3370 C   0  0  0  0  0  3  0  0  0  0  0  0
  185.0720  178.7020  143.4230 C   0  0  0  0  0  3  0  0  0  0  0  0
  182.8030  179.0720  142.6990 N   0  0  0  0  0  0  0  0  0  0  0  0
  187.4460  178.5790  140.4940 C   0  0  0  0  0  3  0  0  0  0  0  0
  187.7550  177.4810  142.6440 C   0  0  0  0  0  0  0  0  0  0  0  0
  188.7690  178.3130  140.1580 C   0  0  0  0  0  3  0  0  0  0  0  0
  186.9230  178.1830  141.7330 C   0  0  0  0  0  0  0  0  0  0  0  0
  187.0680  176.7490  144.1010 Cl  0  0  0  0  0  0  0  0  0  0  0  0
  189.1110  177.2450  142.3100 C   0  0  0  0  0  0  0  0  0  0  0  0
  189.5960  177.6520  141.0620 C   0  0  0  0  0  3  0  0  0  0  0  0
  190.8670  175.6180  142.8460 N   0  0  0  0  0  0  0  0  0  0  0  0
  192.6960  175.7380  147.1310 N   0  0  0  0  0  1  0  0  0  0  0  0
  190.0520  176.5660  143.2220 C   0  0  0  0  0  0  0  0  0  0  0  0
  190.9260  177.3900  146.7030 C   0  0  0  0  0  3  0  0  0  0  0  0
  191.7040  175.2560  143.9670 C   0  0  0  0  0  3  0  0  0  0  0  0
  191.6950  176.3570  146.3320 C   0  0  0  0  0  0  0  0  0  0  0  0
  190.0340  177.7580  145.5620 C   0  0  0  0  0  3  0  0  0  0  0  0
  190.3320  176.8900  144.6060 C   0  0  0  0  0  0  0  0  0  0  0  0
  191.3470  176.0230  144.9800 C   0  0  0  0  0  0  0  0  0  0  0  0
  182.6260  178.7630  138.8880 C   0  0  2  0  0  3  0  0  0  0  0  0
  181.8870  179.6510  138.1020 O   0  0  0  0  0  1  0  0  0  0  0  0
  180.7020  175.7970  137.7890 C   0  0  0  0  0  3  0  0  0  0  0  0
  182.3570  177.3900  138.4790 N   0  0  0  0  0  0  0  0  0  0  0  0
  183.4740  176.4650  138.2420 C   0  0  0  0  0  2  0  0  0  0  0  0
  181.7370  174.7550  137.7560 C   0  0  0  0  0  0  0  0  0  0  0  0
  181.3760  173.4770  137.4840 F   0  0  0  0  0  0  0  0  0  0  0  0
  183.0180  175.0480  138.0050 C   0  0  0  0  0  0  0  0  0  0  0  0
  183.9490  174.0640  137.9700 F   0  0  0  0  0  0  0  0  0  0  0  0
  181.0100  177.0440  138.1370 C   0  0  0  0  0  3  0  0  0  0  0  0
  180.9180  178.2400  143.7970 O   0  0  0  0  0  1  0  0  0  0  0  0
  181.4090  179.3170  143.0570 C   0  0  0  0  0  2  0  0  0  0  0  0
  183.4130  179.1420  145.1100 N   0  0  0  0  0  2  0  0  0  0  0  0
  184.1850  178.6270  146.2310 C   0  0  0  0  0  2  0  0  0  0  0  0
  185.5680  179.2390  146.2130 C   0  0  0  0  0  2  0  0  0  0  0  0
  186.2150  179.0620  147.5740 C   0  0  0  0  0  2  0  0  0  0  0  0
  188.0240  177.8770  148.8160 C   0  0  0  0  0  1  0  0  0  0  0  0
  187.1840  177.8940  147.5530 C   0  0  0  0  0  2  0  0  0  0  0  0
  1  6  1  0  0  0  0
  2  3  1  0  0  0  0
  2  1  2  0  0  0  0
  3  7  1  0  0  0  0
  4 36  1  0  0  0  0
  5  3  2  0  0  0  0
  6  4  2  0  0  0  0
  7 35  1  0  0  0  0
  7  4  1  0  0  0  0
  8 11  1  0  0  0  0
  9 12  1  0  0  0  0
 10  8  2  0  0  0  0
 10 14  1  0  0  0  0
 11  1  1  0  0  0  0
 11  9  2  0  0  0  0
 13  9  1  0  0  0  0
 13 17  1  0  0  0  0
 14 13  2  0  0  0  0
 15 17  2  0  0  0  0
 15 19  1  0  0  0  0
 17 22  1  0  0  0  0
 19 23  2  0  0  0  0
 20 18  2  0  0  0  0
 20 16  1  0  0  0  0
 21 18  1  0  0  0  0
 22 23  1  0  0  0  0
 22 21  2  0  0  0  0
 23 20  1  0  0  0  0
 24 25  1  6  0  0  0
 24  5  1  0  0  0  0
 26 33  2  0  0  0  0
 27 24  1  0  0  0  0
 28 27  1  0  0  0  0
 29 26  1  0  0  0  0
 29 31  2  0  0  0  0
 30 29  1  0  0  0  0
 31 28  1  0  0  0  0
 32 31  1  0  0  0  0
 33 27  1  0  0  0  0
 35 34  1  0  0  0  0
 36 37  1  0  0  0  0
 38 37  1  0  0  0  0
 38 39  1  0  0  0  0
 41 39  1  0  0  0  0
 41 40  1  0  0  0  0
M  END
>  <MODEL>
4

>  <REMARK>
 VINA RESULT:      -8.9      3.021      5.444
  Name = 
  10 active torsions:
  status: ('A' for Active; 'I' for Inactive)
    1  A    between atoms: C_2  and  C_18
    2  A    between atoms: C_6  and  N_11
    3  A    between atoms: C_6  and  C_29
    4  A    between atoms: C_8  and  C_25
    5  A    between atoms: C_8  and  N_40
    6  A    between atoms: C_9  and  C_22
    7  A    between atoms: C_20  and  C_35
    8  A    between atoms: C_25  and  C_35
    9  A    between atoms: C_26  and  N_40
   10  A    between atoms: C_28  and  N_31
                            x       y       z     vdW  Elec       q    Type
                         _______ _______ _______ _____ _____    ______ ____

>  <TORSDO>
F 10

$$$$
=
 OpenBabel10222416533D

 41 45  0  0  1  0  0  0  0  0999 V2000
  184.1050  178.4800  141.4520 C   0  0  0  0  0  0  0  0  0  0  0  0
  184.9210  178.3360  140.4020 C   0  0  0  0  0  3  0  0  0  0  0  0
  184.3870  178.3240  139.0290 C   0  0  0  0  0  0  0  0  0  0  0  0
  182.1070  178.5720  140.0060 C   0  0  0  0  0  0  0  0  0  0  0  0
  185.2030  178.1980  137.9770 C   0  0  0  0  0  3  0  0  0  0  0  0
  182.6440  178.5850  141.2350 C   0  0  0  0  0  3  0  0  0  0  0  0
  182.9610  178.4520  138.8490 N   0  0  0  0  0  0  0  0  0  0  0  0
  183.7780  178.8410  143.8720 C   0  0  0  0  0  3  0  0  0  0  0  0
  185.9710  178.0750  143.1440 C   0  0  0  0  0  0  0  0  0  0  0  0
  184.2050  178.8330  145.1960 C   0  0  0  0  0  3  0  0  0  0  0  0
  184.6390  178.4570  142.8340 C   0  0  0  0  0  0  0  0  0  0  0  0
  187.1530  177.8270  141.8520 Cl  0  0  0  0  0  0  0  0  0  0  0  0
  186.3880  178.0350  144.4970 C   0  0  0  0  0  0  0  0  0  0  0  0
  185.5000  178.4300  145.5050 C   0  0  0  0  0  3  0  0  0  0  0  0
  188.6730  177.2590  144.0600 N   0  0  0  0  0  0  0  0  0  0  0  0
  191.5780  176.9260  147.6900 N   0  0  0  0  0  1  0  0  0  0  0  0
  187.7400  177.6040  144.9040 C   0  0  0  0  0  0  0  0  0  0  0  0
  189.3050  177.6860  148.2360 C   0  0  0  0  0  3  0  0  0  0  0  0
  189.8870  176.9930  144.7970 C   0  0  0  0  0  3  0  0  0  0  0  0
  190.2300  177.2480  147.3710 C   0  0  0  0  0  0  0  0  0  0  0  0
  188.0340  177.9400  147.4920 C   0  0  0  0  0  3  0  0  0  0  0  0
  188.3030  177.6040  146.2390 C   0  0  0  0  0  0  0  0  0  0  0  0
  189.6190  177.2000  146.0730 C   0  0  0  0  0  0  0  0  0  0  0  0
  186.6920  178.0690  138.0880 C   0  0  2  0  0  3  0  0  0  0  0  0
  187.3210  179.0920  137.3740 O   0  0  0  0  0  1  0  0  0  0  0  0
  186.5060  174.7540  136.4490 C   0  0  0  0  0  3  0  0  0  0  0  0
  187.1290  176.7710  137.5910 N   0  0  0  0  0  0  0  0  0  0  0  0
  188.5520  176.4090  137.6370 C   0  0  0  0  0  2  0  0  0  0  0  0
  187.8600  174.2280  136.6680 C   0  0  0  0  0  0  0  0  0  0  0  0
  188.1440  172.9600  136.2810 F   0  0  0  0  0  0  0  0  0  0  0  0
  188.8030  174.9730  137.2550 C   0  0  0  0  0  0  0  0  0  0  0  0
  190.0420  174.4580  137.4460 F   0  0  0  0  0  0  0  0  0  0  0  0
  186.1720  175.9620  136.8950 C   0  0  0  0  0  3  0  0  0  0  0  0
  182.0410  177.0750  137.2030 O   0  0  0  0  0  1  0  0  0  0  0  0
  182.3630  178.3950  137.5180 C   0  0  0  0  0  2  0  0  0  0  0  0
  180.6880  178.6780  139.8360 N   0  0  0  0  0  2  0  0  0  0  0  0
  179.9360  179.8930  140.1150 C   0  0  0  0  0  2  0  0  0  0  0  0
  179.7050  180.6480  138.8250 C   0  0  0  0  0  2  0  0  0  0  0  0
  180.7070  181.7830  138.7190 C   0  0  0  0  0  2  0  0  0  0  0  0
  181.1940  183.7370  137.2490 C   0  0  0  0  0  1  0  0  0  0  0  0
  180.8050  182.2720  137.2850 C   0  0  0  0  0  2  0  0  0  0  0  0
  1 11  1  0  0  0  0
  2  1  2  0  0  0  0
  3  2  1  0  0  0  0
  4  6  2  0  0  0  0
  5 24  1  0  0  0  0
  5  3  2  0  0  0  0
  6  1  1  0  0  0  0
  7  3  1  0  0  0  0
  7  4  1  0  0  0  0
  8 10  1  0  0  0  0
  9 13  2  0  0  0  0
 10 14  2  0  0  0  0
 11  9  1  0  0  0  0
 11  8  2  0  0  0  0
 12  9  1  0  0  0  0
 13 17  1  0  0  0  0
 13 14  1  0  0  0  0
 15 19  2  0  0  0  0
 15 17  1  0  0  0  0
 17 22  2  0  0  0  0
 19 23  1  0  0  0  0
 20 16  1  0  0  0  0
 20 18  1  0  0  0  0
 21 18  2  0  0  0  0
 22 21  1  0  0  0  0
 23 22  1  0  0  0  0
 23 20  2  0  0  0  0
 24 25  1  6  0  0  0
 26 29  1  0  0  0  0
 26 33  2  0  0  0  0
 27 28  1  0  0  0  0
 27 24  1  0  0  0  0
 29 31  2  0  0  0  0
 30 29  1  0  0  0  0
 31 32  1  0  0  0  0
 31 28  1  0  0  0  0
 33 27  1  0  0  0  0
 34 35  1  0  0  0  0
 35  7  1  0  0  0  0
 36  4  1  0  0  0  0
 36 37  1  0  0  0  0
 38 37  1  0  0  0  0
 39 38  1  0  0  0  0
 40 41  1  0  0  0  0
 41 39  1  0  0  0  0
M  END
>  <MODEL>
5

>  <REMARK>
 VINA RESULT:      -8.8      3.555      6.570
  Name = 
  10 active torsions:
  status: ('A' for Active; 'I' for Inactive)
    1  A    between atoms: C_2  and  C_18
    2  A    between atoms: C_6  and  N_11
    3  A    between atoms: C_6  and  C_29
    4  A    between atoms: C_8  and  C_25
    5  A    between atoms: C_8  and  N_40
    6  A    between atoms: C_9  and  C_22
    7  A    between atoms: C_20  and  C_35
    8  A    between atoms: C_25  and  C_35
    9  A    between atoms: C_26  and  N_40
   10  A    between atoms: C_28  and  N_31
                            x       y       z     vdW  Elec       q    Type
                         _______ _______ _______ _____ _____    ______ ____

>  <TORSDO>
F 10

$$$$
=
 OpenBabel10222416533D

 41 45  0  0  1  0  0  0  0  0999 V2000
  186.9310  177.9370  142.9890 C   0  0  0  0  0  0  0  0  0  0  0  0
  186.1040  178.2270  141.9790 C   0  0  0  0  0  3  0  0  0  0  0  0
  184.7710  178.8000  142.2380 C   0  0  0  0  0  0  0  0  0  0  0  0
  185.2800  178.6640  144.6740 C   0  0  0  0  0  0  0  0  0  0  0  0
  183.9490  179.1070  141.2280 C   0  0  0  0  0  3  0  0  0  0  0  0
  186.4860  178.1530  144.3850 C   0  0  0  0  0  3  0  0  0  0  0  0
  184.3750  179.0190  143.6080 N   0  0  0  0  0  0  0  0  0  0  0  0
  188.8670  176.6240  143.7780 C   0  0  0  0  0  3  0  0  0  0  0  0
  188.9300  177.4380  141.4850 C   0  0  0  0  0  0  0  0  0  0  0  0
  190.1060  176.0170  143.6060 C   0  0  0  0  0  3  0  0  0  0  0  0
  188.2570  177.3290  142.7310 C   0  0  0  0  0  0  0  0  0  0  0  0
  188.3160  178.5220  140.2290 Cl  0  0  0  0  0  0  0  0  0  0  0  0
  190.1750  176.7870  141.3060 C   0  0  0  0  0  0  0  0  0  0  0  0
  190.7540  176.0960  142.3770 C   0  0  0  0  0  3  0  0  0  0  0  0
  192.1770  177.1260  139.9290 N   0  0  0  0  0  0  0  0  0  0  0  0
  191.9150  176.0010  135.4140 N   0  0  0  0  0  1  0  0  0  0  0  0
  190.9140  176.8130  140.0280 C   0  0  0  0  0  0  0  0  0  0  0  0
  189.8500  175.6500  136.7000 C   0  0  0  0  0  3  0  0  0  0  0  0
  192.5900  176.9510  138.5560 C   0  0  0  0  0  3  0  0  0  0  0  0
  191.1210  176.0590  136.5930 C   0  0  0  0  0  0  0  0  0  0  0  0
  189.3990  175.8510  138.1110 C   0  0  0  0  0  3  0  0  0  0  0  0
  190.4410  176.3910  138.7250 C   0  0  0  0  0  0  0  0  0  0  0  0
  191.5350  176.5270  137.8850 C   0  0  0  0  0  0  0  0  0  0  0  0
  184.2960  178.9140  139.7830 C   0  0  2  0  0  3  0  0  0  0  0  0
  184.2060  180.1280  139.0970 O   0  0  0  0  0  1  0  0  0  0  0  0
  182.5370  177.0140  137.1360 C   0  0  0  0  0  3  0  0  0  0  0  0
  183.4110  177.9290  139.1750 N   0  0  0  0  0  0  0  0  0  0  0  0
  182.7610  176.9120  140.0120 C   0  0  0  0  0  2  0  0  0  0  0  0
  181.6770  176.1190  137.9210 C   0  0  0  0  0  0  0  0  0  0  0  0
  180.7930  175.3210  137.2740 F   0  0  0  0  0  0  0  0  0  0  0  0
  181.7460  176.0940  139.2560 C   0  0  0  0  0  0  0  0  0  0  0  0
  180.9360  175.2590  139.9530 F   0  0  0  0  0  0  0  0  0  0  0  0
  183.3530  177.8710  137.7440 C   0  0  0  0  0  3  0  0  0  0  0  0
  182.1480  178.4750  144.0490 O   0  0  0  0  0  1  0  0  0  0  0  0
  183.0480  179.5350  143.9340 C   0  0  0  0  0  2  0  0  0  0  0  0
  184.8860  178.8590  146.0380 N   0  0  0  0  0  2  0  0  0  0  0  0
  185.8090  178.7720  147.1590 C   0  0  0  0  0  2  0  0  0  0  0  0
  186.7860  177.6420  146.9200 C   0  0  0  0  0  2  0  0  0  0  0  0
  188.0080  177.8380  147.7970 C   0  0  0  0  0  2  0  0  0  0  0  0
  190.2060  176.7520  147.3390 C   0  0  0  0  0  1  0  0  0  0  0  0
  189.2680  177.8790  146.9500 C   0  0  0  0  0  2  0  0  0  0  0  0
  1  6  1  0  0  0  0
  2  3  1  0  0  0  0
  2  1  2  0  0  0  0
  3  7  1  0  0  0  0
  4 36  1  0  0  0  0
  5  3  2  0  0  0  0
  6  4  2  0  0  0  0
  7 35  1  0  0  0  0
  7  4  1  0  0  0  0
  9 11  1  0  0  0  0
 10  8  1  0  0  0  0
 11  1  1  0  0  0  0
 11  8  2  0  0  0  0
 12  9  1  0  0  0  0
 13  9  2  0  0  0  0
 13 14  1  0  0  0  0
 14 10  2  0  0  0  0
 15 17  1  0  0  0  0
 16 20  1  0  0  0  0
 17 13  1  0  0  0  0
 18 21  2  0  0  0  0
 19 15  2  0  0  0  0
 20 18  1  0  0  0  0
 20 23  2  0  0  0  0
 21 22  1  0  0  0  0
 22 17  2  0  0  0  0
 23 19  1  0  0  0  0
 23 22  1  0  0  0  0
 24 25  1  6  0  0  0
 24  5  1  0  0  0  0
 26 33  2  0  0  0  0
 26 29  1  0  0  0  0
 27 24  1  0  0  0  0
 27 28  1  0  0  0  0
 29 31  2  0  0  0  0
 30 29  1  0  0  0  0
 31 32  1  0  0  0  0
 31 28  1  0  0  0  0
 33 27  1  0  0  0  0
 35 34  1  0  0  0  0
 36 37  1  0  0  0  0
 38 37  1  0  0  0  0
 38 39  1  0  0  0  0
 41 40  1  0  0  0  0
 41 39  1  0  0  0  0
M  END
>  <MODEL>
6

>  <REMARK>
 VINA RESULT:      -8.7      3.002      6.552
  Name = 
  10 active torsions:
  status: ('A' for Active; 'I' for Inactive)
    1  A    between atoms: C_2  and  C_18
    2  A    between atoms: C_6  and  N_11
    3  A    between atoms: C_6  and  C_29
    4  A    between atoms: C_8  and  C_25
    5  A    between atoms: C_8  and  N_40
    6  A    between atoms: C_9  and  C_22
    7  A    between atoms: C_20  and  C_35
    8  A    between atoms: C_25  and  C_35
    9  A    between atoms: C_26  and  N_40
   10  A    between atoms: C_28  and  N_31
                            x       y       z     vdW  Elec       q    Type
                         _______ _______ _______ _____ _____    ______ ____

>  <TORSDO>
F 10

$$$$
=
 OpenBabel10222416533D

 41 45  0  0  1  0  0  0  0  0999 V2000
  187.1090  178.1310  141.5920 C   0  0  0  0  0  0  0  0  0  0  0  0
  188.2030  177.6750  140.9700 C   0  0  0  0  0  3  0  0  0  0  0  0
  188.3210  177.7500  139.5030 C   0  0  0  0  0  0  0  0  0  0  0  0
  186.0420  178.7580  139.4560 C   0  0  0  0  0  0  0  0  0  0  0  0
  189.4210  177.3110  138.8810 C   0  0  0  0  0  3  0  0  0  0  0  0
  185.9870  178.6760  140.7940 C   0  0  0  0  0  3  0  0  0  0  0  0
  187.2190  178.3070  138.7560 N   0  0  0  0  0  0  0  0  0  0  0  0
  185.6810  178.0170  143.6010 C   0  0  0  0  0  3  0  0  0  0  0  0
  188.0900  177.9410  143.9390 C   0  0  0  0  0  0  0  0  0  0  0  0
  185.4770  177.9070  144.9730 C   0  0  0  0  0  3  0  0  0  0  0  0
  186.9750  178.0250  143.0640 C   0  0  0  0  0  0  0  0  0  0  0  0
  189.7300  178.1990  143.3260 Cl  0  0  0  0  0  0  0  0  0  0  0  0
  187.8740  177.7940  145.3310 C   0  0  0  0  0  0  0  0  0  0  0  0
  186.5660  177.7940  145.8300 C   0  0  0  0  0  3  0  0  0  0  0  0
  188.9410  178.1320  147.5130 N   0  0  0  0  0  0  0  0  0  0  0  0
  193.0170  176.0070  148.2840 N   0  0  0  0  0  1  0  0  0  0  0  0
  188.9780  177.6520  146.3000 C   0  0  0  0  0  0  0  0  0  0  0  0
  192.0440  175.6270  146.0580 C   0  0  0  0  0  3  0  0  0  0  0  0
  190.1410  177.7240  148.2080 C   0  0  0  0  0  3  0  0  0  0  0  0
  192.0370  176.1980  147.2700 C   0  0  0  0  0  0  0  0  0  0  0  0
  190.8220  176.0610  145.3160 C   0  0  0  0  0  3  0  0  0  0  0  0
  190.1960  176.8830  146.1470 C   0  0  0  0  0  0  0  0  0  0  0  0
  190.8510  177.0010  147.3630 C   0  0  0  0  0  0  0  0  0  0  0  0
  190.6040  176.7290  139.5930 C   0  0  2  0  0  3  0  0  0  0  0  0
  191.3400  177.7400  140.2160 O   0  0  0  0  0  1  0  0  0  0  0  0
  193.6550  175.7190  137.7540 C   0  0  0  0  0  3  0  0  0  0  0  0
  191.4500  175.9980  138.6580 N   0  0  0  0  0  0  0  0  0  0  0  0
  190.9150  174.8320  137.9430 C   0  0  0  0  0  2  0  0  0  0  0  0
  193.1360  174.6970  136.8360 C   0  0  0  0  0  0  0  0  0  0  0  0
  193.9690  174.1560  135.9140 F   0  0  0  0  0  0  0  0  0  0  0  0
  191.8570  174.3080  136.8900 C   0  0  0  0  0  0  0  0  0  0  0  0
  191.4070  173.3650  136.0270 F   0  0  0  0  0  0  0  0  0  0  0  0
  192.8430  176.3310  138.6120 C   0  0  0  0  0  3  0  0  0  0  0  0
  187.7330  179.6040  136.8830 O   0  0  0  0  0  1  0  0  0  0  0  0
  187.2520  178.3610  137.2970 C   0  0  0  0  0  2  0  0  0  0  0  0
  184.9360  179.2930  138.7190 N   0  0  0  0  0  2  0  0  0  0  0  0
  183.6280  179.5470  139.3070 C   0  0  0  0  0  2  0  0  0  0  0  0
  182.7470  178.3320  139.1180 C   0  0  0  0  0  2  0  0  0  0  0  0
  182.3650  177.7700  140.4740 C   0  0  0  0  0  2  0  0  0  0  0  0
  182.2090  178.8730  142.7050 C   0  0  0  0  0  1  0  0  0  0  0  0
  181.6430  178.8200  141.2990 C   0  0  0  0  0  2  0  0  0  0  0  0
  1 11  1  0  0  0  0
  2  1  2  0  0  0  0
  3  2  1  0  0  0  0
  4  6  2  0  0  0  0
  5  3  2  0  0  0  0
  5 24  1  0  0  0  0
  6  1  1  0  0  0  0
  7  4  1  0  0  0  0
  7  3  1  0  0  0  0
  8 10  1  0  0  0  0
  9 13  2  0  0  0  0
 10 14  2  0  0  0  0
 11  8  2  0  0  0  0
 11  9  1  0  0  0  0
 12  9  1  0  0  0  0
 13 14  1  0  0  0  0
 13 17  1  0  0  0  0
 15 19  1  0  0  0  0
 17 15  2  0  0  0  0
 18 20  2  0  0  0  0
 20 23  1  0  0  0  0
 20 16  1  0  0  0  0
 21 18  1  0  0  0  0
 21 22  2  0  0  0  0
 22 17  1  0  0  0  0
 22 23  1  0  0  0  0
 23 19  2  0  0  0  0
 24 25  1  6  0  0  0
 26 33  2  0  0  0  0
 27 24  1  0  0  0  0
 28 27  1  0  0  0  0
 29 31  2  0  0  0  0
 29 26  1  0  0  0  0
 30 29  1  0  0  0  0
 31 28  1  0  0  0  0
 32 31  1  0  0  0  0
 33 27  1  0  0  0  0
 34 35  1  0  0  0  0
 35  7  1  0  0  0  0
 36 37  1  0  0  0  0
 36  4  1  0  0  0  0
 38 37  1  0  0  0  0
 38 39  1  0  0  0  0
 39 41  1  0  0  0  0
 41 40  1  0  0  0  0
M  END
>  <MODEL>
7

>  <REMARK>
 VINA RESULT:      -8.7      4.373      7.683
  Name = 
  10 active torsions:
  status: ('A' for Active; 'I' for Inactive)
    1  A    between atoms: C_2  and  C_18
    2  A    between atoms: C_6  and  N_11
    3  A    between atoms: C_6  and  C_29
    4  A    between atoms: C_8  and  C_25
    5  A    between atoms: C_8  and  N_40
    6  A    between atoms: C_9  and  C_22
    7  A    between atoms: C_20  and  C_35
    8  A    between atoms: C_25  and  C_35
    9  A    between atoms: C_26  and  N_40
   10  A    between atoms: C_28  and  N_31
                            x       y       z     vdW  Elec       q    Type
                         _______ _______ _______ _____ _____    ______ ____

>  <TORSDO>
F 10

$$$$
=
 OpenBabel10222416533D

 41 45  0  0  1  0  0  0  0  0999 V2000
  185.0540  178.2630  141.5600 C   0  0  0  0  0  0  0  0  0  0  0  0
  183.8380  178.0180  141.0580 C   0  0  0  0  0  3  0  0  0  0  0  0
  183.6460  177.8340  139.6090 C   0  0  0  0  0  0  0  0  0  0  0  0
  186.0870  178.2430  139.3180 C   0  0  0  0  0  0  0  0  0  0  0  0
  182.4340  177.5720  139.1070 C   0  0  0  0  0  3  0  0  0  0  0  0
  186.2110  178.3940  140.6450 C   0  0  0  0  0  3  0  0  0  0  0  0
  184.7970  177.9450  138.7460 N   0  0  0  0  0  0  0  0  0  0  0  0
  184.2420  179.1830  143.7010 C   0  0  0  0  0  3  0  0  0  0  0  0
  186.3830  178.0260  143.7250 C   0  0  0  0  0  0  0  0  0  0  0  0
  184.3430  179.4170  145.0690 C   0  0  0  0  0  3  0  0  0  0  0  0
  185.2420  178.4820  143.0130 C   0  0  0  0  0  0  0  0  0  0  0  0
  187.7740  177.3650  142.8540 Cl  0  0  0  0  0  0  0  0  0  0  0  0
  186.4640  178.2370  145.1230 C   0  0  0  0  0  0  0  0  0  0  0  0
  185.4460  178.9450  145.7740 C   0  0  0  0  0  3  0  0  0  0  0  0
  187.4460  177.1320  147.0790 N   0  0  0  0  0  0  0  0  0  0  0  0
  192.0580  176.4570  147.0970 N   0  0  0  0  0  1  0  0  0  0  0  0
  187.5930  177.7520  145.9410 C   0  0  0  0  0  0  0  0  0  0  0  0
  191.1750  177.5970  145.1060 C   0  0  0  0  0  3  0  0  0  0  0  0
  188.7480  176.7170  147.5510 C   0  0  0  0  0  3  0  0  0  0  0  0
  191.0230  177.0410  146.3150 C   0  0  0  0  0  0  0  0  0  0  0  0
  189.8400  178.0560  144.6160 C   0  0  0  0  0  3  0  0  0  0  0  0
  188.9990  177.7540  145.5960 C   0  0  0  0  0  0  0  0  0  0  0  0
  189.6290  177.1130  146.6510 C   0  0  0  0  0  0  0  0  0  0  0  0
  181.1970  177.4350  139.9420 C   0  0  2  0  0  3  0  0  0  0  0  0
  180.2340  176.6860  139.2620 O   0  0  0  0  0  1  0  0  0  0  0  0
  179.6940  180.1370  141.9780 C   0  0  0  0  0  3  0  0  0  0  0  0
  180.6630  178.7490  140.2790 N   0  0  0  0  0  0  0  0  0  0  0  0
  180.7690  179.8520  139.3140 C   0  0  0  0  0  2  0  0  0  0  0  0
  179.5520  181.2200  140.9950 C   0  0  0  0  0  0  0  0  0  0  0  0
  178.9310  182.3670  141.3630 F   0  0  0  0  0  0  0  0  0  0  0  0
  180.0110  181.0800  139.7460 C   0  0  0  0  0  0  0  0  0  0  0  0
  179.8610  182.0960  138.8610 F   0  0  0  0  0  0  0  0  0  0  0  0
  180.2210  178.9680  141.6240 C   0  0  0  0  0  3  0  0  0  0  0  0
  184.7610  176.4840  136.9250 O   0  0  0  0  0  1  0  0  0  0  0  0
  184.6640  177.8260  137.2970 C   0  0  0  0  0  2  0  0  0  0  0  0
  187.2310  178.3760  138.4660 N   0  0  0  0  0  2  0  0  0  0  0  0
  188.2280  177.3290  138.2920 C   0  0  0  0  0  2  0  0  0  0  0  0
  189.5590  177.9550  137.9390 C   0  0  0  0  0  2  0  0  0  0  0  0
  190.5660  176.8620  137.6360 C   0  0  0  0  0  2  0  0  0  0  0  0
  190.6530  174.3980  137.2580 C   0  0  0  0  0  1  0  0  0  0  0  0
  189.8800  175.6740  136.9850 C   0  0  0  0  0  2  0  0  0  0  0  0
  1 11  1  0  0  0  0
  2  1  2  0  0  0  0
  3  2  1  0  0  0  0
  4  6  2  0  0  0  0
  5  3  2  0  0  0  0
  5 24  1  0  0  0  0
  6  1  1  0  0  0  0
  7  4  1  0  0  0  0
  7  3  1  0  0  0  0
  8 10  1  0  0  0  0
  9 13  2  0  0  0  0
 10 14  2  0  0  0  0
 11  8  2  0  0  0  0
 11  9  1  0  0  0  0
 12  9  1  0  0  0  0
 13 14  1  0  0  0  0
 13 17  1  0  0  0  0
 15 19  1  0  0  0  0
 17 15  2  0  0  0  0
 18 20  2  0  0  0  0
 20 23  1  0  0  0  0
 20 16  1  0  0  0  0
 21 18  1  0  0  0  0
 21 22  2  0  0  0  0
 22 17  1  0  0  0  0
 22 23  1  0  0  0  0
 23 19  2  0  0  0  0
 24 25  1  6  0  0  0
 24 27  1  0  0  0  0
 27 33  1  0  0  0  0
 28 31  1  0  0  0  0
 28 27  1  0  0  0  0
 29 30  1  0  0  0  0
 29 26  1  0  0  0  0
 31 29  2  0  0  0  0
 32 31  1  0  0  0  0
 33 26  2  0  0  0  0
 34 35  1  0  0  0  0
 35  7  1  0  0  0  0
 36  4  1  0  0  0  0
 37 36  1  0  0  0  0
 38 37  1  0  0  0  0
 39 38  1  0  0  0  0
 41 40  1  0  0  0  0
 41 39  1  0  0  0  0
M  END
>  <MODEL>
8

>  <REMARK>
 VINA RESULT:      -8.3      1.010      1.539
  Name = 
  10 active torsions:
  status: ('A' for Active; 'I' for Inactive)
    1  A    between atoms: C_2  and  C_18
    2  A    between atoms: C_6  and  N_11
    3  A    between atoms: C_6  and  C_29
    4  A    between atoms: C_8  and  C_25
    5  A    between atoms: C_8  and  N_40
    6  A    between atoms: C_9  and  C_22
    7  A    between atoms: C_20  and  C_35
    8  A    between atoms: C_25  and  C_35
    9  A    between atoms: C_26  and  N_40
   10  A    between atoms: C_28  and  N_31
                            x       y       z     vdW  Elec       q    Type
                         _______ _______ _______ _____ _____    ______ ____

>  <TORSDO>
F 10

$$$$
=
 OpenBabel10222416533D

 41 45  0  0  1  0  0  0  0  0999 V2000
  189.7940  176.2700  138.7830 C   0  0  0  0  0  0  0  0  0  0  0  0
  190.0690  176.3830  140.0880 C   0  0  0  0  0  3  0  0  0  0  0  0
  189.2630  177.2630  140.9520 C   0  0  0  0  0  0  0  0  0  0  0  0
  187.9400  177.8920  138.9360 C   0  0  0  0  0  0  0  0  0  0  0  0
  189.5240  177.3630  142.2610 C   0  0  0  0  0  3  0  0  0  0  0  0
  188.6980  177.0710  138.1940 C   0  0  0  0  0  3  0  0  0  0  0  0
  188.1860  178.0130  140.3520 N   0  0  0  0  0  0  0  0  0  0  0  0
  189.9880  174.3710  137.2190 C   0  0  0  0  0  3  0  0  0  0  0  0
  192.0250  175.5950  137.7460 C   0  0  0  0  0  0  0  0  0  0  0  0
  190.7020  173.5320  136.3690 C   0  0  0  0  0  3  0  0  0  0  0  0
  190.6260  175.4120  137.9070 C   0  0  0  0  0  0  0  0  0  0  0  0
  192.9040  176.7290  138.7810 Cl  0  0  0  0  0  0  0  0  0  0  0  0
  192.7390  174.7600  136.8520 C   0  0  0  0  0  0  0  0  0  0  0  0
  192.0670  173.7280  136.1860 C   0  0  0  0  0  3  0  0  0  0  0  0
  194.6690  175.5870  135.5840 N   0  0  0  0  0  0  0  0  0  0  0  0
  198.9090  174.8780  137.3860 N   0  0  0  0  0  1  0  0  0  0  0  0
  194.1840  174.9160  136.5930 C   0  0  0  0  0  0  0  0  0  0  0  0
  197.0440  173.9880  138.7190 C   0  0  0  0  0  3  0  0  0  0  0  0
  196.1090  175.6150  135.6980 C   0  0  0  0  0  3  0  0  0  0  0  0
  197.5350  174.6010  137.6330 C   0  0  0  0  0  0  0  0  0  0  0  0
  195.5550  173.9270  138.6030 C   0  0  0  0  0  3  0  0  0  0  0  0
  195.2840  174.4910  137.4350 C   0  0  0  0  0  0  0  0  0  0  0  0
  196.4240  174.9510  136.7940 C   0  0  0  0  0  0  0  0  0  0  0  0
  190.6190  176.6090  142.9530 C   0  0  2  0  0  3  0  0  0  0  0  0
  190.5550  175.2530  142.6230 O   0  0  0  0  0  1  0  0  0  0  0  0
  189.1580  177.5030  146.2350 C   0  0  0  0  0  3  0  0  0  0  0  0
  190.5180  176.7780  144.3960 N   0  0  0  0  0  0  0  0  0  0  0  0
  191.5710  176.2440  145.2720 C   0  0  0  0  0  2  0  0  0  0  0  0
  190.2660  177.2080  147.1540 C   0  0  0  0  0  0  0  0  0  0  0  0
  190.1300  177.5120  148.4680 F   0  0  0  0  0  0  0  0  0  0  0  0
  191.4030  176.6620  146.7100 C   0  0  0  0  0  0  0  0  0  0  0  0
  192.4080  176.4040  147.5820 F   0  0  0  0  0  0  0  0  0  0  0  0
  189.2930  177.2970  144.9280 C   0  0  0  0  0  3  0  0  0  0  0  0
  186.3250  178.2560  141.7410 O   0  0  0  0  0  1  0  0  0  0  0  0
  187.3840  178.9410  141.1440 C   0  0  0  0  0  2  0  0  0  0  0  0
  186.8870  178.6500  138.3290 N   0  0  0  0  0  2  0  0  0  0  0  0
  185.8400  178.0550  137.5100 C   0  0  0  0  0  2  0  0  0  0  0  0
  184.5900  177.8790  138.3420 C   0  0  0  0  0  2  0  0  0  0  0  0
  184.2820  179.1720  139.0720 C   0  0  0  0  0  2  0  0  0  0  0  0
  183.0500  177.6170  140.5820 C   0  0  0  0  0  1  0  0  0  0  0  0
  183.0660  179.0030  139.9640 C   0  0  0  0  0  2  0  0  0  0  0  0
  1  2  2  0  0  0  0
  2  3  1  0  0  0  0
  3  5  2  0  0  0  0
  4  7  1  0  0  0  0
  5 24  1  0  0  0  0
  6  1  1  0  0  0  0
  6  4  2  0  0  0  0
  7  3  1  0  0  0  0
  7 35  1  0  0  0  0
  8 11  1  0  0  0  0
  9 11  2  0  0  0  0
  9 12  1  0  0  0  0
 10  8  2  0  0  0  0
 11  1  1  0  0  0  0
 13  9  1  0  0  0  0
 14 10  1  0  0  0  0
 14 13  2  0  0  0  0
 15 19  2  0  0  0  0
 15 17  1  0  0  0  0
 16 20  1  0  0  0  0
 17 13  1  0  0  0  0
 17 22  2  0  0  0  0
 19 23  1  0  0  0  0
 20 18  1  0  0  0  0
 21 18  2  0  0  0  0
 22 21  1  0  0  0  0
 23 22  1  0  0  0  0
 23 20  2  0  0  0  0
 24 25  1  1  0  0  0
 24 27  1  0  0  0  0
 26 29  1  0  0  0  0
 27 33  1  0  0  0  0
 27 28  1  0  0  0  0
 28 31  1  0  0  0  0
 29 30  1  0  0  0  0
 31 29  2  0  0  0  0
 31 32  1  0  0  0  0
 33 26  2  0  0  0  0
 35 34  1  0  0  0  0
 36  4  1  0  0  0  0
 37 36  1  0  0  0  0
 37 38  1  0  0  0  0
 38 39  1  0  0  0  0
 39 41  1  0  0  0  0
 41 40  1  0  0  0  0
M  END
>  <MODEL>
9

>  <REMARK>
 VINA RESULT:      -8.3      5.198      9.689
  Name = 
  10 active torsions:
  status: ('A' for Active; 'I' for Inactive)
    1  A    between atoms: C_2  and  C_18
    2  A    between atoms: C_6  and  N_11
    3  A    between atoms: C_6  and  C_29
    4  A    between atoms: C_8  and  C_25
    5  A    between atoms: C_8  and  N_40
    6  A    between atoms: C_9  and  C_22
    7  A    between atoms: C_20  and  C_35
    8  A    between atoms: C_25  and  C_35
    9  A    between atoms: C_26  and  N_40
   10  A    between atoms: C_28  and  N_31
                            x       y       z     vdW  Elec       q    Type
                         _______ _______ _______ _____ _____    ______ ____

>  <TORSDO>
F 10

$$$$
