=
 OpenBabel10222415573D

 36 39  0  0  1  0  0  0  0  0999 V2000
  189.2160  177.3950  138.2490 C   0  0  2  0  0  3  0  0  0  0  0  0
  189.8920  177.6160  140.6100 C   0  0  2  0  0  3  0  0  0  0  0  0
  188.5950  177.0740  140.5380 O   0  0  0  0  0  0  0  0  0  0  0  0
  189.5020  176.6520  139.5500 C   0  0  1  0  0  3  0  0  0  0  0  0
  190.6370  176.9640  141.7410 C   0  0  0  0  0  0  0  0  0  0  0  0
  191.8480  177.0900  141.8630 O   0  0  0  0  0  0  0  0  0  0  0  0
  189.8650  176.2010  142.7650 C   0  0  0  0  0  2  0  0  0  0  0  0
  190.3870  176.5210  144.1590 C   0  0  0  0  0  2  0  0  0  0  0  0
  189.6200  177.4040  146.2890 N   0  0  0  0  0  2  0  0  0  0  0  0
  188.0720  177.0690  148.0130 O   0  0  0  0  0  0  0  0  0  0  0  0
  188.0680  177.4810  144.4650 C   0  0  0  0  0  2  0  0  0  0  0  0
  188.3090  177.2610  146.7910 C   0  0  0  0  0  0  0  0  0  0  0  0
  189.5530  177.5950  144.8520 C   0  0  2  0  0  0  0  0  0  0  0  0
  186.4190  178.5820  145.9590 C   0  0  0  0  0  1  0  0  0  0  0  0
  190.0320  178.8660  144.5310 O   0  0  0  0  0  1  0  0  0  0  0  0
  187.2620  177.3380  145.7540 C   0  0  1  0  0  3  0  0  0  0  0  0
  188.0650  176.7680  137.4500 C   0  0  1  0  0  3  0  0  0  0  0  0
  187.9740  175.2560  137.6180 C   0  0  0  0  0  1  0  0  0  0  0  0
  184.5340  177.8190  137.7990 C   0  0  1  0  0  3  0  0  0  0  0  0
  185.2730  178.8110  138.6160 C   0  0  0  0  0  0  0  0  0  0  0  0
  184.7460  179.7580  139.2560 O   0  0  0  0  0  0  0  0  0  0  0  0
  186.7600  177.4430  137.7330 C   0  0  0  0  0  0  0  0  0  0  0  0
  185.6230  176.9920  137.2990 N   0  0  0  0  0  0  0  0  0  0  0  0
  186.6690  178.5780  138.5870 N   0  0  0  0  0  2  0  0  0  0  0  0
  183.6290  176.9830  138.6860 C   0  0  0  0  0  1  0  0  0  0  0  0
  190.4230  177.4500  137.4350 N   0  0  0  0  0  2  0  0  0  0  0  0
  193.7050  175.3030  137.6520 C   0  0  2  0  0  3  0  0  0  0  0  0
  191.4170  175.2770  136.2140 S   0  0  0  0  0  0  0  0  0  0  0  0
  192.7080  174.3320  137.0510 C   0  0  0  0  0  2  0  0  0  0  0  0
  192.8310  176.7350  138.3730 S   0  0  0  0  0  0  0  0  0  0  0  0
  191.2010  176.2550  137.7230 C   0  0  1  0  0  3  0  0  0  0  0  0
  194.6230  175.7590  136.6210 N   0  0  0  0  0  2  0  0  0  0  0  0
  195.4150  174.6120  136.2040 C   0  0  0  0  0  2  0  0  0  0  0  0
  196.9730  173.5960  137.6920 O   0  0  0  0  0  1  0  0  0  0  0  0
  197.5690  175.6600  136.8910 O   0  0  0  0  0  0  0  0  0  0  0  0
  196.6970  174.5810  136.9590 C   0  0  0  0  0  0  0  0  0  0  0  0
  1 26  1  6  0  0  0
  2  5  1  1  0  0  0
  3  2  1  0  0  0  0
  4  1  1  6  0  0  0
  4  3  1  0  0  0  0
  4  2  1  0  0  0  0
  5  6  2  0  0  0  0
  5  7  1  0  0  0  0
  7  8  1  0  0  0  0
  8 13  1  0  0  0  0
  9 12  1  0  0  0  0
 11 13  1  0  0  0  0
 11 16  1  0  0  0  0
 12 10  2  0  0  0  0
 13 15  1  6  0  0  0
 13  9  1  0  0  0  0
 16 14  1  1  0  0  0
 16 12  1  0  0  0  0
 17 18  1  1  0  0  0
 17 22  1  0  0  0  0
 17  1  1  0  0  0  0
 19 20  1  0  0  0  0
 19 25  1  1  0  0  0
 20 21  2  0  0  0  0
 22 24  1  0  0  0  0
 23 22  2  0  0  0  0
 23 19  1  0  0  0  0
 24 20  1  0  0  0  0
 27 32  1  6  0  0  0
 27 30  1  0  0  0  0
 28 29  1  0  0  0  0
 28 31  1  0  0  0  0
 29 27  1  0  0  0  0
 31 26  1  6  0  0  0
 31 30  1  0  0  0  0
 33 32  1  0  0  0  0
 33 36  1  0  0  0  0
 35 36  2  0  0  0  0
 36 34  1  0  0  0  0
M  END
>  <MODEL>
1

>  <REMARK>
 VINA RESULT:      -7.1      0.000      0.000
  Name = 
  12 active torsions:
  status: ('A' for Active; 'I' for Inactive)
    1  A    between atoms: C_1  and  C_12
    2  A    between atoms: C_1  and  N_17
    3  A    between atoms: C_1  and  C_21
    4  A    between atoms: C_5  and  C_9
    5  A    between atoms: C_5  and  C_29
    6  A    between atoms: C_6  and  N_16
    7  A    between atoms: C_12  and  C_15
    8  A    between atoms: N_16  and  C_35
    9  A    between atoms: N_17  and  C_28
   10  A    between atoms: C_23  and  C_35
   11  A    between atoms: C_24  and  C_26
   12  A    between atoms: C_26  and  C_29
                            x       y       z     vdW  Elec       q    Type
                         _______ _______ _______ _____ _____    ______ ____

>  <TORSDO>
F 12

$$$$
=
 OpenBabel10222415573D

 36 39  0  0  1  0  0  0  0  0999 V2000
  188.4640  176.7930  137.0780 C   0  0  2  0  0  3  0  0  0  0  0  0
  188.5960  178.2350  139.0740 C   0  0  2  0  0  3  0  0  0  0  0  0
  187.3230  178.3560  138.4860 O   0  0  0  0  0  0  0  0  0  0  0  0
  187.8990  177.0730  138.4670 C   0  0  1  0  0  3  0  0  0  0  0  0
  188.4550  178.2780  140.5700 C   0  0  0  0  0  0  0  0  0  0  0  0
  187.4720  178.7730  141.1040 O   0  0  0  0  0  0  0  0  0  0  0  0
  189.5130  177.6440  141.4090 C   0  0  0  0  0  2  0  0  0  0  0  0
  189.5510  178.2940  142.7850 C   0  0  0  0  0  2  0  0  0  0  0  0
  187.9550  177.1580  144.2230 N   0  0  0  0  0  2  0  0  0  0  0  0
  186.6350  177.4190  146.1380 O   0  0  0  0  0  0  0  0  0  0  0  0
  190.0660  177.7380  145.1970 C   0  0  0  0  0  2  0  0  0  0  0  0
  187.7700  177.4360  145.5930 C   0  0  0  0  0  0  0  0  0  0  0  0
  189.3660  177.2760  143.9070 C   0  0  2  0  0  0  0  0  0  0  0  0
  189.3360  176.6840  147.3230 C   0  0  0  0  0  1  0  0  0  0  0  0
  189.8600  176.0300  143.5190 O   0  0  0  0  0  1  0  0  0  0  0  0
  189.0180  177.7660  146.3090 C   0  0  1  0  0  3  0  0  0  0  0  0
  187.3730  176.4670  136.0480 C   0  0  1  0  0  3  0  0  0  0  0  0
  187.9260  175.8660  134.7620 C   0  0  0  0  0  1  0  0  0  0  0  0
  184.2300  174.9840  137.3180 C   0  0  1  0  0  3  0  0  0  0  0  0
  185.2030  173.8690  137.4130 C   0  0  0  0  0  0  0  0  0  0  0  0
  184.9390  172.7130  137.8340 O   0  0  0  0  0  0  0  0  0  0  0  0
  186.2850  175.6260  136.6380 C   0  0  0  0  0  0  0  0  0  0  0  0
  185.0680  176.0510  136.7910 N   0  0  0  0  0  0  0  0  0  0  0  0
  186.4920  174.2600  136.9810 N   0  0  0  0  0  2  0  0  0  0  0  0
  183.1460  174.6470  136.3120 C   0  0  0  0  0  1  0  0  0  0  0  0
  189.4310  175.7050  137.1490 N   0  0  0  0  0  2  0  0  0  0  0  0
  193.3080  175.6090  136.5290 C   0  0  2  0  0  3  0  0  0  0  0  0
  191.6460  176.2530  138.5600 S   0  0  0  0  0  0  0  0  0  0  0  0
  193.1750  176.6030  137.6650 C   0  0  0  0  0  2  0  0  0  0  0  0
  191.6830  175.3300  135.7440 S   0  0  0  0  0  0  0  0  0  0  0  0
  190.7550  176.2830  136.9830 C   0  0  1  0  0  3  0  0  0  0  0  0
  193.8260  174.3510  137.0420 N   0  0  0  0  0  2  0  0  0  0  0  0
  195.2600  174.5120  137.2250 C   0  0  0  0  0  2  0  0  0  0  0  0
  196.3550  174.8770  139.3080 O   0  0  0  0  0  1  0  0  0  0  0  0
  195.2490  172.8790  139.1070 O   0  0  0  0  0  0  0  0  0  0  0  0
  195.6420  174.1140  138.6080 C   0  0  0  0  0  0  0  0  0  0  0  0
  1 26  1  1  0  0  0
  2  5  1  1  0  0  0
  3  2  1  0  0  0  0
  4  1  1  6  0  0  0
  4  3  1  0  0  0  0
  4  2  1  0  0  0  0
  5  6  2  0  0  0  0
  5  7  1  0  0  0  0
  7  8  1  0  0  0  0
  8 13  1  0  0  0  0
  9 12  1  0  0  0  0
 11 16  1  0  0  0  0
 12 10  2  0  0  0  0
 12 16  1  0  0  0  0
 13 15  1  6  0  0  0
 13  9  1  0  0  0  0
 13 11  1  0  0  0  0
 16 14  1  1  0  0  0
 17 18  1  6  0  0  0
 17 22  1  0  0  0  0
 17  1  1  0  0  0  0
 19 25  1  6  0  0  0
 19 20  1  0  0  0  0
 20 21  2  0  0  0  0
 22 23  2  0  0  0  0
 22 24  1  0  0  0  0
 23 19  1  0  0  0  0
 24 20  1  0  0  0  0
 27 32  1  1  0  0  0
 27 29  1  0  0  0  0
 29 28  1  0  0  0  0
 30 27  1  0  0  0  0
 30 31  1  0  0  0  0
 31 26  1  1  0  0  0
 31 28  1  0  0  0  0
 32 33  1  0  0  0  0
 33 36  1  0  0  0  0
 36 35  2  0  0  0  0
 36 34  1  0  0  0  0
M  END
>  <MODEL>
2

>  <REMARK>
 VINA RESULT:      -6.9      2.154      2.888
  Name = 
  12 active torsions:
  status: ('A' for Active; 'I' for Inactive)
    1  A    between atoms: C_1  and  C_12
    2  A    between atoms: C_1  and  N_17
    3  A    between atoms: C_1  and  C_21
    4  A    between atoms: C_5  and  C_9
    5  A    between atoms: C_5  and  C_29
    6  A    between atoms: C_6  and  N_16
    7  A    between atoms: C_12  and  C_15
    8  A    between atoms: N_16  and  C_35
    9  A    between atoms: N_17  and  C_28
   10  A    between atoms: C_23  and  C_35
   11  A    between atoms: C_24  and  C_26
   12  A    between atoms: C_26  and  C_29
                            x       y       z     vdW  Elec       q    Type
                         _______ _______ _______ _____ _____    ______ ____

>  <TORSDO>
F 12

$$$$
=
 OpenBabel10222415573D

 36 39  0  0  1  0  0  0  0  0999 V2000
  187.4780  177.9150  138.5010 C   0  0  2  0  0  3  0  0  0  0  0  0
  188.3560  177.2930  140.7200 C   0  0  2  0  0  3  0  0  0  0  0  0
  189.4260  177.5330  139.8370 O   0  0  0  0  0  0  0  0  0  0  0  0
  188.3050  178.3700  139.6990 C   0  0  1  0  0  3  0  0  0  0  0  0
  188.7180  177.8060  142.0860 C   0  0  0  0  0  0  0  0  0  0  0  0
  187.8610  178.1780  142.8750 O   0  0  0  0  0  0  0  0  0  0  0  0
  190.1520  177.7970  142.4990 C   0  0  0  0  0  2  0  0  0  0  0  0
  190.3450  176.8770  143.6980 C   0  0  0  0  0  2  0  0  0  0  0  0
  191.5810  177.1970  145.7650 N   0  0  0  0  0  2  0  0  0  0  0  0
  191.9450  176.2970  147.8940 O   0  0  0  0  0  0  0  0  0  0  0  0
  189.1960  177.3880  145.8910 C   0  0  0  0  0  2  0  0  0  0  0  0
  191.1500  176.7580  147.0340 C   0  0  0  0  0  0  0  0  0  0  0  0
  190.4290  177.6520  145.0090 C   0  0  2  0  0  0  0  0  0  0  0  0
  189.4000  177.9070  148.3110 C   0  0  0  0  0  1  0  0  0  0  0  0
  190.5500  179.0200  144.7600 O   0  0  0  0  0  1  0  0  0  0  0  0
  189.6930  176.8720  147.2400 C   0  0  1  0  0  3  0  0  0  0  0  0
  188.2740  177.9360  137.1890 C   0  0  1  0  0  3  0  0  0  0  0  0
  189.0690  179.2210  136.9930 C   0  0  0  0  0  1  0  0  0  0  0  0
  190.9600  175.4370  136.7060 C   0  0  1  0  0  3  0  0  0  0  0  0
  189.8030  174.6220  137.1470 C   0  0  0  0  0  0  0  0  0  0  0  0
  189.8160  173.3730  137.3030 O   0  0  0  0  0  0  0  0  0  0  0  0
  189.1300  176.7180  137.0390 C   0  0  0  0  0  0  0  0  0  0  0  0
  190.3800  176.7720  136.6930 N   0  0  0  0  0  0  0  0  0  0  0  0
  188.6530  175.4180  137.3670 N   0  0  0  0  0  2  0  0  0  0  0  0
  192.0680  175.3760  137.7410 C   0  0  0  0  0  1  0  0  0  0  0  0
  186.2850  178.7440  138.3810 N   0  0  0  0  0  2  0  0  0  0  0  0
  182.5370  178.0890  139.3540 C   0  0  2  0  0  3  0  0  0  0  0  0
  184.7920  178.8970  140.6050 S   0  0  0  0  0  0  0  0  0  0  0  0
  183.2570  177.9490  140.6800 C   0  0  0  0  0  2  0  0  0  0  0  0
  183.7360  178.0210  137.9780 S   0  0  0  0  0  0  0  0  0  0  0  0
  185.2000  178.0510  139.0560 C   0  0  1  0  0  3  0  0  0  0  0  0
  181.8230  179.3560  139.3180 N   0  0  0  0  0  2  0  0  0  0  0  0
  180.9360  179.3890  140.4700 C   0  0  0  0  0  2  0  0  0  0  0  0
  179.6820  181.1000  141.5530 O   0  0  0  0  0  1  0  0  0  0  0  0
  179.9240  181.3340  139.2860 O   0  0  0  0  0  0  0  0  0  0  0  0
  180.1600  180.6590  140.4760 C   0  0  0  0  0  0  0  0  0  0  0  0
  1 26  1  6  0  0  0
  2  5  1  1  0  0  0
  3  2  1  0  0  0  0
  4  1  1  6  0  0  0
  4  3  1  0  0  0  0
  4  2  1  0  0  0  0
  5  7  1  0  0  0  0
  5  6  2  0  0  0  0
  7  8  1  0  0  0  0
  8 13  1  0  0  0  0
  9 12  1  0  0  0  0
 11 16  1  0  0  0  0
 12 16  1  0  0  0  0
 12 10  2  0  0  0  0
 13 15  1  6  0  0  0
 13  9  1  0  0  0  0
 13 11  1  0  0  0  0
 16 14  1  1  0  0  0
 17 18  1  1  0  0  0
 17  1  1  0  0  0  0
 19 20  1  0  0  0  0
 19 25  1  1  0  0  0
 20 21  2  0  0  0  0
 20 24  1  0  0  0  0
 22 17  1  0  0  0  0
 22 24  1  0  0  0  0
 23 19  1  0  0  0  0
 23 22  2  0  0  0  0
 27 32  1  1  0  0  0
 27 29  1  0  0  0  0
 28 29  1  0  0  0  0
 30 31  1  0  0  0  0
 30 27  1  0  0  0  0
 31 26  1  6  0  0  0
 31 28  1  0  0  0  0
 32 33  1  0  0  0  0
 33 36  1  0  0  0  0
 35 36  2  0  0  0  0
 36 34  1  0  0  0  0
M  END
>  <MODEL>
3

>  <REMARK>
 VINA RESULT:      -6.9      3.446      8.062
  Name = 
  12 active torsions:
  status: ('A' for Active; 'I' for Inactive)
    1  A    between atoms: C_1  and  C_12
    2  A    between atoms: C_1  and  N_17
    3  A    between atoms: C_1  and  C_21
    4  A    between atoms: C_5  and  C_9
    5  A    between atoms: C_5  and  C_29
    6  A    between atoms: C_6  and  N_16
    7  A    between atoms: C_12  and  C_15
    8  A    between atoms: N_16  and  C_35
    9  A    between atoms: N_17  and  C_28
   10  A    between atoms: C_23  and  C_35
   11  A    between atoms: C_24  and  C_26
   12  A    between atoms: C_26  and  C_29
                            x       y       z     vdW  Elec       q    Type
                         _______ _______ _______ _____ _____    ______ ____

>  <TORSDO>
F 12

$$$$
=
 OpenBabel10222415573D

 36 39  0  0  1  0  0  0  0  0999 V2000
  188.4450  177.5240  139.1470 C   0  0  2  0  0  3  0  0  0  0  0  0
  190.1020  176.7500  140.8010 C   0  0  2  0  0  3  0  0  0  0  0  0
  190.4300  176.2420  139.5300 O   0  0  0  0  0  0  0  0  0  0  0  0
  189.9120  177.5490  139.5640 C   0  0  1  0  0  3  0  0  0  0  0  0
  191.3670  177.1060  141.5320 C   0  0  0  0  0  0  0  0  0  0  0  0
  192.2390  177.7830  141.0050 O   0  0  0  0  0  0  0  0  0  0  0  0
  191.5220  176.6720  142.9510 C   0  0  0  0  0  2  0  0  0  0  0  0
  190.1690  176.6740  143.6510 C   0  0  0  0  0  2  0  0  0  0  0  0
  191.3840  177.2940  145.6610 N   0  0  0  0  0  2  0  0  0  0  0  0
  191.8920  176.6000  147.8380 O   0  0  0  0  0  0  0  0  0  0  0  0
  188.9960  177.1880  145.8300 C   0  0  0  0  0  2  0  0  0  0  0  0
  191.0320  176.8950  146.9670 C   0  0  0  0  0  0  0  0  0  0  0  0
  190.1720  177.5440  144.9040 C   0  0  2  0  0  0  0  0  0  0  0  0
  189.1670  177.8980  148.2040 C   0  0  0  0  0  1  0  0  0  0  0  0
  190.1120  178.8960  144.5590 O   0  0  0  0  0  1  0  0  0  0  0  0
  189.5750  176.8360  147.2000 C   0  0  1  0  0  3  0  0  0  0  0  0
  188.2610  177.5600  137.6230 C   0  0  1  0  0  3  0  0  0  0  0  0
  189.2430  178.4930  136.9250 C   0  0  0  0  0  1  0  0  0  0  0  0
  189.0230  174.3420  135.9640 C   0  0  1  0  0  3  0  0  0  0  0  0
  187.6990  174.1050  136.5880 C   0  0  0  0  0  0  0  0  0  0  0  0
  187.0520  173.0270  136.5260 O   0  0  0  0  0  0  0  0  0  0  0  0
  188.2750  176.1860  137.0300 C   0  0  0  0  0  0  0  0  0  0  0  0
  189.2740  175.7240  136.3420 N   0  0  0  0  0  0  0  0  0  0  0  0
  187.2260  175.2540  137.2660 N   0  0  0  0  0  2  0  0  0  0  0  0
  190.0680  173.4440  136.6000 C   0  0  0  0  0  1  0  0  0  0  0  0
  187.7350  178.6350  139.7670 N   0  0  0  0  0  2  0  0  0  0  0  0
  183.8110  178.7290  139.6340 C   0  0  2  0  0  3  0  0  0  0  0  0
  185.7350  179.1090  141.4920 S   0  0  0  0  0  0  0  0  0  0  0  0
  184.0910  178.4760  141.1010 C   0  0  0  0  0  2  0  0  0  0  0  0
  185.3120  178.4090  138.6430 S   0  0  0  0  0  0  0  0  0  0  0  0
  186.3930  178.1750  140.0870 C   0  0  1  0  0  3  0  0  0  0  0  0
  183.3890  180.1090  139.4490 N   0  0  0  0  0  2  0  0  0  0  0  0
  182.3460  180.1130  138.4360 C   0  0  0  0  0  2  0  0  0  0  0  0
  181.4700  182.2870  138.0130 O   0  0  0  0  0  0  0  0  0  0  0  0
  180.4580  181.1250  139.7100 O   0  0  0  0  0  1  0  0  0  0  0  0
  181.3960  181.2300  138.6910 C   0  0  0  0  0  0  0  0  0  0  0  0
  1 26  1  1  0  0  0
  2  5  1  1  0  0  0
  3  4  1  0  0  0  0
  3  2  1  0  0  0  0
  4  1  1  6  0  0  0
  4  2  1  0  0  0  0
  5  7  1  0  0  0  0
  6  5  2  0  0  0  0
  7  8  1  0  0  0  0
  8 13  1  0  0  0  0
  9 12  1  0  0  0  0
 11 16  1  0  0  0  0
 12 16  1  0  0  0  0
 12 10  2  0  0  0  0
 13 15  1  6  0  0  0
 13  9  1  0  0  0  0
 13 11  1  0  0  0  0
 16 14  1  1  0  0  0
 17 18  1  6  0  0  0
 17  1  1  0  0  0  0
 19 23  1  0  0  0  0
 19 20  1  0  0  0  0
 19 25  1  1  0  0  0
 20 24  1  0  0  0  0
 21 20  2  0  0  0  0
 22 24  1  0  0  0  0
 22 17  1  0  0  0  0
 23 22  2  0  0  0  0
 27 32  1  1  0  0  0
 27 29  1  0  0  0  0
 29 28  1  0  0  0  0
 30 27  1  0  0  0  0
 30 31  1  0  0  0  0
 31 26  1  6  0  0  0
 31 28  1  0  0  0  0
 33 36  1  0  0  0  0
 33 32  1  0  0  0  0
 34 36  2  0  0  0  0
 36 35  1  0  0  0  0
M  END
>  <MODEL>
4

>  <REMARK>
 VINA RESULT:      -6.9      3.513      7.423
  Name = 
  12 active torsions:
  status: ('A' for Active; 'I' for Inactive)
    1  A    between atoms: C_1  and  C_12
    2  A    between atoms: C_1  and  N_17
    3  A    between atoms: C_1  and  C_21
    4  A    between atoms: C_5  and  C_9
    5  A    between atoms: C_5  and  C_29
    6  A    between atoms: C_6  and  N_16
    7  A    between atoms: C_12  and  C_15
    8  A    between atoms: N_16  and  C_35
    9  A    between atoms: N_17  and  C_28
   10  A    between atoms: C_23  and  C_35
   11  A    between atoms: C_24  and  C_26
   12  A    between atoms: C_26  and  C_29
                            x       y       z     vdW  Elec       q    Type
                         _______ _______ _______ _____ _____    ______ ____

>  <TORSDO>
F 12

$$$$
=
 OpenBabel10222415573D

 36 39  0  0  1  0  0  0  0  0999 V2000
  184.3550  179.1760  140.7590 C   0  0  2  0  0  3  0  0  0  0  0  0
  184.6080  179.1470  143.2120 C   0  0  2  0  0  3  0  0  0  0  0  0
  183.4620  178.4170  142.8460 O   0  0  0  0  0  0  0  0  0  0  0  0
  184.5730  178.3040  141.9910 C   0  0  1  0  0  3  0  0  0  0  0  0
  185.2800  178.4640  144.3700 C   0  0  0  0  0  0  0  0  0  0  0  0
  184.6890  178.2630  145.4220 O   0  0  0  0  0  0  0  0  0  0  0  0
  186.6760  177.9680  144.1980 C   0  0  0  0  0  2  0  0  0  0  0  0
  187.4060  177.9830  145.5350 C   0  0  0  0  0  2  0  0  0  0  0  0
  189.7480  178.5550  145.2320 N   0  0  0  0  0  2  0  0  0  0  0  0
  191.3390  179.1660  143.6290 O   0  0  0  0  0  0  0  0  0  0  0  0
  188.9820  176.5410  144.1840 C   0  0  0  0  0  2  0  0  0  0  0  0
  190.4770  178.3480  144.0420 C   0  0  0  0  0  0  0  0  0  0  0  0
  188.8300  177.4470  145.4190 C   0  0  2  0  0  0  0  0  0  0  0  0
  191.2860  176.1400  143.3500 C   0  0  0  0  0  1  0  0  0  0  0  0
  189.1810  176.7430  146.5710 O   0  0  0  0  0  1  0  0  0  0  0  0
  190.1170  177.1060  143.3310 C   0  0  1  0  0  3  0  0  0  0  0  0
  183.4270  178.5230  139.7260 C   0  0  1  0  0  3  0  0  0  0  0  0
  183.0540  177.0880  140.0810 C   0  0  0  0  0  1  0  0  0  0  0  0
  180.1060  180.1480  139.5750 C   0  0  1  0  0  3  0  0  0  0  0  0
  180.9660  181.0390  138.7600 C   0  0  0  0  0  0  0  0  0  0  0  0
  180.5800  182.0910  138.1870 O   0  0  0  0  0  0  0  0  0  0  0  0
  182.2210  179.3650  139.4520 C   0  0  0  0  0  0  0  0  0  0  0  0
  181.0550  179.1150  139.9660 N   0  0  0  0  0  0  0  0  0  0  0  0
  182.2960  180.5600  138.6840 N   0  0  0  0  0  2  0  0  0  0  0  0
  179.6170  180.8810  140.8100 C   0  0  0  0  0  1  0  0  0  0  0  0
  185.6390  179.5000  140.1500 N   0  0  0  0  0  2  0  0  0  0  0  0
  188.6940  177.2180  139.2130 C   0  0  2  0  0  3  0  0  0  0  0  0
  186.4290  178.0780  138.0170 S   0  0  0  0  0  0  0  0  0  0  0  0
  187.6150  176.7390  138.2640 C   0  0  0  0  0  2  0  0  0  0  0  0
  187.9570  178.2150  140.5530 S   0  0  0  0  0  0  0  0  0  0  0  0
  186.2950  178.2460  139.8150 C   0  0  1  0  0  3  0  0  0  0  0  0
  189.6630  178.0210  138.4830 N   0  0  0  0  0  2  0  0  0  0  0  0
  190.3640  177.1340  137.5690 C   0  0  0  0  0  2  0  0  0  0  0  0
  192.2690  176.7500  138.9470 O   0  0  0  0  0  1  0  0  0  0  0  0
  191.1060  174.8760  138.3200 O   0  0  0  0  0  0  0  0  0  0  0  0
  191.2920  176.2520  138.3300 C   0  0  0  0  0  0  0  0  0  0  0  0
  1 26  1  6  0  0  0
  2  5  1  1  0  0  0
  3  2  1  0  0  0  0
  4  1  1  6  0  0  0
  4  3  1  0  0  0  0
  4  2  1  0  0  0  0
  5  6  2  0  0  0  0
  7  5  1  0  0  0  0
  7  8  1  0  0  0  0
  9 13  1  0  0  0  0
 10 12  2  0  0  0  0
 11 13  1  0  0  0  0
 12  9  1  0  0  0  0
 13  8  1  0  0  0  0
 13 15  1  1  0  0  0
 16 14  1  1  0  0  0
 16 12  1  0  0  0  0
 16 11  1  0  0  0  0
 17 18  1  1  0  0  0
 17  1  1  0  0  0  0
 19 23  1  0  0  0  0
 19 25  1  1  0  0  0
 20 19  1  0  0  0  0
 21 20  2  0  0  0  0
 22 17  1  0  0  0  0
 22 23  2  0  0  0  0
 24 20  1  0  0  0  0
 24 22  1  0  0  0  0
 27 32  1  6  0  0  0
 27 30  1  0  0  0  0
 28 29  1  0  0  0  0
 28 31  1  0  0  0  0
 29 27  1  0  0  0  0
 31 26  1  6  0  0  0
 31 30  1  0  0  0  0
 33 36  1  0  0  0  0
 33 32  1  0  0  0  0
 35 36  2  0  0  0  0
 36 34  1  0  0  0  0
M  END
>  <MODEL>
5

>  <REMARK>
 VINA RESULT:      -6.9      3.196      5.311
  Name = 
  12 active torsions:
  status: ('A' for Active; 'I' for Inactive)
    1  A    between atoms: C_1  and  C_12
    2  A    between atoms: C_1  and  N_17
    3  A    between atoms: C_1  and  C_21
    4  A    between atoms: C_5  and  C_9
    5  A    between atoms: C_5  and  C_29
    6  A    between atoms: C_6  and  N_16
    7  A    between atoms: C_12  and  C_15
    8  A    between atoms: N_16  and  C_35
    9  A    between atoms: N_17  and  C_28
   10  A    between atoms: C_23  and  C_35
   11  A    between atoms: C_24  and  C_26
   12  A    between atoms: C_26  and  C_29
                            x       y       z     vdW  Elec       q    Type
                         _______ _______ _______ _____ _____    ______ ____

>  <TORSDO>
F 12

$$$$
=
 OpenBabel10222415573D

 36 39  0  0  1  0  0  0  0  0999 V2000
  188.1430  177.2890  137.7970 C   0  0  2  0  0  3  0  0  0  0  0  0
  189.6640  177.5430  139.7220 C   0  0  2  0  0  3  0  0  0  0  0  0
  188.6190  178.4810  139.8170 O   0  0  0  0  0  0  0  0  0  0  0  0
  188.2740  177.2140  139.3150 C   0  0  1  0  0  3  0  0  0  0  0  0
  190.0000  177.0380  141.0970 C   0  0  0  0  0  0  0  0  0  0  0  0
  190.6630  176.0220  141.2580 O   0  0  0  0  0  0  0  0  0  0  0  0
  189.5650  177.8340  142.2810 C   0  0  0  0  0  2  0  0  0  0  0  0
  189.4890  176.9420  143.5130 C   0  0  0  0  0  2  0  0  0  0  0  0
  190.9780  177.0250  145.4300 N   0  0  0  0  0  2  0  0  0  0  0  0
  191.3900  176.0800  147.5310 O   0  0  0  0  0  0  0  0  0  0  0  0
  188.7020  177.6740  145.8010 C   0  0  0  0  0  2  0  0  0  0  0  0
  190.6100  176.6830  146.7480 C   0  0  0  0  0  0  0  0  0  0  0  0
  189.8610  177.6920  144.7890 C   0  0  2  0  0  0  0  0  0  0  0  0
  189.2610  178.1540  148.1730 C   0  0  0  0  0  1  0  0  0  0  0  0
  190.2150  179.0090  144.4940 O   0  0  0  0  0  1  0  0  0  0  0  0
  189.2330  177.0780  147.1040 C   0  0  1  0  0  3  0  0  0  0  0  0
  187.2120  178.4190  137.3370 C   0  0  1  0  0  3  0  0  0  0  0  0
  187.2650  178.6620  135.8340 C   0  0  0  0  0  1  0  0  0  0  0  0
  183.7020  177.4230  137.9510 C   0  0  1  0  0  3  0  0  0  0  0  0
  184.0410  178.2460  139.1370 C   0  0  0  0  0  0  0  0  0  0  0  0
  183.2600  178.4960  140.0910 O   0  0  0  0  0  0  0  0  0  0  0  0
  185.8120  178.2180  137.8240 C   0  0  0  0  0  0  0  0  0  0  0  0
  184.9450  177.4840  137.1960 N   0  0  0  0  0  0  0  0  0  0  0  0
  185.3650  178.7420  139.0690 N   0  0  0  0  0  2  0  0  0  0  0  0
  183.4340  175.9890  138.3710 C   0  0  0  0  0  1  0  0  0  0  0  0
  187.6780  176.0090  137.2770 N   0  0  0  0  0  2  0  0  0  0  0  0
  191.0210  174.0840  136.5440 C   0  0  2  0  0  3  0  0  0  0  0  0
  190.1240  176.6260  136.3630 S   0  0  0  0  0  0  0  0  0  0  0  0
  191.1400  175.3090  135.6610 C   0  0  0  0  0  2  0  0  0  0  0  0
  189.2960  173.8790  137.1070 S   0  0  0  0  0  0  0  0  0  0  0  0
  188.7310  175.4700  136.4320 C   0  0  1  0  0  3  0  0  0  0  0  0
  191.8980  174.2270  137.6960 N   0  0  0  0  0  2  0  0  0  0  0  0
  193.2540  174.3880  137.1940 C   0  0  0  0  0  2  0  0  0  0  0  0
  193.5520  176.6140  137.9880 O   0  0  0  0  0  0  0  0  0  0  0  0
  195.1190  175.0940  138.6880 O   0  0  0  0  0  1  0  0  0  0  0  0
  193.9670  175.4260  137.9870 C   0  0  0  0  0  0  0  0  0  0  0  0
  1 26  1  1  0  0  0
  2  3  1  0  0  0  0
  2  5  1  1  0  0  0
  4  1  1  6  0  0  0
  4  2  1  0  0  0  0
  4  3  1  0  0  0  0
  5  6  2  0  0  0  0
  5  7  1  0  0  0  0
  7  8  1  0  0  0  0
  8 13  1  0  0  0  0
  9 12  1  0  0  0  0
 11 16  1  0  0  0  0
 12 16  1  0  0  0  0
 12 10  2  0  0  0  0
 13 15  1  6  0  0  0
 13  9  1  0  0  0  0
 13 11  1  0  0  0  0
 16 14  1  1  0  0  0
 17 18  1  6  0  0  0
 17  1  1  0  0  0  0
 17 22  1  0  0  0  0
 19 25  1  1  0  0  0
 19 20  1  0  0  0  0
 20 21  2  0  0  0  0
 22 24  1  0  0  0  0
 23 22  2  0  0  0  0
 23 19  1  0  0  0  0
 24 20  1  0  0  0  0
 27 30  1  0  0  0  0
 27 32  1  1  0  0  0
 28 31  1  0  0  0  0
 29 28  1  0  0  0  0
 29 27  1  0  0  0  0
 31 30  1  0  0  0  0
 31 26  1  1  0  0  0
 33 32  1  0  0  0  0
 33 36  1  0  0  0  0
 36 34  2  0  0  0  0
 36 35  1  0  0  0  0
M  END
>  <MODEL>
6

>  <REMARK>
 VINA RESULT:      -6.8      1.858      2.378
  Name = 
  12 active torsions:
  status: ('A' for Active; 'I' for Inactive)
    1  A    between atoms: C_1  and  C_12
    2  A    between atoms: C_1  and  N_17
    3  A    between atoms: C_1  and  C_21
    4  A    between atoms: C_5  and  C_9
    5  A    between atoms: C_5  and  C_29
    6  A    between atoms: C_6  and  N_16
    7  A    between atoms: C_12  and  C_15
    8  A    between atoms: N_16  and  C_35
    9  A    between atoms: N_17  and  C_28
   10  A    between atoms: C_23  and  C_35
   11  A    between atoms: C_24  and  C_26
   12  A    between atoms: C_26  and  C_29
                            x       y       z     vdW  Elec       q    Type
                         _______ _______ _______ _____ _____    ______ ____

>  <TORSDO>
F 12

$$$$
=
 OpenBabel10222415573D

 36 39  0  0  1  0  0  0  0  0999 V2000
  187.9730  177.2940  137.3820 C   0  0  2  0  0  3  0  0  0  0  0  0
  189.5440  177.5980  139.2590 C   0  0  2  0  0  3  0  0  0  0  0  0
  188.6500  178.6840  139.2090 O   0  0  0  0  0  0  0  0  0  0  0  0
  188.1150  177.4220  138.8950 C   0  0  1  0  0  3  0  0  0  0  0  0
  189.8230  177.2530  140.6950 C   0  0  0  0  0  0  0  0  0  0  0  0
  190.4490  176.2470  141.0000 O   0  0  0  0  0  0  0  0  0  0  0  0
  189.3760  178.1980  141.7600 C   0  0  0  0  0  2  0  0  0  0  0  0
  188.0040  177.7910  142.2800 C   0  0  0  0  0  2  0  0  0  0  0  0
  186.9120  177.2520  144.3830 N   0  0  0  0  0  2  0  0  0  0  0  0
  186.4860  178.0590  146.5380 O   0  0  0  0  0  0  0  0  0  0  0  0
  189.3000  177.4510  144.4240 C   0  0  0  0  0  2  0  0  0  0  0  0
  187.3130  177.7420  145.6440 C   0  0  0  0  0  0  0  0  0  0  0  0
  188.0940  176.9980  143.5810 C   0  0  2  0  0  0  0  0  0  0  0  0
  189.2710  176.8810  146.8410 C   0  0  0  0  0  1  0  0  0  0  0  0
  188.1880  175.6320  143.3140 O   0  0  0  0  0  1  0  0  0  0  0  0
  188.7760  177.8650  145.7980 C   0  0  1  0  0  3  0  0  0  0  0  0
  186.8470  178.1700  136.8160 C   0  0  1  0  0  3  0  0  0  0  0  0
  186.5380  177.8730  135.3530 C   0  0  0  0  0  1  0  0  0  0  0  0
  184.0490  178.7330  139.1720 C   0  0  1  0  0  3  0  0  0  0  0  0
  183.6470  177.5060  138.4420 C   0  0  0  0  0  0  0  0  0  0  0  0
  182.5800  176.8670  138.6350 O   0  0  0  0  0  0  0  0  0  0  0  0
  185.6190  178.1160  137.6700 C   0  0  0  0  0  0  0  0  0  0  0  0
  185.3380  179.0190  138.5590 N   0  0  0  0  0  0  0  0  0  0  0  0
  184.6220  177.1170  137.4930 N   0  0  0  0  0  2  0  0  0  0  0  0
  183.0810  179.8620  138.8690 C   0  0  0  0  0  1  0  0  0  0  0  0
  187.7570  175.8990  137.0220 N   0  0  0  0  0  2  0  0  0  0  0  0
  191.4550  174.6710  136.5300 C   0  0  2  0  0  3  0  0  0  0  0  0
  190.0030  176.8660  135.9190 S   0  0  0  0  0  0  0  0  0  0  0  0
  191.2950  175.7030  135.4330 C   0  0  0  0  0  2  0  0  0  0  0  0
  189.8190  174.1930  137.1860 S   0  0  0  0  0  0  0  0  0  0  0  0
  188.9100  175.4610  136.2510 C   0  0  1  0  0  3  0  0  0  0  0  0
  192.2700  175.2210  137.6020 N   0  0  0  0  0  2  0  0  0  0  0  0
  193.4940  175.7280  137.0020 C   0  0  0  0  0  2  0  0  0  0  0  0
  194.4700  173.9120  138.1950 O   0  0  0  0  0  1  0  0  0  0  0  0
  195.9290  175.2010  136.9850 O   0  0  0  0  0  0  0  0  0  0  0  0
  194.6480  174.8850  137.4180 C   0  0  0  0  0  0  0  0  0  0  0  0
  1 26  1  1  0  0  0
  2  5  1  1  0  0  0
  3  2  1  0  0  0  0
  4  1  1  6  0  0  0
  4  3  1  0  0  0  0
  4  2  1  0  0  0  0
  5  6  2  0  0  0  0
  5  7  1  0  0  0  0
  7  8  1  0  0  0  0
  8 13  1  0  0  0  0
  9 12  1  0  0  0  0
 11 16  1  0  0  0  0
 12 16  1  0  0  0  0
 12 10  2  0  0  0  0
 13 15  1  6  0  0  0
 13  9  1  0  0  0  0
 13 11  1  0  0  0  0
 16 14  1  1  0  0  0
 17 18  1  6  0  0  0
 17  1  1  0  0  0  0
 17 22  1  0  0  0  0
 19 25  1  6  0  0  0
 20 21  2  0  0  0  0
 20 19  1  0  0  0  0
 22 23  2  0  0  0  0
 23 19  1  0  0  0  0
 24 22  1  0  0  0  0
 24 20  1  0  0  0  0
 27 30  1  0  0  0  0
 27 32  1  1  0  0  0
 28 31  1  0  0  0  0
 29 28  1  0  0  0  0
 29 27  1  0  0  0  0
 31 26  1  1  0  0  0
 31 30  1  0  0  0  0
 33 36  1  0  0  0  0
 33 32  1  0  0  0  0
 35 36  2  0  0  0  0
 36 34  1  0  0  0  0
M  END
>  <MODEL>
7

>  <REMARK>
 VINA RESULT:      -6.8      1.920      2.520
  Name = 
  12 active torsions:
  status: ('A' for Active; 'I' for Inactive)
    1  A    between atoms: C_1  and  C_12
    2  A    between atoms: C_1  and  N_17
    3  A    between atoms: C_1  and  C_21
    4  A    between atoms: C_5  and  C_9
    5  A    between atoms: C_5  and  C_29
    6  A    between atoms: C_6  and  N_16
    7  A    between atoms: C_12  and  C_15
    8  A    between atoms: N_16  and  C_35
    9  A    between atoms: N_17  and  C_28
   10  A    between atoms: C_23  and  C_35
   11  A    between atoms: C_24  and  C_26
   12  A    between atoms: C_26  and  C_29
                            x       y       z     vdW  Elec       q    Type
                         _______ _______ _______ _____ _____    ______ ____

>  <TORSDO>
F 12

$$$$
=
 OpenBabel10222415573D

 36 39  0  0  1  0  0  0  0  0999 V2000
  188.6430  177.6140  137.8300 C   0  0  2  0  0  3  0  0  0  0  0  0
  188.8920  178.3050  140.1850 C   0  0  2  0  0  3  0  0  0  0  0  0
  187.6000  178.6280  139.7300 O   0  0  0  0  0  0  0  0  0  0  0  0
  188.1420  177.4200  139.2580 C   0  0  1  0  0  3  0  0  0  0  0  0
  188.8130  177.8470  141.6140 C   0  0  0  0  0  0  0  0  0  0  0  0
  187.7370  177.6990  142.1780 O   0  0  0  0  0  0  0  0  0  0  0  0
  190.0770  177.5070  142.3300 C   0  0  0  0  0  2  0  0  0  0  0  0
  189.7660  176.7340  143.6050 C   0  0  0  0  0  2  0  0  0  0  0  0
  191.1560  177.0840  145.5670 N   0  0  0  0  0  2  0  0  0  0  0  0
  191.5960  176.2870  147.7230 O   0  0  0  0  0  0  0  0  0  0  0  0
  188.8040  177.4590  145.8280 C   0  0  0  0  0  2  0  0  0  0  0  0
  190.7800  176.7540  146.8860 C   0  0  0  0  0  0  0  0  0  0  0  0
  189.9910  177.5780  144.8570 C   0  0  2  0  0  0  0  0  0  0  0  0
  189.2050  178.1030  148.1930 C   0  0  0  0  0  1  0  0  0  0  0  0
  190.1920  178.9160  144.5130 O   0  0  0  0  0  1  0  0  0  0  0  0
  189.3520  176.9880  147.1750 C   0  0  1  0  0  3  0  0  0  0  0  0
  187.5200  177.9860  136.8520 C   0  0  1  0  0  3  0  0  0  0  0  0
  187.9360  177.8650  135.3910 C   0  0  0  0  0  1  0  0  0  0  0  0
  184.1100  176.8230  137.6940 C   0  0  1  0  0  3  0  0  0  0  0  0
  184.7840  175.5960  137.2090 C   0  0  0  0  0  0  0  0  0  0  0  0
  184.2490  174.4600  137.1280 O   0  0  0  0  0  0  0  0  0  0  0  0
  186.2600  177.2310  137.1410 C   0  0  0  0  0  0  0  0  0  0  0  0
  185.1820  177.8020  137.5830 N   0  0  0  0  0  0  0  0  0  0  0  0
  186.1310  175.8440  136.8520 N   0  0  0  0  0  2  0  0  0  0  0  0
  182.9780  177.2020  136.7560 C   0  0  0  0  0  1  0  0  0  0  0  0
  189.3270  176.4090  137.3790 N   0  0  0  0  0  2  0  0  0  0  0  0
  193.1170  175.5960  136.7450 C   0  0  2  0  0  3  0  0  0  0  0  0
  191.5780  176.3390  138.8380 S   0  0  0  0  0  0  0  0  0  0  0  0
  193.1640  176.4670  137.9830 C   0  0  0  0  0  2  0  0  0  0  0  0
  191.4850  175.7390  135.9360 S   0  0  0  0  0  0  0  0  0  0  0  0
  190.7440  176.7210  137.2750 C   0  0  1  0  0  3  0  0  0  0  0  0
  193.3590  174.2100  137.1140 N   0  0  0  0  0  2  0  0  0  0  0  0
  194.6000  174.1710  137.8710 C   0  0  0  0  0  2  0  0  0  0  0  0
  196.0380  173.1120  136.2950 O   0  0  0  0  0  0  0  0  0  0  0  0
  196.5660  175.2810  136.8180 O   0  0  0  0  0  1  0  0  0  0  0  0
  195.7610  174.1570  136.9400 C   0  0  0  0  0  0  0  0  0  0  0  0
  1 26  1  6  0  0  0
  2  5  1  1  0  0  0
  3  2  1  0  0  0  0
  4  1  1  6  0  0  0
  4  3  1  0  0  0  0
  4  2  1  0  0  0  0
  5  6  2  0  0  0  0
  5  7  1  0  0  0  0
  7  8  1  0  0  0  0
  8 13  1  0  0  0  0
  9 12  1  0  0  0  0
 11 16  1  0  0  0  0
 12 16  1  0  0  0  0
 12 10  2  0  0  0  0
 13 15  1  6  0  0  0
 13  9  1  0  0  0  0
 13 11  1  0  0  0  0
 16 14  1  1  0  0  0
 17 18  1  6  0  0  0
 17 22  1  0  0  0  0
 17  1  1  0  0  0  0
 19 25  1  6  0  0  0
 20 19  1  0  0  0  0
 21 20  2  0  0  0  0
 22 23  2  0  0  0  0
 23 19  1  0  0  0  0
 24 22  1  0  0  0  0
 24 20  1  0  0  0  0
 27 32  1  1  0  0  0
 27 29  1  0  0  0  0
 29 28  1  0  0  0  0
 30 27  1  0  0  0  0
 30 31  1  0  0  0  0
 31 26  1  1  0  0  0
 31 28  1  0  0  0  0
 32 33  1  0  0  0  0
 34 36  2  0  0  0  0
 35 36  1  0  0  0  0
 36 33  1  0  0  0  0
M  END
>  <MODEL>
8

>  <REMARK>
 VINA RESULT:      -6.7      1.812      2.323
  Name = 
  12 active torsions:
  status: ('A' for Active; 'I' for Inactive)
    1  A    between atoms: C_1  and  C_12
    2  A    between atoms: C_1  and  N_17
    3  A    between atoms: C_1  and  C_21
    4  A    between atoms: C_5  and  C_9
    5  A    between atoms: C_5  and  C_29
    6  A    between atoms: C_6  and  N_16
    7  A    between atoms: C_12  and  C_15
    8  A    between atoms: N_16  and  C_35
    9  A    between atoms: N_17  and  C_28
   10  A    between atoms: C_23  and  C_35
   11  A    between atoms: C_24  and  C_26
   12  A    between atoms: C_26  and  C_29
                            x       y       z     vdW  Elec       q    Type
                         _______ _______ _______ _____ _____    ______ ____

>  <TORSDO>
F 12

$$$$
=
 OpenBabel10222415573D

 36 39  0  0  1  0  0  0  0  0999 V2000
  190.6580  177.5460  140.0240 C   0  0  2  0  0  3  0  0  0  0  0  0
  188.6840  178.3250  138.7680 C   0  0  2  0  0  3  0  0  0  0  0  0
  189.7940  178.2490  137.9060 O   0  0  0  0  0  0  0  0  0  0  0  0
  189.6940  177.2420  138.8820 C   0  0  1  0  0  3  0  0  0  0  0  0
  187.4510  177.8920  138.0250 C   0  0  0  0  0  0  0  0  0  0  0  0
  187.5160  177.4420  136.8900 O   0  0  0  0  0  0  0  0  0  0  0  0
  186.1330  177.9570  138.7220 C   0  0  0  0  0  2  0  0  0  0  0  0
  186.3370  178.2640  140.2000 C   0  0  0  0  0  2  0  0  0  0  0  0
  185.5710  179.7510  141.9620 N   0  0  0  0  0  2  0  0  0  0  0  0
  184.9960  179.8370  144.2290 O   0  0  0  0  0  0  0  0  0  0  0  0
  184.0830  177.9880  141.3130 C   0  0  0  0  0  2  0  0  0  0  0  0
  184.8190  179.3450  143.0840 C   0  0  0  0  0  0  0  0  0  0  0  0
  185.1380  178.9880  140.8060 C   0  0  2  0  0  0  0  0  0  0  0  0
  182.4260  178.8260  142.9600 C   0  0  0  0  0  1  0  0  0  0  0  0
  184.5650  179.8500  139.8700 O   0  0  0  0  0  1  0  0  0  0  0  0
  183.8330  178.2870  142.7900 C   0  0  1  0  0  3  0  0  0  0  0  0
  192.1300  177.4070  139.6100 C   0  0  1  0  0  3  0  0  0  0  0  0
  193.0700  177.2290  140.7960 C   0  0  0  0  0  1  0  0  0  0  0  0
  193.3030  175.0730  136.9900 C   0  0  1  0  0  3  0  0  0  0  0  0
  192.0030  174.4970  137.4100 C   0  0  0  0  0  0  0  0  0  0  0  0
  191.4890  173.4490  136.9390 O   0  0  0  0  0  0  0  0  0  0  0  0
  192.3180  176.3390  138.5790 C   0  0  0  0  0  0  0  0  0  0  0  0
  193.3810  176.2530  137.8380 N   0  0  0  0  0  0  0  0  0  0  0  0
  191.3820  175.2810  138.4120 N   0  0  0  0  0  2  0  0  0  0  0  0
  194.4330  174.1210  137.3400 C   0  0  0  0  0  1  0  0  0  0  0  0
  190.3700  176.6780  141.1590 N   0  0  0  0  0  2  0  0  0  0  0  0
  189.4840  178.0810  144.7180 C   0  0  2  0  0  3  0  0  0  0  0  0
  188.3740  176.3880  142.9290 S   0  0  0  0  0  0  0  0  0  0  0  0
  188.1310  177.6740  144.1730 C   0  0  0  0  0  2  0  0  0  0  0  0
  190.7100  178.1600  143.3670 S   0  0  0  0  0  0  0  0  0  0  0  0
  189.5950  177.4510  142.1170 C   0  0  1  0  0  3  0  0  0  0  0  0
  189.9180  177.1150  145.7160 N   0  0  0  0  0  2  0  0  0  0  0  0
  191.2700  176.7070  145.3680 C   0  0  0  0  0  2  0  0  0  0  0  0
  191.8830  176.7560  147.6690 O   0  0  0  0  0  1  0  0  0  0  0  0
  192.7160  174.9960  146.4580 O   0  0  0  0  0  0  0  0  0  0  0  0
  191.9560  176.1530  146.5670 C   0  0  0  0  0  0  0  0  0  0  0  0
  1 26  1  1  0  0  0
  2  5  1  6  0  0  0
  2  4  1  0  0  0  0
  3  2  1  0  0  0  0
  3  4  1  0  0  0  0
  4  1  1  1  0  0  0
  5  7  1  0  0  0  0
  6  5  2  0  0  0  0
  7  8  1  0  0  0  0
  8 13  1  0  0  0  0
  9 12  1  0  0  0  0
 11 16  1  0  0  0  0
 12 10  2  0  0  0  0
 13 15  1  6  0  0  0
 13 11  1  0  0  0  0
 13  9  1  0  0  0  0
 16 14  1  6  0  0  0
 16 12  1  0  0  0  0
 17  1  1  0  0  0  0
 17 18  1  1  0  0  0
 19 25  1  1  0  0  0
 19 20  1  0  0  0  0
 19 23  1  0  0  0  0
 20 24  1  0  0  0  0
 21 20  2  0  0  0  0
 22 17  1  0  0  0  0
 23 22  2  0  0  0  0
 24 22  1  0  0  0  0
 27 32  1  1  0  0  0
 28 29  1  0  0  0  0
 29 27  1  0  0  0  0
 30 27  1  0  0  0  0
 31 26  1  6  0  0  0
 31 28  1  0  0  0  0
 31 30  1  0  0  0  0
 33 32  1  0  0  0  0
 33 36  1  0  0  0  0
 35 36  2  0  0  0  0
 36 34  1  0  0  0  0
M  END
>  <MODEL>
9

>  <REMARK>
 VINA RESULT:      -6.7      3.054      7.155
  Name = 
  12 active torsions:
  status: ('A' for Active; 'I' for Inactive)
    1  A    between atoms: C_1  and  C_12
    2  A    between atoms: C_1  and  N_17
    3  A    between atoms: C_1  and  C_21
    4  A    between atoms: C_5  and  C_9
    5  A    between atoms: C_5  and  C_29
    6  A    between atoms: C_6  and  N_16
    7  A    between atoms: C_12  and  C_15
    8  A    between atoms: N_16  and  C_35
    9  A    between atoms: N_17  and  C_28
   10  A    between atoms: C_23  and  C_35
   11  A    between atoms: C_24  and  C_26
   12  A    between atoms: C_26  and  C_29
                            x       y       z     vdW  Elec       q    Type
                         _______ _______ _______ _____ _____    ______ ____

>  <TORSDO>
F 12

$$$$
