=
 OpenBabel10222416153D

 44 49  0  0  1  0  0  0  0  0999 V2000
  193.9400  176.2810  137.5210 N   0  0  0  0  0  0  0  0  0  0  0  0
  189.2220  176.7520  138.6410 C   0  0  0  0  0  0  0  0  0  0  0  0
  191.2420  177.1790  141.0610 C   0  0  0  0  0  3  0  0  0  0  0  0
  192.6160  176.3670  137.6820 C   0  0  0  0  0  0  0  0  0  0  0  0
  188.9930  177.0740  139.9840 C   0  0  0  0  0  3  0  0  0  0  0  0
  191.7470  176.6250  138.7050 C   0  0  0  0  0  0  0  0  0  0  0  0
  194.0230  176.0030  136.1850 C   0  0  0  0  0  0  0  0  0  0  0  0
  190.6520  176.2920  136.7720 O   0  0  0  0  0  0  0  0  0  0  0  0
  192.7750  175.9350  135.5260 C   0  0  0  0  0  3  0  0  0  0  0  0
  190.4890  176.5600  138.0720 C   0  0  0  0  0  0  0  0  0  0  0  0
  191.9380  176.1810  136.5790 C   0  0  0  0  0  0  0  0  0  0  0  0
  192.1010  176.8920  140.0130 C   0  0  0  0  0  3  0  0  0  0  0  0
  189.8550  177.2690  141.0620 C   0  0  0  0  0  0  0  0  0  0  0  0
  182.9020  174.8360  137.2740 C   0  0  0  0  0  0  0  0  0  0  0  0
  185.2660  175.5410  136.9350 C   0  0  0  0  0  0  0  0  0  0  0  0
  187.2600  177.8390  137.4220 C   0  0  0  0  0  3  0  0  0  0  0  0
  186.5830  175.1790  136.3350 C   0  0  0  0  0  2  0  0  0  0  0  0
  182.0520  173.9110  137.3700 O   0  0  0  0  0  0  0  0  0  0  0  0
  188.0210  176.6180  137.7800 C   0  0  0  0  0  0  0  0  0  0  0  0
  184.2720  174.5150  137.0330 N   0  0  0  0  0  0  0  0  0  0  0  0
  185.9420  177.9220  137.2060 C   0  0  0  0  0  3  0  0  0  0  0  0
  184.9680  176.8130  137.2750 C   0  0  2  0  0  3  0  0  0  0  0  0
  187.7010  175.4110  137.2950 C   0  0  0  0  0  3  0  0  0  0  0  0
  182.4890  176.2810  137.2990 C   0  0  2  0  0  3  0  0  0  0  0  0
  183.6200  177.1490  137.8570 C   0  0  0  0  0  2  0  0  0  0  0  0
  180.1550  176.7750  137.4850 O   0  0  0  0  0  0  0  0  0  0  0  0
  181.2330  176.5020  138.0830 C   0  0  0  0  0  0  0  0  0  0  0  0
  181.2860  176.4150  139.4800 O   0  0  0  0  0  0  0  0  0  0  0  0
  181.3890  178.4430  140.6210 O   0  0  0  0  0  0  0  0  0  0  0  0
  180.7710  177.3750  140.3600 C   0  0  0  0  0  3  0  0  0  0  0  0
  189.2370  177.5890  142.3180 C   0  0  0  0  0  0  0  0  0  0  0  0
  188.7200  177.8540  143.3750 C   0  0  0  0  0  0  0  0  0  0  0  0
  186.8020  177.3820  144.8260 C   0  0  0  0  0  2  0  0  0  0  0  0
  189.2840  177.8490  148.2860 C   0  0  0  0  0  1  0  0  0  0  0  0
  188.3960  177.4860  147.1160 C   0  0  2  0  0  3  0  0  0  0  0  0
  189.0820  177.8840  145.8020 C   0  0  0  0  0  2  0  0  0  0  0  0
  187.0360  178.1630  147.2620 C   0  0  0  0  0  2  0  0  0  0  0  0
  188.0960  178.1730  144.6600 C   0  0  1  0  0  3  0  0  0  0  0  0
  186.0820  177.7650  146.1270 C   0  0  0  0  0  2  0  0  0  0  0  0
  195.3300  175.8380  135.4850 C   0  0  0  0  0  2  0  0  0  0  0  0
  196.6350  173.3000  135.9040 C   0  0  0  0  0  1  0  0  0  0  0  0
  198.0860  174.4810  137.6630 C   0  0  0  0  0  1  0  0  0  0  0  0
  196.9980  174.5480  136.6480 C   0  0  0  0  0  0  0  0  0  0  0  0
  196.3920  175.6690  136.4490 N   0  0  0  0  0  0  0  0  0  0  0  0
  1  4  1  0  0  0  0
  2  5  1  0  0  0  0
  3 13  1  0  0  0  0
  4  6  2  0  0  0  0
  5 13  2  0  0  0  0
  6 12  1  0  0  0  0
  7  1  2  0  0  0  0
  8 10  1  0  0  0  0
  9  7  1  0  0  0  0
  9 11  2  0  0  0  0
 10  2  2  0  0  0  0
 10  6  1  0  0  0  0
 11  8  1  0  0  0  0
 11  4  1  0  0  0  0
 12  3  2  0  0  0  0
 13 31  1  0  0  0  0
 14 24  1  0  0  0  0
 14 18  2  0  0  0  0
 15 20  2  0  0  0  0
 15 22  1  0  0  0  0
 16 19  1  0  0  0  0
 17 15  1  0  0  0  0
 17 23  1  0  0  0  0
 19  2  1  0  0  0  0
 20 14  1  0  0  0  0
 21 16  2  0  0  0  0
 22 21  1  1  0  0  0
 22 25  1  0  0  0  0
 23 19  2  0  0  0  0
 24 25  1  0  0  0  0
 24 27  1  1  0  0  0
 26 27  2  0  0  0  0
 27 28  1  0  0  0  0
 28 30  1  0  0  0  0
 30 29  2  0  0  0  0
 31 32  3  0  0  0  0
 33 39  1  0  0  0  0
 35 37  1  0  0  0  0
 35 34  1  1  0  0  0
 36 35  1  0  0  0  0
 38 32  1  6  0  0  0
 38 33  1  0  0  0  0
 38 36  1  0  0  0  0
 39 37  1  0  0  0  0
 40  7  1  0  0  0  0
 40 44  1  0  0  0  0
 41 43  1  0  0  0  0
 43 42  1  0  0  0  0
 44 43  2  0  0  0  0
M  END
>  <MODEL>
1

>  <REMARK>
 VINA RESULT:      -8.9      0.000      0.000
  Name = 
  8 active torsions:
  status: ('A' for Active; 'I' for Inactive)
    1  A    between atoms: C_3  and  C_22
    2  A    between atoms: O_4  and  C_30
    3  A    between atoms: O_4  and  C_39
    4  A    between atoms: C_10  and  C_41
    5  A    between atoms: C_11  and  C_24
    6  A    between atoms: C_11  and  N_43
    7  A    between atoms: C_30  and  C_38
    8  A    between atoms: C_34  and  C_42
                            x       y       z     vdW  Elec       q    Type
                         _______ _______ _______ _____ _____    ______ ____

>  <TORSDO>
F 8

$$$$
=
 OpenBabel10222416153D

 44 49  0  0  1  0  0  0  0  0999 V2000
  189.4810  178.2530  143.1890 N   0  0  0  0  0  0  0  0  0  0  0  0
  187.5560  177.6290  138.7580 C   0  0  0  0  0  0  0  0  0  0  0  0
  185.6380  179.0040  140.8910 C   0  0  0  0  0  3  0  0  0  0  0  0
  189.0850  178.0070  141.9370 C   0  0  0  0  0  0  0  0  0  0  0  0
  186.2460  178.1100  138.6410 C   0  0  0  0  0  3  0  0  0  0  0  0
  187.9570  178.1980  141.1890 C   0  0  0  0  0  0  0  0  0  0  0  0
  190.7620  177.7750  143.1560 C   0  0  0  0  0  0  0  0  0  0  0  0
  189.5880  177.2470  139.9720 O   0  0  0  0  0  0  0  0  0  0  0  0
  191.1590  177.2600  141.9010 C   0  0  0  0  0  3  0  0  0  0  0  0
  188.3260  177.6870  139.9280 C   0  0  0  0  0  0  0  0  0  0  0  0
  190.0060  177.4540  141.1920 C   0  0  0  0  0  0  0  0  0  0  0  0
  186.7840  178.7770  141.6340 C   0  0  0  0  0  3  0  0  0  0  0  0
  185.3860  178.7160  139.5550 C   0  0  0  0  0  0  0  0  0  0  0  0
  192.6300  175.2770  134.9880 C   0  0  0  0  0  0  0  0  0  0  0  0
  190.4040  176.2000  135.6150 C   0  0  0  0  0  0  0  0  0  0  0  0
  187.8400  175.6130  137.2190 C   0  0  0  0  0  3  0  0  0  0  0  0
  189.4410  177.3240  135.4240 C   0  0  0  0  0  2  0  0  0  0  0  0
  193.8100  175.4730  134.5940 O   0  0  0  0  0  0  0  0  0  0  0  0
  188.1500  177.0270  137.5380 C   0  0  0  0  0  0  0  0  0  0  0  0
  191.7470  176.3860  135.1530 N   0  0  0  0  0  0  0  0  0  0  0  0
  188.6440  174.7410  136.6000 C   0  0  0  0  0  3  0  0  0  0  0  0
  190.0100  175.0050  136.1000 C   0  0  2  0  0  3  0  0  0  0  0  0
  188.8880  177.7950  136.7270 C   0  0  0  0  0  3  0  0  0  0  0  0
  192.0930  173.8870  135.1840 C   0  0  2  0  0  3  0  0  0  0  0  0
  191.0020  173.8830  136.2590 C   0  0  0  0  0  2  0  0  0  0  0  0
  193.7120  172.2160  134.6260 O   0  0  0  0  0  0  0  0  0  0  0  0
  193.1670  172.9040  135.5330 C   0  0  0  0  0  0  0  0  0  0  0  0
  193.5360  172.7570  136.8770 O   0  0  0  0  0  0  0  0  0  0  0  0
  195.0650  172.9420  138.6230 O   0  0  0  0  0  0  0  0  0  0  0  0
  194.7860  173.1030  137.4040 C   0  0  0  0  0  3  0  0  0  0  0  0
  184.0870  179.0750  139.0590 C   0  0  0  0  0  0  0  0  0  0  0  0
  182.9970  179.3810  138.6440 C   0  0  0  0  0  0  0  0  0  0  0  0
  181.5620  181.2750  138.0430 C   0  0  0  0  0  2  0  0  0  0  0  0
  179.8040  178.9630  134.8930 C   0  0  0  0  0  1  0  0  0  0  0  0
  180.5060  179.8950  135.8570 C   0  0  2  0  0  3  0  0  0  0  0  0
  181.4290  179.0870  136.7780 C   0  0  0  0  0  2  0  0  0  0  0  0
  179.4790  180.6920  136.6570 C   0  0  0  0  0  2  0  0  0  0  0  0
  181.6750  179.7560  138.1390 C   0  0  1  0  0  3  0  0  0  0  0  0
  180.1540  181.6980  137.5990 C   0  0  0  0  0  2  0  0  0  0  0  0
  191.6710  177.8470  144.3370 C   0  0  0  0  0  2  0  0  0  0  0  0
  192.0560  175.9000  146.4300 C   0  0  0  0  0  1  0  0  0  0  0  0
  190.2130  177.1260  147.7340 C   0  0  0  0  0  1  0  0  0  0  0  0
  191.0580  177.0140  146.5120 C   0  0  0  0  0  0  0  0  0  0  0  0
  190.8980  177.8660  145.5570 N   0  0  0  0  0  0  0  0  0  0  0  0
  2 10  2  0  0  0  0
  3 12  2  0  0  0  0
  4  1  1  0  0  0  0
  5  2  1  0  0  0  0
  5 13  2  0  0  0  0
  6 12  1  0  0  0  0
  6  4  2  0  0  0  0
  7  1  2  0  0  0  0
  7 40  1  0  0  0  0
  8 11  1  0  0  0  0
  9  7  1  0  0  0  0
 10  8  1  0  0  0  0
 10  6  1  0  0  0  0
 11  9  2  0  0  0  0
 11  4  1  0  0  0  0
 13  3  1  0  0  0  0
 14 20  1  0  0  0  0
 14 24  1  0  0  0  0
 15 22  1  0  0  0  0
 16 19  1  0  0  0  0
 17 15  1  0  0  0  0
 17 23  1  0  0  0  0
 18 14  2  0  0  0  0
 19  2  1  0  0  0  0
 20 15  2  0  0  0  0
 21 16  2  0  0  0  0
 22 25  1  1  0  0  0
 22 21  1  0  0  0  0
 23 19  2  0  0  0  0
 24 27  1  1  0  0  0
 24 25  1  0  0  0  0
 26 27  2  0  0  0  0
 27 28  1  0  0  0  0
 28 30  1  0  0  0  0
 30 29  2  0  0  0  0
 31 13  1  0  0  0  0
 32 31  3  0  0  0  0
 33 38  1  0  0  0  0
 35 34  1  6  0  0  0
 35 37  1  0  0  0  0
 35 36  1  0  0  0  0
 36 38  1  0  0  0  0
 37 39  1  0  0  0  0
 38 32  1  6  0  0  0
 39 33  1  0  0  0  0
 40 44  1  0  0  0  0
 41 43  1  0  0  0  0
 43 42  1  0  0  0  0
 44 43  2  0  0  0  0
M  END
>  <MODEL>
2

>  <REMARK>
 VINA RESULT:      -7.9      3.789      9.279
  Name = 
  8 active torsions:
  status: ('A' for Active; 'I' for Inactive)
    1  A    between atoms: C_3  and  C_22
    2  A    between atoms: O_4  and  C_30
    3  A    between atoms: O_4  and  C_39
    4  A    between atoms: C_10  and  C_41
    5  A    between atoms: C_11  and  C_24
    6  A    between atoms: C_11  and  N_43
    7  A    between atoms: C_30  and  C_38
    8  A    between atoms: C_34  and  C_42
                            x       y       z     vdW  Elec       q    Type
                         _______ _______ _______ _____ _____    ______ ____

>  <TORSDO>
F 8

$$$$
=
 OpenBabel10222416153D

 44 49  0  0  1  0  0  0  0  0999 V2000
  186.6640  175.0830  135.3630 N   0  0  0  0  0  0  0  0  0  0  0  0
  190.1410  176.1420  138.6070 C   0  0  0  0  0  0  0  0  0  0  0  0
  191.0030  174.1290  136.3000 C   0  0  0  0  0  3  0  0  0  0  0  0
  187.5080  175.4550  136.3290 C   0  0  0  0  0  0  0  0  0  0  0  0
  191.3640  175.5130  138.3450 C   0  0  0  0  0  3  0  0  0  0  0  0
  188.8090  175.2070  136.6720 C   0  0  0  0  0  0  0  0  0  0  0  0
  185.5430  175.7830  135.7140 C   0  0  0  0  0  0  0  0  0  0  0  0
  187.8540  176.6530  138.1000 O   0  0  0  0  0  0  0  0  0  0  0  0
  185.6950  176.5870  136.8660 C   0  0  0  0  0  3  0  0  0  0  0  0
  188.9860  175.9980  137.8250 C   0  0  0  0  0  0  0  0  0  0  0  0
  186.9940  176.3000  137.1830 C   0  0  0  0  0  0  0  0  0  0  0  0
  189.6770  174.3780  135.9880 C   0  0  0  0  0  3  0  0  0  0  0  0
  191.7700  174.6320  137.3450 C   0  0  0  0  0  0  0  0  0  0  0  0
  188.8350  177.5700  145.0680 C   0  0  0  0  0  0  0  0  0  0  0  0
  189.2730  177.8850  142.6370 C   0  0  0  0  0  0  0  0  0  0  0  0
  191.3690  177.4520  140.4210 C   0  0  0  0  0  3  0  0  0  0  0  0
  188.7480  178.4380  141.3540 C   0  0  0  0  0  2  0  0  0  0  0  0
  188.0100  177.4540  146.0120 O   0  0  0  0  0  0  0  0  0  0  0  0
  190.0930  177.0250  139.7990 C   0  0  0  0  0  0  0  0  0  0  0  0
  188.3620  177.7660  143.7350 N   0  0  0  0  0  2  0  0  0  0  0  0
  191.5800  177.7020  141.7180 C   0  0  0  0  0  3  0  0  0  0  0  0
  190.5830  177.6080  142.8050 C   0  0  0  0  0  0  0  0  0  0  0  0
  188.9060  177.4640  140.2360 C   0  0  0  0  0  3  0  0  0  0  0  0
  190.3150  177.6180  145.3260 C   0  0  2  0  0  3  0  0  0  0  0  0
  191.0840  177.0720  144.1200 C   0  0  0  0  0  2  0  0  0  0  0  0
  190.0640  177.0610  147.6400 O   0  0  0  0  0  0  0  0  0  0  0  0
  190.7020  176.8730  146.5660 C   0  0  0  0  0  0  0  0  0  0  0  0
  191.7860  175.9870  146.5110 O   0  0  0  0  0  0  0  0  0  0  0  0
  192.9780  176.3460  148.4780 O   0  0  0  0  0  0  0  0  0  0  0  0
  192.5140  175.5460  147.6220 C   0  0  0  0  0  3  0  0  0  0  0  0
  193.1330  174.1860  137.4080 C   0  0  0  0  0  0  0  0  0  0  0  0
  194.2780  173.8120  137.4650 C   0  0  0  0  0  0  0  0  0  0  0  0
  196.2350  173.1720  136.1370 C   0  0  0  0  0  2  0  0  0  0  0  0
  198.8220  174.8680  139.1010 C   0  0  0  0  0  1  0  0  0  0  0  0
  197.9720  174.4200  137.9310 C   0  0  2  0  0  3  0  0  0  0  0  0
  196.4990  174.3610  138.3550 C   0  0  0  0  0  2  0  0  0  0  0  0
  198.4590  173.0680  137.4180 C   0  0  0  0  0  2  0  0  0  0  0  0
  195.6680  173.3580  137.5400 C   0  0  1  0  0  3  0  0  0  0  0  0
  197.6640  172.6110  136.1870 C   0  0  0  0  0  2  0  0  0  0  0  0
  184.2880  175.7320  134.9080 C   0  0  0  0  0  2  0  0  0  0  0  0
  182.2170  177.7320  135.0890 C   0  0  0  0  0  1  0  0  0  0  0  0
  181.0610  176.1960  136.7930 C   0  0  0  0  0  1  0  0  0  0  0  0
  182.2010  176.4530  135.8690 C   0  0  0  0  0  0  0  0  0  0  0  0
  183.1450  175.5790  135.7780 N   0  0  0  0  0  0  0  0  0  0  0  0
  1  7  2  0  0  0  0
  1  4  1  0  0  0  0
  2 19  1  0  0  0  0
  3 13  1  0  0  0  0
  4  6  2  0  0  0  0
  4 11  1  0  0  0  0
  5  2  1  0  0  0  0
  6 10  1  0  0  0  0
  7  9  1  0  0  0  0
  9 11  2  0  0  0  0
 10  8  1  0  0  0  0
 10  2  2  0  0  0  0
 11  8  1  0  0  0  0
 12  3  2  0  0  0  0
 12  6  1  0  0  0  0
 13 31  1  0  0  0  0
 13  5  2  0  0  0  0
 14 24  1  0  0  0  0
 14 18  2  0  0  0  0
 15 22  2  0  0  0  0
 15 20  1  0  0  0  0
 16 21  2  0  0  0  0
 17 15  1  0  0  0  0
 19 23  2  0  0  0  0
 19 16  1  0  0  0  0
 20 14  1  0  0  0  0
 21 22  1  0  0  0  0
 22 25  1  0  0  0  0
 23 17  1  0  0  0  0
 24 27  1  1  0  0  0
 25 24  1  0  0  0  0
 27 26  2  0  0  0  0
 28 27  1  0  0  0  0
 28 30  1  0  0  0  0
 30 29  2  0  0  0  0
 31 32  3  0  0  0  0
 33 39  1  0  0  0  0
 33 38  1  0  0  0  0
 35 36  1  0  0  0  0
 35 34  1  1  0  0  0
 37 35  1  0  0  0  0
 38 32  1  6  0  0  0
 38 36  1  0  0  0  0
 39 37  1  0  0  0  0
 40  7  1  0  0  0  0
 40 44  1  0  0  0  0
 41 43  1  0  0  0  0
 43 42  1  0  0  0  0
 44 43  2  0  0  0  0
M  END
>  <MODEL>
3

>  <REMARK>
 VINA RESULT:      -7.6      3.779     10.172
  Name = 
  8 active torsions:
  status: ('A' for Active; 'I' for Inactive)
    1  A    between atoms: C_3  and  C_22
    2  A    between atoms: O_4  and  C_30
    3  A    between atoms: O_4  and  C_39
    4  A    between atoms: C_10  and  C_41
    5  A    between atoms: C_11  and  C_24
    6  A    between atoms: C_11  and  N_43
    7  A    between atoms: C_30  and  C_38
    8  A    between atoms: C_34  and  C_42
                            x       y       z     vdW  Elec       q    Type
                         _______ _______ _______ _____ _____    ______ ____

>  <TORSDO>
F 8

$$$$
=
 OpenBabel10222416153D

 44 49  0  0  1  0  0  0  0  0999 V2000
  187.2510  174.1860  135.4730 N   0  0  0  0  0  0  0  0  0  0  0  0
  190.5580  176.0820  138.5070 C   0  0  0  0  0  0  0  0  0  0  0  0
  191.7290  174.2110  136.2160 C   0  0  0  0  0  3  0  0  0  0  0  0
  188.0370  174.7650  136.3850 C   0  0  0  0  0  0  0  0  0  0  0  0
  191.8750  175.7170  138.2010 C   0  0  0  0  0  3  0  0  0  0  0  0
  189.3740  174.8120  136.6680 C   0  0  0  0  0  0  0  0  0  0  0  0
  186.0220  174.6450  135.8600 C   0  0  0  0  0  0  0  0  0  0  0  0
  188.1950  176.0770  138.1010 O   0  0  0  0  0  0  0  0  0  0  0  0
  186.0490  175.5070  136.9800 C   0  0  0  0  0  3  0  0  0  0  0  0
  189.4280  175.6660  137.7880 C   0  0  0  0  0  0  0  0  0  0  0  0
  187.3910  175.5140  137.2400 C   0  0  0  0  0  0  0  0  0  0  0  0
  190.3690  174.1610  135.9650 C   0  0  0  0  0  3  0  0  0  0  0  0
  192.4160  174.9050  137.2070 C   0  0  0  0  0  0  0  0  0  0  0  0
  188.7450  177.5270  144.8400 C   0  0  0  0  0  0  0  0  0  0  0  0
  189.3180  177.8300  142.4360 C   0  0  0  0  0  0  0  0  0  0  0  0
  191.5770  177.5030  140.3670 C   0  0  0  0  0  3  0  0  0  0  0  0
  188.8400  178.3240  141.1110 C   0  0  0  0  0  2  0  0  0  0  0  0
  187.8690  177.3710  145.7320 O   0  0  0  0  0  0  0  0  0  0  0  0
  190.3740  176.9790  139.6750 C   0  0  0  0  0  0  0  0  0  0  0  0
  188.3470  177.6680  143.4760 N   0  0  0  0  0  2  0  0  0  0  0  0
  191.6860  177.7880  141.6690 C   0  0  0  0  0  3  0  0  0  0  0  0
  190.6290  177.6450  142.6930 C   0  0  0  0  0  0  0  0  0  0  0  0
  189.1350  177.3440  140.0250 C   0  0  0  0  0  3  0  0  0  0  0  0
  190.1980  177.6790  145.1900 C   0  0  2  0  0  3  0  0  0  0  0  0
  191.0790  177.1670  144.0480 C   0  0  0  0  0  2  0  0  0  0  0  0
  189.7850  177.0690  147.4670 O   0  0  0  0  0  0  0  0  0  0  0  0
  190.5520  176.9840  146.4680 C   0  0  0  0  0  0  0  0  0  0  0  0
  191.7500  176.2590  146.5320 O   0  0  0  0  0  0  0  0  0  0  0  0
  193.0600  176.1980  148.4550 O   0  0  0  0  0  0  0  0  0  0  0  0
  192.2430  175.6310  147.6820 C   0  0  0  0  0  3  0  0  0  0  0  0
  193.8440  174.7600  137.2140 C   0  0  0  0  0  0  0  0  0  0  0  0
  195.0440  174.6370  137.2230 C   0  0  0  0  0  0  0  0  0  0  0  0
  197.0190  174.5470  138.6710 C   0  0  0  0  0  2  0  0  0  0  0  0
  198.8380  171.6970  136.0400 C   0  0  0  0  0  1  0  0  0  0  0  0
  198.1850  172.5510  137.1050 C   0  0  2  0  0  3  0  0  0  0  0  0
  196.8890  173.1620  136.5570 C   0  0  0  0  0  2  0  0  0  0  0  0
  199.1550  173.6310  137.5760 C   0  0  0  0  0  2  0  0  0  0  0  0
  196.5000  174.4830  137.2380 C   0  0  1  0  0  3  0  0  0  0  0  0
  198.5530  174.4770  138.7070 C   0  0  0  0  0  2  0  0  0  0  0  0
  184.7730  174.2990  135.1210 C   0  0  0  0  0  2  0  0  0  0  0  0
  183.6510  172.4180  136.9980 C   0  0  0  0  0  1  0  0  0  0  0  0
  184.2240  170.5780  135.3000 C   0  0  0  0  0  1  0  0  0  0  0  0
  184.2250  172.0200  135.6730 C   0  0  0  0  0  0  0  0  0  0  0  0
  184.7300  172.8800  134.8560 N   0  0  0  0  0  0  0  0  0  0  0  0
  1  7  2  0  0  0  0
  1  4  1  0  0  0  0
  2 19  1  0  0  0  0
  3 13  1  0  0  0  0
  4  6  2  0  0  0  0
  4 11  1  0  0  0  0
  5  2  1  0  0  0  0
  6 10  1  0  0  0  0
  7  9  1  0  0  0  0
  9 11  2  0  0  0  0
 10  8  1  0  0  0  0
 10  2  2  0  0  0  0
 11  8  1  0  0  0  0
 12  3  2  0  0  0  0
 12  6  1  0  0  0  0
 13 31  1  0  0  0  0
 13  5  2  0  0  0  0
 14 24  1  0  0  0  0
 14 18  2  0  0  0  0
 15 22  2  0  0  0  0
 15 20  1  0  0  0  0
 16 21  2  0  0  0  0
 17 15  1  0  0  0  0
 19 23  2  0  0  0  0
 19 16  1  0  0  0  0
 20 14  1  0  0  0  0
 21 22  1  0  0  0  0
 22 25  1  0  0  0  0
 23 17  1  0  0  0  0
 24 27  1  1  0  0  0
 25 24  1  0  0  0  0
 27 28  1  0  0  0  0
 27 26  2  0  0  0  0
 28 30  1  0  0  0  0
 30 29  2  0  0  0  0
 31 32  3  0  0  0  0
 33 39  1  0  0  0  0
 35 34  1  6  0  0  0
 35 37  1  0  0  0  0
 36 35  1  0  0  0  0
 36 38  1  0  0  0  0
 37 39  1  0  0  0  0
 38 32  1  1  0  0  0
 38 33  1  0  0  0  0
 40  7  1  0  0  0  0
 42 43  1  0  0  0  0
 43 41  1  0  0  0  0
 44 40  1  0  0  0  0
 44 43  2  0  0  0  0
M  END
>  <MODEL>
4

>  <REMARK>
 VINA RESULT:      -7.5      3.839      9.990
  Name = 
  8 active torsions:
  status: ('A' for Active; 'I' for Inactive)
    1  A    between atoms: C_3  and  C_22
    2  A    between atoms: O_4  and  C_30
    3  A    between atoms: O_4  and  C_39
    4  A    between atoms: C_10  and  C_41
    5  A    between atoms: C_11  and  C_24
    6  A    between atoms: C_11  and  N_43
    7  A    between atoms: C_30  and  C_38
    8  A    between atoms: C_34  and  C_42
                            x       y       z     vdW  Elec       q    Type
                         _______ _______ _______ _____ _____    ______ ____

>  <TORSDO>
F 8

$$$$
=
 OpenBabel10222416153D

 44 49  0  0  1  0  0  0  0  0999 V2000
  191.0140  176.3000  137.1160 N   0  0  0  0  0  0  0  0  0  0  0  0
  188.1780  178.0400  140.6740 C   0  0  0  0  0  0  0  0  0  0  0  0
  186.7690  177.7360  137.8380 C   0  0  0  0  0  3  0  0  0  0  0  0
  190.3640  176.7750  138.1810 C   0  0  0  0  0  0  0  0  0  0  0  0
  186.8640  178.3040  140.2670 C   0  0  0  0  0  3  0  0  0  0  0  0
  189.1050  177.2260  138.4670 C   0  0  0  0  0  0  0  0  0  0  0  0
  192.2490  176.0550  137.6520 C   0  0  0  0  0  0  0  0  0  0  0  0
  190.4150  177.2670  140.2900 O   0  0  0  0  0  0  0  0  0  0  0  0
  192.3560  176.3570  139.0290 C   0  0  0  0  0  3  0  0  0  0  0  0
  189.1860  177.5380  139.8390 C   0  0  0  0  0  0  0  0  0  0  0  0
  191.0900  176.8150  139.2680 C   0  0  0  0  0  0  0  0  0  0  0  0
  188.0570  177.3070  137.5690 C   0  0  0  0  0  3  0  0  0  0  0  0
  186.2210  178.1780  139.0370 C   0  0  0  0  0  0  0  0  0  0  0  0
  189.7650  176.3010  146.9940 C   0  0  0  0  0  0  0  0  0  0  0  0
  188.9300  177.6400  145.0670 C   0  0  0  0  0  0  0  0  0  0  0  0
  189.7810  178.9770  142.4260 C   0  0  0  0  0  3  0  0  0  0  0  0
  187.7560  178.3490  144.4800 C   0  0  0  0  0  2  0  0  0  0  0  0
  189.5280  175.5100  147.9460 O   0  0  0  0  0  0  0  0  0  0  0  0
  188.4960  178.3130  142.0970 C   0  0  0  0  0  0  0  0  0  0  0  0
  188.6920  176.7540  146.1670 N   0  0  0  0  0  2  0  0  0  0  0  0
  190.5120  178.7960  143.5320 C   0  0  0  0  0  3  0  0  0  0  0  0
  190.1900  177.8990  144.6610 C   0  0  0  0  0  0  0  0  0  0  0  0
  187.5870  178.0180  143.0350 C   0  0  0  0  0  3  0  0  0  0  0  0
  191.1390  176.8680  146.7740 C   0  0  2  0  0  3  0  0  0  0  0  0
  191.3550  177.1820  145.2910 C   0  0  0  0  0  2  0  0  0  0  0  0
  192.5380  174.9340  146.6060 O   0  0  0  0  0  0  0  0  0  0  0  0
  192.2180  175.9570  147.2720 C   0  0  0  0  0  0  0  0  0  0  0  0
  192.8440  176.2560  148.4900 O   0  0  0  0  0  0  0  0  0  0  0  0
  193.5060  177.8790  150.0220 O   0  0  0  0  0  0  0  0  0  0  0  0
  192.6380  177.4280  149.2280 C   0  0  0  0  0  3  0  0  0  0  0  0
  184.8370  178.5600  139.0040 C   0  0  0  0  0  0  0  0  0  0  0  0
  183.6760  178.8840  138.9790 C   0  0  0  0  0  0  0  0  0  0  0  0
  181.6680  179.1930  140.3500 C   0  0  0  0  0  2  0  0  0  0  0  0
  180.4930  182.5110  137.9080 C   0  0  0  0  0  1  0  0  0  0  0  0
  180.9360  181.4770  138.9200 C   0  0  2  0  0  3  0  0  0  0  0  0
  182.1400  180.6990  138.3720 C   0  0  0  0  0  2  0  0  0  0  0  0
  179.7760  180.5430  139.2560 C   0  0  0  0  0  2  0  0  0  0  0  0
  182.2670  179.2820  138.9500 C   0  0  1  0  0  3  0  0  0  0  0  0
  180.1670  179.5200  140.3310 C   0  0  0  0  0  2  0  0  0  0  0  0
  193.3630  175.4700  136.8510 C   0  0  0  0  0  2  0  0  0  0  0  0
  194.6390  172.9030  137.1770 C   0  0  0  0  0  1  0  0  0  0  0  0
  196.3300  174.0830  138.7090 C   0  0  0  0  0  1  0  0  0  0  0  0
  195.1270  174.1580  137.8350 C   0  0  0  0  0  0  0  0  0  0  0  0
  194.5310  175.2920  137.6810 N   0  0  0  0  0  0  0  0  0  0  0  0
  1  7  2  0  0  0  0
  1  4  1  0  0  0  0
  2 19  1  0  0  0  0
  3 13  1  0  0  0  0
  4  6  2  0  0  0  0
  4 11  1  0  0  0  0
  5  2  1  0  0  0  0
  6 10  1  0  0  0  0
  7  9  1  0  0  0  0
  9 11  2  0  0  0  0
 10  8  1  0  0  0  0
 10  2  2  0  0  0  0
 11  8  1  0  0  0  0
 12  3  2  0  0  0  0
 12  6  1  0  0  0  0
 13  5  2  0  0  0  0
 14 18  2  0  0  0  0
 15 20  1  0  0  0  0
 16 21  2  0  0  0  0
 17 15  1  0  0  0  0
 19 16  1  0  0  0  0
 19 23  2  0  0  0  0
 20 14  1  0  0  0  0
 21 22  1  0  0  0  0
 22 15  2  0  0  0  0
 22 25  1  0  0  0  0
 23 17  1  0  0  0  0
 24 14  1  0  0  0  0
 24 27  1  6  0  0  0
 25 24  1  0  0  0  0
 26 27  2  0  0  0  0
 27 28  1  0  0  0  0
 28 30  1  0  0  0  0
 30 29  2  0  0  0  0
 31 13  1  0  0  0  0
 32 31  3  0  0  0  0
 35 34  1  6  0  0  0
 35 37  1  0  0  0  0
 36 35  1  0  0  0  0
 36 38  1  0  0  0  0
 37 39  1  0  0  0  0
 38 32  1  1  0  0  0
 38 33  1  0  0  0  0
 39 33  1  0  0  0  0
 40  7  1  0  0  0  0
 40 44  1  0  0  0  0
 41 43  1  0  0  0  0
 43 42  1  0  0  0  0
 44 43  2  0  0  0  0
M  END
>  <MODEL>
5

>  <REMARK>
 VINA RESULT:      -7.5      4.451      8.582
  Name = 
  8 active torsions:
  status: ('A' for Active; 'I' for Inactive)
    1  A    between atoms: C_3  and  C_22
    2  A    between atoms: O_4  and  C_30
    3  A    between atoms: O_4  and  C_39
    4  A    between atoms: C_10  and  C_41
    5  A    between atoms: C_11  and  C_24
    6  A    between atoms: C_11  and  N_43
    7  A    between atoms: C_30  and  C_38
    8  A    between atoms: C_34  and  C_42
                            x       y       z     vdW  Elec       q    Type
                         _______ _______ _______ _____ _____    ______ ____

>  <TORSDO>
F 8

$$$$
=
 OpenBabel10222416153D

 44 49  0  0  1  0  0  0  0  0999 V2000
  192.4650  174.0820  135.7360 N   0  0  0  0  0  0  0  0  0  0  0  0
  189.5090  176.5740  138.7000 C   0  0  0  0  0  0  0  0  0  0  0  0
  188.1240  175.3590  136.1060 C   0  0  0  0  0  3  0  0  0  0  0  0
  191.7820  174.7990  136.6320 C   0  0  0  0  0  0  0  0  0  0  0  0
  188.1800  176.6140  138.2640 C   0  0  0  0  0  3  0  0  0  0  0  0
  190.4930  175.2220  136.8030 C   0  0  0  0  0  0  0  0  0  0  0  0
  193.7150  174.0930  136.2920 C   0  0  0  0  0  0  0  0  0  0  0  0
  191.7980  175.8850  138.5060 O   0  0  0  0  0  0  0  0  0  0  0  0
  193.8000  174.7890  137.5190 C   0  0  0  0  0  3  0  0  0  0  0  0
  190.5510  175.9240  138.0240 C   0  0  0  0  0  0  0  0  0  0  0  0
  192.5040  175.2050  137.6440 C   0  0  0  0  0  0  0  0  0  0  0  0
  189.4410  174.9640  135.9450 C   0  0  0  0  0  3  0  0  0  0  0  0
  187.5460  176.0900  137.1380 C   0  0  0  0  0  0  0  0  0  0  0  0
  189.7400  177.1330  145.4170 C   0  0  0  0  0  0  0  0  0  0  0  0
  189.6950  177.7670  143.0090 C   0  0  0  0  0  0  0  0  0  0  0  0
  191.2240  177.5010  140.3480 C   0  0  0  0  0  3  0  0  0  0  0  0
  188.9780  178.5430  141.9550 C   0  0  0  0  0  2  0  0  0  0  0  0
  189.1220  176.9450  146.4980 O   0  0  0  0  0  0  0  0  0  0  0  0
  189.8080  177.2720  139.9750 C   0  0  0  0  0  0  0  0  0  0  0  0
  189.0250  177.5600  144.2580 N   0  0  0  0  0  2  0  0  0  0  0  0
  191.7260  177.5390  141.5880 C   0  0  0  0  0  3  0  0  0  0  0  0
  190.9730  177.3650  142.8470 C   0  0  0  0  0  0  0  0  0  0  0  0
  188.7930  177.7350  140.7150 C   0  0  0  0  0  3  0  0  0  0  0  0
  191.2370  177.0250  145.3450 C   0  0  2  0  0  3  0  0  0  0  0  0
  191.6750  176.6030  143.9400 C   0  0  0  0  0  2  0  0  0  0  0  0
  192.0690  174.8900  146.0380 O   0  0  0  0  0  0  0  0  0  0  0  0
  191.7900  176.0770  146.3650 C   0  0  0  0  0  0  0  0  0  0  0  0
  191.9720  176.5300  147.6780 O   0  0  0  0  0  0  0  0  0  0  0  0
  193.5720  176.7490  149.3560 O   0  0  0  0  0  0  0  0  0  0  0  0
  192.9080  176.0100  148.5800 C   0  0  0  0  0  3  0  0  0  0  0  0
  186.1380  176.3460  137.0270 C   0  0  0  0  0  0  0  0  0  0  0  0
  184.9550  176.5630  136.9370 C   0  0  0  0  0  0  0  0  0  0  0  0
  182.7270  175.7320  137.5320 C   0  0  0  0  0  2  0  0  0  0  0  0
  181.3240  179.7570  137.9640 C   0  0  0  0  0  1  0  0  0  0  0  0
  181.7940  178.3190  138.0150 C   0  0  2  0  0  3  0  0  0  0  0  0
  183.2040  178.2150  137.4200 C   0  0  0  0  0  2  0  0  0  0  0  0
  180.8080  177.4200  137.2730 C   0  0  0  0  0  2  0  0  0  0  0  0
  183.5190  176.8310  136.8320 C   0  0  1  0  0  3  0  0  0  0  0  0
  181.2160  175.9430  137.3600 C   0  0  0  0  0  2  0  0  0  0  0  0
  194.8700  173.3810  135.6700 C   0  0  0  0  0  2  0  0  0  0  0  0
  197.0500  175.0640  134.8120 C   0  0  0  0  0  1  0  0  0  0  0  0
  198.2190  174.4520  137.0160 C   0  0  0  0  0  1  0  0  0  0  0  0
  197.0410  174.3230  136.1140 C   0  0  0  0  0  0  0  0  0  0  0  0
  196.0570  173.5680  136.4690 N   0  0  0  0  0  0  0  0  0  0  0  0
  1  7  2  0  0  0  0
  1  4  1  0  0  0  0
  2 19  1  0  0  0  0
  3 13  1  0  0  0  0
  4  6  2  0  0  0  0
  4 11  1  0  0  0  0
  5  2  1  0  0  0  0
  6 10  1  0  0  0  0
  7  9  1  0  0  0  0
  9 11  2  0  0  0  0
 10  8  1  0  0  0  0
 10  2  2  0  0  0  0
 11  8  1  0  0  0  0
 12  3  2  0  0  0  0
 12  6  1  0  0  0  0
 13  5  2  0  0  0  0
 14 18  2  0  0  0  0
 15 20  1  0  0  0  0
 16 21  2  0  0  0  0
 17 15  1  0  0  0  0
 19 16  1  0  0  0  0
 19 23  2  0  0  0  0
 20 14  1  0  0  0  0
 21 22  1  0  0  0  0
 22 15  2  0  0  0  0
 22 25  1  0  0  0  0
 23 17  1  0  0  0  0
 24 14  1  0  0  0  0
 24 27  1  1  0  0  0
 25 24  1  0  0  0  0
 26 27  2  0  0  0  0
 27 28  1  0  0  0  0
 28 30  1  0  0  0  0
 30 29  2  0  0  0  0
 31 13  1  0  0  0  0
 32 31  3  0  0  0  0
 35 34  1  6  0  0  0
 36 35  1  0  0  0  0
 37 39  1  0  0  0  0
 37 35  1  0  0  0  0
 38 32  1  1  0  0  0
 38 36  1  0  0  0  0
 38 33  1  0  0  0  0
 39 33  1  0  0  0  0
 40  7  1  0  0  0  0
 40 44  1  0  0  0  0
 41 43  1  0  0  0  0
 43 44  2  0  0  0  0
 43 42  1  0  0  0  0
M  END
>  <MODEL>
6

>  <REMARK>
 VINA RESULT:      -7.5      3.891      8.178
  Name = 
  8 active torsions:
  status: ('A' for Active; 'I' for Inactive)
    1  A    between atoms: C_3  and  C_22
    2  A    between atoms: O_4  and  C_30
    3  A    between atoms: O_4  and  C_39
    4  A    between atoms: C_10  and  C_41
    5  A    between atoms: C_11  and  C_24
    6  A    between atoms: C_11  and  N_43
    7  A    between atoms: C_30  and  C_38
    8  A    between atoms: C_34  and  C_42
                            x       y       z     vdW  Elec       q    Type
                         _______ _______ _______ _____ _____    ______ ____

>  <TORSDO>
F 8

$$$$
=
 OpenBabel10222416153D

 44 49  0  0  1  0  0  0  0  0999 V2000
  181.0830  179.6650  139.8530 N   0  0  0  0  0  0  0  0  0  0  0  0
  185.7790  178.3700  139.8260 C   0  0  0  0  0  0  0  0  0  0  0  0
  184.4260  178.5130  142.7010 C   0  0  0  0  0  3  0  0  0  0  0  0
  182.3680  179.3360  139.6920 C   0  0  0  0  0  0  0  0  0  0  0  0
  186.2970  178.1050  141.1000 C   0  0  0  0  0  3  0  0  0  0  0  0
  183.4200  178.9870  140.4930 C   0  0  0  0  0  0  0  0  0  0  0  0
  180.7000  179.8590  138.5550 C   0  0  0  0  0  0  0  0  0  0  0  0
  184.0070  178.9650  138.3250 O   0  0  0  0  0  0  0  0  0  0  0  0
  181.7230  179.6370  137.6060 C   0  0  0  0  0  3  0  0  0  0  0  0
  184.4590  178.7620  139.5670 C   0  0  0  0  0  0  0  0  0  0  0  0
  182.7530  179.3090  138.4430 C   0  0  0  0  0  0  0  0  0  0  0  0
  183.3830  178.8870  141.8710 C   0  0  0  0  0  3  0  0  0  0  0  0
  185.7290  178.1570  142.3720 C   0  0  0  0  0  0  0  0  0  0  0  0
  191.0380  175.6250  136.6160 C   0  0  0  0  0  0  0  0  0  0  0  0
  189.2560  177.2490  137.2410 C   0  0  0  0  0  0  0  0  0  0  0  0
  186.2050  177.6320  137.4200 C   0  0  0  0  0  3  0  0  0  0  0  0
  188.9660  178.6400  137.6970 C   0  0  0  0  0  2  0  0  0  0  0  0
  192.2310  175.2360  136.7190 O   0  0  0  0  0  0  0  0  0  0  0  0
  186.7160  178.2090  138.6860 C   0  0  0  0  0  0  0  0  0  0  0  0
  190.6100  176.7890  137.3230 N   0  0  0  0  0  2  0  0  0  0  0  0
  186.8930  176.8850  136.5490 C   0  0  0  0  0  3  0  0  0  0  0  0
  188.3090  176.4800  136.6640 C   0  0  0  0  0  0  0  0  0  0  0  0
  187.9730  178.6520  138.8110 C   0  0  0  0  0  3  0  0  0  0  0  0
  190.0760  174.9540  135.6750 C   0  0  2  0  0  3  0  0  0  0  0  0
  188.6420  175.0890  136.1940 C   0  0  0  0  0  2  0  0  0  0  0  0
  189.7400  172.6110  136.0230 O   0  0  0  0  0  0  0  0  0  0  0  0
  190.4110  173.5130  135.4490 C   0  0  0  0  0  0  0  0  0  0  0  0
  191.4860  173.1930  134.6090 O   0  0  0  0  0  0  0  0  0  0  0  0
  192.3550  171.1090  135.1740 O   0  0  0  0  0  0  0  0  0  0  0  0
  192.5390  172.3350  134.9490 C   0  0  0  0  0  3  0  0  0  0  0  0
  186.5920  177.8130  143.4660 C   0  0  0  0  0  0  0  0  0  0  0  0
  187.3200  177.5210  144.3820 C   0  0  0  0  0  0  0  0  0  0  0  0
  189.6300  177.6290  145.1930 C   0  0  0  0  0  2  0  0  0  0  0  0
  188.2160  178.0660  149.2130 C   0  0  0  0  0  1  0  0  0  0  0  0
  188.7830  178.1050  147.8110 C   0  0  2  0  0  3  0  0  0  0  0  0
  187.6780  177.7790  146.7970 C   0  0  0  0  0  2  0  0  0  0  0  0
  189.9520  177.1310  147.6930 C   0  0  0  0  0  2  0  0  0  0  0  0
  188.2080  177.1660  145.4910 C   0  0  1  0  0  3  0  0  0  0  0  0
  190.5990  177.1900  146.3020 C   0  0  0  0  0  2  0  0  0  0  0  0
  179.3010  180.2240  138.1840 C   0  0  0  0  0  2  0  0  0  0  0  0
  178.9340  183.0510  138.6250 C   0  0  0  0  0  1  0  0  0  0  0  0
  179.1850  183.3490  136.0860 C   0  0  0  0  0  1  0  0  0  0  0  0
  179.1560  182.4480  137.2720 C   0  0  0  0  0  0  0  0  0  0  0  0
  179.3070  181.1780  137.1000 N   0  0  0  0  0  0  0  0  0  0  0  0
  2  5  1  0  0  0  0
  4  1  1  0  0  0  0
  4  6  2  0  0  0  0
  5 13  2  0  0  0  0
  6 12  1  0  0  0  0
  7  1  2  0  0  0  0
  8 11  1  0  0  0  0
  8 10  1  0  0  0  0
  9 11  2  0  0  0  0
  9  7  1  0  0  0  0
 10  2  2  0  0  0  0
 10  6  1  0  0  0  0
 11  4  1  0  0  0  0
 12  3  2  0  0  0  0
 13  3  1  0  0  0  0
 13 31  1  0  0  0  0
 14 18  2  0  0  0  0
 14 20  1  0  0  0  0
 15 20  1  0  0  0  0
 15 17  1  0  0  0  0
 16 19  1  0  0  0  0
 17 23  1  0  0  0  0
 19 23  2  0  0  0  0
 19  2  1  0  0  0  0
 21 22  1  0  0  0  0
 21 16  2  0  0  0  0
 22 15  2  0  0  0  0
 24 27  1  1  0  0  0
 24 25  1  0  0  0  0
 24 14  1  0  0  0  0
 25 22  1  0  0  0  0
 27 26  2  0  0  0  0
 28 30  1  0  0  0  0
 28 27  1  0  0  0  0
 30 29  2  0  0  0  0
 31 32  3  0  0  0  0
 33 38  1  0  0  0  0
 33 39  1  0  0  0  0
 35 34  1  1  0  0  0
 36 35  1  0  0  0  0
 37 35  1  0  0  0  0
 38 32  1  6  0  0  0
 38 36  1  0  0  0  0
 39 37  1  0  0  0  0
 40  7  1  0  0  0  0
 42 43  1  0  0  0  0
 43 41  1  0  0  0  0
 44 43  2  0  0  0  0
 44 40  1  0  0  0  0
M  END
>  <MODEL>
7

>  <REMARK>
 VINA RESULT:      -7.4      3.387      9.677
  Name = 
  8 active torsions:
  status: ('A' for Active; 'I' for Inactive)
    1  A    between atoms: C_3  and  C_22
    2  A    between atoms: O_4  and  C_30
    3  A    between atoms: O_4  and  C_39
    4  A    between atoms: C_10  and  C_41
    5  A    between atoms: C_11  and  C_24
    6  A    between atoms: C_11  and  N_43
    7  A    between atoms: C_30  and  C_38
    8  A    between atoms: C_34  and  C_42
                            x       y       z     vdW  Elec       q    Type
                         _______ _______ _______ _____ _____    ______ ____

>  <TORSDO>
F 8

$$$$
=
 OpenBabel10222416153D

 44 49  0  0  1  0  0  0  0  0999 V2000
  190.2380  177.6370  143.6000 N   0  0  0  0  0  0  0  0  0  0  0  0
  189.9350  176.9130  138.7920 C   0  0  0  0  0  0  0  0  0  0  0  0
  192.8640  176.7070  140.0150 C   0  0  0  0  0  3  0  0  0  0  0  0
  190.0040  177.4740  142.2950 C   0  0  0  0  0  0  0  0  0  0  0  0
  191.1660  176.6290  138.1870 C   0  0  0  0  0  3  0  0  0  0  0  0
  190.7360  177.2010  141.1730 C   0  0  0  0  0  0  0  0  0  0  0  0
  188.9730  177.8680  144.0650 C   0  0  0  0  0  0  0  0  0  0  0  0
  188.5510  177.3910  140.6900 O   0  0  0  0  0  0  0  0  0  0  0  0
  187.9710  177.8320  143.0690 C   0  0  0  0  0  3  0  0  0  0  0  0
  189.7570  177.1620  140.1600 C   0  0  0  0  0  0  0  0  0  0  0  0
  188.7420  177.5740  141.9690 C   0  0  0  0  0  0  0  0  0  0  0  0
  192.1040  177.0070  141.1320 C   0  0  0  0  0  3  0  0  0  0  0  0
  192.4590  176.5300  138.6970 C   0  0  0  0  0  0  0  0  0  0  0  0
  183.5020  175.6830  137.1820 C   0  0  0  0  0  0  0  0  0  0  0  0
  185.9300  176.1770  136.9340 C   0  0  0  0  0  0  0  0  0  0  0  0
  188.1170  178.2450  137.5920 C   0  0  0  0  0  3  0  0  0  0  0  0
  187.2240  175.7230  136.3440 C   0  0  0  0  0  2  0  0  0  0  0  0
  182.5670  174.8390  137.2070 O   0  0  0  0  0  0  0  0  0  0  0  0
  188.7510  176.9400  137.8980 C   0  0  0  0  0  0  0  0  0  0  0  0
  184.8420  175.2460  136.9530 N   0  0  0  0  0  0  0  0  0  0  0  0
  186.8200  178.4650  137.3520 C   0  0  0  0  0  3  0  0  0  0  0  0
  185.7440  177.4510  137.3370 C   0  0  2  0  0  3  0  0  0  0  0  0
  188.3320  175.7970  137.3390 C   0  0  0  0  0  3  0  0  0  0  0  0
  183.2270  177.1570  137.2770 C   0  0  2  0  0  3  0  0  0  0  0  0
  184.4190  177.8830  137.9070 C   0  0  0  0  0  2  0  0  0  0  0  0
  181.0250  178.0700  137.4880 O   0  0  0  0  0  0  0  0  0  0  0  0
  181.9760  177.4550  138.0450 C   0  0  0  0  0  0  0  0  0  0  0  0
  181.8950  177.0530  139.3850 O   0  0  0  0  0  0  0  0  0  0  0  0
  182.4450  178.8040  140.8170 O   0  0  0  0  0  0  0  0  0  0  0  0
  181.6320  177.9090  140.4610 C   0  0  0  0  0  3  0  0  0  0  0  0
  193.4920  176.2200  137.7480 C   0  0  0  0  0  0  0  0  0  0  0  0
  194.3620  175.9600  136.9550 C   0  0  0  0  0  0  0  0  0  0  0  0
  196.2380  176.8900  135.6820 C   0  0  0  0  0  2  0  0  0  0  0  0
  198.3620  173.1910  136.0790 C   0  0  0  0  0  1  0  0  0  0  0  0
  197.7560  174.5780  136.0600 C   0  0  2  0  0  3  0  0  0  0  0  0
  196.3050  174.5150  136.5520 C   0  0  0  0  0  2  0  0  0  0  0  0
  197.8440  175.1680  134.6550 C   0  0  0  0  0  2  0  0  0  0  0  0
  195.4210  175.6410  135.9950 C   0  0  1  0  0  3  0  0  0  0  0  0
  197.3000  176.6030  134.6100 C   0  0  0  0  0  2  0  0  0  0  0  0
  188.6840  178.0870  145.5120 C   0  0  0  0  0  2  0  0  0  0  0  0
  187.5190  178.1730  148.1500 C   0  0  0  0  0  1  0  0  0  0  0  0
  185.2370  178.4100  146.9940 C   0  0  0  0  0  1  0  0  0  0  0  0
  186.7170  178.2690  146.8890 C   0  0  0  0  0  0  0  0  0  0  0  0
  187.2610  178.2170  145.7210 N   0  0  0  0  0  0  0  0  0  0  0  0
  1  7  2  0  0  0  0
  2 10  2  0  0  0  0
  3 12  2  0  0  0  0
  4  1  1  0  0  0  0
  5 13  2  0  0  0  0
  5  2  1  0  0  0  0
  6  4  2  0  0  0  0
  7 40  1  0  0  0  0
  8 11  1  0  0  0  0
  9  7  1  0  0  0  0
 10  8  1  0  0  0  0
 10  6  1  0  0  0  0
 11  4  1  0  0  0  0
 11  9  2  0  0  0  0
 12  6  1  0  0  0  0
 13  3  1  0  0  0  0
 14 18  2  0  0  0  0
 14 24  1  0  0  0  0
 15 20  2  0  0  0  0
 15 22  1  0  0  0  0
 16 19  1  0  0  0  0
 17 15  1  0  0  0  0
 17 23  1  0  0  0  0
 19  2  1  0  0  0  0
 20 14  1  0  0  0  0
 21 16  2  0  0  0  0
 22 21  1  1  0  0  0
 22 25  1  0  0  0  0
 23 19  2  0  0  0  0
 24 25  1  0  0  0  0
 24 27  1  1  0  0  0
 26 27  2  0  0  0  0
 27 28  1  0  0  0  0
 28 30  1  0  0  0  0
 30 29  2  0  0  0  0
 31 13  1  0  0  0  0
 32 31  3  0  0  0  0
 33 38  1  0  0  0  0
 35 34  1  6  0  0  0
 35 36  1  0  0  0  0
 37 35  1  0  0  0  0
 38 36  1  0  0  0  0
 38 32  1  1  0  0  0
 39 37  1  0  0  0  0
 39 33  1  0  0  0  0
 40 44  1  0  0  0  0
 43 42  1  0  0  0  0
 43 41  1  0  0  0  0
 44 43  2  0  0  0  0
M  END
>  <MODEL>
8

>  <REMARK>
 VINA RESULT:      -7.3      2.215      8.314
  Name = 
  8 active torsions:
  status: ('A' for Active; 'I' for Inactive)
    1  A    between atoms: C_3  and  C_22
    2  A    between atoms: O_4  and  C_30
    3  A    between atoms: O_4  and  C_39
    4  A    between atoms: C_10  and  C_41
    5  A    between atoms: C_11  and  C_24
    6  A    between atoms: C_11  and  N_43
    7  A    between atoms: C_30  and  C_38
    8  A    between atoms: C_34  and  C_42
                            x       y       z     vdW  Elec       q    Type
                         _______ _______ _______ _____ _____    ______ ____

>  <TORSDO>
F 8

$$$$
=
 OpenBabel10222416153D

 44 49  0  0  1  0  0  0  0  0999 V2000
  194.2950  173.7470  135.3010 N   0  0  0  0  0  0  0  0  0  0  0  0
  190.1270  175.3150  137.2750 C   0  0  0  0  0  0  0  0  0  0  0  0
  189.8400  172.8760  135.2540 C   0  0  0  0  0  3  0  0  0  0  0  0
  193.2370  174.2900  135.9080 C   0  0  0  0  0  0  0  0  0  0  0  0
  189.0020  174.5910  136.8610 C   0  0  0  0  0  3  0  0  0  0  0  0
  191.8850  174.0860  135.9370 C   0  0  0  0  0  0  0  0  0  0  0  0
  195.3090  174.5120  135.8110 C   0  0  0  0  0  0  0  0  0  0  0  0
  192.4820  175.7630  137.3070 O   0  0  0  0  0  0  0  0  0  0  0  0
  194.8870  175.4980  136.7310 C   0  0  0  0  0  3  0  0  0  0  0  0
  191.4380  175.0630  136.8490 C   0  0  0  0  0  0  0  0  0  0  0  0
  193.5390  175.2710  136.7190 C   0  0  0  0  0  0  0  0  0  0  0  0
  191.2030  173.1190  135.2240 C   0  0  0  0  0  3  0  0  0  0  0  0
  188.8470  173.5210  135.9830 C   0  0  0  0  0  0  0  0  0  0  0  0
  186.6010  178.6150  141.9840 C   0  0  0  0  0  0  0  0  0  0  0  0
  188.2460  178.1640  140.1690 C   0  0  0  0  0  0  0  0  0  0  0  0
  190.7440  176.5130  139.4430 C   0  0  0  0  0  3  0  0  0  0  0  0
  188.6970  178.5400  138.7970 C   0  0  0  0  0  2  0  0  0  0  0  0
  185.4620  179.0230  142.3340 O   0  0  0  0  0  0  0  0  0  0  0  0
  189.8850  176.4180  138.2380 C   0  0  0  0  0  0  0  0  0  0  0  0
  186.9660  178.6360  140.6030 N   0  0  0  0  0  0  0  0  0  0  0  0
  190.3830  176.9790  140.6440 C   0  0  0  0  0  3  0  0  0  0  0  0
  189.0530  177.5000  141.0220 C   0  0  2  0  0  3  0  0  0  0  0  0
  188.9490  177.3330  137.9570 C   0  0  0  0  0  3  0  0  0  0  0  0
  187.6320  178.2080  142.9990 C   0  0  2  0  0  3  0  0  0  0  0  0
  188.5750  177.1570  142.4090 C   0  0  0  0  0  2  0  0  0  0  0  0
  186.8000  176.4610  144.4070 O   0  0  0  0  0  0  0  0  0  0  0  0
  187.0140  177.6970  144.2640 C   0  0  0  0  0  0  0  0  0  0  0  0
  186.6700  178.6140  145.2650 O   0  0  0  0  0  0  0  0  0  0  0  0
  184.4420  178.9990  145.8190 O   0  0  0  0  0  0  0  0  0  0  0  0
  185.5600  178.4960  146.1100 C   0  0  0  0  0  3  0  0  0  0  0  0
  187.5080  173.0370  135.8030 C   0  0  0  0  0  0  0  0  0  0  0  0
  186.3830  172.6280  135.6560 C   0  0  0  0  0  0  0  0  0  0  0  0
  184.9710  170.6250  135.7200 C   0  0  0  0  0  2  0  0  0  0  0  0
  181.7040  172.9560  137.2180 C   0  0  0  0  0  1  0  0  0  0  0  0
  182.8600  172.0420  136.8730 C   0  0  2  0  0  3  0  0  0  0  0  0
  184.0670  172.8790  136.4320 C   0  0  0  0  0  2  0  0  0  0  0  0
  182.4390  171.0540  135.7880 C   0  0  0  0  0  2  0  0  0  0  0  0
  185.0160  172.1310  135.4830 C   0  0  1  0  0  3  0  0  0  0  0  0
  183.5660  170.0650  135.4580 C   0  0  0  0  0  2  0  0  0  0  0  0
  196.7390  174.2770  135.4560 C   0  0  0  0  0  2  0  0  0  0  0  0
  198.1160  172.4360  137.1980 C   0  0  0  0  0  1  0  0  0  0  0  0
  199.0980  174.4920  138.3840 C   0  0  0  0  0  1  0  0  0  0  0  0
  198.2320  173.9250  137.3120 C   0  0  0  0  0  0  0  0  0  0  0  0
  197.5960  174.7270  136.5270 N   0  0  0  0  0  0  0  0  0  0  0  0
  1  7  2  0  0  0  0
  1  4  1  0  0  0  0
  2 19  1  0  0  0  0
  3 13  1  0  0  0  0
  4  6  2  0  0  0  0
  4 11  1  0  0  0  0
  5  2  1  0  0  0  0
  6 10  1  0  0  0  0
  7  9  1  0  0  0  0
 10  2  2  0  0  0  0
 10  8  1  0  0  0  0
 11  9  2  0  0  0  0
 11  8  1  0  0  0  0
 12  3  2  0  0  0  0
 12  6  1  0  0  0  0
 13  5  2  0  0  0  0
 14 18  2  0  0  0  0
 14 24  1  0  0  0  0
 15 20  2  0  0  0  0
 15 22  1  0  0  0  0
 16 21  2  0  0  0  0
 17 15  1  0  0  0  0
 19 16  1  0  0  0  0
 20 14  1  0  0  0  0
 22 21  1  6  0  0  0
 22 25  1  0  0  0  0
 23 19  2  0  0  0  0
 23 17  1  0  0  0  0
 24 27  1  1  0  0  0
 25 24  1  0  0  0  0
 27 26  2  0  0  0  0
 27 28  1  0  0  0  0
 28 30  1  0  0  0  0
 29 30  2  0  0  0  0
 31 13  1  0  0  0  0
 32 31  3  0  0  0  0
 35 34  1  6  0  0  0
 36 35  1  0  0  0  0
 37 35  1  0  0  0  0
 38 32  1  1  0  0  0
 38 33  1  0  0  0  0
 38 36  1  0  0  0  0
 39 33  1  0  0  0  0
 39 37  1  0  0  0  0
 40  7  1  0  0  0  0
 40 44  1  0  0  0  0
 41 43  1  0  0  0  0
 43 42  1  0  0  0  0
 44 43  2  0  0  0  0
M  END
>  <MODEL>
9

>  <REMARK>
 VINA RESULT:      -7.1      3.092      7.164
  Name = 
  8 active torsions:
  status: ('A' for Active; 'I' for Inactive)
    1  A    between atoms: C_3  and  C_22
    2  A    between atoms: O_4  and  C_30
    3  A    between atoms: O_4  and  C_39
    4  A    between atoms: C_10  and  C_41
    5  A    between atoms: C_11  and  C_24
    6  A    between atoms: C_11  and  N_43
    7  A    between atoms: C_30  and  C_38
    8  A    between atoms: C_34  and  C_42
                            x       y       z     vdW  Elec       q    Type
                         _______ _______ _______ _____ _____    ______ ____

>  <TORSDO>
F 8

$$$$
