=
 OpenBabel10222420363D

 41 46  0  0  1  0  0  0  0  0999 V2000
  183.5110  178.6730  141.4450 C   0  0  0  0  0  0  0  0  0  0  0  0
  185.2530  179.2120  139.9380 C   0  0  0  0  0  3  0  0  0  0  0  0
  186.2050  178.7300  140.8420 C   0  0  0  0  0  0  0  0  0  0  0  0
  184.4220  178.1970  142.3370 N   0  0  0  0  0  0  0  0  0  0  0  0
  186.6810  177.7200  143.0200 N   0  0  0  0  0  0  0  0  0  0  0  0
  183.9330  179.1740  140.2520 N   0  0  0  0  0  0  0  0  0  0  0  0
  185.7520  178.2150  142.0590 C   0  0  0  0  0  0  0  0  0  0  0  0
  188.0680  177.4290  143.4830 C   0  0  2  0  0  3  0  0  0  0  0  0
  187.0340  177.1450  144.3510 C   0  0  0  0  0  2  0  0  0  0  0  0
  181.0050  177.1100  140.2150 C   0  0  0  0  0  2  0  0  0  0  0  0
  179.0360  177.0440  141.4080 N   0  0  0  0  0  0  0  0  0  0  0  0
  182.0750  178.6390  141.7710 C   0  0  0  0  0  0  0  0  0  0  0  0
  181.5880  178.7440  143.0140 C   0  0  0  0  0  3  0  0  0  0  0  0
  179.0510  179.2980  142.2050 N   0  0  0  0  0  2  0  0  0  0  0  0
  180.9720  178.3090  140.7920 C   0  0  2  0  0  3  0  0  0  0  0  0
  179.7980  176.3600  140.6130 C   0  0  0  0  0  3  0  0  0  0  0  0
  180.2220  178.6280  142.7520 N   0  0  0  0  0  0  0  0  0  0  0  0
  179.6410  178.3510  141.4640 C   0  0  2  0  0  0  0  0  0  0  0  0
  187.5760  178.7600  140.5590 O   0  0  0  0  0  0  0  0  0  0  0  0
  189.2940  177.2770  137.5810 C   0  0  0  0  0  2  0  0  0  0  0  0
  190.3070  176.3980  139.5460 C   0  0  0  0  0  2  0  0  0  0  0  0
  189.5600  177.3770  140.4470 C   0  0  0  0  0  2  0  0  0  0  0  0
  188.4890  178.2990  138.3810 C   0  0  0  0  0  2  0  0  0  0  0  0
  188.2370  177.7650  139.7880 C   0  0  0  0  0  3  0  0  0  0  0  0
  190.5710  177.0160  138.2460 N   0  0  0  0  0  0  0  0  0  0  0  0
  193.1640  176.3220  137.1540 C   0  0  0  0  0  1  0  0  0  0  0  0
  191.3400  174.5040  137.9050 O   0  0  0  0  0  0  0  0  0  0  0  0
  190.8490  175.8190  135.9010 O   0  0  0  0  0  0  0  0  0  0  0  0
  191.4450  175.8680  137.2800 S   0  0  0  0  0  0  0  0  0  0  0  0
  188.7330  178.7400  143.8550 C   0  0  0  0  0  2  0  0  0  0  0  0
  190.1060  178.4900  144.4560 C   0  0  0  0  0  2  0  0  0  0  0  0
  190.0060  178.3200  145.8480 O   0  0  0  0  0  0  0  0  0  0  0  0
  190.2590  176.9680  146.1770 C   0  0  1  0  0  3  0  0  0  0  0  0
  192.3750  176.2830  147.1650 O   0  0  0  0  0  1  0  0  0  0  0  0
  191.7230  176.5530  145.9580 C   0  0  1  0  0  3  0  0  0  0  0  0
  191.8560  175.3850  144.9810 C   0  0  0  0  0  2  0  0  0  0  0  0
  191.6550  175.7880  143.5260 C   0  0  0  0  0  2  0  0  0  0  0  0
  190.5100  175.1790  143.0140 O   0  0  0  0  0  1  0  0  0  0  0  0
  189.7640  176.6150  147.5060 N   0  0  0  0  0  2  0  0  0  0  0  0
  187.8110  177.7910  148.3250 C   0  0  0  0  0  1  0  0  0  0  0  0
  189.3120  177.8420  148.1350 C   0  0  0  0  0  2  0  0  0  0  0  0
  1 12  1  0  0  0  0
  1  4  2  0  0  0  0
  2  6  2  0  0  0  0
  2  3  1  0  0  0  0
  3  7  2  0  0  0  0
  5  8  1  0  0  0  0
  5  9  1  0  0  0  0
  6  1  1  0  0  0  0
  7  4  1  0  0  0  0
  7  5  1  0  0  0  0
  8 30  1  1  0  0  0
  8  9  1  0  0  0  0
 10 16  1  0  0  0  0
 12 13  2  0  0  0  0
 14 17  1  0  0  0  0
 15 10  1  1  0  0  0
 15 18  1  0  0  0  0
 15 12  1  0  0  0  0
 16 11  2  0  0  0  0
 17 13  1  0  0  0  0
 18 11  1  6  0  0  0
 18 14  1  0  0  0  0
 18 17  1  0  0  0  0
 19  3  1  0  0  0  0
 20 25  1  0  0  0  0
 20 23  1  0  0  0  0
 21 22  1  0  0  0  0
 23 24  1  0  0  0  0
 24 22  1  0  0  0  0
 24 19  1  0  0  0  0
 25 21  1  0  0  0  0
 26 29  1  0  0  0  0
 28 29  2  0  0  0  0
 29 27  2  0  0  0  0
 29 25  1  0  0  0  0
 30 31  1  0  0  0  0
 31 32  1  0  0  0  0
 33 32  1  1  0  0  0
 33 39  1  0  0  0  0
 35 33  1  0  0  0  0
 35 34  1  1  0  0  0
 36 35  1  0  0  0  0
 37 36  1  0  0  0  0
 38 37  1  0  0  0  0
 39 41  1  0  0  0  0
 41 40  1  0  0  0  0
M  END
>  <MODEL>
1

>  <REMARK>
 VINA RESULT:      -7.5      0.000      0.000
  Name = 
  13 active torsions:
  status: ('A' for Active; 'I' for Inactive)
    1  A    between atoms: O_2  and  C_11
    2  A    between atoms: O_2  and  C_35
    3  A    between atoms: C_3  and  N_21
    4  A    between atoms: C_3  and  O_23
    5  A    between atoms: C_3  and  C_27
    6  A    between atoms: C_5  and  C_6
    7  A    between atoms: C_14  and  C_19
    8  A    between atoms: C_15  and  O_23
    9  A    between atoms: C_15  and  C_37
   10  A    between atoms: C_19  and  C_27
   11  A    between atoms: N_21  and  C_30
   12  A    between atoms: S_34  and  N_40
   13  A    between atoms: C_37  and  C_38
                            x       y       z     vdW  Elec       q    Type
                         _______ _______ _______ _____ _____    ______ ____

>  <TORSDO>
F 13

$$$$
=
 OpenBabel10222420363D

 41 46  0  0  1  0  0  0  0  0999 V2000
  191.4270  176.4650  138.0810 C   0  0  0  0  0  0  0  0  0  0  0  0
  189.5150  177.8470  137.9010 C   0  0  0  0  0  3  0  0  0  0  0  0
  189.3750  177.8600  139.2930 C   0  0  0  0  0  0  0  0  0  0  0  0
  191.3080  176.4670  139.4360 N   0  0  0  0  0  0  0  0  0  0  0  0
  190.2030  177.1190  141.4740 N   0  0  0  0  0  0  0  0  0  0  0  0
  190.5320  177.1570  137.3250 N   0  0  0  0  0  0  0  0  0  0  0  0
  190.3070  177.1480  140.0530 C   0  0  0  0  0  0  0  0  0  0  0  0
  189.5340  177.4890  142.7540 C   0  0  2  0  0  3  0  0  0  0  0  0
  190.6380  176.6650  142.8270 C   0  0  0  0  0  2  0  0  0  0  0  0
  191.6260  173.5900  136.6910 C   0  0  0  0  0  2  0  0  0  0  0  0
  193.4750  173.0970  135.4080 N   0  0  0  0  0  0  0  0  0  0  0  0
  192.5230  175.7210  137.4390 C   0  0  0  0  0  0  0  0  0  0  0  0
  193.5020  176.2970  136.7290 C   0  0  0  0  0  3  0  0  0  0  0  0
  195.1300  174.1190  136.7990 N   0  0  0  0  0  2  0  0  0  0  0  0
  192.6070  174.2150  137.3380 C   0  0  2  0  0  3  0  0  0  0  0  0
  192.1950  172.9110  135.5110 C   0  0  0  0  0  3  0  0  0  0  0  0
  194.2240  175.1660  136.3470 N   0  0  0  0  0  0  0  0  0  0  0  0
  193.8420  173.8030  136.6100 C   0  0  2  0  0  0  0  0  0  0  0  0
  188.3360  178.5530  139.9260 O   0  0  0  0  0  0  0  0  0  0  0  0
  184.6840  178.5740  140.7510 C   0  0  0  0  0  2  0  0  0  0  0  0
  184.9250  178.1130  138.4300 C   0  0  0  0  0  2  0  0  0  0  0  0
  186.4160  178.4360  138.4560 C   0  0  0  0  0  2  0  0  0  0  0  0
  186.1650  178.9150  140.8990 C   0  0  0  0  0  2  0  0  0  0  0  0
  186.9720  178.1560  139.8510 C   0  0  0  0  0  3  0  0  0  0  0  0
  184.2190  178.9370  139.4120 N   0  0  0  0  0  0  0  0  0  0  0  0
  181.5460  180.0210  139.1360 C   0  0  0  0  0  1  0  0  0  0  0  0
  182.2890  177.6470  138.1340 O   0  0  0  0  0  0  0  0  0  0  0  0
  182.1110  177.8270  140.5670 O   0  0  0  0  0  0  0  0  0  0  0  0
  182.5290  178.5460  139.3150 S   0  0  0  0  0  0  0  0  0  0  0  0
  188.2550  176.6820  142.8750 C   0  0  0  0  0  2  0  0  0  0  0  0
  187.6960  176.7770  144.2850 C   0  0  0  0  0  2  0  0  0  0  0  0
  187.2420  178.0830  144.5420 O   0  0  0  0  0  0  0  0  0  0  0  0
  186.9800  178.2250  145.9250 C   0  0  1  0  0  3  0  0  0  0  0  0
  185.5030  179.6070  147.2790 O   0  0  0  0  0  1  0  0  0  0  0  0
  185.5450  178.6890  146.2260 C   0  0  1  0  0  3  0  0  0  0  0  0
  184.8390  179.2340  144.9850 C   0  0  0  0  0  2  0  0  0  0  0  0
  183.3470  178.9270  144.9540 C   0  0  0  0  0  2  0  0  0  0  0  0
  182.8480  179.1080  143.6650 O   0  0  0  0  0  1  0  0  0  0  0  0
  187.3630  177.0400  146.6910 N   0  0  0  0  0  2  0  0  0  0  0  0
  189.6040  177.4240  147.5250 C   0  0  0  0  0  1  0  0  0  0  0  0
  188.1250  177.4990  147.8370 C   0  0  0  0  0  2  0  0  0  0  0  0
  1  4  2  0  0  0  0
  2  3  1  0  0  0  0
  3 19  1  0  0  0  0
  3  7  2  0  0  0  0
  4  7  1  0  0  0  0
  5  8  1  0  0  0  0
  5  9  1  0  0  0  0
  6  2  2  0  0  0  0
  6  1  1  0  0  0  0
  7  5  1  0  0  0  0
  8  9  1  0  0  0  0
  8 30  1  6  0  0  0
 11 16  2  0  0  0  0
 12  1  1  0  0  0  0
 13 12  2  0  0  0  0
 15 10  1  6  0  0  0
 15 12  1  0  0  0  0
 16 10  1  0  0  0  0
 17 18  1  0  0  0  0
 17 13  1  0  0  0  0
 17 14  1  0  0  0  0
 18 11  1  6  0  0  0
 18 14  1  0  0  0  0
 18 15  1  0  0  0  0
 20 23  1  0  0  0  0
 21 22  1  0  0  0  0
 21 25  1  0  0  0  0
 22 24  1  0  0  0  0
 24 19  1  0  0  0  0
 24 23  1  0  0  0  0
 25 20  1  0  0  0  0
 26 29  1  0  0  0  0
 27 29  2  0  0  0  0
 29 25  1  0  0  0  0
 29 28  2  0  0  0  0
 30 31  1  0  0  0  0
 31 32  1  0  0  0  0
 33 32  1  6  0  0  0
 33 35  1  0  0  0  0
 33 39  1  0  0  0  0
 35 34  1  1  0  0  0
 36 35  1  0  0  0  0
 37 36  1  0  0  0  0
 38 37  1  0  0  0  0
 39 41  1  0  0  0  0
 40 41  1  0  0  0  0
M  END
>  <MODEL>
2

>  <REMARK>
 VINA RESULT:      -7.3      3.309      8.730
  Name = 
  13 active torsions:
  status: ('A' for Active; 'I' for Inactive)
    1  A    between atoms: O_2  and  C_11
    2  A    between atoms: O_2  and  C_35
    3  A    between atoms: C_3  and  N_21
    4  A    between atoms: C_3  and  O_23
    5  A    between atoms: C_3  and  C_27
    6  A    between atoms: C_5  and  C_6
    7  A    between atoms: C_14  and  C_19
    8  A    between atoms: C_15  and  O_23
    9  A    between atoms: C_15  and  C_37
   10  A    between atoms: C_19  and  C_27
   11  A    between atoms: N_21  and  C_30
   12  A    between atoms: S_34  and  N_40
   13  A    between atoms: C_37  and  C_38
                            x       y       z     vdW  Elec       q    Type
                         _______ _______ _______ _____ _____    ______ ____

>  <TORSDO>
F 13

$$$$
=
 OpenBabel10222420363D

 41 46  0  0  1  0  0  0  0  0999 V2000
  191.1140  176.4870  138.1310 C   0  0  0  0  0  0  0  0  0  0  0  0
  189.2540  177.9400  137.9620 C   0  0  0  0  0  3  0  0  0  0  0  0
  189.1210  177.9560  139.3550 C   0  0  0  0  0  0  0  0  0  0  0  0
  191.0020  176.4920  139.4870 N   0  0  0  0  0  0  0  0  0  0  0  0
  189.9310  177.1820  141.5310 N   0  0  0  0  0  0  0  0  0  0  0  0
  190.2410  177.2130  137.3800 N   0  0  0  0  0  0  0  0  0  0  0  0
  190.0290  177.2080  140.1090 C   0  0  0  0  0  0  0  0  0  0  0  0
  189.2820  177.5730  142.8150 C   0  0  2  0  0  3  0  0  0  0  0  0
  190.3550  176.7100  142.8810 C   0  0  0  0  0  2  0  0  0  0  0  0
  191.1790  173.6530  136.6490 C   0  0  0  0  0  2  0  0  0  0  0  0
  193.0210  173.0990  135.3810 N   0  0  0  0  0  0  0  0  0  0  0  0
  192.1790  175.7040  137.4830 C   0  0  0  0  0  0  0  0  0  0  0  0
  193.2010  176.2480  136.8100 C   0  0  0  0  0  3  0  0  0  0  0  0
  194.7040  173.9810  136.8330 N   0  0  0  0  0  2  0  0  0  0  0  0
  192.1810  174.2000  137.3330 C   0  0  2  0  0  3  0  0  0  0  0  0
  191.7320  172.9810  135.4570 C   0  0  0  0  0  3  0  0  0  0  0  0
  193.8670  175.0910  136.4010 N   0  0  0  0  0  0  0  0  0  0  0  0
  193.4050  173.7440  136.6130 C   0  0  2  0  0  0  0  0  0  0  0  0
  188.1100  178.6850  139.9940 O   0  0  0  0  0  0  0  0  0  0  0  0
  184.5180  178.7110  141.0470 C   0  0  0  0  0  2  0  0  0  0  0  0
  184.6150  178.1860  138.7280 C   0  0  0  0  0  2  0  0  0  0  0  0
  186.1030  178.5170  138.6510 C   0  0  0  0  0  2  0  0  0  0  0  0
  186.0030  179.0630  141.0910 C   0  0  0  0  0  2  0  0  0  0  0  0
  186.7480  178.2790  140.0150 C   0  0  0  0  0  3  0  0  0  0  0  0
  183.9670  179.0330  139.7300 N   0  0  0  0  0  0  0  0  0  0  0  0
  181.6310  178.6910  141.4110 C   0  0  0  0  0  1  0  0  0  0  0  0
  181.5190  179.6050  138.8920 O   0  0  0  0  0  0  0  0  0  0  0  0
  182.0870  177.2450  139.2010 O   0  0  0  0  0  0  0  0  0  0  0  0
  182.2770  178.6310  139.7510 S   0  0  0  0  0  0  0  0  0  0  0  0
  187.9750  176.8140  142.9400 C   0  0  0  0  0  2  0  0  0  0  0  0
  187.2080  177.2730  144.1690 C   0  0  0  0  0  2  0  0  0  0  0  0
  187.7790  176.7290  145.3330 O   0  0  0  0  0  0  0  0  0  0  0  0
  187.3470  177.4680  146.4590 C   0  0  1  0  0  3  0  0  0  0  0  0
  187.9800  177.7560  148.7910 O   0  0  0  0  0  1  0  0  0  0  0  0
  188.4670  177.7270  147.4810 C   0  0  1  0  0  3  0  0  0  0  0  0
  189.6230  176.7380  147.3390 C   0  0  0  0  0  2  0  0  0  0  0  0
  190.7700  177.2660  146.4880 C   0  0  0  0  0  2  0  0  0  0  0  0
  191.7290  176.2710  146.3070 O   0  0  0  0  0  1  0  0  0  0  0  0
  186.6300  178.6860  146.0860 N   0  0  0  0  0  2  0  0  0  0  0  0
  184.2400  178.7230  145.6940 C   0  0  0  0  0  1  0  0  0  0  0  0
  185.3340  178.6360  146.7360 C   0  0  0  0  0  2  0  0  0  0  0  0
  1  4  2  0  0  0  0
  2  3  1  0  0  0  0
  3 19  1  0  0  0  0
  3  7  2  0  0  0  0
  4  7  1  0  0  0  0
  5  8  1  0  0  0  0
  5  9  1  0  0  0  0
  6  2  2  0  0  0  0
  6  1  1  0  0  0  0
  7  5  1  0  0  0  0
  8  9  1  0  0  0  0
  8 30  1  6  0  0  0
 11 16  2  0  0  0  0
 12  1  1  0  0  0  0
 13 12  2  0  0  0  0
 15 10  1  6  0  0  0
 15 12  1  0  0  0  0
 16 10  1  0  0  0  0
 17 18  1  0  0  0  0
 17 13  1  0  0  0  0
 17 14  1  0  0  0  0
 18 11  1  6  0  0  0
 18 14  1  0  0  0  0
 18 15  1  0  0  0  0
 19 24  1  0  0  0  0
 20 23  1  0  0  0  0
 21 25  1  0  0  0  0
 22 21  1  0  0  0  0
 22 24  1  0  0  0  0
 24 23  1  0  0  0  0
 25 29  1  0  0  0  0
 25 20  1  0  0  0  0
 27 29  2  0  0  0  0
 28 29  2  0  0  0  0
 29 26  1  0  0  0  0
 30 31  1  0  0  0  0
 31 32  1  0  0  0  0
 33 32  1  6  0  0  0
 33 35  1  0  0  0  0
 35 34  1  1  0  0  0
 36 35  1  0  0  0  0
 37 36  1  0  0  0  0
 38 37  1  0  0  0  0
 39 33  1  0  0  0  0
 39 41  1  0  0  0  0
 40 41  1  0  0  0  0
M  END
>  <MODEL>
3

>  <REMARK>
 VINA RESULT:      -7.2      3.062      8.331
  Name = 
  13 active torsions:
  status: ('A' for Active; 'I' for Inactive)
    1  A    between atoms: O_2  and  C_11
    2  A    between atoms: O_2  and  C_35
    3  A    between atoms: C_3  and  N_21
    4  A    between atoms: C_3  and  O_23
    5  A    between atoms: C_3  and  C_27
    6  A    between atoms: C_5  and  C_6
    7  A    between atoms: C_14  and  C_19
    8  A    between atoms: C_15  and  O_23
    9  A    between atoms: C_15  and  C_37
   10  A    between atoms: C_19  and  C_27
   11  A    between atoms: N_21  and  C_30
   12  A    between atoms: S_34  and  N_40
   13  A    between atoms: C_37  and  C_38
                            x       y       z     vdW  Elec       q    Type
                         _______ _______ _______ _____ _____    ______ ____

>  <TORSDO>
F 13

$$$$
=
 OpenBabel10222420363D

 41 46  0  0  1  0  0  0  0  0999 V2000
  186.6990  178.3250  138.9480 C   0  0  0  0  0  0  0  0  0  0  0  0
  188.8000  178.3910  137.8620 C   0  0  0  0  0  3  0  0  0  0  0  0
  189.4150  177.8300  138.9860 C   0  0  0  0  0  0  0  0  0  0  0  0
  187.2790  177.7770  140.0490 N   0  0  0  0  0  0  0  0  0  0  0  0
  189.1920  176.9620  141.2630 N   0  0  0  0  0  0  0  0  0  0  0  0
  187.4630  178.6250  137.8620 N   0  0  0  0  0  0  0  0  0  0  0  0
  188.6140  177.5250  140.0890 C   0  0  0  0  0  0  0  0  0  0  0  0
  190.3580  176.4670  142.0510 C   0  0  2  0  0  3  0  0  0  0  0  0
  189.1240  176.4600  142.6670 C   0  0  0  0  0  2  0  0  0  0  0  0
  184.1930  176.7780  137.6980 C   0  0  0  0  0  2  0  0  0  0  0  0
  182.0700  177.3640  138.3740 N   0  0  0  0  0  0  0  0  0  0  0  0
  185.2500  178.5850  138.9310 C   0  0  0  0  0  0  0  0  0  0  0  0
  184.5820  179.1580  139.9410 C   0  0  0  0  0  3  0  0  0  0  0  0
  182.3830  179.7330  138.4470 N   0  0  0  0  0  2  0  0  0  0  0  0
  184.2920  178.0940  137.8700 C   0  0  2  0  0  3  0  0  0  0  0  0
  182.8120  176.3630  138.0140 C   0  0  0  0  0  3  0  0  0  0  0  0
  183.2870  179.1370  139.4210 N   0  0  0  0  0  0  0  0  0  0  0  0
  182.8980  178.5270  138.1760 C   0  0  2  0  0  0  0  0  0  0  0  0
  190.7930  177.5820  139.0290 O   0  0  0  0  0  0  0  0  0  0  0  0
  193.6500  175.6680  137.5500 C   0  0  0  0  0  2  0  0  0  0  0  0
  191.6630  174.3930  137.2570 C   0  0  0  0  0  2  0  0  0  0  0  0
  190.8570  175.3240  138.1590 C   0  0  0  0  0  2  0  0  0  0  0  0
  192.9460  176.6690  138.4630 C   0  0  0  0  0  2  0  0  0  0  0  0
  191.4620  176.7260  138.1120 C   0  0  0  0  0  3  0  0  0  0  0  0
  193.0540  174.3410  137.7080 N   0  0  0  0  0  0  0  0  0  0  0  0
  192.7730  172.2690  135.7030 C   0  0  0  0  0  1  0  0  0  0  0  0
  194.7940  174.0330  135.7340 O   0  0  0  0  0  0  0  0  0  0  0  0
  194.7660  172.3330  137.4930 O   0  0  0  0  0  0  0  0  0  0  0  0
  193.9100  173.2490  136.6640 S   0  0  0  0  0  0  0  0  0  0  0  0
  191.1740  177.6630  142.5000 C   0  0  0  0  0  2  0  0  0  0  0  0
  191.6960  177.4530  143.9120 C   0  0  0  0  0  2  0  0  0  0  0  0
  190.8210  178.0340  144.8470 O   0  0  0  0  0  0  0  0  0  0  0  0
  190.9840  177.4000  146.1010 C   0  0  1  0  0  3  0  0  0  0  0  0
  189.5690  177.8080  148.0380 O   0  0  0  0  0  1  0  0  0  0  0  0
  189.6530  177.1270  146.8200 C   0  0  1  0  0  3  0  0  0  0  0  0
  188.4430  177.4220  145.9350 C   0  0  0  0  0  2  0  0  0  0  0  0
  187.2050  177.8350  146.7200 C   0  0  0  0  0  2  0  0  0  0  0  0
  186.1340  178.0380  145.8510 O   0  0  0  0  0  1  0  0  0  0  0  0
  191.8360  176.2150  146.0200 N   0  0  0  0  0  2  0  0  0  0  0  0
  192.8150  175.8390  148.2040 C   0  0  0  0  0  1  0  0  0  0  0  0
  191.6790  175.4890  147.2660 C   0  0  0  0  0  2  0  0  0  0  0  0
  1  4  2  0  0  0  0
  2  6  2  0  0  0  0
  2  3  1  0  0  0  0
  3 19  1  0  0  0  0
  3  7  2  0  0  0  0
  4  7  1  0  0  0  0
  5  8  1  0  0  0  0
  5  9  1  0  0  0  0
  6  1  1  0  0  0  0
  7  5  1  0  0  0  0
  8 30  1  1  0  0  0
  8  9  1  0  0  0  0
 10 16  1  0  0  0  0
 12  1  1  0  0  0  0
 12 13  2  0  0  0  0
 14 17  1  0  0  0  0
 15 10  1  1  0  0  0
 15 18  1  0  0  0  0
 15 12  1  0  0  0  0
 16 11  2  0  0  0  0
 17 13  1  0  0  0  0
 18 11  1  1  0  0  0
 18 14  1  0  0  0  0
 18 17  1  0  0  0  0
 20 25  1  0  0  0  0
 20 23  1  0  0  0  0
 21 25  1  0  0  0  0
 21 22  1  0  0  0  0
 24 22  1  0  0  0  0
 24 23  1  0  0  0  0
 24 19  1  0  0  0  0
 26 29  1  0  0  0  0
 27 29  2  0  0  0  0
 29 28  2  0  0  0  0
 29 25  1  0  0  0  0
 30 31  1  0  0  0  0
 31 32  1  0  0  0  0
 33 32  1  6  0  0  0
 33 35  1  0  0  0  0
 35 34  1  1  0  0  0
 36 37  1  0  0  0  0
 36 35  1  0  0  0  0
 38 37  1  0  0  0  0
 39 33  1  0  0  0  0
 39 41  1  0  0  0  0
 41 40  1  0  0  0  0
M  END
>  <MODEL>
4

>  <REMARK>
 VINA RESULT:      -7.1      2.787      3.971
  Name = 
  13 active torsions:
  status: ('A' for Active; 'I' for Inactive)
    1  A    between atoms: O_2  and  C_11
    2  A    between atoms: O_2  and  C_35
    3  A    between atoms: C_3  and  N_21
    4  A    between atoms: C_3  and  O_23
    5  A    between atoms: C_3  and  C_27
    6  A    between atoms: C_5  and  C_6
    7  A    between atoms: C_14  and  C_19
    8  A    between atoms: C_15  and  O_23
    9  A    between atoms: C_15  and  C_37
   10  A    between atoms: C_19  and  C_27
   11  A    between atoms: N_21  and  C_30
   12  A    between atoms: S_34  and  N_40
   13  A    between atoms: C_37  and  C_38
                            x       y       z     vdW  Elec       q    Type
                         _______ _______ _______ _____ _____    ______ ____

>  <TORSDO>
F 13

$$$$
=
 OpenBabel10222420363D

 41 46  0  0  1  0  0  0  0  0999 V2000
  184.0180  178.7270  141.7930 C   0  0  0  0  0  0  0  0  0  0  0  0
  185.6040  179.3550  140.1520 C   0  0  0  0  0  3  0  0  0  0  0  0
  186.6040  178.6450  140.8250 C   0  0  0  0  0  0  0  0  0  0  0  0
  184.9760  178.0290  142.4600 N   0  0  0  0  0  0  0  0  0  0  0  0
  187.2370  177.2460  142.7310 N   0  0  0  0  0  0  0  0  0  0  0  0
  184.3390  179.3810  140.6430 N   0  0  0  0  0  0  0  0  0  0  0  0
  186.2550  177.9750  142.0010 C   0  0  0  0  0  0  0  0  0  0  0  0
  188.6310  176.7580  142.9400 C   0  0  2  0  0  3  0  0  0  0  0  0
  187.6900  176.4260  143.8920 C   0  0  0  0  0  2  0  0  0  0  0  0
  181.1930  177.7830  140.6260 C   0  0  0  0  0  2  0  0  0  0  0  0
  179.3900  177.6370  142.0520 N   0  0  0  0  0  0  0  0  0  0  0  0
  182.6410  178.7660  142.3110 C   0  0  0  0  0  0  0  0  0  0  0  0
  182.3250  178.6170  143.6040 C   0  0  0  0  0  3  0  0  0  0  0  0
  179.8100  179.6150  143.3280 N   0  0  0  0  0  2  0  0  0  0  0  0
  181.3940  178.8030  141.4580 C   0  0  2  0  0  3  0  0  0  0  0  0
  179.9500  177.0900  141.0180 C   0  0  0  0  0  3  0  0  0  0  0  0
  180.9340  178.7130  143.5280 N   0  0  0  0  0  0  0  0  0  0  0  0
  180.1710  178.8200  142.3120 C   0  0  2  0  0  0  0  0  0  0  0  0
  187.9230  178.6000  140.3570 O   0  0  0  0  0  0  0  0  0  0  0  0
  189.9570  177.0630  137.6150 C   0  0  0  0  0  2  0  0  0  0  0  0
  187.6540  176.8390  137.0570 C   0  0  0  0  0  2  0  0  0  0  0  0
  187.2080  177.3080  138.4390 C   0  0  0  0  0  2  0  0  0  0  0  0
  189.6290  177.5500  139.0250 C   0  0  0  0  0  2  0  0  0  0  0  0
  188.2680  178.2390  139.0260 C   0  0  0  0  0  3  0  0  0  0  0  0
  188.9290  176.1260  137.1590 N   0  0  0  0  0  0  0  0  0  0  0  0
  188.3330  174.2440  135.0380 C   0  0  0  0  0  1  0  0  0  0  0  0
  189.2190  176.7370  134.5970 O   0  0  0  0  0  0  0  0  0  0  0  0
  190.8020  175.1430  135.5670 O   0  0  0  0  0  0  0  0  0  0  0  0
  189.3690  175.5950  135.5650 S   0  0  0  0  0  0  0  0  0  0  0  0
  189.4790  177.9240  143.4100 C   0  0  0  0  0  2  0  0  0  0  0  0
  190.0880  177.6260  144.7700 C   0  0  0  0  0  2  0  0  0  0  0  0
  189.5330  178.4700  145.7480 O   0  0  0  0  0  0  0  0  0  0  0  0
  189.4340  177.7690  146.9730 C   0  0  1  0  0  3  0  0  0  0  0  0
  187.8630  177.5660  148.8210 O   0  0  0  0  0  1  0  0  0  0  0  0
  187.9830  177.5430  147.4280 C   0  0  1  0  0  3  0  0  0  0  0  0
  187.0090  178.5210  146.7710 C   0  0  0  0  0  2  0  0  0  0  0  0
  185.5570  178.0680  146.8410 C   0  0  0  0  0  2  0  0  0  0  0  0
  184.7250  179.0400  146.2890 O   0  0  0  0  0  1  0  0  0  0  0  0
  190.2250  176.5400  146.9780 N   0  0  0  0  0  2  0  0  0  0  0  0
  192.3530  175.6080  147.6640 C   0  0  0  0  0  1  0  0  0  0  0  0
  191.4490  176.8220  147.7040 C   0  0  0  0  0  2  0  0  0  0  0  0
  1 12  1  0  0  0  0
  1  4  2  0  0  0  0
  2  6  2  0  0  0  0
  2  3  1  0  0  0  0
  3  7  2  0  0  0  0
  5  8  1  0  0  0  0
  5  9  1  0  0  0  0
  6  1  1  0  0  0  0
  7  4  1  0  0  0  0
  7  5  1  0  0  0  0
  8 30  1  1  0  0  0
  8  9  1  0  0  0  0
 10 16  1  0  0  0  0
 12 13  2  0  0  0  0
 14 17  1  0  0  0  0
 15 10  1  6  0  0  0
 15 12  1  0  0  0  0
 15 18  1  0  0  0  0
 16 11  2  0  0  0  0
 17 13  1  0  0  0  0
 18 11  1  6  0  0  0
 18 14  1  0  0  0  0
 18 17  1  0  0  0  0
 19  3  1  0  0  0  0
 20 23  1  0  0  0  0
 21 25  1  0  0  0  0
 21 22  1  0  0  0  0
 22 24  1  0  0  0  0
 23 24  1  0  0  0  0
 24 19  1  0  0  0  0
 25 20  1  0  0  0  0
 26 29  1  0  0  0  0
 27 29  2  0  0  0  0
 29 28  2  0  0  0  0
 29 25  1  0  0  0  0
 30 31  1  0  0  0  0
 31 32  1  0  0  0  0
 33 32  1  6  0  0  0
 33 39  1  0  0  0  0
 33 35  1  0  0  0  0
 35 34  1  1  0  0  0
 36 37  1  0  0  0  0
 36 35  1  0  0  0  0
 38 37  1  0  0  0  0
 39 41  1  0  0  0  0
 40 41  1  0  0  0  0
M  END
>  <MODEL>
5

>  <REMARK>
 VINA RESULT:      -7.0      1.725      2.849
  Name = 
  13 active torsions:
  status: ('A' for Active; 'I' for Inactive)
    1  A    between atoms: O_2  and  C_11
    2  A    between atoms: O_2  and  C_35
    3  A    between atoms: C_3  and  N_21
    4  A    between atoms: C_3  and  O_23
    5  A    between atoms: C_3  and  C_27
    6  A    between atoms: C_5  and  C_6
    7  A    between atoms: C_14  and  C_19
    8  A    between atoms: C_15  and  O_23
    9  A    between atoms: C_15  and  C_37
   10  A    between atoms: C_19  and  C_27
   11  A    between atoms: N_21  and  C_30
   12  A    between atoms: S_34  and  N_40
   13  A    between atoms: C_37  and  C_38
                            x       y       z     vdW  Elec       q    Type
                         _______ _______ _______ _____ _____    ______ ____

>  <TORSDO>
F 13

$$$$
=
 OpenBabel10222420363D

 41 46  0  0  1  0  0  0  0  0999 V2000
  187.8950  178.0270  141.2950 C   0  0  0  0  0  0  0  0  0  0  0  0
  190.0650  177.2470  140.7640 C   0  0  0  0  0  3  0  0  0  0  0  0
  189.8620  177.5570  139.4150 C   0  0  0  0  0  0  0  0  0  0  0  0
  187.6800  178.3370  139.9890 N   0  0  0  0  0  0  0  0  0  0  0  0
  188.3730  178.4400  137.6850 N   0  0  0  0  0  0  0  0  0  0  0  0
  189.0860  177.4880  141.6730 N   0  0  0  0  0  0  0  0  0  0  0  0
  188.6350  178.1150  139.0470 C   0  0  0  0  0  0  0  0  0  0  0  0
  188.7620  178.5010  136.2460 C   0  0  2  0  0  3  0  0  0  0  0  0
  187.4940  178.9280  136.5820 C   0  0  0  0  0  2  0  0  0  0  0  0
  184.7980  178.8030  141.0930 C   0  0  0  0  0  2  0  0  0  0  0  0
  183.4760  178.6130  142.9700 N   0  0  0  0  0  0  0  0  0  0  0  0
  186.8440  178.2810  142.2950 C   0  0  0  0  0  0  0  0  0  0  0  0
  186.7620  177.6440  143.4700 C   0  0  0  0  0  3  0  0  0  0  0  0
  185.0460  179.4440  144.5710 N   0  0  0  0  0  2  0  0  0  0  0  0
  185.6280  179.1510  142.0740 C   0  0  2  0  0  3  0  0  0  0  0  0
  183.4820  178.4810  141.6800 C   0  0  0  0  0  3  0  0  0  0  0  0
  185.6080  178.2350  143.9870 N   0  0  0  0  0  0  0  0  0  0  0  0
  184.7660  179.1720  143.2900 C   0  0  2  0  0  0  0  0  0  0  0  0
  190.8430  177.3170  138.4440 O   0  0  0  0  0  0  0  0  0  0  0  0
  191.9890  173.9650  137.2310 C   0  0  0  0  0  2  0  0  0  0  0  0
  193.8960  175.1970  137.9460 C   0  0  0  0  0  2  0  0  0  0  0  0
  193.0880  176.4830  138.0950 C   0  0  0  0  0  2  0  0  0  0  0  0
  191.0810  175.1870  137.3500 C   0  0  0  0  0  2  0  0  0  0  0  0
  191.6340  176.1360  138.4090 C   0  0  0  0  0  3  0  0  0  0  0  0
  193.3420  174.3830  136.8620 N   0  0  0  0  0  0  0  0  0  0  0  0
  195.5710  173.1580  135.4740 C   0  0  0  0  0  1  0  0  0  0  0  0
  194.9790  172.6650  138.0430 O   0  0  0  0  0  0  0  0  0  0  0  0
  193.4430  171.7870  136.3530 O   0  0  0  0  0  0  0  0  0  0  0  0
  194.3170  172.9520  136.7230 S   0  0  0  0  0  0  0  0  0  0  0  0
  188.7190  177.0950  135.6800 C   0  0  0  0  0  2  0  0  0  0  0  0
  187.3100  176.5310  135.7560 C   0  0  0  0  0  2  0  0  0  0  0  0
  187.2550  175.4780  136.6850 O   0  0  0  0  0  0  0  0  0  0  0  0
  185.9040  175.1770  136.9750 C   0  0  1  0  0  3  0  0  0  0  0  0
  183.9090  175.8380  135.7480 O   0  0  0  0  0  1  0  0  0  0  0  0
  184.9330  176.3010  136.5800 C   0  0  1  0  0  3  0  0  0  0  0  0
  184.3710  177.0370  137.7960 C   0  0  0  0  0  2  0  0  0  0  0  0
  182.9470  176.6240  138.1480 C   0  0  0  0  0  2  0  0  0  0  0  0
  182.9660  175.5400  139.0240 O   0  0  0  0  0  1  0  0  0  0  0  0
  185.4990  173.8720  136.4550 N   0  0  0  0  0  2  0  0  0  0  0  0
  183.9850  172.1460  137.2280 C   0  0  0  0  0  1  0  0  0  0  0  0
  185.1430  173.0480  137.5950 C   0  0  0  0  0  2  0  0  0  0  0  0
  1  6  1  0  0  0  0
  1 12  1  0  0  0  0
  2  6  2  0  0  0  0
  3  2  1  0  0  0  0
  4  1  2  0  0  0  0
  5  7  1  0  0  0  0
  7  3  2  0  0  0  0
  7  4  1  0  0  0  0
  8 30  1  6  0  0  0
  8  9  1  0  0  0  0
  8  5  1  0  0  0  0
  9  5  1  0  0  0  0
 10 16  1  0  0  0  0
 12 13  2  0  0  0  0
 13 17  1  0  0  0  0
 15 10  1  6  0  0  0
 15 12  1  0  0  0  0
 15 18  1  0  0  0  0
 16 11  2  0  0  0  0
 17 14  1  0  0  0  0
 18 11  1  6  0  0  0
 18 17  1  0  0  0  0
 18 14  1  0  0  0  0
 19  3  1  0  0  0  0
 20 23  1  0  0  0  0
 21 22  1  0  0  0  0
 22 24  1  0  0  0  0
 23 24  1  0  0  0  0
 24 19  1  0  0  0  0
 25 20  1  0  0  0  0
 25 21  1  0  0  0  0
 26 29  1  0  0  0  0
 28 29  2  0  0  0  0
 29 25  1  0  0  0  0
 29 27  2  0  0  0  0
 30 31  1  0  0  0  0
 31 32  1  0  0  0  0
 32 33  1  0  0  0  0
 33 39  1  6  0  0  0
 35 34  1  1  0  0  0
 35 33  1  0  0  0  0
 35 36  1  0  0  0  0
 36 37  1  0  0  0  0
 37 38  1  0  0  0  0
 39 41  1  0  0  0  0
 40 41  1  0  0  0  0
M  END
>  <MODEL>
6

>  <REMARK>
 VINA RESULT:      -6.9      3.652      7.280
  Name = 
  13 active torsions:
  status: ('A' for Active; 'I' for Inactive)
    1  A    between atoms: O_2  and  C_11
    2  A    between atoms: O_2  and  C_35
    3  A    between atoms: C_3  and  N_21
    4  A    between atoms: C_3  and  O_23
    5  A    between atoms: C_3  and  C_27
    6  A    between atoms: C_5  and  C_6
    7  A    between atoms: C_14  and  C_19
    8  A    between atoms: C_15  and  O_23
    9  A    between atoms: C_15  and  C_37
   10  A    between atoms: C_19  and  C_27
   11  A    between atoms: N_21  and  C_30
   12  A    between atoms: S_34  and  N_40
   13  A    between atoms: C_37  and  C_38
                            x       y       z     vdW  Elec       q    Type
                         _______ _______ _______ _____ _____    ______ ____

>  <TORSDO>
F 13

$$$$
=
 OpenBabel10222420363D

 41 46  0  0  1  0  0  0  0  0999 V2000
  187.5400  178.0250  142.9720 C   0  0  0  0  0  0  0  0  0  0  0  0
  189.6610  177.6600  141.9870 C   0  0  0  0  0  3  0  0  0  0  0  0
  189.1020  177.7710  140.7090 C   0  0  0  0  0  0  0  0  0  0  0  0
  186.9800  178.1380  141.7380 N   0  0  0  0  0  0  0  0  0  0  0  0
  187.1090  178.1280  139.3330 N   0  0  0  0  0  0  0  0  0  0  0  0
  188.8770  177.7900  143.0870 N   0  0  0  0  0  0  0  0  0  0  0  0
  187.7300  178.0170  140.6110 C   0  0  0  0  0  0  0  0  0  0  0  0
  187.1490  178.1100  137.8430 C   0  0  2  0  0  3  0  0  0  0  0  0
  185.9230  178.2990  138.4450 C   0  0  0  0  0  2  0  0  0  0  0  0
  184.6660  179.3150  143.5280 C   0  0  0  0  0  2  0  0  0  0  0  0
  183.5930  178.8370  145.5090 N   0  0  0  0  0  0  0  0  0  0  0  0
  186.7050  178.1630  144.1760 C   0  0  0  0  0  0  0  0  0  0  0  0
  186.6500  177.2510  145.1560 C   0  0  0  0  0  3  0  0  0  0  0  0
  185.4960  178.9350  146.9530 N   0  0  0  0  0  2  0  0  0  0  0  0
  185.6720  179.2440  144.3960 C   0  0  2  0  0  3  0  0  0  0  0  0
  183.4020  179.0620  144.2460 C   0  0  0  0  0  3  0  0  0  0  0  0
  185.7190  177.8570  146.0010 N   0  0  0  0  0  0  0  0  0  0  0  0
  185.0000  179.0710  145.7170 C   0  0  2  0  0  0  0  0  0  0  0  0
  189.8750  177.6350  139.5490 O   0  0  0  0  0  0  0  0  0  0  0  0
  192.0580  175.0670  137.9190 C   0  0  0  0  0  2  0  0  0  0  0  0
  193.4270  176.4650  139.2720 C   0  0  0  0  0  2  0  0  0  0  0  0
  192.2880  177.4500  139.5170 C   0  0  0  0  0  2  0  0  0  0  0  0
  190.8450  175.9770  138.0990 C   0  0  0  0  0  2  0  0  0  0  0  0
  190.9520  176.7140  139.4310 C   0  0  0  0  0  3  0  0  0  0  0  0
  193.2870  175.8600  137.9470 N   0  0  0  0  0  0  0  0  0  0  0  0
  195.5230  174.5430  139.2370 C   0  0  0  0  0  1  0  0  0  0  0  0
  194.1100  173.4430  137.2390 O   0  0  0  0  0  0  0  0  0  0  0  0
  195.5520  175.3390  136.6780 O   0  0  0  0  0  0  0  0  0  0  0  0
  194.6230  174.7740  137.7160 S   0  0  0  0  0  0  0  0  0  0  0  0
  187.3060  176.6720  137.3860 C   0  0  0  0  0  2  0  0  0  0  0  0
  185.9640  176.0990  136.9610 C   0  0  0  0  0  2  0  0  0  0  0  0
  185.9070  174.7240  137.2510 O   0  0  0  0  0  0  0  0  0  0  0  0
  184.5560  174.3270  137.3820 C   0  0  1  0  0  3  0  0  0  0  0  0
  182.6110  175.4590  136.4560 O   0  0  0  0  0  1  0  0  0  0  0  0
  183.5800  175.5110  137.4630 C   0  0  1  0  0  3  0  0  0  0  0  0
  182.9390  175.6430  138.8440 C   0  0  0  0  0  2  0  0  0  0  0  0
  182.4370  177.0480  139.1470 C   0  0  0  0  0  2  0  0  0  0  0  0
  182.8470  177.4390  140.4210 O   0  0  0  0  0  1  0  0  0  0  0  0
  184.1650  173.3400  136.3770 N   0  0  0  0  0  2  0  0  0  0  0  0
  182.5280  171.6950  137.0700 C   0  0  0  0  0  1  0  0  0  0  0  0
  183.9940  172.0740  137.0630 C   0  0  0  0  0  2  0  0  0  0  0  0
  1  6  1  0  0  0  0
  1 12  1  0  0  0  0
  2  6  2  0  0  0  0
  3  2  1  0  0  0  0
  4  1  2  0  0  0  0
  5  7  1  0  0  0  0
  7  3  2  0  0  0  0
  7  4  1  0  0  0  0
  8 30  1  1  0  0  0
  8  9  1  0  0  0  0
  8  5  1  0  0  0  0
  9  5  1  0  0  0  0
 10 16  1  0  0  0  0
 12 15  1  0  0  0  0
 12 13  2  0  0  0  0
 13 17  1  0  0  0  0
 15 10  1  6  0  0  0
 15 18  1  0  0  0  0
 16 11  2  0  0  0  0
 17 14  1  0  0  0  0
 18 11  1  6  0  0  0
 18 17  1  0  0  0  0
 18 14  1  0  0  0  0
 19  3  1  0  0  0  0
 20 25  1  0  0  0  0
 20 23  1  0  0  0  0
 21 22  1  0  0  0  0
 23 24  1  0  0  0  0
 24 22  1  0  0  0  0
 24 19  1  0  0  0  0
 25 21  1  0  0  0  0
 27 29  2  0  0  0  0
 28 29  2  0  0  0  0
 29 25  1  0  0  0  0
 29 26  1  0  0  0  0
 31 32  1  0  0  0  0
 31 30  1  0  0  0  0
 32 33  1  0  0  0  0
 33 39  1  6  0  0  0
 33 35  1  0  0  0  0
 35 34  1  6  0  0  0
 35 36  1  0  0  0  0
 36 37  1  0  0  0  0
 37 38  1  0  0  0  0
 39 41  1  0  0  0  0
 41 40  1  0  0  0  0
M  END
>  <MODEL>
7

>  <REMARK>
 VINA RESULT:      -6.8      3.472      7.317
  Name = 
  13 active torsions:
  status: ('A' for Active; 'I' for Inactive)
    1  A    between atoms: O_2  and  C_11
    2  A    between atoms: O_2  and  C_35
    3  A    between atoms: C_3  and  N_21
    4  A    between atoms: C_3  and  O_23
    5  A    between atoms: C_3  and  C_27
    6  A    between atoms: C_5  and  C_6
    7  A    between atoms: C_14  and  C_19
    8  A    between atoms: C_15  and  O_23
    9  A    between atoms: C_15  and  C_37
   10  A    between atoms: C_19  and  C_27
   11  A    between atoms: N_21  and  C_30
   12  A    between atoms: S_34  and  N_40
   13  A    between atoms: C_37  and  C_38
                            x       y       z     vdW  Elec       q    Type
                         _______ _______ _______ _____ _____    ______ ____

>  <TORSDO>
F 13

$$$$
=
 OpenBabel10222420363D

 41 46  0  0  1  0  0  0  0  0999 V2000
  186.8830  178.3140  139.0450 C   0  0  0  0  0  0  0  0  0  0  0  0
  188.9530  178.3830  137.9000 C   0  0  0  0  0  3  0  0  0  0  0  0
  189.5960  177.7980  138.9960 C   0  0  0  0  0  0  0  0  0  0  0  0
  187.4910  177.7430  140.1200 N   0  0  0  0  0  0  0  0  0  0  0  0
  189.4320  176.8930  141.2640 N   0  0  0  0  0  0  0  0  0  0  0  0
  187.6190  178.6260  137.9430 N   0  0  0  0  0  0  0  0  0  0  0  0
  188.8240  177.4800  140.1170 C   0  0  0  0  0  0  0  0  0  0  0  0
  190.6160  176.3760  142.0100 C   0  0  2  0  0  3  0  0  0  0  0  0
  189.4000  176.3680  142.6610 C   0  0  0  0  0  2  0  0  0  0  0  0
  184.3540  176.9600  137.6300 C   0  0  0  0  0  2  0  0  0  0  0  0
  182.2420  177.4720  138.3950 N   0  0  0  0  0  0  0  0  0  0  0  0
  185.4370  178.5860  139.0750 C   0  0  0  0  0  0  0  0  0  0  0  0
  184.7820  179.0300  140.1560 C   0  0  0  0  0  3  0  0  0  0  0  0
  182.5770  179.8090  138.7680 N   0  0  0  0  0  2  0  0  0  0  0  0
  184.4670  178.2430  137.9680 C   0  0  2  0  0  3  0  0  0  0  0  0
  182.9720  176.5190  137.9020 C   0  0  0  0  0  3  0  0  0  0  0  0
  183.4830  179.0870  139.6490 N   0  0  0  0  0  0  0  0  0  0  0  0
  183.0790  178.6440  138.3400 C   0  0  2  0  0  0  0  0  0  0  0  0
  190.9720  177.5390  138.9950 O   0  0  0  0  0  0  0  0  0  0  0  0
  193.7830  175.6770  137.3670 C   0  0  0  0  0  2  0  0  0  0  0  0
  191.8070  174.3640  137.1820 C   0  0  0  0  0  2  0  0  0  0  0  0
  191.0340  175.2800  138.1260 C   0  0  0  0  0  2  0  0  0  0  0  0
  193.1090  176.6660  138.3150 C   0  0  0  0  0  2  0  0  0  0  0  0
  191.6080  176.6940  138.0440 C   0  0  0  0  0  3  0  0  0  0  0  0
  193.2220  174.3390  137.5590 N   0  0  0  0  0  0  0  0  0  0  0  0
  194.9570  172.0260  137.3720 C   0  0  0  0  0  1  0  0  0  0  0  0
  193.0340  172.5800  135.5860 O   0  0  0  0  0  0  0  0  0  0  0  0
  194.9920  174.0460  135.6120 O   0  0  0  0  0  0  0  0  0  0  0  0
  194.0410  173.2610  136.4710 S   0  0  0  0  0  0  0  0  0  0  0  0
  191.4540  177.5580  142.4550 C   0  0  0  0  0  2  0  0  0  0  0  0
  190.8600  178.1940  143.7000 C   0  0  0  0  0  2  0  0  0  0  0  0
  191.4710  177.6730  144.8540 O   0  0  0  0  0  0  0  0  0  0  0  0
  190.4740  177.2700  145.7730 C   0  0  1  0  0  3  0  0  0  0  0  0
  190.0730  177.5030  148.1620 O   0  0  0  0  0  1  0  0  0  0  0  0
  191.0050  177.0920  147.2050 C   0  0  1  0  0  3  0  0  0  0  0  0
  191.4850  175.6660  147.4730 C   0  0  0  0  0  2  0  0  0  0  0  0
  192.8090  175.6040  148.2230 C   0  0  0  0  0  2  0  0  0  0  0  0
  193.0740  176.8320  148.8270 O   0  0  0  0  0  1  0  0  0  0  0  0
  189.2840  178.1170  145.7130 N   0  0  0  0  0  2  0  0  0  0  0  0
  186.9600  177.8030  145.1090 C   0  0  0  0  0  1  0  0  0  0  0  0
  188.1330  177.2520  145.8900 C   0  0  0  0  0  2  0  0  0  0  0  0
  1 12  1  0  0  0  0
  1  4  2  0  0  0  0
  2  6  2  0  0  0  0
  2  3  1  0  0  0  0
  3  7  2  0  0  0  0
  5  8  1  0  0  0  0
  5  9  1  0  0  0  0
  6  1  1  0  0  0  0
  7  4  1  0  0  0  0
  7  5  1  0  0  0  0
  8 30  1  1  0  0  0
  8  9  1  0  0  0  0
 10 16  1  0  0  0  0
 12 13  2  0  0  0  0
 14 17  1  0  0  0  0
 15 10  1  1  0  0  0
 15 18  1  0  0  0  0
 15 12  1  0  0  0  0
 16 11  2  0  0  0  0
 17 13  1  0  0  0  0
 18 11  1  1  0  0  0
 18 14  1  0  0  0  0
 18 17  1  0  0  0  0
 19  3  1  0  0  0  0
 20 25  1  0  0  0  0
 20 23  1  0  0  0  0
 21 25  1  0  0  0  0
 21 22  1  0  0  0  0
 24 22  1  0  0  0  0
 24 23  1  0  0  0  0
 24 19  1  0  0  0  0
 27 29  2  0  0  0  0
 28 29  2  0  0  0  0
 29 26  1  0  0  0  0
 29 25  1  0  0  0  0
 30 31  1  0  0  0  0
 31 32  1  0  0  0  0
 33 32  1  6  0  0  0
 33 35  1  0  0  0  0
 35 36  1  0  0  0  0
 35 34  1  1  0  0  0
 36 37  1  0  0  0  0
 37 38  1  0  0  0  0
 39 33  1  0  0  0  0
 39 41  1  0  0  0  0
 40 41  1  0  0  0  0
M  END
>  <MODEL>
8

>  <REMARK>
 VINA RESULT:      -6.8      2.746      3.873
  Name = 
  13 active torsions:
  status: ('A' for Active; 'I' for Inactive)
    1  A    between atoms: O_2  and  C_11
    2  A    between atoms: O_2  and  C_35
    3  A    between atoms: C_3  and  N_21
    4  A    between atoms: C_3  and  O_23
    5  A    between atoms: C_3  and  C_27
    6  A    between atoms: C_5  and  C_6
    7  A    between atoms: C_14  and  C_19
    8  A    between atoms: C_15  and  O_23
    9  A    between atoms: C_15  and  C_37
   10  A    between atoms: C_19  and  C_27
   11  A    between atoms: N_21  and  C_30
   12  A    between atoms: S_34  and  N_40
   13  A    between atoms: C_37  and  C_38
                            x       y       z     vdW  Elec       q    Type
                         _______ _______ _______ _____ _____    ______ ____

>  <TORSDO>
F 13

$$$$
=
 OpenBabel10222420363D

 41 46  0  0  1  0  0  0  0  0999 V2000
  193.0270  176.4100  138.2550 C   0  0  0  0  0  0  0  0  0  0  0  0
  192.3450  177.4610  140.2630 C   0  0  0  0  0  3  0  0  0  0  0  0
  191.0010  177.3040  139.9060 C   0  0  0  0  0  0  0  0  0  0  0  0
  191.7260  176.2470  137.8920 N   0  0  0  0  0  0  0  0  0  0  0  0
  189.3620  176.5050  138.2730 N   0  0  0  0  0  0  0  0  0  0  0  0
  193.3250  177.0120  139.4390 N   0  0  0  0  0  0  0  0  0  0  0  0
  190.7140  176.6790  138.6900 C   0  0  0  0  0  0  0  0  0  0  0  0
  187.8920  176.6640  138.4680 C   0  0  2  0  0  3  0  0  0  0  0  0
  188.3200  176.0750  137.2970 C   0  0  0  0  0  2  0  0  0  0  0  0
  194.5580  173.6170  137.9610 C   0  0  0  0  0  2  0  0  0  0  0  0
  195.8430  173.2420  136.0850 N   0  0  0  0  0  0  0  0  0  0  0  0
  194.1030  175.9300  137.3730 C   0  0  0  0  0  0  0  0  0  0  0  0
  194.2540  176.3170  136.1000 C   0  0  0  0  0  3  0  0  0  0  0  0
  196.8140  175.4190  135.9030 N   0  0  0  0  0  2  0  0  0  0  0  0
  195.0710  174.8200  137.7110 C   0  0  2  0  0  3  0  0  0  0  0  0
  195.0560  172.6700  136.9440 C   0  0  0  0  0  3  0  0  0  0  0  0
  195.3730  175.5630  135.7460 N   0  0  0  0  0  0  0  0  0  0  0  0
  196.0170  174.5840  136.5820 C   0  0  2  0  0  0  0  0  0  0  0  0
  189.9600  177.7610  140.7240 O   0  0  0  0  0  0  0  0  0  0  0  0
  190.1230  178.1920  144.4390 C   0  0  0  0  0  2  0  0  0  0  0  0
  188.2210  176.8590  143.9220 C   0  0  0  0  0  2  0  0  0  0  0  0
  188.3590  177.1300  142.4260 C   0  0  0  0  0  2  0  0  0  0  0  0
  190.3630  178.5270  142.9690 C   0  0  0  0  0  2  0  0  0  0  0  0
  189.8250  177.3990  142.0920 C   0  0  0  0  0  3  0  0  0  0  0  0
  188.6910  178.0170  144.6840 N   0  0  0  0  0  0  0  0  0  0  0  0
  186.7550  177.5020  146.7770 C   0  0  0  0  0  1  0  0  0  0  0  0
  189.1880  176.3760  146.7030 O   0  0  0  0  0  0  0  0  0  0  0  0
  189.0790  178.7700  147.1920 O   0  0  0  0  0  0  0  0  0  0  0  0
  188.4830  177.6620  146.3710 S   0  0  0  0  0  0  0  0  0  0  0  0
  187.5340  178.1190  138.2360 C   0  0  0  0  0  2  0  0  0  0  0  0
  186.0480  178.2640  137.9560 C   0  0  0  0  0  2  0  0  0  0  0  0
  185.5280  179.3730  138.6460 O   0  0  0  0  0  0  0  0  0  0  0  0
  184.5800  178.9310  139.6000 C   0  0  1  0  0  3  0  0  0  0  0  0
  186.0610  179.7520  141.3490 O   0  0  0  0  0  1  0  0  0  0  0  0
  185.1800  178.7230  141.0000 C   0  0  1  0  0  3  0  0  0  0  0  0
  184.1050  178.5260  142.0690 C   0  0  0  0  0  2  0  0  0  0  0  0
  184.6150  178.7480  143.4870 C   0  0  0  0  0  2  0  0  0  0  0  0
  183.7460  179.5870  144.1820 O   0  0  0  0  0  1  0  0  0  0  0  0
  183.3780  179.7620  139.6180 N   0  0  0  0  0  2  0  0  0  0  0  0
  181.1310  178.9010  139.3370 C   0  0  0  0  0  1  0  0  0  0  0  0
  182.4510  179.1960  138.6570 C   0  0  0  0  0  2  0  0  0  0  0  0
  1  6  1  0  0  0  0
  3  2  1  0  0  0  0
  3 19  1  0  0  0  0
  4  1  2  0  0  0  0
  4  7  1  0  0  0  0
  5  8  1  0  0  0  0
  5  7  1  0  0  0  0
  6  2  2  0  0  0  0
  7  3  2  0  0  0  0
  8 30  1  6  0  0  0
  9  5  1  0  0  0  0
  9  8  1  0  0  0  0
 11 18  1  0  0  0  0
 11 16  2  0  0  0  0
 12 15  1  0  0  0  0
 12  1  1  0  0  0  0
 13 12  2  0  0  0  0
 15 10  1  6  0  0  0
 16 10  1  0  0  0  0
 17 14  1  0  0  0  0
 17 13  1  0  0  0  0
 17 18  1  0  0  0  0
 18 14  1  1  0  0  0
 18 15  1  0  0  0  0
 19 24  1  0  0  0  0
 20 25  1  0  0  0  0
 21 25  1  0  0  0  0
 22 21  1  0  0  0  0
 23 20  1  0  0  0  0
 24 22  1  0  0  0  0
 24 23  1  0  0  0  0
 25 29  1  0  0  0  0
 29 27  2  0  0  0  0
 29 26  1  0  0  0  0
 29 28  2  0  0  0  0
 31 30  1  0  0  0  0
 31 32  1  0  0  0  0
 33 32  1  6  0  0  0
 33 39  1  0  0  0  0
 33 35  1  0  0  0  0
 35 34  1  1  0  0  0
 35 36  1  0  0  0  0
 36 37  1  0  0  0  0
 37 38  1  0  0  0  0
 41 40  1  0  0  0  0
 41 39  1  0  0  0  0
M  END
>  <MODEL>
9

>  <REMARK>
 VINA RESULT:      -6.7      3.092     10.432
  Name = 
  13 active torsions:
  status: ('A' for Active; 'I' for Inactive)
    1  A    between atoms: O_2  and  C_11
    2  A    between atoms: O_2  and  C_35
    3  A    between atoms: C_3  and  N_21
    4  A    between atoms: C_3  and  O_23
    5  A    between atoms: C_3  and  C_27
    6  A    between atoms: C_5  and  C_6
    7  A    between atoms: C_14  and  C_19
    8  A    between atoms: C_15  and  O_23
    9  A    between atoms: C_15  and  C_37
   10  A    between atoms: C_19  and  C_27
   11  A    between atoms: N_21  and  C_30
   12  A    between atoms: S_34  and  N_40
   13  A    between atoms: C_37  and  C_38
                            x       y       z     vdW  Elec       q    Type
                         _______ _______ _______ _____ _____    ______ ____

>  <TORSDO>
F 13

$$$$
