=
 OpenBabel10222417253D

 28 31  0  0  1  0  0  0  0  0999 V2000
  182.9790  179.7710  139.4650 C   0  0  0  0  0  2  0  0  0  0  0  0
  180.5720  177.3430  140.5920 C   0  0  0  0  0  3  0  0  0  0  0  0
  181.1800  179.1090  142.8320 C   0  0  0  0  0  2  0  0  0  0  0  0
  181.7360  179.2930  139.9290 O   0  0  0  0  0  0  0  0  0  0  0  0
  182.2800  178.3230  142.1110 C   0  0  1  0  0  3  0  0  0  0  0  0
  183.4880  178.9080  138.3090 C   0  0  0  0  0  2  0  0  0  0  0  0
  179.8560  178.4290  142.6590 C   0  0  0  0  0  0  0  0  0  0  0  0
  178.9310  178.6420  143.4850 O   0  0  0  0  0  0  0  0  0  0  0  0
  181.8980  178.0630  140.6340 C   0  0  1  0  0  0  0  0  0  0  0  0
  183.1250  177.4370  138.5160 C   0  0  2  0  0  3  0  0  0  0  0  0
  182.9390  177.1170  139.9980 C   0  0  0  0  0  2  0  0  0  0  0  0
  179.6220  177.5390  141.5120 C   0  0  0  0  0  3  0  0  0  0  0  0
  183.8750  175.1990  137.7250 O   0  0  0  0  0  1  0  0  0  0  0  0
  185.2720  177.0060  137.5490 O   0  0  0  0  0  0  0  0  0  0  0  0
  184.1550  176.5470  137.9050 C   0  0  0  0  0  0  0  0  0  0  0  0
  183.5230  179.0100  142.2130 O   0  0  0  0  0  0  0  0  0  0  0  0
  189.0430  177.1540  147.4080 N   0  0  0  0  0  1  0  0  0  0  0  0
  185.6990  178.5550  146.6080 C   0  0  0  0  0  3  0  0  0  0  0  0
  186.7970  177.8170  144.5850 C   0  0  0  0  0  0  0  0  0  0  0  0
  187.8700  177.4250  145.3210 N   0  0  0  0  0  0  0  0  0  0  0  0
  186.8140  178.1440  147.3400 C   0  0  0  0  0  3  0  0  0  0  0  0
  186.8000  177.6420  143.2020 C   0  0  0  0  0  3  0  0  0  0  0  0
  187.9010  177.5770  146.6730 C   0  0  0  0  0  0  0  0  0  0  0  0
  183.4590  179.3460  145.1010 O   0  0  0  0  0  1  0  0  0  0  0  0
  184.5660  178.8010  144.4570 C   0  0  0  0  0  0  0  0  0  0  0  0
  185.6990  178.0460  142.4440 C   0  0  0  0  0  3  0  0  0  0  0  0
  184.5820  178.6320  143.0510 C   0  0  0  0  0  0  0  0  0  0  0  0
  185.6770  178.3980  145.2180 C   0  0  0  0  0  0  0  0  0  0  0  0
  1  4  1  0  0  0  0
  2  9  1  0  0  0  0
  2 12  2  0  0  0  0
  4  9  1  0  0  0  0
  5 16  1  6  0  0  0
  5  3  1  0  0  0  0
  6 10  1  0  0  0  0
  6  1  1  0  0  0  0
  7  3  1  0  0  0  0
  7  8  2  0  0  0  0
  9 11  1  6  0  0  0
  9  5  1  0  0  0  0
 10 15  1  1  0  0  0
 10 11  1  0  0  0  0
 12  7  1  0  0  0  0
 13 15  1  0  0  0  0
 14 15  2  0  0  0  0
 16 27  1  0  0  0  0
 18 21  1  0  0  0  0
 19 28  1  0  0  0  0
 19 20  2  0  0  0  0
 20 23  1  0  0  0  0
 22 19  1  0  0  0  0
 23 21  2  0  0  0  0
 23 17  1  0  0  0  0
 25 24  1  0  0  0  0
 25 28  1  0  0  0  0
 26 27  1  0  0  0  0
 26 22  2  0  0  0  0
 27 25  2  0  0  0  0
 28 18  2  0  0  0  0
M  END
>  <MODEL>
1

>  <REMARK>
 VINA RESULT:      -8.3      0.000      0.000
  Name = 
  3 active torsions:
  status: ('A' for Active; 'I' for Inactive)
    1  A    between atoms: O_12  and  C_17
    2  A    between atoms: O_12  and  C_23
    3  A    between atoms: C_18  and  C_25
                            x       y       z     vdW  Elec       q    Type
                         _______ _______ _______ _____ _____    ______ ____

>  <TORSDO>
F 3

$$$$
=
 OpenBabel10222417253D

 28 31  0  0  1  0  0  0  0  0999 V2000
  183.1640  179.7250  139.4990 C   0  0  0  0  0  2  0  0  0  0  0  0
  180.4190  177.6820  140.6160 C   0  0  0  0  0  3  0  0  0  0  0  0
  181.2350  179.3810  142.8410 C   0  0  0  0  0  2  0  0  0  0  0  0
  181.8590  179.4360  139.9470 O   0  0  0  0  0  0  0  0  0  0  0  0
  182.2230  178.4350  142.1520 C   0  0  1  0  0  3  0  0  0  0  0  0
  183.5650  178.7800  138.3650 C   0  0  0  0  0  2  0  0  0  0  0  0
  179.8310  178.8930  142.6530 C   0  0  0  0  0  0  0  0  0  0  0  0
  178.9320  179.2470  143.4590 O   0  0  0  0  0  0  0  0  0  0  0  0
  181.8320  178.2070  140.6720 C   0  0  1  0  0  0  0  0  0  0  0  0
  182.9930  177.3790  138.5860 C   0  0  2  0  0  3  0  0  0  0  0  0
  182.7390  177.1120  140.0680 C   0  0  0  0  0  2  0  0  0  0  0  0
  179.4910  178.0260  141.5150 C   0  0  0  0  0  3  0  0  0  0  0  0
  183.5750  174.9980  138.1480 O   0  0  0  0  0  1  0  0  0  0  0  0
  184.9410  176.6720  137.3890 O   0  0  0  0  0  0  0  0  0  0  0  0
  183.8950  176.3410  138.0060 C   0  0  0  0  0  0  0  0  0  0  0  0
  183.5500  178.9400  142.2670 O   0  0  0  0  0  0  0  0  0  0  0  0
  188.8680  177.2650  147.7270 N   0  0  0  0  0  1  0  0  0  0  0  0
  187.8730  177.5310  144.1610 C   0  0  0  0  0  3  0  0  0  0  0  0
  186.0330  178.1800  145.5870 C   0  0  0  0  0  0  0  0  0  0  0  0
  186.8070  177.9410  146.6790 N   0  0  0  0  0  0  0  0  0  0  0  0
  188.6460  177.2920  145.2980 C   0  0  0  0  0  3  0  0  0  0  0  0
  184.7240  178.6310  145.7470 C   0  0  0  0  0  3  0  0  0  0  0  0
  188.0900  177.5040  146.5610 C   0  0  0  0  0  0  0  0  0  0  0  0
  186.2930  178.0480  141.8910 O   0  0  0  0  0  1  0  0  0  0  0  0
  185.7540  178.2270  143.1620 C   0  0  0  0  0  0  0  0  0  0  0  0
  183.9270  178.8750  144.6280 C   0  0  0  0  0  3  0  0  0  0  0  0
  184.4210  178.6720  143.3340 C   0  0  0  0  0  0  0  0  0  0  0  0
  186.5540  177.9770  144.2910 C   0  0  0  0  0  0  0  0  0  0  0  0
  1  4  1  0  0  0  0
  2  9  1  0  0  0  0
  2 12  2  0  0  0  0
  4  9  1  0  0  0  0
  5 16  1  6  0  0  0
  5  3  1  0  0  0  0
  6 10  1  0  0  0  0
  6  1  1  0  0  0  0
  7  3  1  0  0  0  0
  7  8  2  0  0  0  0
  9 11  1  6  0  0  0
  9  5  1  0  0  0  0
 10 15  1  1  0  0  0
 10 11  1  0  0  0  0
 12  7  1  0  0  0  0
 14 15  2  0  0  0  0
 15 13  1  0  0  0  0
 16 27  1  0  0  0  0
 18 28  2  0  0  0  0
 18 21  1  0  0  0  0
 19 22  1  0  0  0  0
 19 20  2  0  0  0  0
 21 23  2  0  0  0  0
 23 20  1  0  0  0  0
 23 17  1  0  0  0  0
 24 25  1  0  0  0  0
 25 27  2  0  0  0  0
 25 28  1  0  0  0  0
 26 22  2  0  0  0  0
 27 26  1  0  0  0  0
 28 19  1  0  0  0  0
M  END
>  <MODEL>
2

>  <REMARK>
 VINA RESULT:      -8.0      0.863      1.613
  Name = 
  3 active torsions:
  status: ('A' for Active; 'I' for Inactive)
    1  A    between atoms: O_12  and  C_17
    2  A    between atoms: O_12  and  C_23
    3  A    between atoms: C_18  and  C_25
                            x       y       z     vdW  Elec       q    Type
                         _______ _______ _______ _____ _____    ______ ____

>  <TORSDO>
F 3

$$$$
=
 OpenBabel10222417253D

 28 31  0  0  1  0  0  0  0  0999 V2000
  188.6470  178.9790  137.2160 C   0  0  0  0  0  2  0  0  0  0  0  0
  186.0140  176.5560  136.8230 C   0  0  0  0  0  3  0  0  0  0  0  0
  185.0470  178.6470  138.6100 C   0  0  0  0  0  2  0  0  0  0  0  0
  187.3920  178.4780  136.8100 O   0  0  0  0  0  0  0  0  0  0  0  0
  186.3200  177.8540  138.9210 C   0  0  1  0  0  3  0  0  0  0  0  0
  189.7630  178.0070  136.8300 C   0  0  0  0  0  2  0  0  0  0  0  0
  184.1470  177.8550  137.7110 C   0  0  0  0  0  0  0  0  0  0  0  0
  182.9150  178.1090  137.6770 O   0  0  0  0  0  0  0  0  0  0  0  0
  187.0030  177.3690  137.6200 C   0  0  1  0  0  0  0  0  0  0  0  0
  189.3030  176.5550  136.9630 C   0  0  2  0  0  3  0  0  0  0  0  0
  188.1710  176.4250  137.9790 C   0  0  0  0  0  2  0  0  0  0  0  0
  184.7010  176.8040  136.8440 C   0  0  0  0  0  3  0  0  0  0  0  0
  190.2060  174.3430  137.6620 O   0  0  0  0  0  1  0  0  0  0  0  0
  191.6260  176.1080  137.3230 O   0  0  0  0  0  0  0  0  0  0  0  0
  190.4470  175.6680  137.3240 C   0  0  0  0  0  0  0  0  0  0  0  0
  187.2060  178.6370  139.7130 O   0  0  0  0  0  0  0  0  0  0  0  0
  189.0630  176.8410  147.0780 N   0  0  0  0  0  1  0  0  0  0  0  0
  186.5710  177.9160  144.5450 C   0  0  0  0  0  3  0  0  0  0  0  0
  188.7220  177.5680  143.4980 C   0  0  0  0  0  0  0  0  0  0  0  0
  189.2420  177.2200  144.7060 N   0  0  0  0  0  0  0  0  0  0  0  0
  187.1300  177.5570  145.7720 C   0  0  0  0  0  3  0  0  0  0  0  0
  189.5320  177.5640  142.3640 C   0  0  0  0  0  3  0  0  0  0  0  0
  188.4810  177.2090  145.8330 C   0  0  0  0  0  0  0  0  0  0  0  0
  185.4730  178.6090  142.0490 O   0  0  0  0  0  1  0  0  0  0  0  0
  186.8230  178.2830  142.1410 C   0  0  0  0  0  0  0  0  0  0  0  0
  189.0000  177.9210  141.1240 C   0  0  0  0  0  3  0  0  0  0  0  0
  187.6560  178.2900  140.9960 C   0  0  0  0  0  0  0  0  0  0  0  0
  187.3610  177.9280  143.3900 C   0  0  0  0  0  0  0  0  0  0  0  0
  2 12  2  0  0  0  0
  3  5  1  0  0  0  0
  4  1  1  0  0  0  0
  4  9  1  0  0  0  0
  5 16  1  6  0  0  0
  6 10  1  0  0  0  0
  6  1  1  0  0  0  0
  7  3  1  0  0  0  0
  8  7  2  0  0  0  0
  9  2  1  6  0  0  0
  9 11  1  0  0  0  0
  9  5  1  0  0  0  0
 10 15  1  1  0  0  0
 10 11  1  0  0  0  0
 12  7  1  0  0  0  0
 14 15  2  0  0  0  0
 15 13  1  0  0  0  0
 16 27  1  0  0  0  0
 18 21  1  0  0  0  0
 19 20  2  0  0  0  0
 20 23  1  0  0  0  0
 21 23  2  0  0  0  0
 22 19  1  0  0  0  0
 23 17  1  0  0  0  0
 24 25  1  0  0  0  0
 25 28  1  0  0  0  0
 26 22  2  0  0  0  0
 27 26  1  0  0  0  0
 27 25  2  0  0  0  0
 28 19  1  0  0  0  0
 28 18  2  0  0  0  0
M  END
>  <MODEL>
3

>  <REMARK>
 VINA RESULT:      -7.8      3.318      5.008
  Name = 
  3 active torsions:
  status: ('A' for Active; 'I' for Inactive)
    1  A    between atoms: O_12  and  C_17
    2  A    between atoms: O_12  and  C_23
    3  A    between atoms: C_18  and  C_25
                            x       y       z     vdW  Elec       q    Type
                         _______ _______ _______ _____ _____    ______ ____

>  <TORSDO>
F 3

$$$$
=
 OpenBabel10222417253D

 28 31  0  0  1  0  0  0  0  0999 V2000
  188.6590  179.0020  137.3790 C   0  0  0  0  0  2  0  0  0  0  0  0
  186.0290  176.6100  136.8120 C   0  0  0  0  0  3  0  0  0  0  0  0
  184.9920  178.6780  138.5880 C   0  0  0  0  0  2  0  0  0  0  0  0
  187.4220  178.5200  136.9030 O   0  0  0  0  0  0  0  0  0  0  0  0
  186.2410  177.8670  138.9460 C   0  0  1  0  0  3  0  0  0  0  0  0
  189.7850  178.0280  137.0300 C   0  0  0  0  0  2  0  0  0  0  0  0
  184.1310  177.9100  137.6310 C   0  0  0  0  0  0  0  0  0  0  0  0
  182.9050  178.1760  137.5410 O   0  0  0  0  0  0  0  0  0  0  0  0
  186.9840  177.4000  137.6720 C   0  0  1  0  0  0  0  0  0  0  0  0
  189.3070  176.5770  137.1130 C   0  0  2  0  0  3  0  0  0  0  0  0
  188.1250  176.4390  138.0700 C   0  0  0  0  0  2  0  0  0  0  0  0
  184.7190  176.8700  136.7730 C   0  0  0  0  0  3  0  0  0  0  0  0
  190.2040  174.3050  137.5930 O   0  0  0  0  0  0  0  0  0  0  0  0
  191.5640  176.1390  137.7780 O   0  0  0  0  0  1  0  0  0  0  0  0
  190.4250  175.6730  137.5140 C   0  0  0  0  0  0  0  0  0  0  0  0
  187.0940  178.6280  139.7960 O   0  0  0  0  0  0  0  0  0  0  0  0
  189.1650  176.8810  147.1150 N   0  0  0  0  0  1  0  0  0  0  0  0
  190.0250  177.3050  143.5280 C   0  0  0  0  0  3  0  0  0  0  0  0
  187.6840  177.7910  143.8850 C   0  0  0  0  0  0  0  0  0  0  0  0
  187.8400  177.5250  145.2090 N   0  0  0  0  0  0  0  0  0  0  0  0
  190.1570  177.0360  144.8910 C   0  0  0  0  0  3  0  0  0  0  0  0
  186.4360  178.1740  143.3940 C   0  0  0  0  0  3  0  0  0  0  0  0
  189.0430  177.1520  145.7240 C   0  0  0  0  0  0  0  0  0  0  0  0
  189.7230  177.8800  140.7900 O   0  0  0  0  0  1  0  0  0  0  0  0
  188.6220  177.9630  141.6370 C   0  0  0  0  0  0  0  0  0  0  0  0
  186.2740  178.4460  142.0350 C   0  0  0  0  0  3  0  0  0  0  0  0
  187.3490  178.3380  141.1450 C   0  0  0  0  0  0  0  0  0  0  0  0
  188.7830  177.6850  143.0060 C   0  0  0  0  0  0  0  0  0  0  0  0
  3  5  1  0  0  0  0
  4  1  1  0  0  0  0
  4  9  1  0  0  0  0
  5 16  1  1  0  0  0
  6 10  1  0  0  0  0
  6  1  1  0  0  0  0
  7  3  1  0  0  0  0
  8  7  2  0  0  0  0
  9  2  1  6  0  0  0
  9 11  1  0  0  0  0
  9  5  1  0  0  0  0
 10 15  1  1  0  0  0
 10 11  1  0  0  0  0
 12  2  2  0  0  0  0
 12  7  1  0  0  0  0
 15 13  2  0  0  0  0
 15 14  1  0  0  0  0
 16 27  1  0  0  0  0
 18 21  1  0  0  0  0
 19 20  2  0  0  0  0
 20 23  1  0  0  0  0
 21 23  2  0  0  0  0
 22 19  1  0  0  0  0
 23 17  1  0  0  0  0
 24 25  1  0  0  0  0
 25 28  1  0  0  0  0
 26 22  2  0  0  0  0
 27 25  2  0  0  0  0
 27 26  1  0  0  0  0
 28 18  2  0  0  0  0
 28 19  1  0  0  0  0
M  END
>  <MODEL>
4

>  <REMARK>
 VINA RESULT:      -7.7      3.533      5.280
  Name = 
  3 active torsions:
  status: ('A' for Active; 'I' for Inactive)
    1  A    between atoms: O_12  and  C_17
    2  A    between atoms: O_12  and  C_23
    3  A    between atoms: C_18  and  C_25
                            x       y       z     vdW  Elec       q    Type
                         _______ _______ _______ _____ _____    ______ ____

>  <TORSDO>
F 3

$$$$
=
 OpenBabel10222417253D

 28 31  0  0  1  0  0  0  0  0999 V2000
  180.4200  179.9220  140.2960 C   0  0  0  0  0  2  0  0  0  0  0  0
  181.9670  178.2750  137.4930 C   0  0  0  0  0  3  0  0  0  0  0  0
  182.9200  176.9840  139.9280 C   0  0  0  0  0  2  0  0  0  0  0  0
  180.6980  178.8690  139.3990 O   0  0  0  0  0  0  0  0  0  0  0  0
  183.0980  178.4880  139.6970 C   0  0  1  0  0  3  0  0  0  0  0  0
  180.1340  181.2160  139.5330 C   0  0  0  0  0  2  0  0  0  0  0  0
  182.7860  176.2690  138.6180 C   0  0  0  0  0  0  0  0  0  0  0  0
  183.0550  175.0420  138.5450 O   0  0  0  0  0  0  0  0  0  0  0  0
  181.9760  179.0470  138.7900 C   0  0  1  0  0  0  0  0  0  0  0  0
  181.0060  181.3240  138.2810 C   0  0  2  0  0  3  0  0  0  0  0  0
  182.2930  180.5150  138.4330 C   0  0  0  0  0  2  0  0  0  0  0  0
  182.3120  176.9860  137.4250 C   0  0  0  0  0  3  0  0  0  0  0  0
  182.5310  183.2910  138.3440 O   0  0  0  0  0  1  0  0  0  0  0  0
  180.4680  183.4690  137.3660 O   0  0  0  0  0  0  0  0  0  0  0  0
  181.3090  182.7510  137.9680 C   0  0  0  0  0  0  0  0  0  0  0  0
  183.1490  179.1740  140.9430 O   0  0  0  0  0  0  0  0  0  0  0  0
  187.5880  177.6720  147.1840 N   0  0  0  0  0  1  0  0  0  0  0  0
  184.3250  178.6290  145.6960 C   0  0  0  0  0  3  0  0  0  0  0  0
  185.9570  178.2610  143.9510 C   0  0  0  0  0  0  0  0  0  0  0  0
  186.8870  177.9640  144.8980 N   0  0  0  0  0  0  0  0  0  0  0  0
  185.2990  178.3210  146.6460 C   0  0  0  0  0  3  0  0  0  0  0  0
  186.3010  178.2220  142.6010 C   0  0  0  0  0  3  0  0  0  0  0  0
  186.5870  177.9880  146.2240 C   0  0  0  0  0  0  0  0  0  0  0  0
  182.3810  179.2180  143.7480 O   0  0  0  0  0  1  0  0  0  0  0  0
  183.6800  178.9080  143.3540 C   0  0  0  0  0  0  0  0  0  0  0  0
  185.3480  178.5280  141.6280 C   0  0  0  0  0  3  0  0  0  0  0  0
  184.0410  178.8800  141.9860 C   0  0  0  0  0  0  0  0  0  0  0  0
  184.6420  178.6050  144.3330 C   0  0  0  0  0  0  0  0  0  0  0  0
  4  1  1  0  0  0  0
  5  3  1  0  0  0  0
  5 16  1  1  0  0  0
  6  1  1  0  0  0  0
  7  3  1  0  0  0  0
  8  7  2  0  0  0  0
  9  2  1  6  0  0  0
  9  4  1  0  0  0  0
  9  5  1  0  0  0  0
 10 15  1  1  0  0  0
 10 11  1  0  0  0  0
 10  6  1  0  0  0  0
 11  9  1  0  0  0  0
 12  2  2  0  0  0  0
 12  7  1  0  0  0  0
 14 15  2  0  0  0  0
 15 13  1  0  0  0  0
 16 27  1  0  0  0  0
 18 21  1  0  0  0  0
 19 28  1  0  0  0  0
 19 20  2  0  0  0  0
 20 23  1  0  0  0  0
 22 19  1  0  0  0  0
 23 21  2  0  0  0  0
 23 17  1  0  0  0  0
 25 24  1  0  0  0  0
 25 28  1  0  0  0  0
 26 27  1  0  0  0  0
 26 22  2  0  0  0  0
 27 25  2  0  0  0  0
 28 18  2  0  0  0  0
M  END
>  <MODEL>
5

>  <REMARK>
 VINA RESULT:      -7.6      2.024      3.838
  Name = 
  3 active torsions:
  status: ('A' for Active; 'I' for Inactive)
    1  A    between atoms: O_12  and  C_17
    2  A    between atoms: O_12  and  C_23
    3  A    between atoms: C_18  and  C_25
                            x       y       z     vdW  Elec       q    Type
                         _______ _______ _______ _____ _____    ______ ____

>  <TORSDO>
F 3

$$$$
=
 OpenBabel10222417253D

 28 31  0  0  1  0  0  0  0  0999 V2000
  188.7240  178.4300  136.4180 C   0  0  0  0  0  2  0  0  0  0  0  0
  185.8490  176.3020  136.8230 C   0  0  0  0  0  3  0  0  0  0  0  0
  185.4920  178.6270  138.5460 C   0  0  0  0  0  2  0  0  0  0  0  0
  187.3700  178.0460  136.3320 O   0  0  0  0  0  0  0  0  0  0  0  0
  186.7210  177.7200  138.6700 C   0  0  1  0  0  3  0  0  0  0  0  0
  189.6340  177.3090  135.9130 C   0  0  0  0  0  2  0  0  0  0  0  0
  184.3490  177.8750  137.9370 C   0  0  0  0  0  0  0  0  0  0  0  0
  183.1680  178.2640  138.1310 O   0  0  0  0  0  0  0  0  0  0  0  0
  187.0590  177.0580  137.3130 C   0  0  1  0  0  0  0  0  0  0  0  0
  189.0760  175.9350  136.2860 C   0  0  2  0  0  3  0  0  0  0  0  0
  188.1810  176.0170  137.5200 C   0  0  0  0  0  2  0  0  0  0  0  0
  184.6010  176.7000  137.0880 C   0  0  0  0  0  3  0  0  0  0  0  0
  190.1670  174.1330  137.6140 O   0  0  0  0  0  1  0  0  0  0  0  0
  191.1230  174.8620  135.6640 O   0  0  0  0  0  0  0  0  0  0  0  0
  190.1810  174.9540  136.4940 C   0  0  0  0  0  0  0  0  0  0  0  0
  187.8270  178.4570  139.1790 O   0  0  0  0  0  0  0  0  0  0  0  0
  191.7000  176.4550  145.6520 N   0  0  0  0  0  1  0  0  0  0  0  0
  188.6370  177.7260  143.9830 C   0  0  0  0  0  3  0  0  0  0  0  0
  190.3410  177.2440  142.3370 C   0  0  0  0  0  0  0  0  0  0  0  0
  191.1780  176.8480  143.3340 N   0  0  0  0  0  0  0  0  0  0  0  0
  189.5160  177.3160  144.9860 C   0  0  0  0  0  3  0  0  0  0  0  0
  190.7670  177.1980  141.0110 C   0  0  0  0  0  3  0  0  0  0  0  0
  190.7950  176.8760  144.6390 C   0  0  0  0  0  0  0  0  0  0  0  0
  186.8850  178.5210  141.9300 O   0  0  0  0  0  1  0  0  0  0  0  0
  188.1740  178.1030  141.6120 C   0  0  0  0  0  0  0  0  0  0  0  0
  189.9110  177.6050  139.9870 C   0  0  0  0  0  3  0  0  0  0  0  0
  188.6190  178.0660  140.2690 C   0  0  0  0  0  0  0  0  0  0  0  0
  189.0400  177.6970  142.6430 C   0  0  0  0  0  0  0  0  0  0  0  0
  2 12  2  0  0  0  0
  3  5  1  0  0  0  0
  4  1  1  0  0  0  0
  4  9  1  0  0  0  0
  5 16  1  6  0  0  0
  6 10  1  0  0  0  0
  6  1  1  0  0  0  0
  7  8  2  0  0  0  0
  7  3  1  0  0  0  0
  9  2  1  6  0  0  0
  9 11  1  0  0  0  0
  9  5  1  0  0  0  0
 10 15  1  1  0  0  0
 10 11  1  0  0  0  0
 12  7  1  0  0  0  0
 14 15  2  0  0  0  0
 15 13  1  0  0  0  0
 16 27  1  0  0  0  0
 18 21  1  0  0  0  0
 19 28  1  0  0  0  0
 19 20  2  0  0  0  0
 20 23  1  0  0  0  0
 22 19  1  0  0  0  0
 23 21  2  0  0  0  0
 23 17  1  0  0  0  0
 25 24  1  0  0  0  0
 25 28  1  0  0  0  0
 26 27  1  0  0  0  0
 26 22  2  0  0  0  0
 27 25  2  0  0  0  0
 28 18  2  0  0  0  0
M  END
>  <MODEL>
6

>  <REMARK>
 VINA RESULT:      -7.6      3.841      5.573
  Name = 
  3 active torsions:
  status: ('A' for Active; 'I' for Inactive)
    1  A    between atoms: O_12  and  C_17
    2  A    between atoms: O_12  and  C_23
    3  A    between atoms: C_18  and  C_25
                            x       y       z     vdW  Elec       q    Type
                         _______ _______ _______ _____ _____    ______ ____

>  <TORSDO>
F 3

$$$$
=
 OpenBabel10222417253D

 28 31  0  0  1  0  0  0  0  0999 V2000
  190.5500  179.1250  143.9690 C   0  0  0  0  0  2  0  0  0  0  0  0
  191.2470  176.7060  141.3960 C   0  0  0  0  0  3  0  0  0  0  0  0
  188.8130  178.1280  140.6520 C   0  0  0  0  0  2  0  0  0  0  0  0
  190.9000  178.6590  142.6840 O   0  0  0  0  0  0  0  0  0  0  0  0
  188.9290  177.3850  141.9860 C   0  0  1  0  0  3  0  0  0  0  0  0
  191.3570  178.3940  145.0430 C   0  0  0  0  0  2  0  0  0  0  0  0
  189.7640  177.5500  139.6500 C   0  0  0  0  0  0  0  0  0  0  0  0
  189.5470  177.7020  138.4200 O   0  0  0  0  0  0  0  0  0  0  0  0
  190.3980  177.3400  142.4700 C   0  0  1  0  0  0  0  0  0  0  0  0
  191.5850  176.9310  144.6630 C   0  0  2  0  0  3  0  0  0  0  0  0
  190.4980  176.4300  143.7130 C   0  0  0  0  0  2  0  0  0  0  0  0
  190.9670  176.8310  140.0950 C   0  0  0  0  0  3  0  0  0  0  0  0
  190.8780  176.3780  146.9860 O   0  0  0  0  0  1  0  0  0  0  0  0
  192.4300  175.0750  145.9170 O   0  0  0  0  0  0  0  0  0  0  0  0
  191.6620  176.0730  145.8820 C   0  0  0  0  0  0  0  0  0  0  0  0
  188.0800  177.9840  142.9590 O   0  0  0  0  0  0  0  0  0  0  0  0
  180.3830  179.2530  142.7040 N   0  0  0  0  0  1  0  0  0  0  0  0
  183.4920  178.6280  144.6350 C   0  0  0  0  0  3  0  0  0  0  0  0
  183.9840  178.7010  142.2690 C   0  0  0  0  0  0  0  0  0  0  0  0
  182.6680  178.9310  142.0120 N   0  0  0  0  0  0  0  0  0  0  0  0
  182.1480  178.8630  144.3440 C   0  0  0  0  0  3  0  0  0  0  0  0
  184.8960  178.6270  141.2170 C   0  0  0  0  0  3  0  0  0  0  0  0
  181.7500  179.0130  143.0130 C   0  0  0  0  0  0  0  0  0  0  0  0
  186.2150  178.1810  145.1830 O   0  0  0  0  0  1  0  0  0  0  0  0
  185.7900  178.3080  143.8640 C   0  0  0  0  0  0  0  0  0  0  0  0
  186.2460  178.3900  141.4790 C   0  0  0  0  0  3  0  0  0  0  0  0
  186.7070  178.2210  142.7890 C   0  0  0  0  0  0  0  0  0  0  0  0
  184.4290  178.5420  143.5990 C   0  0  0  0  0  0  0  0  0  0  0  0
  1  6  1  0  0  0  0
  3  5  1  0  0  0  0
  4  1  1  0  0  0  0
  5  9  1  0  0  0  0
  5 16  1  1  0  0  0
  7 12  1  0  0  0  0
  7  3  1  0  0  0  0
  8  7  2  0  0  0  0
  9  2  1  6  0  0  0
  9  4  1  0  0  0  0
  9 11  1  0  0  0  0
 10  6  1  0  0  0  0
 10 15  1  1  0  0  0
 11 10  1  0  0  0  0
 12  2  2  0  0  0  0
 15 14  2  0  0  0  0
 15 13  1  0  0  0  0
 17 23  1  0  0  0  0
 19 28  1  0  0  0  0
 20 19  2  0  0  0  0
 20 23  1  0  0  0  0
 21 18  1  0  0  0  0
 22 26  2  0  0  0  0
 22 19  1  0  0  0  0
 23 21  2  0  0  0  0
 25 24  1  0  0  0  0
 26 27  1  0  0  0  0
 27 16  1  0  0  0  0
 27 25  2  0  0  0  0
 28 25  1  0  0  0  0
 28 18  2  0  0  0  0
M  END
>  <MODEL>
7

>  <REMARK>
 VINA RESULT:      -7.5      4.538      8.063
  Name = 
  3 active torsions:
  status: ('A' for Active; 'I' for Inactive)
    1  A    between atoms: O_12  and  C_17
    2  A    between atoms: O_12  and  C_23
    3  A    between atoms: C_18  and  C_25
                            x       y       z     vdW  Elec       q    Type
                         _______ _______ _______ _____ _____    ______ ____

>  <TORSDO>
F 3

$$$$
=
 OpenBabel10222417253D

 28 31  0  0  1  0  0  0  0  0999 V2000
  188.5280  179.0340  137.4490 C   0  0  0  0  0  2  0  0  0  0  0  0
  186.5700  176.1890  136.4340 C   0  0  0  0  0  3  0  0  0  0  0  0
  184.7480  178.1860  137.5260 C   0  0  0  0  0  2  0  0  0  0  0  0
  187.5850  178.3100  136.6890 O   0  0  0  0  0  0  0  0  0  0  0  0
  185.9160  177.6340  138.3490 C   0  0  1  0  0  3  0  0  0  0  0  0
  189.8290  178.2420  137.5870 C   0  0  0  0  0  2  0  0  0  0  0  0
  184.3510  177.2070  136.4640 C   0  0  0  0  0  0  0  0  0  0  0  0
  183.1920  177.2500  135.9740 O   0  0  0  0  0  0  0  0  0  0  0  0
  187.0830  177.1980  137.4300 C   0  0  1  0  0  0  0  0  0  0  0  0
  189.5520  176.7430  137.7120 C   0  0  2  0  0  3  0  0  0  0  0  0
  188.1580  176.4820  138.2770 C   0  0  0  0  0  2  0  0  0  0  0  0
  185.3170  176.2150  135.9680 C   0  0  0  0  0  3  0  0  0  0  0  0
  191.2230  176.7950  139.5570 O   0  0  0  0  0  1  0  0  0  0  0  0
  190.9140  174.8780  138.3430 O   0  0  0  0  0  0  0  0  0  0  0  0
  190.5970  176.0790  138.5460 C   0  0  0  0  0  0  0  0  0  0  0  0
  186.3410  178.5960  139.3080 O   0  0  0  0  0  0  0  0  0  0  0  0
  184.9310  178.3760  146.9800 N   0  0  0  0  0  1  0  0  0  0  0  0
  187.2340  177.9190  144.1050 C   0  0  0  0  0  3  0  0  0  0  0  0
  185.0660  178.6520  143.3250 C   0  0  0  0  0  0  0  0  0  0  0  0
  184.6230  178.6770  144.6100 N   0  0  0  0  0  0  0  0  0  0  0  0
  186.7530  177.9530  145.4150 C   0  0  0  0  0  3  0  0  0  0  0  0
  184.2090  179.0110  142.2860 C   0  0  0  0  0  3  0  0  0  0  0  0
  185.4320  178.3370  145.6500 C   0  0  0  0  0  0  0  0  0  0  0  0
  188.1740  177.8890  141.4530 O   0  0  0  0  0  1  0  0  0  0  0  0
  186.8530  178.2440  141.7120 C   0  0  0  0  0  0  0  0  0  0  0  0
  184.6610  178.9840  140.9660 C   0  0  0  0  0  3  0  0  0  0  0  0
  185.9720  178.5970  140.6610 C   0  0  0  0  0  0  0  0  0  0  0  0
  186.3940  178.2670  143.0410 C   0  0  0  0  0  0  0  0  0  0  0  0
  1  6  1  0  0  0  0
  3  5  1  0  0  0  0
  4  9  1  0  0  0  0
  4  1  1  0  0  0  0
  5 16  1  1  0  0  0
  6 10  1  0  0  0  0
  7  3  1  0  0  0  0
  8  7  2  0  0  0  0
  9  2  1  6  0  0  0
  9 11  1  0  0  0  0
  9  5  1  0  0  0  0
 10 11  1  0  0  0  0
 10 15  1  1  0  0  0
 12  2  2  0  0  0  0
 12  7  1  0  0  0  0
 14 15  2  0  0  0  0
 15 13  1  0  0  0  0
 16 27  1  0  0  0  0
 18 21  1  0  0  0  0
 19 20  2  0  0  0  0
 20 23  1  0  0  0  0
 21 23  2  0  0  0  0
 22 19  1  0  0  0  0
 23 17  1  0  0  0  0
 24 25  1  0  0  0  0
 25 28  1  0  0  0  0
 26 22  2  0  0  0  0
 27 26  1  0  0  0  0
 27 25  2  0  0  0  0
 28 19  1  0  0  0  0
 28 18  2  0  0  0  0
M  END
>  <MODEL>
8

>  <REMARK>
 VINA RESULT:      -7.4      3.464      5.505
  Name = 
  3 active torsions:
  status: ('A' for Active; 'I' for Inactive)
    1  A    between atoms: O_12  and  C_17
    2  A    between atoms: O_12  and  C_23
    3  A    between atoms: C_18  and  C_25
                            x       y       z     vdW  Elec       q    Type
                         _______ _______ _______ _____ _____    ______ ____

>  <TORSDO>
F 3

$$$$
=
 OpenBabel10222417253D

 28 31  0  0  1  0  0  0  0  0999 V2000
  188.1140  176.0880  143.2510 C   0  0  0  0  0  2  0  0  0  0  0  0
  188.0160  177.8760  146.3730 C   0  0  0  0  0  3  0  0  0  0  0  0
  185.4230  178.1930  145.0780 C   0  0  0  0  0  2  0  0  0  0  0  0
  187.7070  176.3780  144.5690 O   0  0  0  0  0  0  0  0  0  0  0  0
  186.7210  178.6120  144.3820 C   0  0  1  0  0  3  0  0  0  0  0  0
  189.6390  176.1210  143.1400 C   0  0  0  0  0  2  0  0  0  0  0  0
  185.6040  178.2010  146.5650 C   0  0  0  0  0  0  0  0  0  0  0  0
  184.6010  178.3110  147.3170 O   0  0  0  0  0  0  0  0  0  0  0  0
  187.9140  177.7570  144.8730 C   0  0  1  0  0  0  0  0  0  0  0  0
  190.2340  177.2110  144.0330 C   0  0  2  0  0  3  0  0  0  0  0  0
  189.2250  178.3280  144.2900 C   0  0  0  0  0  2  0  0  0  0  0  0
  186.9440  178.0510  147.1520 C   0  0  0  0  0  3  0  0  0  0  0  0
  192.0550  178.9070  143.9680 O   0  0  0  0  0  1  0  0  0  0  0  0
  192.0420  177.1780  142.4650 O   0  0  0  0  0  0  0  0  0  0  0  0
  191.4900  177.7550  143.4390 C   0  0  0  0  0  0  0  0  0  0  0  0
  186.5700  178.5300  142.9680 O   0  0  0  0  0  0  0  0  0  0  0  0
  180.1650  179.3240  138.5800 N   0  0  0  0  0  1  0  0  0  0  0  0
  183.8620  179.2410  138.9160 C   0  0  0  0  0  3  0  0  0  0  0  0
  182.8240  178.8730  141.0680 C   0  0  0  0  0  0  0  0  0  0  0  0
  181.6000  178.9810  140.4850 N   0  0  0  0  0  0  0  0  0  0  0  0
  182.5930  179.3500  138.3430 C   0  0  0  0  0  3  0  0  0  0  0  0
  182.9240  178.6280  142.4360 C   0  0  0  0  0  3  0  0  0  0  0  0
  181.4630  179.2160  139.1520 C   0  0  0  0  0  0  0  0  0  0  0  0
  186.4010  178.9910  140.1010 O   0  0  0  0  0  1  0  0  0  0  0  0
  185.2590  178.8870  140.8900 C   0  0  0  0  0  0  0  0  0  0  0  0
  184.1790  178.5180  143.0360 C   0  0  0  0  0  3  0  0  0  0  0  0
  185.3520  178.6520  142.2830 C   0  0  0  0  0  0  0  0  0  0  0  0
  183.9940  179.0030  140.2880 C   0  0  0  0  0  0  0  0  0  0  0  0
  1  4  1  0  0  0  0
  2 12  2  0  0  0  0
  3  7  1  0  0  0  0
  4  9  1  0  0  0  0
  5 16  1  6  0  0  0
  5  9  1  0  0  0  0
  5  3  1  0  0  0  0
  6  1  1  0  0  0  0
  6 10  1  0  0  0  0
  7 12  1  0  0  0  0
  7  8  2  0  0  0  0
  9 11  1  6  0  0  0
  9  2  1  0  0  0  0
 10 15  1  6  0  0  0
 10 11  1  0  0  0  0
 14 15  2  0  0  0  0
 15 13  1  0  0  0  0
 17 23  1  0  0  0  0
 18 28  1  0  0  0  0
 19 22  1  0  0  0  0
 20 19  1  0  0  0  0
 21 18  2  0  0  0  0
 21 23  1  0  0  0  0
 22 26  2  0  0  0  0
 23 20  2  0  0  0  0
 24 25  1  0  0  0  0
 25 27  2  0  0  0  0
 27 16  1  0  0  0  0
 27 26  1  0  0  0  0
 28 25  1  0  0  0  0
 28 19  2  0  0  0  0
M  END
>  <MODEL>
9

>  <REMARK>
 VINA RESULT:      -7.3      3.991      7.567
  Name = 
  3 active torsions:
  status: ('A' for Active; 'I' for Inactive)
    1  A    between atoms: O_12  and  C_17
    2  A    between atoms: O_12  and  C_23
    3  A    between atoms: C_18  and  C_25
                            x       y       z     vdW  Elec       q    Type
                         _______ _______ _______ _____ _____    ______ ____

>  <TORSDO>
F 3

$$$$
