=
 OpenBabel10222420383D

 42 48  0  0  1  0  0  0  0  0999 V2000
  183.4630  178.4270  138.9810 N   0  0  2  0  0  0  0  0  0  0  0  0
  181.8300  180.0860  139.0180 C   0  0  1  0  0  3  0  0  0  0  0  0
  181.9370  179.3390  140.3430 C   0  0  0  0  0  2  0  0  0  0  0  0
  183.4130  179.0980  140.3130 C   0  0  2  0  0  0  0  0  0  0  0  0
  184.4750  178.1570  139.9980 C   0  0  1  0  0  0  0  0  0  0  0  0
  183.8690  178.1690  141.4040 C   0  0  1  0  0  3  0  0  0  0  0  0
  183.1240  179.6670  138.3120 C   0  0  0  0  0  2  0  0  0  0  0  0
  180.6730  179.5960  138.2740 N   0  0  0  0  0  2  0  0  0  0  0  0
  180.5240  182.0540  137.9840 C   0  0  0  0  0  2  0  0  0  0  0  0
  180.7500  182.2490  135.5660 C   0  0  0  0  0  2  0  0  0  0  0  0
  180.2300  180.5140  135.7300 S   0  0  0  0  0  0  0  0  0  0  0  0
  180.0300  180.6880  137.5380 C   0  0  1  0  0  3  0  0  0  0  0  0
  180.3210  182.9930  136.8160 C   0  0  2  0  0  3  0  0  0  0  0  0
  182.3150  184.0200  137.6130 F   0  0  0  0  0  0  0  0  0  0  0  0
  181.3490  184.8860  135.7700 F   0  0  0  0  0  0  0  0  0  0  0  0
  181.1080  184.2900  136.9950 C   0  0  0  0  0  0  0  0  0  0  0  0
  180.3900  185.1650  137.7900 F   0  0  0  0  0  0  0  0  0  0  0  0
  185.6860  178.9540  139.8140 N   0  0  0  0  0  2  0  0  0  0  0  0
  188.4260  177.4520  137.7540 C   0  0  0  0  0  3  0  0  0  0  0  0
  189.4240  177.2900  138.7200 C   0  0  0  0  0  0  0  0  0  0  0  0
  187.9430  178.2350  140.3930 C   0  0  0  0  0  3  0  0  0  0  0  0
  190.1610  177.5380  141.0220 O   0  0  0  0  0  1  0  0  0  0  0  0
  187.1880  177.9970  138.1060 C   0  0  0  0  0  3  0  0  0  0  0  0
  186.9430  178.3920  139.4290 C   0  0  0  0  0  0  0  0  0  0  0  0
  189.1820  177.6880  140.0450 C   0  0  0  0  0  0  0  0  0  0  0  0
  190.7450  176.7280  138.3180 C   0  0  0  0  0  2  0  0  0  0  0  0
  190.7100  175.2780  138.4000 N   0  0  0  0  0  2  0  0  0  0  0  0
  191.9060  174.7950  137.7370 C   0  0  0  0  0  1  0  0  0  0  0  0
  184.6970  178.9420  142.4170 C   0  0  0  0  0  2  0  0  0  0  0  0
  185.0690  178.0300  143.5680 C   0  0  0  0  0  2  0  0  0  0  0  0
  187.0650  177.0800  144.6200 C   0  0  1  0  0  3  0  0  0  0  0  0
  186.8210  178.3040  145.3990 N   0  0  0  0  0  0  0  0  0  0  0  0
  186.5340  178.2520  143.9380 C   0  0  2  0  0  3  0  0  0  0  0  0
  185.3220  179.1720  146.9600 O   0  0  0  0  0  1  0  0  0  0  0  0
  185.6640  178.0260  146.2440 C   0  0  0  0  0  2  0  0  0  0  0  0
  188.5480  176.9560  144.3360 C   0  0  0  0  0  2  0  0  0  0  0  0
  189.3230  177.0630  145.6320 C   0  0  1  0  0  3  0  0  0  0  0  0
  190.7750  176.9900  145.3500 C   0  0  1  0  0  3  0  0  0  0  0  0
  190.1260  178.2150  145.5910 O   0  0  0  0  0  0  0  0  0  0  0  0
  191.5190  176.5670  146.5710 C   0  0  0  0  0  0  0  0  0  0  0  0
  192.2590  175.3500  146.5700 N   0  0  0  0  0  1  0  0  0  0  0  0
  191.5260  177.3000  147.5950 O   0  0  0  0  0  0  0  0  0  0  0  0
  1  7  1  6  0  0  0
  1  5  1  0  0  0  0
  1  4  1  0  0  0  0
  2  8  1  6  0  0  0
  2  3  1  0  0  0  0
  4  3  1  1  0  0  0
  4  6  1  0  0  0  0
  5 18  1  6  0  0  0
  5  4  1  0  0  0  0
  5  6  1  0  0  0  0
  6 29  1  1  0  0  0
  7  2  1  0  0  0  0
 10 11  1  0  0  0  0
 10 13  1  0  0  0  0
 11 12  1  0  0  0  0
 12  9  1  0  0  0  0
 12  8  1  1  0  0  0
 13 16  1  1  0  0  0
 13  9  1  0  0  0  0
 15 16  1  0  0  0  0
 16 14  1  0  0  0  0
 16 17  1  0  0  0  0
 19 23  2  0  0  0  0
 19 20  1  0  0  0  0
 20 25  2  0  0  0  0
 23 24  1  0  0  0  0
 24 18  1  0  0  0  0
 24 21  2  0  0  0  0
 25 21  1  0  0  0  0
 25 22  1  0  0  0  0
 26 27  1  0  0  0  0
 26 20  1  0  0  0  0
 28 27  1  0  0  0  0
 29 30  1  0  0  0  0
 31 36  1  6  0  0  0
 31 32  1  0  0  0  0
 32 35  1  0  0  0  0
 33 30  1  1  0  0  0
 33 31  1  0  0  0  0
 33 32  1  0  0  0  0
 35 34  1  0  0  0  0
 37 36  1  6  0  0  0
 38 39  1  0  0  0  0
 38 37  1  0  0  0  0
 38 40  1  1  0  0  0
 39 37  1  0  0  0  0
 40 42  2  0  0  0  0
 41 40  1  0  0  0  0
M  END
>  <MODEL>
1

>  <REMARK>
 VINA RESULT:      -7.9      0.000      0.000
  Name = 
  14 active torsions:
  status: ('A' for Active; 'I' for Inactive)
    1  A    between atoms: C_1  and  C_24
    2  A    between atoms: C_5  and  C_8
    3  A    between atoms: C_5  and  N_23
    4  A    between atoms: C_10  and  C_25
    5  A    between atoms: C_12  and  N_36
    6  A    between atoms: C_19  and  C_27
    7  A    between atoms: C_19  and  C_41
    8  A    between atoms: C_21  and  C_25
    9  A    between atoms: C_22  and  N_36
   10  A    between atoms: N_26  and  C_30
   11  A    between atoms: C_31  and  C_34
   12  A    between atoms: C_32  and  N_40
   13  A    between atoms: C_33  and  N_40
   14  A    between atoms: C_37  and  C_41
                            x       y       z     vdW  Elec       q    Type
                         _______ _______ _______ _____ _____    ______ ____

>  <TORSDO>
F 14

$$$$
=
 OpenBabel10222420383D

 42 48  0  0  1  0  0  0  0  0999 V2000
  183.9250  179.4510  144.0300 N   0  0  2  0  0  0  0  0  0  0  0  0
  182.0470  178.8190  142.8100 C   0  0  1  0  0  3  0  0  0  0  0  0
  183.1850  179.3100  141.9210 C   0  0  0  0  0  2  0  0  0  0  0  0
  184.3170  178.7910  142.7510 C   0  0  2  0  0  0  0  0  0  0  0  0
  185.3160  179.1050  143.7580 C   0  0  1  0  0  0  0  0  0  0  0  0
  185.6550  179.2850  142.2750 C   0  0  1  0  0  3  0  0  0  0  0  0
  182.7600  178.5980  144.1480 C   0  0  0  0  0  2  0  0  0  0  0  0
  181.0450  179.8730  142.9450 N   0  0  0  0  0  2  0  0  0  0  0  0
  180.1580  180.4540  140.7040 C   0  0  0  0  0  2  0  0  0  0  0  0
  179.6380  178.2420  139.8240 C   0  0  0  0  0  2  0  0  0  0  0  0
  179.6780  177.9080  141.6110 S   0  0  0  0  0  0  0  0  0  0  0  0
  179.9510  179.6740  141.9910 C   0  0  1  0  0  3  0  0  0  0  0  0
  179.3890  179.7250  139.6250 C   0  0  2  0  0  3  0  0  0  0  0  0
  179.2570  179.3420  137.2790 F   0  0  0  0  0  0  0  0  0  0  0  0
  179.3860  181.4770  137.9920 F   0  0  0  0  0  0  0  0  0  0  0  0
  179.8100  180.1820  138.2290 C   0  0  0  0  0  0  0  0  0  0  0  0
  181.1880  180.1280  138.1180 F   0  0  0  0  0  0  0  0  0  0  0  0
  185.7080  177.8320  144.3560 N   0  0  0  0  0  2  0  0  0  0  0  0
  189.2670  177.2020  145.3320 C   0  0  0  0  0  3  0  0  0  0  0  0
  189.1880  177.3430  146.7210 C   0  0  0  0  0  0  0  0  0  0  0  0
  186.8160  177.8110  146.5300 C   0  0  0  0  0  3  0  0  0  0  0  0
  187.8570  177.7990  148.7010 O   0  0  0  0  0  1  0  0  0  0  0  0
  188.1230  177.3590  144.5440 C   0  0  0  0  0  3  0  0  0  0  0  0
  186.8920  177.6650  145.1410 C   0  0  0  0  0  0  0  0  0  0  0  0
  187.9570  177.6530  147.3210 C   0  0  0  0  0  0  0  0  0  0  0  0
  190.4250  177.1960  147.5410 C   0  0  0  0  0  2  0  0  0  0  0  0
  191.5600  176.9260  146.6760 N   0  0  0  0  0  2  0  0  0  0  0  0
  192.1940  175.7240  147.1830 C   0  0  0  0  0  1  0  0  0  0  0  0
  186.4440  178.1270  141.6860 C   0  0  0  0  0  2  0  0  0  0  0  0
  187.6100  178.6660  140.8820 C   0  0  0  0  0  2  0  0  0  0  0  0
  189.5360  177.9950  139.5290 C   0  0  1  0  0  3  0  0  0  0  0  0
  188.4090  177.3100  138.8770 N   0  0  0  0  0  0  0  0  0  0  0  0
  188.4440  177.5000  140.3550 C   0  0  2  0  0  3  0  0  0  0  0  0
  188.5540  179.1860  137.5000 O   0  0  0  0  0  1  0  0  0  0  0  0
  187.6640  178.3410  138.1610 C   0  0  0  0  0  2  0  0  0  0  0  0
  190.7120  177.0440  139.6200 C   0  0  0  0  0  2  0  0  0  0  0  0
  191.0750  176.5510  138.2360 C   0  0  1  0  0  3  0  0  0  0  0  0
  192.4410  175.9790  138.2540 C   0  0  1  0  0  3  0  0  0  0  0  0
  191.2940  175.1640  138.2870 O   0  0  0  0  0  0  0  0  0  0  0  0
  193.0190  175.9760  136.8800 C   0  0  0  0  0  0  0  0  0  0  0  0
  194.2190  176.6940  136.6090 N   0  0  0  0  0  1  0  0  0  0  0  0
  192.4700  175.3110  135.9620 O   0  0  0  0  0  0  0  0  0  0  0  0
  1  7  1  1  0  0  0
  2  8  1  1  0  0  0
  2  7  1  0  0  0  0
  3  2  1  0  0  0  0
  4  3  1  6  0  0  0
  4  5  1  0  0  0  0
  4  1  1  0  0  0  0
  5  1  1  0  0  0  0
  5 18  1  1  0  0  0
  6 29  1  6  0  0  0
  6  4  1  0  0  0  0
  6  5  1  0  0  0  0
  9 12  1  0  0  0  0
 10 11  1  0  0  0  0
 11 12  1  0  0  0  0
 12  8  1  1  0  0  0
 13 16  1  6  0  0  0
 13 10  1  0  0  0  0
 13  9  1  0  0  0  0
 14 16  1  0  0  0  0
 15 16  1  0  0  0  0
 17 16  1  0  0  0  0
 18 24  1  0  0  0  0
 19 20  1  0  0  0  0
 20 25  2  0  0  0  0
 20 26  1  0  0  0  0
 21 25  1  0  0  0  0
 23 24  1  0  0  0  0
 23 19  2  0  0  0  0
 24 21  2  0  0  0  0
 25 22  1  0  0  0  0
 27 28  1  0  0  0  0
 27 26  1  0  0  0  0
 30 29  1  0  0  0  0
 31 36  1  1  0  0  0
 31 33  1  0  0  0  0
 32 31  1  0  0  0  0
 32 33  1  0  0  0  0
 33 30  1  6  0  0  0
 34 35  1  0  0  0  0
 35 32  1  0  0  0  0
 37 38  1  0  0  0  0
 37 39  1  0  0  0  0
 37 36  1  1  0  0  0
 38 40  1  6  0  0  0
 38 39  1  0  0  0  0
 41 40  1  0  0  0  0
 42 40  2  0  0  0  0
M  END
>  <MODEL>
2

>  <REMARK>
 VINA RESULT:      -7.6      2.748      6.567
  Name = 
  14 active torsions:
  status: ('A' for Active; 'I' for Inactive)
    1  A    between atoms: C_1  and  C_24
    2  A    between atoms: C_5  and  C_8
    3  A    between atoms: C_5  and  N_23
    4  A    between atoms: C_10  and  C_25
    5  A    between atoms: C_12  and  N_36
    6  A    between atoms: C_19  and  C_27
    7  A    between atoms: C_19  and  C_41
    8  A    between atoms: C_21  and  C_25
    9  A    between atoms: C_22  and  N_36
   10  A    between atoms: N_26  and  C_30
   11  A    between atoms: C_31  and  C_34
   12  A    between atoms: C_32  and  N_40
   13  A    between atoms: C_33  and  N_40
   14  A    between atoms: C_37  and  C_41
                            x       y       z     vdW  Elec       q    Type
                         _______ _______ _______ _____ _____    ______ ____

>  <TORSDO>
F 14

$$$$
=
 OpenBabel10222420383D

 42 48  0  0  1  0  0  0  0  0999 V2000
  186.3280  179.2550  141.1380 N   0  0  2  0  0  0  0  0  0  0  0  0
  187.9460  178.0800  139.9470 C   0  0  1  0  0  3  0  0  0  0  0  0
  188.3000  178.2340  141.4230 C   0  0  0  0  0  2  0  0  0  0  0  0
  186.9080  178.1590  141.9660 C   0  0  2  0  0  0  0  0  0  0  0  0
  185.7550  178.9080  142.4340 C   0  0  1  0  0  0  0  0  0  0  0  0
  186.8410  178.4930  143.4300 C   0  0  1  0  0  3  0  0  0  0  0  0
  186.4610  178.4580  139.9350 C   0  0  0  0  0  2  0  0  0  0  0  0
  188.7130  179.0410  139.1590 N   0  0  0  0  0  2  0  0  0  0  0  0
  190.1810  177.3010  138.1780 C   0  0  0  0  0  2  0  0  0  0  0  0
  188.6450  176.2210  136.6250 C   0  0  0  0  0  2  0  0  0  0  0  0
  187.8270  177.8260  136.8680 S   0  0  0  0  0  0  0  0  0  0  0  0
  189.1950  178.4270  137.9190 C   0  0  1  0  0  3  0  0  0  0  0  0
  190.1110  176.3780  136.9820 C   0  0  2  0  0  3  0  0  0  0  0  0
  191.5470  174.6460  136.2010 F   0  0  0  0  0  0  0  0  0  0  0  0
  191.5560  175.1060  138.4080 F   0  0  0  0  0  0  0  0  0  0  0  0
  190.7640  175.0280  137.2760 C   0  0  0  0  0  0  0  0  0  0  0  0
  189.7860  174.0700  137.4730 F   0  0  0  0  0  0  0  0  0  0  0  0
  184.6090  178.0080  142.3210 N   0  0  0  0  0  2  0  0  0  0  0  0
  181.2230  179.4150  143.0740 C   0  0  0  0  0  3  0  0  0  0  0  0
  180.6250  179.3520  141.8110 C   0  0  0  0  0  0  0  0  0  0  0  0
  182.6670  178.4100  140.9020 C   0  0  0  0  0  3  0  0  0  0  0  0
  180.7780  178.7810  139.4550 O   0  0  0  0  0  1  0  0  0  0  0  0
  182.5370  178.9710  143.2520 C   0  0  0  0  0  3  0  0  0  0  0  0
  183.2640  178.4670  142.1640 C   0  0  0  0  0  0  0  0  0  0  0  0
  181.3520  178.8510  140.7200 C   0  0  0  0  0  0  0  0  0  0  0  0
  179.2310  179.8530  141.6380 C   0  0  0  0  0  2  0  0  0  0  0  0
  179.2230  181.3060  141.6630 N   0  0  0  0  0  2  0  0  0  0  0  0
  179.0130  181.7440  140.2950 C   0  0  0  0  0  1  0  0  0  0  0  0
  186.4950  177.2420  144.2220 C   0  0  0  0  0  2  0  0  0  0  0  0
  186.7760  177.4800  145.6920 C   0  0  0  0  0  2  0  0  0  0  0  0
  188.8240  176.8900  146.8960 C   0  0  1  0  0  3  0  0  0  0  0  0
  188.6380  178.3130  147.2200 N   0  0  0  0  0  0  0  0  0  0  0  0
  188.2630  177.7730  145.8830 C   0  0  2  0  0  3  0  0  0  0  0  0
  187.9790  177.9920  149.4340 O   0  0  0  0  0  1  0  0  0  0  0  0
  187.5320  178.3740  148.1710 C   0  0  0  0  0  2  0  0  0  0  0  0
  190.2860  176.6350  146.5920 C   0  0  0  0  0  2  0  0  0  0  0  0
  190.5140  176.7090  145.0980 C   0  0  1  0  0  3  0  0  0  0  0  0
  191.6730  177.5880  144.8150 C   0  0  1  0  0  3  0  0  0  0  0  0
  191.7840  176.1840  144.8020 O   0  0  0  0  0  0  0  0  0  0  0  0
  191.6060  178.0990  143.4160 C   0  0  0  0  0  0  0  0  0  0  0  0
  191.9500  177.2470  142.3280 N   0  0  0  0  0  1  0  0  0  0  0  0
  191.2110  179.2730  143.1880 O   0  0  0  0  0  0  0  0  0  0  0  0
  1  7  1  6  0  0  0
  1  4  1  0  0  0  0
  1  5  1  0  0  0  0
  2  8  1  6  0  0  0
  2  3  1  0  0  0  0
  4  3  1  6  0  0  0
  4  5  1  0  0  0  0
  4  6  1  0  0  0  0
  5 18  1  1  0  0  0
  5  6  1  0  0  0  0
  6 29  1  1  0  0  0
  7  2  1  0  0  0  0
 10 11  1  0  0  0  0
 10 13  1  0  0  0  0
 11 12  1  0  0  0  0
 12  9  1  0  0  0  0
 12  8  1  1  0  0  0
 13 16  1  1  0  0  0
 13  9  1  0  0  0  0
 14 16  1  0  0  0  0
 16 17  1  0  0  0  0
 16 15  1  0  0  0  0
 19 23  1  0  0  0  0
 20 19  2  0  0  0  0
 21 24  1  0  0  0  0
 22 25  1  0  0  0  0
 24 18  1  0  0  0  0
 24 23  2  0  0  0  0
 25 21  2  0  0  0  0
 25 20  1  0  0  0  0
 26 27  1  0  0  0  0
 26 20  1  0  0  0  0
 28 27  1  0  0  0  0
 29 30  1  0  0  0  0
 31 36  1  6  0  0  0
 31 32  1  0  0  0  0
 32 35  1  0  0  0  0
 33 30  1  1  0  0  0
 33 31  1  0  0  0  0
 33 32  1  0  0  0  0
 35 34  1  0  0  0  0
 37 36  1  1  0  0  0
 38 40  1  6  0  0  0
 38 37  1  0  0  0  0
 39 38  1  0  0  0  0
 39 37  1  0  0  0  0
 41 40  1  0  0  0  0
 42 40  2  0  0  0  0
M  END
>  <MODEL>
3

>  <REMARK>
 VINA RESULT:      -7.6      4.542      7.910
  Name = 
  14 active torsions:
  status: ('A' for Active; 'I' for Inactive)
    1  A    between atoms: C_1  and  C_24
    2  A    between atoms: C_5  and  C_8
    3  A    between atoms: C_5  and  N_23
    4  A    between atoms: C_10  and  C_25
    5  A    between atoms: C_12  and  N_36
    6  A    between atoms: C_19  and  C_27
    7  A    between atoms: C_19  and  C_41
    8  A    between atoms: C_21  and  C_25
    9  A    between atoms: C_22  and  N_36
   10  A    between atoms: N_26  and  C_30
   11  A    between atoms: C_31  and  C_34
   12  A    between atoms: C_32  and  N_40
   13  A    between atoms: C_33  and  N_40
   14  A    between atoms: C_37  and  C_41
                            x       y       z     vdW  Elec       q    Type
                         _______ _______ _______ _____ _____    ______ ____

>  <TORSDO>
F 14

$$$$
=
 OpenBabel10222420383D

 42 48  0  0  1  0  0  0  0  0999 V2000
  188.5930  177.1530  141.9240 N   0  0  2  0  0  0  0  0  0  0  0  0
  190.5620  177.9060  142.9120 C   0  0  1  0  0  3  0  0  0  0  0  0
  190.7570  177.4900  141.4570 C   0  0  0  0  0  2  0  0  0  0  0  0
  189.4190  177.9230  140.9480 C   0  0  2  0  0  0  0  0  0  0  0  0
  188.0670  177.5120  140.6110 C   0  0  1  0  0  0  0  0  0  0  0  0
  189.1610  177.4650  139.5400 C   0  0  1  0  0  3  0  0  0  0  0  0
  189.0360  178.0010  143.0120 C   0  0  0  0  0  2  0  0  0  0  0  0
  191.0570  176.8510  143.7910 N   0  0  0  0  0  2  0  0  0  0  0  0
  189.7880  177.7390  145.7270 C   0  0  0  0  0  2  0  0  0  0  0  0
  190.5940  176.2900  147.5130 C   0  0  0  0  0  2  0  0  0  0  0  0
  191.9180  176.0980  146.2820 S   0  0  0  0  0  0  0  0  0  0  0  0
  191.1430  177.3270  145.1740 C   0  0  1  0  0  3  0  0  0  0  0  0
  189.8690  177.5920  147.2300 C   0  0  2  0  0  3  0  0  0  0  0  0
  188.0610  176.3170  148.1110 F   0  0  0  0  0  0  0  0  0  0  0  0
  188.5090  178.3090  149.0660 F   0  0  0  0  0  0  0  0  0  0  0  0
  188.4820  177.6120  147.8710 C   0  0  0  0  0  0  0  0  0  0  0  0
  187.5810  178.2180  147.0140 F   0  0  0  0  0  0  0  0  0  0  0  0
  187.2510  178.7240  140.6420 N   0  0  0  0  0  2  0  0  0  0  0  0
  184.0450  178.5600  142.5660 C   0  0  0  0  0  3  0  0  0  0  0  0
  183.1120  178.7220  141.5370 C   0  0  0  0  0  0  0  0  0  0  0  0
  184.9230  178.8900  139.9330 C   0  0  0  0  0  3  0  0  0  0  0  0
  182.6430  179.0550  139.1780 O   0  0  0  0  0  1  0  0  0  0  0  0
  185.4130  178.5570  142.2800 C   0  0  0  0  0  3  0  0  0  0  0  0
  185.8570  178.7220  140.9610 C   0  0  0  0  0  0  0  0  0  0  0  0
  183.5540  178.8910  140.2160 C   0  0  0  0  0  0  0  0  0  0  0  0
  181.6580  178.7460  141.8680 C   0  0  0  0  0  2  0  0  0  0  0  0
  181.4610  179.3330  143.1830 N   0  0  0  0  0  2  0  0  0  0  0  0
  180.4870  178.5030  143.8670 C   0  0  0  0  0  1  0  0  0  0  0  0
  189.1530  178.6660  138.6080 C   0  0  0  0  0  2  0  0  0  0  0  0
  189.1950  178.1900  137.1700 C   0  0  0  0  0  2  0  0  0  0  0  0
  189.8270  176.2420  135.8300 C   0  0  1  0  0  3  0  0  0  0  0  0
  188.4440  175.9430  136.2310 N   0  0  0  0  0  0  0  0  0  0  0  0
  189.3690  176.6730  137.1430 C   0  0  2  0  0  3  0  0  0  0  0  0
  186.2800  176.3350  135.4550 O   0  0  0  0  0  1  0  0  0  0  0  0
  187.5890  176.8120  135.4280 C   0  0  0  0  0  2  0  0  0  0  0  0
  190.6700  174.9900  135.9730 C   0  0  0  0  0  2  0  0  0  0  0  0
  192.1150  175.3750  136.2070 C   0  0  1  0  0  3  0  0  0  0  0  0
  192.5750  174.8160  137.4990 C   0  0  1  0  0  3  0  0  0  0  0  0
  192.8950  174.2070  136.2710 O   0  0  0  0  0  0  0  0  0  0  0  0
  193.7540  175.5800  138.0020 C   0  0  0  0  0  0  0  0  0  0  0  0
  193.5620  176.7460  138.7970 N   0  0  0  0  0  1  0  0  0  0  0  0
  194.9210  175.1770  137.7560 O   0  0  0  0  0  0  0  0  0  0  0  0
  1  7  1  1  0  0  0
  2  7  1  0  0  0  0
  2  8  1  1  0  0  0
  3  2  1  0  0  0  0
  4  3  1  1  0  0  0
  4  1  1  0  0  0  0
  5 18  1  6  0  0  0
  5  4  1  0  0  0  0
  5  1  1  0  0  0  0
  6 29  1  6  0  0  0
  6  5  1  0  0  0  0
  6  4  1  0  0  0  0
  9 13  1  0  0  0  0
 11 10  1  0  0  0  0
 12  8  1  6  0  0  0
 12  9  1  0  0  0  0
 12 11  1  0  0  0  0
 13 10  1  0  0  0  0
 13 16  1  6  0  0  0
 16 14  1  0  0  0  0
 16 15  1  0  0  0  0
 17 16  1  0  0  0  0
 18 24  1  0  0  0  0
 20 26  1  0  0  0  0
 20 19  2  0  0  0  0
 21 25  2  0  0  0  0
 21 24  1  0  0  0  0
 22 25  1  0  0  0  0
 23 19  1  0  0  0  0
 24 23  2  0  0  0  0
 25 20  1  0  0  0  0
 26 27  1  0  0  0  0
 27 28  1  0  0  0  0
 30 29  1  0  0  0  0
 31 36  1  1  0  0  0
 31 32  1  0  0  0  0
 31 33  1  0  0  0  0
 32 33  1  0  0  0  0
 33 30  1  6  0  0  0
 35 34  1  0  0  0  0
 35 32  1  0  0  0  0
 37 36  1  1  0  0  0
 37 39  1  0  0  0  0
 37 38  1  0  0  0  0
 38 40  1  6  0  0  0
 39 38  1  0  0  0  0
 40 41  1  0  0  0  0
 42 40  2  0  0  0  0
M  END
>  <MODEL>
4

>  <REMARK>
 VINA RESULT:      -7.6      5.857     10.173
  Name = 
  14 active torsions:
  status: ('A' for Active; 'I' for Inactive)
    1  A    between atoms: C_1  and  C_24
    2  A    between atoms: C_5  and  C_8
    3  A    between atoms: C_5  and  N_23
    4  A    between atoms: C_10  and  C_25
    5  A    between atoms: C_12  and  N_36
    6  A    between atoms: C_19  and  C_27
    7  A    between atoms: C_19  and  C_41
    8  A    between atoms: C_21  and  C_25
    9  A    between atoms: C_22  and  N_36
   10  A    between atoms: N_26  and  C_30
   11  A    between atoms: C_31  and  C_34
   12  A    between atoms: C_32  and  N_40
   13  A    between atoms: C_33  and  N_40
   14  A    between atoms: C_37  and  C_41
                            x       y       z     vdW  Elec       q    Type
                         _______ _______ _______ _____ _____    ______ ____

>  <TORSDO>
F 14

$$$$
=
 OpenBabel10222420383D

 42 48  0  0  1  0  0  0  0  0999 V2000
  190.6470  177.2900  141.0310 N   0  0  2  0  0  0  0  0  0  0  0  0
  188.8410  177.0270  142.4760 C   0  0  1  0  0  3  0  0  0  0  0  0
  188.5650  178.0410  141.3710 C   0  0  0  0  0  2  0  0  0  0  0  0
  189.3540  177.3720  140.2900 C   0  0  2  0  0  0  0  0  0  0  0  0
  190.6160  177.3260  139.5720 C   0  0  1  0  0  0  0  0  0  0  0  0
  189.4890  178.2270  139.0610 C   0  0  1  0  0  3  0  0  0  0  0  0
  190.0920  176.3160  141.9500 C   0  0  0  0  0  2  0  0  0  0  0  0
  189.1510  177.7310  143.7170 N   0  0  0  0  0  2  0  0  0  0  0  0
  189.0020  177.5940  146.1880 C   0  0  0  0  0  2  0  0  0  0  0  0
  186.6050  177.8710  146.5240 C   0  0  0  0  0  2  0  0  0  0  0  0
  186.6560  177.3440  144.7850 S   0  0  0  0  0  0  0  0  0  0  0  0
  188.4660  177.1070  144.8530 C   0  0  1  0  0  3  0  0  0  0  0  0
  187.8880  177.4180  147.1950 C   0  0  2  0  0  3  0  0  0  0  0  0
  187.6570  177.5090  149.5630 F   0  0  0  0  0  0  0  0  0  0  0  0
  189.5170  178.3980  148.6500 F   0  0  0  0  0  0  0  0  0  0  0  0
  188.1590  178.2040  148.4770 C   0  0  0  0  0  0  0  0  0  0  0  0
  187.5300  179.4340  148.4100 F   0  0  0  0  0  0  0  0  0  0  0  0
  190.6980  175.9960  138.9740 N   0  0  0  0  0  2  0  0  0  0  0  0
  193.6930  176.1210  136.7320 C   0  0  0  0  0  3  0  0  0  0  0  0
  193.6340  174.8540  136.1440 C   0  0  0  0  0  0  0  0  0  0  0  0
  191.6430  174.3550  137.4360 C   0  0  0  0  0  3  0  0  0  0  0  0
  192.5300  172.7010  135.9280 O   0  0  0  0  0  1  0  0  0  0  0  0
  192.7260  176.5070  137.6650 C   0  0  0  0  0  3  0  0  0  0  0  0
  191.6970  175.6240  138.0210 C   0  0  0  0  0  0  0  0  0  0  0  0
  192.6060  173.9660  136.5000 C   0  0  0  0  0  0  0  0  0  0  0  0
  194.6890  174.4530  135.1690 C   0  0  0  0  0  2  0  0  0  0  0  0
  195.8370  173.9150  135.8780 N   0  0  0  0  0  2  0  0  0  0  0  0
  196.4050  172.8840  135.0290 C   0  0  0  0  0  1  0  0  0  0  0  0
  188.6870  177.6120  137.9250 C   0  0  0  0  0  2  0  0  0  0  0  0
  188.5070  178.6350  136.8220 C   0  0  0  0  0  2  0  0  0  0  0  0
  186.5050  177.2800  136.4350 C   0  0  1  0  0  3  0  0  0  0  0  0
  186.7860  177.8540  135.1100 N   0  0  0  0  0  0  0  0  0  0  0  0
  187.0520  178.6270  136.3560 C   0  0  2  0  0  3  0  0  0  0  0  0
  187.6980  175.7660  134.6120 O   0  0  0  0  0  1  0  0  0  0  0  0
  187.9490  177.1370  134.5940 C   0  0  0  0  0  2  0  0  0  0  0  0
  185.0150  177.3530  136.7040 C   0  0  0  0  0  2  0  0  0  0  0  0
  184.7730  177.4590  138.1940 C   0  0  1  0  0  3  0  0  0  0  0  0
  183.8110  178.5520  138.4650 C   0  0  1  0  0  3  0  0  0  0  0  0
  183.4160  177.2010  138.4570 O   0  0  0  0  0  0  0  0  0  0  0  0
  183.9490  179.0250  139.8730 C   0  0  0  0  0  0  0  0  0  0  0  0
  182.9460  178.7080  140.8330 N   0  0  0  0  0  1  0  0  0  0  0  0
  184.9680  179.6760  140.2260 O   0  0  0  0  0  0  0  0  0  0  0  0
  1  7  1  6  0  0  0
  2  8  1  1  0  0  0
  3  2  1  0  0  0  0
  4  1  1  0  0  0  0
  4  3  1  6  0  0  0
  5 18  1  6  0  0  0
  5  4  1  0  0  0  0
  5  1  1  0  0  0  0
  6 29  1  6  0  0  0
  6  5  1  0  0  0  0
  6  4  1  0  0  0  0
  7  2  1  0  0  0  0
  9 13  1  0  0  0  0
 10 13  1  0  0  0  0
 11 12  1  0  0  0  0
 11 10  1  0  0  0  0
 12  8  1  6  0  0  0
 12  9  1  0  0  0  0
 13 16  1  1  0  0  0
 16 15  1  0  0  0  0
 16 14  1  0  0  0  0
 17 16  1  0  0  0  0
 19 23  1  0  0  0  0
 20 25  1  0  0  0  0
 20 19  2  0  0  0  0
 21 24  1  0  0  0  0
 22 25  1  0  0  0  0
 23 24  2  0  0  0  0
 24 18  1  0  0  0  0
 25 21  2  0  0  0  0
 26 27  1  0  0  0  0
 26 20  1  0  0  0  0
 28 27  1  0  0  0  0
 30 29  1  0  0  0  0
 31 36  1  6  0  0  0
 32 33  1  0  0  0  0
 32 31  1  0  0  0  0
 33 31  1  0  0  0  0
 33 30  1  1  0  0  0
 35 34  1  0  0  0  0
 35 32  1  0  0  0  0
 37 36  1  6  0  0  0
 37 39  1  0  0  0  0
 37 38  1  0  0  0  0
 38 40  1  1  0  0  0
 39 38  1  0  0  0  0
 40 42  2  0  0  0  0
 40 41  1  0  0  0  0
M  END
>  <MODEL>
5

>  <REMARK>
 VINA RESULT:      -7.5      5.434      9.611
  Name = 
  14 active torsions:
  status: ('A' for Active; 'I' for Inactive)
    1  A    between atoms: C_1  and  C_24
    2  A    between atoms: C_5  and  C_8
    3  A    between atoms: C_5  and  N_23
    4  A    between atoms: C_10  and  C_25
    5  A    between atoms: C_12  and  N_36
    6  A    between atoms: C_19  and  C_27
    7  A    between atoms: C_19  and  C_41
    8  A    between atoms: C_21  and  C_25
    9  A    between atoms: C_22  and  N_36
   10  A    between atoms: N_26  and  C_30
   11  A    between atoms: C_31  and  C_34
   12  A    between atoms: C_32  and  N_40
   13  A    between atoms: C_33  and  N_40
   14  A    between atoms: C_37  and  C_41
                            x       y       z     vdW  Elec       q    Type
                         _______ _______ _______ _____ _____    ______ ____

>  <TORSDO>
F 14

$$$$
=
 OpenBabel10222420383D

 42 48  0  0  1  0  0  0  0  0999 V2000
  187.0160  179.0610  141.0000 N   0  0  2  0  0  0  0  0  0  0  0  0
  185.2480  178.6160  139.5530 C   0  0  1  0  0  3  0  0  0  0  0  0
  186.5960  178.6440  138.8400 C   0  0  0  0  0  2  0  0  0  0  0  0
  187.4170  178.0750  139.9550 C   0  0  2  0  0  0  0  0  0  0  0  0
  188.2970  178.3660  141.0730 C   0  0  1  0  0  0  0  0  0  0  0  0
  188.8930  178.1490  139.6790 C   0  0  1  0  0  3  0  0  0  0  0  0
  185.6680  178.5310  141.0240 C   0  0  0  0  0  2  0  0  0  0  0  0
  184.5410  179.8700  139.3060 N   0  0  0  0  0  2  0  0  0  0  0  0
  182.3630  180.8640  138.6630 C   0  0  0  0  0  2  0  0  0  0  0  0
  181.5100  179.1660  137.1370 C   0  0  0  0  0  2  0  0  0  0  0  0
  182.7410  178.2100  138.0740 S   0  0  0  0  0  0  0  0  0  0  0  0
  183.1020  179.6330  139.1610 C   0  0  1  0  0  3  0  0  0  0  0  0
  181.1130  180.3710  137.9700 C   0  0  2  0  0  3  0  0  0  0  0  0
  179.1660  181.6570  137.4970 F   0  0  0  0  0  0  0  0  0  0  0  0
  181.1730  182.6520  137.2440 F   0  0  0  0  0  0  0  0  0  0  0  0
  180.4800  181.4630  137.1090 C   0  0  0  0  0  0  0  0  0  0  0  0
  180.4960  181.0770  135.7810 F   0  0  0  0  0  0  0  0  0  0  0  0
  188.2550  177.1940  141.9430 N   0  0  0  0  0  2  0  0  0  0  0  0
  187.8520  177.3310  145.6620 C   0  0  0  0  0  3  0  0  0  0  0  0
  189.1890  177.3430  146.0710 C   0  0  0  0  0  0  0  0  0  0  0  0
  189.8900  177.2490  143.7510 C   0  0  0  0  0  3  0  0  0  0  0  0
  191.5480  177.3070  145.4970 O   0  0  0  0  0  1  0  0  0  0  0  0
  187.5340  177.2850  144.3010 C   0  0  0  0  0  3  0  0  0  0  0  0
  188.5540  177.2430  143.3410 C   0  0  0  0  0  0  0  0  0  0  0  0
  190.2120  177.2970  145.1110 C   0  0  0  0  0  0  0  0  0  0  0  0
  189.5050  177.3680  147.5280 C   0  0  0  0  0  2  0  0  0  0  0  0
  188.3180  177.0360  148.2970 N   0  0  0  0  0  2  0  0  0  0  0  0
  187.8790  178.2630  148.9350 C   0  0  0  0  0  1  0  0  0  0  0  0
  189.4410  176.7480  139.4630 C   0  0  0  0  0  2  0  0  0  0  0  0
  189.7820  176.5580  137.9990 C   0  0  0  0  0  2  0  0  0  0  0  0
  191.1210  175.1940  136.4700 C   0  0  1  0  0  3  0  0  0  0  0  0
  190.4980  174.1980  137.3560 N   0  0  0  0  0  0  0  0  0  0  0  0
  190.9090  175.5350  137.8690 C   0  0  2  0  0  3  0  0  0  0  0  0
  188.7630  172.7910  136.6860 O   0  0  0  0  0  1  0  0  0  0  0  0
  189.0960  174.1170  136.9570 C   0  0  0  0  0  2  0  0  0  0  0  0
  192.5750  174.8280  136.2520 C   0  0  0  0  0  2  0  0  0  0  0  0
  193.3130  174.8720  137.5730 C   0  0  1  0  0  3  0  0  0  0  0  0
  194.7150  174.4370  137.3740 C   0  0  1  0  0  3  0  0  0  0  0  0
  194.3670  175.7970  137.4780 O   0  0  0  0  0  0  0  0  0  0  0  0
  195.2990  173.9680  138.6640 C   0  0  0  0  0  0  0  0  0  0  0  0
  196.0350  174.8720  139.4830 N   0  0  0  0  0  1  0  0  0  0  0  0
  195.1140  172.7840  139.0510 O   0  0  0  0  0  0  0  0  0  0  0  0
  1  7  1  1  0  0  0
  1  5  1  0  0  0  0
  2  8  1  1  0  0  0
  2  7  1  0  0  0  0
  3  2  1  0  0  0  0
  4  3  1  6  0  0  0
  4  1  1  0  0  0  0
  4  5  1  0  0  0  0
  5 18  1  1  0  0  0
  6 29  1  1  0  0  0
  6  4  1  0  0  0  0
  6  5  1  0  0  0  0
  9 12  1  0  0  0  0
 10 13  1  0  0  0  0
 10 11  1  0  0  0  0
 11 12  1  0  0  0  0
 12  8  1  6  0  0  0
 13 16  1  6  0  0  0
 13  9  1  0  0  0  0
 16 15  1  0  0  0  0
 16 14  1  0  0  0  0
 17 16  1  0  0  0  0
 18 24  1  0  0  0  0
 19 20  1  0  0  0  0
 20 26  1  0  0  0  0
 21 25  1  0  0  0  0
 23 19  2  0  0  0  0
 24 21  2  0  0  0  0
 24 23  1  0  0  0  0
 25 22  1  0  0  0  0
 25 20  2  0  0  0  0
 26 27  1  0  0  0  0
 27 28  1  0  0  0  0
 30 29  1  0  0  0  0
 31 36  1  1  0  0  0
 31 32  1  0  0  0  0
 31 33  1  0  0  0  0
 32 33  1  0  0  0  0
 33 30  1  6  0  0  0
 34 35  1  0  0  0  0
 35 32  1  0  0  0  0
 37 36  1  6  0  0  0
 38 39  1  0  0  0  0
 38 37  1  0  0  0  0
 38 40  1  1  0  0  0
 39 37  1  0  0  0  0
 40 42  2  0  0  0  0
 40 41  1  0  0  0  0
M  END
>  <MODEL>
6

>  <REMARK>
 VINA RESULT:      -7.5      2.764      7.017
  Name = 
  14 active torsions:
  status: ('A' for Active; 'I' for Inactive)
    1  A    between atoms: C_1  and  C_24
    2  A    between atoms: C_5  and  C_8
    3  A    between atoms: C_5  and  N_23
    4  A    between atoms: C_10  and  C_25
    5  A    between atoms: C_12  and  N_36
    6  A    between atoms: C_19  and  C_27
    7  A    between atoms: C_19  and  C_41
    8  A    between atoms: C_21  and  C_25
    9  A    between atoms: C_22  and  N_36
   10  A    between atoms: N_26  and  C_30
   11  A    between atoms: C_31  and  C_34
   12  A    between atoms: C_32  and  N_40
   13  A    between atoms: C_33  and  N_40
   14  A    between atoms: C_37  and  C_41
                            x       y       z     vdW  Elec       q    Type
                         _______ _______ _______ _____ _____    ______ ____

>  <TORSDO>
F 14

$$$$
=
 OpenBabel10222420383D

 42 48  0  0  1  0  0  0  0  0999 V2000
  189.0290  177.0240  142.5520 N   0  0  2  0  0  0  0  0  0  0  0  0
  191.1440  177.7430  143.2070 C   0  0  1  0  0  3  0  0  0  0  0  0
  191.1410  177.1240  141.8130 C   0  0  0  0  0  2  0  0  0  0  0  0
  189.7820  177.5900  141.3950 C   0  0  2  0  0  0  0  0  0  0  0  0
  188.3770  177.2460  141.2660 C   0  0  1  0  0  0  0  0  0  0  0  0
  189.3330  176.9710  140.1020 C   0  0  1  0  0  3  0  0  0  0  0  0
  189.6490  177.9710  143.4570 C   0  0  0  0  0  2  0  0  0  0  0  0
  191.6710  176.7790  144.1680 N   0  0  0  0  0  2  0  0  0  0  0  0
  190.0330  177.6720  145.8010 C   0  0  0  0  0  2  0  0  0  0  0  0
  190.4390  176.2130  147.7100 C   0  0  0  0  0  2  0  0  0  0  0  0
  191.9890  176.0140  146.7810 S   0  0  0  0  0  0  0  0  0  0  0  0
  191.4700  177.2510  145.5410 C   0  0  1  0  0  3  0  0  0  0  0  0
  189.7980  177.5220  147.2870 C   0  0  2  0  0  3  0  0  0  0  0  0
  187.5700  177.6950  146.4640 F   0  0  0  0  0  0  0  0  0  0  0  0
  187.9310  176.3820  148.2610 F   0  0  0  0  0  0  0  0  0  0  0  0
  188.3080  177.5510  147.6250 C   0  0  0  0  0  0  0  0  0  0  0  0
  188.0410  178.6250  148.4560 F   0  0  0  0  0  0  0  0  0  0  0  0
  187.6490  178.5110  141.2140 N   0  0  0  0  0  2  0  0  0  0  0  0
  183.9380  178.9550  141.0020 C   0  0  0  0  0  3  0  0  0  0  0  0
  183.5880  178.8940  142.3540 C   0  0  0  0  0  0  0  0  0  0  0  0
  185.9220  178.5750  142.9350 C   0  0  0  0  0  3  0  0  0  0  0  0
  184.2580  178.6340  144.6740 O   0  0  0  0  0  1  0  0  0  0  0  0
  185.2770  178.8320  140.6160 C   0  0  0  0  0  3  0  0  0  0  0  0
  186.2730  178.6410  141.5830 C   0  0  0  0  0  0  0  0  0  0  0  0
  184.5840  178.6990  143.3240 C   0  0  0  0  0  0  0  0  0  0  0  0
  182.1520  179.0030  142.7410 C   0  0  0  0  0  2  0  0  0  0  0  0
  181.3090  178.6190  141.6220 N   0  0  0  0  0  2  0  0  0  0  0  0
  180.0110  178.2820  142.1750 C   0  0  0  0  0  1  0  0  0  0  0  0
  189.2920  178.0340  139.0160 C   0  0  0  0  0  2  0  0  0  0  0  0
  189.9380  177.4960  137.7560 C   0  0  0  0  0  2  0  0  0  0  0  0
  191.8980  176.2920  136.9170 C   0  0  1  0  0  3  0  0  0  0  0  0
  191.2410  175.3050  137.7900 N   0  0  0  0  0  0  0  0  0  0  0  0
  191.2250  176.7580  138.1210 C   0  0  2  0  0  3  0  0  0  0  0  0
  189.7660  173.5340  137.4390 O   0  0  0  0  0  1  0  0  0  0  0  0
  190.0590  174.8450  137.0680 C   0  0  0  0  0  2  0  0  0  0  0  0
  193.3930  176.2510  137.1560 C   0  0  0  0  0  2  0  0  0  0  0  0
  193.7440  175.0290  137.9760 C   0  0  1  0  0  3  0  0  0  0  0  0
  195.0060  174.4390  137.4750 C   0  0  1  0  0  3  0  0  0  0  0  0
  194.9710  175.2490  138.6250 O   0  0  0  0  0  0  0  0  0  0  0  0
  195.1020  173.0050  137.8740 C   0  0  0  0  0  0  0  0  0  0  0  0
  195.2810  171.9980  136.8830 N   0  0  0  0  0  1  0  0  0  0  0  0
  195.0590  172.6820  139.0910 O   0  0  0  0  0  0  0  0  0  0  0  0
  1  7  1  1  0  0  0
  2  7  1  0  0  0  0
  2  8  1  1  0  0  0
  3  2  1  0  0  0  0
  4  3  1  1  0  0  0
  4  1  1  0  0  0  0
  5 18  1  6  0  0  0
  5  4  1  0  0  0  0
  5  1  1  0  0  0  0
  6 29  1  6  0  0  0
  6  5  1  0  0  0  0
  6  4  1  0  0  0  0
  9 13  1  0  0  0  0
 11 10  1  0  0  0  0
 12  8  1  6  0  0  0
 12  9  1  0  0  0  0
 12 11  1  0  0  0  0
 13 16  1  6  0  0  0
 13 10  1  0  0  0  0
 14 16  1  0  0  0  0
 16 15  1  0  0  0  0
 16 17  1  0  0  0  0
 18 24  1  0  0  0  0
 19 20  1  0  0  0  0
 20 26  1  0  0  0  0
 20 25  2  0  0  0  0
 21 25  1  0  0  0  0
 23 19  2  0  0  0  0
 23 24  1  0  0  0  0
 24 21  2  0  0  0  0
 25 22  1  0  0  0  0
 27 28  1  0  0  0  0
 27 26  1  0  0  0  0
 30 29  1  0  0  0  0
 31 36  1  1  0  0  0
 31 32  1  0  0  0  0
 31 33  1  0  0  0  0
 32 33  1  0  0  0  0
 33 30  1  6  0  0  0
 35 34  1  0  0  0  0
 35 32  1  0  0  0  0
 37 36  1  6  0  0  0
 37 39  1  0  0  0  0
 38 40  1  1  0  0  0
 38 37  1  0  0  0  0
 38 39  1  0  0  0  0
 40 42  2  0  0  0  0
 41 40  1  0  0  0  0
M  END
>  <MODEL>
7

>  <REMARK>
 VINA RESULT:      -7.4      5.517     10.220
  Name = 
  14 active torsions:
  status: ('A' for Active; 'I' for Inactive)
    1  A    between atoms: C_1  and  C_24
    2  A    between atoms: C_5  and  C_8
    3  A    between atoms: C_5  and  N_23
    4  A    between atoms: C_10  and  C_25
    5  A    between atoms: C_12  and  N_36
    6  A    between atoms: C_19  and  C_27
    7  A    between atoms: C_19  and  C_41
    8  A    between atoms: C_21  and  C_25
    9  A    between atoms: C_22  and  N_36
   10  A    between atoms: N_26  and  C_30
   11  A    between atoms: C_31  and  C_34
   12  A    between atoms: C_32  and  N_40
   13  A    between atoms: C_33  and  N_40
   14  A    between atoms: C_37  and  C_41
                            x       y       z     vdW  Elec       q    Type
                         _______ _______ _______ _____ _____    ______ ____

>  <TORSDO>
F 14

$$$$
=
 OpenBabel10222420383D

 42 48  0  0  1  0  0  0  0  0999 V2000
  186.3710  179.2630  141.3600 N   0  0  2  0  0  0  0  0  0  0  0  0
  184.8810  178.6640  139.6740 C   0  0  1  0  0  3  0  0  0  0  0  0
  186.3210  178.7560  139.1790 C   0  0  0  0  0  2  0  0  0  0  0  0
  186.9880  178.2750  140.4290 C   0  0  2  0  0  0  0  0  0  0  0  0
  187.6630  178.6550  141.6580 C   0  0  1  0  0  0  0  0  0  0  0  0
  188.4820  178.4350  140.3830 C   0  0  1  0  0  3  0  0  0  0  0  0
  185.0690  178.6490  141.1950 C   0  0  0  0  0  2  0  0  0  0  0  0
  184.1490  179.8620  139.2720 N   0  0  0  0  0  2  0  0  0  0  0  0
  182.9790  178.1690  137.8890 C   0  0  0  0  0  2  0  0  0  0  0  0
  180.9240  177.8700  139.1650 C   0  0  0  0  0  2  0  0  0  0  0  0
  181.4800  179.4920  139.7710 S   0  0  0  0  0  0  0  0  0  0  0  0
  182.8910  179.5030  138.6110 C   0  0  1  0  0  3  0  0  0  0  0  0
  181.5710  177.6210  137.8150 C   0  0  2  0  0  3  0  0  0  0  0  0
  182.0050  175.9710  136.1540 F   0  0  0  0  0  0  0  0  0  0  0  0
  182.3910  175.4250  138.3080 F   0  0  0  0  0  0  0  0  0  0  0  0
  181.5650  176.1360  137.4550 C   0  0  0  0  0  0  0  0  0  0  0  0
  180.2770  175.6390  137.5530 F   0  0  0  0  0  0  0  0  0  0  0  0
  187.5520  177.5080  142.5560 N   0  0  0  0  0  2  0  0  0  0  0  0
  190.4640  176.9990  144.8530 C   0  0  0  0  0  3  0  0  0  0  0  0
  189.8350  177.0820  146.0990 C   0  0  0  0  0  0  0  0  0  0  0  0
  187.7090  177.4520  144.9900 C   0  0  0  0  0  3  0  0  0  0  0  0
  187.8050  177.4000  147.3950 O   0  0  0  0  0  1  0  0  0  0  0  0
  189.7180  177.1360  143.6780 C   0  0  0  0  0  3  0  0  0  0  0  0
  188.3370  177.3640  143.7440 C   0  0  0  0  0  0  0  0  0  0  0  0
  188.4510  177.3130  146.1670 C   0  0  0  0  0  0  0  0  0  0  0  0
  190.6530  176.9570  147.3390 C   0  0  0  0  0  2  0  0  0  0  0  0
  192.0230  176.6210  146.9940 N   0  0  0  0  0  2  0  0  0  0  0  0
  192.5400  175.8130  148.0820 C   0  0  0  0  0  1  0  0  0  0  0  0
  189.1380  177.0650  140.3100 C   0  0  0  0  0  2  0  0  0  0  0  0
  190.2100  177.0740  139.2390 C   0  0  0  0  0  2  0  0  0  0  0  0
  188.7360  175.9350  137.6510 C   0  0  1  0  0  3  0  0  0  0  0  0
  189.9960  176.0720  136.9050 N   0  0  0  0  0  0  0  0  0  0  0  0
  189.5500  177.1230  137.8620 C   0  0  2  0  0  3  0  0  0  0  0  0
  190.2930  173.8540  137.5590 O   0  0  0  0  0  1  0  0  0  0  0  0
  190.9180  175.0960  137.4780 C   0  0  0  0  0  2  0  0  0  0  0  0
  187.5750  176.2710  136.7360 C   0  0  0  0  0  2  0  0  0  0  0  0
  186.8620  174.9980  136.3340 C   0  0  1  0  0  3  0  0  0  0  0  0
  185.4120  175.1330  136.6080 C   0  0  1  0  0  3  0  0  0  0  0  0
  185.9410  175.2930  135.3130 O   0  0  0  0  0  0  0  0  0  0  0  0
  184.7810  173.7870  136.7300 C   0  0  0  0  0  0  0  0  0  0  0  0
  185.0120  172.9940  137.8900 N   0  0  0  0  0  1  0  0  0  0  0  0
  184.0150  173.3620  135.8250 O   0  0  0  0  0  0  0  0  0  0  0  0
  1  7  1  1  0  0  0
  1  5  1  0  0  0  0
  2  8  1  1  0  0  0
  2  7  1  0  0  0  0
  3  2  1  0  0  0  0
  4  3  1  6  0  0  0
  4  1  1  0  0  0  0
  4  5  1  0  0  0  0
  5 18  1  1  0  0  0
  6 29  1  1  0  0  0
  6  4  1  0  0  0  0
  6  5  1  0  0  0  0
  9 12  1  0  0  0  0
 10 11  1  0  0  0  0
 12  8  1  1  0  0  0
 12 11  1  0  0  0  0
 13 16  1  1  0  0  0
 13  9  1  0  0  0  0
 13 10  1  0  0  0  0
 14 16  1  0  0  0  0
 16 17  1  0  0  0  0
 16 15  1  0  0  0  0
 18 24  1  0  0  0  0
 19 20  1  0  0  0  0
 20 25  2  0  0  0  0
 20 26  1  0  0  0  0
 21 25  1  0  0  0  0
 23 24  1  0  0  0  0
 23 19  2  0  0  0  0
 24 21  2  0  0  0  0
 25 22  1  0  0  0  0
 27 26  1  0  0  0  0
 27 28  1  0  0  0  0
 30 29  1  0  0  0  0
 31 36  1  6  0  0  0
 31 33  1  0  0  0  0
 32 35  1  0  0  0  0
 32 31  1  0  0  0  0
 32 33  1  0  0  0  0
 33 30  1  1  0  0  0
 35 34  1  0  0  0  0
 37 38  1  0  0  0  0
 37 36  1  1  0  0  0
 38 40  1  6  0  0  0
 39 37  1  0  0  0  0
 39 38  1  0  0  0  0
 40 41  1  0  0  0  0
 42 40  2  0  0  0  0
M  END
>  <MODEL>
8

>  <REMARK>
 VINA RESULT:      -7.4      3.667      7.746
  Name = 
  14 active torsions:
  status: ('A' for Active; 'I' for Inactive)
    1  A    between atoms: C_1  and  C_24
    2  A    between atoms: C_5  and  C_8
    3  A    between atoms: C_5  and  N_23
    4  A    between atoms: C_10  and  C_25
    5  A    between atoms: C_12  and  N_36
    6  A    between atoms: C_19  and  C_27
    7  A    between atoms: C_19  and  C_41
    8  A    between atoms: C_21  and  C_25
    9  A    between atoms: C_22  and  N_36
   10  A    between atoms: N_26  and  C_30
   11  A    between atoms: C_31  and  C_34
   12  A    between atoms: C_32  and  N_40
   13  A    between atoms: C_33  and  N_40
   14  A    between atoms: C_37  and  C_41
                            x       y       z     vdW  Elec       q    Type
                         _______ _______ _______ _____ _____    ______ ____

>  <TORSDO>
F 14

$$$$
=
 OpenBabel10222420383D

 42 48  0  0  1  0  0  0  0  0999 V2000
  188.9090  177.1410  142.1570 N   0  0  2  0  0  0  0  0  0  0  0  0
  190.9510  177.8400  143.0300 C   0  0  1  0  0  3  0  0  0  0  0  0
  191.0520  177.4150  141.5680 C   0  0  0  0  0  2  0  0  0  0  0  0
  189.7000  177.8850  141.1340 C   0  0  2  0  0  0  0  0  0  0  0  0
  188.3200  177.5120  140.8740 C   0  0  1  0  0  0  0  0  0  0  0  0
  189.3500  177.4310  139.7440 C   0  0  1  0  0  3  0  0  0  0  0  0
  189.4360  177.9780  143.2160 C   0  0  0  0  0  2  0  0  0  0  0  0
  191.4650  176.7730  143.8840 N   0  0  0  0  0  2  0  0  0  0  0  0
  190.1200  177.7040  145.7480 C   0  0  0  0  0  2  0  0  0  0  0  0
  190.6500  176.1300  147.5320 C   0  0  0  0  0  2  0  0  0  0  0  0
  192.0510  175.8650  146.4030 S   0  0  0  0  0  0  0  0  0  0  0  0
  191.4760  177.1930  145.2880 C   0  0  1  0  0  3  0  0  0  0  0  0
  190.0640  177.5000  147.2450 C   0  0  2  0  0  3  0  0  0  0  0  0
  187.8330  178.2130  146.8170 F   0  0  0  0  0  0  0  0  0  0  0  0
  188.1250  176.3730  148.0860 F   0  0  0  0  0  0  0  0  0  0  0  0
  188.6360  177.6200  147.7750 C   0  0  0  0  0  0  0  0  0  0  0  0
  188.6260  178.4100  148.9110 F   0  0  0  0  0  0  0  0  0  0  0  0
  187.5420  178.7460  140.9470 N   0  0  0  0  0  2  0  0  0  0  0  0
  183.8070  178.9680  140.8390 C   0  0  0  0  0  3  0  0  0  0  0  0
  183.4980  178.8660  142.1990 C   0  0  0  0  0  0  0  0  0  0  0  0
  185.8610  178.6790  142.7130 C   0  0  0  0  0  3  0  0  0  0  0  0
  184.2440  178.6120  144.4960 O   0  0  0  0  0  1  0  0  0  0  0  0
  185.1390  178.9320  140.4170 C   0  0  0  0  0  3  0  0  0  0  0  0
  186.1720  178.7870  141.3540 C   0  0  0  0  0  0  0  0  0  0  0  0
  184.5300  178.7170  143.1390 C   0  0  0  0  0  0  0  0  0  0  0  0
  182.0690  178.8820  142.6250 C   0  0  0  0  0  2  0  0  0  0  0  0
  181.2090  179.0050  141.4610 N   0  0  0  0  0  2  0  0  0  0  0  0
  180.0010  178.2560  141.7550 C   0  0  0  0  0  1  0  0  0  0  0  0
  189.3240  178.6300  138.8100 C   0  0  0  0  0  2  0  0  0  0  0  0
  189.2440  178.1510  137.3750 C   0  0  0  0  0  2  0  0  0  0  0  0
  186.9900  177.2750  136.9950 C   0  0  1  0  0  3  0  0  0  0  0  0
  187.4520  177.6190  135.6410 N   0  0  0  0  0  0  0  0  0  0  0  0
  187.8490  178.4380  136.8220 C   0  0  2  0  0  3  0  0  0  0  0  0
  187.9450  175.3400  135.6340 O   0  0  0  0  0  1  0  0  0  0  0  0
  188.4250  176.5970  135.2700 C   0  0  0  0  0  2  0  0  0  0  0  0
  185.5530  177.7270  137.1610 C   0  0  0  0  0  2  0  0  0  0  0  0
  184.6640  176.5210  137.3790 C   0  0  1  0  0  3  0  0  0  0  0  0
  183.2900  176.9690  137.7050 C   0  0  1  0  0  3  0  0  0  0  0  0
  183.6410  176.5270  136.4150 O   0  0  0  0  0  0  0  0  0  0  0  0
  182.5500  175.8910  138.4210 C   0  0  0  0  0  0  0  0  0  0  0  0
  182.2940  176.0070  139.8170 N   0  0  0  0  0  1  0  0  0  0  0  0
  182.1190  174.8900  137.7890 O   0  0  0  0  0  0  0  0  0  0  0  0
  1  7  1  1  0  0  0
  2  7  1  0  0  0  0
  2  8  1  1  0  0  0
  3  2  1  0  0  0  0
  4  3  1  1  0  0  0
  4  1  1  0  0  0  0
  5 18  1  6  0  0  0
  5  4  1  0  0  0  0
  5  1  1  0  0  0  0
  6 29  1  6  0  0  0
  6  5  1  0  0  0  0
  6  4  1  0  0  0  0
  9 13  1  0  0  0  0
 11 10  1  0  0  0  0
 12  8  1  6  0  0  0
 12  9  1  0  0  0  0
 12 11  1  0  0  0  0
 13 10  1  0  0  0  0
 13 16  1  6  0  0  0
 14 16  1  0  0  0  0
 16 15  1  0  0  0  0
 16 17  1  0  0  0  0
 18 24  1  0  0  0  0
 19 20  1  0  0  0  0
 20 26  1  0  0  0  0
 20 25  2  0  0  0  0
 21 25  1  0  0  0  0
 23 19  2  0  0  0  0
 23 24  1  0  0  0  0
 24 21  2  0  0  0  0
 25 22  1  0  0  0  0
 27 28  1  0  0  0  0
 27 26  1  0  0  0  0
 30 29  1  0  0  0  0
 31 36  1  6  0  0  0
 32 33  1  0  0  0  0
 32 31  1  0  0  0  0
 33 31  1  0  0  0  0
 33 30  1  1  0  0  0
 35 34  1  0  0  0  0
 35 32  1  0  0  0  0
 37 36  1  6  0  0  0
 37 38  1  0  0  0  0
 38 40  1  1  0  0  0
 39 37  1  0  0  0  0
 39 38  1  0  0  0  0
 40 41  1  0  0  0  0
 42 40  2  0  0  0  0
M  END
>  <MODEL>
9

>  <REMARK>
 VINA RESULT:      -7.4      5.572     10.480
  Name = 
  14 active torsions:
  status: ('A' for Active; 'I' for Inactive)
    1  A    between atoms: C_1  and  C_24
    2  A    between atoms: C_5  and  C_8
    3  A    between atoms: C_5  and  N_23
    4  A    between atoms: C_10  and  C_25
    5  A    between atoms: C_12  and  N_36
    6  A    between atoms: C_19  and  C_27
    7  A    between atoms: C_19  and  C_41
    8  A    between atoms: C_21  and  C_25
    9  A    between atoms: C_22  and  N_36
   10  A    between atoms: N_26  and  C_30
   11  A    between atoms: C_31  and  C_34
   12  A    between atoms: C_32  and  N_40
   13  A    between atoms: C_33  and  N_40
   14  A    between atoms: C_37  and  C_41
                            x       y       z     vdW  Elec       q    Type
                         _______ _______ _______ _____ _____    ______ ____

>  <TORSDO>
F 14

$$$$
