=
 OpenBabel10222418203D

 34 37  0  0  1  0  0  0  0  0999 V2000
  189.0370  177.0220  142.5480 C   0  0  2  0  0  3  0  0  0  0  0  0
  191.1500  177.4170  142.8260 N   0  0  0  0  0  2  0  0  0  0  0  0
  189.9240  177.7180  143.5640 C   0  0  2  0  0  3  0  0  0  0  0  0
  190.3510  176.7150  141.8230 C   0  0  2  0  0  3  0  0  0  0  0  0
  189.9150  176.5060  139.4120 N   0  0  0  0  0  2  0  0  0  0  0  0
  190.5320  177.3490  140.4400 C   0  0  2  0  0  3  0  0  0  0  0  0
  190.8500  176.1510  138.6000 C   0  0  0  0  0  0  0  0  0  0  0  0
  192.0750  176.6380  138.9560 C   0  0  0  0  0  0  0  0  0  0  0  0
  191.9880  177.3680  140.0530 C   0  0  0  0  0  2  0  0  0  0  0  0
  193.2070  176.3470  138.2030 C   0  0  0  0  0  3  0  0  0  0  0  0
  190.6920  175.3460  137.4700 C   0  0  0  0  0  0  0  0  0  0  0  0
  193.0630  175.5620  137.0950 N   0  0  0  0  0  0  0  0  0  0  0  0
  191.8470  175.0610  136.7150 C   0  0  0  0  0  3  0  0  0  0  0  0
  189.1890  173.4730  136.8790 C   0  0  0  0  0  1  0  0  0  0  0  0
  189.4300  174.8530  137.1210 O   0  0  0  0  0  0  0  0  0  0  0  0
  188.4650  176.2150  148.1050 O   0  0  0  0  0  0  0  0  0  0  0  0
  189.2800  177.2980  147.4520 S   0  0  0  0  0  0  0  0  0  0  0  0
  189.8950  177.0240  144.9320 C   0  0  1  0  0  3  0  0  0  0  0  0
  189.2360  178.5620  148.2590 O   0  0  0  0  0  0  0  0  0  0  0  0
  190.9390  176.7740  147.1670 C   0  0  0  0  0  2  0  0  0  0  0  0
  191.2140  177.1220  145.7140 C   0  0  0  0  0  2  0  0  0  0  0  0
  188.7680  177.5810  145.7870 C   0  0  0  0  0  2  0  0  0  0  0  0
  188.0480  177.9810  141.8570 C   0  0  0  0  0  2  0  0  0  0  0  0
  186.6960  178.1280  142.5530 C   0  0  0  0  0  2  0  0  0  0  0  0
  185.8430  179.1480  141.8220 C   0  0  0  0  0  2  0  0  0  0  0  0
  184.5670  179.1920  142.3860 O   0  0  0  0  0  0  0  0  0  0  0  0
  184.7820  179.5290  143.7220 C   0  0  0  0  0  2  0  0  0  0  0  0
  183.4770  179.4280  144.4970 C   0  0  1  0  0  3  0  0  0  0  0  0
  181.2610  179.3780  143.3470 C   0  0  0  0  0  1  0  0  0  0  0  0
  182.4880  178.5680  143.7230 C   0  0  0  0  0  2  0  0  0  0  0  0
  183.7250  178.8510  145.7740 O   0  0  0  0  0  0  0  0  0  0  0  0
  185.6130  177.5630  146.0040 O   0  0  0  0  0  0  0  0  0  0  0  0
  185.6660  179.6280  146.9980 O   0  0  0  0  0  1  0  0  0  0  0  0
  185.0200  178.6450  146.2530 C   0  0  0  0  0  0  0  0  0  0  0  0
  1 23  1  6  0  0  0
  1  3  1  0  0  0  0
  3  2  1  6  0  0  0
  3 18  1  0  0  0  0
  4  1  1  0  0  0  0
  4  2  1  1  0  0  0
  5  6  1  0  0  0  0
  6  9  1  6  0  0  0
  6  4  1  0  0  0  0
  7  8  1  0  0  0  0
  7  5  1  0  0  0  0
  8  9  1  0  0  0  0
 10  8  2  0  0  0  0
 11  7  2  0  0  0  0
 12 10  1  0  0  0  0
 13 12  2  0  0  0  0
 13 11  1  0  0  0  0
 14 15  1  0  0  0  0
 15 11  1  0  0  0  0
 17 16  2  0  0  0  0
 17 19  2  0  0  0  0
 18 21  1  1  0  0  0
 18 22  1  0  0  0  0
 20 17  1  0  0  0  0
 21 20  1  0  0  0  0
 22 17  1  0  0  0  0
 23 24  1  0  0  0  0
 25 26  1  0  0  0  0
 25 24  1  0  0  0  0
 26 27  1  0  0  0  0
 28 27  1  6  0  0  0
 28 31  1  0  0  0  0
 29 30  1  0  0  0  0
 30 28  1  0  0  0  0
 31 34  1  0  0  0  0
 32 34  2  0  0  0  0
 34 33  1  0  0  0  0
M  END
>  <MODEL>
1

>  <REMARK>
 VINA RESULT:      -7.7      0.000      0.000
  Name = 
  12 active torsions:
  status: ('A' for Active; 'I' for Inactive)
    1  A    between atoms: C_1  and  C_4
    2  A    between atoms: C_1  and  C_30
    3  A    between atoms: O_5  and  C_10
    4  A    between atoms: O_5  and  C_24
    5  A    between atoms: C_6  and  C_21
    6  A    between atoms: C_10  and  C_30
    7  A    between atoms: C_12  and  C_16
    8  A    between atoms: O_15  and  C_28
    9  A    between atoms: C_17  and  O_19
   10  A    between atoms: C_17  and  C_24
   11  A    between atoms: C_17  and  C_31
   12  A    between atoms: O_19  and  C_32
                            x       y       z     vdW  Elec       q    Type
                         _______ _______ _______ _____ _____    ______ ____

>  <TORSDO>
F 12

$$$$
=
 OpenBabel10222418203D

 34 37  0  0  1  0  0  0  0  0999 V2000
  184.3750  178.5250  143.1810 C   0  0  2  0  0  3  0  0  0  0  0  0
  183.4260  179.1030  145.0420 N   0  0  0  0  0  2  0  0  0  0  0  0
  183.1330  179.2790  143.6200 C   0  0  2  0  0  3  0  0  0  0  0  0
  184.6270  178.3510  144.6820 C   0  0  2  0  0  3  0  0  0  0  0  0
  187.0820  178.2970  144.8200 N   0  0  0  0  0  2  0  0  0  0  0  0
  185.8820  179.0240  145.2460 C   0  0  2  0  0  3  0  0  0  0  0  0
  187.6740  177.8830  145.8880 C   0  0  0  0  0  0  0  0  0  0  0  0
  187.0070  178.2240  147.0300 C   0  0  0  0  0  0  0  0  0  0  0  0
  185.9140  178.9090  146.7490 C   0  0  0  0  0  2  0  0  0  0  0  0
  187.4920  177.8500  148.2780 C   0  0  0  0  0  3  0  0  0  0  0  0
  188.8620  177.1510  145.9330 C   0  0  0  0  0  0  0  0  0  0  0  0
  188.6540  177.1360  148.3350 N   0  0  0  0  0  0  0  0  0  0  0  0
  189.3420  176.7820  147.2050 C   0  0  0  0  0  3  0  0  0  0  0  0
  190.6260  177.5590  144.2480 C   0  0  0  0  0  1  0  0  0  0  0  0
  189.5300  176.8080  144.7530 O   0  0  0  0  0  0  0  0  0  0  0  0
  179.4850  177.2610  140.8570 O   0  0  0  0  0  0  0  0  0  0  0  0
  179.8410  178.5560  141.5350 S   0  0  0  0  0  0  0  0  0  0  0  0
  181.8420  178.5600  143.2080 C   0  0  1  0  0  3  0  0  0  0  0  0
  179.2460  179.7250  140.8050 O   0  0  0  0  0  0  0  0  0  0  0  0
  179.3620  178.5480  143.2320 C   0  0  0  0  0  2  0  0  0  0  0  0
  180.5960  179.0110  143.9880 C   0  0  0  0  0  2  0  0  0  0  0  0
  181.5870  178.7350  141.7200 C   0  0  0  0  0  2  0  0  0  0  0  0
  185.3630  179.4050  142.3890 C   0  0  0  0  0  2  0  0  0  0  0  0
  185.9360  178.7600  141.1280 C   0  0  0  0  0  2  0  0  0  0  0  0
  187.4250  178.5250  141.2950 C   0  0  0  0  0  2  0  0  0  0  0  0
  188.0960  178.8730  140.1210 O   0  0  0  0  0  0  0  0  0  0  0  0
  187.7040  177.9100  139.1920 C   0  0  0  0  0  2  0  0  0  0  0  0
  188.8240  177.6760  138.1880 C   0  0  1  0  0  3  0  0  0  0  0  0
  187.4640  178.9610  136.5360 C   0  0  0  0  0  1  0  0  0  0  0  0
  188.8360  178.8020  137.1650 C   0  0  0  0  0  2  0  0  0  0  0  0
  190.0720  177.6290  138.8700 O   0  0  0  0  0  0  0  0  0  0  0  0
  190.5620  176.3210  140.6940 O   0  0  0  0  0  1  0  0  0  0  0  0
  191.0330  175.4160  138.6410 O   0  0  0  0  0  0  0  0  0  0  0  0
  190.5580  176.4510  139.4420 C   0  0  0  0  0  0  0  0  0  0  0  0
  1 23  1  1  0  0  0
  1  3  1  0  0  0  0
  1  4  1  0  0  0  0
  3  2  1  1  0  0  0
  4  2  1  1  0  0  0
  4  6  1  0  0  0  0
  5  6  1  0  0  0  0
  5  7  1  0  0  0  0
  6  9  1  1  0  0  0
  7 11  2  0  0  0  0
  7  8  1  0  0  0  0
  8 10  2  0  0  0  0
  9  8  1  0  0  0  0
 10 12  1  0  0  0  0
 11 13  1  0  0  0  0
 13 12  2  0  0  0  0
 14 15  1  0  0  0  0
 15 11  1  0  0  0  0
 16 17  2  0  0  0  0
 17 22  1  0  0  0  0
 17 20  1  0  0  0  0
 18 22  1  6  0  0  0
 18  3  1  0  0  0  0
 18 21  1  0  0  0  0
 19 17  2  0  0  0  0
 20 21  1  0  0  0  0
 24 25  1  0  0  0  0
 24 23  1  0  0  0  0
 26 25  1  0  0  0  0
 27 26  1  0  0  0  0
 28 30  1  6  0  0  0
 28 31  1  0  0  0  0
 28 27  1  0  0  0  0
 29 30  1  0  0  0  0
 31 34  1  0  0  0  0
 33 34  2  0  0  0  0
 34 32  1  0  0  0  0
M  END
>  <MODEL>
2

>  <REMARK>
 VINA RESULT:      -7.6      3.852      8.758
  Name = 
  12 active torsions:
  status: ('A' for Active; 'I' for Inactive)
    1  A    between atoms: C_1  and  C_4
    2  A    between atoms: C_1  and  C_30
    3  A    between atoms: O_5  and  C_10
    4  A    between atoms: O_5  and  C_24
    5  A    between atoms: C_6  and  C_21
    6  A    between atoms: C_10  and  C_30
    7  A    between atoms: C_12  and  C_16
    8  A    between atoms: O_15  and  C_28
    9  A    between atoms: C_17  and  O_19
   10  A    between atoms: C_17  and  C_24
   11  A    between atoms: C_17  and  C_31
   12  A    between atoms: O_19  and  C_32
                            x       y       z     vdW  Elec       q    Type
                         _______ _______ _______ _____ _____    ______ ____

>  <TORSDO>
F 12

$$$$
=
 OpenBabel10222418203D

 34 37  0  0  1  0  0  0  0  0999 V2000
  188.8590  177.0410  142.4700 C   0  0  2  0  0  3  0  0  0  0  0  0
  190.9540  177.4690  142.8220 N   0  0  0  0  0  2  0  0  0  0  0  0
  189.6980  177.7520  143.5150 C   0  0  2  0  0  3  0  0  0  0  0  0
  190.2030  176.7530  141.7930 C   0  0  2  0  0  3  0  0  0  0  0  0
  189.8250  176.5510  139.3710 N   0  0  0  0  0  2  0  0  0  0  0  0
  190.4230  177.3870  140.4160 C   0  0  2  0  0  3  0  0  0  0  0  0
  190.7770  176.1890  138.5820 C   0  0  0  0  0  0  0  0  0  0  0  0
  191.9970  176.6660  138.9700 C   0  0  0  0  0  0  0  0  0  0  0  0
  191.8890  177.3950  140.0650 C   0  0  0  0  0  2  0  0  0  0  0  0
  193.1450  176.3660  138.2450 C   0  0  0  0  0  3  0  0  0  0  0  0
  190.6400  175.3880  137.4480 C   0  0  0  0  0  0  0  0  0  0  0  0
  193.0220  175.5850  137.1320 N   0  0  0  0  0  0  0  0  0  0  0  0
  191.8120  175.0940  136.7220 C   0  0  0  0  0  3  0  0  0  0  0  0
  189.1030  173.5170  136.9430 C   0  0  0  0  0  1  0  0  0  0  0  0
  189.3840  174.9050  137.0670 O   0  0  0  0  0  0  0  0  0  0  0  0
  188.1960  176.3840  148.0850 O   0  0  0  0  0  0  0  0  0  0  0  0
  189.0980  177.3850  147.4160 S   0  0  0  0  0  0  0  0  0  0  0  0
  189.6310  177.0600  144.8830 C   0  0  1  0  0  3  0  0  0  0  0  0
  189.1950  178.6450  148.2250 O   0  0  0  0  0  0  0  0  0  0  0  0
  190.6920  176.7040  147.0960 C   0  0  0  0  0  2  0  0  0  0  0  0
  190.9690  177.0280  145.6370 C   0  0  0  0  0  2  0  0  0  0  0  0
  188.5820  177.7220  145.7620 C   0  0  0  0  0  2  0  0  0  0  0  0
  187.8810  177.9840  141.7420 C   0  0  0  0  0  2  0  0  0  0  0  0
  186.5450  178.2030  142.4500 C   0  0  0  0  0  2  0  0  0  0  0  0
  185.5070  178.6980  141.4610 C   0  0  0  0  0  2  0  0  0  0  0  0
  186.1230  179.0340  140.2540 O   0  0  0  0  0  0  0  0  0  0  0  0
  185.2510  178.5670  139.2710 C   0  0  0  0  0  2  0  0  0  0  0  0
  186.0450  177.9570  138.1250 C   0  0  1  0  0  3  0  0  0  0  0  0
  185.6160  175.9010  136.7770 C   0  0  0  0  0  1  0  0  0  0  0  0
  185.0950  177.2760  137.1520 C   0  0  0  0  0  2  0  0  0  0  0  0
  186.7740  178.9790  137.4540 O   0  0  0  0  0  0  0  0  0  0  0  0
  189.0020  179.4810  137.6960 O   0  0  0  0  0  1  0  0  0  0  0  0
  188.4800  177.9290  136.0920 O   0  0  0  0  0  0  0  0  0  0  0  0
  188.1140  178.8190  137.0980 C   0  0  0  0  0  0  0  0  0  0  0  0
  1 23  1  6  0  0  0
  1  3  1  0  0  0  0
  3  2  1  6  0  0  0
  3 18  1  0  0  0  0
  4  1  1  0  0  0  0
  4  2  1  1  0  0  0
  5  6  1  0  0  0  0
  6  9  1  6  0  0  0
  6  4  1  0  0  0  0
  7  8  1  0  0  0  0
  7  5  1  0  0  0  0
  8  9  1  0  0  0  0
 10  8  2  0  0  0  0
 11  7  2  0  0  0  0
 12 10  1  0  0  0  0
 13 12  2  0  0  0  0
 13 11  1  0  0  0  0
 14 15  1  0  0  0  0
 15 11  1  0  0  0  0
 17 16  2  0  0  0  0
 17 19  2  0  0  0  0
 18 21  1  1  0  0  0
 18 22  1  0  0  0  0
 20 17  1  0  0  0  0
 21 20  1  0  0  0  0
 22 17  1  0  0  0  0
 23 24  1  0  0  0  0
 25 24  1  0  0  0  0
 26 25  1  0  0  0  0
 27 26  1  0  0  0  0
 28 30  1  6  0  0  0
 28 27  1  0  0  0  0
 29 30  1  0  0  0  0
 31 28  1  0  0  0  0
 33 34  2  0  0  0  0
 34 31  1  0  0  0  0
 34 32  1  0  0  0  0
M  END
>  <MODEL>
3

>  <REMARK>
 VINA RESULT:      -7.5      2.097      4.167
  Name = 
  12 active torsions:
  status: ('A' for Active; 'I' for Inactive)
    1  A    between atoms: C_1  and  C_4
    2  A    between atoms: C_1  and  C_30
    3  A    between atoms: O_5  and  C_10
    4  A    between atoms: O_5  and  C_24
    5  A    between atoms: C_6  and  C_21
    6  A    between atoms: C_10  and  C_30
    7  A    between atoms: C_12  and  C_16
    8  A    between atoms: O_15  and  C_28
    9  A    between atoms: C_17  and  O_19
   10  A    between atoms: C_17  and  C_24
   11  A    between atoms: C_17  and  C_31
   12  A    between atoms: O_19  and  C_32
                            x       y       z     vdW  Elec       q    Type
                         _______ _______ _______ _____ _____    ______ ____

>  <TORSDO>
F 12

$$$$
=
 OpenBabel10222418203D

 34 37  0  0  1  0  0  0  0  0999 V2000
  188.9760  177.1710  142.5420 C   0  0  2  0  0  3  0  0  0  0  0  0
  191.1210  177.3670  142.7750 N   0  0  0  0  0  2  0  0  0  0  0  0
  189.9440  177.7660  143.5460 C   0  0  2  0  0  3  0  0  0  0  0  0
  190.2390  176.7570  141.7820 C   0  0  2  0  0  3  0  0  0  0  0  0
  189.7890  176.5910  139.3700 N   0  0  0  0  0  2  0  0  0  0  0  0
  190.4470  177.3940  140.4030 C   0  0  2  0  0  3  0  0  0  0  0  0
  190.7060  176.1990  138.5520 C   0  0  0  0  0  0  0  0  0  0  0  0
  191.9530  176.6250  138.9110 C   0  0  0  0  0  0  0  0  0  0  0  0
  191.9020  177.3490  140.0130 C   0  0  0  0  0  2  0  0  0  0  0  0
  193.0680  176.2880  138.1520 C   0  0  0  0  0  3  0  0  0  0  0  0
  190.5080  175.4130  137.4160 C   0  0  0  0  0  0  0  0  0  0  0  0
  192.8860  175.5210  137.0380 N   0  0  0  0  0  0  0  0  0  0  0  0
  191.6470  175.0810  136.6560 C   0  0  0  0  0  3  0  0  0  0  0  0
  188.4260  175.6580  136.1030 C   0  0  0  0  0  1  0  0  0  0  0  0
  189.2240  174.9820  137.0660 O   0  0  0  0  0  0  0  0  0  0  0  0
  188.4070  176.2620  148.0610 O   0  0  0  0  0  0  0  0  0  0  0  0
  189.2670  177.3210  147.4250 S   0  0  0  0  0  0  0  0  0  0  0  0
  189.8820  177.0560  144.9050 C   0  0  1  0  0  3  0  0  0  0  0  0
  189.2710  178.5750  148.2490 O   0  0  0  0  0  0  0  0  0  0  0  0
  190.9050  176.7350  147.1400 C   0  0  0  0  0  2  0  0  0  0  0  0
  191.2000  177.0910  145.6930 C   0  0  0  0  0  2  0  0  0  0  0  0
  188.7740  177.6460  145.7620 C   0  0  0  0  0  2  0  0  0  0  0  0
  188.0640  178.2280  141.8870 C   0  0  0  0  0  2  0  0  0  0  0  0
  186.5940  178.1610  142.3010 C   0  0  0  0  0  2  0  0  0  0  0  0
  185.7690  179.0990  141.4420 C   0  0  0  0  0  2  0  0  0  0  0  0
  184.5310  179.3320  142.0460 O   0  0  0  0  0  0  0  0  0  0  0  0
  184.3270  178.2250  142.8690 C   0  0  0  0  0  2  0  0  0  0  0  0
  183.4010  178.6000  144.0170 C   0  0  1  0  0  3  0  0  0  0  0  0
  185.2240  178.4550  145.7150 C   0  0  0  0  0  1  0  0  0  0  0  0
  184.1840  179.3580  145.0780 C   0  0  0  0  0  2  0  0  0  0  0  0
  182.3400  179.4120  143.5260 O   0  0  0  0  0  0  0  0  0  0  0  0
  180.2070  178.8290  144.1510 O   0  0  0  0  0  1  0  0  0  0  0  0
  180.7680  178.4300  141.9650 O   0  0  0  0  0  0  0  0  0  0  0  0
  181.0770  178.8860  143.2430 C   0  0  0  0  0  0  0  0  0  0  0  0
  1 23  1  6  0  0  0
  1  3  1  0  0  0  0
  3  2  1  6  0  0  0
  3 18  1  0  0  0  0
  4  1  1  0  0  0  0
  4  2  1  1  0  0  0
  5  6  1  0  0  0  0
  6  9  1  6  0  0  0
  6  4  1  0  0  0  0
  7  8  1  0  0  0  0
  7  5  1  0  0  0  0
  8  9  1  0  0  0  0
 10  8  2  0  0  0  0
 11  7  2  0  0  0  0
 12 10  1  0  0  0  0
 13 12  2  0  0  0  0
 13 11  1  0  0  0  0
 14 15  1  0  0  0  0
 15 11  1  0  0  0  0
 17 16  2  0  0  0  0
 17 19  2  0  0  0  0
 18 21  1  1  0  0  0
 18 22  1  0  0  0  0
 20 17  1  0  0  0  0
 21 20  1  0  0  0  0
 22 17  1  0  0  0  0
 23 24  1  0  0  0  0
 25 26  1  0  0  0  0
 25 24  1  0  0  0  0
 26 27  1  0  0  0  0
 28 27  1  6  0  0  0
 28 30  1  0  0  0  0
 30 29  1  0  0  0  0
 31 28  1  0  0  0  0
 33 34  2  0  0  0  0
 34 31  1  0  0  0  0
 34 32  1  0  0  0  0
M  END
>  <MODEL>
4

>  <REMARK>
 VINA RESULT:      -7.5      1.192      2.134
  Name = 
  12 active torsions:
  status: ('A' for Active; 'I' for Inactive)
    1  A    between atoms: C_1  and  C_4
    2  A    between atoms: C_1  and  C_30
    3  A    between atoms: O_5  and  C_10
    4  A    between atoms: O_5  and  C_24
    5  A    between atoms: C_6  and  C_21
    6  A    between atoms: C_10  and  C_30
    7  A    between atoms: C_12  and  C_16
    8  A    between atoms: O_15  and  C_28
    9  A    between atoms: C_17  and  O_19
   10  A    between atoms: C_17  and  C_24
   11  A    between atoms: C_17  and  C_31
   12  A    between atoms: O_19  and  C_32
                            x       y       z     vdW  Elec       q    Type
                         _______ _______ _______ _____ _____    ______ ____

>  <TORSDO>
F 12

$$$$
=
 OpenBabel10222418203D

 34 37  0  0  1  0  0  0  0  0999 V2000
  188.8740  177.5040  140.8540 C   0  0  2  0  0  3  0  0  0  0  0  0
  188.1310  178.3880  139.0200 N   0  0  0  0  0  2  0  0  0  0  0  0
  189.4430  178.0030  139.5390 C   0  0  2  0  0  3  0  0  0  0  0  0
  187.5220  177.9060  140.2580 C   0  0  2  0  0  3  0  0  0  0  0  0
  186.5870  178.7050  142.3870 N   0  0  0  0  0  2  0  0  0  0  0  0
  186.7680  179.0330  140.9710 C   0  0  2  0  0  3  0  0  0  0  0  0
  185.3180  178.6640  142.6080 C   0  0  0  0  0  0  0  0  0  0  0  0
  184.5760  178.9100  141.4880 C   0  0  0  0  0  0  0  0  0  0  0  0
  185.3580  179.1400  140.4490 C   0  0  0  0  0  2  0  0  0  0  0  0
  183.1870  178.8940  141.5330 C   0  0  0  0  0  3  0  0  0  0  0  0
  184.7090  178.3910  143.8340 C   0  0  0  0  0  0  0  0  0  0  0  0
  182.5810  178.6300  142.7270 N   0  0  0  0  0  0  0  0  0  0  0  0
  183.3000  178.3810  143.8650 C   0  0  0  0  0  3  0  0  0  0  0  0
  185.0560  178.4870  146.2810 C   0  0  0  0  0  1  0  0  0  0  0  0
  185.4830  178.1380  144.9710 O   0  0  0  0  0  0  0  0  0  0  0  0
  192.6350  174.5110  137.9180 O   0  0  0  0  0  0  0  0  0  0  0  0
  192.2980  175.9610  137.6990 S   0  0  0  0  0  0  0  0  0  0  0  0
  190.0760  176.8740  138.7150 C   0  0  1  0  0  3  0  0  0  0  0  0
  193.5150  176.7380  137.2910 O   0  0  0  0  0  0  0  0  0  0  0  0
  190.9930  176.1490  136.5280 C   0  0  0  0  0  2  0  0  0  0  0  0
  190.0040  177.0890  137.1950 C   0  0  0  0  0  2  0  0  0  0  0  0
  191.5280  176.6710  139.1190 C   0  0  0  0  0  2  0  0  0  0  0  0
  189.3830  178.3040  142.0700 C   0  0  0  0  0  2  0  0  0  0  0  0
  190.4800  177.6180  142.8840 C   0  0  0  0  0  2  0  0  0  0  0  0
  189.8810  176.9580  144.1110 C   0  0  0  0  0  2  0  0  0  0  0  0
  189.2540  177.9180  144.9090 O   0  0  0  0  0  0  0  0  0  0  0  0
  188.8910  177.2320  146.0660 C   0  0  0  0  0  2  0  0  0  0  0  0
  189.9030  177.5060  147.1680 C   0  0  1  0  0  3  0  0  0  0  0  0
  187.8320  177.5680  148.5590 C   0  0  0  0  0  1  0  0  0  0  0  0
  189.2080  178.1700  148.3470 C   0  0  0  0  0  2  0  0  0  0  0  0
  190.4970  176.2810  147.5840 O   0  0  0  0  0  0  0  0  0  0  0  0
  192.6930  176.3520  148.2560 O   0  0  0  0  0  1  0  0  0  0  0  0
  192.2850  175.3650  146.2280 O   0  0  0  0  0  0  0  0  0  0  0  0
  191.8530  176.0120  147.3830 C   0  0  0  0  0  0  0  0  0  0  0  0
  1 23  1  1  0  0  0
  3  2  1  6  0  0  0
  3  1  1  0  0  0  0
  4  2  1  6  0  0  0
  4  1  1  0  0  0  0
  4  6  1  0  0  0  0
  5  7  1  0  0  0  0
  6  9  1  6  0  0  0
  6  5  1  0  0  0  0
  7 11  1  0  0  0  0
  8 10  1  0  0  0  0
  8  7  2  0  0  0  0
  9  8  1  0  0  0  0
 10 12  2  0  0  0  0
 11 13  2  0  0  0  0
 11 15  1  0  0  0  0
 12 13  1  0  0  0  0
 15 14  1  0  0  0  0
 17 16  2  0  0  0  0
 17 22  1  0  0  0  0
 18 21  1  6  0  0  0
 18 22  1  0  0  0  0
 18  3  1  0  0  0  0
 19 17  2  0  0  0  0
 20 21  1  0  0  0  0
 20 17  1  0  0  0  0
 23 24  1  0  0  0  0
 24 25  1  0  0  0  0
 25 26  1  0  0  0  0
 26 27  1  0  0  0  0
 28 27  1  6  0  0  0
 28 31  1  0  0  0  0
 28 30  1  0  0  0  0
 30 29  1  0  0  0  0
 33 34  2  0  0  0  0
 34 31  1  0  0  0  0
 34 32  1  0  0  0  0
M  END
>  <MODEL>
5

>  <REMARK>
 VINA RESULT:      -7.2      3.157      7.950
  Name = 
  12 active torsions:
  status: ('A' for Active; 'I' for Inactive)
    1  A    between atoms: C_1  and  C_4
    2  A    between atoms: C_1  and  C_30
    3  A    between atoms: O_5  and  C_10
    4  A    between atoms: O_5  and  C_24
    5  A    between atoms: C_6  and  C_21
    6  A    between atoms: C_10  and  C_30
    7  A    between atoms: C_12  and  C_16
    8  A    between atoms: O_15  and  C_28
    9  A    between atoms: C_17  and  O_19
   10  A    between atoms: C_17  and  C_24
   11  A    between atoms: C_17  and  C_31
   12  A    between atoms: O_19  and  C_32
                            x       y       z     vdW  Elec       q    Type
                         _______ _______ _______ _____ _____    ______ ____

>  <TORSDO>
F 12

$$$$
=
 OpenBabel10222418203D

 34 37  0  0  1  0  0  0  0  0999 V2000
  183.6050  178.1610  141.3370 C   0  0  2  0  0  3  0  0  0  0  0  0
  182.4210  178.9370  142.9780 N   0  0  0  0  0  2  0  0  0  0  0  0
  182.2910  178.8950  141.5220 C   0  0  2  0  0  3  0  0  0  0  0  0
  183.6860  178.2130  142.8660 C   0  0  2  0  0  3  0  0  0  0  0  0
  186.0620  178.2270  143.4990 N   0  0  0  0  0  2  0  0  0  0  0  0
  184.8370  179.0300  143.4620 C   0  0  2  0  0  3  0  0  0  0  0  0
  186.4170  178.1320  144.7340 C   0  0  0  0  0  0  0  0  0  0  0  0
  185.5570  178.7680  145.5830 C   0  0  0  0  0  0  0  0  0  0  0  0
  184.5720  179.3360  144.9140 C   0  0  0  0  0  2  0  0  0  0  0  0
  185.7730  178.7600  146.9570 C   0  0  0  0  0  3  0  0  0  0  0  0
  187.5400  177.4540  145.2130 C   0  0  0  0  0  0  0  0  0  0  0  0
  186.8700  178.1020  147.4360 N   0  0  0  0  0  0  0  0  0  0  0  0
  187.7470  177.4570  146.6070 C   0  0  0  0  0  3  0  0  0  0  0  0
  189.8090  177.0450  144.3180 C   0  0  0  0  0  1  0  0  0  0  0  0
  188.4080  176.8050  144.3290 O   0  0  0  0  0  0  0  0  0  0  0  0
  179.5070  175.3450  139.3640 O   0  0  0  0  0  0  0  0  0  0  0  0
  180.0190  176.7340  139.0980 S   0  0  0  0  0  0  0  0  0  0  0  0
  181.0880  178.0520  141.0780 C   0  0  1  0  0  3  0  0  0  0  0  0
  180.2120  176.9620  137.6270 O   0  0  0  0  0  0  0  0  0  0  0  0
  178.9630  177.9570  139.8030 C   0  0  0  0  0  2  0  0  0  0  0  0
  179.8940  178.8780  140.5740 C   0  0  0  0  0  2  0  0  0  0  0  0
  181.5000  177.0650  139.9980 C   0  0  0  0  0  2  0  0  0  0  0  0
  184.6420  178.9780  140.5400 C   0  0  0  0  0  2  0  0  0  0  0  0
  184.2630  179.2660  139.0880 C   0  0  0  0  0  2  0  0  0  0  0  0
  184.9080  178.2450  138.1710 C   0  0  0  0  0  2  0  0  0  0  0  0
  186.1710  178.6910  137.7760 O   0  0  0  0  0  0  0  0  0  0  0  0
  186.8950  177.5260  137.5280 C   0  0  0  0  0  2  0  0  0  0  0  0
  188.2770  177.6350  138.1540 C   0  0  1  0  0  3  0  0  0  0  0  0
  190.0020  176.9120  136.5010 C   0  0  0  0  0  1  0  0  0  0  0  0
  189.2770  178.1000  137.1070 C   0  0  0  0  0  2  0  0  0  0  0  0
  188.2390  178.5630  139.2330 O   0  0  0  0  0  0  0  0  0  0  0  0
  188.3240  178.9590  141.4940 O   0  0  0  0  0  1  0  0  0  0  0  0
  189.3040  177.0180  140.7670 O   0  0  0  0  0  0  0  0  0  0  0  0
  188.6150  178.2050  140.5290 C   0  0  0  0  0  0  0  0  0  0  0  0
  1 23  1  6  0  0  0
  1  3  1  0  0  0  0
  1  4  1  0  0  0  0
  3  2  1  1  0  0  0
  4  2  1  1  0  0  0
  4  6  1  0  0  0  0
  5  7  1  0  0  0  0
  6  5  1  0  0  0  0
  6  9  1  1  0  0  0
  7 11  2  0  0  0  0
  7  8  1  0  0  0  0
  8 10  2  0  0  0  0
  9  8  1  0  0  0  0
 10 12  1  0  0  0  0
 11 13  1  0  0  0  0
 13 12  2  0  0  0  0
 14 15  1  0  0  0  0
 15 11  1  0  0  0  0
 17 16  2  0  0  0  0
 17 20  1  0  0  0  0
 17 22  1  0  0  0  0
 18 22  1  6  0  0  0
 18  3  1  0  0  0  0
 19 17  2  0  0  0  0
 20 21  1  0  0  0  0
 21 18  1  0  0  0  0
 24 23  1  0  0  0  0
 25 24  1  0  0  0  0
 26 25  1  0  0  0  0
 27 26  1  0  0  0  0
 27 28  1  0  0  0  0
 28 30  1  6  0  0  0
 28 31  1  0  0  0  0
 29 30  1  0  0  0  0
 31 34  1  0  0  0  0
 34 33  2  0  0  0  0
 34 32  1  0  0  0  0
M  END
>  <MODEL>
6

>  <REMARK>
 VINA RESULT:      -7.1      4.306      9.068
  Name = 
  12 active torsions:
  status: ('A' for Active; 'I' for Inactive)
    1  A    between atoms: C_1  and  C_4
    2  A    between atoms: C_1  and  C_30
    3  A    between atoms: O_5  and  C_10
    4  A    between atoms: O_5  and  C_24
    5  A    between atoms: C_6  and  C_21
    6  A    between atoms: C_10  and  C_30
    7  A    between atoms: C_12  and  C_16
    8  A    between atoms: O_15  and  C_28
    9  A    between atoms: C_17  and  O_19
   10  A    between atoms: C_17  and  C_24
   11  A    between atoms: C_17  and  C_31
   12  A    between atoms: O_19  and  C_32
                            x       y       z     vdW  Elec       q    Type
                         _______ _______ _______ _____ _____    ______ ____

>  <TORSDO>
F 12

$$$$
=
 OpenBabel10222418203D

 34 37  0  0  1  0  0  0  0  0999 V2000
  185.1000  178.2180  142.2770 C   0  0  2  0  0  3  0  0  0  0  0  0
  185.6330  179.3170  140.4870 N   0  0  0  0  0  2  0  0  0  0  0  0
  186.1530  179.2230  141.8510 C   0  0  2  0  0  3  0  0  0  0  0  0
  184.6060  178.3360  140.8320 C   0  0  2  0  0  3  0  0  0  0  0  0
  182.2040  177.8510  140.6290 N   0  0  0  0  0  2  0  0  0  0  0  0
  183.2040  178.9220  140.6350 C   0  0  2  0  0  3  0  0  0  0  0  0
  181.6180  177.8850  139.4820 C   0  0  0  0  0  0  0  0  0  0  0  0
  182.1130  178.8590  138.6620 C   0  0  0  0  0  0  0  0  0  0  0  0
  183.0740  179.5350  139.2650 C   0  0  0  0  0  2  0  0  0  0  0  0
  181.6100  179.0370  137.3780 C   0  0  0  0  0  3  0  0  0  0  0  0
  180.5920  177.0370  139.0610 C   0  0  0  0  0  0  0  0  0  0  0  0
  180.6050  178.2140  136.9570 N   0  0  0  0  0  0  0  0  0  0  0  0
  180.0910  177.2300  137.7580 C   0  0  0  0  0  3  0  0  0  0  0  0
  179.4330  174.8830  139.4290 C   0  0  0  0  0  1  0  0  0  0  0  0
  180.0990  176.0420  139.9120 O   0  0  0  0  0  0  0  0  0  0  0  0
  190.7770  177.8720  140.5070 O   0  0  0  0  0  0  0  0  0  0  0  0
  189.3720  177.3340  140.5180 S   0  0  0  0  0  0  0  0  0  0  0  0
  187.5690  178.6320  141.8840 C   0  0  1  0  0  3  0  0  0  0  0  0
  189.1580  176.3710  139.3870 O   0  0  0  0  0  0  0  0  0  0  0  0
  188.9760  176.5990  142.0710 C   0  0  0  0  0  2  0  0  0  0  0  0
  187.6410  177.2100  142.4620 C   0  0  0  0  0  2  0  0  0  0  0  0
  188.1780  178.6330  140.4910 C   0  0  0  0  0  2  0  0  0  0  0  0
  184.1780  178.7500  143.3920 C   0  0  0  0  0  2  0  0  0  0  0  0
  184.8990  179.3850  144.5800 C   0  0  0  0  0  2  0  0  0  0  0  0
  184.5620  178.6360  145.8540 C   0  0  0  0  0  2  0  0  0  0  0  0
  185.6940  178.5460  146.6670 O   0  0  0  0  0  0  0  0  0  0  0  0
  186.5820  177.7480  145.9480 C   0  0  0  0  0  2  0  0  0  0  0  0
  187.9810  177.8780  146.5320 C   0  0  1  0  0  3  0  0  0  0  0  0
  189.0390  178.2520  148.7610 C   0  0  0  0  0  1  0  0  0  0  0  0
  187.9560  177.5040  148.0060 C   0  0  0  0  0  2  0  0  0  0  0  0
  188.8710  177.0170  145.8300 O   0  0  0  0  0  0  0  0  0  0  0  0
  190.1220  178.6270  144.7720 O   0  0  0  0  0  0  0  0  0  0  0  0
  191.2160  176.6870  145.3140 O   0  0  0  0  0  1  0  0  0  0  0  0
  190.0710  177.4800  145.2870 C   0  0  0  0  0  0  0  0  0  0  0  0
  1 23  1  1  0  0  0
  3  2  1  6  0  0  0
  3 18  1  0  0  0  0
  3  1  1  0  0  0  0
  4  2  1  6  0  0  0
  4  1  1  0  0  0  0
  5  6  1  0  0  0  0
  6  9  1  6  0  0  0
  6  4  1  0  0  0  0
  7  5  1  0  0  0  0
  8  9  1  0  0  0  0
  8  7  2  0  0  0  0
 10  8  1  0  0  0  0
 11  7  1  0  0  0  0
 11 15  1  0  0  0  0
 12 10  2  0  0  0  0
 12 13  1  0  0  0  0
 13 11  2  0  0  0  0
 14 15  1  0  0  0  0
 16 17  2  0  0  0  0
 17 20  1  0  0  0  0
 18 22  1  6  0  0  0
 18 21  1  0  0  0  0
 19 17  2  0  0  0  0
 20 21  1  0  0  0  0
 22 17  1  0  0  0  0
 23 24  1  0  0  0  0
 24 25  1  0  0  0  0
 25 26  1  0  0  0  0
 27 26  1  0  0  0  0
 28 27  1  6  0  0  0
 28 30  1  0  0  0  0
 30 29  1  0  0  0  0
 31 28  1  0  0  0  0
 32 34  2  0  0  0  0
 34 33  1  0  0  0  0
 34 31  1  0  0  0  0
M  END
>  <MODEL>
7

>  <REMARK>
 VINA RESULT:      -7.0      4.078      7.533
  Name = 
  12 active torsions:
  status: ('A' for Active; 'I' for Inactive)
    1  A    between atoms: C_1  and  C_4
    2  A    between atoms: C_1  and  C_30
    3  A    between atoms: O_5  and  C_10
    4  A    between atoms: O_5  and  C_24
    5  A    between atoms: C_6  and  C_21
    6  A    between atoms: C_10  and  C_30
    7  A    between atoms: C_12  and  C_16
    8  A    between atoms: O_15  and  C_28
    9  A    between atoms: C_17  and  O_19
   10  A    between atoms: C_17  and  C_24
   11  A    between atoms: C_17  and  C_31
   12  A    between atoms: O_19  and  C_32
                            x       y       z     vdW  Elec       q    Type
                         _______ _______ _______ _____ _____    ______ ____

>  <TORSDO>
F 12

$$$$
=
 OpenBabel10222418203D

 34 37  0  0  1  0  0  0  0  0999 V2000
  188.9850  177.4190  142.6060 C   0  0  2  0  0  3  0  0  0  0  0  0
  191.1400  177.3200  142.8150 N   0  0  0  0  0  2  0  0  0  0  0  0
  190.0360  177.8580  143.6090 C   0  0  2  0  0  3  0  0  0  0  0  0
  190.1730  176.8550  141.8220 C   0  0  2  0  0  3  0  0  0  0  0  0
  189.8580  176.6720  139.3900 N   0  0  0  0  0  2  0  0  0  0  0  0
  190.4500  177.4870  140.4530 C   0  0  2  0  0  3  0  0  0  0  0  0
  190.8210  176.2850  138.6260 C   0  0  0  0  0  0  0  0  0  0  0  0
  192.0430  176.7250  139.0490 C   0  0  0  0  0  0  0  0  0  0  0  0
  191.9250  177.4540  140.1440 C   0  0  0  0  0  2  0  0  0  0  0  0
  193.2010  176.3950  138.3550 C   0  0  0  0  0  3  0  0  0  0  0  0
  190.6930  175.4910  137.4850 C   0  0  0  0  0  0  0  0  0  0  0  0
  193.0870  175.6210  137.2370 N   0  0  0  0  0  0  0  0  0  0  0  0
  191.8760  175.1670  136.7900 C   0  0  0  0  0  3  0  0  0  0  0  0
  189.1440  173.6730  136.8450 C   0  0  0  0  0  1  0  0  0  0  0  0
  189.4340  175.0460  137.0670 O   0  0  0  0  0  0  0  0  0  0  0  0
  188.2870  176.3900  148.0580 O   0  0  0  0  0  0  0  0  0  0  0  0
  189.2270  177.4010  147.4620 S   0  0  0  0  0  0  0  0  0  0  0  0
  189.8930  177.1340  144.9540 C   0  0  1  0  0  3  0  0  0  0  0  0
  189.2860  178.6410  148.3050 O   0  0  0  0  0  0  0  0  0  0  0  0
  190.8330  176.7190  147.2110 C   0  0  0  0  0  2  0  0  0  0  0  0
  191.1890  177.0760  145.7780 C   0  0  0  0  0  2  0  0  0  0  0  0
  188.8010  177.7800  145.7920 C   0  0  0  0  0  2  0  0  0  0  0  0
  188.2170  178.6030  141.9850 C   0  0  0  0  0  2  0  0  0  0  0  0
  186.7490  178.3250  141.6640 C   0  0  0  0  0  2  0  0  0  0  0  0
  185.9000  178.5130  142.9070 C   0  0  0  0  0  2  0  0  0  0  0  0
  184.6670  177.8810  142.7400 O   0  0  0  0  0  0  0  0  0  0  0  0
  183.7550  178.7080  143.3940 C   0  0  0  0  0  2  0  0  0  0  0  0
  182.5650  178.9830  142.4870 C   0  0  1  0  0  3  0  0  0  0  0  0
  182.3690  179.1700  140.0060 C   0  0  0  0  0  1  0  0  0  0  0  0
  182.7570  178.2650  141.1600 C   0  0  0  0  0  2  0  0  0  0  0  0
  181.3720  178.5270  143.1160 O   0  0  0  0  0  0  0  0  0  0  0  0
  180.2450  180.5060  142.8210 O   0  0  0  0  0  0  0  0  0  0  0  0
  179.3070  179.0150  144.2870 O   0  0  0  0  0  1  0  0  0  0  0  0
  180.3060  179.3860  143.3920 C   0  0  0  0  0  0  0  0  0  0  0  0
  1 23  1  6  0  0  0
  1  3  1  0  0  0  0
  3  2  1  6  0  0  0
  3 18  1  0  0  0  0
  4  1  1  0  0  0  0
  4  2  1  1  0  0  0
  5  6  1  0  0  0  0
  6  9  1  6  0  0  0
  6  4  1  0  0  0  0
  7  8  1  0  0  0  0
  7  5  1  0  0  0  0
  8  9  1  0  0  0  0
 10  8  2  0  0  0  0
 11  7  2  0  0  0  0
 12 10  1  0  0  0  0
 13 12  2  0  0  0  0
 13 11  1  0  0  0  0
 14 15  1  0  0  0  0
 15 11  1  0  0  0  0
 17 16  2  0  0  0  0
 17 19  2  0  0  0  0
 18 21  1  1  0  0  0
 18 22  1  0  0  0  0
 20 17  1  0  0  0  0
 21 20  1  0  0  0  0
 22 17  1  0  0  0  0
 24 23  1  0  0  0  0
 24 25  1  0  0  0  0
 26 25  1  0  0  0  0
 26 27  1  0  0  0  0
 28 30  1  6  0  0  0
 28 31  1  0  0  0  0
 28 27  1  0  0  0  0
 29 30  1  0  0  0  0
 31 34  1  0  0  0  0
 32 34  2  0  0  0  0
 34 33  1  0  0  0  0
M  END
>  <MODEL>
8

>  <REMARK>
 VINA RESULT:      -6.7      1.551      2.242
  Name = 
  12 active torsions:
  status: ('A' for Active; 'I' for Inactive)
    1  A    between atoms: C_1  and  C_4
    2  A    between atoms: C_1  and  C_30
    3  A    between atoms: O_5  and  C_10
    4  A    between atoms: O_5  and  C_24
    5  A    between atoms: C_6  and  C_21
    6  A    between atoms: C_10  and  C_30
    7  A    between atoms: C_12  and  C_16
    8  A    between atoms: O_15  and  C_28
    9  A    between atoms: C_17  and  O_19
   10  A    between atoms: C_17  and  C_24
   11  A    between atoms: C_17  and  C_31
   12  A    between atoms: O_19  and  C_32
                            x       y       z     vdW  Elec       q    Type
                         _______ _______ _______ _____ _____    ______ ____

>  <TORSDO>
F 12

$$$$
=
 OpenBabel10222418203D

 34 37  0  0  1  0  0  0  0  0999 V2000
  188.9420  177.4370  142.4310 C   0  0  2  0  0  3  0  0  0  0  0  0
  191.0970  177.2640  142.5790 N   0  0  0  0  0  2  0  0  0  0  0  0
  190.0350  177.8400  143.4030 C   0  0  2  0  0  3  0  0  0  0  0  0
  190.0880  176.8310  141.6150 C   0  0  2  0  0  3  0  0  0  0  0  0
  189.4890  176.8240  139.2300 N   0  0  0  0  0  2  0  0  0  0  0  0
  190.3480  177.4510  140.2380 C   0  0  2  0  0  3  0  0  0  0  0  0
  190.2640  176.2800  138.3550 C   0  0  0  0  0  0  0  0  0  0  0  0
  191.5890  176.4380  138.6500 C   0  0  0  0  0  0  0  0  0  0  0  0
  191.7420  177.1270  139.7660 C   0  0  0  0  0  2  0  0  0  0  0  0
  192.5730  175.9060  137.8250 C   0  0  0  0  0  3  0  0  0  0  0  0
  189.8540  175.5810  137.2190 C   0  0  0  0  0  0  0  0  0  0  0  0
  192.1820  175.2220  136.7100 N   0  0  0  0  0  0  0  0  0  0  0  0
  190.8620  175.0490  136.3910 C   0  0  0  0  0  3  0  0  0  0  0  0
  187.8730  176.0280  135.8070 C   0  0  0  0  0  1  0  0  0  0  0  0
  188.4930  175.4250  136.9350 O   0  0  0  0  0  0  0  0  0  0  0  0
  188.3080  176.3650  147.8580 O   0  0  0  0  0  0  0  0  0  0  0  0
  189.2250  177.3940  147.2570 S   0  0  0  0  0  0  0  0  0  0  0  0
  189.9050  177.1240  144.7530 C   0  0  1  0  0  3  0  0  0  0  0  0
  189.2500  178.6420  148.0900 O   0  0  0  0  0  0  0  0  0  0  0  0
  190.8480  176.7500  147.0160 C   0  0  0  0  0  2  0  0  0  0  0  0
  191.2000  177.1050  145.5820 C   0  0  0  0  0  2  0  0  0  0  0  0
  188.7950  177.7490  145.5820 C   0  0  0  0  0  2  0  0  0  0  0  0
  188.1980  178.6450  141.8290 C   0  0  0  0  0  2  0  0  0  0  0  0
  186.6770  178.6070  141.9750 C   0  0  0  0  0  2  0  0  0  0  0  0
  186.0230  178.6280  140.6070 C   0  0  0  0  0  2  0  0  0  0  0  0
  185.1650  179.7250  140.5060 O   0  0  0  0  0  0  0  0  0  0  0  0
  184.1900  179.3280  139.5930 C   0  0  0  0  0  2  0  0  0  0  0  0
  183.3230  178.2380  140.2050 C   0  0  1  0  0  3  0  0  0  0  0  0
  182.7510  178.6280  142.6030 C   0  0  0  0  0  1  0  0  0  0  0  0
  182.3220  178.8610  141.1660 C   0  0  0  0  0  2  0  0  0  0  0  0
  182.6330  177.5430  139.1720 O   0  0  0  0  0  0  0  0  0  0  0  0
  181.5690  175.6200  139.8390 O   0  0  0  0  0  1  0  0  0  0  0  0
  183.3780  175.3500  138.4580 O   0  0  0  0  0  0  0  0  0  0  0  0
  182.4980  176.1530  139.1790 C   0  0  0  0  0  0  0  0  0  0  0  0
  1 23  1  6  0  0  0
  1  3  1  0  0  0  0
  3  2  1  6  0  0  0
  3 18  1  0  0  0  0
  4  1  1  0  0  0  0
  4  2  1  1  0  0  0
  5  6  1  0  0  0  0
  6  9  1  6  0  0  0
  6  4  1  0  0  0  0
  7  8  1  0  0  0  0
  7  5  1  0  0  0  0
  8  9  1  0  0  0  0
 10  8  2  0  0  0  0
 11  7  2  0  0  0  0
 12 10  1  0  0  0  0
 13 12  2  0  0  0  0
 13 11  1  0  0  0  0
 14 15  1  0  0  0  0
 15 11  1  0  0  0  0
 17 16  2  0  0  0  0
 17 19  2  0  0  0  0
 18 22  1  1  0  0  0
 18 21  1  0  0  0  0
 20 17  1  0  0  0  0
 21 20  1  0  0  0  0
 22 17  1  0  0  0  0
 23 24  1  0  0  0  0
 25 24  1  0  0  0  0
 26 25  1  0  0  0  0
 27 26  1  0  0  0  0
 28 27  1  6  0  0  0
 28 30  1  0  0  0  0
 30 29  1  0  0  0  0
 31 34  1  0  0  0  0
 31 28  1  0  0  0  0
 33 34  2  0  0  0  0
 34 32  1  0  0  0  0
M  END
>  <MODEL>
9

>  <REMARK>
 VINA RESULT:      -6.7      2.112      3.137
  Name = 
  12 active torsions:
  status: ('A' for Active; 'I' for Inactive)
    1  A    between atoms: C_1  and  C_4
    2  A    between atoms: C_1  and  C_30
    3  A    between atoms: O_5  and  C_10
    4  A    between atoms: O_5  and  C_24
    5  A    between atoms: C_6  and  C_21
    6  A    between atoms: C_10  and  C_30
    7  A    between atoms: C_12  and  C_16
    8  A    between atoms: O_15  and  C_28
    9  A    between atoms: C_17  and  O_19
   10  A    between atoms: C_17  and  C_24
   11  A    between atoms: C_17  and  C_31
   12  A    between atoms: O_19  and  C_32
                            x       y       z     vdW  Elec       q    Type
                         _______ _______ _______ _____ _____    ______ ____

>  <TORSDO>
F 12

$$$$
