=
 OpenBabel10222419333D

 26 27  0  0  1  0  0  0  0  0999 V2000
  189.6450  177.0320  141.7480 C   0  0  1  0  0  3  0  0  0  0  0  0
  190.7010  176.9780  140.6820 C   0  0  0  0  0  0  0  0  0  0  0  0
  191.9950  177.4700  140.9080 C   0  0  0  0  0  3  0  0  0  0  0  0
  192.9560  177.4080  139.8950 C   0  0  0  0  0  3  0  0  0  0  0  0
  190.3790  176.4250  139.4370 C   0  0  0  0  0  3  0  0  0  0  0  0
  191.3410  176.3640  138.4250 C   0  0  0  0  0  3  0  0  0  0  0  0
  192.6290  176.8560  138.6530 C   0  0  0  0  0  0  0  0  0  0  0  0
  193.5840  176.7960  137.6480 O   0  0  0  0  0  1  0  0  0  0  0  0
  190.2320  177.1950  143.1170 C   0  0  0  0  0  0  0  0  0  0  0  0
  189.9860  177.5490  146.1520 C   0  0  0  0  0  3  0  0  0  0  0  0
  191.6690  176.1950  144.9090 C   0  0  0  0  0  3  0  0  0  0  0  0
  191.2460  176.7870  146.0410 C   0  0  0  0  0  0  0  0  0  0  0  0
  189.4290  178.2790  145.1860 C   0  0  0  0  0  3  0  0  0  0  0  0
  191.0150  176.2220  143.5850 C   0  0  0  0  0  3  0  0  0  0  0  0
  190.0680  178.4880  143.8550 C   0  0  0  0  0  2  0  0  0  0  0  0
  191.9880  176.6230  147.2130 O   0  0  0  0  0  0  0  0  0  0  0  0
  192.7070  175.5150  147.4420 O   0  0  0  0  0  1  0  0  0  0  0  0
  188.5720  178.0810  141.4630 C   0  0  0  0  0  2  0  0  0  0  0  0
  186.2030  178.6190  142.1790 C   0  0  0  0  0  0  0  0  0  0  0  0
  186.0670  179.4510  141.2420 O   0  0  0  0  0  0  0  0  0  0  0  0
  187.4150  177.8770  142.3240 N   0  0  0  0  0  2  0  0  0  0  0  0
  185.1060  178.4370  143.1660 C   0  0  0  0  0  2  0  0  0  0  0  0
  185.6930  178.2470  144.5520 C   0  0  0  0  0  2  0  0  0  0  0  0
  183.6340  179.2320  145.2290 O   0  0  0  0  0  0  0  0  0  0  0  0
  185.0560  178.6240  146.9610 N   0  0  0  0  0  1  0  0  0  0  0  0
  184.7370  178.7400  145.5800 C   0  0  0  0  0  0  0  0  0  0  0  0
  1 18  1  6  0  0  0
  1  9  1  0  0  0  0
  2  3  1  0  0  0  0
  2  1  1  0  0  0  0
  4  3  2  0  0  0  0
  5  2  2  0  0  0  0
  6  7  2  0  0  0  0
  6  5  1  0  0  0  0
  7  4  1  0  0  0  0
  8  7  1  0  0  0  0
  9 14  2  0  0  0  0
  9 15  1  0  0  0  0
 11 12  2  0  0  0  0
 12 10  1  0  0  0  0
 12 16  1  0  0  0  0
 13 10  2  0  0  0  0
 14 11  1  0  0  0  0
 15 13  1  0  0  0  0
 16 17  1  0  0  0  0
 18 21  1  0  0  0  0
 19 21  1  0  0  0  0
 19 22  1  0  0  0  0
 20 19  2  0  0  0  0
 22 23  1  0  0  0  0
 23 26  1  0  0  0  0
 24 26  2  0  0  0  0
 26 25  1  0  0  0  0
M  END
>  <MODEL>
1

>  <REMARK>
 VINA RESULT:      -8.4      0.000      0.000
  Name = 
  8 active torsions:
  status: ('A' for Active; 'I' for Inactive)
    1  A    between atoms: C_1  and  C_3
    2  A    between atoms: C_2  and  C_5
    3  A    between atoms: C_3  and  C_10
    4  A    between atoms: C_3  and  C_11
    5  A    between atoms: O_4  and  C_19
    6  A    between atoms: C_5  and  C_20
    7  A    between atoms: C_11  and  N_24
    8  A    between atoms: C_20  and  C_25
                            x       y       z     vdW  Elec       q    Type
                         _______ _______ _______ _____ _____    ______ ____

>  <TORSDO>
F 8

$$$$
=
 OpenBabel10222419333D

 26 27  0  0  1  0  0  0  0  0999 V2000
  188.5060  177.2300  143.2900 C   0  0  1  0  0  3  0  0  0  0  0  0
  189.4440  177.0960  144.4550 C   0  0  0  0  0  0  0  0  0  0  0  0
  189.0830  177.5340  145.7390 C   0  0  0  0  0  3  0  0  0  0  0  0
  189.9780  177.3980  146.8040 C   0  0  0  0  0  3  0  0  0  0  0  0
  190.7040  176.5240  144.2490 C   0  0  0  0  0  3  0  0  0  0  0  0
  191.5980  176.3890  145.3150 C   0  0  0  0  0  3  0  0  0  0  0  0
  191.2360  176.8270  146.5920 C   0  0  0  0  0  0  0  0  0  0  0  0
  192.1230  176.6920  147.6500 O   0  0  0  0  0  1  0  0  0  0  0  0
  187.1170  177.5890  143.7200 C   0  0  0  0  0  0  0  0  0  0  0  0
  185.1280  179.0030  145.5770 C   0  0  0  0  0  3  0  0  0  0  0  0
  184.9620  178.7110  143.1070 C   0  0  0  0  0  3  0  0  0  0  0  0
  184.4020  179.0220  144.2900 C   0  0  0  0  0  0  0  0  0  0  0  0
  186.1140  178.1670  145.9020 C   0  0  0  0  0  3  0  0  0  0  0  0
  186.3470  178.2590  142.8610 C   0  0  0  0  0  3  0  0  0  0  0  0
  186.5700  177.0620  145.0110 C   0  0  0  0  0  2  0  0  0  0  0  0
  183.0780  179.4640  144.3220 O   0  0  0  0  0  0  0  0  0  0  0  0
  182.0510  178.6210  144.1430 O   0  0  0  0  0  1  0  0  0  0  0  0
  189.0320  178.1830  142.2180 C   0  0  0  0  0  2  0  0  0  0  0  0
  188.6630  177.6820  139.7620 C   0  0  0  0  0  0  0  0  0  0  0  0
  187.7890  178.5850  139.6690 O   0  0  0  0  0  0  0  0  0  0  0  0
  189.3470  177.4540  140.9960 N   0  0  0  0  0  2  0  0  0  0  0  0
  188.9610  176.8210  138.5870 C   0  0  0  0  0  2  0  0  0  0  0  0
  190.2810  177.2410  137.9680 C   0  0  0  0  0  2  0  0  0  0  0  0
  190.9470  174.9850  138.3390 O   0  0  0  0  0  0  0  0  0  0  0  0
  192.6850  176.5180  138.1870 N   0  0  0  0  0  1  0  0  0  0  0  0
  191.3030  176.1820  138.1860 C   0  0  0  0  0  0  0  0  0  0  0  0
  1 18  1  6  0  0  0
  1  9  1  0  0  0  0
  1  2  1  0  0  0  0
  2  3  1  0  0  0  0
  3  4  2  0  0  0  0
  5  2  2  0  0  0  0
  5  6  1  0  0  0  0
  6  7  2  0  0  0  0
  7  4  1  0  0  0  0
  7  8  1  0  0  0  0
  9 15  1  0  0  0  0
 10 13  2  0  0  0  0
 11 12  2  0  0  0  0
 12 16  1  0  0  0  0
 12 10  1  0  0  0  0
 14 11  1  0  0  0  0
 14  9  2  0  0  0  0
 15 13  1  0  0  0  0
 17 16  1  0  0  0  0
 19 21  1  0  0  0  0
 20 19  2  0  0  0  0
 21 18  1  0  0  0  0
 22 19  1  0  0  0  0
 23 26  1  0  0  0  0
 23 22  1  0  0  0  0
 26 25  1  0  0  0  0
 26 24  2  0  0  0  0
M  END
>  <MODEL>
2

>  <REMARK>
 VINA RESULT:      -8.1      2.158      6.982
  Name = 
  8 active torsions:
  status: ('A' for Active; 'I' for Inactive)
    1  A    between atoms: C_1  and  C_3
    2  A    between atoms: C_2  and  C_5
    3  A    between atoms: C_3  and  C_10
    4  A    between atoms: C_3  and  C_11
    5  A    between atoms: O_4  and  C_19
    6  A    between atoms: C_5  and  C_20
    7  A    between atoms: C_11  and  N_24
    8  A    between atoms: C_20  and  C_25
                            x       y       z     vdW  Elec       q    Type
                         _______ _______ _______ _____ _____    ______ ____

>  <TORSDO>
F 8

$$$$
=
 OpenBabel10222419333D

 26 27  0  0  1  0  0  0  0  0999 V2000
  188.5230  177.2280  143.3660 C   0  0  1  0  0  3  0  0  0  0  0  0
  189.4570  177.0970  144.5340 C   0  0  0  0  0  0  0  0  0  0  0  0
  189.0920  177.5360  145.8160 C   0  0  0  0  0  3  0  0  0  0  0  0
  189.9840  177.4020  146.8840 C   0  0  0  0  0  3  0  0  0  0  0  0
  190.7190  176.5260  144.3320 C   0  0  0  0  0  3  0  0  0  0  0  0
  191.6100  176.3940  145.4010 C   0  0  0  0  0  3  0  0  0  0  0  0
  191.2430  176.8320  146.6770 C   0  0  0  0  0  0  0  0  0  0  0  0
  192.1280  176.7010  147.7380 O   0  0  0  0  0  1  0  0  0  0  0  0
  187.1220  177.5400  143.7950 C   0  0  0  0  0  0  0  0  0  0  0  0
  185.0840  178.9180  145.6240 C   0  0  0  0  0  3  0  0  0  0  0  0
  184.9190  178.5530  143.1640 C   0  0  0  0  0  3  0  0  0  0  0  0
  184.3520  178.8720  144.3420 C   0  0  0  0  0  0  0  0  0  0  0  0
  186.1060  178.1330  145.9660 C   0  0  0  0  0  3  0  0  0  0  0  0
  186.3200  178.1530  142.9220 C   0  0  0  0  0  3  0  0  0  0  0  0
  186.6040  177.0250  145.1020 C   0  0  0  0  0  2  0  0  0  0  0  0
  183.0100  179.2580  144.3700 O   0  0  0  0  0  0  0  0  0  0  0  0
  182.1520  178.8880  143.4080 O   0  0  0  0  0  1  0  0  0  0  0  0
  189.0280  178.2160  142.3160 C   0  0  0  0  0  2  0  0  0  0  0  0
  190.3970  177.2440  140.4190 C   0  0  0  0  0  0  0  0  0  0  0  0
  191.4750  177.4540  141.0370 O   0  0  0  0  0  0  0  0  0  0  0  0
  189.1400  177.5680  141.0160 N   0  0  0  0  0  2  0  0  0  0  0  0
  190.4350  176.6880  139.0410 C   0  0  0  0  0  2  0  0  0  0  0  0
  189.0890  176.8920  138.3710 C   0  0  0  0  0  2  0  0  0  0  0  0
  189.4430  177.7210  136.1680 O   0  0  0  0  0  0  0  0  0  0  0  0
  188.9390  179.3320  137.7620 N   0  0  0  0  0  1  0  0  0  0  0  0
  189.1810  177.9870  137.3690 C   0  0  0  0  0  0  0  0  0  0  0  0
  1 18  1  6  0  0  0
  1  9  1  0  0  0  0
  1  2  1  0  0  0  0
  2  3  1  0  0  0  0
  3  4  2  0  0  0  0
  5  2  2  0  0  0  0
  5  6  1  0  0  0  0
  6  7  2  0  0  0  0
  7  4  1  0  0  0  0
  7  8  1  0  0  0  0
  9 15  1  0  0  0  0
 10 13  2  0  0  0  0
 11 12  2  0  0  0  0
 12 16  1  0  0  0  0
 12 10  1  0  0  0  0
 14 11  1  0  0  0  0
 14  9  2  0  0  0  0
 15 13  1  0  0  0  0
 17 16  1  0  0  0  0
 19 21  1  0  0  0  0
 19 20  2  0  0  0  0
 21 18  1  0  0  0  0
 22 19  1  0  0  0  0
 23 22  1  0  0  0  0
 24 26  2  0  0  0  0
 26 25  1  0  0  0  0
 26 23  1  0  0  0  0
M  END
>  <MODEL>
3

>  <REMARK>
 VINA RESULT:      -8.0      2.212      6.947
  Name = 
  8 active torsions:
  status: ('A' for Active; 'I' for Inactive)
    1  A    between atoms: C_1  and  C_3
    2  A    between atoms: C_2  and  C_5
    3  A    between atoms: C_3  and  C_10
    4  A    between atoms: C_3  and  C_11
    5  A    between atoms: O_4  and  C_19
    6  A    between atoms: C_5  and  C_20
    7  A    between atoms: C_11  and  N_24
    8  A    between atoms: C_20  and  C_25
                            x       y       z     vdW  Elec       q    Type
                         _______ _______ _______ _____ _____    ______ ____

>  <TORSDO>
F 8

$$$$
=
 OpenBabel10222419333D

 26 27  0  0  1  0  0  0  0  0999 V2000
  189.0680  177.1170  141.4150 C   0  0  1  0  0  3  0  0  0  0  0  0
  190.2280  177.0090  140.4680 C   0  0  0  0  0  0  0  0  0  0  0  0
  190.0930  176.3990  139.2120 C   0  0  0  0  0  3  0  0  0  0  0  0
  191.1910  176.3120  138.3520 C   0  0  0  0  0  3  0  0  0  0  0  0
  191.4690  177.5290  140.8550 C   0  0  0  0  0  3  0  0  0  0  0  0
  192.5670  177.4400  139.9940 C   0  0  0  0  0  3  0  0  0  0  0  0
  192.4290  176.8310  138.7430 C   0  0  0  0  0  0  0  0  0  0  0  0
  193.5190  176.7440  137.8890 O   0  0  0  0  0  1  0  0  0  0  0  0
  189.4740  176.8750  142.8370 C   0  0  0  0  0  0  0  0  0  0  0  0
  191.5780  176.5330  145.0410 C   0  0  0  0  0  3  0  0  0  0  0  0
  189.3710  177.6810  145.2070 C   0  0  0  0  0  3  0  0  0  0  0  0
  190.4560  177.1380  145.7890 C   0  0  0  0  0  0  0  0  0  0  0  0
  191.4800  175.8830  143.8820 C   0  0  0  0  0  3  0  0  0  0  0  0
  189.0640  177.7420  143.7630 C   0  0  0  0  0  3  0  0  0  0  0  0
  190.1760  175.6060  143.2120 C   0  0  0  0  0  2  0  0  0  0  0  0
  190.5890  177.2020  147.1770 O   0  0  0  0  0  0  0  0  0  0  0  0
  191.7120  176.8100  147.7950 O   0  0  0  0  0  1  0  0  0  0  0  0
  188.3000  178.4280  141.2600 C   0  0  0  0  0  2  0  0  0  0  0  0
  185.8080  178.8500  141.4280 C   0  0  0  0  0  0  0  0  0  0  0  0
  185.7650  179.2950  140.2500 O   0  0  0  0  0  0  0  0  0  0  0  0
  187.0350  178.3690  141.9800 N   0  0  0  0  0  2  0  0  0  0  0  0
  184.5800  178.8610  142.2650 C   0  0  0  0  0  2  0  0  0  0  0  0
  184.9460  179.1650  143.7060 C   0  0  0  0  0  2  0  0  0  0  0  0
  183.8840  179.0010  145.8300 O   0  0  0  0  0  0  0  0  0  0  0  0
  182.4600  178.8790  144.0000 N   0  0  0  0  0  1  0  0  0  0  0  0
  183.7530  179.0010  144.5790 C   0  0  0  0  0  0  0  0  0  0  0  0
  1 18  1  1  0  0  0
  1  9  1  0  0  0  0
  2  5  1  0  0  0  0
  2  1  1  0  0  0  0
  3  2  2  0  0  0  0
  4  7  2  0  0  0  0
  4  3  1  0  0  0  0
  6  5  2  0  0  0  0
  7  6  1  0  0  0  0
  8  7  1  0  0  0  0
  9 15  1  0  0  0  0
  9 14  2  0  0  0  0
 10 12  1  0  0  0  0
 11 12  2  0  0  0  0
 12 16  1  0  0  0  0
 13 10  2  0  0  0  0
 14 11  1  0  0  0  0
 15 13  1  0  0  0  0
 16 17  1  0  0  0  0
 18 21  1  0  0  0  0
 19 21  1  0  0  0  0
 19 22  1  0  0  0  0
 20 19  2  0  0  0  0
 22 23  1  0  0  0  0
 23 26  1  0  0  0  0
 25 26  1  0  0  0  0
 26 24  2  0  0  0  0
M  END
>  <MODEL>
4

>  <REMARK>
 VINA RESULT:      -7.9      1.126      1.905
  Name = 
  8 active torsions:
  status: ('A' for Active; 'I' for Inactive)
    1  A    between atoms: C_1  and  C_3
    2  A    between atoms: C_2  and  C_5
    3  A    between atoms: C_3  and  C_10
    4  A    between atoms: C_3  and  C_11
    5  A    between atoms: O_4  and  C_19
    6  A    between atoms: C_5  and  C_20
    7  A    between atoms: C_11  and  N_24
    8  A    between atoms: C_20  and  C_25
                            x       y       z     vdW  Elec       q    Type
                         _______ _______ _______ _____ _____    ______ ____

>  <TORSDO>
F 8

$$$$
=
 OpenBabel10222419333D

 26 27  0  0  1  0  0  0  0  0999 V2000
  188.1810  177.4640  142.6800 C   0  0  1  0  0  3  0  0  0  0  0  0
  189.2660  177.2110  143.6860 C   0  0  0  0  0  0  0  0  0  0  0  0
  190.2460  176.2280  143.4730 C   0  0  0  0  0  3  0  0  0  0  0  0
  191.2430  176.0140  144.4300 C   0  0  0  0  0  3  0  0  0  0  0  0
  189.2940  177.9730  144.8600 C   0  0  0  0  0  3  0  0  0  0  0  0
  190.2910  177.7560  145.8150 C   0  0  0  0  0  3  0  0  0  0  0  0
  191.2650  176.7770  145.6010 C   0  0  0  0  0  0  0  0  0  0  0  0
  192.2550  176.5620  146.5490 O   0  0  0  0  0  1  0  0  0  0  0  0
  186.8460  177.6680  143.3260 C   0  0  0  0  0  0  0  0  0  0  0  0
  185.0330  178.8410  145.5030 C   0  0  0  0  0  3  0  0  0  0  0  0
  184.5180  178.5600  143.0810 C   0  0  0  0  0  3  0  0  0  0  0  0
  184.1180  178.7970  144.3430 C   0  0  0  0  0  0  0  0  0  0  0  0
  186.1390  178.1110  145.6510 C   0  0  0  0  0  3  0  0  0  0  0  0
  185.8870  178.2610  142.6140 C   0  0  0  0  0  3  0  0  0  0  0  0
  186.5630  177.0710  144.6710 C   0  0  0  0  0  2  0  0  0  0  0  0
  182.7770  179.0940  144.5900 O   0  0  0  0  0  0  0  0  0  0  0  0
  181.8440  178.9800  143.6330 O   0  0  0  0  0  1  0  0  0  0  0  0
  188.5240  178.6000  141.7170 C   0  0  0  0  0  2  0  0  0  0  0  0
  188.0070  178.0860  139.2910 C   0  0  0  0  0  0  0  0  0  0  0  0
  186.8720  178.6280  139.3770 O   0  0  0  0  0  0  0  0  0  0  0  0
  188.8940  178.0690  140.4110 N   0  0  0  0  0  2  0  0  0  0  0  0
  188.4120  177.4240  138.0220 C   0  0  0  0  0  2  0  0  0  0  0  0
  189.8960  177.6360  137.7880 C   0  0  0  0  0  2  0  0  0  0  0  0
  190.7210  175.6040  138.7160 O   0  0  0  0  0  0  0  0  0  0  0  0
  191.0650  175.8610  136.4340 N   0  0  0  0  0  1  0  0  0  0  0  0
  190.5870  176.3220  137.6910 C   0  0  0  0  0  0  0  0  0  0  0  0
  1 18  1  1  0  0  0
  1  9  1  0  0  0  0
  1  2  1  0  0  0  0
  2  5  1  0  0  0  0
  3  2  2  0  0  0  0
  3  4  1  0  0  0  0
  4  7  2  0  0  0  0
  5  6  2  0  0  0  0
  7  6  1  0  0  0  0
  7  8  1  0  0  0  0
  9 15  1  0  0  0  0
 10 13  2  0  0  0  0
 11 12  2  0  0  0  0
 12 16  1  0  0  0  0
 12 10  1  0  0  0  0
 14 11  1  0  0  0  0
 14  9  2  0  0  0  0
 15 13  1  0  0  0  0
 17 16  1  0  0  0  0
 19 20  2  0  0  0  0
 19 21  1  0  0  0  0
 21 18  1  0  0  0  0
 22 19  1  0  0  0  0
 23 22  1  0  0  0  0
 25 26  1  0  0  0  0
 26 23  1  0  0  0  0
 26 24  2  0  0  0  0
M  END
>  <MODEL>
5

>  <REMARK>
 VINA RESULT:      -7.9      2.275      6.840
  Name = 
  8 active torsions:
  status: ('A' for Active; 'I' for Inactive)
    1  A    between atoms: C_1  and  C_3
    2  A    between atoms: C_2  and  C_5
    3  A    between atoms: C_3  and  C_10
    4  A    between atoms: C_3  and  C_11
    5  A    between atoms: O_4  and  C_19
    6  A    between atoms: C_5  and  C_20
    7  A    between atoms: C_11  and  N_24
    8  A    between atoms: C_20  and  C_25
                            x       y       z     vdW  Elec       q    Type
                         _______ _______ _______ _____ _____    ______ ____

>  <TORSDO>
F 8

$$$$
=
 OpenBabel10222419333D

 26 27  0  0  1  0  0  0  0  0999 V2000
  189.4910  177.8090  142.0430 C   0  0  1  0  0  3  0  0  0  0  0  0
  188.0200  178.0020  142.2720 C   0  0  0  0  0  0  0  0  0  0  0  0
  187.2520  178.8300  141.4390 C   0  0  0  0  0  3  0  0  0  0  0  0
  185.8840  178.9920  141.6780 C   0  0  0  0  0  3  0  0  0  0  0  0
  187.4080  177.3400  143.3420 C   0  0  0  0  0  3  0  0  0  0  0  0
  186.0400  177.5030  143.5800 C   0  0  0  0  0  3  0  0  0  0  0  0
  185.2780  178.3290  142.7490 C   0  0  0  0  0  0  0  0  0  0  0  0
  183.9210  178.4910  142.9860 O   0  0  0  0  0  1  0  0  0  0  0  0
  190.2350  177.5610  143.3190 C   0  0  0  0  0  0  0  0  0  0  0  0
  190.3620  177.1780  146.3580 C   0  0  0  0  0  3  0  0  0  0  0  0
  191.6960  175.9950  144.6180 C   0  0  0  0  0  3  0  0  0  0  0  0
  191.4830  176.3310  145.9030 C   0  0  0  0  0  0  0  0  0  0  0  0
  189.8160  178.1820  145.6730 C   0  0  0  0  0  3  0  0  0  0  0  0
  190.9170  176.4220  143.4370 C   0  0  0  0  0  3  0  0  0  0  0  0
  190.3340  178.6420  144.3520 C   0  0  0  0  0  2  0  0  0  0  0  0
  192.3130  175.8010  146.8920 O   0  0  0  0  0  0  0  0  0  0  0  0
  192.4320  176.3810  148.0950 O   0  0  0  0  0  1  0  0  0  0  0  0
  189.7890  176.7370  140.9960 C   0  0  0  0  0  2  0  0  0  0  0  0
  190.0640  176.6530  138.4790 C   0  0  0  0  0  0  0  0  0  0  0  0
  190.7910  175.6260  138.5540 O   0  0  0  0  0  0  0  0  0  0  0  0
  189.5040  177.2370  139.6570 N   0  0  0  0  0  2  0  0  0  0  0  0
  189.8190  177.2870  137.1570 C   0  0  0  0  0  2  0  0  0  0  0  0
  189.0550  178.5840  137.3460 C   0  0  0  0  0  2  0  0  0  0  0  0
  187.4080  178.0560  135.7100 O   0  0  0  0  0  0  0  0  0  0  0  0
  186.5770  178.6280  137.8020 N   0  0  0  0  0  1  0  0  0  0  0  0
  187.6480  178.4160  136.8910 C   0  0  0  0  0  0  0  0  0  0  0  0
  1 18  1  6  0  0  0
  1  2  1  0  0  0  0
  1  9  1  0  0  0  0
  2  5  1  0  0  0  0
  3  4  1  0  0  0  0
  3  2  2  0  0  0  0
  4  7  2  0  0  0  0
  5  6  2  0  0  0  0
  7  8  1  0  0  0  0
  7  6  1  0  0  0  0
  9 14  2  0  0  0  0
  9 15  1  0  0  0  0
 11 12  2  0  0  0  0
 12 10  1  0  0  0  0
 12 16  1  0  0  0  0
 13 10  2  0  0  0  0
 14 11  1  0  0  0  0
 15 13  1  0  0  0  0
 16 17  1  0  0  0  0
 19 20  2  0  0  0  0
 19 21  1  0  0  0  0
 21 18  1  0  0  0  0
 22 23  1  0  0  0  0
 22 19  1  0  0  0  0
 24 26  2  0  0  0  0
 26 23  1  0  0  0  0
 26 25  1  0  0  0  0
M  END
>  <MODEL>
6

>  <REMARK>
 VINA RESULT:      -7.9      2.420      5.770
  Name = 
  8 active torsions:
  status: ('A' for Active; 'I' for Inactive)
    1  A    between atoms: C_1  and  C_3
    2  A    between atoms: C_2  and  C_5
    3  A    between atoms: C_3  and  C_10
    4  A    between atoms: C_3  and  C_11
    5  A    between atoms: O_4  and  C_19
    6  A    between atoms: C_5  and  C_20
    7  A    between atoms: C_11  and  N_24
    8  A    between atoms: C_20  and  C_25
                            x       y       z     vdW  Elec       q    Type
                         _______ _______ _______ _____ _____    ______ ____

>  <TORSDO>
F 8

$$$$
=
 OpenBabel10222419333D

 26 27  0  0  1  0  0  0  0  0999 V2000
  188.4810  178.2390  141.8140 C   0  0  1  0  0  3  0  0  0  0  0  0
  187.0170  178.3660  142.1180 C   0  0  0  0  0  0  0  0  0  0  0  0
  186.5130  178.1220  143.4050 C   0  0  0  0  0  3  0  0  0  0  0  0
  185.1430  178.2460  143.6570 C   0  0  0  0  0  3  0  0  0  0  0  0
  186.1400  178.7330  141.0900 C   0  0  0  0  0  3  0  0  0  0  0  0
  184.7710  178.8550  141.3440 C   0  0  0  0  0  3  0  0  0  0  0  0
  184.2720  178.6120  142.6270 C   0  0  0  0  0  0  0  0  0  0  0  0
  182.9130  178.7340  142.8780 O   0  0  0  0  0  1  0  0  0  0  0  0
  189.2420  177.6190  142.9460 C   0  0  0  0  0  0  0  0  0  0  0  0
  191.5150  175.8930  144.0670 C   0  0  0  0  0  3  0  0  0  0  0  0
  190.5990  178.0090  145.0150 C   0  0  0  0  0  3  0  0  0  0  0  0
  191.3400  176.8920  145.1410 C   0  0  0  0  0  0  0  0  0  0  0  0
  190.6050  175.5690  143.1490 C   0  0  0  0  0  3  0  0  0  0  0  0
  189.8030  178.4300  143.8440 C   0  0  0  0  0  3  0  0  0  0  0  0
  189.2240  176.1340  143.1380 C   0  0  0  0  0  2  0  0  0  0  0  0
  192.0540  176.6780  146.3210 O   0  0  0  0  0  0  0  0  0  0  0  0
  191.6110  177.1290  147.5040 O   0  0  0  0  0  1  0  0  0  0  0  0
  188.7490  177.5240  140.4910 C   0  0  0  0  0  2  0  0  0  0  0  0
  190.8000  176.6690  139.2750 C   0  0  0  0  0  0  0  0  0  0  0  0
  190.1380  175.7490  138.7240 O   0  0  0  0  0  0  0  0  0  0  0  0
  190.1610  177.6090  140.1400 N   0  0  0  0  0  2  0  0  0  0  0  0
  192.2670  176.7540  139.0530 C   0  0  0  0  0  2  0  0  0  0  0  0
  192.5790  176.4810  137.5930 C   0  0  0  0  0  2  0  0  0  0  0  0
  194.7730  175.5970  137.3220 O   0  0  0  0  0  0  0  0  0  0  0  0
  193.0950  174.0140  137.5930 N   0  0  0  0  0  1  0  0  0  0  0  0
  193.5480  175.3580  137.4830 C   0  0  0  0  0  0  0  0  0  0  0  0
  1 18  1  6  0  0  0
  1  2  1  0  0  0  0
  1  9  1  0  0  0  0
  2  3  1  0  0  0  0
  3  4  2  0  0  0  0
  5  6  1  0  0  0  0
  5  2  2  0  0  0  0
  6  7  2  0  0  0  0
  7  8  1  0  0  0  0
  7  4  1  0  0  0  0
  9 15  1  0  0  0  0
  9 14  2  0  0  0  0
 10 12  1  0  0  0  0
 11 12  2  0  0  0  0
 12 16  1  0  0  0  0
 13 10  2  0  0  0  0
 14 11  1  0  0  0  0
 15 13  1  0  0  0  0
 16 17  1  0  0  0  0
 19 21  1  0  0  0  0
 20 19  2  0  0  0  0
 21 18  1  0  0  0  0
 22 19  1  0  0  0  0
 23 22  1  0  0  0  0
 24 26  2  0  0  0  0
 26 25  1  0  0  0  0
 26 23  1  0  0  0  0
M  END
>  <MODEL>
7

>  <REMARK>
 VINA RESULT:      -7.7      2.290      7.013
  Name = 
  8 active torsions:
  status: ('A' for Active; 'I' for Inactive)
    1  A    between atoms: C_1  and  C_3
    2  A    between atoms: C_2  and  C_5
    3  A    between atoms: C_3  and  C_10
    4  A    between atoms: C_3  and  C_11
    5  A    between atoms: O_4  and  C_19
    6  A    between atoms: C_5  and  C_20
    7  A    between atoms: C_11  and  N_24
    8  A    between atoms: C_20  and  C_25
                            x       y       z     vdW  Elec       q    Type
                         _______ _______ _______ _____ _____    ______ ____

>  <TORSDO>
F 8

$$$$
=
 OpenBabel10222419333D

 26 27  0  0  1  0  0  0  0  0999 V2000
  188.6570  177.1140  143.0060 C   0  0  1  0  0  3  0  0  0  0  0  0
  189.5580  177.0420  144.2050 C   0  0  0  0  0  0  0  0  0  0  0  0
  189.2180  177.6680  145.4140 C   0  0  0  0  0  3  0  0  0  0  0  0
  190.0790  177.5850  146.5120 C   0  0  0  0  0  3  0  0  0  0  0  0
  190.7620  176.3360  144.1060 C   0  0  0  0  0  3  0  0  0  0  0  0
  191.6220  176.2550  145.2050 C   0  0  0  0  0  3  0  0  0  0  0  0
  191.2810  176.8800  146.4080 C   0  0  0  0  0  0  0  0  0  0  0  0
  192.1340  176.7980  147.4990 O   0  0  0  0  0  1  0  0  0  0  0  0
  187.2590  177.5110  143.3720 C   0  0  0  0  0  0  0  0  0  0  0  0
  185.2160  178.8800  145.2020 C   0  0  0  0  0  3  0  0  0  0  0  0
  185.2070  178.7870  142.7110 C   0  0  0  0  0  3  0  0  0  0  0  0
  184.5820  179.0360  143.8760 C   0  0  0  0  0  0  0  0  0  0  0  0
  186.1360  177.9720  145.5230 C   0  0  0  0  0  3  0  0  0  0  0  0
  186.5830  178.2840  142.5210 C   0  0  0  0  0  3  0  0  0  0  0  0
  186.6010  176.9160  144.5780 C   0  0  0  0  0  2  0  0  0  0  0  0
  183.2810  179.5420  143.8570 O   0  0  0  0  0  0  0  0  0  0  0  0
  182.2520  178.8560  144.3750 O   0  0  0  0  0  1  0  0  0  0  0  0
  189.2240  177.9950  141.8950 C   0  0  0  0  0  2  0  0  0  0  0  0
  190.8620  177.0680  140.2000 C   0  0  0  0  0  0  0  0  0  0  0  0
  191.8370  177.6020  140.7920 O   0  0  0  0  0  0  0  0  0  0  0  0
  189.5370  177.1960  140.7170 N   0  0  0  0  0  2  0  0  0  0  0  0
  191.0870  176.3290  138.9290 C   0  0  0  0  0  2  0  0  0  0  0  0
  192.4360  176.7110  138.3490 C   0  0  0  0  0  2  0  0  0  0  0  0
  192.5380  174.6980  137.0810 O   0  0  0  0  0  0  0  0  0  0  0  0
  194.4900  175.2570  138.2090 N   0  0  0  0  0  1  0  0  0  0  0  0
  193.1350  175.4970  137.8480 C   0  0  0  0  0  0  0  0  0  0  0  0
  1 18  1  6  0  0  0
  1  9  1  0  0  0  0
  1  2  1  0  0  0  0
  2  3  1  0  0  0  0
  3  4  2  0  0  0  0
  5  2  2  0  0  0  0
  5  6  1  0  0  0  0
  6  7  2  0  0  0  0
  7  4  1  0  0  0  0
  7  8  1  0  0  0  0
  9 15  1  0  0  0  0
 10 13  2  0  0  0  0
 11 12  2  0  0  0  0
 12 10  1  0  0  0  0
 14 11  1  0  0  0  0
 14  9  2  0  0  0  0
 15 13  1  0  0  0  0
 16 12  1  0  0  0  0
 16 17  1  0  0  0  0
 19 21  1  0  0  0  0
 19 20  2  0  0  0  0
 21 18  1  0  0  0  0
 22 19  1  0  0  0  0
 23 22  1  0  0  0  0
 24 26  2  0  0  0  0
 26 25  1  0  0  0  0
 26 23  1  0  0  0  0
M  END
>  <MODEL>
8

>  <REMARK>
 VINA RESULT:      -7.6      2.194      7.456
  Name = 
  8 active torsions:
  status: ('A' for Active; 'I' for Inactive)
    1  A    between atoms: C_1  and  C_3
    2  A    between atoms: C_2  and  C_5
    3  A    between atoms: C_3  and  C_10
    4  A    between atoms: C_3  and  C_11
    5  A    between atoms: O_4  and  C_19
    6  A    between atoms: C_5  and  C_20
    7  A    between atoms: C_11  and  N_24
    8  A    between atoms: C_20  and  C_25
                            x       y       z     vdW  Elec       q    Type
                         _______ _______ _______ _____ _____    ______ ____

>  <TORSDO>
F 8

$$$$
=
 OpenBabel10222419333D

 26 27  0  0  1  0  0  0  0  0999 V2000
  188.6400  177.6350  143.7230 C   0  0  1  0  0  3  0  0  0  0  0  0
  187.2700  177.9860  144.2270 C   0  0  0  0  0  0  0  0  0  0  0  0
  186.9720  177.9840  145.5980 C   0  0  0  0  0  3  0  0  0  0  0  0
  185.6870  178.3140  146.0370 C   0  0  0  0  0  3  0  0  0  0  0  0
  186.2730  178.3200  143.3030 C   0  0  0  0  0  3  0  0  0  0  0  0
  184.9880  178.6480  143.7440 C   0  0  0  0  0  3  0  0  0  0  0  0
  184.6940  178.6450  145.1100 C   0  0  0  0  0  0  0  0  0  0  0  0
  183.4190  178.9710  145.5480 O   0  0  0  0  0  1  0  0  0  0  0  0
  189.6200  177.4370  144.8390 C   0  0  0  0  0  0  0  0  0  0  0  0
  190.3530  176.5770  147.6890 C   0  0  0  0  0  3  0  0  0  0  0  0
  191.7000  176.2760  145.6140 C   0  0  0  0  0  3  0  0  0  0  0  0
  191.6000  176.2760  146.9550 C   0  0  0  0  0  0  0  0  0  0  0  0
  189.4080  177.4320  147.3000 C   0  0  0  0  0  3  0  0  0  0  0  0
  190.6450  176.6090  144.6350 C   0  0  0  0  0  3  0  0  0  0  0  0
  189.5290  178.2760  146.0760 C   0  0  0  0  0  2  0  0  0  0  0  0
  192.7050  175.9010  147.7210 O   0  0  0  0  0  0  0  0  0  0  0  0
  193.0450  176.5630  148.8370 O   0  0  0  0  0  1  0  0  0  0  0  0
  188.6280  176.4480  142.7620 C   0  0  0  0  0  2  0  0  0  0  0  0
  189.9490  177.0520  140.6870 C   0  0  0  0  0  0  0  0  0  0  0  0
  191.0350  176.7240  141.2350 O   0  0  0  0  0  0  0  0  0  0  0  0
  188.7090  176.9060  141.3810 N   0  0  0  0  0  2  0  0  0  0  0  0
  189.9620  177.6330  139.3190 C   0  0  0  0  0  2  0  0  0  0  0  0
  188.8230  178.6260  139.1750 C   0  0  0  0  0  2  0  0  0  0  0  0
  186.5610  178.4710  138.4480 O   0  0  0  0  0  0  0  0  0  0  0  0
  188.0360  177.0060  137.4130 N   0  0  0  0  0  1  0  0  0  0  0  0
  187.7380  178.0370  138.3460 C   0  0  0  0  0  0  0  0  0  0  0  0
  1 18  1  1  0  0  0
  1  2  1  0  0  0  0
  1  9  1  0  0  0  0
  2  3  1  0  0  0  0
  3  4  2  0  0  0  0
  5  6  1  0  0  0  0
  5  2  2  0  0  0  0
  6  7  2  0  0  0  0
  7  8  1  0  0  0  0
  7  4  1  0  0  0  0
  9 15  1  0  0  0  0
 11 12  2  0  0  0  0
 12 10  1  0  0  0  0
 12 16  1  0  0  0  0
 13 10  2  0  0  0  0
 14  9  2  0  0  0  0
 14 11  1  0  0  0  0
 15 13  1  0  0  0  0
 16 17  1  0  0  0  0
 19 20  2  0  0  0  0
 19 21  1  0  0  0  0
 21 18  1  0  0  0  0
 22 19  1  0  0  0  0
 23 22  1  0  0  0  0
 25 26  1  0  0  0  0
 26 24  2  0  0  0  0
 26 23  1  0  0  0  0
M  END
>  <MODEL>
9

>  <REMARK>
 VINA RESULT:      -7.6      2.208      6.007
  Name = 
  8 active torsions:
  status: ('A' for Active; 'I' for Inactive)
    1  A    between atoms: C_1  and  C_3
    2  A    between atoms: C_2  and  C_5
    3  A    between atoms: C_3  and  C_10
    4  A    between atoms: C_3  and  C_11
    5  A    between atoms: O_4  and  C_19
    6  A    between atoms: C_5  and  C_20
    7  A    between atoms: C_11  and  N_24
    8  A    between atoms: C_20  and  C_25
                            x       y       z     vdW  Elec       q    Type
                         _______ _______ _______ _____ _____    ______ ____

>  <TORSDO>
F 8

$$$$
