=
 OpenBabel10222415523D

 29 32  0  0  1  0  0  0  0  0999 V2000
  183.1020  178.9830  139.9500 C   0  0  1  0  0  3  0  0  0  0  0  0
  182.6970  176.4900  139.8000 C   0  0  0  0  0  3  0  0  0  0  0  0
  182.2170  175.4090  139.1290 N   0  0  0  0  0  0  0  0  0  0  0  0
  181.4990  176.7870  137.3180 C   0  0  0  0  0  3  0  0  0  0  0  0
  182.5900  177.7680  139.2400 C   0  0  0  0  0  0  0  0  0  0  0  0
  181.6270  175.5310  137.9100 C   0  0  0  0  0  3  0  0  0  0  0  0
  181.9850  177.9080  137.9910 C   0  0  0  0  0  3  0  0  0  0  0  0
  182.9240  178.8720  141.4350 C   0  0  0  0  0  0  0  0  0  0  0  0
  183.4980  178.7080  143.6730 C   0  0  0  0  0  0  0  0  0  0  0  0
  183.9540  178.7440  142.3450 C   0  0  0  0  0  3  0  0  0  0  0  0
  182.1170  178.8190  143.8250 C   0  0  0  0  0  3  0  0  0  0  0  0
  181.4730  178.9620  142.2790 S   0  0  0  0  0  0  0  0  0  0  0  0
  188.3910  177.3600  145.5540 C   0  0  0  0  0  3  0  0  0  0  0  0
  186.5700  177.6060  143.8890 C   0  0  0  0  0  3  0  0  0  0  0  0
  186.1700  178.2680  146.1950 C   0  0  0  0  0  0  0  0  0  0  0  0
  184.4090  178.6020  144.8230 C   0  0  0  0  0  0  0  0  0  0  0  0
  187.5430  177.9170  146.6860 C   0  0  0  0  0  2  0  0  0  0  0  0
  185.7670  178.0840  144.8320 C   0  0  0  0  0  0  0  0  0  0  0  0
  185.2150  178.8080  146.8770 N   0  0  0  0  0  0  0  0  0  0  0  0
  187.9470  177.2220  144.2860 C   0  0  0  0  0  3  0  0  0  0  0  0
  184.1190  179.0100  146.0210 N   0  0  0  0  0  0  0  0  0  0  0  0
  184.5150  179.2890  139.5610 C   0  0  0  0  0  3  0  0  0  0  0  0
  185.2270  178.4300  138.8380 C   0  0  0  0  0  3  0  0  0  0  0  0
  186.5770  178.7040  138.4520 N   0  0  0  0  0  2  0  0  0  0  0  0
  187.8920  178.3870  140.4830 C   0  0  0  0  0  1  0  0  0  0  0  0
  187.7330  178.0210  139.0180 C   0  0  2  0  0  3  0  0  0  0  0  0
  189.9440  177.6040  138.2390 O   0  0  0  0  0  1  0  0  0  0  0  0
  189.0370  179.6100  137.5930 O   0  0  0  0  0  0  0  0  0  0  0  0
  188.9630  178.3950  138.2650 C   0  0  0  0  0  0  0  0  0  0  0  0
  1 22  1  1  0  0  0
  1  8  1  0  0  0  0
  3  2  2  0  0  0  0
  4  6  2  0  0  0  0
  4  7  1  0  0  0  0
  5  2  1  0  0  0  0
  5  1  1  0  0  0  0
  6  3  1  0  0  0  0
  7  5  2  0  0  0  0
  8 12  1  0  0  0  0
  8 10  2  0  0  0  0
  9 11  2  0  0  0  0
  9 16  1  0  0  0  0
 10  9  1  0  0  0  0
 12 11  1  0  0  0  0
 13 17  1  0  0  0  0
 14 20  1  0  0  0  0
 14 18  2  0  0  0  0
 15 17  1  0  0  0  0
 15 19  2  0  0  0  0
 16 18  1  0  0  0  0
 16 21  2  0  0  0  0
 18 15  1  0  0  0  0
 20 13  2  0  0  0  0
 21 19  1  0  0  0  0
 23 22  2  0  0  0  0
 24 23  1  0  0  0  0
 24 26  1  0  0  0  0
 26 25  1  1  0  0  0
 27 29  1  0  0  0  0
 28 29  2  0  0  0  0
 29 26  1  0  0  0  0
M  END
>  <MODEL>
1

>  <REMARK>
 VINA RESULT:      -8.5      0.000      0.000
  Name = 
  7 active torsions:
  status: ('A' for Active; 'I' for Inactive)
    1  A    between atoms: C_2  and  C_11
    2  A    between atoms: C_4  and  C_11
    3  A    between atoms: C_10  and  C_13
    4  A    between atoms: C_11  and  C_15
    5  A    between atoms: C_16  and  N_26
    6  A    between atoms: CA_18  and  C_25
    7  A    between atoms: CA_18  and  N_26
                            x       y       z     vdW  Elec       q    Type
                         _______ _______ _______ _____ _____    ______ ____

>  <TORSDO>
F 7

$$$$
=
 OpenBabel10222415523D

 29 32  0  0  1  0  0  0  0  0999 V2000
  190.5540  177.1880  138.7880 C   0  0  1  0  0  3  0  0  0  0  0  0
  189.0070  178.8380  137.6530 C   0  0  0  0  0  3  0  0  0  0  0  0
  187.8570  179.1080  136.9800 N   0  0  0  0  0  0  0  0  0  0  0  0
  187.2160  176.8110  137.0480 C   0  0  0  0  0  3  0  0  0  0  0  0
  189.2970  177.5270  138.0490 C   0  0  0  0  0  0  0  0  0  0  0  0
  186.9640  178.1300  136.6730 C   0  0  0  0  0  3  0  0  0  0  0  0
  188.3900  176.5130  137.7390 C   0  0  0  0  0  3  0  0  0  0  0  0
  190.3880  177.3560  140.2700 C   0  0  0  0  0  0  0  0  0  0  0  0
  189.3180  177.5500  142.3150 C   0  0  0  0  0  0  0  0  0  0  0  0
  189.1740  177.4450  140.9210 C   0  0  0  0  0  3  0  0  0  0  0  0
  190.6330  177.5350  142.7740 C   0  0  0  0  0  3  0  0  0  0  0  0
  191.6150  177.3870  141.4180 S   0  0  0  0  0  0  0  0  0  0  0  0
  187.4940  177.8270  147.4040 C   0  0  0  0  0  3  0  0  0  0  0  0
  189.1620  177.6130  145.5820 C   0  0  0  0  0  3  0  0  0  0  0  0
  186.8020  177.7810  145.0200 C   0  0  0  0  0  0  0  0  0  0  0  0
  188.1670  177.6320  143.2280 C   0  0  0  0  0  0  0  0  0  0  0  0
  186.3230  177.8880  146.4360 C   0  0  0  0  0  3  0  0  0  0  0  0
  188.1880  177.6430  144.6810 C   0  0  1  0  0  3  0  0  0  0  0  0
  186.0820  177.8470  143.9490 N   0  0  0  0  0  0  0  0  0  0  0  0
  188.7810  177.7030  147.0130 C   0  0  0  0  0  3  0  0  0  0  0  0
  186.9350  177.7490  142.8350 N   0  0  0  0  0  0  0  0  0  0  0  0
  191.0570  175.8280  138.4170 C   0  0  0  0  0  2  0  0  0  0  0  0
  192.2890  175.6580  137.9480 C   0  0  0  0  0  3  0  0  0  0  0  0
  192.7910  174.3660  137.5910 N   0  0  0  0  0  0  0  0  0  0  0  0
  194.2730  172.8600  136.3720 C   0  0  0  0  0  1  0  0  0  0  0  0
  194.1780  174.1110  137.2280 C   0  0  2  0  0  3  0  0  0  0  0  0
  195.2680  172.7920  138.8830 O   0  0  0  0  0  0  0  0  0  0  0  0
  195.4850  175.0620  139.1360 O   0  0  0  0  0  1  0  0  0  0  0  0
  195.0040  173.9480  138.4560 C   0  0  0  0  0  0  0  0  0  0  0  0
  1 22  1  1  0  0  0
  1  8  1  0  0  0  0
  2  5  1  0  0  0  0
  3  2  2  0  0  0  0
  4  7  1  0  0  0  0
  5  1  1  0  0  0  0
  6  3  1  0  0  0  0
  6  4  2  0  0  0  0
  7  5  2  0  0  0  0
  8 10  2  0  0  0  0
  8 12  1  0  0  0  0
  9 11  2  0  0  0  0
  9 16  1  0  0  0  0
 10  9  1  0  0  0  0
 12 11  1  0  0  0  0
 14 20  2  0  0  0  0
 15 17  1  0  0  0  0
 16 18  1  0  0  0  0
 17 13  2  0  0  0  0
 18 15  1  0  0  0  0
 18 14  1  6  0  0  0
 19 15  2  0  0  0  0
 20 13  1  0  0  0  0
 21 16  2  0  0  0  0
 21 19  1  0  0  0  0
 23 22  1  0  0  0  0
 24 23  2  0  0  0  0
 26 25  1  6  0  0  0
 26 24  1  0  0  0  0
 26 29  1  0  0  0  0
 29 27  2  0  0  0  0
 29 28  1  0  0  0  0
M  END
>  <MODEL>
2

>  <REMARK>
 VINA RESULT:      -8.1      4.437      6.436
  Name = 
  7 active torsions:
  status: ('A' for Active; 'I' for Inactive)
    1  A    between atoms: C_2  and  C_11
    2  A    between atoms: C_4  and  C_11
    3  A    between atoms: C_10  and  C_13
    4  A    between atoms: C_11  and  C_15
    5  A    between atoms: C_16  and  N_26
    6  A    between atoms: CA_18  and  C_25
    7  A    between atoms: CA_18  and  N_26
                            x       y       z     vdW  Elec       q    Type
                         _______ _______ _______ _____ _____    ______ ____

>  <TORSDO>
F 7

$$$$
=
 OpenBabel10222415523D

 29 32  0  0  1  0  0  0  0  0999 V2000
  187.6430  177.0290  144.6190 C   0  0  1  0  0  3  0  0  0  0  0  0
  187.0020  177.8610  146.9210 C   0  0  0  0  0  3  0  0  0  0  0  0
  187.3470  178.2160  148.1880 N   0  0  0  0  0  0  0  0  0  0  0  0
  189.6450  177.7480  147.7480 C   0  0  0  0  0  3  0  0  0  0  0  0
  187.9830  177.4340  146.0200 C   0  0  0  0  0  0  0  0  0  0  0  0
  188.6370  178.1700  148.6150 C   0  0  0  0  0  3  0  0  0  0  0  0
  189.3110  177.3790  146.4460 C   0  0  0  0  0  3  0  0  0  0  0  0
  186.4860  177.8190  144.0810 C   0  0  0  0  0  0  0  0  0  0  0  0
  185.0380  178.7440  142.5280 C   0  0  0  0  0  0  0  0  0  0  0  0
  186.2110  178.0000  142.7410 C   0  0  0  0  0  3  0  0  0  0  0  0
  184.3760  179.1430  143.6870 C   0  0  0  0  0  3  0  0  0  0  0  0
  185.2720  178.5550  144.9810 S   0  0  0  0  0  0  0  0  0  0  0  0
  180.8450  178.7670  139.1050 C   0  0  0  0  0  3  0  0  0  0  0  0
  182.0740  178.3210  141.2120 C   0  0  0  0  0  3  0  0  0  0  0  0
  183.2490  179.3400  139.3430 C   0  0  0  0  0  0  0  0  0  0  0  0
  184.5240  179.0470  141.1840 C   0  0  0  0  0  0  0  0  0  0  0  0
  182.0660  179.3650  138.4240 C   0  0  0  0  0  3  0  0  0  0  0  0
  183.1820  178.8130  140.6740 C   0  0  1  0  0  3  0  0  0  0  0  0
  184.4290  179.8110  139.1050 N   0  0  0  0  0  0  0  0  0  0  0  0
  180.8520  178.2960  140.3700 C   0  0  0  0  0  3  0  0  0  0  0  0
  185.2210  179.6230  140.2510 N   0  0  0  0  0  0  0  0  0  0  0  0
  188.8430  177.0880  143.7260 C   0  0  0  0  0  3  0  0  0  0  0  0
  189.0060  176.2110  142.7400 C   0  0  0  0  0  3  0  0  0  0  0  0
  190.1430  176.2520  141.8730 N   0  0  0  0  0  2  0  0  0  0  0  0
  188.9300  177.5620  140.2100 C   0  0  0  0  0  1  0  0  0  0  0  0
  190.2910  177.2030  140.7790 C   0  0  2  0  0  3  0  0  0  0  0  0
  192.3180  177.0590  139.5390 O   0  0  0  0  0  1  0  0  0  0  0  0
  190.6710  175.5970  138.9000 O   0  0  0  0  0  0  0  0  0  0  0  0
  191.1500  176.6200  139.7100 C   0  0  0  0  0  0  0  0  0  0  0  0
  1 22  1  6  0  0  0
  1  5  1  0  0  0  0
  2  3  1  0  0  0  0
  3  6  2  0  0  0  0
  4  6  1  0  0  0  0
  5  7  1  0  0  0  0
  5  2  2  0  0  0  0
  7  4  2  0  0  0  0
  8  1  1  0  0  0  0
  8 12  1  0  0  0  0
  9 10  1  0  0  0  0
  9 11  2  0  0  0  0
 10  8  2  0  0  0  0
 11 12  1  0  0  0  0
 13 20  1  0  0  0  0
 15 18  1  0  0  0  0
 16  9  1  0  0  0  0
 17 13  2  0  0  0  0
 17 15  1  0  0  0  0
 18 16  1  0  0  0  0
 18 14  1  1  0  0  0
 19 15  2  0  0  0  0
 19 21  1  0  0  0  0
 20 14  2  0  0  0  0
 21 16  2  0  0  0  0
 23 22  2  0  0  0  0
 24 23  1  0  0  0  0
 26 25  1  6  0  0  0
 26 24  1  0  0  0  0
 27 29  1  0  0  0  0
 28 29  2  0  0  0  0
 29 26  1  0  0  0  0
M  END
>  <MODEL>
3

>  <REMARK>
 VINA RESULT:      -8.1      2.354      7.148
  Name = 
  7 active torsions:
  status: ('A' for Active; 'I' for Inactive)
    1  A    between atoms: C_2  and  C_11
    2  A    between atoms: C_4  and  C_11
    3  A    between atoms: C_10  and  C_13
    4  A    between atoms: C_11  and  C_15
    5  A    between atoms: C_16  and  N_26
    6  A    between atoms: CA_18  and  C_25
    7  A    between atoms: CA_18  and  N_26
                            x       y       z     vdW  Elec       q    Type
                         _______ _______ _______ _____ _____    ______ ____

>  <TORSDO>
F 7

$$$$
=
 OpenBabel10222415523D

 29 32  0  0  1  0  0  0  0  0999 V2000
  184.9690  178.1070  142.1580 C   0  0  1  0  0  3  0  0  0  0  0  0
  186.0490  178.4990  139.9030 C   0  0  0  0  0  3  0  0  0  0  0  0
  187.1620  178.6280  139.1330 N   0  0  0  0  0  0  0  0  0  0  0  0
  188.5750  178.2760  141.0240 C   0  0  0  0  0  3  0  0  0  0  0  0
  186.1700  178.2500  141.2750 C   0  0  0  0  0  0  0  0  0  0  0  0
  188.4110  178.5210  139.6610 C   0  0  0  0  0  3  0  0  0  0  0  0
  187.4450  178.1410  141.8300 C   0  0  0  0  0  3  0  0  0  0  0  0
  185.3160  178.3140  143.6020 C   0  0  0  0  0  0  0  0  0  0  0  0
  186.5370  178.2030  145.5680 C   0  0  0  0  0  0  0  0  0  0  0  0
  186.4440  177.8130  144.2210 C   0  0  0  0  0  3  0  0  0  0  0  0
  185.4990  179.0170  146.0180 C   0  0  0  0  0  3  0  0  0  0  0  0
  184.4640  179.2450  144.7130 S   0  0  0  0  0  0  0  0  0  0  0  0
  191.6800  176.5620  145.9560 C   0  0  0  0  0  3  0  0  0  0  0  0
  189.5600  177.1940  144.8350 C   0  0  0  0  0  3  0  0  0  0  0  0
  189.6610  177.1770  147.2650 C   0  0  0  0  0  0  0  0  0  0  0  0
  187.6630  177.8150  146.4310 C   0  0  0  0  0  0  0  0  0  0  0  0
  191.0970  176.7530  147.3470 C   0  0  0  0  0  2  0  0  0  0  0  0
  188.9810  177.3640  146.0170 C   0  0  0  0  0  0  0  0  0  0  0  0
  188.8810  177.4730  148.2510 N   0  0  0  0  0  0  0  0  0  0  0  0
  190.9800  176.7640  144.8190 C   0  0  0  0  0  3  0  0  0  0  0  0
  187.6360  177.8650  147.7280 N   0  0  0  0  0  0  0  0  0  0  0  0
  183.8490  178.9900  141.7040 C   0  0  0  0  0  3  0  0  0  0  0  0
  182.6660  178.4800  141.3710 C   0  0  0  0  0  3  0  0  0  0  0  0
  181.5810  179.3060  140.9390 N   0  0  0  0  0  2  0  0  0  0  0  0
  179.2800  179.8470  140.3340 C   0  0  0  0  0  1  0  0  0  0  0  0
  180.1830  179.0230  141.2340 C   0  0  2  0  0  3  0  0  0  0  0  0
  180.0560  180.5030  143.0950 O   0  0  0  0  0  0  0  0  0  0  0  0
  179.4450  178.3330  143.5220 O   0  0  0  0  0  1  0  0  0  0  0  0
  179.8930  179.3300  142.6630 C   0  0  0  0  0  0  0  0  0  0  0  0
  1 22  1  6  0  0  0
  1  8  1  0  0  0  0
  2  5  1  0  0  0  0
  3  6  1  0  0  0  0
  3  2  2  0  0  0  0
  4  7  1  0  0  0  0
  5  7  2  0  0  0  0
  5  1  1  0  0  0  0
  6  4  2  0  0  0  0
  8 10  2  0  0  0  0
  8 12  1  0  0  0  0
  9 11  2  0  0  0  0
  9 16  1  0  0  0  0
 10  9  1  0  0  0  0
 12 11  1  0  0  0  0
 13 17  1  0  0  0  0
 14 18  2  0  0  0  0
 15 17  1  0  0  0  0
 15 19  2  0  0  0  0
 16 21  2  0  0  0  0
 18 16  1  0  0  0  0
 18 15  1  0  0  0  0
 20 14  1  0  0  0  0
 20 13  2  0  0  0  0
 21 19  1  0  0  0  0
 23 22  2  0  0  0  0
 24 26  1  0  0  0  0
 24 23  1  0  0  0  0
 26 25  1  6  0  0  0
 26 29  1  0  0  0  0
 29 27  2  0  0  0  0
 29 28  1  0  0  0  0
M  END
>  <MODEL>
4

>  <REMARK>
 VINA RESULT:      -8.0      3.694      5.815
  Name = 
  7 active torsions:
  status: ('A' for Active; 'I' for Inactive)
    1  A    between atoms: C_2  and  C_11
    2  A    between atoms: C_4  and  C_11
    3  A    between atoms: C_10  and  C_13
    4  A    between atoms: C_11  and  C_15
    5  A    between atoms: C_16  and  N_26
    6  A    between atoms: CA_18  and  C_25
    7  A    between atoms: CA_18  and  N_26
                            x       y       z     vdW  Elec       q    Type
                         _______ _______ _______ _____ _____    ______ ____

>  <TORSDO>
F 7

$$$$
=
 OpenBabel10222415523D

 29 32  0  0  1  0  0  0  0  0999 V2000
  190.4270  177.1090  138.5310 C   0  0  1  0  0  3  0  0  0  0  0  0
  188.5670  175.7920  137.4300 C   0  0  0  0  0  3  0  0  0  0  0  0
  187.5840  175.6910  136.4960 N   0  0  0  0  0  0  0  0  0  0  0  0
  188.0670  177.8790  135.6750 C   0  0  0  0  0  3  0  0  0  0  0  0
  189.3390  176.9570  137.5130 C   0  0  0  0  0  0  0  0  0  0  0  0
  187.3220  176.7010  135.6240 C   0  0  0  0  0  3  0  0  0  0  0  0
  189.0790  178.0020  136.6260 C   0  0  0  0  0  3  0  0  0  0  0  0
  189.8730  177.4120  139.8920 C   0  0  0  0  0  0  0  0  0  0  0  0
  189.7700  177.5450  142.2020 C   0  0  0  0  0  0  0  0  0  0  0  0
  190.4950  177.1010  141.0840 C   0  0  0  0  0  3  0  0  0  0  0  0
  188.5840  178.2150  141.9060 C   0  0  0  0  0  3  0  0  0  0  0  0
  188.4530  178.2470  140.2310 S   0  0  0  0  0  0  0  0  0  0  0  0
  188.5770  177.2630  147.4740 C   0  0  0  0  0  3  0  0  0  0  0  0
  188.1690  177.6120  145.0530 C   0  0  0  0  0  3  0  0  0  0  0  0
  190.4210  177.1070  145.8190 C   0  0  0  0  0  0  0  0  0  0  0  0
  190.2420  177.3530  143.5810 C   0  0  0  0  0  0  0  0  0  0  0  0
  190.0610  177.0020  147.2700 C   0  0  0  0  0  2  0  0  0  0  0  0
  189.4570  177.4120  144.8040 C   0  0  0  0  0  0  0  0  0  0  0  0
  191.5810  176.8970  145.2890 N   0  0  0  0  0  0  0  0  0  0  0  0
  187.7210  177.5380  146.4660 C   0  0  0  0  0  3  0  0  0  0  0  0
  191.4660  177.0560  143.8960 N   0  0  0  0  0  0  0  0  0  0  0  0
  191.3420  175.9240  138.5340 C   0  0  0  0  0  3  0  0  0  0  0  0
  192.3490  175.8340  137.6690 C   0  0  0  0  0  3  0  0  0  0  0  0
  193.2370  174.7130  137.6580 N   0  0  0  0  0  2  0  0  0  0  0  0
  195.1840  174.1140  136.3140 C   0  0  0  0  0  1  0  0  0  0  0  0
  194.6860  174.8320  137.5560 C   0  0  2  0  0  3  0  0  0  0  0  0
  195.8270  175.0210  139.6360 O   0  0  0  0  0  1  0  0  0  0  0  0
  195.3900  172.8770  138.9470 O   0  0  0  0  0  0  0  0  0  0  0  0
  195.3310  174.2540  138.7680 C   0  0  0  0  0  0  0  0  0  0  0  0
  1 22  1  1  0  0  0
  1  8  1  0  0  0  0
  2  5  1  0  0  0  0
  3  2  2  0  0  0  0
  4  7  1  0  0  0  0
  5  1  1  0  0  0  0
  6  4  2  0  0  0  0
  6  3  1  0  0  0  0
  7  5  2  0  0  0  0
  8 12  1  0  0  0  0
  8 10  2  0  0  0  0
  9 16  1  0  0  0  0
 10  9  1  0  0  0  0
 11  9  2  0  0  0  0
 12 11  1  0  0  0  0
 14 20  1  0  0  0  0
 15 17  1  0  0  0  0
 16 21  2  0  0  0  0
 16 18  1  0  0  0  0
 17 13  1  0  0  0  0
 18 14  2  0  0  0  0
 18 15  1  0  0  0  0
 19 15  2  0  0  0  0
 20 13  2  0  0  0  0
 21 19  1  0  0  0  0
 23 22  2  0  0  0  0
 24 23  1  0  0  0  0
 26 25  1  6  0  0  0
 26 24  1  0  0  0  0
 26 29  1  0  0  0  0
 29 28  2  0  0  0  0
 29 27  1  0  0  0  0
M  END
>  <MODEL>
5

>  <REMARK>
 VINA RESULT:      -8.0      5.074      6.648
  Name = 
  7 active torsions:
  status: ('A' for Active; 'I' for Inactive)
    1  A    between atoms: C_2  and  C_11
    2  A    between atoms: C_4  and  C_11
    3  A    between atoms: C_10  and  C_13
    4  A    between atoms: C_11  and  C_15
    5  A    between atoms: C_16  and  N_26
    6  A    between atoms: CA_18  and  C_25
    7  A    between atoms: CA_18  and  N_26
                            x       y       z     vdW  Elec       q    Type
                         _______ _______ _______ _____ _____    ______ ____

>  <TORSDO>
F 7

$$$$
=
 OpenBabel10222415523D

 29 32  0  0  1  0  0  0  0  0999 V2000
  188.4820  177.0060  144.1690 C   0  0  1  0  0  3  0  0  0  0  0  0
  190.8400  177.0390  145.0850 C   0  0  0  0  0  3  0  0  0  0  0  0
  191.6980  177.0280  146.1400 N   0  0  0  0  0  0  0  0  0  0  0  0
  189.8810  176.9210  147.6840 C   0  0  0  0  0  3  0  0  0  0  0  0
  189.4590  176.9900  145.3040 C   0  0  0  0  0  0  0  0  0  0  0  0
  191.2500  176.9700  147.4230 C   0  0  0  0  0  3  0  0  0  0  0  0
  188.9860  176.9330  146.6150 C   0  0  0  0  0  3  0  0  0  0  0  0
  187.1950  177.6740  144.5560 C   0  0  0  0  0  0  0  0  0  0  0  0
  185.0150  178.4340  144.3720 C   0  0  0  0  0  0  0  0  0  0  0  0
  186.0980  177.8080  143.7310 C   0  0  0  0  0  3  0  0  0  0  0  0
  185.2420  178.7860  145.7010 C   0  0  0  0  0  3  0  0  0  0  0  0
  186.8100  178.3050  146.0660 S   0  0  0  0  0  0  0  0  0  0  0  0
  182.1750  178.5660  139.7650 C   0  0  0  0  0  3  0  0  0  0  0  0
  184.1760  178.3330  141.2120 C   0  0  0  0  0  3  0  0  0  0  0  0
  182.0330  178.8740  142.2250 C   0  0  0  0  0  0  0  0  0  0  0  0
  183.7250  178.6670  143.7050 C   0  0  0  0  0  0  0  0  0  0  0  0
  181.2610  178.8740  140.9400 C   0  0  0  0  0  2  0  0  0  0  0  0
  183.4400  178.6120  142.2810 C   0  0  0  0  0  0  0  0  0  0  0  0
  181.5610  179.0500  143.4150 N   0  0  0  0  0  0  0  0  0  0  0  0
  183.4970  178.3200  139.8920 C   0  0  0  0  0  3  0  0  0  0  0  0
  182.6180  178.9240  144.3340 N   0  0  0  0  0  0  0  0  0  0  0  0
  189.0870  177.5970  142.9340 C   0  0  0  0  0  3  0  0  0  0  0  0
  189.3790  176.8360  141.8830 C   0  0  0  0  0  3  0  0  0  0  0  0
  189.9540  177.3810  140.6920 N   0  0  0  0  0  2  0  0  0  0  0  0
  190.4830  177.0220  138.3370 C   0  0  0  0  0  1  0  0  0  0  0  0
  189.3800  177.2050  139.3650 C   0  0  2  0  0  3  0  0  0  0  0  0
  189.0020  179.2550  138.2150 O   0  0  0  0  0  0  0  0  0  0  0  0
  187.2760  178.5430  139.5490 O   0  0  0  0  0  1  0  0  0  0  0  0
  188.5480  178.3880  139.0090 C   0  0  0  0  0  0  0  0  0  0  0  0
  1 22  1  6  0  0  0
  1  8  1  0  0  0  0
  1  5  1  0  0  0  0
  2  5  2  0  0  0  0
  2  3  1  0  0  0  0
  3  6  2  0  0  0  0
  5  7  1  0  0  0  0
  6  4  1  0  0  0  0
  7  4  2  0  0  0  0
  8 12  1  0  0  0  0
  9 11  2  0  0  0  0
 10  9  1  0  0  0  0
 10  8  2  0  0  0  0
 11 12  1  0  0  0  0
 13 20  2  0  0  0  0
 13 17  1  0  0  0  0
 14 18  2  0  0  0  0
 15 18  1  0  0  0  0
 15 19  2  0  0  0  0
 16 21  2  0  0  0  0
 16  9  1  0  0  0  0
 17 15  1  0  0  0  0
 18 16  1  0  0  0  0
 19 21  1  0  0  0  0
 20 14  1  0  0  0  0
 23 22  2  0  0  0  0
 24 23  1  0  0  0  0
 26 25  1  6  0  0  0
 26 24  1  0  0  0  0
 27 29  2  0  0  0  0
 29 26  1  0  0  0  0
 29 28  1  0  0  0  0
M  END
>  <MODEL>
6

>  <REMARK>
 VINA RESULT:      -8.0      2.568      6.810
  Name = 
  7 active torsions:
  status: ('A' for Active; 'I' for Inactive)
    1  A    between atoms: C_2  and  C_11
    2  A    between atoms: C_4  and  C_11
    3  A    between atoms: C_10  and  C_13
    4  A    between atoms: C_11  and  C_15
    5  A    between atoms: C_16  and  N_26
    6  A    between atoms: CA_18  and  C_25
    7  A    between atoms: CA_18  and  N_26
                            x       y       z     vdW  Elec       q    Type
                         _______ _______ _______ _____ _____    ______ ____

>  <TORSDO>
F 7

$$$$
=
 OpenBabel10222415523D

 29 32  0  0  1  0  0  0  0  0999 V2000
  181.3490  178.8740  140.6160 C   0  0  1  0  0  3  0  0  0  0  0  0
  179.5710  177.2350  141.3610 C   0  0  0  0  0  3  0  0  0  0  0  0
  179.0180  175.9930  141.3200 N   0  0  0  0  0  0  0  0  0  0  0  0
  180.6810  175.2440  139.7820 C   0  0  0  0  0  3  0  0  0  0  0  0
  180.7130  177.5190  140.6030 C   0  0  0  0  0  0  0  0  0  0  0  0
  179.5460  175.0020  140.5540 C   0  0  0  0  0  3  0  0  0  0  0  0
  181.2630  176.5110  139.8100 C   0  0  0  0  0  3  0  0  0  0  0  0
  182.6880  178.8500  141.2920 C   0  0  0  0  0  0  0  0  0  0  0  0
  184.2410  178.7280  143.0070 C   0  0  0  0  0  0  0  0  0  0  0  0
  182.8810  178.7850  142.6570 C   0  0  0  0  0  3  0  0  0  0  0  0
  185.1260  178.7350  141.9310 C   0  0  0  0  0  3  0  0  0  0  0  0
  184.1900  178.8120  140.5370 S   0  0  0  0  0  0  0  0  0  0  0  0
  188.2210  177.5050  146.4660 C   0  0  0  0  0  3  0  0  0  0  0  0
  187.0850  177.7240  144.2720 C   0  0  0  0  0  3  0  0  0  0  0  0
  185.8830  178.3260  146.2990 C   0  0  0  0  0  0  0  0  0  0  0  0
  184.6980  178.6290  144.4010 C   0  0  0  0  0  0  0  0  0  0  0  0
  187.0110  178.0110  147.2350 C   0  0  0  0  0  2  0  0  0  0  0  0
  185.9870  178.1560  144.8800 C   0  0  0  0  0  0  0  0  0  0  0  0
  184.7310  178.8210  146.6090 N   0  0  0  0  0  0  0  0  0  0  0  0
  188.2510  177.3770  145.1220 C   0  0  0  0  0  3  0  0  0  0  0  0
  183.9940  179.0040  145.4260 N   0  0  0  0  0  0  0  0  0  0  0  0
  181.4100  179.4630  139.2420 C   0  0  0  0  0  2  0  0  0  0  0  0
  181.0880  180.7360  139.0270 C   0  0  0  0  0  3  0  0  0  0  0  0
  181.1430  181.3200  137.7220 N   0  0  0  0  0  0  0  0  0  0  0  0
  179.6430  183.1710  138.2480 C   0  0  0  0  0  1  0  0  0  0  0  0
  180.8560  182.7220  137.4520 C   0  0  2  0  0  3  0  0  0  0  0  0
  181.1390  183.8950  135.4000 O   0  0  0  0  0  1  0  0  0  0  0  0
  179.7960  182.0380  135.2930 O   0  0  0  0  0  0  0  0  0  0  0  0
  180.6090  182.9200  135.9970 C   0  0  0  0  0  0  0  0  0  0  0  0
  1 22  1  6  0  0  0
  1  8  1  0  0  0  0
  3  2  1  0  0  0  0
  4  7  2  0  0  0  0
  4  6  1  0  0  0  0
  5  1  1  0  0  0  0
  5  2  2  0  0  0  0
  6  3  2  0  0  0  0
  7  5  1  0  0  0  0
  8 10  2  0  0  0  0
  9 16  1  0  0  0  0
 10  9  1  0  0  0  0
 11  9  2  0  0  0  0
 12  8  1  0  0  0  0
 12 11  1  0  0  0  0
 13 17  1  0  0  0  0
 14 18  2  0  0  0  0
 14 20  1  0  0  0  0
 15 19  2  0  0  0  0
 15 17  1  0  0  0  0
 16 18  1  0  0  0  0
 16 21  2  0  0  0  0
 18 15  1  0  0  0  0
 20 13  2  0  0  0  0
 21 19  1  0  0  0  0
 23 22  1  0  0  0  0
 24 23  2  0  0  0  0
 26 24  1  0  0  0  0
 26 25  1  1  0  0  0
 27 29  1  0  0  0  0
 28 29  2  0  0  0  0
 29 26  1  0  0  0  0
M  END
>  <MODEL>
7

>  <REMARK>
 VINA RESULT:      -7.9      3.669      4.723
  Name = 
  7 active torsions:
  status: ('A' for Active; 'I' for Inactive)
    1  A    between atoms: C_2  and  C_11
    2  A    between atoms: C_4  and  C_11
    3  A    between atoms: C_10  and  C_13
    4  A    between atoms: C_11  and  C_15
    5  A    between atoms: C_16  and  N_26
    6  A    between atoms: CA_18  and  C_25
    7  A    between atoms: CA_18  and  N_26
                            x       y       z     vdW  Elec       q    Type
                         _______ _______ _______ _____ _____    ______ ____

>  <TORSDO>
F 7

$$$$
=
 OpenBabel10222415523D

 29 32  0  0  1  0  0  0  0  0999 V2000
  183.4430  178.8080  140.7980 C   0  0  1  0  0  3  0  0  0  0  0  0
  181.7130  177.0530  140.2220 C   0  0  0  0  0  3  0  0  0  0  0  0
  180.4170  176.6470  140.1620 N   0  0  0  0  0  0  0  0  0  0  0  0
  179.6690  178.7260  141.0630 C   0  0  0  0  0  3  0  0  0  0  0  0
  182.0270  178.3260  140.7110 C   0  0  0  0  0  0  0  0  0  0  0  0
  179.3980  177.4520  140.5680 C   0  0  0  0  0  3  0  0  0  0  0  0
  180.9920  179.1610  141.1330 C   0  0  0  0  0  3  0  0  0  0  0  0
  184.0080  178.6170  142.1740 C   0  0  0  0  0  0  0  0  0  0  0  0
  185.5600  178.1260  143.8230 C   0  0  0  0  0  0  0  0  0  0  0  0
  185.2830  178.1630  142.4450 C   0  0  0  0  0  3  0  0  0  0  0  0
  184.5190  178.5570  144.6440 C   0  0  0  0  0  3  0  0  0  0  0  0
  183.2500  178.9860  143.6280 S   0  0  0  0  0  0  0  0  0  0  0  0
  188.8320  177.6490  148.1080 C   0  0  0  0  0  3  0  0  0  0  0  0
  186.8030  178.3060  146.8420 C   0  0  0  0  0  3  0  0  0  0  0  0
  188.6340  177.2150  145.6710 C   0  0  0  0  0  0  0  0  0  0  0  0
  186.8610  177.7020  144.3600 C   0  0  0  0  0  0  0  0  0  0  0  0
  189.5100  177.0650  146.8780 C   0  0  0  0  0  3  0  0  0  0  0  0
  187.3420  177.8320  145.7260 C   0  0  1  0  0  3  0  0  0  0  0  0
  188.8770  176.7870  144.4760 N   0  0  0  0  0  0  0  0  0  0  0  0
  187.6040  178.2100  148.0880 C   0  0  0  0  0  3  0  0  0  0  0  0
  187.7730  177.0960  143.6620 N   0  0  0  0  0  0  0  0  0  0  0  0
  184.2960  178.1920  139.7340 C   0  0  0  0  0  3  0  0  0  0  0  0
  185.2430  178.8960  139.1220 C   0  0  0  0  0  3  0  0  0  0  0  0
  186.0730  178.3250  138.1060 N   0  0  0  0  0  2  0  0  0  0  0  0
  187.8810  178.2510  139.7430 C   0  0  0  0  0  1  0  0  0  0  0  0
  187.4450  177.8900  138.3340 C   0  0  2  0  0  3  0  0  0  0  0  0
  188.6000  177.9480  136.2530 O   0  0  0  0  0  0  0  0  0  0  0  0
  188.9300  179.7680  137.6100 O   0  0  0  0  0  1  0  0  0  0  0  0
  188.3530  178.5310  137.3420 C   0  0  0  0  0  0  0  0  0  0  0  0
  1 22  1  6  0  0  0
  1  8  1  0  0  0  0
  2  5  1  0  0  0  0
  3  2  2  0  0  0  0
  3  6  1  0  0  0  0
  4  7  1  0  0  0  0
  5  1  1  0  0  0  0
  5  7  2  0  0  0  0
  6  4  2  0  0  0  0
  8 10  2  0  0  0  0
  8 12  1  0  0  0  0
  9 16  1  0  0  0  0
  9 11  2  0  0  0  0
 10  9  1  0  0  0  0
 12 11  1  0  0  0  0
 14 20  2  0  0  0  0
 15 18  1  0  0  0  0
 15 17  1  0  0  0  0
 16 18  1  0  0  0  0
 17 13  2  0  0  0  0
 18 14  1  1  0  0  0
 19 15  2  0  0  0  0
 20 13  1  0  0  0  0
 21 16  2  0  0  0  0
 21 19  1  0  0  0  0
 23 22  2  0  0  0  0
 24 26  1  0  0  0  0
 24 23  1  0  0  0  0
 26 25  1  1  0  0  0
 27 29  2  0  0  0  0
 29 28  1  0  0  0  0
 29 26  1  0  0  0  0
M  END
>  <MODEL>
8

>  <REMARK>
 VINA RESULT:      -7.9      1.929      2.563
  Name = 
  7 active torsions:
  status: ('A' for Active; 'I' for Inactive)
    1  A    between atoms: C_2  and  C_11
    2  A    between atoms: C_4  and  C_11
    3  A    between atoms: C_10  and  C_13
    4  A    between atoms: C_11  and  C_15
    5  A    between atoms: C_16  and  N_26
    6  A    between atoms: CA_18  and  C_25
    7  A    between atoms: CA_18  and  N_26
                            x       y       z     vdW  Elec       q    Type
                         _______ _______ _______ _____ _____    ______ ____

>  <TORSDO>
F 7

$$$$
=
 OpenBabel10222415523D

 29 32  0  0  1  0  0  0  0  0999 V2000
  187.3120  177.3640  144.2100 C   0  0  1  0  0  3  0  0  0  0  0  0
  185.5660  178.4550  145.6820 C   0  0  0  0  0  3  0  0  0  0  0  0
  184.3330  179.0030  145.8430 N   0  0  0  0  0  0  0  0  0  0  0  0
  183.8080  178.6270  143.5460 C   0  0  0  0  0  3  0  0  0  0  0  0
  185.9600  177.9700  144.4300 C   0  0  0  0  0  0  0  0  0  0  0  0
  183.4530  179.0970  144.8100 C   0  0  0  0  0  3  0  0  0  0  0  0
  185.0690  178.0620  143.3600 C   0  0  0  0  0  3  0  0  0  0  0  0
  187.8630  177.7160  142.8600 C   0  0  0  0  0  0  0  0  0  0  0  0
  189.3130  177.7230  141.0530 C   0  0  0  0  0  0  0  0  0  0  0  0
  189.0730  177.2750  142.3630 C   0  0  0  0  0  3  0  0  0  0  0  0
  188.2980  178.5040  140.5030 C   0  0  0  0  0  3  0  0  0  0  0  0
  187.0970  178.6280  141.6730 S   0  0  0  0  0  0  0  0  0  0  0  0
  191.4970  175.9190  136.4400 C   0  0  0  0  0  3  0  0  0  0  0  0
  189.6960  176.5400  138.0280 C   0  0  0  0  0  3  0  0  0  0  0  0
  192.0160  176.7190  138.7330 C   0  0  0  0  0  0  0  0  0  0  0  0
  190.5240  177.3640  140.3010 C   0  0  0  0  0  0  0  0  0  0  0  0
  192.5990  176.2470  137.4350 C   0  0  0  0  0  2  0  0  0  0  0  0
  190.6040  176.8280  138.9510 C   0  0  0  0  0  0  0  0  0  0  0  0
  192.6640  177.1260  139.7740 N   0  0  0  0  0  0  0  0  0  0  0  0
  190.1810  176.0540  136.7120 C   0  0  0  0  0  3  0  0  0  0  0  0
  191.7320  177.5220  140.7500 N   0  0  0  0  0  0  0  0  0  0  0  0
  188.2530  177.7100  145.3220 C   0  0  0  0  0  3  0  0  0  0  0  0
  188.9510  176.7660  145.9470 C   0  0  0  0  0  3  0  0  0  0  0  0
  189.8580  177.0750  147.0090 N   0  0  0  0  0  2  0  0  0  0  0  0
  191.6800  176.8530  145.4010 C   0  0  0  0  0  1  0  0  0  0  0  0
  191.3060  177.0980  146.8520 C   0  0  2  0  0  3  0  0  0  0  0  0
  191.4900  174.8760  147.6880 O   0  0  0  0  0  0  0  0  0  0  0  0
  192.9870  176.3800  148.5600 O   0  0  0  0  0  1  0  0  0  0  0  0
  191.9280  176.0570  147.7180 C   0  0  0  0  0  0  0  0  0  0  0  0
  1  5  1  0  0  0  0
  1 22  1  1  0  0  0
  2  3  1  0  0  0  0
  4  6  1  0  0  0  0
  5  2  2  0  0  0  0
  6  3  2  0  0  0  0
  7  4  2  0  0  0  0
  7  5  1  0  0  0  0
  8  1  1  0  0  0  0
  9 10  1  0  0  0  0
 10  8  2  0  0  0  0
 11  9  2  0  0  0  0
 11 12  1  0  0  0  0
 12  8  1  0  0  0  0
 13 20  2  0  0  0  0
 13 17  1  0  0  0  0
 14 18  2  0  0  0  0
 15 18  1  0  0  0  0
 15 19  2  0  0  0  0
 16 21  2  0  0  0  0
 16  9  1  0  0  0  0
 17 15  1  0  0  0  0
 18 16  1  0  0  0  0
 19 21  1  0  0  0  0
 20 14  1  0  0  0  0
 22 23  2  0  0  0  0
 23 24  1  0  0  0  0
 26 25  1  6  0  0  0
 26 24  1  0  0  0  0
 26 29  1  0  0  0  0
 27 29  2  0  0  0  0
 29 28  1  0  0  0  0
M  END
>  <MODEL>
9

>  <REMARK>
 VINA RESULT:      -7.8      4.519      8.113
  Name = 
  7 active torsions:
  status: ('A' for Active; 'I' for Inactive)
    1  A    between atoms: C_2  and  C_11
    2  A    between atoms: C_4  and  C_11
    3  A    between atoms: C_10  and  C_13
    4  A    between atoms: C_11  and  C_15
    5  A    between atoms: C_16  and  N_26
    6  A    between atoms: CA_18  and  C_25
    7  A    between atoms: CA_18  and  N_26
                            x       y       z     vdW  Elec       q    Type
                         _______ _______ _______ _____ _____    ______ ____

>  <TORSDO>
F 7

$$$$
