=
 OpenBabel10222421243D

 40 42  0  0  1  0  0  0  0  0999 V2000
  182.7930  178.1380  138.6020 C   0  0  0  0  0  0  0  0  0  0  0  0
  181.8700  179.0810  137.9060 C   0  0  2  0  0  3  0  0  0  0  0  0
  182.8830  178.9270  139.7500 C   0  0  0  0  0  0  0  0  0  0  0  0
  181.9150  180.3090  139.0810 S   0  0  0  0  0  0  0  0  0  0  0  0
  184.9580  178.4980  143.4610 C   0  0  0  0  0  0  0  0  0  0  0  0
  185.6570  178.5960  142.2520 C   0  0  0  0  0  3  0  0  0  0  0  0
  181.3700  178.8220  142.3220 C   0  0  0  0  0  1  0  0  0  0  0  0
  183.5630  178.7680  141.0410 C   0  0  0  0  0  0  0  0  0  0  0  0
  183.5630  178.5620  143.4600 C   0  0  0  0  0  3  0  0  0  0  0  0
  182.8560  178.6950  142.2610 C   0  0  0  0  0  0  0  0  0  0  0  0
  184.9610  178.7370  141.0510 C   0  0  0  0  0  3  0  0  0  0  0  0
  185.6530  178.3480  144.6980 N   0  0  0  0  0  0  0  0  0  0  0  0
  189.6630  176.8970  147.3240 C   0  0  1  0  0  3  0  0  0  0  0  0
  186.9880  177.9210  144.7350 N   0  0  0  0  0  0  0  0  0  0  0  0
  191.1610  176.6520  147.3260 C   0  0  0  0  0  1  0  0  0  0  0  0
  189.2800  177.9780  148.3190 C   0  0  0  0  0  2  0  0  0  0  0  0
  187.1430  178.1560  147.0830 N   0  0  0  0  0  0  0  0  0  0  0  0
  189.1030  177.2200  145.9250 C   0  0  1  0  0  3  0  0  0  0  0  0
  187.7580  178.0050  148.4070 C   0  0  0  0  0  2  0  0  0  0  0  0
  187.6900  177.7570  145.9680 C   0  0  0  0  0  0  0  0  0  0  0  0
  190.4160  177.4200  144.0450 O   0  0  0  0  0  1  0  0  0  0  0  0
  189.9830  178.0950  145.1410 N   0  0  0  0  0  2  0  0  0  0  0  0
  182.6330  175.3310  138.6410 Cl  0  0  0  0  0  0  0  0  0  0  0  0
  186.0710  175.8840  136.0200 C   0  0  0  0  0  1  0  0  0  0  0  0
  185.7510  176.8480  137.1110 C   0  0  0  0  0  0  0  0  0  0  0  0
  184.5590  176.8370  137.6380 C   0  0  0  0  0  0  0  0  0  0  0  0
  183.3770  176.8530  138.1860 C   0  0  0  0  0  0  0  0  0  0  0  0
  186.1030  179.0540  137.9700 O   0  0  0  0  0  1  0  0  0  0  0  0
  186.7420  177.8750  137.5760 C   0  0  2  0  0  3  0  0  0  0  0  0
  187.7400  178.1780  136.4620 C   0  0  0  0  0  2  0  0  0  0  0  0
  189.7380  176.6540  136.4350 C   0  0  0  0  0  1  0  0  0  0  0  0
  189.1940  177.9930  136.9010 C   0  0  2  0  0  3  0  0  0  0  0  0
  189.3270  178.1120  138.2900 O   0  0  0  0  0  0  0  0  0  0  0  0
  190.2590  177.1340  138.6500 C   0  0  0  0  0  2  0  0  0  0  0  0
  189.0230  177.6400  140.7320 C   0  0  0  0  0  1  0  0  0  0  0  0
  190.2230  176.9210  140.1520 C   0  0  2  0  0  3  0  0  0  0  0  0
  191.3880  177.4290  140.7280 O   0  0  0  0  0  1  0  0  0  0  0  0
  180.4860  178.5130  137.7870 C   0  0  0  0  0  0  0  0  0  0  0  0
  179.6460  178.7270  138.7020 O   0  0  0  0  0  1  0  0  0  0  0  0
  180.1220  177.7440  136.6880 O   0  0  0  0  0  0  0  0  0  0  0  0
  1  3  2  0  0  0  0
  2 38  1  1  0  0  0
  2  1  1  0  0  0  0
  2  4  1  0  0  0  0
  3  8  1  0  0  0  0
  4  3  1  0  0  0  0
  5 12  1  0  0  0  0
  6  5  2  0  0  0  0
  8 11  2  0  0  0  0
  8 10  1  0  0  0  0
  9  5  1  0  0  0  0
 10  7  1  0  0  0  0
 10  9  2  0  0  0  0
 11  6  1  0  0  0  0
 12 14  2  0  0  0  0
 13 15  1  6  0  0  0
 13 16  1  0  0  0  0
 14 20  1  0  0  0  0
 16 19  1  0  0  0  0
 17 19  1  0  0  0  0
 18 22  1  1  0  0  0
 18 20  1  0  0  0  0
 18 13  1  0  0  0  0
 20 17  2  0  0  0  0
 21 22  1  0  0  0  0
 24 25  1  0  0  0  0
 25 29  1  0  0  0  0
 25 26  2  0  0  0  0
 26 27  2  0  0  0  0
 27  1  1  0  0  0  0
 27 23  1  0  0  0  0
 29 28  1  6  0  0  0
 30 32  1  0  0  0  0
 30 29  1  0  0  0  0
 32 31  1  1  0  0  0
 32 33  1  0  0  0  0
 33 34  1  0  0  0  0
 34 36  1  0  0  0  0
 36 37  1  0  0  0  0
 36 35  1  1  0  0  0
 38 39  1  0  0  0  0
 40 38  2  0  0  0  0
M  END
>  <MODEL>
1

>  <REMARK>
 VINA RESULT:      -8.0      0.000      0.000
  Name = 
  12 active torsions:
  status: ('A' for Active; 'I' for Inactive)
    1  A    between atoms: C_2  and  C_29
    2  A    between atoms: C_5  and  N_22
    3  A    between atoms: N_8  and  N_22
    4  A    between atoms: C_9  and  C_34
    5  A    between atoms: C_9  and  C_35
    6  A    between atoms: C_15  and  C_30
    7  A    between atoms: C_16  and  C_32
    8  A    between atoms: O_18  and  C_34
    9  A    between atoms: O_18  and  C_37
   10  A    between atoms: C_21  and  C_37
   11  A    between atoms: C_23  and  N_39
   12  A    between atoms: C_24  and  C_35
                            x       y       z     vdW  Elec       q    Type
                         _______ _______ _______ _____ _____    ______ ____

>  <TORSDO>
F 12

$$$$
=
 OpenBabel10222421243D

 40 42  0  0  1  0  0  0  0  0999 V2000
  181.1020  178.1150  139.5240 C   0  0  0  0  0  0  0  0  0  0  0  0
  180.8820  179.1070  138.4320 C   0  0  2  0  0  3  0  0  0  0  0  0
  182.0720  178.8910  140.1600 C   0  0  0  0  0  0  0  0  0  0  0  0
  182.1240  180.1770  138.8820 S   0  0  0  0  0  0  0  0  0  0  0  0
  184.4360  178.4310  143.6910 C   0  0  0  0  0  0  0  0  0  0  0  0
  184.9810  178.1970  142.4220 C   0  0  0  0  0  3  0  0  0  0  0  0
  180.9110  179.4960  142.8440 C   0  0  0  0  0  1  0  0  0  0  0  0
  182.8510  178.7320  141.3940 C   0  0  0  0  0  0  0  0  0  0  0  0
  183.1060  178.8410  143.8060 C   0  0  0  0  0  3  0  0  0  0  0  0
  182.3060  178.9930  142.6690 C   0  0  0  0  0  0  0  0  0  0  0  0
  184.1930  178.3530  141.2820 C   0  0  0  0  0  3  0  0  0  0  0  0
  185.2260  178.2710  144.8680 N   0  0  0  0  0  0  0  0  0  0  0  0
  189.4730  176.9250  147.1560 C   0  0  1  0  0  3  0  0  0  0  0  0
  186.5670  177.8680  144.7950 N   0  0  0  0  0  0  0  0  0  0  0  0
  190.9700  176.7070  147.0320 C   0  0  0  0  0  1  0  0  0  0  0  0
  189.1560  178.0120  148.1670 C   0  0  0  0  0  2  0  0  0  0  0  0
  186.9190  178.1360  147.1180 N   0  0  0  0  0  0  0  0  0  0  0  0
  188.7890  177.2200  145.8070 C   0  0  1  0  0  3  0  0  0  0  0  0
  187.6470  178.0130  148.3860 C   0  0  0  0  0  2  0  0  0  0  0  0
  187.3740  177.7330  145.9650 C   0  0  0  0  0  0  0  0  0  0  0  0
  189.9260  177.4220  143.8150 O   0  0  0  0  0  1  0  0  0  0  0  0
  189.5820  178.1010  144.9400 N   0  0  0  0  0  2  0  0  0  0  0  0
  179.6820  176.4700  141.3090 Cl  0  0  0  0  0  0  0  0  0  0  0  0
  179.9330  173.8350  137.8460 C   0  0  0  0  0  1  0  0  0  0  0  0
  180.9940  174.8370  138.1500 C   0  0  0  0  0  0  0  0  0  0  0  0
  180.7280  175.8130  138.9730 C   0  0  0  0  0  0  0  0  0  0  0  0
  180.4950  176.8000  139.7900 C   0  0  0  0  0  0  0  0  0  0  0  0
  182.7590  173.4760  137.2790 O   0  0  0  0  0  1  0  0  0  0  0  0
  182.3390  174.7930  137.4860 C   0  0  2  0  0  3  0  0  0  0  0  0
  183.3660  175.5340  138.3380 C   0  0  0  0  0  2  0  0  0  0  0  0
  183.3620  176.9190  136.2410 C   0  0  0  0  0  1  0  0  0  0  0  0
  183.9430  176.7650  137.6360 C   0  0  2  0  0  3  0  0  0  0  0  0
  185.3410  176.7090  137.5740 O   0  0  0  0  0  0  0  0  0  0  0  0
  185.7650  178.0290  137.7520 C   0  0  0  0  0  2  0  0  0  0  0  0
  187.9450  177.9750  138.9190 C   0  0  0  0  0  1  0  0  0  0  0  0
  187.2690  178.1130  137.5710 C   0  0  2  0  0  3  0  0  0  0  0  0
  187.6070  179.3450  137.0090 O   0  0  0  0  0  1  0  0  0  0  0  0
  179.5410  179.7710  138.5510 C   0  0  0  0  0  0  0  0  0  0  0  0
  178.9580  179.7970  139.6680 O   0  0  0  0  0  1  0  0  0  0  0  0
  178.9310  180.3490  137.4430 O   0  0  0  0  0  0  0  0  0  0  0  0
  1 27  1  0  0  0  0
  1  3  2  0  0  0  0
  2 38  1  1  0  0  0
  2  4  1  0  0  0  0
  2  1  1  0  0  0  0
  3  8  1  0  0  0  0
  4  3  1  0  0  0  0
  5  9  1  0  0  0  0
  5 12  1  0  0  0  0
  6  5  2  0  0  0  0
  8 10  1  0  0  0  0
 10  7  1  0  0  0  0
 10  9  2  0  0  0  0
 11  8  2  0  0  0  0
 11  6  1  0  0  0  0
 13 15  1  6  0  0  0
 13 16  1  0  0  0  0
 14 12  2  0  0  0  0
 14 20  1  0  0  0  0
 16 19  1  0  0  0  0
 17 19  1  0  0  0  0
 18 22  1  1  0  0  0
 18 20  1  0  0  0  0
 18 13  1  0  0  0  0
 20 17  2  0  0  0  0
 21 22  1  0  0  0  0
 24 25  1  0  0  0  0
 25 26  2  0  0  0  0
 26 27  2  0  0  0  0
 27 23  1  0  0  0  0
 29 28  1  1  0  0  0
 29 25  1  0  0  0  0
 29 30  1  0  0  0  0
 32 31  1  6  0  0  0
 32 30  1  0  0  0  0
 33 32  1  0  0  0  0
 33 34  1  0  0  0  0
 36 34  1  0  0  0  0
 36 35  1  1  0  0  0
 37 36  1  0  0  0  0
 38 39  1  0  0  0  0
 40 38  2  0  0  0  0
M  END
>  <MODEL>
2

>  <REMARK>
 VINA RESULT:      -7.6      1.843      3.200
  Name = 
  12 active torsions:
  status: ('A' for Active; 'I' for Inactive)
    1  A    between atoms: C_2  and  C_29
    2  A    between atoms: C_5  and  N_22
    3  A    between atoms: N_8  and  N_22
    4  A    between atoms: C_9  and  C_34
    5  A    between atoms: C_9  and  C_35
    6  A    between atoms: C_15  and  C_30
    7  A    between atoms: C_16  and  C_32
    8  A    between atoms: O_18  and  C_34
    9  A    between atoms: O_18  and  C_37
   10  A    between atoms: C_21  and  C_37
   11  A    between atoms: C_23  and  N_39
   12  A    between atoms: C_24  and  C_35
                            x       y       z     vdW  Elec       q    Type
                         _______ _______ _______ _____ _____    ______ ____

>  <TORSDO>
F 12

$$$$
=
 OpenBabel10222421243D

 40 42  0  0  1  0  0  0  0  0999 V2000
  181.6500  178.0240  139.1520 C   0  0  0  0  0  0  0  0  0  0  0  0
  181.3290  179.0840  138.1530 C   0  0  2  0  0  3  0  0  0  0  0  0
  182.4370  178.8710  139.9350 C   0  0  0  0  0  0  0  0  0  0  0  0
  182.3440  180.2840  138.8010 S   0  0  0  0  0  0  0  0  0  0  0  0
  184.6400  178.3960  143.5660 C   0  0  0  0  0  0  0  0  0  0  0  0
  185.2690  178.2820  142.3210 C   0  0  0  0  0  3  0  0  0  0  0  0
  181.0870  179.2190  142.5750 C   0  0  0  0  0  1  0  0  0  0  0  0
  183.1600  178.7030  141.2010 C   0  0  0  0  0  0  0  0  0  0  0  0
  183.2750  178.6890  143.6260 C   0  0  0  0  0  3  0  0  0  0  0  0
  182.5270  178.8430  142.4550 C   0  0  0  0  0  0  0  0  0  0  0  0
  184.5330  178.4420  141.1470 C   0  0  0  0  0  3  0  0  0  0  0  0
  185.3760  178.2310  144.7770 N   0  0  0  0  0  0  0  0  0  0  0  0
  189.5270  176.9150  147.2510 C   0  0  1  0  0  3  0  0  0  0  0  0
  186.7160  177.8160  144.7630 N   0  0  0  0  0  0  0  0  0  0  0  0
  191.0260  176.6830  147.1860 C   0  0  0  0  0  1  0  0  0  0  0  0
  189.1830  178.0310  148.2210 C   0  0  0  0  0  2  0  0  0  0  0  0
  186.9860  178.1430  147.0890 N   0  0  0  0  0  0  0  0  0  0  0  0
  188.8950  177.1800  145.8700 C   0  0  1  0  0  3  0  0  0  0  0  0
  187.6680  178.0480  148.3850 C   0  0  0  0  0  2  0  0  0  0  0  0
  187.4790  177.7060  145.9640 C   0  0  0  0  0  0  0  0  0  0  0  0
  189.9220  177.4030  143.8220 O   0  0  0  0  0  1  0  0  0  0  0  0
  189.7250  178.0310  145.0100 N   0  0  0  0  0  2  0  0  0  0  0  0
  180.1390  176.0490  140.4650 Cl  0  0  0  0  0  0  0  0  0  0  0  0
  181.8460  173.6990  137.2150 C   0  0  0  0  0  1  0  0  0  0  0  0
  182.5660  174.8640  137.8060 C   0  0  0  0  0  0  0  0  0  0  0  0
  181.8980  175.7270  138.5190 C   0  0  0  0  0  0  0  0  0  0  0  0
  181.2610  176.6070  139.2370 C   0  0  0  0  0  0  0  0  0  0  0  0
  184.3330  176.4680  137.6280 O   0  0  0  0  0  1  0  0  0  0  0  0
  184.0240  175.1070  137.5480 C   0  0  2  0  0  3  0  0  0  0  0  0
  184.4070  174.5720  136.1710 C   0  0  0  0  0  2  0  0  0  0  0  0
  185.8690  173.0940  137.5830 C   0  0  0  0  0  1  0  0  0  0  0  0
  185.6580  173.6920  136.2030 C   0  0  2  0  0  3  0  0  0  0  0  0
  186.7950  174.4060  135.8050 O   0  0  0  0  0  0  0  0  0  0  0  0
  187.5620  174.5410  136.9670 C   0  0  0  0  0  2  0  0  0  0  0  0
  189.1930  174.1900  135.1410 C   0  0  0  0  0  1  0  0  0  0  0  0
  189.0370  174.5120  136.6120 C   0  0  2  0  0  3  0  0  0  0  0  0
  189.6840  173.5340  137.3700 O   0  0  0  0  0  1  0  0  0  0  0  0
  179.8900  179.5050  138.2370 C   0  0  0  0  0  0  0  0  0  0  0  0
  179.1580  179.0330  139.1480 O   0  0  0  0  0  1  0  0  0  0  0  0
  179.3530  180.3990  137.3170 O   0  0  0  0  0  0  0  0  0  0  0  0
  1 27  1  0  0  0  0
  1  3  2  0  0  0  0
  2 38  1  1  0  0  0
  2  4  1  0  0  0  0
  2  1  1  0  0  0  0
  3  8  1  0  0  0  0
  4  3  1  0  0  0  0
  5  9  1  0  0  0  0
  5 12  1  0  0  0  0
  6  5  2  0  0  0  0
  8 10  1  0  0  0  0
 10  7  1  0  0  0  0
 10  9  2  0  0  0  0
 11  8  2  0  0  0  0
 11  6  1  0  0  0  0
 13 15  1  6  0  0  0
 13 16  1  0  0  0  0
 14 12  2  0  0  0  0
 14 20  1  0  0  0  0
 16 19  1  0  0  0  0
 17 19  1  0  0  0  0
 18 22  1  1  0  0  0
 18 20  1  0  0  0  0
 18 13  1  0  0  0  0
 20 17  2  0  0  0  0
 21 22  1  0  0  0  0
 24 25  1  0  0  0  0
 25 26  2  0  0  0  0
 26 27  2  0  0  0  0
 27 23  1  0  0  0  0
 29 28  1  6  0  0  0
 29 25  1  0  0  0  0
 30 32  1  0  0  0  0
 30 29  1  0  0  0  0
 32 31  1  1  0  0  0
 33 32  1  0  0  0  0
 33 34  1  0  0  0  0
 36 35  1  6  0  0  0
 36 34  1  0  0  0  0
 36 37  1  0  0  0  0
 38 39  1  0  0  0  0
 40 38  2  0  0  0  0
M  END
>  <MODEL>
3

>  <REMARK>
 VINA RESULT:      -6.9      2.109      2.843
  Name = 
  12 active torsions:
  status: ('A' for Active; 'I' for Inactive)
    1  A    between atoms: C_2  and  C_29
    2  A    between atoms: C_5  and  N_22
    3  A    between atoms: N_8  and  N_22
    4  A    between atoms: C_9  and  C_34
    5  A    between atoms: C_9  and  C_35
    6  A    between atoms: C_15  and  C_30
    7  A    between atoms: C_16  and  C_32
    8  A    between atoms: O_18  and  C_34
    9  A    between atoms: O_18  and  C_37
   10  A    between atoms: C_21  and  C_37
   11  A    between atoms: C_23  and  N_39
   12  A    between atoms: C_24  and  C_35
                            x       y       z     vdW  Elec       q    Type
                         _______ _______ _______ _____ _____    ______ ____

>  <TORSDO>
F 12

$$$$
=
 OpenBabel10222421243D

 40 42  0  0  1  0  0  0  0  0999 V2000
  189.6730  177.6520  145.7180 C   0  0  0  0  0  0  0  0  0  0  0  0
  190.0480  176.8640  146.9270 C   0  0  2  0  0  3  0  0  0  0  0  0
  188.3050  177.4240  145.8790 C   0  0  0  0  0  0  0  0  0  0  0  0
  188.4880  176.2890  147.2830 S   0  0  0  0  0  0  0  0  0  0  0  0
  184.8420  178.6430  143.6920 C   0  0  0  0  0  0  0  0  0  0  0  0
  185.8370  177.8650  143.0900 C   0  0  0  0  0  3  0  0  0  0  0  0
  186.1510  178.9990  147.2190 C   0  0  0  0  0  1  0  0  0  0  0  0
  187.1080  177.8700  145.1550 C   0  0  0  0  0  0  0  0  0  0  0  0
  184.9700  179.0120  145.0330 C   0  0  0  0  0  3  0  0  0  0  0  0
  186.0950  178.6340  145.7720 C   0  0  0  0  0  0  0  0  0  0  0  0
  186.9600  177.4760  143.8220 C   0  0  0  0  0  3  0  0  0  0  0  0
  183.6900  179.0550  142.9580 N   0  0  0  0  0  2  0  0  0  0  0  0
  181.4500  178.7670  138.4880 C   0  0  1  0  0  3  0  0  0  0  0  0
  183.7350  179.2210  141.5660 N   0  0  0  0  0  2  0  0  0  0  0  0
  181.6190  178.7540  136.9800 C   0  0  0  0  0  1  0  0  0  0  0  0
  180.8440  177.4680  138.9860 C   0  0  0  0  0  2  0  0  0  0  0  0
  181.6790  178.1040  141.2260 N   0  0  0  0  0  0  0  0  0  0  0  0
  182.7560  179.0830  139.2420 C   0  0  1  0  0  3  0  0  0  0  0  0
  180.5120  177.6500  140.4630 C   0  0  0  0  0  2  0  0  0  0  0  0
  182.6620  178.7990  140.7250 C   0  0  0  0  0  0  0  0  0  0  0  0
  184.9560  179.3320  138.6100 O   0  0  0  0  0  1  0  0  0  0  0  0
  183.9340  178.4380  138.6490 N   0  0  0  0  0  2  0  0  0  0  0  0
  191.0480  180.0130  145.0560 Cl  0  0  0  0  0  0  0  0  0  0  0  0
  192.0360  177.5380  141.6070 C   0  0  0  0  0  1  0  0  0  0  0  0
  190.7460  177.3890  142.3380 C   0  0  0  0  0  0  0  0  0  0  0  0
  190.6330  177.8920  143.5360 C   0  0  0  0  0  0  0  0  0  0  0  0
  190.4870  178.3830  144.7330 C   0  0  0  0  0  0  0  0  0  0  0  0
  189.4670  175.3650  142.3700 O   0  0  0  0  0  1  0  0  0  0  0  0
  189.5940  176.6180  141.7620 C   0  0  2  0  0  3  0  0  0  0  0  0
  189.7830  176.4430  140.2580 C   0  0  0  0  0  2  0  0  0  0  0  0
  188.0240  178.2240  140.0290 C   0  0  0  0  0  1  0  0  0  0  0  0
  189.3110  177.6580  139.4550 C   0  0  2  0  0  3  0  0  0  0  0  0
  189.1390  177.3390  138.1020 O   0  0  0  0  0  0  0  0  0  0  0  0
  187.7710  177.5020  137.8630 C   0  0  0  0  0  2  0  0  0  0  0  0
  188.7060  177.7170  135.5830 C   0  0  0  0  0  1  0  0  0  0  0  0
  187.5610  178.1150  136.4910 C   0  0  2  0  0  3  0  0  0  0  0  0
  187.5180  179.5060  136.5980 O   0  0  0  0  0  1  0  0  0  0  0  0
  190.5500  177.7510  148.0300 C   0  0  0  0  0  0  0  0  0  0  0  0
  191.7720  177.7300  148.3350 O   0  0  0  0  0  0  0  0  0  0  0  0
  189.6810  178.5840  148.7260 O   0  0  0  0  0  1  0  0  0  0  0  0
  1  3  2  0  0  0  0
  1  2  1  0  0  0  0
  2  4  1  0  0  0  0
  2 38  1  1  0  0  0
  3  4  1  0  0  0  0
  5  9  1  0  0  0  0
  6  5  2  0  0  0  0
  6 11  1  0  0  0  0
  8 10  1  0  0  0  0
  8  3  1  0  0  0  0
  9 10  2  0  0  0  0
 10  7  1  0  0  0  0
 11  8  2  0  0  0  0
 12  5  1  0  0  0  0
 13 15  1  6  0  0  0
 13 16  1  0  0  0  0
 13 18  1  0  0  0  0
 14 12  1  0  0  0  0
 16 19  1  0  0  0  0
 18 22  1  6  0  0  0
 18 20  1  0  0  0  0
 19 17  1  0  0  0  0
 20 17  2  0  0  0  0
 20 14  1  0  0  0  0
 21 22  1  0  0  0  0
 24 25  1  0  0  0  0
 25 26  2  0  0  0  0
 26 27  2  0  0  0  0
 27 23  1  0  0  0  0
 27  1  1  0  0  0  0
 29 25  1  0  0  0  0
 29 28  1  1  0  0  0
 30 29  1  0  0  0  0
 32 31  1  1  0  0  0
 32 30  1  0  0  0  0
 33 32  1  0  0  0  0
 34 33  1  0  0  0  0
 36 35  1  6  0  0  0
 36 37  1  0  0  0  0
 36 34  1  0  0  0  0
 38 39  2  0  0  0  0
 38 40  1  0  0  0  0
M  END
>  <MODEL>
4

>  <REMARK>
 VINA RESULT:      -6.3      3.559      8.500
  Name = 
  12 active torsions:
  status: ('A' for Active; 'I' for Inactive)
    1  A    between atoms: C_2  and  C_29
    2  A    between atoms: C_5  and  N_22
    3  A    between atoms: N_8  and  N_22
    4  A    between atoms: C_9  and  C_34
    5  A    between atoms: C_9  and  C_35
    6  A    between atoms: C_15  and  C_30
    7  A    between atoms: C_16  and  C_32
    8  A    between atoms: O_18  and  C_34
    9  A    between atoms: O_18  and  C_37
   10  A    between atoms: C_21  and  C_37
   11  A    between atoms: C_23  and  N_39
   12  A    between atoms: C_24  and  C_35
                            x       y       z     vdW  Elec       q    Type
                         _______ _______ _______ _____ _____    ______ ____

>  <TORSDO>
F 12

$$$$
=
 OpenBabel10222421243D

 40 42  0  0  1  0  0  0  0  0999 V2000
  189.8220  177.6060  145.7380 C   0  0  0  0  0  0  0  0  0  0  0  0
  190.1920  176.7860  146.9270 C   0  0  2  0  0  3  0  0  0  0  0  0
  188.4520  177.4120  145.9150 C   0  0  0  0  0  0  0  0  0  0  0  0
  188.6230  176.2460  147.2940 S   0  0  0  0  0  0  0  0  0  0  0  0
  184.9960  178.7680  143.7960 C   0  0  0  0  0  0  0  0  0  0  0  0
  185.9940  178.0290  143.1490 C   0  0  0  0  0  3  0  0  0  0  0  0
  186.2910  178.8980  147.3430 C   0  0  0  0  0  1  0  0  0  0  0  0
  187.2570  177.9030  145.2160 C   0  0  0  0  0  0  0  0  0  0  0  0
  185.1190  179.0500  145.1580 C   0  0  0  0  0  3  0  0  0  0  0  0
  186.2410  178.6250  145.8760 C   0  0  0  0  0  0  0  0  0  0  0  0
  187.1140  177.5950  143.8590 C   0  0  0  0  0  3  0  0  0  0  0  0
  183.8470  179.2250  143.0850 N   0  0  0  0  0  2  0  0  0  0  0  0
  182.9840  177.0420  138.6610 C   0  0  1  0  0  3  0  0  0  0  0  0
  183.0880  178.3530  142.2910 N   0  0  0  0  0  2  0  0  0  0  0  0
  182.0090  176.2650  137.7950 C   0  0  0  0  0  1  0  0  0  0  0  0
  183.3180  178.3880  138.0440 C   0  0  0  0  0  2  0  0  0  0  0  0
  184.1260  179.0540  140.2850 N   0  0  0  0  0  0  0  0  0  0  0  0
  182.5010  177.2140  140.1140 C   0  0  1  0  0  3  0  0  0  0  0  0
  184.4540  178.9990  138.8560 C   0  0  0  0  0  2  0  0  0  0  0  0
  183.3110  178.2330  140.8860 C   0  0  0  0  0  0  0  0  0  0  0  0
  180.8490  178.8140  139.9930 O   0  0  0  0  0  1  0  0  0  0  0  0
  181.0620  177.4900  140.2140 N   0  0  0  0  0  2  0  0  0  0  0  0
  191.2350  179.9500  145.0930 Cl  0  0  0  0  0  0  0  0  0  0  0  0
  192.1540  177.4980  141.6090 C   0  0  0  0  0  1  0  0  0  0  0  0
  190.8660  177.3630  142.3480 C   0  0  0  0  0  0  0  0  0  0  0  0
  190.7710  177.8540  143.5520 C   0  0  0  0  0  0  0  0  0  0  0  0
  190.6430  178.3340  144.7560 C   0  0  0  0  0  0  0  0  0  0  0  0
  189.5450  175.3680  142.3750 O   0  0  0  0  0  1  0  0  0  0  0  0
  189.6960  176.6200  141.7720 C   0  0  2  0  0  3  0  0  0  0  0  0
  189.8780  176.4480  140.2660 C   0  0  0  0  0  2  0  0  0  0  0  0
  188.1350  178.2520  140.1150 C   0  0  0  0  0  1  0  0  0  0  0  0
  189.3670  177.6470  139.4650 C   0  0  2  0  0  3  0  0  0  0  0  0
  189.0900  177.2940  138.1380 O   0  0  0  0  0  0  0  0  0  0  0  0
  187.7120  177.4810  137.9940 C   0  0  0  0  0  2  0  0  0  0  0  0
  188.4110  177.7110  135.6330 C   0  0  0  0  0  1  0  0  0  0  0  0
  187.4260  178.1850  136.6800 C   0  0  2  0  0  3  0  0  0  0  0  0
  187.5570  179.5640  136.8470 O   0  0  0  0  0  1  0  0  0  0  0  0
  190.7320  177.6380  148.0400 C   0  0  0  0  0  0  0  0  0  0  0  0
  189.9860  178.4950  148.5840 O   0  0  0  0  0  1  0  0  0  0  0  0
  192.0480  177.5020  148.4680 O   0  0  0  0  0  0  0  0  0  0  0  0
  1  3  2  0  0  0  0
  1  2  1  0  0  0  0
  2  4  1  0  0  0  0
  2 38  1  1  0  0  0
  3  4  1  0  0  0  0
  5  9  1  0  0  0  0
  6  5  2  0  0  0  0
  6 11  1  0  0  0  0
  8 10  1  0  0  0  0
  8  3  1  0  0  0  0
  9 10  2  0  0  0  0
 10  7  1  0  0  0  0
 11  8  2  0  0  0  0
 12  5  1  0  0  0  0
 13 15  1  6  0  0  0
 13 18  1  0  0  0  0
 14 12  1  0  0  0  0
 16 13  1  0  0  0  0
 16 19  1  0  0  0  0
 17 20  2  0  0  0  0
 18 22  1  6  0  0  0
 18 20  1  0  0  0  0
 19 17  1  0  0  0  0
 20 14  1  0  0  0  0
 21 22  1  0  0  0  0
 24 25  1  0  0  0  0
 25 26  2  0  0  0  0
 26 27  2  0  0  0  0
 27 23  1  0  0  0  0
 27  1  1  0  0  0  0
 29 25  1  0  0  0  0
 29 28  1  1  0  0  0
 30 29  1  0  0  0  0
 32 31  1  1  0  0  0
 32 30  1  0  0  0  0
 33 32  1  0  0  0  0
 34 33  1  0  0  0  0
 36 35  1  6  0  0  0
 36 37  1  0  0  0  0
 36 34  1  0  0  0  0
 38 40  2  0  0  0  0
 38 39  1  0  0  0  0
M  END
>  <MODEL>
5

>  <REMARK>
 VINA RESULT:      -6.3      3.441      8.491
  Name = 
  12 active torsions:
  status: ('A' for Active; 'I' for Inactive)
    1  A    between atoms: C_2  and  C_29
    2  A    between atoms: C_5  and  N_22
    3  A    between atoms: N_8  and  N_22
    4  A    between atoms: C_9  and  C_34
    5  A    between atoms: C_9  and  C_35
    6  A    between atoms: C_15  and  C_30
    7  A    between atoms: C_16  and  C_32
    8  A    between atoms: O_18  and  C_34
    9  A    between atoms: O_18  and  C_37
   10  A    between atoms: C_21  and  C_37
   11  A    between atoms: C_23  and  N_39
   12  A    between atoms: C_24  and  C_35
                            x       y       z     vdW  Elec       q    Type
                         _______ _______ _______ _____ _____    ______ ____

>  <TORSDO>
F 12

$$$$
=
 OpenBabel10222421243D

 40 42  0  0  1  0  0  0  0  0999 V2000
  182.2940  177.9410  138.7350 C   0  0  0  0  0  0  0  0  0  0  0  0
  181.3240  179.0090  138.3590 C   0  0  2  0  0  3  0  0  0  0  0  0
  183.2330  178.8420  139.2380 C   0  0  0  0  0  0  0  0  0  0  0  0
  182.3230  180.3300  138.7390 S   0  0  0  0  0  0  0  0  0  0  0  0
  187.0870  178.4280  141.0390 C   0  0  0  0  0  0  0  0  0  0  0  0
  186.9400  178.4490  139.6470 C   0  0  0  0  0  3  0  0  0  0  0  0
  183.5260  178.9010  142.2090 C   0  0  0  0  0  1  0  0  0  0  0  0
  184.5400  178.6910  139.8910 C   0  0  0  0  0  0  0  0  0  0  0  0
  185.9610  178.5640  141.8540 C   0  0  0  0  0  3  0  0  0  0  0  0
  184.6870  178.6940  141.2940 C   0  0  0  0  0  0  0  0  0  0  0  0
  185.6730  178.5870  139.0780 C   0  0  0  0  0  3  0  0  0  0  0  0
  188.3740  178.2830  141.6370 N   0  0  0  0  0  2  0  0  0  0  0  0
  191.1550  177.1260  145.6380 C   0  0  1  0  0  3  0  0  0  0  0  0
  188.5250  178.2130  143.0300 N   0  0  0  0  0  2  0  0  0  0  0  0
  191.1860  176.8660  147.1330 C   0  0  0  0  0  1  0  0  0  0  0  0
  191.5920  175.9000  144.8560 C   0  0  0  0  0  2  0  0  0  0  0  0
  190.5190  176.9500  142.8890 N   0  0  0  0  0  0  0  0  0  0  0  0
  189.7880  177.6320  145.1380 C   0  0  1  0  0  3  0  0  0  0  0  0
  191.7400  176.3130  143.3960 C   0  0  0  0  0  2  0  0  0  0  0  0
  189.6650  177.5990  143.6310 C   0  0  0  0  0  0  0  0  0  0  0  0
  187.8660  177.8880  146.3790 O   0  0  0  0  0  1  0  0  0  0  0  0
  188.6540  176.9570  145.7810 N   0  0  0  0  0  2  0  0  0  0  0  0
  181.4070  175.4870  139.7840 Cl  0  0  0  0  0  0  0  0  0  0  0  0
  183.2400  174.1340  136.0690 C   0  0  0  0  0  1  0  0  0  0  0  0
  183.7420  175.3310  136.8030 C   0  0  0  0  0  0  0  0  0  0  0  0
  182.9780  175.8920  137.6980 C   0  0  0  0  0  0  0  0  0  0  0  0
  182.2410  176.4760  138.5990 C   0  0  0  0  0  0  0  0  0  0  0  0
  184.9270  177.2500  136.0040 O   0  0  0  0  0  1  0  0  0  0  0  0
  185.0740  175.9490  136.4930 C   0  0  2  0  0  3  0  0  0  0  0  0
  185.8210  175.0960  135.4720 C   0  0  0  0  0  2  0  0  0  0  0  0
  187.0490  173.4720  136.9450 C   0  0  0  0  0  1  0  0  0  0  0  0
  187.1890  174.6310  135.9730 C   0  0  2  0  0  3  0  0  0  0  0  0
  187.8970  175.6810  136.5710 O   0  0  0  0  0  0  0  0  0  0  0  0
  189.0710  175.0970  137.0560 C   0  0  0  0  0  2  0  0  0  0  0  0
  189.9530  177.3550  137.5440 C   0  0  0  0  0  1  0  0  0  0  0  0
  189.6800  175.9840  138.1260 C   0  0  2  0  0  3  0  0  0  0  0  0
  190.8790  175.4260  138.5730 O   0  0  0  0  0  1  0  0  0  0  0  0
  180.1110  178.9900  139.2440 C   0  0  0  0  0  0  0  0  0  0  0  0
  180.1640  179.5320  140.3810 O   0  0  0  0  0  1  0  0  0  0  0  0
  178.9350  178.3730  138.8310 O   0  0  0  0  0  0  0  0  0  0  0  0
  1  3  2  0  0  0  0
  2  1  1  0  0  0  0
  2  4  1  0  0  0  0
  2 38  1  1  0  0  0
  3  8  1  0  0  0  0
  4  3  1  0  0  0  0
  5 12  1  0  0  0  0
  5  9  1  0  0  0  0
  6  5  2  0  0  0  0
  8 10  1  0  0  0  0
 10  9  2  0  0  0  0
 10  7  1  0  0  0  0
 11  6  1  0  0  0  0
 11  8  2  0  0  0  0
 12 14  1  0  0  0  0
 13 15  1  1  0  0  0
 14 20  1  0  0  0  0
 16 13  1  0  0  0  0
 17 19  1  0  0  0  0
 17 20  2  0  0  0  0
 18 13  1  0  0  0  0
 18 22  1  1  0  0  0
 19 16  1  0  0  0  0
 20 18  1  0  0  0  0
 22 21  1  0  0  0  0
 24 25  1  0  0  0  0
 25 26  2  0  0  0  0
 26 27  2  0  0  0  0
 27  1  1  0  0  0  0
 27 23  1  0  0  0  0
 29 28  1  6  0  0  0
 29 25  1  0  0  0  0
 30 32  1  0  0  0  0
 30 29  1  0  0  0  0
 32 33  1  0  0  0  0
 32 31  1  1  0  0  0
 33 34  1  0  0  0  0
 34 36  1  0  0  0  0
 36 35  1  6  0  0  0
 36 37  1  0  0  0  0
 38 39  1  0  0  0  0
 40 38  2  0  0  0  0
M  END
>  <MODEL>
6

>  <REMARK>
 VINA RESULT:      -6.2      2.002      2.917
  Name = 
  12 active torsions:
  status: ('A' for Active; 'I' for Inactive)
    1  A    between atoms: C_2  and  C_29
    2  A    between atoms: C_5  and  N_22
    3  A    between atoms: N_8  and  N_22
    4  A    between atoms: C_9  and  C_34
    5  A    between atoms: C_9  and  C_35
    6  A    between atoms: C_15  and  C_30
    7  A    between atoms: C_16  and  C_32
    8  A    between atoms: O_18  and  C_34
    9  A    between atoms: O_18  and  C_37
   10  A    between atoms: C_21  and  C_37
   11  A    between atoms: C_23  and  N_39
   12  A    between atoms: C_24  and  C_35
                            x       y       z     vdW  Elec       q    Type
                         _______ _______ _______ _____ _____    ______ ____

>  <TORSDO>
F 12

$$$$
=
 OpenBabel10222421243D

 40 42  0  0  1  0  0  0  0  0999 V2000
  188.7740  175.5770  136.3280 C   0  0  0  0  0  0  0  0  0  0  0  0
  188.1330  176.3100  135.1980 C   0  0  2  0  0  3  0  0  0  0  0  0
  188.9010  176.7200  137.1190 C   0  0  0  0  0  0  0  0  0  0  0  0
  188.3000  177.8710  135.8510 S   0  0  0  0  0  0  0  0  0  0  0  0
  190.2470  177.4230  141.1140 C   0  0  0  0  0  0  0  0  0  0  0  0
  188.8930  177.5440  140.7770 C   0  0  0  0  0  3  0  0  0  0  0  0
  191.7790  176.3570  137.8280 C   0  0  0  0  0  1  0  0  0  0  0  0
  189.4000  176.9640  138.4780 C   0  0  0  0  0  0  0  0  0  0  0  0
  191.1710  177.0480  140.1360 C   0  0  0  0  0  3  0  0  0  0  0  0
  190.7610  176.8180  138.8190 C   0  0  0  0  0  0  0  0  0  0  0  0
  188.4740  177.3090  139.4670 C   0  0  0  0  0  3  0  0  0  0  0  0
  190.6940  177.6650  142.4470 N   0  0  0  0  0  2  0  0  0  0  0  0
  189.6250  177.7760  147.3380 C   0  0  1  0  0  3  0  0  0  0  0  0
  189.7860  177.9220  143.4840 N   0  0  0  0  0  2  0  0  0  0  0  0
  188.5460  177.8580  148.4020 C   0  0  0  0  0  1  0  0  0  0  0  0
  190.3990  176.4740  147.4360 C   0  0  0  0  0  2  0  0  0  0  0  0
  191.1620  176.9220  145.1250 N   0  0  0  0  0  0  0  0  0  0  0  0
  189.0860  177.9840  145.9100 C   0  0  1  0  0  3  0  0  0  0  0  0
  191.5870  176.5710  146.4850 C   0  0  0  0  0  2  0  0  0  0  0  0
  190.0890  177.6050  144.8420 C   0  0  0  0  0  0  0  0  0  0  0  0
  186.8120  178.2700  145.6860 O   0  0  0  0  0  1  0  0  0  0  0  0
  187.7920  177.3290  145.6830 N   0  0  0  0  0  2  0  0  0  0  0  0
  188.2300  173.1250  137.5910 Cl  0  0  0  0  0  0  0  0  0  0  0  0
  191.4450  171.9250  134.9030 C   0  0  0  0  0  1  0  0  0  0  0  0
  191.3680  173.3010  135.4730 C   0  0  0  0  0  0  0  0  0  0  0  0
  190.2420  173.7150  135.9820 C   0  0  0  0  0  0  0  0  0  0  0  0
  189.1320  174.1590  136.4980 C   0  0  0  0  0  0  0  0  0  0  0  0
  192.2560  175.3420  134.5950 O   0  0  0  0  0  1  0  0  0  0  0  0
  192.5320  174.2470  135.4180 C   0  0  2  0  0  3  0  0  0  0  0  0
  193.7730  173.5190  134.9070 C   0  0  0  0  0  2  0  0  0  0  0  0
  194.7440  172.0790  136.7240 C   0  0  0  0  0  1  0  0  0  0  0  0
  194.8660  173.3920  135.9700 C   0  0  2  0  0  3  0  0  0  0  0  0
  194.8360  174.4690  136.8640 O   0  0  0  0  0  0  0  0  0  0  0  0
  196.0000  174.3390  137.6280 C   0  0  0  0  0  2  0  0  0  0  0  0
  198.4450  174.0390  137.4100 C   0  0  0  0  0  1  0  0  0  0  0  0
  197.2130  174.6400  136.7670 C   0  0  2  0  0  3  0  0  0  0  0  0
  197.3790  176.0200  136.6530 O   0  0  0  0  0  1  0  0  0  0  0  0
  186.6830  175.9480  135.0560 C   0  0  0  0  0  0  0  0  0  0  0  0
  186.3680  174.8150  134.6020 O   0  0  0  0  0  0  0  0  0  0  0  0
  185.6850  176.8490  135.4090 O   0  0  0  0  0  1  0  0  0  0  0  0
  1 27  1  0  0  0  0
  1  3  2  0  0  0  0
  2 38  1  1  0  0  0
  2  4  1  0  0  0  0
  2  1  1  0  0  0  0
  3  8  1  0  0  0  0
  4  3  1  0  0  0  0
  5 12  1  0  0  0  0
  6  5  1  0  0  0  0
  7 10  1  0  0  0  0
  8 10  2  0  0  0  0
  8 11  1  0  0  0  0
  9  5  2  0  0  0  0
 10  9  1  0  0  0  0
 11  6  2  0  0  0  0
 12 14  1  0  0  0  0
 13 16  1  0  0  0  0
 13 15  1  1  0  0  0
 14 20  1  0  0  0  0
 17 19  1  0  0  0  0
 18 22  1  6  0  0  0
 18 13  1  0  0  0  0
 19 16  1  0  0  0  0
 20 17  2  0  0  0  0
 20 18  1  0  0  0  0
 22 21  1  0  0  0  0
 24 25  1  0  0  0  0
 25 26  2  0  0  0  0
 26 27  2  0  0  0  0
 27 23  1  0  0  0  0
 29 28  1  6  0  0  0
 29 25  1  0  0  0  0
 30 29  1  0  0  0  0
 30 32  1  0  0  0  0
 32 31  1  1  0  0  0
 32 33  1  0  0  0  0
 33 34  1  0  0  0  0
 36 35  1  1  0  0  0
 36 34  1  0  0  0  0
 37 36  1  0  0  0  0
 38 40  1  0  0  0  0
 39 38  2  0  0  0  0
M  END
>  <MODEL>
7

>  <REMARK>
 VINA RESULT:      -6.1      4.242      6.524
  Name = 
  12 active torsions:
  status: ('A' for Active; 'I' for Inactive)
    1  A    between atoms: C_2  and  C_29
    2  A    between atoms: C_5  and  N_22
    3  A    between atoms: N_8  and  N_22
    4  A    between atoms: C_9  and  C_34
    5  A    between atoms: C_9  and  C_35
    6  A    between atoms: C_15  and  C_30
    7  A    between atoms: C_16  and  C_32
    8  A    between atoms: O_18  and  C_34
    9  A    between atoms: O_18  and  C_37
   10  A    between atoms: C_21  and  C_37
   11  A    between atoms: C_23  and  N_39
   12  A    between atoms: C_24  and  C_35
                            x       y       z     vdW  Elec       q    Type
                         _______ _______ _______ _____ _____    ______ ____

>  <TORSDO>
F 12

$$$$
=
 OpenBabel10222421243D

 40 42  0  0  1  0  0  0  0  0999 V2000
  189.4220  177.1010  137.3080 C   0  0  0  0  0  0  0  0  0  0  0  0
  190.7600  176.5650  136.9260 C   0  0  2  0  0  3  0  0  0  0  0  0
  188.7240  176.1300  136.5890 C   0  0  0  0  0  0  0  0  0  0  0  0
  190.1990  175.3790  135.8450 S   0  0  0  0  0  0  0  0  0  0  0  0
  184.5770  175.1850  136.1710 C   0  0  0  0  0  0  0  0  0  0  0  0
  185.3850  174.4960  137.0830 C   0  0  0  0  0  3  0  0  0  0  0  0
  187.0040  177.6850  134.7070 C   0  0  0  0  0  1  0  0  0  0  0  0
  187.2990  175.8250  136.4110 C   0  0  0  0  0  0  0  0  0  0  0  0
  185.1270  176.2110  135.3990 C   0  0  0  0  0  3  0  0  0  0  0  0
  186.4820  176.5380  135.5080 C   0  0  0  0  0  0  0  0  0  0  0  0
  186.7370  174.8210  137.2050 C   0  0  0  0  0  3  0  0  0  0  0  0
  183.1950  174.8630  136.0280 N   0  0  0  0  0  2  0  0  0  0  0  0
  179.9410  177.7500  138.5100 C   0  0  1  0  0  3  0  0  0  0  0  0
  182.2940  175.0400  137.0890 N   0  0  0  0  0  2  0  0  0  0  0  0
  179.1500  177.9660  139.7880 C   0  0  0  0  0  1  0  0  0  0  0  0
  180.9150  178.8880  138.2650 C   0  0  0  0  0  2  0  0  0  0  0  0
  182.0800  177.3630  136.7040 N   0  0  0  0  0  0  0  0  0  0  0  0
  180.6670  176.3920  138.4690 C   0  0  1  0  0  3  0  0  0  0  0  0
  181.5020  178.7010  136.8710 C   0  0  0  0  0  2  0  0  0  0  0  0
  181.6850  176.3040  137.3540 C   0  0  0  0  0  0  0  0  0  0  0  0
  180.6270  174.9050  140.2270 O   0  0  0  0  0  1  0  0  0  0  0  0
  181.2560  176.0150  139.7600 N   0  0  0  0  0  2  0  0  0  0  0  0
  189.0560  179.8820  137.5030 Cl  0  0  0  0  0  0  0  0  0  0  0  0
  187.6090  178.6260  141.4170 C   0  0  0  0  0  1  0  0  0  0  0  0
  188.6790  177.8780  140.6970 C   0  0  0  0  0  0  0  0  0  0  0  0
  188.8400  178.0750  139.4190 C   0  0  0  0  0  0  0  0  0  0  0  0
  189.0280  178.2490  138.1420 C   0  0  0  0  0  0  0  0  0  0  0  0
  188.8290  176.2210  142.4170 O   0  0  0  0  0  1  0  0  0  0  0  0
  189.5320  176.8550  141.3880 C   0  0  2  0  0  3  0  0  0  0  0  0
  190.7860  177.5170  141.9530 C   0  0  0  0  0  2  0  0  0  0  0  0
  190.9180  179.2370  143.7810 C   0  0  0  0  0  1  0  0  0  0  0  0
  190.6970  177.7690  143.4600 C   0  0  2  0  0  3  0  0  0  0  0  0
  191.6110  176.9760  144.1650 O   0  0  0  0  0  0  0  0  0  0  0  0
  191.6090  177.4910  145.4650 C   0  0  0  0  0  2  0  0  0  0  0  0
  190.1370  176.7790  147.3190 C   0  0  0  0  0  1  0  0  0  0  0  0
  191.3140  176.3790  146.4550 C   0  0  2  0  0  3  0  0  0  0  0  0
  192.4290  176.1620  147.2650 O   0  0  0  0  0  1  0  0  0  0  0  0
  191.4550  175.9300  138.0960 C   0  0  0  0  0  0  0  0  0  0  0  0
  191.2670  174.7080  138.3400 O   0  0  0  0  0  0  0  0  0  0  0  0
  192.2930  176.6740  138.9180 O   0  0  0  0  0  1  0  0  0  0  0  0
  1 27  1  0  0  0  0
  2  1  1  0  0  0  0
  2 38  1  1  0  0  0
  3  1  2  0  0  0  0
  4  3  1  0  0  0  0
  4  2  1  0  0  0  0
  5  6  1  0  0  0  0
  6 11  2  0  0  0  0
  7 10  1  0  0  0  0
  8  3  1  0  0  0  0
  8 11  1  0  0  0  0
  9 10  1  0  0  0  0
  9  5  2  0  0  0  0
 10  8  2  0  0  0  0
 12  5  1  0  0  0  0
 12 14  1  0  0  0  0
 13 15  1  1  0  0  0
 14 20  1  0  0  0  0
 16 13  1  0  0  0  0
 17 19  1  0  0  0  0
 17 20  2  0  0  0  0
 18 13  1  0  0  0  0
 18 22  1  1  0  0  0
 19 16  1  0  0  0  0
 20 18  1  0  0  0  0
 22 21  1  0  0  0  0
 23 27  1  0  0  0  0
 25 29  1  0  0  0  0
 25 24  1  0  0  0  0
 26 25  2  0  0  0  0
 27 26  2  0  0  0  0
 29 30  1  0  0  0  0
 29 28  1  1  0  0  0
 30 32  1  0  0  0  0
 32 31  1  6  0  0  0
 32 33  1  0  0  0  0
 33 34  1  0  0  0  0
 34 36  1  0  0  0  0
 36 37  1  0  0  0  0
 36 35  1  1  0  0  0
 38 39  2  0  0  0  0
 38 40  1  0  0  0  0
M  END
>  <MODEL>
8

>  <REMARK>
 VINA RESULT:      -6.0      4.262      9.007
  Name = 
  12 active torsions:
  status: ('A' for Active; 'I' for Inactive)
    1  A    between atoms: C_2  and  C_29
    2  A    between atoms: C_5  and  N_22
    3  A    between atoms: N_8  and  N_22
    4  A    between atoms: C_9  and  C_34
    5  A    between atoms: C_9  and  C_35
    6  A    between atoms: C_15  and  C_30
    7  A    between atoms: C_16  and  C_32
    8  A    between atoms: O_18  and  C_34
    9  A    between atoms: O_18  and  C_37
   10  A    between atoms: C_21  and  C_37
   11  A    between atoms: C_23  and  N_39
   12  A    between atoms: C_24  and  C_35
                            x       y       z     vdW  Elec       q    Type
                         _______ _______ _______ _____ _____    ______ ____

>  <TORSDO>
F 12

$$$$
=
 OpenBabel10222421243D

 40 42  0  0  1  0  0  0  0  0999 V2000
  189.4190  177.6010  144.1530 C   0  0  0  0  0  0  0  0  0  0  0  0
  190.3970  178.2000  145.1060 C   0  0  2  0  0  3  0  0  0  0  0  0
  190.0760  178.0930  143.0240 C   0  0  0  0  0  0  0  0  0  0  0  0
  191.3040  179.0560  143.9500 S   0  0  0  0  0  0  0  0  0  0  0  0
  189.3320  177.7770  138.8280 C   0  0  0  0  0  0  0  0  0  0  0  0
  188.3490  178.2580  139.7000 C   0  0  0  0  0  3  0  0  0  0  0  0
  192.2270  177.1590  141.1770 C   0  0  0  0  0  1  0  0  0  0  0  0
  189.8510  177.9610  141.5800 C   0  0  0  0  0  0  0  0  0  0  0  0
  190.5830  177.4130  139.3310 C   0  0  0  0  0  3  0  0  0  0  0  0
  190.8540  177.4990  140.7000 C   0  0  0  0  0  0  0  0  0  0  0  0
  188.6110  178.3550  141.0670 C   0  0  0  0  0  3  0  0  0  0  0  0
  189.0800  177.6660  137.4280 N   0  0  0  0  0  2  0  0  0  0  0  0
  187.7280  173.2550  135.4790 C   0  0  1  0  0  3  0  0  0  0  0  0
  189.4090  176.5010  136.7190 N   0  0  0  0  0  2  0  0  0  0  0  0
  188.1830  171.9260  134.9050 C   0  0  0  0  0  1  0  0  0  0  0  0
  186.9120  173.0590  136.7440 C   0  0  0  0  0  2  0  0  0  0  0  0
  187.3580  175.4430  137.2300 N   0  0  0  0  0  0  0  0  0  0  0  0
  188.8890  174.2380  135.7270 C   0  0  1  0  0  3  0  0  0  0  0  0
  186.3200  174.4110  137.1260 C   0  0  0  0  0  2  0  0  0  0  0  0
  188.4820  175.4260  136.5710 C   0  0  0  0  0  0  0  0  0  0  0  0
  190.1860  173.8640  137.5930 O   0  0  0  0  0  1  0  0  0  0  0  0
  190.0890  173.5870  136.2660 N   0  0  0  0  0  2  0  0  0  0  0  0
  187.9630  175.2800  143.5190 Cl  0  0  0  0  0  0  0  0  0  0  0  0
  185.4220  176.9740  146.6290 C   0  0  0  0  0  1  0  0  0  0  0  0
  186.2390  177.8340  145.7250 C   0  0  0  0  0  0  0  0  0  0  0  0
  187.2200  177.2980  145.0550 C   0  0  0  0  0  0  0  0  0  0  0  0
  188.2070  176.7940  144.3710 C   0  0  0  0  0  0  0  0  0  0  0  0
  185.7930  179.8870  146.8720 O   0  0  0  0  0  1  0  0  0  0  0  0
  186.0060  179.3130  145.6150 C   0  0  2  0  0  3  0  0  0  0  0  0
  184.8050  179.5870  144.7140 C   0  0  0  0  0  2  0  0  0  0  0  0
  185.3720  179.3790  142.2740 C   0  0  0  0  0  1  0  0  0  0  0  0
  184.7690  178.6810  143.4810 C   0  0  2  0  0  3  0  0  0  0  0  0
  183.4640  178.2600  143.1960 O   0  0  0  0  0  0  0  0  0  0  0  0
  182.6400  179.0900  143.9620 C   0  0  0  0  0  2  0  0  0  0  0  0
  180.2260  178.5540  143.9550 C   0  0  0  0  0  1  0  0  0  0  0  0
  181.3240  179.3120  143.2390 C   0  0  2  0  0  3  0  0  0  0  0  0
  181.4240  178.8510  141.9260 O   0  0  0  0  0  1  0  0  0  0  0  0
  191.2410  177.1470  145.7660 C   0  0  0  0  0  0  0  0  0  0  0  0
  191.5610  177.2790  146.9780 O   0  0  0  0  0  1  0  0  0  0  0  0
  191.6820  176.0370  145.0550 O   0  0  0  0  0  0  0  0  0  0  0  0
  1 27  1  0  0  0  0
  1  2  1  0  0  0  0
  2 38  1  6  0  0  0
  3  4  1  0  0  0  0
  3  1  2  0  0  0  0
  4  2  1  0  0  0  0
  5  9  2  0  0  0  0
  5  6  1  0  0  0  0
  6 11  2  0  0  0  0
  8  3  1  0  0  0  0
  9 10  1  0  0  0  0
 10  7  1  0  0  0  0
 10  8  2  0  0  0  0
 11  8  1  0  0  0  0
 12  5  1  0  0  0  0
 13 15  1  1  0  0  0
 13 18  1  0  0  0  0
 13 16  1  0  0  0  0
 14 12  1  0  0  0  0
 16 19  1  0  0  0  0
 18 22  1  1  0  0  0
 18 20  1  0  0  0  0
 19 17  1  0  0  0  0
 20 14  1  0  0  0  0
 20 17  2  0  0  0  0
 22 21  1  0  0  0  0
 23 27  1  0  0  0  0
 25 24  1  0  0  0  0
 26 25  2  0  0  0  0
 27 26  2  0  0  0  0
 29 25  1  0  0  0  0
 29 28  1  1  0  0  0
 30 29  1  0  0  0  0
 32 31  1  6  0  0  0
 32 30  1  0  0  0  0
 33 32  1  0  0  0  0
 33 34  1  0  0  0  0
 36 35  1  1  0  0  0
 36 34  1  0  0  0  0
 37 36  1  0  0  0  0
 38 39  1  0  0  0  0
 40 38  2  0  0  0  0
M  END
>  <MODEL>
9

>  <REMARK>
 VINA RESULT:      -6.0      4.387      9.676
  Name = 
  12 active torsions:
  status: ('A' for Active; 'I' for Inactive)
    1  A    between atoms: C_2  and  C_29
    2  A    between atoms: C_5  and  N_22
    3  A    between atoms: N_8  and  N_22
    4  A    between atoms: C_9  and  C_34
    5  A    between atoms: C_9  and  C_35
    6  A    between atoms: C_15  and  C_30
    7  A    between atoms: C_16  and  C_32
    8  A    between atoms: O_18  and  C_34
    9  A    between atoms: O_18  and  C_37
   10  A    between atoms: C_21  and  C_37
   11  A    between atoms: C_23  and  N_39
   12  A    between atoms: C_24  and  C_35
                            x       y       z     vdW  Elec       q    Type
                         _______ _______ _______ _____ _____    ______ ____

>  <TORSDO>
F 12

$$$$
