=
 OpenBabel10222415383D

 40 45  0  0  1  0  0  0  0  0999 V2000
  181.6150  177.2270  139.9370 C   0  0  0  0  0  0  0  0  0  0  0  0
  180.6040  176.4030  139.4280 C   0  0  0  0  0  3  0  0  0  0  0  0
  179.2440  176.8250  141.2930 N   0  0  0  0  0  0  0  0  0  0  0  0
  180.1770  177.6450  141.8390 C   0  0  0  0  0  3  0  0  0  0  0  0
  181.3910  177.8630  141.1800 C   0  0  0  0  0  0  0  0  0  0  0  0
  179.4510  176.2230  140.1220 N   0  0  0  0  0  0  0  0  0  0  0  0
  184.2850  178.3260  143.1050 C   0  0  0  0  0  0  0  0  0  0  0  0
  182.3730  178.8380  141.7650 C   0  0  2  0  0  3  0  0  0  0  0  0
  183.7180  178.2680  141.8110 N   0  0  0  0  0  2  0  0  0  0  0  0
  181.8610  179.3530  143.4610 S   0  0  0  0  0  0  0  0  0  0  0  0
  185.1710  178.5500  145.6990 C   0  0  0  0  0  0  0  0  0  0  0  0
  183.4600  178.8680  144.0730 C   0  0  0  0  0  0  0  0  0  0  0  0
  185.5780  177.8750  143.4090 C   0  0  0  0  0  3  0  0  0  0  0  0
  186.0080  177.9990  144.7350 C   0  0  0  0  0  0  0  0  0  0  0  0
  187.3890  177.8640  146.5900 C   0  0  0  0  0  0  0  0  0  0  0  0
  185.9600  178.5670  147.1740 S   0  0  0  0  0  0  0  0  0  0  0  0
  187.2570  177.6080  145.2220 C   0  0  0  0  0  3  0  0  0  0  0  0
  183.8810  178.9980  145.4030 C   0  0  0  0  0  3  0  0  0  0  0  0
  188.7230  178.2410  148.4950 O   0  0  0  0  0  0  0  0  0  0  0  0
  188.5750  177.5850  147.4320 C   0  0  0  0  0  0  0  0  0  0  0  0
  189.5490  176.6280  147.1110 O   0  0  0  0  0  0  0  0  0  0  0  0
  191.6490  176.5280  145.9640 C   0  0  0  0  0  1  0  0  0  0  0  0
  190.9460  176.8200  147.2720 C   0  0  0  0  0  2  0  0  0  0  0  0
  183.4950  178.6380  139.0780 C   0  0  0  0  0  3  0  0  0  0  0  0
  184.6580  178.8070  138.3250 C   0  0  0  0  0  3  0  0  0  0  0  0
  184.5820  176.4700  137.6710 C   0  0  0  0  0  0  0  0  0  0  0  0
  183.4130  176.3150  138.4300 C   0  0  0  0  0  3  0  0  0  0  0  0
  185.2110  177.7290  137.6260 C   0  0  0  0  0  0  0  0  0  0  0  0
  182.8650  177.3880  139.1490 C   0  0  0  0  0  0  0  0  0  0  0  0
  185.1390  175.3220  136.9330 C   0  0  0  0  0  3  0  0  0  0  0  0
  185.2470  174.1540  137.4800 N   0  0  0  0  0  2  0  0  0  0  0  0
  186.4420  177.9590  136.8120 C   0  0  0  0  0  2  0  0  0  0  0  0
  187.4400  178.6410  137.6160 N   0  0  0  0  0  2  0  0  0  0  0  0
  188.1310  177.6140  138.3890 C   0  0  0  0  0  2  0  0  0  0  0  0
  189.1210  178.1940  139.3010 N   0  0  0  0  0  0  0  0  0  0  0  0
  189.2790  177.7390  141.6720 C   0  0  1  0  0  3  0  0  0  0  0  0
  188.5560  176.6210  142.0890 O   0  0  0  0  0  1  0  0  0  0  0  0
  190.5480  177.2900  140.9940 C   0  0  0  0  0  2  0  0  0  0  0  0
  190.1960  177.2330  139.5290 C   0  0  0  0  0  2  0  0  0  0  0  0
  188.4980  178.4680  140.5950 C   0  0  0  0  0  2  0  0  0  0  0  0
  1  5  1  0  0  0  0
  2  1  2  0  0  0  0
  2  6  1  0  0  0  0
  3  4  1  0  0  0  0
  5  4  2  0  0  0  0
  6  3  2  0  0  0  0
  7 13  2  0  0  0  0
  7 12  1  0  0  0  0
  8  5  1  1  0  0  0
  8  9  1  0  0  0  0
  8 10  1  0  0  0  0
  9  7  1  0  0  0  0
 10 12  1  0  0  0  0
 11 16  1  0  0  0  0
 12 18  2  0  0  0  0
 13 14  1  0  0  0  0
 14 17  1  0  0  0  0
 14 11  2  0  0  0  0
 15 16  1  0  0  0  0
 15 20  1  0  0  0  0
 17 15  2  0  0  0  0
 18 11  1  0  0  0  0
 20 19  2  0  0  0  0
 21 23  1  0  0  0  0
 21 20  1  0  0  0  0
 22 23  1  0  0  0  0
 24 29  1  0  0  0  0
 25 24  2  0  0  0  0
 26 27  1  0  0  0  0
 27 29  2  0  0  0  0
 28 26  2  0  0  0  0
 28 25  1  0  0  0  0
 29  1  1  0  0  0  0
 30 31  2  0  0  0  0
 30 26  1  0  0  0  0
 32 33  1  0  0  0  0
 32 28  1  0  0  0  0
 33 34  1  0  0  0  0
 34 35  1  0  0  0  0
 35 39  1  0  0  0  0
 35 40  1  0  0  0  0
 36 37  1  6  0  0  0
 38 36  1  0  0  0  0
 39 38  1  0  0  0  0
 40 36  1  0  0  0  0
M  END
>  <MODEL>
1

>  <REMARK>
 VINA RESULT:      -8.8      0.000      0.000
  Name = 
  10 active torsions:
  status: ('A' for Active; 'I' for Inactive)
    1  A    between atoms: C_2  and  C_36
    2  A    between atoms: N_3  and  C_10
    3  A    between atoms: C_6  and  C_30
    4  A    between atoms: C_8  and  C_27
    5  A    between atoms: C_8  and  O_37
    6  A    between atoms: C_10  and  N_32
    7  A    between atoms: C_14  and  N_32
    8  A    between atoms: C_14  and  C_34
    9  A    between atoms: C_25  and  C_26
   10  A    between atoms: C_31  and  O_37
                            x       y       z     vdW  Elec       q    Type
                         _______ _______ _______ _____ _____    ______ ____

>  <TORSDO>
F 10

$$$$
=
 OpenBabel10222415383D

 40 45  0  0  1  0  0  0  0  0999 V2000
  188.4500  177.4440  145.9270 C   0  0  0  0  0  0  0  0  0  0  0  0
  188.4630  176.8190  147.1800 C   0  0  0  0  0  3  0  0  0  0  0  0
  190.7650  176.4010  147.0100 N   0  0  0  0  0  0  0  0  0  0  0  0
  190.8260  177.0040  145.7960 C   0  0  0  0  0  3  0  0  0  0  0  0
  189.6690  177.5350  145.2170 C   0  0  0  0  0  0  0  0  0  0  0  0
  189.6180  176.3130  147.6820 N   0  0  0  0  0  0  0  0  0  0  0  0
  190.0320  177.3040  141.7370 C   0  0  0  0  0  0  0  0  0  0  0  0
  189.7780  178.2680  143.9110 C   0  0  2  0  0  3  0  0  0  0  0  0
  189.1560  177.5090  142.8270 N   0  0  0  0  0  2  0  0  0  0  0  0
  191.5430  178.6090  143.4910 S   0  0  0  0  0  0  0  0  0  0  0  0
  191.9150  177.0360  139.7500 C   0  0  0  0  0  0  0  0  0  0  0  0
  191.3040  177.8200  141.9140 C   0  0  0  0  0  0  0  0  0  0  0  0
  189.6680  176.6340  140.5610 C   0  0  0  0  0  3  0  0  0  0  0  0
  190.6410  176.5090  139.5630 C   0  0  0  0  0  0  0  0  0  0  0  0
  191.6190  175.9210  137.5470 C   0  0  0  0  0  0  0  0  0  0  0  0
  192.8450  176.7330  138.3920 S   0  0  0  0  0  0  0  0  0  0  0  0
  190.4610  175.8790  138.3300 C   0  0  0  0  0  3  0  0  0  0  0  0
  192.2850  177.7010  140.9210 C   0  0  0  0  0  3  0  0  0  0  0  0
  191.0680  175.8100  135.2590 O   0  0  0  0  0  0  0  0  0  0  0  0
  191.7880  175.3590  136.1870 C   0  0  0  0  0  0  0  0  0  0  0  0
  192.7060  174.3470  135.8720 O   0  0  0  0  0  0  0  0  0  0  0  0
  194.5670  173.4600  137.0910 C   0  0  0  0  0  1  0  0  0  0  0  0
  193.0970  173.3120  136.7610 C   0  0  0  0  0  2  0  0  0  0  0  0
  186.2310  178.5440  146.2930 C   0  0  0  0  0  3  0  0  0  0  0  0
  185.0090  179.0270  145.8230 C   0  0  0  0  0  3  0  0  0  0  0  0
  185.6060  178.3630  143.5650 C   0  0  0  0  0  0  0  0  0  0  0  0
  186.8300  177.8800  144.0520 C   0  0  0  0  0  3  0  0  0  0  0  0
  184.6920  178.9480  144.4630 C   0  0  0  0  0  0  0  0  0  0  0  0
  187.1610  177.9750  145.4110 C   0  0  0  0  0  0  0  0  0  0  0  0
  185.2900  178.2570  142.1300 C   0  0  0  0  0  3  0  0  0  0  0  0
  185.5840  179.2050  141.3000 N   0  0  0  0  0  2  0  0  0  0  0  0
  183.3630  179.4530  144.0070 C   0  0  0  0  0  2  0  0  0  0  0  0
  182.3050  178.7010  144.6550 N   0  0  0  0  0  2  0  0  0  0  0  0
  181.2430  178.5330  143.6680 C   0  0  0  0  0  2  0  0  0  0  0  0
  181.1320  179.6970  142.7850 N   0  0  0  0  0  0  0  0  0  0  0  0
  179.8870  179.7710  140.7120 C   0  0  1  0  0  3  0  0  0  0  0  0
  178.9920  178.7140  140.5440 O   0  0  0  0  0  1  0  0  0  0  0  0
  179.3050  180.7710  141.6770 C   0  0  0  0  0  2  0  0  0  0  0  0
  179.8570  180.3690  143.0210 C   0  0  0  0  0  2  0  0  0  0  0  0
  181.1440  179.2610  141.3900 C   0  0  0  0  0  2  0  0  0  0  0  0
  1  2  1  0  0  0  0
  2  6  2  0  0  0  0
  3  6  1  0  0  0  0
  4  3  2  0  0  0  0
  5  4  1  0  0  0  0
  5  1  2  0  0  0  0
  7 12  1  0  0  0  0
  7  9  1  0  0  0  0
  8  5  1  1  0  0  0
  9  8  1  0  0  0  0
 10  8  1  0  0  0  0
 11 18  1  0  0  0  0
 12 10  1  0  0  0  0
 13  7  2  0  0  0  0
 14 11  2  0  0  0  0
 14 13  1  0  0  0  0
 15 17  2  0  0  0  0
 15 16  1  0  0  0  0
 16 11  1  0  0  0  0
 17 14  1  0  0  0  0
 18 12  2  0  0  0  0
 19 20  2  0  0  0  0
 20 15  1  0  0  0  0
 21 20  1  0  0  0  0
 21 23  1  0  0  0  0
 23 22  1  0  0  0  0
 25 24  1  0  0  0  0
 26 27  2  0  0  0  0
 26 28  1  0  0  0  0
 27 29  1  0  0  0  0
 28 25  2  0  0  0  0
 29  1  1  0  0  0  0
 29 24  2  0  0  0  0
 30 26  1  0  0  0  0
 31 30  2  0  0  0  0
 32 28  1  0  0  0  0
 32 33  1  0  0  0  0
 34 33  1  0  0  0  0
 35 39  1  0  0  0  0
 35 34  1  0  0  0  0
 36 37  1  1  0  0  0
 36 40  1  0  0  0  0
 36 38  1  0  0  0  0
 38 39  1  0  0  0  0
 40 35  1  0  0  0  0
M  END
>  <MODEL>
2

>  <REMARK>
 VINA RESULT:      -8.4      4.506      9.306
  Name = 
  10 active torsions:
  status: ('A' for Active; 'I' for Inactive)
    1  A    between atoms: C_2  and  C_36
    2  A    between atoms: N_3  and  C_10
    3  A    between atoms: C_6  and  C_30
    4  A    between atoms: C_8  and  C_27
    5  A    between atoms: C_8  and  O_37
    6  A    between atoms: C_10  and  N_32
    7  A    between atoms: C_14  and  N_32
    8  A    between atoms: C_14  and  C_34
    9  A    between atoms: C_25  and  C_26
   10  A    between atoms: C_31  and  O_37
                            x       y       z     vdW  Elec       q    Type
                         _______ _______ _______ _____ _____    ______ ____

>  <TORSDO>
F 10

$$$$
=
 OpenBabel10222415383D

 40 45  0  0  1  0  0  0  0  0999 V2000
  183.6890  178.0550  138.0160 C   0  0  0  0  0  0  0  0  0  0  0  0
  183.5090  177.1570  136.9570 C   0  0  0  0  0  3  0  0  0  0  0  0
  185.7290  176.4170  137.1330 N   0  0  0  0  0  0  0  0  0  0  0  0
  185.9690  177.2570  138.1720 C   0  0  0  0  0  3  0  0  0  0  0  0
  184.9580  178.1040  138.6370 C   0  0  0  0  0  0  0  0  0  0  0  0
  184.5340  176.3680  136.5440 N   0  0  0  0  0  0  0  0  0  0  0  0
  186.6760  178.4660  141.6720 C   0  0  0  0  0  0  0  0  0  0  0  0
  185.2240  178.9640  139.8390 C   0  0  2  0  0  3  0  0  0  0  0  0
  186.6020  178.8110  140.3030 N   0  0  0  0  0  2  0  0  0  0  0  0
  184.0610  178.5560  141.2120 S   0  0  0  0  0  0  0  0  0  0  0  0
  186.5640  177.8010  144.3380 C   0  0  0  0  0  0  0  0  0  0  0  0
  185.4510  178.3060  142.2940 C   0  0  0  0  0  0  0  0  0  0  0  0
  187.8820  178.2930  142.3660 C   0  0  0  0  0  3  0  0  0  0  0  0
  187.8020  177.9550  143.7220 C   0  0  0  0  0  0  0  0  0  0  0  0
  188.4860  177.4240  145.8700 C   0  0  0  0  0  0  0  0  0  0  0  0
  186.7920  177.4030  145.9470 S   0  0  0  0  0  0  0  0  0  0  0  0
  188.8900  177.7450  144.5710 C   0  0  0  0  0  3  0  0  0  0  0  0
  185.3600  177.9690  143.6510 C   0  0  0  0  0  3  0  0  0  0  0  0
  189.2190  177.8260  148.0730 O   0  0  0  0  0  0  0  0  0  0  0  0
  189.3680  177.1430  147.0270 C   0  0  0  0  0  0  0  0  0  0  0  0
  190.3660  176.1590  147.0230 O   0  0  0  0  0  0  0  0  0  0  0  0
  192.5430  175.7100  147.9150 C   0  0  0  0  0  1  0  0  0  0  0  0
  191.7490  176.4190  146.8400 C   0  0  0  0  0  2  0  0  0  0  0  0
  182.6690  180.3030  138.4280 C   0  0  0  0  0  3  0  0  0  0  0  0
  181.6070  181.1130  138.8330 C   0  0  0  0  0  3  0  0  0  0  0  0
  180.2600  179.1400  139.2720 C   0  0  0  0  0  0  0  0  0  0  0  0
  181.3360  178.3390  138.8640 C   0  0  0  0  0  3  0  0  0  0  0  0
  180.3990  180.5410  139.2480 C   0  0  0  0  0  0  0  0  0  0  0  0
  182.5420  178.9060  138.4280 C   0  0  0  0  0  0  0  0  0  0  0  0
  179.0020  178.5150  139.7160 C   0  0  0  0  0  3  0  0  0  0  0  0
  178.9310  177.8510  140.8250 N   0  0  0  0  0  2  0  0  0  0  0  0
  179.2970  181.4430  139.6970 C   0  0  0  0  0  2  0  0  0  0  0  0
  179.3510  182.6890  138.9540 N   0  0  0  0  0  2  0  0  0  0  0  0
  178.9320  182.3840  137.5900 C   0  0  0  0  0  2  0  0  0  0  0  0
  179.1050  183.5340  136.6970 N   0  0  0  0  0  0  0  0  0  0  0  0
  181.0400  184.9850  136.6380 C   0  0  1  0  0  3  0  0  0  0  0  0
  182.1570  184.4740  137.3000 O   0  0  0  0  0  1  0  0  0  0  0  0
  180.8920  184.3000  135.3050 C   0  0  0  0  0  2  0  0  0  0  0  0
  179.9490  183.1530  135.5690 C   0  0  0  0  0  2  0  0  0  0  0  0
  179.7890  184.6120  137.4100 C   0  0  0  0  0  2  0  0  0  0  0  0
  1 29  1  0  0  0  0
  1  5  1  0  0  0  0
  2  1  2  0  0  0  0
  3  4  1  0  0  0  0
  4  5  2  0  0  0  0
  6  2  1  0  0  0  0
  6  3  2  0  0  0  0
  7 12  2  0  0  0  0
  7 13  1  0  0  0  0
  8  5  1  6  0  0  0
  8  9  1  0  0  0  0
  8 10  1  0  0  0  0
  9  7  1  0  0  0  0
 10 12  1  0  0  0  0
 11 16  1  0  0  0  0
 12 18  1  0  0  0  0
 13 14  2  0  0  0  0
 14 11  1  0  0  0  0
 14 17  1  0  0  0  0
 15 16  1  0  0  0  0
 15 20  1  0  0  0  0
 17 15  2  0  0  0  0
 18 11  2  0  0  0  0
 20 19  2  0  0  0  0
 21 20  1  0  0  0  0
 23 21  1  0  0  0  0
 23 22  1  0  0  0  0
 24 25  1  0  0  0  0
 25 28  2  0  0  0  0
 26 30  1  0  0  0  0
 27 26  2  0  0  0  0
 28 26  1  0  0  0  0
 28 32  1  0  0  0  0
 29 24  2  0  0  0  0
 29 27  1  0  0  0  0
 30 31  2  0  0  0  0
 33 32  1  0  0  0  0
 34 33  1  0  0  0  0
 35 40  1  0  0  0  0
 35 34  1  0  0  0  0
 36 37  1  1  0  0  0
 36 40  1  0  0  0  0
 38 39  1  0  0  0  0
 38 36  1  0  0  0  0
 39 35  1  0  0  0  0
M  END
>  <MODEL>
3

>  <REMARK>
 VINA RESULT:      -8.0      3.871      6.349
  Name = 
  10 active torsions:
  status: ('A' for Active; 'I' for Inactive)
    1  A    between atoms: C_2  and  C_36
    2  A    between atoms: N_3  and  C_10
    3  A    between atoms: C_6  and  C_30
    4  A    between atoms: C_8  and  C_27
    5  A    between atoms: C_8  and  O_37
    6  A    between atoms: C_10  and  N_32
    7  A    between atoms: C_14  and  N_32
    8  A    between atoms: C_14  and  C_34
    9  A    between atoms: C_25  and  C_26
   10  A    between atoms: C_31  and  O_37
                            x       y       z     vdW  Elec       q    Type
                         _______ _______ _______ _____ _____    ______ ____

>  <TORSDO>
F 10

$$$$
=
 OpenBabel10222415383D

 40 45  0  0  1  0  0  0  0  0999 V2000
  183.8410  177.8670  137.8140 C   0  0  0  0  0  0  0  0  0  0  0  0
  183.7110  176.9590  136.7560 C   0  0  0  0  0  3  0  0  0  0  0  0
  185.9730  176.3600  136.9150 N   0  0  0  0  0  0  0  0  0  0  0  0
  186.1680  177.2130  137.9520 C   0  0  0  0  0  3  0  0  0  0  0  0
  185.1100  177.9960  138.4250 C   0  0  0  0  0  0  0  0  0  0  0  0
  184.7800  176.2360  136.3350 N   0  0  0  0  0  0  0  0  0  0  0  0
  186.7620  178.4240  141.4880 C   0  0  0  0  0  0  0  0  0  0  0  0
  185.3310  178.8710  139.6260 C   0  0  2  0  0  3  0  0  0  0  0  0
  186.7030  178.7580  140.1160 N   0  0  0  0  0  2  0  0  0  0  0  0
  184.1540  178.4410  140.9800 S   0  0  0  0  0  0  0  0  0  0  0  0
  186.6180  177.7750  144.1570 C   0  0  0  0  0  0  0  0  0  0  0  0
  185.5300  178.2360  142.0900 C   0  0  0  0  0  0  0  0  0  0  0  0
  187.9590  178.2880  142.2060 C   0  0  0  0  0  3  0  0  0  0  0  0
  187.8620  177.9580  143.5630 C   0  0  0  0  0  0  0  0  0  0  0  0
  188.5210  177.4610  145.7270 C   0  0  0  0  0  0  0  0  0  0  0  0
  186.8270  177.3950  145.7730 S   0  0  0  0  0  0  0  0  0  0  0  0
  188.9400  177.7830  144.4330 C   0  0  0  0  0  3  0  0  0  0  0  0
  185.4220  177.9060  143.4470 C   0  0  0  0  0  3  0  0  0  0  0  0
  188.8490  176.8350  147.9750 O   0  0  0  0  0  0  0  0  0  0  0  0
  189.3880  177.2110  146.9010 C   0  0  0  0  0  0  0  0  0  0  0  0
  190.7800  177.3750  146.8890 O   0  0  0  0  0  0  0  0  0  0  0  0
  192.2920  175.6250  147.5130 C   0  0  0  0  0  1  0  0  0  0  0  0
  191.6960  176.4210  146.3730 C   0  0  0  0  0  2  0  0  0  0  0  0
  182.7030  180.0460  138.2860 C   0  0  0  0  0  3  0  0  0  0  0  0
  181.5960  180.7870  138.6990 C   0  0  0  0  0  3  0  0  0  0  0  0
  180.3430  178.7360  139.0460 C   0  0  0  0  0  0  0  0  0  0  0  0
  181.4650  178.0030  138.6300 C   0  0  0  0  0  3  0  0  0  0  0  0
  180.4120  180.1420  139.0730 C   0  0  0  0  0  0  0  0  0  0  0  0
  182.6470  178.6450  138.2350 C   0  0  0  0  0  0  0  0  0  0  0  0
  179.1120  178.0330  139.4460 C   0  0  0  0  0  3  0  0  0  0  0  0
  179.1460  176.9820  140.2000 N   0  0  0  0  0  2  0  0  0  0  0  0
  179.2590  180.9710  139.5340 C   0  0  0  0  0  2  0  0  0  0  0  0
  179.5530  181.5370  140.8380 N   0  0  0  0  0  2  0  0  0  0  0  0
  178.9920  180.6240  141.8280 C   0  0  0  0  0  2  0  0  0  0  0  0
  179.8630  180.4880  142.9990 N   0  0  0  0  0  0  0  0  0  0  0  0
  180.1080  178.4900  144.3410 C   0  0  1  0  0  3  0  0  0  0  0  0
  179.6010  177.3350  143.7440 O   0  0  0  0  0  1  0  0  0  0  0  0
  181.4350  178.8340  143.7160 C   0  0  0  0  0  2  0  0  0  0  0  0
  181.0960  179.8070  142.6140 C   0  0  0  0  0  2  0  0  0  0  0  0
  179.2040  179.6620  144.0100 C   0  0  0  0  0  2  0  0  0  0  0  0
  1 29  1  0  0  0  0
  1  5  1  0  0  0  0
  2  1  2  0  0  0  0
  3  4  1  0  0  0  0
  4  5  2  0  0  0  0
  6  2  1  0  0  0  0
  6  3  2  0  0  0  0
  7 12  2  0  0  0  0
  7 13  1  0  0  0  0
  8  5  1  6  0  0  0
  8  9  1  0  0  0  0
  8 10  1  0  0  0  0
  9  7  1  0  0  0  0
 10 12  1  0  0  0  0
 11 16  1  0  0  0  0
 12 18  1  0  0  0  0
 13 14  2  0  0  0  0
 14 11  1  0  0  0  0
 14 17  1  0  0  0  0
 15 16  1  0  0  0  0
 15 20  1  0  0  0  0
 17 15  2  0  0  0  0
 18 11  2  0  0  0  0
 20 19  2  0  0  0  0
 21 20  1  0  0  0  0
 23 21  1  0  0  0  0
 23 22  1  0  0  0  0
 24 25  1  0  0  0  0
 25 28  2  0  0  0  0
 26 28  1  0  0  0  0
 26 30  1  0  0  0  0
 27 26  2  0  0  0  0
 28 32  1  0  0  0  0
 29 24  2  0  0  0  0
 29 27  1  0  0  0  0
 30 31  2  0  0  0  0
 32 33  1  0  0  0  0
 33 34  1  0  0  0  0
 34 35  1  0  0  0  0
 35 40  1  0  0  0  0
 36 37  1  6  0  0  0
 38 36  1  0  0  0  0
 39 35  1  0  0  0  0
 39 38  1  0  0  0  0
 40 36  1  0  0  0  0
M  END
>  <MODEL>
4

>  <REMARK>
 VINA RESULT:      -7.9      2.637      5.736
  Name = 
  10 active torsions:
  status: ('A' for Active; 'I' for Inactive)
    1  A    between atoms: C_2  and  C_36
    2  A    between atoms: N_3  and  C_10
    3  A    between atoms: C_6  and  C_30
    4  A    between atoms: C_8  and  C_27
    5  A    between atoms: C_8  and  O_37
    6  A    between atoms: C_10  and  N_32
    7  A    between atoms: C_14  and  N_32
    8  A    between atoms: C_14  and  C_34
    9  A    between atoms: C_25  and  C_26
   10  A    between atoms: C_31  and  O_37
                            x       y       z     vdW  Elec       q    Type
                         _______ _______ _______ _____ _____    ______ ____

>  <TORSDO>
F 10

$$$$
=
 OpenBabel10222415383D

 40 45  0  0  1  0  0  0  0  0999 V2000
  190.7800  176.3430  138.0880 C   0  0  0  0  0  0  0  0  0  0  0  0
  191.5100  175.2810  137.5410 C   0  0  0  0  0  3  0  0  0  0  0  0
  190.5240  175.6110  135.4390 N   0  0  0  0  0  0  0  0  0  0  0  0
  189.7930  176.6580  135.9000 C   0  0  0  0  0  3  0  0  0  0  0  0
  189.8950  177.0480  137.2390 C   0  0  0  0  0  0  0  0  0  0  0  0
  191.3570  174.9440  136.2350 N   0  0  0  0  0  0  0  0  0  0  0  0
  187.7060  178.4150  139.6120 C   0  0  0  0  0  0  0  0  0  0  0  0
  189.1390  178.2590  137.7050 C   0  0  2  0  0  3  0  0  0  0  0  0
  189.0400  178.2900  139.1630 N   0  0  0  0  0  2  0  0  0  0  0  0
  187.4470  178.3030  136.9700 S   0  0  0  0  0  0  0  0  0  0  0  0
  185.0390  178.6590  140.2380 C   0  0  0  0  0  0  0  0  0  0  0  0
  186.7580  178.4460  138.6050 C   0  0  0  0  0  0  0  0  0  0  0  0
  187.3450  178.5000  140.9650 C   0  0  0  0  0  3  0  0  0  0  0  0
  185.9820  178.6240  141.2600 C   0  0  0  0  0  0  0  0  0  0  0  0
  184.0440  178.8390  142.5110 C   0  0  0  0  0  0  0  0  0  0  0  0
  183.5100  178.8150  140.9010 S   0  0  0  0  0  0  0  0  0  0  0  0
  185.4370  178.7230  142.5420 C   0  0  0  0  0  3  0  0  0  0  0  0
  185.3920  178.5710  138.8900 C   0  0  0  0  0  3  0  0  0  0  0  0
  183.5810  178.6530  144.8130 O   0  0  0  0  0  0  0  0  0  0  0  0
  183.1410  178.9690  143.6770 C   0  0  0  0  0  0  0  0  0  0  0  0
  181.8170  179.4220  143.5900 O   0  0  0  0  0  0  0  0  0  0  0  0
  179.9280  178.6090  142.3630 C   0  0  0  0  0  1  0  0  0  0  0  0
  180.6740  178.5840  143.6790 C   0  0  0  0  0  2  0  0  0  0  0  0
  191.9760  177.5670  139.9150 C   0  0  0  0  0  3  0  0  0  0  0  0
  192.1780  177.8670  141.2620 C   0  0  0  0  0  3  0  0  0  0  0  0
  190.3760  176.3600  141.8760 C   0  0  0  0  0  0  0  0  0  0  0  0
  190.1860  176.0660  140.5180 C   0  0  0  0  0  3  0  0  0  0  0  0
  191.3800  177.2760  142.2470 C   0  0  0  0  0  0  0  0  0  0  0  0
  190.9700  176.6710  139.5260 C   0  0  0  0  0  0  0  0  0  0  0  0
  189.5300  175.7160  142.8950 C   0  0  0  0  0  3  0  0  0  0  0  0
  188.2750  176.0080  143.0180 N   0  0  0  0  0  2  0  0  0  0  0  0
  191.6460  177.6060  143.6790 C   0  0  0  0  0  2  0  0  0  0  0  0
  190.6900  178.5970  144.1380 N   0  0  0  0  0  2  0  0  0  0  0  0
  190.5230  178.3870  145.5730 C   0  0  0  0  0  2  0  0  0  0  0  0
  189.4760  177.4030  145.8610 N   0  0  0  0  0  0  0  0  0  0  0  0
  188.3200  177.1640  147.9730 C   0  0  1  0  0  3  0  0  0  0  0  0
  188.4810  178.2470  148.8380 O   0  0  0  0  0  1  0  0  0  0  0  0
  187.3250  177.5240  146.9000 C   0  0  0  0  0  2  0  0  0  0  0  0
  188.1660  178.0400  145.7590 C   0  0  0  0  0  2  0  0  0  0  0  0
  189.6210  176.9180  147.2330 C   0  0  0  0  0  2  0  0  0  0  0  0
  1 29  1  0  0  0  0
  2  1  1  0  0  0  0
  3  4  2  0  0  0  0
  3  6  1  0  0  0  0
  4  5  1  0  0  0  0
  5  1  2  0  0  0  0
  6  2  2  0  0  0  0
  7 13  1  0  0  0  0
  8  5  1  1  0  0  0
  8  9  1  0  0  0  0
  9  7  1  0  0  0  0
 10  8  1  0  0  0  0
 10 12  1  0  0  0  0
 11 16  1  0  0  0  0
 11 14  1  0  0  0  0
 12 18  1  0  0  0  0
 12  7  2  0  0  0  0
 13 14  2  0  0  0  0
 14 17  1  0  0  0  0
 15 17  2  0  0  0  0
 15 20  1  0  0  0  0
 16 15  1  0  0  0  0
 18 11  2  0  0  0  0
 20 19  2  0  0  0  0
 21 20  1  0  0  0  0
 21 23  1  0  0  0  0
 22 23  1  0  0  0  0
 24 25  1  0  0  0  0
 25 28  2  0  0  0  0
 26 28  1  0  0  0  0
 26 30  1  0  0  0  0
 27 26  2  0  0  0  0
 28 32  1  0  0  0  0
 29 24  2  0  0  0  0
 29 27  1  0  0  0  0
 30 31  2  0  0  0  0
 32 33  1  0  0  0  0
 33 34  1  0  0  0  0
 34 35  1  0  0  0  0
 35 40  1  0  0  0  0
 36 37  1  1  0  0  0
 38 36  1  0  0  0  0
 39 35  1  0  0  0  0
 39 38  1  0  0  0  0
 40 36  1  0  0  0  0
M  END
>  <MODEL>
5

>  <REMARK>
 VINA RESULT:      -7.6      3.370      7.958
  Name = 
  10 active torsions:
  status: ('A' for Active; 'I' for Inactive)
    1  A    between atoms: C_2  and  C_36
    2  A    between atoms: N_3  and  C_10
    3  A    between atoms: C_6  and  C_30
    4  A    between atoms: C_8  and  C_27
    5  A    between atoms: C_8  and  O_37
    6  A    between atoms: C_10  and  N_32
    7  A    between atoms: C_14  and  N_32
    8  A    between atoms: C_14  and  C_34
    9  A    between atoms: C_25  and  C_26
   10  A    between atoms: C_31  and  O_37
                            x       y       z     vdW  Elec       q    Type
                         _______ _______ _______ _____ _____    ______ ____

>  <TORSDO>
F 10

$$$$
=
 OpenBabel10222415383D

 40 45  0  0  1  0  0  0  0  0999 V2000
  180.3870  179.6490  137.9250 C   0  0  0  0  0  0  0  0  0  0  0  0
  179.9750  180.7890  137.2250 C   0  0  0  0  0  3  0  0  0  0  0  0
  179.9170  182.0510  139.2010 N   0  0  0  0  0  0  0  0  0  0  0  0
  180.3250  180.9890  139.9410 C   0  0  0  0  0  3  0  0  0  0  0  0
  180.5630  179.7560  139.3250 C   0  0  0  0  0  0  0  0  0  0  0  0
  179.7480  181.9540  137.8830 N   0  0  0  0  0  0  0  0  0  0  0  0
  182.2380  178.7720  142.2440 C   0  0  0  0  0  0  0  0  0  0  0  0
  181.0920  178.6190  140.1510 C   0  0  2  0  0  3  0  0  0  0  0  0
  180.9990  178.9170  141.5790 N   0  0  0  0  0  2  0  0  0  0  0  0
  182.8450  178.2440  139.7120 S   0  0  0  0  0  0  0  0  0  0  0  0
  184.7490  178.4250  143.3100 C   0  0  0  0  0  0  0  0  0  0  0  0
  183.2950  178.4180  141.4250 C   0  0  0  0  0  0  0  0  0  0  0  0
  182.4090  178.9680  143.6220 C   0  0  0  0  0  3  0  0  0  0  0  0
  183.6950  178.7860  144.1430 C   0  0  0  0  0  0  0  0  0  0  0  0
  185.4140  178.6810  145.6930 C   0  0  0  0  0  0  0  0  0  0  0  0
  186.1480  178.2810  144.2170 S   0  0  0  0  0  0  0  0  0  0  0  0
  184.0550  178.9340  145.4840 C   0  0  0  0  0  3  0  0  0  0  0  0
  184.5850  178.2320  141.9360 C   0  0  0  0  0  3  0  0  0  0  0  0
  185.9820  179.7550  147.7120 O   0  0  0  0  0  0  0  0  0  0  0  0
  186.1360  178.7390  146.9840 C   0  0  0  0  0  0  0  0  0  0  0  0
  186.9880  177.7260  147.4460 O   0  0  0  0  0  0  0  0  0  0  0  0
  189.3050  178.0600  147.9530 C   0  0  0  0  0  1  0  0  0  0  0  0
  187.9110  177.8780  148.5130 C   0  0  0  0  0  2  0  0  0  0  0  0
  181.7340  178.2660  136.3320 C   0  0  0  0  0  3  0  0  0  0  0  0
  181.9470  177.0980  135.5990 C   0  0  0  0  0  3  0  0  0  0  0  0
  179.9030  176.1480  136.5030 C   0  0  0  0  0  0  0  0  0  0  0  0
  179.7000  177.3290  137.2330 C   0  0  0  0  0  3  0  0  0  0  0  0
  181.0430  176.0340  135.6840 C   0  0  0  0  0  0  0  0  0  0  0  0
  180.6140  178.3910  137.1670 C   0  0  0  0  0  0  0  0  0  0  0  0
  178.9310  175.0460  136.5990 C   0  0  0  0  0  3  0  0  0  0  0  0
  178.9630  174.1980  137.5760 N   0  0  0  0  0  2  0  0  0  0  0  0
  181.2950  174.8120  134.8630 C   0  0  0  0  0  2  0  0  0  0  0  0
  182.5620  174.2170  135.2480 N   0  0  0  0  0  2  0  0  0  0  0  0
  182.3520  173.5840  136.5460 C   0  0  0  0  0  2  0  0  0  0  0  0
  183.6090  173.4250  137.2830 N   0  0  0  0  0  0  0  0  0  0  0  0
  185.6810  172.5860  136.3590 C   0  0  1  0  0  3  0  0  0  0  0  0
  185.7120  172.5520  134.9640 O   0  0  0  0  0  1  0  0  0  0  0  0
  185.8850  174.0030  136.8300 C   0  0  0  0  0  2  0  0  0  0  0  0
  184.4900  174.5530  136.9960 C   0  0  0  0  0  2  0  0  0  0  0  0
  184.2910  172.2110  136.8370 C   0  0  0  0  0  2  0  0  0  0  0  0
  1  5  1  0  0  0  0
  2  6  1  0  0  0  0
  2  1  2  0  0  0  0
  3  4  1  0  0  0  0
  5  4  2  0  0  0  0
  6  3  2  0  0  0  0
  7 13  1  0  0  0  0
  8  5  1  6  0  0  0
  8  9  1  0  0  0  0
  9  7  1  0  0  0  0
 10  8  1  0  0  0  0
 10 12  1  0  0  0  0
 11 14  1  0  0  0  0
 11 16  1  0  0  0  0
 12 18  1  0  0  0  0
 12  7  2  0  0  0  0
 13 14  2  0  0  0  0
 14 17  1  0  0  0  0
 15 20  1  0  0  0  0
 16 15  1  0  0  0  0
 17 15  2  0  0  0  0
 18 11  2  0  0  0  0
 20 21  1  0  0  0  0
 20 19  2  0  0  0  0
 21 23  1  0  0  0  0
 22 23  1  0  0  0  0
 24 29  1  0  0  0  0
 25 28  1  0  0  0  0
 25 24  2  0  0  0  0
 26 30  1  0  0  0  0
 26 27  1  0  0  0  0
 28 26  2  0  0  0  0
 29 27  2  0  0  0  0
 29  1  1  0  0  0  0
 30 31  2  0  0  0  0
 32 33  1  0  0  0  0
 32 28  1  0  0  0  0
 33 34  1  0  0  0  0
 34 35  1  0  0  0  0
 36 37  1  6  0  0  0
 36 38  1  0  0  0  0
 36 40  1  0  0  0  0
 38 39  1  0  0  0  0
 39 35  1  0  0  0  0
 40 35  1  0  0  0  0
M  END
>  <MODEL>
6

>  <REMARK>
 VINA RESULT:      -7.2      3.299      4.928
  Name = 
  10 active torsions:
  status: ('A' for Active; 'I' for Inactive)
    1  A    between atoms: C_2  and  C_36
    2  A    between atoms: N_3  and  C_10
    3  A    between atoms: C_6  and  C_30
    4  A    between atoms: C_8  and  C_27
    5  A    between atoms: C_8  and  O_37
    6  A    between atoms: C_10  and  N_32
    7  A    between atoms: C_14  and  N_32
    8  A    between atoms: C_14  and  C_34
    9  A    between atoms: C_25  and  C_26
   10  A    between atoms: C_31  and  O_37
                            x       y       z     vdW  Elec       q    Type
                         _______ _______ _______ _____ _____    ______ ____

>  <TORSDO>
F 10

$$$$
=
 OpenBabel10222415383D

 40 45  0  0  1  0  0  0  0  0999 V2000
  190.9150  175.5900  136.8370 C   0  0  0  0  0  0  0  0  0  0  0  0
  191.5500  174.5950  136.0830 C   0  0  0  0  0  3  0  0  0  0  0  0
  193.5440  174.8760  137.2850 N   0  0  0  0  0  0  0  0  0  0  0  0
  192.9880  175.8420  138.0600 C   0  0  0  0  0  3  0  0  0  0  0  0
  191.6610  176.2310  137.8530 C   0  0  0  0  0  0  0  0  0  0  0  0
  192.8450  174.2710  136.3260 N   0  0  0  0  0  0  0  0  0  0  0  0
  191.2460  177.3270  141.1570 C   0  0  0  0  0  0  0  0  0  0  0  0
  191.0450  177.2420  138.7770 C   0  0  2  0  0  3  0  0  0  0  0  0
  191.9120  177.5060  139.9230 N   0  0  0  0  0  2  0  0  0  0  0  0
  189.3930  176.6730  139.3690 S   0  0  0  0  0  0  0  0  0  0  0  0
  189.7410  176.9160  143.4220 C   0  0  0  0  0  0  0  0  0  0  0  0
  189.9330  176.9070  141.0490 C   0  0  0  0  0  0  0  0  0  0  0  0
  191.8470  177.5480  142.4050 C   0  0  0  0  0  3  0  0  0  0  0  0
  191.0630  177.3330  143.5440 C   0  0  0  0  0  0  0  0  0  0  0  0
  190.4720  177.2130  145.7810 C   0  0  0  0  0  0  0  0  0  0  0  0
  189.0700  176.7500  144.9460 S   0  0  0  0  0  0  0  0  0  0  0  0
  191.4870  177.5040  144.8640 C   0  0  0  0  0  3  0  0  0  0  0  0
  189.1390  176.6910  142.1830 C   0  0  0  0  0  3  0  0  0  0  0  0
  191.5540  176.7540  147.8230 O   0  0  0  0  0  0  0  0  0  0  0  0
  190.5660  177.2900  147.2570 C   0  0  0  0  0  0  0  0  0  0  0  0
  189.6120  177.9250  148.0650 O   0  0  0  0  0  0  0  0  0  0  0  0
  187.2510  178.2640  147.8490 C   0  0  0  0  0  1  0  0  0  0  0  0
  188.3460  177.3750  148.3970 C   0  0  0  0  0  2  0  0  0  0  0  0
  189.1730  177.1630  135.9690 C   0  0  0  0  0  3  0  0  0  0  0  0
  187.8450  177.4930  135.6960 C   0  0  0  0  0  3  0  0  0  0  0  0
  187.1240  175.3420  136.5600 C   0  0  0  0  0  0  0  0  0  0  0  0
  188.4630  175.0240  136.8310 C   0  0  0  0  0  3  0  0  0  0  0  0
  186.8170  176.5880  135.9800 C   0  0  0  0  0  0  0  0  0  0  0  0
  189.4990  175.9200  136.5300 C   0  0  0  0  0  0  0  0  0  0  0  0
  186.0580  174.3760  136.8800 C   0  0  0  0  0  3  0  0  0  0  0  0
  186.3120  173.2660  137.4940 N   0  0  0  0  0  2  0  0  0  0  0  0
  185.4080  176.9910  135.6950 C   0  0  0  0  0  2  0  0  0  0  0  0
  184.8080  177.5500  136.8930 N   0  0  0  0  0  2  0  0  0  0  0  0
  183.3710  177.3150  136.7930 C   0  0  0  0  0  2  0  0  0  0  0  0
  182.6710  177.6890  138.0250 N   0  0  0  0  0  0  0  0  0  0  0  0
  183.4530  179.3060  139.6460 C   0  0  1  0  0  3  0  0  0  0  0  0
  184.4840  180.1250  139.1850 O   0  0  0  0  0  1  0  0  0  0  0  0
  182.1440  179.7770  139.0660 C   0  0  0  0  0  2  0  0  0  0  0  0
  181.9600  178.9470  137.8200 C   0  0  0  0  0  2  0  0  0  0  0  0
  183.6420  177.9050  139.0970 C   0  0  0  0  0  2  0  0  0  0  0  0
  1  5  1  0  0  0  0
  2  6  1  0  0  0  0
  2  1  2  0  0  0  0
  3  4  1  0  0  0  0
  5  4  2  0  0  0  0
  6  3  2  0  0  0  0
  7 13  1  0  0  0  0
  8  5  1  6  0  0  0
  8 10  1  0  0  0  0
  8  9  1  0  0  0  0
  9  7  1  0  0  0  0
 10 12  1  0  0  0  0
 11 14  1  0  0  0  0
 11 16  1  0  0  0  0
 12  7  2  0  0  0  0
 12 18  1  0  0  0  0
 13 14  2  0  0  0  0
 14 17  1  0  0  0  0
 15 20  1  0  0  0  0
 16 15  1  0  0  0  0
 17 15  2  0  0  0  0
 18 11  2  0  0  0  0
 20 19  2  0  0  0  0
 20 21  1  0  0  0  0
 21 23  1  0  0  0  0
 22 23  1  0  0  0  0
 24 29  1  0  0  0  0
 25 24  2  0  0  0  0
 25 28  1  0  0  0  0
 26 27  1  0  0  0  0
 26 30  1  0  0  0  0
 28 26  2  0  0  0  0
 29 27  2  0  0  0  0
 29  1  1  0  0  0  0
 30 31  2  0  0  0  0
 32 28  1  0  0  0  0
 32 33  1  0  0  0  0
 34 33  1  0  0  0  0
 34 35  1  0  0  0  0
 35 40  1  0  0  0  0
 36 37  1  6  0  0  0
 38 36  1  0  0  0  0
 39 35  1  0  0  0  0
 39 38  1  0  0  0  0
 40 36  1  0  0  0  0
M  END
>  <MODEL>
7

>  <REMARK>
 VINA RESULT:      -7.1      3.062      7.149
  Name = 
  10 active torsions:
  status: ('A' for Active; 'I' for Inactive)
    1  A    between atoms: C_2  and  C_36
    2  A    between atoms: N_3  and  C_10
    3  A    between atoms: C_6  and  C_30
    4  A    between atoms: C_8  and  C_27
    5  A    between atoms: C_8  and  O_37
    6  A    between atoms: C_10  and  N_32
    7  A    between atoms: C_14  and  N_32
    8  A    between atoms: C_14  and  C_34
    9  A    between atoms: C_25  and  C_26
   10  A    between atoms: C_31  and  O_37
                            x       y       z     vdW  Elec       q    Type
                         _______ _______ _______ _____ _____    ______ ____

>  <TORSDO>
F 10

$$$$
=
 OpenBabel10222415383D

 40 45  0  0  1  0  0  0  0  0999 V2000
  190.4080  176.4420  137.3240 C   0  0  0  0  0  0  0  0  0  0  0  0
  191.6650  176.3770  136.7110 C   0  0  0  0  0  3  0  0  0  0  0  0
  190.7180  175.5740  134.7210 N   0  0  0  0  0  0  0  0  0  0  0  0
  189.4680  175.6220  135.2490 C   0  0  0  0  0  3  0  0  0  0  0  0
  189.2790  176.0500  136.5670 C   0  0  0  0  0  0  0  0  0  0  0  0
  191.7840  175.9420  135.4310 N   0  0  0  0  0  0  0  0  0  0  0  0
  186.1620  174.5120  137.0230 C   0  0  0  0  0  0  0  0  0  0  0  0
  187.8810  176.1710  137.1000 C   0  0  2  0  0  3  0  0  0  0  0  0
  187.3950  174.8880  137.6030 N   0  0  0  0  0  2  0  0  0  0  0  0
  186.7320  176.8010  135.8010 S   0  0  0  0  0  0  0  0  0  0  0  0
  183.7740  173.9980  135.7590 C   0  0  0  0  0  0  0  0  0  0  0  0
  185.6750  175.3960  136.0780 C   0  0  0  0  0  0  0  0  0  0  0  0
  185.4690  173.3400  137.3600 C   0  0  0  0  0  3  0  0  0  0  0  0
  184.2560  173.0990  136.7050 C   0  0  0  0  0  0  0  0  0  0  0  0
  182.2850  172.0360  136.1080 C   0  0  0  0  0  0  0  0  0  0  0  0
  182.3140  173.4420  135.1590 S   0  0  0  0  0  0  0  0  0  0  0  0
  183.4300  171.9910  136.9100 C   0  0  0  0  0  3  0  0  0  0  0  0
  184.4610  175.1650  135.4180 C   0  0  0  0  0  3  0  0  0  0  0  0
  181.3310  170.0290  135.3250 O   0  0  0  0  0  0  0  0  0  0  0  0
  181.1940  171.0360  136.0680 C   0  0  0  0  0  0  0  0  0  0  0  0
  180.0100  171.1460  136.8100 O   0  0  0  0  0  0  0  0  0  0  0  0
  179.6780  172.9900  138.3020 C   0  0  0  0  0  1  0  0  0  0  0  0
  179.2830  172.3520  136.9880 C   0  0  0  0  0  2  0  0  0  0  0  0
  191.4350  176.7910  139.5800 C   0  0  0  0  0  3  0  0  0  0  0  0
  191.3630  177.2120  140.9080 C   0  0  0  0  0  3  0  0  0  0  0  0
  189.0510  177.8770  140.5810 C   0  0  0  0  0  0  0  0  0  0  0  0
  189.1360  177.4480  139.2480 C   0  0  0  0  0  3  0  0  0  0  0  0
  190.1800  177.7620  141.4140 C   0  0  0  0  0  0  0  0  0  0  0  0
  190.3260  176.9140  138.7310 C   0  0  0  0  0  0  0  0  0  0  0  0
  187.7900  178.4420  141.0940 C   0  0  0  0  0  3  0  0  0  0  0  0
  186.7690  178.6320  140.3210 N   0  0  0  0  0  2  0  0  0  0  0  0
  190.1390  178.1760  142.8480 C   0  0  0  0  0  2  0  0  0  0  0  0
  189.9460  177.0090  143.6890 N   0  0  0  0  0  2  0  0  0  0  0  0
  189.9900  177.4740  145.0710 C   0  0  0  0  0  2  0  0  0  0  0  0
  188.8760  176.9420  145.8600 N   0  0  0  0  0  0  0  0  0  0  0  0
  188.3930  177.5060  148.1630 C   0  0  1  0  0  3  0  0  0  0  0  0
  189.0640  178.6380  148.6270 O   0  0  0  0  0  1  0  0  0  0  0  0
  187.2370  177.9300  147.2950 C   0  0  0  0  0  2  0  0  0  0  0  0
  187.7900  177.9180  145.8920 C   0  0  0  0  0  2  0  0  0  0  0  0
  189.3090  176.7250  147.2400 C   0  0  0  0  0  2  0  0  0  0  0  0
  1 29  1  0  0  0  0
  2  1  1  0  0  0  0
  3  4  2  0  0  0  0
  3  6  1  0  0  0  0
  4  5  1  0  0  0  0
  5  1  2  0  0  0  0
  6  2  2  0  0  0  0
  7 13  1  0  0  0  0
  7  9  1  0  0  0  0
  8  5  1  6  0  0  0
  8  9  1  0  0  0  0
 10 12  1  0  0  0  0
 10  8  1  0  0  0  0
 11 14  1  0  0  0  0
 12  7  2  0  0  0  0
 14 17  1  0  0  0  0
 14 13  2  0  0  0  0
 15 17  2  0  0  0  0
 16 11  1  0  0  0  0
 16 15  1  0  0  0  0
 18 11  2  0  0  0  0
 18 12  1  0  0  0  0
 19 20  2  0  0  0  0
 20 15  1  0  0  0  0
 20 21  1  0  0  0  0
 21 23  1  0  0  0  0
 23 22  1  0  0  0  0
 24 25  1  0  0  0  0
 25 28  2  0  0  0  0
 26 30  1  0  0  0  0
 26 28  1  0  0  0  0
 27 26  2  0  0  0  0
 28 32  1  0  0  0  0
 29 27  1  0  0  0  0
 29 24  2  0  0  0  0
 31 30  2  0  0  0  0
 32 33  1  0  0  0  0
 33 34  1  0  0  0  0
 34 35  1  0  0  0  0
 35 39  1  0  0  0  0
 35 40  1  0  0  0  0
 36 37  1  6  0  0  0
 38 36  1  0  0  0  0
 39 38  1  0  0  0  0
 40 36  1  0  0  0  0
M  END
>  <MODEL>
8

>  <REMARK>
 VINA RESULT:      -7.1      4.430      9.952
  Name = 
  10 active torsions:
  status: ('A' for Active; 'I' for Inactive)
    1  A    between atoms: C_2  and  C_36
    2  A    between atoms: N_3  and  C_10
    3  A    between atoms: C_6  and  C_30
    4  A    between atoms: C_8  and  C_27
    5  A    between atoms: C_8  and  O_37
    6  A    between atoms: C_10  and  N_32
    7  A    between atoms: C_14  and  N_32
    8  A    between atoms: C_14  and  C_34
    9  A    between atoms: C_25  and  C_26
   10  A    between atoms: C_31  and  O_37
                            x       y       z     vdW  Elec       q    Type
                         _______ _______ _______ _____ _____    ______ ____

>  <TORSDO>
F 10

$$$$
=
 OpenBabel10222415383D

 40 45  0  0  1  0  0  0  0  0999 V2000
  187.5230  177.4170  137.2040 C   0  0  0  0  0  0  0  0  0  0  0  0
  187.1420  178.4110  136.2950 C   0  0  0  0  0  3  0  0  0  0  0  0
  188.6790  179.9240  137.2170 N   0  0  0  0  0  0  0  0  0  0  0  0
  189.1040  179.0050  138.1200 C   0  0  0  0  0  3  0  0  0  0  0  0
  188.5320  177.7290  138.1450 C   0  0  0  0  0  0  0  0  0  0  0  0
  187.7270  179.6350  136.3300 N   0  0  0  0  0  0  0  0  0  0  0  0
  189.0910  176.8280  141.4860 C   0  0  0  0  0  0  0  0  0  0  0  0
  189.0760  176.7050  139.0990 C   0  0  2  0  0  3  0  0  0  0  0  0
  188.2920  176.6640  140.3320 N   0  0  0  0  0  2  0  0  0  0  0  0
  190.8430  177.0520  139.5020 S   0  0  0  0  0  0  0  0  0  0  0  0
  190.8470  177.1650  143.5760 C   0  0  0  0  0  0  0  0  0  0  0  0
  190.4360  177.0290  141.2340 C   0  0  0  0  0  0  0  0  0  0  0  0
  188.5840  176.7950  142.7940 C   0  0  0  0  0  3  0  0  0  0  0  0
  189.4960  176.9690  143.8420 C   0  0  0  0  0  0  0  0  0  0  0  0
  190.3060  177.1600  146.0040 C   0  0  0  0  0  0  0  0  0  0  0  0
  191.6760  177.3370  145.0190 S   0  0  0  0  0  0  0  0  0  0  0  0
  189.1780  176.9640  145.2020 C   0  0  0  0  0  3  0  0  0  0  0  0
  191.3560  177.2030  142.2760 C   0  0  0  0  0  3  0  0  0  0  0  0
  191.4590  177.3230  148.0520 O   0  0  0  0  0  0  0  0  0  0  0  0
  190.3420  177.2080  147.4830 C   0  0  0  0  0  0  0  0  0  0  0  0
  189.2000  177.1290  148.2920 O   0  0  0  0  0  0  0  0  0  0  0  0
  187.1980  178.3550  147.8180 C   0  0  0  0  0  1  0  0  0  0  0  0
  188.4240  178.2460  148.6980 C   0  0  0  0  0  2  0  0  0  0  0  0
  185.4520  176.0120  137.2290 C   0  0  0  0  0  3  0  0  0  0  0  0
  184.8090  174.7740  137.1880 C   0  0  0  0  0  3  0  0  0  0  0  0
  186.9550  173.6570  136.9790 C   0  0  0  0  0  0  0  0  0  0  0  0
  187.5880  174.9080  137.0240 C   0  0  0  0  0  3  0  0  0  0  0  0
  185.5500  173.5950  137.0550 C   0  0  0  0  0  0  0  0  0  0  0  0
  186.8490  176.0940  137.1360 C   0  0  0  0  0  0  0  0  0  0  0  0
  187.7580  172.4280  136.8520 C   0  0  0  0  0  3  0  0  0  0  0  0
  188.0070  171.8990  135.6980 N   0  0  0  0  0  2  0  0  0  0  0  0
  184.8240  172.2900  137.0410 C   0  0  0  0  0  2  0  0  0  0  0  0
  183.4010  172.5200  137.2180 N   0  0  0  0  0  2  0  0  0  0  0  0
  182.7200  171.3150  136.7570 C   0  0  0  0  0  2  0  0  0  0  0  0
  181.4160  171.6200  136.1630 N   0  0  0  0  0  0  0  0  0  0  0  0
  179.6190  172.8130  137.2600 C   0  0  1  0  0  3  0  0  0  0  0  0
  180.0060  173.4930  138.4140 O   0  0  0  0  0  1  0  0  0  0  0  0
  180.0640  173.5900  136.0480 C   0  0  0  0  0  2  0  0  0  0  0  0
  181.4060  173.0020  135.6900 C   0  0  0  0  0  2  0  0  0  0  0  0
  180.3700  171.4970  137.1780 C   0  0  0  0  0  2  0  0  0  0  0  0
  1  5  1  0  0  0  0
  2  6  1  0  0  0  0
  2  1  2  0  0  0  0
  3  4  1  0  0  0  0
  4  5  2  0  0  0  0
  6  3  2  0  0  0  0
  7 13  1  0  0  0  0
  8  5  1  6  0  0  0
  8 10  1  0  0  0  0
  8  9  1  0  0  0  0
  9  7  1  0  0  0  0
 10 12  1  0  0  0  0
 11 14  1  0  0  0  0
 11 16  1  0  0  0  0
 12  7  2  0  0  0  0
 12 18  1  0  0  0  0
 13 14  2  0  0  0  0
 14 17  1  0  0  0  0
 15 20  1  0  0  0  0
 16 15  1  0  0  0  0
 17 15  2  0  0  0  0
 18 11  2  0  0  0  0
 20 19  2  0  0  0  0
 20 21  1  0  0  0  0
 21 23  1  0  0  0  0
 22 23  1  0  0  0  0
 25 24  1  0  0  0  0
 26 27  2  0  0  0  0
 26 28  1  0  0  0  0
 27 29  1  0  0  0  0
 28 25  2  0  0  0  0
 29  1  1  0  0  0  0
 29 24  2  0  0  0  0
 30 26  1  0  0  0  0
 31 30  2  0  0  0  0
 32 28  1  0  0  0  0
 32 33  1  0  0  0  0
 34 33  1  0  0  0  0
 35 34  1  0  0  0  0
 35 40  1  0  0  0  0
 36 37  1  1  0  0  0
 38 36  1  0  0  0  0
 39 38  1  0  0  0  0
 39 35  1  0  0  0  0
 40 36  1  0  0  0  0
M  END
>  <MODEL>
9

>  <REMARK>
 VINA RESULT:      -6.9      3.981      7.070
  Name = 
  10 active torsions:
  status: ('A' for Active; 'I' for Inactive)
    1  A    between atoms: C_2  and  C_36
    2  A    between atoms: N_3  and  C_10
    3  A    between atoms: C_6  and  C_30
    4  A    between atoms: C_8  and  C_27
    5  A    between atoms: C_8  and  O_37
    6  A    between atoms: C_10  and  N_32
    7  A    between atoms: C_14  and  N_32
    8  A    between atoms: C_14  and  C_34
    9  A    between atoms: C_25  and  C_26
   10  A    between atoms: C_31  and  O_37
                            x       y       z     vdW  Elec       q    Type
                         _______ _______ _______ _____ _____    ______ ____

>  <TORSDO>
F 10

$$$$
