=
 OpenBabel10222417393D

 30 33  0  0  1  0  0  0  0  0999 V2000
  185.4850  178.6670  147.3540 N   0  0  0  0  0  0  0  0  0  0  0  0
  190.3010  177.5920  146.7520 C   0  0  0  0  0  2  0  0  0  0  0  0
  191.5150  176.3530  145.0850 N   0  0  0  0  0  0  0  0  0  0  0  0
  186.3300  178.2290  145.2480 C   0  0  0  0  0  0  0  0  0  0  0  0
  188.7320  177.6700  144.8020 C   0  0  0  0  0  0  0  0  0  0  0  0
  184.5370  178.7600  146.5070 N   0  0  0  0  0  0  0  0  0  0  0  0
  187.3490  177.9030  144.2040 C   0  0  0  0  0  2  0  0  0  0  0  0
  189.7250  177.3640  143.8500 O   0  0  0  0  0  0  0  0  0  0  0  0
  191.0320  176.8550  143.9880 C   0  0  0  0  0  0  0  0  0  0  0  0
  186.6560  178.3330  146.6300 C   0  0  0  0  0  0  0  0  0  0  0  0
  190.8110  176.2320  146.3470 C   0  0  1  0  0  3  0  0  0  0  0  0
  185.0280  178.4940  145.1830 C   0  0  0  0  0  0  0  0  0  0  0  0
  188.9610  177.7920  146.1450 C   0  0  0  0  0  0  0  0  0  0  0  0
  187.8770  178.1380  147.0980 C   0  0  0  0  0  3  0  0  0  0  0  0
  183.8660  178.2490  141.5800 C   0  0  0  0  0  3  0  0  0  0  0  0
  184.6900  178.2100  142.7080 C   0  0  0  0  0  3  0  0  0  0  0  0
  182.0020  178.9270  142.9680 C   0  0  0  0  0  3  0  0  0  0  0  0
  182.8280  178.8880  144.0950 C   0  0  0  0  0  3  0  0  0  0  0  0
  184.1780  178.5290  143.9760 C   0  0  0  0  0  0  0  0  0  0  0  0
  182.5220  178.6080  141.7100 C   0  0  0  0  0  3  0  0  0  0  0  0
  191.7340  175.6880  147.3910 C   0  0  0  0  0  3  0  0  0  0  0  0
  192.4440  176.4310  148.0520 O   0  0  0  0  0  0  0  0  0  0  0  0
  191.9110  176.8860  142.7900 C   0  0  0  0  0  2  0  0  0  0  0  0
  191.4130  177.8710  141.8450 N   0  0  0  0  0  2  0  0  0  0  0  0
  191.7180  177.3780  140.5130 C   0  0  0  0  0  2  0  0  0  0  0  0
  190.4560  176.8440  139.8590 C   0  0  0  0  0  2  0  0  0  0  0  0
  189.2330  177.5740  140.3920 C   0  0  0  0  0  2  0  0  0  0  0  0
  188.3770  178.1110  139.2550 C   0  0  0  0  0  3  0  0  0  0  0  0
  187.1510  178.5390  139.7640 O   0  0  0  0  0  1  0  0  0  0  0  0
  189.0220  179.1840  138.6400 O   0  0  0  0  0  1  0  0  0  0  0  0
  3 11  1  0  0  0  0
  4 10  1  0  0  0  0
  5 13  2  0  0  0  0
  6  1  2  0  0  0  0
  7  5  1  0  0  0  0
  7  4  1  0  0  0  0
  8  9  1  0  0  0  0
  8  5  1  0  0  0  0
  9  3  2  0  0  0  0
 10 14  2  0  0  0  0
 10  1  1  0  0  0  0
 11  2  1  0  0  0  0
 11 21  1  1  0  0  0
 12  4  2  0  0  0  0
 12  6  1  0  0  0  0
 13  2  1  0  0  0  0
 13 14  1  0  0  0  0
 15 20  2  0  0  0  0
 15 16  1  0  0  0  0
 16 19  2  0  0  0  0
 17 18  2  0  0  0  0
 19 18  1  0  0  0  0
 19 12  1  0  0  0  0
 20 17  1  0  0  0  0
 21 22  2  0  0  0  0
 23  9  1  0  0  0  0
 24 23  1  0  0  0  0
 25 24  1  0  0  0  0
 26 27  1  0  0  0  0
 26 25  1  0  0  0  0
 28 29  1  0  0  0  0
 28 27  1  0  0  0  0
 30 28  1  0  0  0  0
M  END
>  <MODEL>
1

>  <REMARK>
 VINA RESULT:      -9.6      0.000      0.000
  Name = 
  8 active torsions:
  status: ('A' for Active; 'I' for Inactive)
    1  A    between atoms: C_6  and  N_15
    2  A    between atoms: C_6  and  C_20
    3  A    between atoms: C_10  and  CA_23
    4  A    between atoms: C_14  and  C_25
    5  A    between atoms: N_15  and  C_19
    6  A    between atoms: C_18  and  C_19
    7  A    between atoms: C_18  and  C_21
    8  A    between atoms: C_21  and  C_24
                            x       y       z     vdW  Elec       q    Type
                         _______ _______ _______ _____ _____    ______ ____

>  <TORSDO>
F 8

$$$$
=
 OpenBabel10222417393D

 30 33  0  0  1  0  0  0  0  0999 V2000
  190.1250  176.7450  144.7120 N   0  0  0  0  0  0  0  0  0  0  0  0
  191.4340  177.1740  139.9360 C   0  0  0  0  0  2  0  0  0  0  0  0
  190.1830  177.1930  137.8810 N   0  0  0  0  0  0  0  0  0  0  0  0
  188.6270  177.5740  143.1600 C   0  0  0  0  0  0  0  0  0  0  0  0
  189.1520  177.8390  140.7240 C   0  0  0  0  0  0  0  0  0  0  0  0
  189.0340  177.0260  145.3090 N   0  0  0  0  0  2  0  0  0  0  0  0
  188.1180  178.0230  141.8280 C   0  0  0  0  0  3  0  0  0  0  0  0
  188.7130  178.2550  139.4510 O   0  0  0  0  0  0  0  0  0  0  0  0
  189.2390  178.0420  138.1610 C   0  0  0  0  0  0  0  0  0  0  0  0
  189.9440  177.0670  143.3450 C   0  0  0  0  0  0  0  0  0  0  0  0
  190.8570  176.3280  138.8300 C   0  0  1  0  0  3  0  0  0  0  0  0
  188.0770  177.5460  144.3710 C   0  0  0  0  0  0  0  0  0  0  0  0
  190.4000  177.3450  140.9870 C   0  0  0  0  0  0  0  0  0  0  0  0
  190.8120  176.9410  142.3550 C   0  0  0  0  0  3  0  0  0  0  0  0
  185.0560  178.5670  146.4260 C   0  0  0  0  0  3  0  0  0  0  0  0
  186.3510  178.1630  146.0920 C   0  0  0  0  0  3  0  0  0  0  0  0
  184.4620  178.5960  144.0790 C   0  0  0  0  0  3  0  0  0  0  0  0
  185.7590  178.1910  143.7470 C   0  0  0  0  0  3  0  0  0  0  0  0
  186.7150  177.9720  144.7490 C   0  0  0  0  0  0  0  0  0  0  0  0
  184.1120  178.7830  145.4190 C   0  0  0  0  0  3  0  0  0  0  0  0
  191.9400  175.5640  138.1370 C   0  0  0  0  0  3  0  0  0  0  0  0
  191.7760  174.3990  137.8070 O   0  0  0  0  0  0  0  0  0  0  0  0
  188.6660  178.8380  137.0450 C   0  0  0  0  0  2  0  0  0  0  0  0
  187.2550  179.0820  137.2950 N   0  0  0  0  0  2  0  0  0  0  0  0
  186.5200  177.9680  136.7220 C   0  0  0  0  0  2  0  0  0  0  0  0
  185.2940  177.6710  137.5680 C   0  0  0  0  0  2  0  0  0  0  0  0
  185.3980  178.3650  138.9160 C   0  0  0  0  0  2  0  0  0  0  0  0
  184.1180  179.1180  139.2450 C   0  0  0  0  0  3  0  0  0  0  0  0
  183.7950  178.9150  140.5860 O   0  0  0  0  0  1  0  0  0  0  0  0
  184.2970  180.4820  139.0140 O   0  0  0  0  0  1  0  0  0  0  0  0
  1  6  1  0  0  0  0
  2 13  1  0  0  0  0
  3  9  2  0  0  0  0
  3 11  1  0  0  0  0
  4 10  1  0  0  0  0
  4 12  2  0  0  0  0
  5 13  1  0  0  0  0
  5  7  2  0  0  0  0
  7  4  1  0  0  0  0
  8  5  1  0  0  0  0
  9  8  1  0  0  0  0
 10  1  2  0  0  0  0
 11 21  1  6  0  0  0
 11  2  1  0  0  0  0
 12 19  1  0  0  0  0
 12  6  1  0  0  0  0
 13 14  2  0  0  0  0
 14 10  1  0  0  0  0
 16 15  1  0  0  0  0
 17 20  1  0  0  0  0
 18 17  2  0  0  0  0
 18 19  1  0  0  0  0
 19 16  2  0  0  0  0
 20 15  2  0  0  0  0
 22 21  2  0  0  0  0
 23 24  1  0  0  0  0
 23  9  1  0  0  0  0
 25 24  1  0  0  0  0
 25 26  1  0  0  0  0
 26 27  1  0  0  0  0
 27 28  1  0  0  0  0
 28 29  1  0  0  0  0
 30 28  1  0  0  0  0
M  END
>  <MODEL>
2

>  <REMARK>
 VINA RESULT:      -8.9      2.952      5.516
  Name = 
  8 active torsions:
  status: ('A' for Active; 'I' for Inactive)
    1  A    between atoms: C_6  and  N_15
    2  A    between atoms: C_6  and  C_20
    3  A    between atoms: C_10  and  CA_23
    4  A    between atoms: C_14  and  C_25
    5  A    between atoms: N_15  and  C_19
    6  A    between atoms: C_18  and  C_19
    7  A    between atoms: C_18  and  C_21
    8  A    between atoms: C_21  and  C_24
                            x       y       z     vdW  Elec       q    Type
                         _______ _______ _______ _____ _____    ______ ____

>  <TORSDO>
F 8

$$$$
=
 OpenBabel10222417393D

 30 33  0  0  1  0  0  0  0  0999 V2000
  183.4540  178.7840  145.4720 N   0  0  0  0  0  0  0  0  0  0  0  0
  183.4050  178.7000  140.5030 C   0  0  0  0  0  2  0  0  0  0  0  0
  185.0760  179.1540  138.8320 N   0  0  0  0  0  0  0  0  0  0  0  0
  185.4080  178.4310  144.2910 C   0  0  0  0  0  0  0  0  0  0  0  0
  185.5280  178.3690  141.7890 C   0  0  0  0  0  0  0  0  0  0  0  0
  184.4100  178.6350  146.3020 N   0  0  0  0  0  2  0  0  0  0  0  0
  186.2930  178.2440  143.1010 C   0  0  0  0  0  3  0  0  0  0  0  0
  186.3260  178.1940  140.6400 O   0  0  0  0  0  0  0  0  0  0  0  0
  186.0810  178.4620  139.2780 C   0  0  0  0  0  0  0  0  0  0  0  0
  184.0090  178.6660  144.1750 C   0  0  0  0  0  0  0  0  0  0  0  0
  184.0380  179.7630  139.6410 C   0  0  1  0  0  3  0  0  0  0  0  0
  185.6440  178.4120  145.6000 C   0  0  0  0  0  0  0  0  0  0  0  0
  184.1790  178.5950  141.7650 C   0  0  0  0  0  0  0  0  0  0  0  0
  183.3870  178.7500  143.0110 C   0  0  0  0  0  3  0  0  0  0  0  0
  189.2930  177.5870  146.2270 C   0  0  0  0  0  3  0  0  0  0  0  0
  188.0780  177.7840  145.5660 C   0  0  0  0  0  3  0  0  0  0  0  0
  188.2530  178.2110  148.3210 C   0  0  0  0  0  3  0  0  0  0  0  0
  187.0380  178.4070  147.6590 C   0  0  0  0  0  3  0  0  0  0  0  0
  186.9390  178.1970  146.2760 C   0  0  0  0  0  0  0  0  0  0  0  0
  189.3800  177.8010  147.6050 C   0  0  0  0  0  3  0  0  0  0  0  0
  183.0120  180.3970  138.7550 C   0  0  0  0  0  3  0  0  0  0  0  0
  182.8530  181.6080  138.7420 O   0  0  0  0  0  0  0  0  0  0  0  0
  187.0480  177.9220  138.2880 C   0  0  0  0  0  2  0  0  0  0  0  0
  188.2350  178.7600  138.2580 N   0  0  0  0  0  2  0  0  0  0  0  0
  189.3480  177.9100  137.8720 C   0  0  0  0  0  2  0  0  0  0  0  0
  189.4240  176.7090  138.7980 C   0  0  0  0  0  2  0  0  0  0  0  0
  190.3570  176.9960  139.9640 C   0  0  0  0  0  2  0  0  0  0  0  0
  189.6420  176.8180  141.2940 C   0  0  0  0  0  3  0  0  0  0  0  0
  190.3770  175.9490  142.1010 O   0  0  0  0  0  1  0  0  0  0  0  0
  189.5180  178.0500  141.9360 O   0  0  0  0  0  1  0  0  0  0  0  0
  1  6  1  0  0  0  0
  2 13  1  0  0  0  0
  3  9  2  0  0  0  0
  3 11  1  0  0  0  0
  4 12  2  0  0  0  0
  5  7  2  0  0  0  0
  7  4  1  0  0  0  0
  8  5  1  0  0  0  0
  9  8  1  0  0  0  0
 10  4  1  0  0  0  0
 10  1  2  0  0  0  0
 11 21  1  6  0  0  0
 11  2  1  0  0  0  0
 12 19  1  0  0  0  0
 12  6  1  0  0  0  0
 13  5  1  0  0  0  0
 13 14  2  0  0  0  0
 14 10  1  0  0  0  0
 15 20  1  0  0  0  0
 16 15  2  0  0  0  0
 16 19  1  0  0  0  0
 18 17  1  0  0  0  0
 19 18  2  0  0  0  0
 20 17  2  0  0  0  0
 22 21  2  0  0  0  0
 23  9  1  0  0  0  0
 24 23  1  0  0  0  0
 25 24  1  0  0  0  0
 25 26  1  0  0  0  0
 26 27  1  0  0  0  0
 27 28  1  0  0  0  0
 28 30  1  0  0  0  0
 28 29  1  0  0  0  0
M  END
>  <MODEL>
3

>  <REMARK>
 VINA RESULT:      -8.8      2.534      6.452
  Name = 
  8 active torsions:
  status: ('A' for Active; 'I' for Inactive)
    1  A    between atoms: C_6  and  N_15
    2  A    between atoms: C_6  and  C_20
    3  A    between atoms: C_10  and  CA_23
    4  A    between atoms: C_14  and  C_25
    5  A    between atoms: N_15  and  C_19
    6  A    between atoms: C_18  and  C_19
    7  A    between atoms: C_18  and  C_21
    8  A    between atoms: C_21  and  C_24
                            x       y       z     vdW  Elec       q    Type
                         _______ _______ _______ _____ _____    ______ ____

>  <TORSDO>
F 8

$$$$
=
 OpenBabel10222417393D

 30 33  0  0  1  0  0  0  0  0999 V2000
  182.6430  178.9440  144.2160 N   0  0  0  0  0  0  0  0  0  0  0  0
  186.9420  178.6110  146.6890 C   0  0  0  0  0  2  0  0  0  0  0  0
  188.9760  177.3880  146.2970 N   0  0  0  0  0  0  0  0  0  0  0  0
  184.5910  178.3880  143.1030 C   0  0  0  0  0  0  0  0  0  0  0  0
  186.8210  178.1810  144.2250 C   0  0  0  0  0  0  0  0  0  0  0  0
  182.3720  178.7720  142.9820 N   0  0  0  0  0  0  0  0  0  0  0  0
  186.0460  178.1050  142.9150 C   0  0  0  0  0  2  0  0  0  0  0  0
  188.2010  177.9240  144.0910 O   0  0  0  0  0  0  0  0  0  0  0  0
  189.2030  177.6590  145.0460 C   0  0  0  0  0  0  0  0  0  0  0  0
  184.0320  178.7190  144.3710 C   0  0  0  0  0  0  0  0  0  0  0  0
  187.6730  177.3130  146.9270 C   0  0  1  0  0  3  0  0  0  0  0  0
  183.5640  178.4250  142.2590 C   0  0  0  0  0  0  0  0  0  0  0  0
  186.2080  178.5090  145.4030 C   0  0  0  0  0  0  0  0  0  0  0  0
  184.7520  178.7890  145.4780 C   0  0  0  0  0  3  0  0  0  0  0  0
  184.3510  178.6970  138.5570 C   0  0  0  0  0  3  0  0  0  0  0  0
  184.3440  178.9610  139.9290 C   0  0  0  0  0  3  0  0  0  0  0  0
  182.8460  176.8350  138.9100 C   0  0  0  0  0  3  0  0  0  0  0  0
  182.8390  177.1010  140.2830 C   0  0  0  0  0  3  0  0  0  0  0  0
  183.5880  178.1650  140.8050 C   0  0  0  0  0  0  0  0  0  0  0  0
  183.6020  177.6330  138.0480 C   0  0  0  0  0  3  0  0  0  0  0  0
  187.8330  177.0660  148.3930 C   0  0  0  0  0  3  0  0  0  0  0  0
  188.2380  177.9440  149.1400 O   0  0  0  0  0  0  0  0  0  0  0  0
  190.6150  177.6830  144.5840 C   0  0  0  0  0  2  0  0  0  0  0  0
  190.6800  178.2310  143.2400 N   0  0  0  0  0  2  0  0  0  0  0  0
  191.6120  177.4100  142.4880 C   0  0  0  0  0  2  0  0  0  0  0  0
  191.0810  177.1810  141.0840 C   0  0  0  0  0  2  0  0  0  0  0  0
  189.6030  177.5270  141.0130 C   0  0  0  0  0  2  0  0  0  0  0  0
  189.2210  178.0220  139.6270 C   0  0  0  0  0  3  0  0  0  0  0  0
  189.1820  176.9420  138.7460 O   0  0  0  0  0  1  0  0  0  0  0  0
  187.9670  178.6310  139.6680 O   0  0  0  0  0  1  0  0  0  0  0  0
  1 10  1  0  0  0  0
  2 11  1  0  0  0  0
  3 11  1  0  0  0  0
  4 10  1  0  0  0  0
  5 13  2  0  0  0  0
  6  1  2  0  0  0  0
  7  4  1  0  0  0  0
  7  5  1  0  0  0  0
  8  5  1  0  0  0  0
  8  9  1  0  0  0  0
  9  3  2  0  0  0  0
 10 14  2  0  0  0  0
 11 21  1  1  0  0  0
 12  6  1  0  0  0  0
 12  4  2  0  0  0  0
 13 14  1  0  0  0  0
 13  2  1  0  0  0  0
 15 16  1  0  0  0  0
 16 19  2  0  0  0  0
 17 18  2  0  0  0  0
 18 19  1  0  0  0  0
 19 12  1  0  0  0  0
 20 15  2  0  0  0  0
 20 17  1  0  0  0  0
 21 22  2  0  0  0  0
 23  9  1  0  0  0  0
 24 23  1  0  0  0  0
 25 24  1  0  0  0  0
 26 25  1  0  0  0  0
 27 26  1  0  0  0  0
 28 30  1  0  0  0  0
 28 27  1  0  0  0  0
 29 28  1  0  0  0  0
M  END
>  <MODEL>
4

>  <REMARK>
 VINA RESULT:      -8.3      1.995      3.074
  Name = 
  8 active torsions:
  status: ('A' for Active; 'I' for Inactive)
    1  A    between atoms: C_6  and  N_15
    2  A    between atoms: C_6  and  C_20
    3  A    between atoms: C_10  and  CA_23
    4  A    between atoms: C_14  and  C_25
    5  A    between atoms: N_15  and  C_19
    6  A    between atoms: C_18  and  C_19
    7  A    between atoms: C_18  and  C_21
    8  A    between atoms: C_21  and  C_24
                            x       y       z     vdW  Elec       q    Type
                         _______ _______ _______ _____ _____    ______ ____

>  <TORSDO>
F 8

$$$$
=
 OpenBabel10222417393D

 30 33  0  0  1  0  0  0  0  0999 V2000
  191.8620  177.2050  141.6770 N   0  0  0  0  0  0  0  0  0  0  0  0
  188.4490  178.3990  138.2660 C   0  0  0  0  0  2  0  0  0  0  0  0
  186.0530  178.1930  138.1920 N   0  0  0  0  0  0  0  0  0  0  0  0
  189.6840  177.6500  142.3100 C   0  0  0  0  0  0  0  0  0  0  0  0
  187.8650  178.2590  140.6970 C   0  0  0  0  0  0  0  0  0  0  0  0
  191.7730  177.0850  142.9430 N   0  0  0  0  0  2  0  0  0  0  0  0
  188.2460  178.0250  142.1550 C   0  0  0  0  0  3  0  0  0  0  0  0
  186.5160  178.6190  140.5070 O   0  0  0  0  0  0  0  0  0  0  0  0
  185.7170  178.6830  139.3480 C   0  0  0  0  0  0  0  0  0  0  0  0
  190.5760  177.5630  141.2040 C   0  0  0  0  0  0  0  0  0  0  0  0
  187.2940  177.5070  137.8890 C   0  0  1  0  0  3  0  0  0  0  0  0
  190.4290  177.3570  143.3720 C   0  0  0  0  0  0  0  0  0  0  0  0
  188.7860  178.1560  139.6910 C   0  0  0  0  0  0  0  0  0  0  0  0
  190.2010  177.7920  139.9560 C   0  0  0  0  0  3  0  0  0  0  0  0
  188.3020  177.5810  146.5060 C   0  0  0  0  0  3  0  0  0  0  0  0
  188.6860  177.6350  145.1640 C   0  0  0  0  0  3  0  0  0  0  0  0
  190.5350  176.8740  147.1150 C   0  0  0  0  0  3  0  0  0  0  0  0
  190.9180  176.9290  145.7720 C   0  0  0  0  0  3  0  0  0  0  0  0
  189.9980  177.3080  144.7840 C   0  0  0  0  0  0  0  0  0  0  0  0
  189.2270  177.2000  147.4820 C   0  0  0  0  0  3  0  0  0  0  0  0
  187.3450  177.1740  136.4320 C   0  0  0  0  0  3  0  0  0  0  0  0
  187.5460  178.0410  135.5950 O   0  0  0  0  0  0  0  0  0  0  0  0
  184.3930  179.3490  139.4630 C   0  0  0  0  0  2  0  0  0  0  0  0
  183.3800  178.3650  139.8060 N   0  0  0  0  0  2  0  0  0  0  0  0
  182.7810  178.7880  141.0590 C   0  0  0  0  0  2  0  0  0  0  0  0
  183.7650  178.5800  142.1970 C   0  0  0  0  0  2  0  0  0  0  0  0
  183.1410  178.9910  143.5200 C   0  0  0  0  0  2  0  0  0  0  0  0
  184.2040  179.1960  144.5880 C   0  0  0  0  0  3  0  0  0  0  0  0
  183.6290  179.0400  145.8490 O   0  0  0  0  0  1  0  0  0  0  0  0
  185.2250  178.2590  144.4270 O   0  0  0  0  0  1  0  0  0  0  0  0
  1  6  1  0  0  0  0
  2 13  1  0  0  0  0
  3  9  2  0  0  0  0
  4 12  2  0  0  0  0
  5  7  2  0  0  0  0
  6 12  1  0  0  0  0
  7  4  1  0  0  0  0
  8  5  1  0  0  0  0
  9 23  1  0  0  0  0
  9  8  1  0  0  0  0
 10  1  2  0  0  0  0
 10  4  1  0  0  0  0
 11 21  1  6  0  0  0
 11  3  1  0  0  0  0
 11  2  1  0  0  0  0
 12 19  1  0  0  0  0
 13 14  2  0  0  0  0
 13  5  1  0  0  0  0
 14 10  1  0  0  0  0
 15 20  1  0  0  0  0
 16 15  2  0  0  0  0
 17 20  2  0  0  0  0
 18 17  1  0  0  0  0
 19 16  1  0  0  0  0
 19 18  2  0  0  0  0
 22 21  2  0  0  0  0
 23 24  1  0  0  0  0
 24 25  1  0  0  0  0
 25 26  1  0  0  0  0
 26 27  1  0  0  0  0
 27 28  1  0  0  0  0
 28 29  1  0  0  0  0
 30 28  1  0  0  0  0
M  END
>  <MODEL>
5

>  <REMARK>
 VINA RESULT:      -8.2      2.872      7.804
  Name = 
  8 active torsions:
  status: ('A' for Active; 'I' for Inactive)
    1  A    between atoms: C_6  and  N_15
    2  A    between atoms: C_6  and  C_20
    3  A    between atoms: C_10  and  CA_23
    4  A    between atoms: C_14  and  C_25
    5  A    between atoms: N_15  and  C_19
    6  A    between atoms: C_18  and  C_19
    7  A    between atoms: C_18  and  C_21
    8  A    between atoms: C_21  and  C_24
                            x       y       z     vdW  Elec       q    Type
                         _______ _______ _______ _____ _____    ______ ____

>  <TORSDO>
F 8

$$$$
=
 OpenBabel10222417393D

 30 33  0  0  1  0  0  0  0  0999 V2000
  190.0650  176.5910  144.6660 N   0  0  0  0  0  0  0  0  0  0  0  0
  191.4420  177.1440  139.9220 C   0  0  0  0  0  2  0  0  0  0  0  0
  190.2140  177.2810  137.8570 N   0  0  0  0  0  0  0  0  0  0  0  0
  188.6140  177.5280  143.1300 C   0  0  0  0  0  0  0  0  0  0  0  0
  189.1760  177.8610  140.7110 C   0  0  0  0  0  0  0  0  0  0  0  0
  188.9780  176.8890  145.2620 N   0  0  0  0  0  2  0  0  0  0  0  0
  188.1360  178.0430  141.8110 C   0  0  0  0  0  3  0  0  0  0  0  0
  188.7660  178.3380  139.4500 O   0  0  0  0  0  0  0  0  0  0  0  0
  189.2990  178.1530  138.1580 C   0  0  0  0  0  0  0  0  0  0  0  0
  189.9110  176.9680  143.3100 C   0  0  0  0  0  0  0  0  0  0  0  0
  190.8470  176.3590  138.7800 C   0  0  1  0  0  3  0  0  0  0  0  0
  188.0510  177.4770  144.3340 C   0  0  0  0  0  0  0  0  0  0  0  0
  190.4030  177.3140  140.9680 C   0  0  0  0  0  0  0  0  0  0  0  0
  190.7850  176.8470  142.3240 C   0  0  0  0  0  3  0  0  0  0  0  0
  184.4290  178.5860  144.1350 C   0  0  0  0  0  3  0  0  0  0  0  0
  185.7000  178.1500  143.7520 C   0  0  0  0  0  3  0  0  0  0  0  0
  185.1350  178.6040  146.4500 C   0  0  0  0  0  3  0  0  0  0  0  0
  186.4060  178.1690  146.0650 C   0  0  0  0  0  3  0  0  0  0  0  0
  186.7000  177.9370  144.7140 C   0  0  0  0  0  0  0  0  0  0  0  0
  184.1470  178.8130  145.4840 C   0  0  0  0  0  3  0  0  0  0  0  0
  191.9100  175.5820  138.0710 C   0  0  0  0  0  3  0  0  0  0  0  0
  191.7780  174.3870  137.8540 O   0  0  0  0  0  0  0  0  0  0  0  0
  188.7660  179.0080  137.0660 C   0  0  0  0  0  2  0  0  0  0  0  0
  187.3150  178.9230  137.0430 N   0  0  0  0  0  2  0  0  0  0  0  0
  186.9550  178.0620  135.9300 C   0  0  0  0  0  2  0  0  0  0  0  0
  185.8540  177.1050  136.3540 C   0  0  0  0  0  2  0  0  0  0  0  0
  186.4460  175.8900  137.0490 C   0  0  0  0  0  2  0  0  0  0  0  0
  185.5130  174.6930  136.9490 C   0  0  0  0  0  3  0  0  0  0  0  0
  186.1270  173.5800  137.5220 O   0  0  0  0  0  1  0  0  0  0  0  0
  184.3220  174.9620  137.6220 O   0  0  0  0  0  1  0  0  0  0  0  0
  1  6  1  0  0  0  0
  2 13  1  0  0  0  0
  3  9  2  0  0  0  0
  3 11  1  0  0  0  0
  4 10  1  0  0  0  0
  4 12  2  0  0  0  0
  5 13  1  0  0  0  0
  5  7  2  0  0  0  0
  7  4  1  0  0  0  0
  8  5  1  0  0  0  0
  9  8  1  0  0  0  0
 10  1  2  0  0  0  0
 11 21  1  6  0  0  0
 11  2  1  0  0  0  0
 12 19  1  0  0  0  0
 12  6  1  0  0  0  0
 13 14  2  0  0  0  0
 14 10  1  0  0  0  0
 15 20  1  0  0  0  0
 16 15  2  0  0  0  0
 16 19  1  0  0  0  0
 18 17  1  0  0  0  0
 19 18  2  0  0  0  0
 20 17  2  0  0  0  0
 22 21  2  0  0  0  0
 23  9  1  0  0  0  0
 24 23  1  0  0  0  0
 25 26  1  0  0  0  0
 25 24  1  0  0  0  0
 26 27  1  0  0  0  0
 28 27  1  0  0  0  0
 28 29  1  0  0  0  0
 28 30  1  0  0  0  0
M  END
>  <MODEL>
6

>  <REMARK>
 VINA RESULT:      -8.2      2.969      5.656
  Name = 
  8 active torsions:
  status: ('A' for Active; 'I' for Inactive)
    1  A    between atoms: C_6  and  N_15
    2  A    between atoms: C_6  and  C_20
    3  A    between atoms: C_10  and  CA_23
    4  A    between atoms: C_14  and  C_25
    5  A    between atoms: N_15  and  C_19
    6  A    between atoms: C_18  and  C_19
    7  A    between atoms: C_18  and  C_21
    8  A    between atoms: C_21  and  C_24
                            x       y       z     vdW  Elec       q    Type
                         _______ _______ _______ _____ _____    ______ ____

>  <TORSDO>
F 8

$$$$
=
 OpenBabel10222417393D

 30 33  0  0  1  0  0  0  0  0999 V2000
  186.2680  178.6990  139.0350 N   0  0  0  0  0  0  0  0  0  0  0  0
  190.7520  176.9400  140.2610 C   0  0  0  0  0  2  0  0  0  0  0  0
  192.0620  177.0330  142.2780 N   0  0  0  0  0  0  0  0  0  0  0  0
  186.7810  178.2450  141.2420 C   0  0  0  0  0  0  0  0  0  0  0  0
  189.0000  177.3610  142.0000 C   0  0  0  0  0  0  0  0  0  0  0  0
  185.2520  178.9740  139.7550 N   0  0  0  0  0  0  0  0  0  0  0  0
  187.5970  177.7930  142.4100 C   0  0  0  0  0  3  0  0  0  0  0  0
  189.8020  176.9230  143.0730 O   0  0  0  0  0  0  0  0  0  0  0  0
  191.1870  176.6790  143.1700 C   0  0  0  0  0  0  0  0  0  0  0  0
  187.2790  178.2300  139.9090 C   0  0  1  0  0  3  0  0  0  0  0  0
  191.7770  177.7280  141.0370 C   0  0  1  0  0  3  0  0  0  0  0  0
  185.5360  178.7010  141.1360 C   0  0  0  0  0  0  0  0  0  0  0  0
  189.4000  177.3750  140.6920 C   0  0  0  0  0  0  0  0  0  0  0  0
  188.5010  177.8290  139.6010 C   0  0  0  0  0  3  0  0  0  0  0  0
  184.0160  179.5740  144.5010 C   0  0  0  0  0  3  0  0  0  0  0  0
  184.9570  179.3840  143.4860 C   0  0  0  0  0  3  0  0  0  0  0  0
  182.2620  178.8160  143.0150 C   0  0  0  0  0  3  0  0  0  0  0  0
  183.2060  178.6270  142.0000 C   0  0  0  0  0  3  0  0  0  0  0  0
  184.5600  178.9090  142.2260 C   0  0  0  0  0  0  0  0  0  0  0  0
  182.6690  179.2900  144.2650 C   0  0  0  0  0  3  0  0  0  0  0  0
  193.0340  177.8760  140.2400 C   0  0  0  0  0  3  0  0  0  0  0  0
  193.7850  176.9290  140.0670 O   0  0  0  0  0  0  0  0  0  0  0  0
  191.6770  175.9770  144.3850 C   0  0  0  0  0  2  0  0  0  0  0  0
  191.7360  176.9110  145.4970 N   0  0  0  0  0  2  0  0  0  0  0  0
  191.3210  176.1860  146.6860 C   0  0  0  0  0  2  0  0  0  0  0  0
  190.2050  176.9420  147.3870 C   0  0  0  0  0  2  0  0  0  0  0  0
  189.0690  177.2290  146.4190 C   0  0  0  0  0  2  0  0  0  0  0  0
  187.9140  177.9260  147.1210 C   0  0  0  0  0  3  0  0  0  0  0  0
  186.7090  177.4890  146.5720 O   0  0  0  0  0  1  0  0  0  0  0  0
  187.9360  177.6260  148.4830 O   0  0  0  0  0  1  0  0  0  0  0  0
  1  6  2  0  0  0  0
  1 10  1  0  0  0  0
  2 13  1  0  0  0  0
  2 11  1  0  0  0  0
  3  9  2  0  0  0  0
  4  7  1  0  0  0  0
  5  7  2  0  0  0  0
  5  8  1  0  0  0  0
  6 12  1  0  0  0  0
  8  9  1  0  0  0  0
  9 23  1  0  0  0  0
 10 14  1  6  0  0  0
 10  4  1  0  0  0  0
 11 21  1  6  0  0  0
 11  3  1  0  0  0  0
 12  4  2  0  0  0  0
 12 19  1  0  0  0  0
 13  5  1  0  0  0  0
 14 13  2  0  0  0  0
 16 15  2  0  0  0  0
 17 20  2  0  0  0  0
 18 19  2  0  0  0  0
 18 17  1  0  0  0  0
 19 16  1  0  0  0  0
 20 15  1  0  0  0  0
 22 21  2  0  0  0  0
 23 24  1  0  0  0  0
 24 25  1  0  0  0  0
 25 26  1  0  0  0  0
 27 28  1  0  0  0  0
 27 26  1  0  0  0  0
 28 30  1  0  0  0  0
 29 28  1  0  0  0  0
M  END
>  <MODEL>
7

>  <REMARK>
 VINA RESULT:      -8.2      2.504      5.443
  Name = 
  8 active torsions:
  status: ('A' for Active; 'I' for Inactive)
    1  A    between atoms: C_6  and  N_15
    2  A    between atoms: C_6  and  C_20
    3  A    between atoms: C_10  and  CA_23
    4  A    between atoms: C_14  and  C_25
    5  A    between atoms: N_15  and  C_19
    6  A    between atoms: C_18  and  C_19
    7  A    between atoms: C_18  and  C_21
    8  A    between atoms: C_21  and  C_24
                            x       y       z     vdW  Elec       q    Type
                         _______ _______ _______ _____ _____    ______ ____

>  <TORSDO>
F 8

$$$$
=
 OpenBabel10222417393D

 30 33  0  0  1  0  0  0  0  0999 V2000
  183.5770  178.7580  145.7420 N   0  0  0  0  0  0  0  0  0  0  0  0
  183.4510  178.6420  140.7740 C   0  0  0  0  0  2  0  0  0  0  0  0
  185.0920  179.1000  139.0750 N   0  0  0  0  0  0  0  0  0  0  0  0
  185.5160  178.4140  144.5320 C   0  0  0  0  0  0  0  0  0  0  0  0
  185.5970  178.3370  142.0290 C   0  0  0  0  0  0  0  0  0  0  0  0
  184.5480  178.6220  146.5570 N   0  0  0  0  0  2  0  0  0  0  0  0
  186.3840  178.2260  143.3290 C   0  0  0  0  0  3  0  0  0  0  0  0
  186.3780  178.1620  140.8680 O   0  0  0  0  0  0  0  0  0  0  0  0
  186.1100  178.4190  139.5090 C   0  0  0  0  0  0  0  0  0  0  0  0
  184.1130  178.6360  144.4370 C   0  0  0  0  0  0  0  0  0  0  0  0
  184.0620  179.7050  139.8960 C   0  0  1  0  0  3  0  0  0  0  0  0
  185.7720  178.4050  145.8370 C   0  0  0  0  0  0  0  0  0  0  0  0
  184.2460  178.5510  142.0240 C   0  0  0  0  0  0  0  0  0  0  0  0
  183.4720  178.7080  143.2820 C   0  0  0  0  0  3  0  0  0  0  0  0
  188.5040  178.2560  148.4650 C   0  0  0  0  0  3  0  0  0  0  0  0
  187.2580  178.4520  147.8650 C   0  0  0  0  0  3  0  0  0  0  0  0
  189.4190  177.5610  146.3350 C   0  0  0  0  0  3  0  0  0  0  0  0
  188.1710  177.7590  145.7350 C   0  0  0  0  0  3  0  0  0  0  0  0
  187.0800  178.2050  146.4940 C   0  0  0  0  0  0  0  0  0  0  0  0
  189.5840  177.8100  147.6990 C   0  0  0  0  0  3  0  0  0  0  0  0
  183.0170  180.3240  139.0230 C   0  0  0  0  0  3  0  0  0  0  0  0
  183.0700  181.5060  138.7180 O   0  0  0  0  0  0  0  0  0  0  0  0
  187.0660  177.8810  138.5070 C   0  0  0  0  0  2  0  0  0  0  0  0
  188.3320  178.5860  138.6130 N   0  0  0  0  0  2  0  0  0  0  0  0
  189.3820  177.5820  138.6060 C   0  0  0  0  0  2  0  0  0  0  0  0
  189.2170  176.6730  137.4000 C   0  0  0  0  0  2  0  0  0  0  0  0
  190.5680  176.3860  136.7640 C   0  0  0  0  0  2  0  0  0  0  0  0
  191.5890  175.9690  137.8110 C   0  0  0  0  0  3  0  0  0  0  0  0
  191.5500  174.5840  137.9680 O   0  0  0  0  0  1  0  0  0  0  0  0
  192.8680  176.3520  137.4060 O   0  0  0  0  0  1  0  0  0  0  0  0
  1  6  1  0  0  0  0
  2 13  1  0  0  0  0
  3  9  2  0  0  0  0
  3 11  1  0  0  0  0
  4 12  2  0  0  0  0
  5  7  2  0  0  0  0
  7  4  1  0  0  0  0
  8  5  1  0  0  0  0
  9  8  1  0  0  0  0
 10  4  1  0  0  0  0
 10  1  2  0  0  0  0
 11 21  1  6  0  0  0
 11  2  1  0  0  0  0
 12 19  1  0  0  0  0
 12  6  1  0  0  0  0
 13  5  1  0  0  0  0
 13 14  2  0  0  0  0
 14 10  1  0  0  0  0
 16 15  1  0  0  0  0
 17 20  1  0  0  0  0
 18 17  2  0  0  0  0
 18 19  1  0  0  0  0
 19 16  2  0  0  0  0
 20 15  2  0  0  0  0
 22 21  2  0  0  0  0
 23 24  1  0  0  0  0
 23  9  1  0  0  0  0
 25 24  1  0  0  0  0
 26 25  1  0  0  0  0
 27 26  1  0  0  0  0
 27 28  1  0  0  0  0
 28 29  1  0  0  0  0
 30 28  1  0  0  0  0
M  END
>  <MODEL>
8

>  <REMARK>
 VINA RESULT:      -8.0      3.036      6.576
  Name = 
  8 active torsions:
  status: ('A' for Active; 'I' for Inactive)
    1  A    between atoms: C_6  and  N_15
    2  A    between atoms: C_6  and  C_20
    3  A    between atoms: C_10  and  CA_23
    4  A    between atoms: C_14  and  C_25
    5  A    between atoms: N_15  and  C_19
    6  A    between atoms: C_18  and  C_19
    7  A    between atoms: C_18  and  C_21
    8  A    between atoms: C_21  and  C_24
                            x       y       z     vdW  Elec       q    Type
                         _______ _______ _______ _____ _____    ______ ____

>  <TORSDO>
F 8

$$$$
=
 OpenBabel10222417393D

 30 33  0  0  1  0  0  0  0  0999 V2000
  183.5760  178.9940  145.7950 N   0  0  0  0  0  0  0  0  0  0  0  0
  181.3040  178.8320  141.3770 C   0  0  0  0  0  2  0  0  0  0  0  0
  182.0970  178.9920  139.1110 N   0  0  0  0  0  0  0  0  0  0  0  0
  184.7330  178.3220  143.9100 C   0  0  0  0  0  0  0  0  0  0  0  0
  183.7140  178.1980  141.6250 C   0  0  0  0  0  0  0  0  0  0  0  0
  184.7740  178.7140  146.1300 N   0  0  0  0  0  2  0  0  0  0  0  0
  184.9610  177.9790  142.4740 C   0  0  0  0  0  3  0  0  0  0  0  0
  183.8850  177.8820  140.2620 O   0  0  0  0  0  0  0  0  0  0  0  0
  183.0950  178.1600  139.1280 C   0  0  0  0  0  0  0  0  0  0  0  0
  183.4730  178.7690  144.4010 C   0  0  0  0  0  0  0  0  0  0  0  0
  181.6190  179.7690  140.2380 C   0  0  1  0  0  3  0  0  0  0  0  0
  185.5230  178.2900  144.9800 C   0  0  0  0  0  0  0  0  0  0  0  0
  182.5380  178.6300  142.1760 C   0  0  0  0  0  0  0  0  0  0  0  0
  182.4140  178.9280  143.6250 C   0  0  0  0  0  3  0  0  0  0  0  0
  188.9910  177.4650  146.2770 C   0  0  0  0  0  3  0  0  0  0  0  0
  187.6480  177.8480  146.2490 C   0  0  0  0  0  3  0  0  0  0  0  0
  188.9520  177.1570  143.8770 C   0  0  0  0  0  3  0  0  0  0  0  0
  187.6080  177.5410  143.8500 C   0  0  0  0  0  3  0  0  0  0  0  0
  186.9440  177.8890  145.0350 C   0  0  0  0  0  0  0  0  0  0  0  0
  189.6430  177.1190  145.0900 C   0  0  0  0  0  3  0  0  0  0  0  0
  180.3980  180.5370  139.8420 C   0  0  0  0  0  3  0  0  0  0  0  0
  179.6190  180.0970  139.0110 O   0  0  0  0  0  0  0  0  0  0  0  0
  183.4380  177.4600  137.8630 C   0  0  0  0  0  2  0  0  0  0  0  0
  184.8080  177.7710  137.4890 N   0  0  0  0  0  2  0  0  0  0  0  0
  185.4210  176.5330  137.0430 C   0  0  0  0  0  2  0  0  0  0  0  0
  186.9210  176.5870  137.2770 C   0  0  0  0  0  2  0  0  0  0  0  0
  187.2680  177.7120  138.2370 C   0  0  0  0  0  2  0  0  0  0  0  0
  188.3770  178.5890  137.6770 C   0  0  0  0  0  3  0  0  0  0  0  0
  187.8230  179.5570  136.8400 O   0  0  0  0  0  1  0  0  0  0  0  0
  189.0600  179.2150  138.7190 O   0  0  0  0  0  1  0  0  0  0  0  0
  1  6  1  0  0  0  0
  2 13  1  0  0  0  0
  3  9  2  0  0  0  0
  3 11  1  0  0  0  0
  4 10  1  0  0  0  0
  4 12  2  0  0  0  0
  5 13  1  0  0  0  0
  5  7  2  0  0  0  0
  7  4  1  0  0  0  0
  8  5  1  0  0  0  0
  9  8  1  0  0  0  0
 10  1  2  0  0  0  0
 11 21  1  6  0  0  0
 11  2  1  0  0  0  0
 12 19  1  0  0  0  0
 12  6  1  0  0  0  0
 13 14  2  0  0  0  0
 14 10  1  0  0  0  0
 16 15  1  0  0  0  0
 17 20  1  0  0  0  0
 18 17  2  0  0  0  0
 18 19  1  0  0  0  0
 19 16  2  0  0  0  0
 20 15  2  0  0  0  0
 22 21  2  0  0  0  0
 23  9  1  0  0  0  0
 24 23  1  0  0  0  0
 25 26  1  0  0  0  0
 25 24  1  0  0  0  0
 26 27  1  0  0  0  0
 28 27  1  0  0  0  0
 28 30  1  0  0  0  0
 29 28  1  0  0  0  0
M  END
>  <MODEL>
9

>  <REMARK>
 VINA RESULT:      -7.9      3.356      7.360
  Name = 
  8 active torsions:
  status: ('A' for Active; 'I' for Inactive)
    1  A    between atoms: C_6  and  N_15
    2  A    between atoms: C_6  and  C_20
    3  A    between atoms: C_10  and  CA_23
    4  A    between atoms: C_14  and  C_25
    5  A    between atoms: N_15  and  C_19
    6  A    between atoms: C_18  and  C_19
    7  A    between atoms: C_18  and  C_21
    8  A    between atoms: C_21  and  C_24
                            x       y       z     vdW  Elec       q    Type
                         _______ _______ _______ _____ _____    ______ ____

>  <TORSDO>
F 8

$$$$
