=
 OpenBabel10222420523D

 48 53  0  0  1  0  0  0  0  0999 V2000
  189.7550  177.9900  138.9590 C   0  0  0  0  0  3  0  0  0  0  0  0
  187.1210  177.8570  138.0670 C   0  0  0  0  0  0  0  0  0  0  0  0
  181.0810  178.3060  138.9560 O   0  0  0  0  0  0  0  0  0  0  0  0
  185.7930  177.7850  137.6030 C   0  0  0  0  0  0  0  0  0  0  0  0
  184.1570  178.8810  140.9080 N   0  0  0  0  0  0  0  0  0  0  0  0
  183.3270  178.0050  137.9920 N   0  0  0  0  0  0  0  0  0  0  0  0
  189.4740  177.6170  137.6810 N   0  0  0  0  0  0  0  0  0  0  0  0
  182.0160  178.1520  140.0190 C   0  0  2  0  0  0  0  0  0  0  0  0
  184.7020  178.0880  138.4690 C   0  0  0  0  0  0  0  0  0  0  0  0
  187.3960  178.2490  139.3920 C   0  0  0  0  0  0  0  0  0  0  0  0
  185.5740  177.4320  136.2740 O   0  0  0  0  0  1  0  0  0  0  0  0
  184.9670  179.1670  142.0870 C   0  0  2  0  0  3  0  0  0  0  0  0
  188.1950  177.5450  137.2240 C   0  0  0  0  0  3  0  0  0  0  0  0
  182.7060  179.1310  140.9330 C   0  0  0  0  0  2  0  0  0  0  0  0
  185.0250  178.5160  139.8080 C   0  0  0  0  0  0  0  0  0  0  0  0
  182.3190  180.3040  138.4210 C   0  0  0  0  0  1  0  0  0  0  0  0
  186.3330  178.5710  140.2320 C   0  0  0  0  0  0  0  0  0  0  0  0
  188.7210  178.3130  139.8380 C   0  0  0  0  0  3  0  0  0  0  0  0
  186.4290  178.9900  141.6580 C   0  0  0  0  0  2  0  0  0  0  0  0
  182.3530  178.8000  138.7040 C   0  0  2  0  0  0  0  0  0  0  0  0
  182.4530  176.8280  140.1380 O   0  0  0  0  0  1  0  0  0  0  0  0
  184.6280  178.1830  143.2020 C   0  0  0  0  0  2  0  0  0  0  0  0
  185.3430  178.5490  144.4970 C   0  0  0  0  0  2  0  0  0  0  0  0
  186.2470  177.4220  144.9810 C   0  0  0  0  0  2  0  0  0  0  0  0
  186.6570  177.6280  146.4350 C   0  0  2  0  0  3  0  0  0  0  0  0
  185.9750  178.8810  146.9660 C   0  0  0  0  0  1  0  0  0  0  0  0
  188.1800  177.7560  146.5590 C   0  0  1  0  0  3  0  0  0  0  0  0
  188.6330  177.0300  147.6610 O   0  0  0  0  0  1  0  0  0  0  0  0
  188.8800  177.2230  145.3140 C   0  0  0  0  0  2  0  0  0  0  0  0
  190.2190  177.9120  145.0910 C   0  0  0  0  0  2  0  0  0  0  0  0
  191.9090  176.7080  146.5300 N   0  0  0  0  0  1  0  0  0  0  0  0
  191.3440  176.9460  145.2450 C   0  0  0  0  0  0  0  0  0  0  0  0
  191.7770  176.3200  144.2430 O   0  0  0  0  0  0  0  0  0  0  0  0
  182.9170  177.3630  136.7450 C   0  0  0  0  0  2  0  0  0  0  0  0
  181.9190  178.2310  135.9890 C   0  0  0  0  0  2  0  0  0  0  0  0
  180.9320  177.3810  135.2020 C   0  0  0  0  0  2  0  0  0  0  0  0
  179.7030  177.0440  136.0300 C   0  0  0  0  0  2  0  0  0  0  0  0
  179.6030  175.5440  136.2400 C   0  0  0  0  0  2  0  0  0  0  0  0
  179.9900  172.9260  138.2260 C   0  0  0  0  0  2  0  0  0  0  0  0
  180.3820  175.1570  137.4100 N   0  0  0  0  0  0  0  0  0  0  0  0
  182.3780  174.1150  135.7320 O   0  0  0  0  0  0  0  0  0  0  0  0
  180.6720  173.7890  137.2900 N   0  0  0  0  0  0  0  0  0  0  0  0
  179.4940  175.2590  138.5670 C   0  0  0  0  0  2  0  0  0  0  0  0
  179.3860  173.7120  140.3790 O   0  0  0  0  0  1  0  0  0  0  0  0
  181.7200  173.3060  136.4420 C   0  0  0  0  0  0  0  0  0  0  0  0
  179.1110  173.8560  139.0200 C   0  0  2  0  0  3  0  0  0  0  0  0
  183.2070  171.4130  136.9590 C   0  0  0  0  0  1  0  0  0  0  0  0
  182.0100  171.9390  136.4070 O   0  0  0  0  0  0  0  0  0  0  0  0
  1 18  1  0  0  0  0
  2 10  1  0  0  0  0
  3  8  1  0  0  0  0
  4  2  1  0  0  0  0
  4  9  2  0  0  0  0
  5 14  1  0  0  0  0
  5 12  1  0  0  0  0
  6  9  1  0  0  0  0
  6 20  1  0  0  0  0
  7  1  2  0  0  0  0
  8 21  1  1  0  0  0
  8 14  1  0  0  0  0
  9 15  1  0  0  0  0
 10 18  2  0  0  0  0
 10 17  1  0  0  0  0
 11  4  1  0  0  0  0
 12 22  1  1  0  0  0
 13  7  1  0  0  0  0
 13  2  2  0  0  0  0
 15 17  2  0  0  0  0
 15  5  1  0  0  0  0
 17 19  1  0  0  0  0
 19 12  1  0  0  0  0
 20 16  1  6  0  0  0
 20  3  1  0  0  0  0
 20  8  1  0  0  0  0
 22 23  1  0  0  0  0
 23 24  1  0  0  0  0
 24 25  1  0  0  0  0
 25 27  1  0  0  0  0
 25 26  1  6  0  0  0
 27 28  1  1  0  0  0
 29 27  1  0  0  0  0
 30 32  1  0  0  0  0
 30 29  1  0  0  0  0
 32 31  1  0  0  0  0
 33 32  2  0  0  0  0
 34  6  1  0  0  0  0
 35 34  1  0  0  0  0
 36 35  1  0  0  0  0
 36 37  1  0  0  0  0
 37 38  1  0  0  0  0
 38 40  1  0  0  0  0
 39 46  1  0  0  0  0
 40 43  1  0  0  0  0
 41 45  2  0  0  0  0
 42 40  1  0  0  0  0
 42 39  1  0  0  0  0
 43 46  1  0  0  0  0
 45 42  1  0  0  0  0
 46 44  1  1  0  0  0
 48 45  1  0  0  0  0
 48 47  1  0  0  0  0
M  END
>  <MODEL>
1

>  <REMARK>
 VINA RESULT:      -7.7      0.000      0.000
  Name = 
  15 active torsions:
  status: ('A' for Active; 'I' for Inactive)
    1  A    between atoms: C_3  and  C_5
    2  A    between atoms: C_3  and  C_29
    3  A    between atoms: C_4  and  C_9
    4  A    between atoms: C_4  and  N_13
    5  A    between atoms: C_5  and  C_45
    6  A    between atoms: C_6  and  C_20
    7  A    between atoms: C_6  and  C_31
    8  A    between atoms: C_9  and  C_23
    9  A    between atoms: O_14  and  C_43
   10  A    between atoms: N_16  and  C_32
   11  A    between atoms: C_17  and  C_38
   12  A    between atoms: C_20  and  C_29
   13  A    between atoms: C_23  and  C_46
   14  A    between atoms: C_32  and  C_46
   15  A    between atoms: C_38  and  C_45
                            x       y       z     vdW  Elec       q    Type
                         _______ _______ _______ _____ _____    ______ ____

>  <TORSDO>
F 15

$$$$
=
 OpenBabel10222420523D

 48 53  0  0  1  0  0  0  0  0999 V2000
  183.6450  178.7390  143.5930 C   0  0  0  0  0  3  0  0  0  0  0  0
  184.6340  178.5920  140.9950 C   0  0  0  0  0  0  0  0  0  0  0  0
  189.1820  177.7970  136.9750 O   0  0  0  0  0  0  0  0  0  0  0  0
  185.1200  178.5220  139.6750 C   0  0  0  0  0  0  0  0  0  0  0  0
  188.7400  177.6410  140.6340 N   0  0  0  0  0  0  0  0  0  0  0  0
  186.9990  178.1640  138.0550 N   0  0  0  0  0  0  0  0  0  0  0  0
  182.8300  178.9630  142.5280 N   0  0  0  0  0  0  0  0  0  0  0  0
  189.3990  178.1210  138.3450 C   0  0  2  0  0  0  0  0  0  0  0  0
  186.4920  178.2280  139.4200 C   0  0  0  0  0  0  0  0  0  0  0  0
  185.4900  178.3530  142.0880 C   0  0  0  0  0  0  0  0  0  0  0  0
  184.2260  178.7270  138.6280 O   0  0  0  0  0  1  0  0  0  0  0  0
  189.1410  177.5310  142.0330 C   0  0  2  0  0  3  0  0  0  0  0  0
  183.2900  178.8970  141.2500 C   0  0  0  0  0  3  0  0  0  0  0  0
  189.6920  177.2890  139.5660 C   0  0  0  0  0  2  0  0  0  0  0  0
  187.3300  177.9570  140.5630 C   0  0  0  0  0  0  0  0  0  0  0  0
  188.0400  175.8510  137.8240 C   0  0  0  0  0  1  0  0  0  0  0  0
  186.8240  178.0390  141.8400 C   0  0  0  0  0  0  0  0  0  0  0  0
  184.9910  178.4290  143.3930 C   0  0  0  0  0  3  0  0  0  0  0  0
  187.8730  177.7700  142.8620 C   0  0  0  0  0  2  0  0  0  0  0  0
  188.1910  177.3740  137.8510 C   0  0  2  0  0  0  0  0  0  0  0  0
  189.1730  179.4790  138.5990 O   0  0  0  0  0  1  0  0  0  0  0  0
  190.1860  178.5920  142.3590 C   0  0  0  0  0  2  0  0  0  0  0  0
  191.4310  177.9690  142.9780 C   0  0  0  0  0  2  0  0  0  0  0  0
  191.5000  178.2150  144.4790 C   0  0  0  0  0  2  0  0  0  0  0  0
  191.6540  176.9070  145.2480 C   0  0  2  0  0  3  0  0  0  0  0  0
  191.5910  175.7480  144.2640 C   0  0  0  0  0  1  0  0  0  0  0  0
  190.5570  176.7660  146.3090 C   0  0  1  0  0  3  0  0  0  0  0  0
  191.1070  176.9060  147.5850 O   0  0  0  0  0  1  0  0  0  0  0  0
  189.4800  177.8300  146.1320 C   0  0  0  0  0  2  0  0  0  0  0  0
  188.0980  177.2810  146.4570 C   0  0  0  0  0  2  0  0  0  0  0  0
  188.0940  178.0030  148.8760 N   0  0  0  0  0  1  0  0  0  0  0  0
  187.4830  178.0290  147.5900 C   0  0  0  0  0  0  0  0  0  0  0  0
  186.4390  178.7060  147.4050 O   0  0  0  0  0  0  0  0  0  0  0  0
  186.2810  178.6480  136.8780 C   0  0  0  0  0  2  0  0  0  0  0  0
  186.7230  177.9030  135.6260 C   0  0  0  0  0  2  0  0  0  0  0  0
  185.5310  177.3360  134.8690 C   0  0  0  0  0  2  0  0  0  0  0  0
  184.4410  176.8660  135.8200 C   0  0  0  0  0  2  0  0  0  0  0  0
  184.6270  175.3960  136.1510 C   0  0  0  0  0  2  0  0  0  0  0  0
  181.9070  173.6660  136.8950 C   0  0  0  0  0  2  0  0  0  0  0  0
  183.8310  175.0490  137.3210 N   0  0  0  0  0  0  0  0  0  0  0  0
  185.3490  172.7110  137.6590 O   0  0  0  0  0  0  0  0  0  0  0  0
  183.3300  173.7540  137.1230 N   0  0  0  0  0  0  0  0  0  0  0  0
  182.6550  175.9190  137.3100 C   0  0  0  0  0  2  0  0  0  0  0  0
  180.4290  175.2550  137.8480 O   0  0  0  0  0  1  0  0  0  0  0  0
  184.1350  172.5880  137.3350 C   0  0  0  0  0  0  0  0  0  0  0  0
  181.4380  175.0970  136.9010 C   0  0  2  0  0  3  0  0  0  0  0  0
  183.7990  170.5290  136.0280 C   0  0  0  0  0  1  0  0  0  0  0  0
  183.5700  171.3190  137.1860 O   0  0  0  0  0  0  0  0  0  0  0  0
  2 13  2  0  0  0  0
  2 10  1  0  0  0  0
  3 20  1  0  0  0  0
  3  8  1  0  0  0  0
  4  2  1  0  0  0  0
  5 12  1  0  0  0  0
  6  9  1  0  0  0  0
  7  1  2  0  0  0  0
  8 21  1  1  0  0  0
  8 14  1  0  0  0  0
  9  4  2  0  0  0  0
  9 15  1  0  0  0  0
 10 18  2  0  0  0  0
 11  4  1  0  0  0  0
 12 22  1  1  0  0  0
 12 19  1  0  0  0  0
 13  7  1  0  0  0  0
 14  5  1  0  0  0  0
 15  5  1  0  0  0  0
 15 17  2  0  0  0  0
 17 10  1  0  0  0  0
 17 19  1  0  0  0  0
 18  1  1  0  0  0  0
 20 16  1  1  0  0  0
 20  6  1  0  0  0  0
 20  8  1  0  0  0  0
 22 23  1  0  0  0  0
 23 24  1  0  0  0  0
 24 25  1  0  0  0  0
 25 26  1  6  0  0  0
 25 27  1  0  0  0  0
 27 28  1  1  0  0  0
 29 27  1  0  0  0  0
 29 30  1  0  0  0  0
 30 32  1  0  0  0  0
 32 31  1  0  0  0  0
 33 32  2  0  0  0  0
 34  6  1  0  0  0  0
 35 34  1  0  0  0  0
 36 35  1  0  0  0  0
 36 37  1  0  0  0  0
 37 38  1  0  0  0  0
 38 40  1  0  0  0  0
 39 46  1  0  0  0  0
 39 42  1  0  0  0  0
 42 40  1  0  0  0  0
 42 45  1  0  0  0  0
 43 40  1  0  0  0  0
 45 41  2  0  0  0  0
 46 43  1  0  0  0  0
 46 44  1  1  0  0  0
 47 48  1  0  0  0  0
 48 45  1  0  0  0  0
M  END
>  <MODEL>
2

>  <REMARK>
 VINA RESULT:      -7.6      2.214      4.815
  Name = 
  15 active torsions:
  status: ('A' for Active; 'I' for Inactive)
    1  A    between atoms: C_3  and  C_5
    2  A    between atoms: C_3  and  C_29
    3  A    between atoms: C_4  and  C_9
    4  A    between atoms: C_4  and  N_13
    5  A    between atoms: C_5  and  C_45
    6  A    between atoms: C_6  and  C_20
    7  A    between atoms: C_6  and  C_31
    8  A    between atoms: C_9  and  C_23
    9  A    between atoms: O_14  and  C_43
   10  A    between atoms: N_16  and  C_32
   11  A    between atoms: C_17  and  C_38
   12  A    between atoms: C_20  and  C_29
   13  A    between atoms: C_23  and  C_46
   14  A    between atoms: C_32  and  C_46
   15  A    between atoms: C_38  and  C_45
                            x       y       z     vdW  Elec       q    Type
                         _______ _______ _______ _____ _____    ______ ____

>  <TORSDO>
F 15

$$$$
=
 OpenBabel10222420523D

 48 53  0  0  1  0  0  0  0  0999 V2000
  184.3550  178.6580  144.1810 C   0  0  0  0  0  3  0  0  0  0  0  0
  185.0150  178.5490  141.4790 C   0  0  0  0  0  0  0  0  0  0  0  0
  189.0080  177.7020  136.9160 O   0  0  0  0  0  0  0  0  0  0  0  0
  185.3350  178.4990  140.1080 C   0  0  0  0  0  0  0  0  0  0  0  0
  189.0060  177.4590  140.5960 N   0  0  0  0  0  0  0  0  0  0  0  0
  186.9880  178.1180  138.2620 N   0  0  0  0  0  0  0  0  0  0  0  0
  183.4260  178.9410  143.2290 N   0  0  0  0  0  0  0  0  0  0  0  0
  189.4020  177.9800  138.2550 C   0  0  2  0  0  0  0  0  0  0  0  0
  186.6530  178.1610  139.6800 C   0  0  0  0  0  0  0  0  0  0  0  0
  185.9870  178.2480  142.4530 C   0  0  0  0  0  0  0  0  0  0  0  0
  184.3290  178.7650  139.1820 O   0  0  0  0  0  1  0  0  0  0  0  0
  189.5690  177.2950  141.9320 C   0  0  2  0  0  3  0  0  0  0  0  0
  183.7260  178.8950  141.9030 C   0  0  0  0  0  3  0  0  0  0  0  0
  189.8080  177.1040  139.4120 C   0  0  0  0  0  2  0  0  0  0  0  0
  187.6120  177.8290  140.7050 C   0  0  0  0  0  0  0  0  0  0  0  0
  187.9000  175.7760  137.8510 C   0  0  0  0  0  1  0  0  0  0  0  0
  187.2680  177.8930  142.0360 C   0  0  0  0  0  0  0  0  0  0  0  0
  185.6530  178.3050  143.8110 C   0  0  0  0  0  3  0  0  0  0  0  0
  188.4210  177.5570  142.9160 C   0  0  0  0  0  2  0  0  0  0  0  0
  188.1140  177.2910  137.8950 C   0  0  2  0  0  0  0  0  0  0  0  0
  189.2620  179.3370  138.5680 O   0  0  0  0  0  1  0  0  0  0  0  0
  190.6870  178.3080  142.1540 C   0  0  0  0  0  2  0  0  0  0  0  0
  191.7710  177.7440  143.0640 C   0  0  0  0  0  2  0  0  0  0  0  0
  191.5150  178.0840  144.5270 C   0  0  0  0  0  2  0  0  0  0  0  0
  191.7050  176.8640  145.4210 C   0  0  2  0  0  3  0  0  0  0  0  0
  191.6840  175.6120  144.5550 C   0  0  0  0  0  1  0  0  0  0  0  0
  190.6060  176.7930  146.4870 C   0  0  1  0  0  3  0  0  0  0  0  0
  191.1570  176.9900  147.7550 O   0  0  0  0  0  1  0  0  0  0  0  0
  189.5450  177.8630  146.2550 C   0  0  0  0  0  2  0  0  0  0  0  0
  188.1420  177.3080  146.4650 C   0  0  0  0  0  2  0  0  0  0  0  0
  186.2760  178.7430  147.3770 N   0  0  0  0  0  1  0  0  0  0  0  0
  187.4660  177.9940  147.6020 C   0  0  0  0  0  0  0  0  0  0  0  0
  187.9300  177.8880  148.7670 O   0  0  0  0  0  0  0  0  0  0  0  0
  186.1520  178.6620  137.1930 C   0  0  0  0  0  2  0  0  0  0  0  0
  185.7210  177.5650  136.2280 C   0  0  0  0  0  2  0  0  0  0  0  0
  184.3190  177.0670  136.5480 C   0  0  0  0  0  2  0  0  0  0  0  0
  184.3270  175.6000  136.9470 C   0  0  0  0  0  2  0  0  0  0  0  0
  183.2440  175.3270  137.9760 C   0  0  0  0  0  2  0  0  0  0  0  0
  180.1810  174.2090  138.5360 C   0  0  0  0  0  2  0  0  0  0  0  0
  181.9380  175.3280  137.3290 N   0  0  0  0  0  0  0  0  0  0  0  0
  181.2680  177.6920  138.6870 O   0  0  0  0  0  0  0  0  0  0  0  0
  180.9670  175.4050  138.3380 N   0  0  0  0  0  0  0  0  0  0  0  0
  181.7600  174.0070  136.7270 C   0  0  0  0  0  2  0  0  0  0  0  0
  179.7410  172.7370  136.7300 O   0  0  0  0  0  1  0  0  0  0  0  0
  180.6380  176.6400  138.9840 C   0  0  0  0  0  0  0  0  0  0  0  0
  180.7550  173.2190  137.5570 C   0  0  2  0  0  3  0  0  0  0  0  0
  179.7540  177.3930  141.1550 C   0  0  0  0  0  1  0  0  0  0  0  0
  179.6180  176.6740  139.9380 O   0  0  0  0  0  0  0  0  0  0  0  0
  2 13  2  0  0  0  0
  2 10  1  0  0  0  0
  3 20  1  0  0  0  0
  3  8  1  0  0  0  0
  4  2  1  0  0  0  0
  5 15  1  0  0  0  0
  5 12  1  0  0  0  0
  6  9  1  0  0  0  0
  7  1  2  0  0  0  0
  8 21  1  1  0  0  0
  8 14  1  0  0  0  0
  9  4  2  0  0  0  0
  9 15  1  0  0  0  0
 10 18  2  0  0  0  0
 11  4  1  0  0  0  0
 12 22  1  1  0  0  0
 12 19  1  0  0  0  0
 13  7  1  0  0  0  0
 14  5  1  0  0  0  0
 15 17  2  0  0  0  0
 17 10  1  0  0  0  0
 17 19  1  0  0  0  0
 18  1  1  0  0  0  0
 20 16  1  1  0  0  0
 20  8  1  0  0  0  0
 20  6  1  0  0  0  0
 22 23  1  0  0  0  0
 23 24  1  0  0  0  0
 24 25  1  0  0  0  0
 25 26  1  6  0  0  0
 25 27  1  0  0  0  0
 27 28  1  1  0  0  0
 29 30  1  0  0  0  0
 29 27  1  0  0  0  0
 30 32  1  0  0  0  0
 31 32  1  0  0  0  0
 32 33  2  0  0  0  0
 34  6  1  0  0  0  0
 35 36  1  0  0  0  0
 35 34  1  0  0  0  0
 36 37  1  0  0  0  0
 37 38  1  0  0  0  0
 40 38  1  0  0  0  0
 40 42  1  0  0  0  0
 41 45  2  0  0  0  0
 42 39  1  0  0  0  0
 42 45  1  0  0  0  0
 43 40  1  0  0  0  0
 43 46  1  0  0  0  0
 45 48  1  0  0  0  0
 46 44  1  6  0  0  0
 46 39  1  0  0  0  0
 48 47  1  0  0  0  0
M  END
>  <MODEL>
3

>  <REMARK>
 VINA RESULT:      -7.5      2.194      5.055
  Name = 
  15 active torsions:
  status: ('A' for Active; 'I' for Inactive)
    1  A    between atoms: C_3  and  C_5
    2  A    between atoms: C_3  and  C_29
    3  A    between atoms: C_4  and  C_9
    4  A    between atoms: C_4  and  N_13
    5  A    between atoms: C_5  and  C_45
    6  A    between atoms: C_6  and  C_20
    7  A    between atoms: C_6  and  C_31
    8  A    between atoms: C_9  and  C_23
    9  A    between atoms: O_14  and  C_43
   10  A    between atoms: N_16  and  C_32
   11  A    between atoms: C_17  and  C_38
   12  A    between atoms: C_20  and  C_29
   13  A    between atoms: C_23  and  C_46
   14  A    between atoms: C_32  and  C_46
   15  A    between atoms: C_38  and  C_45
                            x       y       z     vdW  Elec       q    Type
                         _______ _______ _______ _____ _____    ______ ____

>  <TORSDO>
F 15

$$$$
=
 OpenBabel10222420523D

 48 53  0  0  1  0  0  0  0  0999 V2000
  190.6420  177.9710  143.9570 C   0  0  0  0  0  3  0  0  0  0  0  0
  190.4730  177.3600  141.2460 C   0  0  0  0  0  0  0  0  0  0  0  0
  187.4080  177.0260  135.9570 O   0  0  0  0  0  0  0  0  0  0  0  0
  190.4010  177.0450  139.8740 C   0  0  0  0  0  0  0  0  0  0  0  0
  186.7840  178.2540  139.3780 N   0  0  0  0  0  0  0  0  0  0  0  0
  189.1270  176.9470  137.7180 N   0  0  0  0  0  0  0  0  0  0  0  0
  191.7000  177.4210  143.3030 N   0  0  0  0  0  0  0  0  0  0  0  0
  186.7670  177.1290  137.2240 C   0  0  2  0  0  0  0  0  0  0  0  0
  189.2050  177.2810  139.1350 C   0  0  0  0  0  0  0  0  0  0  0  0
  189.3690  177.9330  141.9080 C   0  0  0  0  0  0  0  0  0  0  0  0
  191.5320  176.5180  139.2560 O   0  0  0  0  0  1  0  0  0  0  0  0
  186.0090  178.7840  140.4960 C   0  0  2  0  0  3  0  0  0  0  0  0
  191.6410  177.1140  141.9790 C   0  0  0  0  0  3  0  0  0  0  0  0
  186.2280  178.2930  138.0150 C   0  0  0  0  0  2  0  0  0  0  0  0
  188.1080  177.8980  139.8400 C   0  0  0  0  0  0  0  0  0  0  0  0
  188.4670  179.1100  136.5460 C   0  0  0  0  0  1  0  0  0  0  0  0
  188.2090  178.1890  141.1810 C   0  0  0  0  0  0  0  0  0  0  0  0
  189.4560  178.2370  143.2710 C   0  0  0  0  0  3  0  0  0  0  0  0
  186.9460  178.7740  141.7110 C   0  0  0  0  0  2  0  0  0  0  0  0
  188.1430  177.6680  136.9440 C   0  0  2  0  0  0  0  0  0  0  0  0
  186.7550  175.9030  137.9010 O   0  0  0  0  0  1  0  0  0  0  0  0
  184.8010  177.8920  140.7620 C   0  0  0  0  0  2  0  0  0  0  0  0
  183.7840  178.5920  141.6550 C   0  0  0  0  0  2  0  0  0  0  0  0
  184.4450  179.2360  142.8670 C   0  0  0  0  0  2  0  0  0  0  0  0
  184.0220  178.5460  144.1600 C   0  0  2  0  0  3  0  0  0  0  0  0
  182.5610  178.8710  144.4350 C   0  0  0  0  0  1  0  0  0  0  0  0
  184.9000  179.0010  145.3310 C   0  0  1  0  0  3  0  0  0  0  0  0
  184.3360  178.5870  146.5390 O   0  0  0  0  0  1  0  0  0  0  0  0
  186.3020  178.4120  145.2300 C   0  0  0  0  0  2  0  0  0  0  0  0
  186.5320  177.3400  146.2860 C   0  0  0  0  0  2  0  0  0  0  0  0
  188.9480  177.1300  146.9880 N   0  0  0  0  0  1  0  0  0  0  0  0
  187.6630  177.7120  147.1820 C   0  0  0  0  0  0  0  0  0  0  0  0
  187.4900  178.5620  148.0940 O   0  0  0  0  0  0  0  0  0  0  0  0
  190.0960  176.1180  137.0050 C   0  0  0  0  0  2  0  0  0  0  0  0
  189.7240  174.6450  137.0970 C   0  0  0  0  0  2  0  0  0  0  0  0
  189.5270  174.0360  135.7170 C   0  0  0  0  0  2  0  0  0  0  0  0
  190.8380  173.9560  134.9510 C   0  0  0  0  0  2  0  0  0  0  0  0
  191.8110  173.0350  135.6660 C   0  0  0  0  0  2  0  0  0  0  0  0
  194.4750  174.1840  137.2570 C   0  0  0  0  0  2  0  0  0  0  0  0
  193.1800  173.4370  135.3690 N   0  0  0  0  0  0  0  0  0  0  0  0
  194.0600  170.8220  135.8910 O   0  0  0  0  0  0  0  0  0  0  0  0
  193.9740  173.0810  136.4700 N   0  0  0  0  0  0  0  0  0  0  0  0
  193.1980  174.8990  135.3420 C   0  0  0  0  0  2  0  0  0  0  0  0
  194.9120  176.2860  136.2520 O   0  0  0  0  0  1  0  0  0  0  0  0
  194.4230  171.7380  136.6810 C   0  0  0  0  0  0  0  0  0  0  0  0
  193.8890  175.4070  136.6020 C   0  0  2  0  0  3  0  0  0  0  0  0
  196.4580  170.6970  137.5960 C   0  0  0  0  0  1  0  0  0  0  0  0
  195.2640  171.4480  137.7580 O   0  0  0  0  0  0  0  0  0  0  0  0
  2 10  1  0  0  0  0
  2 13  1  0  0  0  0
  3 20  1  0  0  0  0
  3  8  1  0  0  0  0
  4  2  2  0  0  0  0
  5 15  1  0  0  0  0
  5 12  1  0  0  0  0
  6  9  1  0  0  0  0
  7  1  1  0  0  0  0
  8 21  1  1  0  0  0
  8 14  1  0  0  0  0
  9 15  2  0  0  0  0
  9  4  1  0  0  0  0
 10 18  1  0  0  0  0
 11  4  1  0  0  0  0
 12 22  1  1  0  0  0
 12 19  1  0  0  0  0
 13  7  2  0  0  0  0
 14  5  1  0  0  0  0
 15 17  1  0  0  0  0
 17 19  1  0  0  0  0
 17 10  2  0  0  0  0
 18  1  2  0  0  0  0
 20 16  1  6  0  0  0
 20  8  1  0  0  0  0
 20  6  1  0  0  0  0
 22 23  1  0  0  0  0
 23 24  1  0  0  0  0
 24 25  1  0  0  0  0
 25 26  1  1  0  0  0
 25 27  1  0  0  0  0
 27 28  1  1  0  0  0
 29 27  1  0  0  0  0
 29 30  1  0  0  0  0
 30 32  1  0  0  0  0
 31 32  1  0  0  0  0
 32 33  2  0  0  0  0
 34 35  1  0  0  0  0
 34  6  1  0  0  0  0
 36 35  1  0  0  0  0
 37 38  1  0  0  0  0
 37 36  1  0  0  0  0
 40 38  1  0  0  0  0
 40 42  1  0  0  0  0
 41 45  2  0  0  0  0
 42 45  1  0  0  0  0
 42 39  1  0  0  0  0
 43 40  1  0  0  0  0
 43 46  1  0  0  0  0
 45 48  1  0  0  0  0
 46 44  1  6  0  0  0
 46 39  1  0  0  0  0
 47 48  1  0  0  0  0
M  END
>  <MODEL>
4

>  <REMARK>
 VINA RESULT:      -7.3      4.192      8.050
  Name = 
  15 active torsions:
  status: ('A' for Active; 'I' for Inactive)
    1  A    between atoms: C_3  and  C_5
    2  A    between atoms: C_3  and  C_29
    3  A    between atoms: C_4  and  C_9
    4  A    between atoms: C_4  and  N_13
    5  A    between atoms: C_5  and  C_45
    6  A    between atoms: C_6  and  C_20
    7  A    between atoms: C_6  and  C_31
    8  A    between atoms: C_9  and  C_23
    9  A    between atoms: O_14  and  C_43
   10  A    between atoms: N_16  and  C_32
   11  A    between atoms: C_17  and  C_38
   12  A    between atoms: C_20  and  C_29
   13  A    between atoms: C_23  and  C_46
   14  A    between atoms: C_32  and  C_46
   15  A    between atoms: C_38  and  C_45
                            x       y       z     vdW  Elec       q    Type
                         _______ _______ _______ _____ _____    ______ ____

>  <TORSDO>
F 15

$$$$
=
 OpenBabel10222420523D

 48 53  0  0  1  0  0  0  0  0999 V2000
  184.3140  178.6500  144.1320 C   0  0  0  0  0  3  0  0  0  0  0  0
  185.0030  178.5320  141.4370 C   0  0  0  0  0  0  0  0  0  0  0  0
  189.0520  177.7080  136.9210 O   0  0  0  0  0  0  0  0  0  0  0  0
  185.3370  178.4780  140.0700 C   0  0  0  0  0  0  0  0  0  0  0  0
  189.0160  177.4870  140.6020 N   0  0  0  0  0  0  0  0  0  0  0  0
  187.0130  178.1060  138.2440 N   0  0  0  0  0  0  0  0  0  0  0  0
  183.3910  178.9160  143.1690 N   0  0  0  0  0  0  0  0  0  0  0  0
  189.4290  177.9980  138.2630 C   0  0  2  0  0  0  0  0  0  0  0  0
  186.6640  178.1540  139.6580 C   0  0  0  0  0  0  0  0  0  0  0  0
  185.9680  178.2500  142.4230 C   0  0  0  0  0  0  0  0  0  0  0  0
  184.3380  178.7260  139.1330 O   0  0  0  0  0  1  0  0  0  0  0  0
  189.5670  177.3390  141.9450 C   0  0  2  0  0  3  0  0  0  0  0  0
  183.7050  178.8650  141.8470 C   0  0  0  0  0  3  0  0  0  0  0  0
  189.8340  177.1340  139.4290 C   0  0  0  0  0  2  0  0  0  0  0  0
  187.6160  177.8400  140.6950 C   0  0  0  0  0  0  0  0  0  0  0  0
  187.9590  175.7730  137.8570 C   0  0  0  0  0  1  0  0  0  0  0  0
  187.2580  177.9080  142.0220 C   0  0  0  0  0  0  0  0  0  0  0  0
  185.6200  178.3110  143.7780 C   0  0  0  0  0  3  0  0  0  0  0  0
  188.4060  177.5920  142.9160 C   0  0  0  0  0  2  0  0  0  0  0  0
  188.1540  177.2920  137.8940 C   0  0  2  0  0  0  0  0  0  0  0  0
  189.2690  179.3560  138.5650 O   0  0  0  0  0  1  0  0  0  0  0  0
  190.6700  178.3670  142.1720 C   0  0  0  0  0  2  0  0  0  0  0  0
  191.7570  177.8180  143.0880 C   0  0  0  0  0  2  0  0  0  0  0  0
  191.4740  178.1320  144.5520 C   0  0  0  0  0  2  0  0  0  0  0  0
  191.6690  176.9000  145.4300 C   0  0  2  0  0  3  0  0  0  0  0  0
  191.6920  175.6630  144.5430 C   0  0  0  0  0  1  0  0  0  0  0  0
  190.5500  176.7910  146.4710 C   0  0  1  0  0  3  0  0  0  0  0  0
  191.0720  176.9640  147.7540 O   0  0  0  0  0  1  0  0  0  0  0  0
  189.4790  177.8510  146.2420 C   0  0  0  0  0  2  0  0  0  0  0  0
  188.0870  177.3070  146.5290 C   0  0  0  0  0  2  0  0  0  0  0  0
  186.1850  178.7540  147.3430 N   0  0  0  0  0  1  0  0  0  0  0  0
  187.4200  178.0950  147.6040 C   0  0  0  0  0  0  0  0  0  0  0  0
  187.9340  178.1550  148.7510 O   0  0  0  0  0  0  0  0  0  0  0  0
  186.1820  178.6330  137.1630 C   0  0  0  0  0  2  0  0  0  0  0  0
  185.4080  177.5150  136.4790 C   0  0  0  0  0  2  0  0  0  0  0  0
  185.8850  177.3060  135.0490 C   0  0  0  0  0  2  0  0  0  0  0  0
  185.6740  175.8710  134.5950 C   0  0  0  0  0  2  0  0  0  0  0  0
  185.2240  175.0090  135.7610 C   0  0  0  0  0  2  0  0  0  0  0  0
  183.0610  172.8480  137.0250 C   0  0  0  0  0  2  0  0  0  0  0  0
  184.2720  174.0080  135.2970 N   0  0  0  0  0  0  0  0  0  0  0  0
  182.2430  175.9500  135.2780 O   0  0  0  0  0  0  0  0  0  0  0  0
  183.1850  174.0160  136.1840 N   0  0  0  0  0  0  0  0  0  0  0  0
  184.9040  172.7020  135.4790 C   0  0  0  0  0  2  0  0  0  0  0  0
  183.8210  170.7320  136.2750 O   0  0  0  0  0  1  0  0  0  0  0  0
  182.1580  175.0120  136.1180 C   0  0  0  0  0  0  0  0  0  0  0  0
  184.2510  171.9990  136.6630 C   0  0  2  0  0  3  0  0  0  0  0  0
  180.5210  176.0930  137.6060 C   0  0  0  0  0  1  0  0  0  0  0  0
  181.0630  174.9380  136.9840 O   0  0  0  0  0  0  0  0  0  0  0  0
  2 13  2  0  0  0  0
  2 10  1  0  0  0  0
  3 20  1  0  0  0  0
  3  8  1  0  0  0  0
  4  2  1  0  0  0  0
  5 15  1  0  0  0  0
  5 12  1  0  0  0  0
  6  9  1  0  0  0  0
  7  1  2  0  0  0  0
  8 21  1  1  0  0  0
  8 14  1  0  0  0  0
  9  4  2  0  0  0  0
  9 15  1  0  0  0  0
 10 18  2  0  0  0  0
 11  4  1  0  0  0  0
 12 22  1  1  0  0  0
 12 19  1  0  0  0  0
 13  7  1  0  0  0  0
 14  5  1  0  0  0  0
 15 17  2  0  0  0  0
 17 10  1  0  0  0  0
 17 19  1  0  0  0  0
 18  1  1  0  0  0  0
 20 16  1  1  0  0  0
 20  6  1  0  0  0  0
 20  8  1  0  0  0  0
 22 23  1  0  0  0  0
 23 24  1  0  0  0  0
 24 25  1  0  0  0  0
 25 26  1  6  0  0  0
 25 27  1  0  0  0  0
 27 28  1  1  0  0  0
 29 27  1  0  0  0  0
 29 30  1  0  0  0  0
 30 32  1  0  0  0  0
 31 32  1  0  0  0  0
 32 33  2  0  0  0  0
 34  6  1  0  0  0  0
 35 34  1  0  0  0  0
 36 35  1  0  0  0  0
 37 36  1  0  0  0  0
 37 38  1  0  0  0  0
 40 43  1  0  0  0  0
 40 38  1  0  0  0  0
 40 42  1  0  0  0  0
 41 45  2  0  0  0  0
 42 39  1  0  0  0  0
 43 46  1  0  0  0  0
 45 42  1  0  0  0  0
 45 48  1  0  0  0  0
 46 44  1  6  0  0  0
 46 39  1  0  0  0  0
 48 47  1  0  0  0  0
M  END
>  <MODEL>
5

>  <REMARK>
 VINA RESULT:      -7.3      2.370      5.192
  Name = 
  15 active torsions:
  status: ('A' for Active; 'I' for Inactive)
    1  A    between atoms: C_3  and  C_5
    2  A    between atoms: C_3  and  C_29
    3  A    between atoms: C_4  and  C_9
    4  A    between atoms: C_4  and  N_13
    5  A    between atoms: C_5  and  C_45
    6  A    between atoms: C_6  and  C_20
    7  A    between atoms: C_6  and  C_31
    8  A    between atoms: C_9  and  C_23
    9  A    between atoms: O_14  and  C_43
   10  A    between atoms: N_16  and  C_32
   11  A    between atoms: C_17  and  C_38
   12  A    between atoms: C_20  and  C_29
   13  A    between atoms: C_23  and  C_46
   14  A    between atoms: C_32  and  C_46
   15  A    between atoms: C_38  and  C_45
                            x       y       z     vdW  Elec       q    Type
                         _______ _______ _______ _____ _____    ______ ____

>  <TORSDO>
F 15

$$$$
=
 OpenBabel10222420523D

 48 53  0  0  1  0  0  0  0  0999 V2000
  191.3400  177.7680  142.8220 C   0  0  0  0  0  3  0  0  0  0  0  0
  189.3460  177.8510  140.8820 C   0  0  0  0  0  0  0  0  0  0  0  0
  187.2080  176.6710  135.2680 O   0  0  0  0  0  0  0  0  0  0  0  0
  188.3280  177.9020  139.9090 C   0  0  0  0  0  0  0  0  0  0  0  0
  190.2650  175.9670  137.2070 N   0  0  0  0  0  0  0  0  0  0  0  0
  187.4720  177.3790  137.6120 N   0  0  0  0  0  0  0  0  0  0  0  0
  190.1540  178.3830  143.0740 N   0  0  0  0  0  0  0  0  0  0  0  0
  188.5940  176.6730  135.5900 C   0  0  2  0  0  0  0  0  0  0  0  0
  188.5210  177.3190  138.6220 C   0  0  0  0  0  0  0  0  0  0  0  0
  190.5680  177.2060  140.6070 C   0  0  0  0  0  0  0  0  0  0  0  0
  187.1230  178.5150  140.2430 O   0  0  0  0  0  1  0  0  0  0  0  0
  191.6280  175.5050  137.4460 C   0  0  2  0  0  3  0  0  0  0  0  0
  189.1650  178.4360  142.1420 C   0  0  0  0  0  3  0  0  0  0  0  0
  189.5660  175.5850  135.9680 C   0  0  0  0  0  2  0  0  0  0  0  0
  189.7730  176.6400  138.3900 C   0  0  0  0  0  0  0  0  0  0  0  0
  187.0230  174.9590  136.9550 C   0  0  0  0  0  1  0  0  0  0  0  0
  190.7490  176.6130  139.3600 C   0  0  0  0  0  0  0  0  0  0  0  0
  191.5700  177.1670  141.5830 C   0  0  0  0  0  3  0  0  0  0  0  0
  191.9700  175.9040  138.8880 C   0  0  0  0  0  2  0  0  0  0  0  0
  187.5130  176.3620  136.5860 C   0  0  2  0  0  0  0  0  0  0  0  0
  189.1050  177.9740  135.6800 O   0  0  0  0  0  1  0  0  0  0  0  0
  192.5860  176.1860  136.4760 C   0  0  0  0  0  2  0  0  0  0  0  0
  193.4090  175.1630  135.7020 C   0  0  0  0  0  2  0  0  0  0  0  0
  194.7330  174.8620  136.3930 C   0  0  0  0  0  2  0  0  0  0  0  0
  194.8530  173.3820  136.7370 C   0  0  2  0  0  3  0  0  0  0  0  0
  193.5670  172.6760  136.3310 C   0  0  0  0  0  1  0  0  0  0  0  0
  195.1170  173.1900  138.2350 C   0  0  1  0  0  3  0  0  0  0  0  0
  195.1930  171.8290  138.5360 O   0  0  0  0  0  1  0  0  0  0  0  0
  196.4280  173.8480  138.6510 C   0  0  0  0  0  2  0  0  0  0  0  0
  196.2440  174.7210  139.8840 C   0  0  0  0  0  2  0  0  0  0  0  0
  198.4920  175.7330  139.3400 N   0  0  0  0  0  1  0  0  0  0  0  0
  197.5430  175.3120  140.3140 C   0  0  0  0  0  0  0  0  0  0  0  0
  197.7900  175.4650  141.5390 O   0  0  0  0  0  0  0  0  0  0  0  0
  186.2920  178.2370  137.6890 C   0  0  0  0  0  2  0  0  0  0  0  0
  185.0220  177.4060  137.8160 C   0  0  0  0  0  2  0  0  0  0  0  0
  183.7940  178.2920  137.9680 C   0  0  0  0  0  2  0  0  0  0  0  0
  182.9920  177.9240  139.2060 C   0  0  0  0  0  2  0  0  0  0  0  0
  183.3930  178.8040  140.3760 C   0  0  0  0  0  2  0  0  0  0  0  0
  183.0370  179.4090  143.6090 C   0  0  0  0  0  2  0  0  0  0  0  0
  183.2460  178.0650  141.6230 N   0  0  0  0  0  0  0  0  0  0  0  0
  180.4530  178.1630  141.3480 O   0  0  0  0  0  0  0  0  0  0  0  0
  182.4010  178.8100  142.4590 N   0  0  0  0  0  0  0  0  0  0  0  0
  184.5500  178.0810  142.2850 C   0  0  0  0  0  2  0  0  0  0  0  0
  184.9200  178.3850  144.6210 O   0  0  0  0  0  1  0  0  0  0  0  0
  180.9780  178.8070  142.2980 C   0  0  0  0  0  0  0  0  0  0  0  0
  184.4900  179.0390  143.4680 C   0  0  2  0  0  3  0  0  0  0  0  0
  179.5330  178.8800  144.2900 C   0  0  0  0  0  1  0  0  0  0  0  0
  180.1770  179.5170  143.1970 O   0  0  0  0  0  0  0  0  0  0  0  0
  1  7  1  0  0  0  0
  2 13  1  0  0  0  0
  3  8  1  0  0  0  0
  3 20  1  0  0  0  0
  4 11  1  0  0  0  0
  4  2  2  0  0  0  0
  5 12  1  0  0  0  0
  5 15  1  0  0  0  0
  6 34  1  0  0  0  0
  6  9  1  0  0  0  0
  8 21  1  1  0  0  0
  8 14  1  0  0  0  0
  8 20  1  0  0  0  0
  9  4  1  0  0  0  0
 10  2  1  0  0  0  0
 10 18  1  0  0  0  0
 12 22  1  6  0  0  0
 12 19  1  0  0  0  0
 13  7  2  0  0  0  0
 14  5  1  0  0  0  0
 15  9  2  0  0  0  0
 15 17  1  0  0  0  0
 17 10  2  0  0  0  0
 18  1  2  0  0  0  0
 19 17  1  0  0  0  0
 20 16  1  1  0  0  0
 20  6  1  0  0  0  0
 23 24  1  0  0  0  0
 23 22  1  0  0  0  0
 24 25  1  0  0  0  0
 25 26  1  1  0  0  0
 25 27  1  0  0  0  0
 27 28  1  6  0  0  0
 27 29  1  0  0  0  0
 29 30  1  0  0  0  0
 30 32  1  0  0  0  0
 31 32  1  0  0  0  0
 32 33  2  0  0  0  0
 34 35  1  0  0  0  0
 35 36  1  0  0  0  0
 36 37  1  0  0  0  0
 37 38  1  0  0  0  0
 38 40  1  0  0  0  0
 40 43  1  0  0  0  0
 40 42  1  0  0  0  0
 41 45  2  0  0  0  0
 42 39  1  0  0  0  0
 43 46  1  0  0  0  0
 45 42  1  0  0  0  0
 45 48  1  0  0  0  0
 46 39  1  0  0  0  0
 46 44  1  1  0  0  0
 48 47  1  0  0  0  0
M  END
>  <MODEL>
6

>  <REMARK>
 VINA RESULT:      -7.1      4.228      8.011
  Name = 
  15 active torsions:
  status: ('A' for Active; 'I' for Inactive)
    1  A    between atoms: C_3  and  C_5
    2  A    between atoms: C_3  and  C_29
    3  A    between atoms: C_4  and  C_9
    4  A    between atoms: C_4  and  N_13
    5  A    between atoms: C_5  and  C_45
    6  A    between atoms: C_6  and  C_20
    7  A    between atoms: C_6  and  C_31
    8  A    between atoms: C_9  and  C_23
    9  A    between atoms: O_14  and  C_43
   10  A    between atoms: N_16  and  C_32
   11  A    between atoms: C_17  and  C_38
   12  A    between atoms: C_20  and  C_29
   13  A    between atoms: C_23  and  C_46
   14  A    between atoms: C_32  and  C_46
   15  A    between atoms: C_38  and  C_45
                            x       y       z     vdW  Elec       q    Type
                         _______ _______ _______ _____ _____    ______ ____

>  <TORSDO>
F 15

$$$$
=
 OpenBabel10222420523D

 48 53  0  0  1  0  0  0  0  0999 V2000
  190.6770  178.0110  143.6260 C   0  0  0  0  0  3  0  0  0  0  0  0
  190.3530  177.3560  140.9400 C   0  0  0  0  0  0  0  0  0  0  0  0
  186.9930  176.9490  135.8380 O   0  0  0  0  0  0  0  0  0  0  0  0
  190.2030  177.0180  139.5800 C   0  0  0  0  0  0  0  0  0  0  0  0
  186.5680  178.2380  139.2680 N   0  0  0  0  0  0  0  0  0  0  0  0
  188.8090  176.8910  137.5010 N   0  0  0  0  0  0  0  0  0  0  0  0
  191.6940  177.4460  142.9230 N   0  0  0  0  0  0  0  0  0  0  0  0
  186.4260  177.0770  137.1380 C   0  0  2  0  0  0  0  0  0  0  0  0
  188.9680  177.2490  138.9050 C   0  0  0  0  0  0  0  0  0  0  0  0
  189.2910  177.9460  141.6530 C   0  0  0  0  0  0  0  0  0  0  0  0
  191.2950  176.4750  138.9090 O   0  0  0  0  0  1  0  0  0  0  0  0
  185.8600  178.7900  140.4180 C   0  0  2  0  0  3  0  0  0  0  0  0
  191.5590  177.1170  141.6110 C   0  0  0  0  0  3  0  0  0  0  0  0
  185.9370  178.2570  137.9370 C   0  0  0  0  0  2  0  0  0  0  0  0
  187.9150  177.8830  139.6600 C   0  0  0  0  0  0  0  0  0  0  0  0
  188.0930  179.0370  136.3310 C   0  0  0  0  0  1  0  0  0  0  0  0
  188.0930  178.1960  140.9880 C   0  0  0  0  0  0  0  0  0  0  0  0
  189.4550  178.2730  143.0040 C   0  0  0  0  0  3  0  0  0  0  0  0
  186.8640  178.7960  141.5780 C   0  0  0  0  0  2  0  0  0  0  0  0
  187.7850  177.6040  136.7720 C   0  0  2  0  0  0  0  0  0  0  0  0
  186.4460  175.8630  137.8350 O   0  0  0  0  0  1  0  0  0  0  0  0
  184.6650  177.9100  140.7660 C   0  0  0  0  0  2  0  0  0  0  0  0
  183.9160  178.4500  141.9780 C   0  0  0  0  0  2  0  0  0  0  0  0
  184.8630  178.8110  143.1140 C   0  0  0  0  0  2  0  0  0  0  0  0
  184.2140  178.5740  144.4740 C   0  0  2  0  0  3  0  0  0  0  0  0
  182.9160  179.3660  144.5430 C   0  0  0  0  0  1  0  0  0  0  0  0
  185.1560  178.9920  145.6080 C   0  0  1  0  0  3  0  0  0  0  0  0
  184.6110  178.6270  146.8400 O   0  0  0  0  0  1  0  0  0  0  0  0
  186.5170  178.3200  145.4690 C   0  0  0  0  0  2  0  0  0  0  0  0
  186.8090  177.4060  146.6510 C   0  0  0  0  0  2  0  0  0  0  0  0
  188.0150  177.9700  148.7950 N   0  0  0  0  0  1  0  0  0  0  0  0
  188.0320  177.8520  147.3770 C   0  0  0  0  0  0  0  0  0  0  0  0
  189.0880  178.0980  146.7380 O   0  0  0  0  0  0  0  0  0  0  0  0
  189.7330  176.0450  136.7490 C   0  0  0  0  0  2  0  0  0  0  0  0
  189.3070  174.5840  136.8130 C   0  0  0  0  0  2  0  0  0  0  0  0
  190.4120  173.6650  136.3120 C   0  0  0  0  0  2  0  0  0  0  0  0
  191.7320  173.9480  137.0120 C   0  0  0  0  0  2  0  0  0  0  0  0
  192.8670  173.9810  136.0030 C   0  0  0  0  0  2  0  0  0  0  0  0
  196.0950  173.8810  135.2860 C   0  0  0  0  0  2  0  0  0  0  0  0
  194.1460  173.9340  136.6990 N   0  0  0  0  0  0  0  0  0  0  0  0
  194.2750  176.7390  136.6500 O   0  0  0  0  0  0  0  0  0  0  0  0
  195.0700  174.6630  135.9360 N   0  0  0  0  0  0  0  0  0  0  0  0
  194.6120  172.5490  136.6410 C   0  0  0  0  0  2  0  0  0  0  0  0
  196.8590  171.8520  136.2460 O   0  0  0  0  0  1  0  0  0  0  0  0
  195.1170  176.0950  135.9640 C   0  0  0  0  0  0  0  0  0  0  0  0
  195.7580  172.4560  135.6410 C   0  0  2  0  0  3  0  0  0  0  0  0
  196.0080  178.1630  134.9690 C   0  0  0  0  0  1  0  0  0  0  0  0
  196.0970  176.7710  135.2340 O   0  0  0  0  0  0  0  0  0  0  0  0
  2 13  2  0  0  0  0
  2 10  1  0  0  0  0
  3 20  1  0  0  0  0
  3  8  1  0  0  0  0
  4  2  1  0  0  0  0
  5 15  1  0  0  0  0
  5 12  1  0  0  0  0
  6  9  1  0  0  0  0
  7  1  2  0  0  0  0
  8 21  1  1  0  0  0
  8 14  1  0  0  0  0
  9  4  2  0  0  0  0
  9 15  1  0  0  0  0
 10 18  2  0  0  0  0
 11  4  1  0  0  0  0
 12 22  1  1  0  0  0
 12 19  1  0  0  0  0
 13  7  1  0  0  0  0
 14  5  1  0  0  0  0
 15 17  2  0  0  0  0
 17 19  1  0  0  0  0
 17 10  1  0  0  0  0
 18  1  1  0  0  0  0
 20 16  1  6  0  0  0
 20  8  1  0  0  0  0
 20  6  1  0  0  0  0
 22 23  1  0  0  0  0
 23 24  1  0  0  0  0
 24 25  1  0  0  0  0
 25 26  1  6  0  0  0
 25 27  1  0  0  0  0
 27 28  1  1  0  0  0
 29 27  1  0  0  0  0
 29 30  1  0  0  0  0
 30 32  1  0  0  0  0
 32 31  1  0  0  0  0
 33 32  2  0  0  0  0
 34 35  1  0  0  0  0
 34  6  1  0  0  0  0
 36 35  1  0  0  0  0
 36 37  1  0  0  0  0
 38 40  1  0  0  0  0
 38 37  1  0  0  0  0
 39 46  1  0  0  0  0
 39 42  1  0  0  0  0
 42 45  1  0  0  0  0
 42 40  1  0  0  0  0
 43 40  1  0  0  0  0
 45 41  2  0  0  0  0
 46 44  1  1  0  0  0
 46 43  1  0  0  0  0
 47 48  1  0  0  0  0
 48 45  1  0  0  0  0
M  END
>  <MODEL>
7

>  <REMARK>
 VINA RESULT:      -7.0      4.345      8.498
  Name = 
  15 active torsions:
  status: ('A' for Active; 'I' for Inactive)
    1  A    between atoms: C_3  and  C_5
    2  A    between atoms: C_3  and  C_29
    3  A    between atoms: C_4  and  C_9
    4  A    between atoms: C_4  and  N_13
    5  A    between atoms: C_5  and  C_45
    6  A    between atoms: C_6  and  C_20
    7  A    between atoms: C_6  and  C_31
    8  A    between atoms: C_9  and  C_23
    9  A    between atoms: O_14  and  C_43
   10  A    between atoms: N_16  and  C_32
   11  A    between atoms: C_17  and  C_38
   12  A    between atoms: C_20  and  C_29
   13  A    between atoms: C_23  and  C_46
   14  A    between atoms: C_32  and  C_46
   15  A    between atoms: C_38  and  C_45
                            x       y       z     vdW  Elec       q    Type
                         _______ _______ _______ _____ _____    ______ ____

>  <TORSDO>
F 15

$$$$
=
 OpenBabel10222420523D

 48 53  0  0  1  0  0  0  0  0999 V2000
  181.7110  178.6000  141.6940 C   0  0  0  0  0  3  0  0  0  0  0  0
  184.3670  178.6240  140.8620 C   0  0  0  0  0  0  0  0  0  0  0  0
  188.7450  177.5800  136.7110 O   0  0  0  0  0  0  0  0  0  0  0  0
  185.7160  178.6410  140.4540 C   0  0  0  0  0  0  0  0  0  0  0  0
  185.0670  177.3600  136.8860 N   0  0  0  0  0  0  0  0  0  0  0  0
  187.4810  178.2280  138.7230 N   0  0  0  0  0  0  0  0  0  0  0  0
  182.6980  179.0020  142.5390 N   0  0  0  0  0  0  0  0  0  0  0  0
  187.4560  176.9780  136.6540 C   0  0  2  0  0  0  0  0  0  0  0  0
  186.0850  178.2200  139.1430 C   0  0  0  0  0  0  0  0  0  0  0  0
  183.3560  178.2100  139.9730 C   0  0  0  0  0  0  0  0  0  0  0  0
  186.6740  179.0970  141.3550 O   0  0  0  0  0  1  0  0  0  0  0  0
  183.7180  177.0230  136.4420 C   0  0  2  0  0  3  0  0  0  0  0  0
  184.0030  179.0220  142.1550 C   0  0  0  0  0  3  0  0  0  0  0  0
  186.1850  177.3320  135.9260 C   0  0  0  0  0  2  0  0  0  0  0  0
  185.0180  177.8330  138.2520 C   0  0  0  0  0  0  0  0  0  0  0  0
  187.5510  179.6730  136.6260 C   0  0  0  0  0  1  0  0  0  0  0  0
  183.7110  177.8240  138.6830 C   0  0  0  0  0  0  0  0  0  0  0  0
  182.0210  178.1970  140.3950 C   0  0  0  0  0  3  0  0  0  0  0  0
  182.7870  177.3460  137.6180 C   0  0  0  0  0  2  0  0  0  0  0  0
  187.7210  178.3090  137.3010 C   0  0  2  0  0  0  0  0  0  0  0  0
  187.3400  175.9120  137.5540 O   0  0  0  0  0  1  0  0  0  0  0  0
  183.6370  175.5390  136.1050 C   0  0  0  0  0  2  0  0  0  0  0  0
  182.2380  174.9900  136.3600 C   0  0  0  0  0  2  0  0  0  0  0  0
  181.7730  174.0800  135.2300 C   0  0  0  0  0  2  0  0  0  0  0  0
  180.5920  173.2180  135.6640 C   0  0  2  0  0  3  0  0  0  0  0  0
  179.7140  174.0270  136.6070 C   0  0  0  0  0  1  0  0  0  0  0  0
  181.0770  171.9370  136.3530 C   0  0  1  0  0  3  0  0  0  0  0  0
  180.1130  170.9350  136.2310 O   0  0  0  0  0  1  0  0  0  0  0  0
  182.3740  171.4340  135.7300 C   0  0  0  0  0  2  0  0  0  0  0  0
  183.4080  171.0960  136.7950 C   0  0  0  0  0  2  0  0  0  0  0  0
  185.2580  172.3440  135.6150 N   0  0  0  0  0  1  0  0  0  0  0  0
  184.5100  172.0990  136.8010 C   0  0  0  0  0  0  0  0  0  0  0  0
  184.7620  172.7510  137.8480 O   0  0  0  0  0  0  0  0  0  0  0  0
  188.6200  178.3780  139.6260 C   0  0  0  0  0  2  0  0  0  0  0  0
  189.0480  177.0300  140.1900 C   0  0  0  0  0  2  0  0  0  0  0  0
  189.4440  177.1430  141.6550 C   0  0  0  0  0  2  0  0  0  0  0  0
  188.3000  176.7460  142.5730 C   0  0  0  0  0  2  0  0  0  0  0  0
  188.8280  176.3970  143.9540 C   0  0  0  0  0  2  0  0  0  0  0  0
  188.8520  177.2410  147.1530 C   0  0  0  0  0  2  0  0  0  0  0  0
  188.8990  177.6010  144.7720 N   0  0  0  0  0  0  0  0  0  0  0  0
  191.6970  177.3700  144.8650 O   0  0  0  0  0  0  0  0  0  0  0  0
  189.6220  177.2810  145.9310 N   0  0  0  0  0  0  0  0  0  0  0  0
  187.5410  177.8830  145.2350 C   0  0  0  0  0  2  0  0  0  0  0  0
  186.9410  178.6180  147.4230 O   0  0  0  0  0  1  0  0  0  0  0  0
  191.0530  177.2030  145.9380 C   0  0  0  0  0  0  0  0  0  0  0  0
  187.4400  177.5270  146.7130 C   0  0  2  0  0  3  0  0  0  0  0  0
  192.2370  175.6540  147.4410 C   0  0  0  0  0  1  0  0  0  0  0  0
  191.7280  176.9430  147.1330 O   0  0  0  0  0  0  0  0  0  0  0  0
  1  7  1  0  0  0  0
  2 13  1  0  0  0  0
  3 20  1  0  0  0  0
  4  2  1  0  0  0  0
  4 11  1  0  0  0  0
  5 15  1  0  0  0  0
  6  9  1  0  0  0  0
  6 34  1  0  0  0  0
  8  3  1  0  0  0  0
  8 20  1  0  0  0  0
  8 21  1  1  0  0  0
  9  4  2  0  0  0  0
 10 18  1  0  0  0  0
 10  2  2  0  0  0  0
 12 22  1  1  0  0  0
 12  5  1  0  0  0  0
 12 19  1  0  0  0  0
 13  7  2  0  0  0  0
 14  8  1  0  0  0  0
 14  5  1  0  0  0  0
 15 17  2  0  0  0  0
 15  9  1  0  0  0  0
 17 10  1  0  0  0  0
 18  1  2  0  0  0  0
 19 17  1  0  0  0  0
 20 16  1  6  0  0  0
 20  6  1  0  0  0  0
 22 23  1  0  0  0  0
 24 25  1  0  0  0  0
 24 23  1  0  0  0  0
 25 27  1  0  0  0  0
 25 26  1  1  0  0  0
 27 28  1  6  0  0  0
 29 27  1  0  0  0  0
 29 30  1  0  0  0  0
 30 32  1  0  0  0  0
 31 32  1  0  0  0  0
 32 33  2  0  0  0  0
 34 35  1  0  0  0  0
 35 36  1  0  0  0  0
 36 37  1  0  0  0  0
 37 38  1  0  0  0  0
 38 40  1  0  0  0  0
 40 43  1  0  0  0  0
 40 42  1  0  0  0  0
 41 45  2  0  0  0  0
 42 45  1  0  0  0  0
 42 39  1  0  0  0  0
 43 46  1  0  0  0  0
 45 48  1  0  0  0  0
 46 39  1  0  0  0  0
 46 44  1  1  0  0  0
 48 47  1  0  0  0  0
M  END
>  <MODEL>
8

>  <REMARK>
 VINA RESULT:      -6.9      2.410      9.831
  Name = 
  15 active torsions:
  status: ('A' for Active; 'I' for Inactive)
    1  A    between atoms: C_3  and  C_5
    2  A    between atoms: C_3  and  C_29
    3  A    between atoms: C_4  and  C_9
    4  A    between atoms: C_4  and  N_13
    5  A    between atoms: C_5  and  C_45
    6  A    between atoms: C_6  and  C_20
    7  A    between atoms: C_6  and  C_31
    8  A    between atoms: C_9  and  C_23
    9  A    between atoms: O_14  and  C_43
   10  A    between atoms: N_16  and  C_32
   11  A    between atoms: C_17  and  C_38
   12  A    between atoms: C_20  and  C_29
   13  A    between atoms: C_23  and  C_46
   14  A    between atoms: C_32  and  C_46
   15  A    between atoms: C_38  and  C_45
                            x       y       z     vdW  Elec       q    Type
                         _______ _______ _______ _____ _____    ______ ____

>  <TORSDO>
F 15

$$$$
=
 OpenBabel10222420523D

 48 53  0  0  1  0  0  0  0  0999 V2000
  183.1530  178.0560  138.3730 C   0  0  0  0  0  3  0  0  0  0  0  0
  185.9170  177.8470  138.1150 C   0  0  0  0  0  0  0  0  0  0  0  0
  190.9630  175.0420  136.0780 O   0  0  0  0  0  0  0  0  0  0  0  0
  187.3170  177.7530  137.9940 C   0  0  0  0  0  0  0  0  0  0  0  0
  187.3130  174.6250  135.7550 N   0  0  0  0  0  0  0  0  0  0  0  0
  189.3630  176.5960  137.1220 N   0  0  0  0  0  0  0  0  0  0  0  0
  183.9750  178.9530  138.9800 N   0  0  0  0  0  0  0  0  0  0  0  0
  189.6960  174.3990  136.1710 C   0  0  2  0  0  0  0  0  0  0  0  0
  187.9130  176.7000  137.2400 C   0  0  0  0  0  0  0  0  0  0  0  0
  185.0780  176.9120  137.4770 C   0  0  0  0  0  0  0  0  0  0  0  0
  188.1020  178.7240  138.6110 O   0  0  0  0  0  1  0  0  0  0  0  0
  186.0620  173.9750  135.3760 C   0  0  2  0  0  3  0  0  0  0  0  0
  185.3280  178.8710  138.8690 C   0  0  0  0  0  3  0  0  0  0  0  0
  188.5870  174.1620  135.1790 C   0  0  0  0  0  2  0  0  0  0  0  0
  187.0220  175.7820  136.5750 C   0  0  0  0  0  0  0  0  0  0  0  0
  189.8420  176.6010  134.6200 C   0  0  0  0  0  1  0  0  0  0  0  0
  185.6580  175.8990  136.7180 C   0  0  0  0  0  0  0  0  0  0  0  0
  183.6890  177.0180  137.6090 C   0  0  0  0  0  3  0  0  0  0  0  0
  184.9370  174.8200  135.9870 C   0  0  0  0  0  2  0  0  0  0  0  0
  189.8610  175.8800  135.9710 C   0  0  2  0  0  0  0  0  0  0  0  0
  189.3990  174.0240  137.4860 O   0  0  0  0  0  1  0  0  0  0  0  0
  186.0180  172.5600  135.9420 C   0  0  0  0  0  2  0  0  0  0  0  0
  184.6730  172.2680  136.5950 C   0  0  0  0  0  2  0  0  0  0  0  0
  183.7620  171.4630  135.6770 C   0  0  0  0  0  2  0  0  0  0  0  0
  182.4470  171.1170  136.3670 C   0  0  2  0  0  3  0  0  0  0  0  0
  181.6140  170.2520  135.4330 C   0  0  0  0  0  1  0  0  0  0  0  0
  181.6790  172.3890  136.7440 C   0  0  1  0  0  3  0  0  0  0  0  0
  181.2480  173.0470  135.5900 O   0  0  0  0  0  1  0  0  0  0  0  0
  180.4560  172.0630  137.5930 C   0  0  0  0  0  2  0  0  0  0  0  0
  179.5230  173.2600  137.7080 C   0  0  0  0  0  2  0  0  0  0  0  0
  180.6310  175.2770  138.7440 N   0  0  0  0  0  1  0  0  0  0  0  0
  179.8650  174.0880  138.8990 C   0  0  0  0  0  0  0  0  0  0  0  0
  179.4530  173.7500  140.0390 O   0  0  0  0  0  0  0  0  0  0  0  0
  190.3190  177.3340  137.9440 C   0  0  0  0  0  2  0  0  0  0  0  0
  190.7920  176.4890  139.1190 C   0  0  0  0  0  2  0  0  0  0  0  0
  190.9030  177.3200  140.3890 C   0  0  0  0  0  2  0  0  0  0  0  0
  189.6900  177.1320  141.2860 C   0  0  0  0  0  2  0  0  0  0  0  0
  189.9510  177.7300  142.6570 C   0  0  0  0  0  2  0  0  0  0  0  0
  190.1900  177.4200  145.9430 C   0  0  0  0  0  2  0  0  0  0  0  0
  189.9030  176.6820  143.6690 N   0  0  0  0  0  0  0  0  0  0  0  0
  187.1400  177.0930  143.9610 O   0  0  0  0  0  0  0  0  0  0  0  0
  189.3070  177.2280  144.8160 N   0  0  0  0  0  0  0  0  0  0  0  0
  191.2840  176.3970  144.0540 C   0  0  0  0  0  2  0  0  0  0  0  0
  192.0540  175.9930  146.2750 O   0  0  0  0  0  1  0  0  0  0  0  0
  187.8890  177.3930  144.9310 C   0  0  0  0  0  0  0  0  0  0  0  0
  191.5400  176.9810  145.4380 C   0  0  2  0  0  3  0  0  0  0  0  0
  185.9870  178.2970  146.2060 C   0  0  0  0  0  1  0  0  0  0  0  0
  187.3420  177.8830  146.1200 O   0  0  0  0  0  0  0  0  0  0  0  0
  1  7  1  0  0  0  0
  2 13  1  0  0  0  0
  3  8  1  0  0  0  0
  4  2  1  0  0  0  0
  4 11  1  0  0  0  0
  5 15  1  0  0  0  0
  6  9  1  0  0  0  0
  6 34  1  0  0  0  0
  8 21  1  1  0  0  0
  9  4  2  0  0  0  0
 10 18  1  0  0  0  0
 10  2  2  0  0  0  0
 12  5  1  0  0  0  0
 12 22  1  1  0  0  0
 12 19  1  0  0  0  0
 13  7  2  0  0  0  0
 14  5  1  0  0  0  0
 14  8  1  0  0  0  0
 15 17  2  0  0  0  0
 15  9  1  0  0  0  0
 17 10  1  0  0  0  0
 18  1  2  0  0  0  0
 19 17  1  0  0  0  0
 20 16  1  6  0  0  0
 20  3  1  0  0  0  0
 20  8  1  0  0  0  0
 20  6  1  0  0  0  0
 22 23  1  0  0  0  0
 24 25  1  0  0  0  0
 24 23  1  0  0  0  0
 25 26  1  6  0  0  0
 25 27  1  0  0  0  0
 27 28  1  6  0  0  0
 27 29  1  0  0  0  0
 29 30  1  0  0  0  0
 30 32  1  0  0  0  0
 31 32  1  0  0  0  0
 32 33  2  0  0  0  0
 34 35  1  0  0  0  0
 35 36  1  0  0  0  0
 36 37  1  0  0  0  0
 37 38  1  0  0  0  0
 38 40  1  0  0  0  0
 40 43  1  0  0  0  0
 40 42  1  0  0  0  0
 41 45  2  0  0  0  0
 42 45  1  0  0  0  0
 42 39  1  0  0  0  0
 43 46  1  0  0  0  0
 45 48  1  0  0  0  0
 46 39  1  0  0  0  0
 46 44  1  1  0  0  0
 48 47  1  0  0  0  0
M  END
>  <MODEL>
9

>  <REMARK>
 VINA RESULT:      -6.8      2.455     10.246
  Name = 
  15 active torsions:
  status: ('A' for Active; 'I' for Inactive)
    1  A    between atoms: C_3  and  C_5
    2  A    between atoms: C_3  and  C_29
    3  A    between atoms: C_4  and  C_9
    4  A    between atoms: C_4  and  N_13
    5  A    between atoms: C_5  and  C_45
    6  A    between atoms: C_6  and  C_20
    7  A    between atoms: C_6  and  C_31
    8  A    between atoms: C_9  and  C_23
    9  A    between atoms: O_14  and  C_43
   10  A    between atoms: N_16  and  C_32
   11  A    between atoms: C_17  and  C_38
   12  A    between atoms: C_20  and  C_29
   13  A    between atoms: C_23  and  C_46
   14  A    between atoms: C_32  and  C_46
   15  A    between atoms: C_38  and  C_45
                            x       y       z     vdW  Elec       q    Type
                         _______ _______ _______ _____ _____    ______ ____

>  <TORSDO>
F 15

$$$$
