=
 OpenBabel10222420093D

 48 53  0  0  1  0  0  0  0  0999 V2000
  186.4950  178.2590  139.1970 C   0  0  0  0  0  2  0  0  0  0  0  0
  187.7840  178.2480  139.8620 N   0  0  0  0  0  0  0  0  0  0  0  0
  184.7690  179.7390  139.9560 O   0  0  0  0  0  0  0  0  0  0  0  0
  186.1240  180.0570  142.1380 F   0  0  0  0  0  0  0  0  0  0  0  0
  185.7890  177.8520  142.5510 F   0  0  0  0  0  0  0  0  0  0  0  0
  186.2500  178.7750  141.6310 C   0  0  0  0  0  0  0  0  0  0  0  0
  185.5310  178.6080  140.3020 C   0  0  2  0  0  0  0  0  0  0  0  0
  184.0470  178.5520  140.2040 C   0  0  2  0  0  3  0  0  0  0  0  0
  187.7100  178.4900  141.3010 C   0  0  0  0  0  2  0  0  0  0  0  0
  192.2890  176.2370  137.1460 O   0  0  0  0  0  1  0  0  0  0  0  0
  190.0410  177.1780  139.9300 C   0  0  0  0  0  0  0  0  0  0  0  0
  191.1980  176.7540  137.8290 C   0  0  0  0  0  0  0  0  0  0  0  0
  191.1350  176.6610  139.2200 C   0  0  0  0  0  3  0  0  0  0  0  0
  188.9770  177.7830  139.2100 C   0  0  0  0  0  0  0  0  0  0  0  0
  190.1680  177.3770  137.1270 C   0  0  0  0  0  3  0  0  0  0  0  0
  189.0650  177.8850  137.8130 C   0  0  0  0  0  3  0  0  0  0  0  0
  190.8860  178.0010  143.5270 C   0  0  0  0  0  3  0  0  0  0  0  0
  190.2020  176.9890  144.2190 C   0  0  0  0  0  0  0  0  0  0  0  0
  189.4090  176.1120  142.0980 C   0  0  0  0  0  3  0  0  0  0  0  0
  190.0830  177.1300  141.4070 C   0  0  0  0  0  0  0  0  0  0  0  0
  189.4640  176.0480  143.4930 C   0  0  0  0  0  3  0  0  0  0  0  0
  190.8330  178.0650  142.1340 C   0  0  0  0  0  3  0  0  0  0  0  0
  190.2020  176.8990  145.6200 O   0  0  0  0  0  0  0  0  0  0  0  0
  187.9890  177.6790  146.0050 N   0  0  0  0  0  0  0  0  0  0  0  0
  186.9870  178.1580  146.7940 C   0  0  0  0  0  0  0  0  0  0  0  0
  189.4850  177.6120  147.8610 C   0  0  0  0  0  3  0  0  0  0  0  0
  187.2160  178.3820  148.1530 C   0  0  0  0  0  3  0  0  0  0  0  0
  189.2290  177.4060  146.4960 C   0  0  0  0  0  0  0  0  0  0  0  0
  188.4740  178.1040  148.6870 C   0  0  0  0  0  3  0  0  0  0  0  0
  185.5750  179.8000  145.8690 F   0  0  0  0  0  0  0  0  0  0  0  0
  184.6590  178.1570  147.1220 F   0  0  0  0  0  0  0  0  0  0  0  0
  185.6510  178.4610  146.2090 C   0  0  0  0  0  3  0  0  0  0  0  0
  183.2830  178.6690  137.9500 O   0  0  0  0  0  0  0  0  0  0  0  0
  183.5110  176.5050  138.7980 N   0  0  0  0  0  2  0  0  0  0  0  0
  183.5990  177.9270  138.9190 C   0  0  0  0  0  0  0  0  0  0  0  0
  182.8650  175.8550  137.6660 C   0  0  2  0  0  3  0  0  0  0  0  0
  179.5450  174.1910  137.1820 C   0  0  0  0  0  0  0  0  0  0  0  0
  181.0590  174.1100  137.2440 C   0  0  0  0  0  2  0  0  0  0  0  0
  178.9310  173.0070  137.8980 C   0  0  0  0  0  1  0  0  0  0  0  0
  181.5120  175.2770  138.1050 C   0  0  2  0  0  3  0  0  0  0  0  0
  180.3980  176.2960  138.0520 C   0  0  0  0  0  2  0  0  0  0  0  0
  179.0920  174.2050  135.7350 C   0  0  0  0  0  1  0  0  0  0  0  0
  179.1340  175.4840  137.8680 C   0  0  0  0  0  2  0  0  0  0  0  0
  186.8080  174.2490  134.9490 C   0  0  0  0  0  1  0  0  0  0  0  0
  184.8880  175.1030  136.3380 C   0  0  0  0  0  0  0  0  0  0  0  0
  185.2240  176.2970  136.1090 O   0  0  0  0  0  0  0  0  0  0  0  0
  183.7430  174.8150  137.1420 N   0  0  0  0  0  2  0  0  0  0  0  0
  185.6510  174.0240  135.7980 N   0  0  0  0  0  2  0  0  0  0  0  0
  1  2  1  0  0  0  0
  2  9  1  0  0  0  0
  3  8  1  0  0  0  0
  3  7  1  0  0  0  0
  6  4  1  0  0  0  0
  6  5  1  0  0  0  0
  7  1  1  6  0  0  0
  7  6  1  0  0  0  0
  8 35  1  6  0  0  0
  8  7  1  0  0  0  0
  9  6  1  0  0  0  0
 10 12  1  0  0  0  0
 11 20  1  0  0  0  0
 12 13  2  0  0  0  0
 13 11  1  0  0  0  0
 14  2  1  0  0  0  0
 14 11  2  0  0  0  0
 15 16  2  0  0  0  0
 15 12  1  0  0  0  0
 16 14  1  0  0  0  0
 17 18  1  0  0  0  0
 18 23  1  0  0  0  0
 19 21  1  0  0  0  0
 20 19  2  0  0  0  0
 20 22  1  0  0  0  0
 21 18  2  0  0  0  0
 22 17  2  0  0  0  0
 23 28  1  0  0  0  0
 24 28  2  0  0  0  0
 24 25  1  0  0  0  0
 25 27  2  0  0  0  0
 26 29  2  0  0  0  0
 27 29  1  0  0  0  0
 28 26  1  0  0  0  0
 30 32  1  0  0  0  0
 32 25  1  0  0  0  0
 32 31  1  0  0  0  0
 33 35  2  0  0  0  0
 34 35  1  0  0  0  0
 36 47  1  1  0  0  0
 36 34  1  0  0  0  0
 37 38  1  0  0  0  0
 37 43  1  0  0  0  0
 37 39  1  0  0  0  0
 38 40  1  0  0  0  0
 40 36  1  6  0  0  0
 41 40  1  0  0  0  0
 42 37  1  0  0  0  0
 43 41  1  0  0  0  0
 44 48  1  0  0  0  0
 45 47  1  0  0  0  0
 46 45  2  0  0  0  0
 48 45  1  0  0  0  0
M  END
>  <MODEL>
1

>  <REMARK>
 VINA RESULT:      -9.6      0.000      0.000
  Name = 
  9 active torsions:
  status: ('A' for Active; 'I' for Inactive)
    1  A    between atoms: O_3  and  C_16
    2  A    between atoms: O_3  and  C_29
    3  A    between atoms: N_7  and  C_38
    4  A    between atoms: C_12  and  C_30
    5  A    between atoms: C_15  and  C_20
    6  A    between atoms: C_26  and  C_46
    7  A    between atoms: C_33  and  N_35
    8  A    between atoms: C_33  and  C_36
    9  A    between atoms: C_33  and  N_44
                            x       y       z     vdW  Elec       q    Type
                         _______ _______ _______ _____ _____    ______ ____

>  <TORSDO>
F 9

$$$$
=
 OpenBabel10222420093D

 48 53  0  0  1  0  0  0  0  0999 V2000
  187.0280  176.5480  138.3610 C   0  0  0  0  0  2  0  0  0  0  0  0
  186.4550  176.0650  137.1190 N   0  0  0  0  0  0  0  0  0  0  0  0
  187.5920  178.8660  138.5970 O   0  0  0  0  0  0  0  0  0  0  0  0
  187.4130  179.0800  136.0240 F   0  0  0  0  0  0  0  0  0  0  0  0
  189.1640  177.6450  135.8810 F   0  0  0  0  0  0  0  0  0  0  0  0
  187.9020  177.8430  136.4090 C   0  0  0  0  0  0  0  0  0  0  0  0
  187.9230  177.6770  137.9200 C   0  0  2  0  0  0  0  0  0  0  0  0
  188.9070  178.3880  138.7820 C   0  0  2  0  0  3  0  0  0  0  0  0
  186.9630  176.7430  135.9290 C   0  0  0  0  0  2  0  0  0  0  0  0
  183.4940  171.3020  136.6030 O   0  0  0  0  0  1  0  0  0  0  0  0
  184.2500  174.8890  137.1020 C   0  0  0  0  0  0  0  0  0  0  0  0
  184.2130  172.4780  136.7600 C   0  0  0  0  0  0  0  0  0  0  0  0
  183.5430  173.6880  136.9400 C   0  0  0  0  0  3  0  0  0  0  0  0
  185.6690  174.8640  137.0560 C   0  0  0  0  0  0  0  0  0  0  0  0
  185.6060  172.4500  136.7470 C   0  0  0  0  0  3  0  0  0  0  0  0
  186.3280  173.6350  136.8920 C   0  0  0  0  0  3  0  0  0  0  0  0
  182.3280  178.1130  136.6120 C   0  0  0  0  0  3  0  0  0  0  0  0
  182.0670  178.4940  137.9380 C   0  0  0  0  0  0  0  0  0  0  0  0
  183.2300  176.5050  138.7080 C   0  0  0  0  0  3  0  0  0  0  0  0
  183.4800  176.1200  137.3830 C   0  0  0  0  0  0  0  0  0  0  0  0
  182.5220  177.6800  138.9810 C   0  0  0  0  0  3  0  0  0  0  0  0
  183.0350  176.9410  136.3380 C   0  0  0  0  0  3  0  0  0  0  0  0
  181.3350  179.6470  138.2640 O   0  0  0  0  0  0  0  0  0  0  0  0
  181.2700  181.9520  137.6840 N   0  0  0  0  0  0  0  0  0  0  0  0
  180.9330  182.9940  136.8740 C   0  0  0  0  0  0  0  0  0  0  0  0
  180.2310  180.4000  136.2000 C   0  0  0  0  0  3  0  0  0  0  0  0
  180.2240  182.7600  135.6950 C   0  0  0  0  0  3  0  0  0  0  0  0
  180.9350  180.6660  137.3860 C   0  0  0  0  0  0  0  0  0  0  0  0
  179.8740  181.4530  135.3580 C   0  0  0  0  0  3  0  0  0  0  0  0
  181.2730  185.2030  136.1340 F   0  0  0  0  0  0  0  0  0  0  0  0
  182.5700  184.4030  137.8040 F   0  0  0  0  0  0  0  0  0  0  0  0
  181.3030  184.3870  137.2510 C   0  0  0  0  0  3  0  0  0  0  0  0
  189.9440  176.8610  140.2890 O   0  0  0  0  0  0  0  0  0  0  0  0
  188.1630  178.0740  141.1910 N   0  0  0  0  0  2  0  0  0  0  0  0
  189.0480  177.7320  140.1200 C   0  0  0  0  0  0  0  0  0  0  0  0
  188.1000  177.3090  142.4280 C   0  0  2  0  0  3  0  0  0  0  0  0
  184.9130  178.8920  143.5960 C   0  0  0  0  0  0  0  0  0  0  0  0
  185.8530  178.5060  142.4690 C   0  0  0  0  0  2  0  0  0  0  0  0
  183.4800  178.6140  143.1950 C   0  0  0  0  0  1  0  0  0  0  0  0
  186.6670  177.3290  142.9770 C   0  0  2  0  0  3  0  0  0  0  0  0
  186.6210  177.4050  144.4850 C   0  0  0  0  0  2  0  0  0  0  0  0
  185.0790  180.3630  143.9200 C   0  0  0  0  0  1  0  0  0  0  0  0
  185.2880  178.0470  144.8030 C   0  0  0  0  0  2  0  0  0  0  0  0
  191.7960  176.9150  145.8470 C   0  0  0  0  0  1  0  0  0  0  0  0
  189.9950  177.0670  144.0940 C   0  0  0  0  0  0  0  0  0  0  0  0
  190.0970  175.8330  143.8500 O   0  0  0  0  0  0  0  0  0  0  0  0
  189.0450  177.8670  143.3890 N   0  0  0  0  0  2  0  0  0  0  0  0
  190.8310  177.6790  145.0750 N   0  0  0  0  0  2  0  0  0  0  0  0
  2  1  1  0  0  0  0
  3  8  1  0  0  0  0
  4  6  1  0  0  0  0
  5  6  1  0  0  0  0
  6  7  1  0  0  0  0
  7  1  1  1  0  0  0
  7  3  1  0  0  0  0
  7  8  1  0  0  0  0
  8 35  1  1  0  0  0
  9  6  1  0  0  0  0
  9  2  1  0  0  0  0
 10 12  1  0  0  0  0
 11 20  1  0  0  0  0
 12 13  1  0  0  0  0
 13 11  2  0  0  0  0
 14 11  1  0  0  0  0
 14  2  1  0  0  0  0
 15 12  2  0  0  0  0
 15 16  1  0  0  0  0
 16 14  2  0  0  0  0
 17 18  1  0  0  0  0
 18 23  1  0  0  0  0
 18 21  2  0  0  0  0
 19 21  1  0  0  0  0
 20 19  2  0  0  0  0
 22 17  2  0  0  0  0
 22 20  1  0  0  0  0
 25 32  1  0  0  0  0
 25 24  1  0  0  0  0
 26 28  1  0  0  0  0
 27 25  2  0  0  0  0
 28 24  2  0  0  0  0
 28 23  1  0  0  0  0
 29 27  1  0  0  0  0
 29 26  2  0  0  0  0
 30 32  1  0  0  0  0
 32 31  1  0  0  0  0
 35 33  2  0  0  0  0
 35 34  1  0  0  0  0
 36 34  1  6  0  0  0
 36 47  1  0  0  0  0
 37 42  1  0  0  0  0
 37 43  1  0  0  0  0
 38 40  1  0  0  0  0
 38 37  1  0  0  0  0
 39 37  1  0  0  0  0
 40 36  1  6  0  0  0
 40 41  1  0  0  0  0
 41 43  1  0  0  0  0
 45 48  1  0  0  0  0
 46 45  2  0  0  0  0
 47 45  1  0  0  0  0
 48 44  1  0  0  0  0
M  END
>  <MODEL>
2

>  <REMARK>
 VINA RESULT:      -9.4      3.716      9.284
  Name = 
  9 active torsions:
  status: ('A' for Active; 'I' for Inactive)
    1  A    between atoms: O_3  and  C_16
    2  A    between atoms: O_3  and  C_29
    3  A    between atoms: N_7  and  C_38
    4  A    between atoms: C_12  and  C_30
    5  A    between atoms: C_15  and  C_20
    6  A    between atoms: C_26  and  C_46
    7  A    between atoms: C_33  and  N_35
    8  A    between atoms: C_33  and  C_36
    9  A    between atoms: C_33  and  N_44
                            x       y       z     vdW  Elec       q    Type
                         _______ _______ _______ _____ _____    ______ ____

>  <TORSDO>
F 9

$$$$
=
 OpenBabel10222420093D

 48 53  0  0  1  0  0  0  0  0999 V2000
  187.6820  176.3860  138.3110 C   0  0  0  0  0  2  0  0  0  0  0  0
  187.5870  175.9280  136.9380 N   0  0  0  0  0  0  0  0  0  0  0  0
  187.1910  178.6710  138.8470 O   0  0  0  0  0  0  0  0  0  0  0  0
  187.3950  179.2140  136.3250 F   0  0  0  0  0  0  0  0  0  0  0  0
  189.5770  178.6100  136.4720 F   0  0  0  0  0  0  0  0  0  0  0  0
  188.2740  178.2170  136.7140 C   0  0  0  0  0  0  0  0  0  0  0  0
  188.0960  177.8300  138.1730 C   0  0  2  0  0  0  0  0  0  0  0  0
  188.5310  178.7150  139.2880 C   0  0  2  0  0  3  0  0  0  0  0  0
  187.9710  176.9340  135.9500 C   0  0  0  0  0  2  0  0  0  0  0  0
  186.9880  170.5450  135.3970 O   0  0  0  0  0  1  0  0  0  0  0  0
  186.1010  174.0110  136.3370 C   0  0  0  0  0  0  0  0  0  0  0  0
  187.1210  171.8650  135.8030 C   0  0  0  0  0  0  0  0  0  0  0  0
  185.9900  172.6740  135.9260 C   0  0  0  0  0  3  0  0  0  0  0  0
  187.3890  174.5450  136.6060 C   0  0  0  0  0  0  0  0  0  0  0  0
  188.3800  172.3800  136.0980 C   0  0  0  0  0  3  0  0  0  0  0  0
  188.5130  173.7110  136.4940 C   0  0  0  0  0  3  0  0  0  0  0  0
  183.2880  176.4890  135.8110 C   0  0  0  0  0  3  0  0  0  0  0  0
  182.5150  176.2920  136.9660 C   0  0  0  0  0  0  0  0  0  0  0  0
  184.0910  174.5960  137.6980 C   0  0  0  0  0  3  0  0  0  0  0  0
  184.8560  174.7840  136.5380 C   0  0  0  0  0  0  0  0  0  0  0  0
  182.9260  175.3400  137.9050 C   0  0  0  0  0  3  0  0  0  0  0  0
  184.4520  175.7480  135.6040 C   0  0  0  0  0  3  0  0  0  0  0  0
  181.3220  176.9920  137.2060 O   0  0  0  0  0  0  0  0  0  0  0  0
  180.7240  178.1080  139.2190 N   0  0  0  0  0  0  0  0  0  0  0  0
  180.5710  179.2150  139.9980 C   0  0  0  0  0  0  0  0  0  0  0  0
  181.5090  179.4360  137.4000 C   0  0  0  0  0  3  0  0  0  0  0  0
  180.8850  180.4760  139.4870 C   0  0  0  0  0  3  0  0  0  0  0  0
  181.1760  178.1820  137.9370 C   0  0  0  0  0  0  0  0  0  0  0  0
  181.3590  180.5830  138.1800 C   0  0  0  0  0  3  0  0  0  0  0  0
  180.5460  180.1160  142.1730 F   0  0  0  0  0  0  0  0  0  0  0  0
  180.4370  177.8720  141.9240 F   0  0  0  0  0  0  0  0  0  0  0  0
  180.0540  179.0880  141.3890 C   0  0  0  0  0  3  0  0  0  0  0  0
  189.6010  177.0880  140.6600 O   0  0  0  0  0  0  0  0  0  0  0  0
  187.8100  178.1980  141.6690 N   0  0  0  0  0  2  0  0  0  0  0  0
  188.6920  177.9550  140.5680 C   0  0  0  0  0  0  0  0  0  0  0  0
  187.7680  177.3350  142.8410 C   0  0  2  0  0  3  0  0  0  0  0  0
  184.6000  178.9340  144.0370 C   0  0  0  0  0  0  0  0  0  0  0  0
  185.4950  178.4810  142.8980 C   0  0  0  0  0  2  0  0  0  0  0  0
  183.1570  178.5930  143.7300 C   0  0  0  0  0  1  0  0  0  0  0  0
  186.3630  177.3660  143.4570 C   0  0  2  0  0  3  0  0  0  0  0  0
  186.3870  177.5630  144.9550 C   0  0  0  0  0  2  0  0  0  0  0  0
  184.7420  180.4300  144.2340 C   0  0  0  0  0  1  0  0  0  0  0  0
  185.0540  178.1990  145.2870 C   0  0  0  0  0  2  0  0  0  0  0  0
  191.8430  176.5950  145.7330 C   0  0  0  0  0  1  0  0  0  0  0  0
  189.8500  176.9330  144.2300 C   0  0  0  0  0  0  0  0  0  0  0  0
  190.0010  175.7830  143.7330 O   0  0  0  0  0  0  0  0  0  0  0  0
  188.7780  177.7730  143.7980 N   0  0  0  0  0  2  0  0  0  0  0  0
  190.7510  177.4100  145.2290 N   0  0  0  0  0  2  0  0  0  0  0  0
  2  1  1  0  0  0  0
  3  8  1  0  0  0  0
  4  6  1  0  0  0  0
  5  6  1  0  0  0  0
  6  7  1  0  0  0  0
  7  1  1  1  0  0  0
  7  3  1  0  0  0  0
  7  8  1  0  0  0  0
  8 35  1  1  0  0  0
  9  6  1  0  0  0  0
  9  2  1  0  0  0  0
 10 12  1  0  0  0  0
 11 20  1  0  0  0  0
 11 14  1  0  0  0  0
 12 13  1  0  0  0  0
 12 15  2  0  0  0  0
 13 11  2  0  0  0  0
 14  2  1  0  0  0  0
 15 16  1  0  0  0  0
 16 14  2  0  0  0  0
 17 18  1  0  0  0  0
 18 23  1  0  0  0  0
 18 21  2  0  0  0  0
 19 21  1  0  0  0  0
 20 19  2  0  0  0  0
 22 17  2  0  0  0  0
 22 20  1  0  0  0  0
 23 28  1  0  0  0  0
 24 25  1  0  0  0  0
 25 32  1  0  0  0  0
 26 28  1  0  0  0  0
 26 29  2  0  0  0  0
 27 25  2  0  0  0  0
 28 24  2  0  0  0  0
 29 27  1  0  0  0  0
 32 31  1  0  0  0  0
 32 30  1  0  0  0  0
 35 33  2  0  0  0  0
 35 34  1  0  0  0  0
 36 34  1  6  0  0  0
 36 47  1  0  0  0  0
 37 42  1  0  0  0  0
 37 43  1  0  0  0  0
 38 40  1  0  0  0  0
 38 37  1  0  0  0  0
 39 37  1  0  0  0  0
 40 36  1  6  0  0  0
 40 41  1  0  0  0  0
 41 43  1  0  0  0  0
 45 48  1  0  0  0  0
 46 45  2  0  0  0  0
 47 45  1  0  0  0  0
 48 44  1  0  0  0  0
M  END
>  <MODEL>
3

>  <REMARK>
 VINA RESULT:      -9.2      3.082      8.381
  Name = 
  9 active torsions:
  status: ('A' for Active; 'I' for Inactive)
    1  A    between atoms: O_3  and  C_16
    2  A    between atoms: O_3  and  C_29
    3  A    between atoms: N_7  and  C_38
    4  A    between atoms: C_12  and  C_30
    5  A    between atoms: C_15  and  C_20
    6  A    between atoms: C_26  and  C_46
    7  A    between atoms: C_33  and  N_35
    8  A    between atoms: C_33  and  C_36
    9  A    between atoms: C_33  and  N_44
                            x       y       z     vdW  Elec       q    Type
                         _______ _______ _______ _____ _____    ______ ____

>  <TORSDO>
F 9

$$$$
=
 OpenBabel10222420093D

 48 53  0  0  1  0  0  0  0  0999 V2000
  188.2730  176.4860  138.2600 C   0  0  0  0  0  2  0  0  0  0  0  0
  188.5440  176.2020  136.8640 N   0  0  0  0  0  0  0  0  0  0  0  0
  186.8940  178.3540  138.8560 O   0  0  0  0  0  0  0  0  0  0  0  0
  187.2200  179.2490  136.4500 F   0  0  0  0  0  0  0  0  0  0  0  0
  189.4270  179.4550  136.9300 F   0  0  0  0  0  0  0  0  0  0  0  0
  188.3470  178.5930  136.9160 C   0  0  0  0  0  0  0  0  0  0  0  0
  188.1310  177.9860  138.2930 C   0  0  2  0  0  0  0  0  0  0  0  0
  188.0480  178.8200  139.5240 C   0  0  2  0  0  3  0  0  0  0  0  0
  188.6530  177.3940  136.0270 C   0  0  0  0  0  2  0  0  0  0  0  0
  190.1720  171.2020  134.8480 O   0  0  0  0  0  1  0  0  0  0  0  0
  187.9670  173.8890  136.1140 C   0  0  0  0  0  0  0  0  0  0  0  0
  189.7610  172.4190  135.3710 C   0  0  0  0  0  0  0  0  0  0  0  0
  188.4040  172.6650  135.5850 C   0  0  0  0  0  3  0  0  0  0  0  0
  188.9260  174.8930  136.4100 C   0  0  0  0  0  0  0  0  0  0  0  0
  190.7030  173.3940  135.6910 C   0  0  0  0  0  3  0  0  0  0  0  0
  190.2880  174.6220  136.2050 C   0  0  0  0  0  3  0  0  0  0  0  0
  184.5340  173.3970  137.6320 C   0  0  0  0  0  3  0  0  0  0  0  0
  183.7660  174.3200  136.9060 C   0  0  0  0  0  0  0  0  0  0  0  0
  185.7560  174.9620  135.6710 C   0  0  0  0  0  3  0  0  0  0  0  0
  186.5260  174.0480  136.4050 C   0  0  0  0  0  0  0  0  0  0  0  0
  184.3890  175.1000  135.9260 C   0  0  0  0  0  3  0  0  0  0  0  0
  185.9000  173.2570  137.3790 C   0  0  0  0  0  3  0  0  0  0  0  0
  182.3970  174.5170  137.1440 O   0  0  0  0  0  0  0  0  0  0  0  0
  182.4770  176.3620  138.6420 N   0  0  0  0  0  0  0  0  0  0  0  0
  181.9770  177.1400  139.6420 C   0  0  0  0  0  0  0  0  0  0  0  0
  180.5850  174.9130  138.7590 C   0  0  0  0  0  3  0  0  0  0  0  0
  180.7540  176.8170  140.2330 C   0  0  0  0  0  3  0  0  0  0  0  0
  181.8220  175.2570  138.1890 C   0  0  0  0  0  0  0  0  0  0  0  0
  180.0560  175.6960  139.7850 C   0  0  0  0  0  3  0  0  0  0  0  0
  184.0300  177.9620  140.4510 F   0  0  0  0  0  0  0  0  0  0  0  0
  182.1110  178.8750  141.2240 F   0  0  0  0  0  0  0  0  0  0  0  0
  182.7380  178.3290  140.1190 C   0  0  0  0  0  3  0  0  0  0  0  0
  189.1960  177.1210  140.7370 O   0  0  0  0  0  0  0  0  0  0  0  0
  187.5380  178.2400  141.9450 N   0  0  0  0  0  2  0  0  0  0  0  0
  188.3060  178.0140  140.7590 C   0  0  0  0  0  0  0  0  0  0  0  0
  187.5820  177.3380  143.0880 C   0  0  2  0  0  3  0  0  0  0  0  0
  184.4920  178.9960  144.4020 C   0  0  0  0  0  0  0  0  0  0  0  0
  185.2710  178.3950  143.2470 C   0  0  0  0  0  2  0  0  0  0  0  0
  183.0440  178.5580  144.3360 C   0  0  0  0  0  1  0  0  0  0  0  0
  186.2590  177.4190  143.8610 C   0  0  2  0  0  3  0  0  0  0  0  0
  186.4480  177.8590  145.2950 C   0  0  0  0  0  2  0  0  0  0  0  0
  184.5730  180.5080  144.3420 C   0  0  0  0  0  1  0  0  0  0  0  0
  185.1300  178.4920  145.6860 C   0  0  0  0  0  2  0  0  0  0  0  0
  191.9590  176.3170  145.3930 C   0  0  0  0  0  1  0  0  0  0  0  0
  189.8070  176.7990  144.1770 C   0  0  0  0  0  0  0  0  0  0  0  0
  189.8590  175.6810  143.5950 O   0  0  0  0  0  0  0  0  0  0  0  0
  188.7160  177.6900  143.9350 N   0  0  0  0  0  2  0  0  0  0  0  0
  190.8390  177.1890  145.0810 N   0  0  0  0  0  2  0  0  0  0  0  0
  2  1  1  0  0  0  0
  3  8  1  0  0  0  0
  4  6  1  0  0  0  0
  6  5  1  0  0  0  0
  6  7  1  0  0  0  0
  7  1  1  1  0  0  0
  7  3  1  0  0  0  0
  7  8  1  0  0  0  0
  8 35  1  1  0  0  0
  9  2  1  0  0  0  0
  9  6  1  0  0  0  0
 10 12  1  0  0  0  0
 11 20  1  0  0  0  0
 11 14  1  0  0  0  0
 12 13  1  0  0  0  0
 12 15  2  0  0  0  0
 13 11  2  0  0  0  0
 14  2  1  0  0  0  0
 15 16  1  0  0  0  0
 16 14  2  0  0  0  0
 18 23  1  0  0  0  0
 18 17  2  0  0  0  0
 19 21  2  0  0  0  0
 19 20  1  0  0  0  0
 20 22  2  0  0  0  0
 21 18  1  0  0  0  0
 22 17  1  0  0  0  0
 23 28  1  0  0  0  0
 24 25  1  0  0  0  0
 25 32  1  0  0  0  0
 25 27  2  0  0  0  0
 26 29  2  0  0  0  0
 28 24  2  0  0  0  0
 28 26  1  0  0  0  0
 29 27  1  0  0  0  0
 32 30  1  0  0  0  0
 32 31  1  0  0  0  0
 33 35  2  0  0  0  0
 35 34  1  0  0  0  0
 36 34  1  6  0  0  0
 36 47  1  0  0  0  0
 37 43  1  0  0  0  0
 38 40  1  0  0  0  0
 38 37  1  0  0  0  0
 39 37  1  0  0  0  0
 40 36  1  6  0  0  0
 40 41  1  0  0  0  0
 41 43  1  0  0  0  0
 42 37  1  0  0  0  0
 45 48  1  0  0  0  0
 46 45  2  0  0  0  0
 47 45  1  0  0  0  0
 48 44  1  0  0  0  0
M  END
>  <MODEL>
4

>  <REMARK>
 VINA RESULT:      -9.1      2.724      8.085
  Name = 
  9 active torsions:
  status: ('A' for Active; 'I' for Inactive)
    1  A    between atoms: O_3  and  C_16
    2  A    between atoms: O_3  and  C_29
    3  A    between atoms: N_7  and  C_38
    4  A    between atoms: C_12  and  C_30
    5  A    between atoms: C_15  and  C_20
    6  A    between atoms: C_26  and  C_46
    7  A    between atoms: C_33  and  N_35
    8  A    between atoms: C_33  and  C_36
    9  A    between atoms: C_33  and  N_44
                            x       y       z     vdW  Elec       q    Type
                         _______ _______ _______ _____ _____    ______ ____

>  <TORSDO>
F 9

$$$$
=
 OpenBabel10222420093D

 48 53  0  0  1  0  0  0  0  0999 V2000
  183.3950  177.5200  136.5650 C   0  0  0  0  0  2  0  0  0  0  0  0
  182.0480  177.8340  137.0000 N   0  0  0  0  0  0  0  0  0  0  0  0
  183.8240  175.4840  135.3740 O   0  0  0  0  0  0  0  0  0  0  0  0
  181.5120  174.6350  136.1700 F   0  0  0  0  0  0  0  0  0  0  0  0
  182.3170  174.7310  138.2890 F   0  0  0  0  0  0  0  0  0  0  0  0
  182.1250  175.4390  137.1170 C   0  0  0  0  0  0  0  0  0  0  0  0
  183.4410  176.0140  136.6200 C   0  0  2  0  0  0  0  0  0  0  0  0
  184.6650  175.1800  136.4670 C   0  0  2  0  0  3  0  0  0  0  0  0
  181.2640  176.6650  137.3900 C   0  0  0  0  0  2  0  0  0  0  0  0
  180.5100  183.1940  137.7860 O   0  0  0  0  0  1  0  0  0  0  0  0
  182.1050  179.9110  138.3880 C   0  0  0  0  0  0  0  0  0  0  0  0
  180.8730  181.8660  137.6180 C   0  0  0  0  0  0  0  0  0  0  0  0
  181.7260  181.2540  138.5380 C   0  0  0  0  0  3  0  0  0  0  0  0
  181.6260  179.1810  137.2680 C   0  0  0  0  0  0  0  0  0  0  0  0
  180.3790  181.1400  136.5370 C   0  0  0  0  0  3  0  0  0  0  0  0
  180.7550  179.8080  136.3630 C   0  0  0  0  0  3  0  0  0  0  0  0
  183.1350  177.9340  141.4470 C   0  0  0  0  0  3  0  0  0  0  0  0
  184.5150  178.1860  141.4990 C   0  0  0  0  0  0  0  0  0  0  0  0
  184.3090  179.5600  139.5070 C   0  0  0  0  0  3  0  0  0  0  0  0
  182.9330  179.2980  139.4490 C   0  0  0  0  0  0  0  0  0  0  0  0
  185.0930  179.0020  140.5200 C   0  0  0  0  0  3  0  0  0  0  0  0
  182.3510  178.4910  140.4360 C   0  0  0  0  0  3  0  0  0  0  0  0
  185.3510  177.6260  142.4780 O   0  0  0  0  0  0  0  0  0  0  0  0
  186.5130  177.6390  144.5520 N   0  0  0  0  0  0  0  0  0  0  0  0
  186.6470  177.9530  145.8700 C   0  0  0  0  0  0  0  0  0  0  0  0
  184.3650  178.6710  144.4730 C   0  0  0  0  0  3  0  0  0  0  0  0
  185.6260  178.6400  146.5310 C   0  0  0  0  0  3  0  0  0  0  0  0
  185.4030  177.9720  143.8380 C   0  0  0  0  0  0  0  0  0  0  0  0
  184.4800  179.0020  145.8240 C   0  0  0  0  0  3  0  0  0  0  0  0
  187.8060  178.0160  147.9190 F   0  0  0  0  0  0  0  0  0  0  0  0
  188.9920  178.0700  145.9950 F   0  0  0  0  0  0  0  0  0  0  0  0
  187.8720  177.5520  146.6170 C   0  0  0  0  0  3  0  0  0  0  0  0
  186.2210  176.6030  135.3580 O   0  0  0  0  0  0  0  0  0  0  0  0
  186.7350  176.1350  137.5880 N   0  0  0  0  0  2  0  0  0  0  0  0
  185.9050  176.0170  136.4280 C   0  0  0  0  0  0  0  0  0  0  0  0
  188.0610  176.7350  137.5430 C   0  0  2  0  0  3  0  0  0  0  0  0
  190.8390  174.6670  136.1170 C   0  0  0  0  0  0  0  0  0  0  0  0
  189.5120  174.7610  136.8480 C   0  0  0  0  0  2  0  0  0  0  0  0
  190.7980  173.5360  135.1100 C   0  0  0  0  0  1  0  0  0  0  0  0
  188.8880  176.0800  136.4270 C   0  0  2  0  0  3  0  0  0  0  0  0
  190.0270  176.9550  135.9570 C   0  0  0  0  0  2  0  0  0  0  0  0
  191.9560  174.4270  137.1130 C   0  0  0  0  0  1  0  0  0  0  0  0
  191.0550  175.9910  135.4030 C   0  0  0  0  0  2  0  0  0  0  0  0
  189.3760  178.3810  142.1330 C   0  0  0  0  0  1  0  0  0  0  0  0
  188.6470  177.5820  139.8590 C   0  0  0  0  0  0  0  0  0  0  0  0
  187.9620  178.6280  139.6860 O   0  0  0  0  0  0  0  0  0  0  0  0
  188.7050  176.5800  138.8420 N   0  0  0  0  0  2  0  0  0  0  0  0
  189.3690  177.3870  141.0740 N   0  0  0  0  0  2  0  0  0  0  0  0
  1  2  1  0  0  0  0
  2 14  1  0  0  0  0
  2  9  1  0  0  0  0
  3  8  1  0  0  0  0
  3  7  1  0  0  0  0
  4  6  1  0  0  0  0
  6  9  1  0  0  0  0
  6  5  1  0  0  0  0
  7  1  1  1  0  0  0
  7  6  1  0  0  0  0
  8 35  1  6  0  0  0
  8  7  1  0  0  0  0
 11 13  1  0  0  0  0
 11 20  1  0  0  0  0
 12 10  1  0  0  0  0
 12 13  2  0  0  0  0
 14 11  2  0  0  0  0
 15 12  1  0  0  0  0
 16 15  2  0  0  0  0
 16 14  1  0  0  0  0
 17 18  1  0  0  0  0
 18 23  1  0  0  0  0
 19 21  1  0  0  0  0
 20 19  2  0  0  0  0
 20 22  1  0  0  0  0
 21 18  2  0  0  0  0
 22 17  2  0  0  0  0
 23 28  1  0  0  0  0
 24 25  1  0  0  0  0
 25 27  2  0  0  0  0
 25 32  1  0  0  0  0
 26 29  2  0  0  0  0
 28 26  1  0  0  0  0
 28 24  2  0  0  0  0
 29 27  1  0  0  0  0
 31 32  1  0  0  0  0
 32 30  1  0  0  0  0
 33 35  2  0  0  0  0
 35 34  1  0  0  0  0
 36 34  1  1  0  0  0
 36 47  1  0  0  0  0
 37 38  1  0  0  0  0
 37 42  1  0  0  0  0
 39 37  1  0  0  0  0
 40 38  1  0  0  0  0
 40 36  1  1  0  0  0
 41 40  1  0  0  0  0
 43 41  1  0  0  0  0
 43 37  1  0  0  0  0
 45 48  1  0  0  0  0
 46 45  2  0  0  0  0
 47 45  1  0  0  0  0
 48 44  1  0  0  0  0
M  END
>  <MODEL>
5

>  <REMARK>
 VINA RESULT:      -9.0      2.907      7.548
  Name = 
  9 active torsions:
  status: ('A' for Active; 'I' for Inactive)
    1  A    between atoms: O_3  and  C_16
    2  A    between atoms: O_3  and  C_29
    3  A    between atoms: N_7  and  C_38
    4  A    between atoms: C_12  and  C_30
    5  A    between atoms: C_15  and  C_20
    6  A    between atoms: C_26  and  C_46
    7  A    between atoms: C_33  and  N_35
    8  A    between atoms: C_33  and  C_36
    9  A    between atoms: C_33  and  N_44
                            x       y       z     vdW  Elec       q    Type
                         _______ _______ _______ _____ _____    ______ ____

>  <TORSDO>
F 9

$$$$
=
 OpenBabel10222420093D

 48 53  0  0  1  0  0  0  0  0999 V2000
  186.6640  178.2560  139.1790 C   0  0  0  0  0  2  0  0  0  0  0  0
  187.9390  178.2470  139.8700 N   0  0  0  0  0  0  0  0  0  0  0  0
  184.9240  179.7400  139.8990 O   0  0  0  0  0  0  0  0  0  0  0  0
  186.2350  180.0660  142.1060 F   0  0  0  0  0  0  0  0  0  0  0  0
  185.8910  177.8620  142.5200 F   0  0  0  0  0  0  0  0  0  0  0  0
  186.3710  178.7810  141.6060 C   0  0  0  0  0  0  0  0  0  0  0  0
  185.6780  178.6090  140.2640 C   0  0  2  0  0  0  0  0  0  0  0  0
  184.1960  178.5540  140.1370 C   0  0  2  0  0  3  0  0  0  0  0  0
  187.8370  178.4950  141.3060 C   0  0  0  0  0  2  0  0  0  0  0  0
  192.4960  176.2200  137.2550 O   0  0  0  0  0  1  0  0  0  0  0  0
  190.2040  177.2000  139.9890 C   0  0  0  0  0  0  0  0  0  0  0  0
  191.3910  176.7410  137.9120 C   0  0  0  0  0  0  0  0  0  0  0  0
  191.3120  176.6770  139.3040 C   0  0  0  0  0  3  0  0  0  0  0  0
  189.1440  177.7790  139.2430 C   0  0  0  0  0  0  0  0  0  0  0  0
  190.3650  177.3390  137.1840 C   0  0  0  0  0  3  0  0  0  0  0  0
  189.2490  177.8520  137.8450 C   0  0  0  0  0  3  0  0  0  0  0  0
  189.6330  176.1430  143.5790 C   0  0  0  0  0  3  0  0  0  0  0  0
  190.2290  177.2000  144.2850 C   0  0  0  0  0  0  0  0  0  0  0  0
  190.8130  178.2460  142.1730 C   0  0  0  0  0  3  0  0  0  0  0  0
  190.2280  177.1840  141.4670 C   0  0  0  0  0  0  0  0  0  0  0  0
  190.8180  178.2480  143.5710 C   0  0  0  0  0  3  0  0  0  0  0  0
  189.6260  176.1390  142.1830 C   0  0  0  0  0  3  0  0  0  0  0  0
  190.2860  177.2340  145.6870 O   0  0  0  0  0  0  0  0  0  0  0  0
  187.9930  177.7420  146.0580 N   0  0  0  0  0  0  0  0  0  0  0  0
  186.9300  178.0640  146.8460 C   0  0  0  0  0  0  0  0  0  0  0  0
  189.4530  177.7410  147.9450 C   0  0  0  0  0  3  0  0  0  0  0  0
  187.1070  178.2370  148.2200 C   0  0  0  0  0  3  0  0  0  0  0  0
  189.2470  177.5820  146.5650 C   0  0  0  0  0  0  0  0  0  0  0  0
  188.3780  178.0720  148.7700 C   0  0  0  0  0  3  0  0  0  0  0  0
  185.6230  179.2310  145.2730 F   0  0  0  0  0  0  0  0  0  0  0  0
  184.6730  178.6060  147.2270 F   0  0  0  0  0  0  0  0  0  0  0  0
  185.5790  178.2480  146.2450 C   0  0  0  0  0  3  0  0  0  0  0  0
  184.2600  178.3490  137.7650 O   0  0  0  0  0  0  0  0  0  0  0  0
  182.8110  176.8650  138.8390 N   0  0  0  0  0  2  0  0  0  0  0  0
  183.7730  177.9240  138.8470 C   0  0  0  0  0  0  0  0  0  0  0  0
  182.1920  176.3800  137.6130 C   0  0  2  0  0  3  0  0  0  0  0  0
  180.0100  179.3520  136.9570 C   0  0  0  0  0  0  0  0  0  0  0  0
  181.0170  178.3280  136.4680 C   0  0  0  0  0  2  0  0  0  0  0  0
  178.9350  179.5650  135.9120 C   0  0  0  0  0  1  0  0  0  0  0  0
  180.8680  177.1180  137.3740 C   0  0  2  0  0  3  0  0  0  0  0  0
  180.2450  177.6260  138.6540 C   0  0  0  0  0  2  0  0  0  0  0  0
  180.7130  180.6640  137.2430 C   0  0  0  0  0  1  0  0  0  0  0  0
  179.3930  178.8040  138.2340 C   0  0  0  0  0  2  0  0  0  0  0  0
  183.4610  171.5820  136.6750 C   0  0  0  0  0  1  0  0  0  0  0  0
  182.9020  173.9880  137.1660 C   0  0  0  0  0  0  0  0  0  0  0  0
  183.9760  174.3720  136.6270 O   0  0  0  0  0  0  0  0  0  0  0  0
  181.9880  174.9390  137.7130 N   0  0  0  0  0  2  0  0  0  0  0  0
  182.5890  172.5980  137.2390 N   0  0  0  0  0  2  0  0  0  0  0  0
  1  2  1  0  0  0  0
  2  9  1  0  0  0  0
  3  8  1  0  0  0  0
  3  7  1  0  0  0  0
  6  4  1  0  0  0  0
  6  5  1  0  0  0  0
  7  1  1  6  0  0  0
  7  6  1  0  0  0  0
  8 35  1  6  0  0  0
  8  7  1  0  0  0  0
  9  6  1  0  0  0  0
 10 12  1  0  0  0  0
 11 20  1  0  0  0  0
 12 13  2  0  0  0  0
 13 11  1  0  0  0  0
 14  2  1  0  0  0  0
 14 11  2  0  0  0  0
 15 16  2  0  0  0  0
 15 12  1  0  0  0  0
 16 14  1  0  0  0  0
 17 18  1  0  0  0  0
 18 23  1  0  0  0  0
 19 21  1  0  0  0  0
 20 19  2  0  0  0  0
 20 22  1  0  0  0  0
 21 18  2  0  0  0  0
 22 17  2  0  0  0  0
 23 28  1  0  0  0  0
 24 28  2  0  0  0  0
 24 25  1  0  0  0  0
 25 27  2  0  0  0  0
 26 29  2  0  0  0  0
 27 29  1  0  0  0  0
 28 26  1  0  0  0  0
 30 32  1  0  0  0  0
 32 25  1  0  0  0  0
 32 31  1  0  0  0  0
 33 35  2  0  0  0  0
 34 35  1  0  0  0  0
 36 47  1  1  0  0  0
 36 34  1  0  0  0  0
 37 42  1  0  0  0  0
 37 43  1  0  0  0  0
 38 37  1  0  0  0  0
 38 40  1  0  0  0  0
 39 37  1  0  0  0  0
 40 36  1  1  0  0  0
 40 41  1  0  0  0  0
 43 41  1  0  0  0  0
 44 48  1  0  0  0  0
 45 48  1  0  0  0  0
 45 47  1  0  0  0  0
 46 45  2  0  0  0  0
M  END
>  <MODEL>
6

>  <REMARK>
 VINA RESULT:      -8.8      1.497      2.207
  Name = 
  9 active torsions:
  status: ('A' for Active; 'I' for Inactive)
    1  A    between atoms: O_3  and  C_16
    2  A    between atoms: O_3  and  C_29
    3  A    between atoms: N_7  and  C_38
    4  A    between atoms: C_12  and  C_30
    5  A    between atoms: C_15  and  C_20
    6  A    between atoms: C_26  and  C_46
    7  A    between atoms: C_33  and  N_35
    8  A    between atoms: C_33  and  C_36
    9  A    between atoms: C_33  and  N_44
                            x       y       z     vdW  Elec       q    Type
                         _______ _______ _______ _____ _____    ______ ____

>  <TORSDO>
F 9

$$$$
=
 OpenBabel10222420093D

 48 53  0  0  1  0  0  0  0  0999 V2000
  186.4190  178.2610  139.1930 C   0  0  0  0  0  2  0  0  0  0  0  0
  187.7080  178.2490  139.8580 N   0  0  0  0  0  0  0  0  0  0  0  0
  184.6990  179.7520  139.9430 O   0  0  0  0  0  0  0  0  0  0  0  0
  186.0540  180.0780  142.1230 F   0  0  0  0  0  0  0  0  0  0  0  0
  185.7120  177.8760  142.5490 F   0  0  0  0  0  0  0  0  0  0  0  0
  186.1760  178.7920  141.6240 C   0  0  0  0  0  0  0  0  0  0  0  0
  185.4570  178.6200  140.2960 C   0  0  2  0  0  0  0  0  0  0  0  0
  183.9720  178.5690  140.1980 C   0  0  2  0  0  3  0  0  0  0  0  0
  187.6350  178.5000  141.2950 C   0  0  0  0  0  2  0  0  0  0  0  0
  192.2070  176.1990  137.1620 O   0  0  0  0  0  1  0  0  0  0  0  0
  189.9810  177.2140  139.9370 C   0  0  0  0  0  0  0  0  0  0  0  0
  191.1170  176.7260  137.8380 C   0  0  0  0  0  0  0  0  0  0  0  0
  191.0730  176.6850  139.2320 C   0  0  0  0  0  3  0  0  0  0  0  0
  188.8990  177.7760  139.2090 C   0  0  0  0  0  0  0  0  0  0  0  0
  190.0690  177.3070  137.1270 C   0  0  0  0  0  3  0  0  0  0  0  0
  188.9680  177.8260  137.8080 C   0  0  0  0  0  3  0  0  0  0  0  0
  190.7870  178.2380  143.4910 C   0  0  0  0  0  3  0  0  0  0  0  0
  190.2030  177.1960  144.2280 C   0  0  0  0  0  0  0  0  0  0  0  0
  189.4690  176.1760  142.1490 C   0  0  0  0  0  3  0  0  0  0  0  0
  190.0420  177.2240  141.4140 C   0  0  0  0  0  0  0  0  0  0  0  0
  189.5440  176.1680  143.5450 C   0  0  0  0  0  3  0  0  0  0  0  0
  190.7140  178.2470  142.0970 C   0  0  0  0  0  3  0  0  0  0  0  0
  190.2250  177.1570  145.6310 O   0  0  0  0  0  0  0  0  0  0  0  0
  187.9380  177.7020  145.9910 N   0  0  0  0  0  0  0  0  0  0  0  0
  186.8800  178.0560  146.7720 C   0  0  0  0  0  0  0  0  0  0  0  0
  189.4010  177.7310  147.8750 C   0  0  0  0  0  3  0  0  0  0  0  0
  187.0610  178.2620  148.1400 C   0  0  0  0  0  3  0  0  0  0  0  0
  189.1910  177.5400  146.5000 C   0  0  0  0  0  0  0  0  0  0  0  0
  188.3310  178.0960  148.6930 C   0  0  0  0  0  3  0  0  0  0  0  0
  185.5000  179.4080  145.4260 F   0  0  0  0  0  0  0  0  0  0  0  0
  184.5740  178.2990  147.1650 F   0  0  0  0  0  0  0  0  0  0  0  0
  185.5310  178.2410  146.1680 C   0  0  0  0  0  3  0  0  0  0  0  0
  183.7940  178.5020  137.8240 O   0  0  0  0  0  0  0  0  0  0  0  0
  182.7730  176.7190  138.9350 N   0  0  0  0  0  2  0  0  0  0  0  0
  183.5210  177.9380  138.9170 C   0  0  0  0  0  0  0  0  0  0  0  0
  182.1140  176.1890  137.7490 C   0  0  2  0  0  3  0  0  0  0  0  0
  185.2810  174.3430  136.9850 C   0  0  0  0  0  0  0  0  0  0  0  0
  184.1950  174.7390  137.9680 C   0  0  0  0  0  2  0  0  0  0  0  0
  185.6220  172.8770  137.1500 C   0  0  0  0  0  1  0  0  0  0  0  0
  182.9680  175.0720  137.1370 C   0  0  2  0  0  3  0  0  0  0  0  0
  183.4770  175.4170  135.7560 C   0  0  0  0  0  2  0  0  0  0  0  0
  186.5180  175.1870  137.2220 C   0  0  0  0  0  1  0  0  0  0  0  0
  184.7380  174.5960  135.5880 C   0  0  0  0  0  2  0  0  0  0  0  0
  179.1910  179.5300  135.3400 C   0  0  0  0  0  1  0  0  0  0  0  0
  180.6170  177.8880  136.6090 C   0  0  0  0  0  0  0  0  0  0  0  0
  179.6350  177.5550  137.3270 O   0  0  0  0  0  0  0  0  0  0  0  0
  181.8920  177.2720  136.7970 N   0  0  0  0  0  2  0  0  0  0  0  0
  180.4670  178.8870  135.6010 N   0  0  0  0  0  2  0  0  0  0  0  0
  1  2  1  0  0  0  0
  2  9  1  0  0  0  0
  3  8  1  0  0  0  0
  3  7  1  0  0  0  0
  6  4  1  0  0  0  0
  6  5  1  0  0  0  0
  7  1  1  6  0  0  0
  7  6  1  0  0  0  0
  8 35  1  6  0  0  0
  8  7  1  0  0  0  0
  9  6  1  0  0  0  0
 10 12  1  0  0  0  0
 11 20  1  0  0  0  0
 12 13  2  0  0  0  0
 13 11  1  0  0  0  0
 14  2  1  0  0  0  0
 14 11  2  0  0  0  0
 15 16  2  0  0  0  0
 15 12  1  0  0  0  0
 16 14  1  0  0  0  0
 17 18  1  0  0  0  0
 18 23  1  0  0  0  0
 19 21  1  0  0  0  0
 20 22  1  0  0  0  0
 20 19  2  0  0  0  0
 21 18  2  0  0  0  0
 22 17  2  0  0  0  0
 23 28  1  0  0  0  0
 24 28  2  0  0  0  0
 24 25  1  0  0  0  0
 25 27  2  0  0  0  0
 26 29  2  0  0  0  0
 27 29  1  0  0  0  0
 28 26  1  0  0  0  0
 30 32  1  0  0  0  0
 32 25  1  0  0  0  0
 32 31  1  0  0  0  0
 33 35  2  0  0  0  0
 35 34  1  0  0  0  0
 36 47  1  6  0  0  0
 36 34  1  0  0  0  0
 37 39  1  0  0  0  0
 37 42  1  0  0  0  0
 37 38  1  0  0  0  0
 40 36  1  1  0  0  0
 40 38  1  0  0  0  0
 41 40  1  0  0  0  0
 43 41  1  0  0  0  0
 43 37  1  0  0  0  0
 44 48  1  0  0  0  0
 45 47  1  0  0  0  0
 45 46  2  0  0  0  0
 48 45  1  0  0  0  0
M  END
>  <MODEL>
7

>  <REMARK>
 VINA RESULT:      -8.8      1.564      2.932
  Name = 
  9 active torsions:
  status: ('A' for Active; 'I' for Inactive)
    1  A    between atoms: O_3  and  C_16
    2  A    between atoms: O_3  and  C_29
    3  A    between atoms: N_7  and  C_38
    4  A    between atoms: C_12  and  C_30
    5  A    between atoms: C_15  and  C_20
    6  A    between atoms: C_26  and  C_46
    7  A    between atoms: C_33  and  N_35
    8  A    between atoms: C_33  and  C_36
    9  A    between atoms: C_33  and  N_44
                            x       y       z     vdW  Elec       q    Type
                         _______ _______ _______ _____ _____    ______ ____

>  <TORSDO>
F 9

$$$$
=
 OpenBabel10222420093D

 48 53  0  0  1  0  0  0  0  0999 V2000
  187.2830  176.6890  138.3100 C   0  0  0  0  0  2  0  0  0  0  0  0
  186.8630  176.3310  136.9680 N   0  0  0  0  0  0  0  0  0  0  0  0
  187.5800  178.9940  138.8960 O   0  0  0  0  0  0  0  0  0  0  0  0
  187.5840  179.5450  136.3670 F   0  0  0  0  0  0  0  0  0  0  0  0
  189.4810  178.3130  136.2020 F   0  0  0  0  0  0  0  0  0  0  0  0
  188.1680  178.3170  136.6310 C   0  0  0  0  0  0  0  0  0  0  0  0
  188.0870  177.9470  138.1030 C   0  0  2  0  0  0  0  0  0  0  0  0
  188.9200  178.6200  139.1380 C   0  0  2  0  0  3  0  0  0  0  0  0
  187.3900  177.2120  135.9290 C   0  0  0  0  0  2  0  0  0  0  0  0
  184.1980  171.4460  136.1030 O   0  0  0  0  0  1  0  0  0  0  0  0
  186.9490  173.9040  136.3810 C   0  0  0  0  0  0  0  0  0  0  0  0
  184.8640  172.6490  136.2860 C   0  0  0  0  0  0  0  0  0  0  0  0
  186.2560  172.6980  136.2010 C   0  0  0  0  0  3  0  0  0  0  0  0
  186.2150  175.0830  136.6780 C   0  0  0  0  0  0  0  0  0  0  0  0
  184.1430  173.8130  136.5460 C   0  0  0  0  0  3  0  0  0  0  0  0
  184.8140  175.0190  136.7420 C   0  0  0  0  0  3  0  0  0  0  0  0
  190.6670  173.7440  137.0770 C   0  0  0  0  0  3  0  0  0  0  0  0
  191.2060  173.9630  135.8000 C   0  0  0  0  0  0  0  0  0  0  0  0
  188.9530  174.1330  134.9090 C   0  0  0  0  0  3  0  0  0  0  0  0
  188.4150  173.9030  136.1830 C   0  0  0  0  0  0  0  0  0  0  0  0
  190.3380  174.1550  134.7200 C   0  0  0  0  0  3  0  0  0  0  0  0
  189.2840  173.7220  137.2680 C   0  0  0  0  0  3  0  0  0  0  0  0
  192.5880  173.9650  135.5520 O   0  0  0  0  0  0  0  0  0  0  0  0
  194.2520  173.9470  137.2510 N   0  0  0  0  0  0  0  0  0  0  0  0
  195.2110  173.3460  138.0080 C   0  0  0  0  0  0  0  0  0  0  0  0
  193.8610  171.9220  136.0520 C   0  0  0  0  0  3  0  0  0  0  0  0
  195.5240  172.0020  137.8000 C   0  0  0  0  0  3  0  0  0  0  0  0
  193.5740  173.2780  136.2770 C   0  0  0  0  0  0  0  0  0  0  0  0
  194.8420  171.2880  136.8160 C   0  0  0  0  0  3  0  0  0  0  0  0
  195.1290  175.1250  139.5490 F   0  0  0  0  0  0  0  0  0  0  0  0
  197.0850  174.6780  138.5060 F   0  0  0  0  0  0  0  0  0  0  0  0
  195.9400  174.1230  139.0500 C   0  0  0  0  0  3  0  0  0  0  0  0
  189.7880  176.8000  140.4060 O   0  0  0  0  0  0  0  0  0  0  0  0
  188.2450  178.1380  141.5400 N   0  0  0  0  0  2  0  0  0  0  0  0
  189.0230  177.8010  140.3870 C   0  0  0  0  0  0  0  0  0  0  0  0
  188.1260  177.2520  142.6890 C   0  0  2  0  0  3  0  0  0  0  0  0
  184.9360  178.9000  143.7530 C   0  0  0  0  0  0  0  0  0  0  0  0
  185.8760  178.4430  142.6530 C   0  0  0  0  0  2  0  0  0  0  0  0
  183.5030  178.5920  143.3730 C   0  0  0  0  0  1  0  0  0  0  0  0
  186.6930  177.3040  143.2370 C   0  0  2  0  0  3  0  0  0  0  0  0
  186.6490  177.4800  144.7370 C   0  0  0  0  0  2  0  0  0  0  0  0
  185.0980  180.3900  143.9790 C   0  0  0  0  0  1  0  0  0  0  0  0
  185.3140  178.1380  145.0130 C   0  0  0  0  0  2  0  0  0  0  0  0
  192.0550  176.3620  145.7350 C   0  0  0  0  0  1  0  0  0  0  0  0
  190.1380  176.7760  144.1570 C   0  0  0  0  0  0  0  0  0  0  0  0
  190.2950  175.6400  143.6310 O   0  0  0  0  0  0  0  0  0  0  0  0
  189.0980  177.6450  143.7040 N   0  0  0  0  0  2  0  0  0  0  0  0
  190.9990  177.2080  145.2090 N   0  0  0  0  0  2  0  0  0  0  0  0
  2  1  1  0  0  0  0
  3  8  1  0  0  0  0
  4  6  1  0  0  0  0
  5  6  1  0  0  0  0
  6  7  1  0  0  0  0
  7  1  1  1  0  0  0
  7  3  1  0  0  0  0
  7  8  1  0  0  0  0
  8 35  1  1  0  0  0
  9  6  1  0  0  0  0
  9  2  1  0  0  0  0
 10 12  1  0  0  0  0
 11 14  1  0  0  0  0
 12 15  2  0  0  0  0
 13 12  1  0  0  0  0
 13 11  2  0  0  0  0
 14 16  2  0  0  0  0
 14  2  1  0  0  0  0
 15 16  1  0  0  0  0
 17 22  1  0  0  0  0
 18 17  2  0  0  0  0
 19 20  1  0  0  0  0
 20 11  1  0  0  0  0
 20 22  2  0  0  0  0
 21 19  2  0  0  0  0
 21 18  1  0  0  0  0
 23 18  1  0  0  0  0
 23 28  1  0  0  0  0
 24 25  1  0  0  0  0
 25 32  1  0  0  0  0
 26 28  1  0  0  0  0
 26 29  2  0  0  0  0
 27 25  2  0  0  0  0
 28 24  2  0  0  0  0
 29 27  1  0  0  0  0
 31 32  1  0  0  0  0
 32 30  1  0  0  0  0
 35 33  2  0  0  0  0
 35 34  1  0  0  0  0
 36 34  1  6  0  0  0
 36 47  1  0  0  0  0
 37 42  1  0  0  0  0
 37 43  1  0  0  0  0
 38 40  1  0  0  0  0
 38 37  1  0  0  0  0
 39 37  1  0  0  0  0
 40 36  1  6  0  0  0
 40 41  1  0  0  0  0
 41 43  1  0  0  0  0
 45 48  1  0  0  0  0
 46 45  2  0  0  0  0
 47 45  1  0  0  0  0
 48 44  1  0  0  0  0
M  END
>  <MODEL>
8

>  <REMARK>
 VINA RESULT:      -8.8      4.168      9.120
  Name = 
  9 active torsions:
  status: ('A' for Active; 'I' for Inactive)
    1  A    between atoms: O_3  and  C_16
    2  A    between atoms: O_3  and  C_29
    3  A    between atoms: N_7  and  C_38
    4  A    between atoms: C_12  and  C_30
    5  A    between atoms: C_15  and  C_20
    6  A    between atoms: C_26  and  C_46
    7  A    between atoms: C_33  and  N_35
    8  A    between atoms: C_33  and  C_36
    9  A    between atoms: C_33  and  N_44
                            x       y       z     vdW  Elec       q    Type
                         _______ _______ _______ _____ _____    ______ ____

>  <TORSDO>
F 9

$$$$
=
 OpenBabel10222420093D

 48 53  0  0  1  0  0  0  0  0999 V2000
  182.8500  179.4140  139.2350 C   0  0  0  0  0  2  0  0  0  0  0  0
  181.5000  179.8880  138.9960 N   0  0  0  0  0  0  0  0  0  0  0  0
  183.2050  177.3640  140.4260 O   0  0  0  0  0  0  0  0  0  0  0  0
  180.7460  177.5030  141.2210 F   0  0  0  0  0  0  0  0  0  0  0  0
  181.3140  179.4010  142.3270 F   0  0  0  0  0  0  0  0  0  0  0  0
  181.3250  178.7560  141.1040 C   0  0  0  0  0  0  0  0  0  0  0  0
  182.7390  178.6870  140.5510 C   0  0  2  0  0  0  0  0  0  0  0  0
  183.8840  178.1800  141.3570 C   0  0  2  0  0  3  0  0  0  0  0  0
  180.5650  179.5830  140.0760 C   0  0  0  0  0  2  0  0  0  0  0  0
  180.0480  183.5460  134.9680 O   0  0  0  0  0  1  0  0  0  0  0  0
  180.8060  180.3330  136.6370 C   0  0  0  0  0  0  0  0  0  0  0  0
  180.4310  182.6370  135.9430 C   0  0  0  0  0  0  0  0  0  0  0  0
  180.4210  181.2700  135.6650 C   0  0  0  0  0  3  0  0  0  0  0  0
  181.1860  180.7930  137.9250 C   0  0  0  0  0  0  0  0  0  0  0  0
  180.8340  183.0890  137.1970 C   0  0  0  0  0  3  0  0  0  0  0  0
  181.2070  182.1730  138.1810 C   0  0  0  0  0  3  0  0  0  0  0  0
  181.9650  177.0760  135.0930 C   0  0  0  0  0  3  0  0  0  0  0  0
  180.9290  176.2020  135.4600 C   0  0  0  0  0  0  0  0  0  0  0  0
  179.8240  178.0370  136.6030 C   0  0  0  0  0  3  0  0  0  0  0  0
  180.8640  178.9070  136.2470 C   0  0  0  0  0  0  0  0  0  0  0  0
  179.8620  176.6950  136.2170 C   0  0  0  0  0  3  0  0  0  0  0  0
  181.9280  178.4180  135.4760 C   0  0  0  0  0  3  0  0  0  0  0  0
  180.9350  174.8400  135.1230 O   0  0  0  0  0  0  0  0  0  0  0  0
  182.8990  173.9550  136.1320 N   0  0  0  0  0  0  0  0  0  0  0  0
  183.5920  173.0040  136.8160 C   0  0  0  0  0  0  0  0  0  0  0  0
  180.9130  172.6370  136.2160 C   0  0  0  0  0  3  0  0  0  0  0  0
  182.9540  171.8290  137.2180 C   0  0  0  0  0  3  0  0  0  0  0  0
  181.5830  173.8040  135.8150 C   0  0  0  0  0  0  0  0  0  0  0  0
  181.6050  171.6490  136.9160 C   0  0  0  0  0  3  0  0  0  0  0  0
  185.8150  172.6330  136.1330 F   0  0  0  0  0  0  0  0  0  0  0  0
  185.3410  172.6290  138.3440 F   0  0  0  0  0  0  0  0  0  0  0  0
  185.0360  173.2040  137.1230 C   0  0  0  0  0  3  0  0  0  0  0  0
  185.6610  179.7530  141.1540 O   0  0  0  0  0  0  0  0  0  0  0  0
  185.9100  177.8190  139.8680 N   0  0  0  0  0  2  0  0  0  0  0  0
  185.1980  178.6350  140.8020 C   0  0  0  0  0  0  0  0  0  0  0  0
  187.0620  178.3080  139.1230 C   0  0  2  0  0  3  0  0  0  0  0  0
  186.8310  176.7120  135.7430 C   0  0  0  0  0  0  0  0  0  0  0  0
  186.2980  176.8870  137.1530 C   0  0  0  0  0  2  0  0  0  0  0  0
  185.6840  176.6780  134.7540 C   0  0  0  0  0  1  0  0  0  0  0  0
  186.7660  178.2550  137.6180 C   0  0  2  0  0  3  0  0  0  0  0  0
  187.9720  178.5960  136.7740 C   0  0  0  0  0  2  0  0  0  0  0  0
  187.6240  175.4240  135.6520 C   0  0  0  0  0  1  0  0  0  0  0  0
  187.7330  177.9000  135.4520 C   0  0  0  0  0  2  0  0  0  0  0  0
  191.0530  177.1730  142.0030 C   0  0  0  0  0  1  0  0  0  0  0  0
  189.0190  177.7420  140.6320 C   0  0  0  0  0  0  0  0  0  0  0  0
  188.6790  178.6280  141.4620 O   0  0  0  0  0  0  0  0  0  0  0  0
  188.2320  177.5050  139.4630 N   0  0  0  0  0  2  0  0  0  0  0  0
  190.1940  176.9620  140.8510 N   0  0  0  0  0  2  0  0  0  0  0  0
  2  1  1  0  0  0  0
  2  9  1  0  0  0  0
  3  7  1  0  0  0  0
  3  8  1  0  0  0  0
  6  4  1  0  0  0  0
  6  5  1  0  0  0  0
  7  1  1  6  0  0  0
  7  6  1  0  0  0  0
  7  8  1  0  0  0  0
  8 35  1  6  0  0  0
  9  6  1  0  0  0  0
 10 12  1  0  0  0  0
 11 14  1  0  0  0  0
 12 15  2  0  0  0  0
 13 12  1  0  0  0  0
 13 11  2  0  0  0  0
 14 16  2  0  0  0  0
 14  2  1  0  0  0  0
 15 16  1  0  0  0  0
 17 18  2  0  0  0  0
 17 22  1  0  0  0  0
 18 21  1  0  0  0  0
 20 19  1  0  0  0  0
 20 11  1  0  0  0  0
 21 19  2  0  0  0  0
 22 20  2  0  0  0  0
 23 18  1  0  0  0  0
 23 28  1  0  0  0  0
 24 25  1  0  0  0  0
 25 32  1  0  0  0  0
 25 27  2  0  0  0  0
 26 29  2  0  0  0  0
 28 24  2  0  0  0  0
 28 26  1  0  0  0  0
 29 27  1  0  0  0  0
 30 32  1  0  0  0  0
 32 31  1  0  0  0  0
 34 35  1  0  0  0  0
 35 33  2  0  0  0  0
 36 47  1  6  0  0  0
 36 34  1  0  0  0  0
 37 38  1  0  0  0  0
 38 40  1  0  0  0  0
 39 37  1  0  0  0  0
 40 36  1  1  0  0  0
 41 40  1  0  0  0  0
 42 37  1  0  0  0  0
 43 37  1  0  0  0  0
 43 41  1  0  0  0  0
 45 48  1  0  0  0  0
 45 46  2  0  0  0  0
 47 45  1  0  0  0  0
 48 44  1  0  0  0  0
M  END
>  <MODEL>
9

>  <REMARK>
 VINA RESULT:      -8.5      3.551      9.498
  Name = 
  9 active torsions:
  status: ('A' for Active; 'I' for Inactive)
    1  A    between atoms: O_3  and  C_16
    2  A    between atoms: O_3  and  C_29
    3  A    between atoms: N_7  and  C_38
    4  A    between atoms: C_12  and  C_30
    5  A    between atoms: C_15  and  C_20
    6  A    between atoms: C_26  and  C_46
    7  A    between atoms: C_33  and  N_35
    8  A    between atoms: C_33  and  C_36
    9  A    between atoms: C_33  and  N_44
                            x       y       z     vdW  Elec       q    Type
                         _______ _______ _______ _____ _____    ______ ____

>  <TORSDO>
F 9

$$$$
