=
 OpenBabel10222417403D

 30 31  0  0  1  0  0  0  0  0999 V2000
  190.6820  177.2260  141.9510 C   0  0  0  0  0  0  0  0  0  0  0  0
  191.6780  176.8190  142.6910 N   0  0  0  0  0  0  0  0  0  0  0  0
  189.2870  177.3020  142.4370 C   0  0  0  0  0  0  0  0  0  0  0  0
  188.5250  176.1660  143.0440 C   0  0  0  0  0  2  0  0  0  0  0  0
  187.1920  178.0140  142.7630 C   0  0  0  0  0  0  0  0  0  0  0  0
  188.5050  178.3550  142.2480 C   0  0  0  0  0  3  0  0  0  0  0  0
  187.1780  176.7740  143.2340 C   0  0  0  0  0  3  0  0  0  0  0  0
  186.0380  178.9740  142.7940 C   0  0  2  0  0  3  0  0  0  0  0  0
  183.3770  178.9590  140.5420 N   0  0  0  0  0  2  0  0  0  0  0  0
  184.4510  178.9390  141.4830 C   0  0  0  0  0  0  0  0  0  0  0  0
  184.5960  178.1830  143.1420 S   0  0  0  0  0  0  0  0  0  0  0  0
  182.3450  179.5620  138.3880 N   0  0  0  0  0  1  0  0  0  0  0  0
  183.4610  179.6010  139.2690 C   0  0  0  0  0  0  0  0  0  0  0  0
  184.5110  180.2030  138.9180 O   0  0  0  0  0  0  0  0  0  0  0  0
  185.7020  179.4300  141.4670 N   0  0  0  0  0  0  0  0  0  0  0  0
  190.9400  177.5250  140.5050 C   0  0  1  0  0  3  0  0  0  0  0  0
  192.3110  177.6460  140.2700 O   0  0  0  0  0  1  0  0  0  0  0  0
  190.3480  176.4310  139.6270 C   0  0  0  0  0  2  0  0  0  0  0  0
  190.4430  176.9220  137.1690 C   0  0  0  0  0  1  0  0  0  0  0  0
  189.6080  177.0240  138.4350 C   0  0  2  0  0  3  0  0  0  0  0  0
  187.8420  178.6010  138.8700 O   0  0  0  0  0  1  0  0  0  0  0  0
  189.2230  178.4730  138.7070 C   0  0  0  0  0  2  0  0  0  0  0  0
  191.8870  175.4280  144.5720 O   0  0  0  0  0  0  0  0  0  0  0  0
  191.6850  176.5800  144.1050 C   0  0  0  0  0  0  0  0  0  0  0  0
  191.3150  177.6870  145.0320 C   0  0  0  0  0  2  0  0  0  0  0  0
  190.1890  177.2530  145.9590 C   0  0  2  0  0  3  0  0  0  0  0  0
  189.0970  178.1140  145.8280 O   0  0  0  0  0  1  0  0  0  0  0  0
  190.6590  177.2440  147.3750 C   0  0  0  0  0  0  0  0  0  0  0  0
  191.9210  176.7500  147.6770 O   0  0  0  0  0  0  0  0  0  0  0  0
  189.9200  177.6790  148.2980 O   0  0  0  0  0  1  0  0  0  0  0  0
  1  3  1  0  0  0  0
  1  2  2  0  0  0  0
  2 24  1  0  0  0  0
  3  4  1  0  0  0  0
  4  7  1  0  0  0  0
  5  7  2  0  0  0  0
  6  3  2  0  0  0  0
  6  5  1  0  0  0  0
  8  5  1  6  0  0  0
  8 11  1  0  0  0  0
  9 10  1  0  0  0  0
 10 11  1  0  0  0  0
 12 13  1  0  0  0  0
 13  9  1  0  0  0  0
 14 13  2  0  0  0  0
 15 10  2  0  0  0  0
 15  8  1  0  0  0  0
 16 17  1  1  0  0  0
 16  1  1  0  0  0  0
 18 16  1  0  0  0  0
 20 19  1  6  0  0  0
 20 22  1  0  0  0  0
 20 18  1  0  0  0  0
 22 21  1  0  0  0  0
 24 23  2  0  0  0  0
 24 25  1  0  0  0  0
 25 26  1  0  0  0  0
 26 27  1  1  0  0  0
 26 28  1  0  0  0  0
 28 29  2  0  0  0  0
 28 30  1  0  0  0  0
M  END
>  <MODEL>
1

>  <REMARK>
 VINA RESULT:      -7.3      0.000      0.000
  Name = 
  10 active torsions:
  status: ('A' for Active; 'I' for Inactive)
    1  A    between atoms: C_2  and  C_25
    2  A    between atoms: C_3  and  C_7
    3  A    between atoms: C_3  and  C_11
    4  A    between atoms: C_4  and  C_8
    5  A    between atoms: C_6  and  C_7
    6  A    between atoms: C_8  and  C_27
    7  A    between atoms: C_11  and  C_30
    8  A    between atoms: N_13  and  C_22
    9  A    between atoms: C_22  and  C_27
   10  A    between atoms: C_24  and  C_30
                            x       y       z     vdW  Elec       q    Type
                         _______ _______ _______ _____ _____    ______ ____

>  <TORSDO>
F 10

$$$$
=
 OpenBabel10222417403D

 30 31  0  0  1  0  0  0  0  0999 V2000
  190.6980  177.3190  142.4100 C   0  0  0  0  0  0  0  0  0  0  0  0
  191.1470  177.2470  141.1850 N   0  0  0  0  0  0  0  0  0  0  0  0
  189.2580  177.3630  142.7450 C   0  0  0  0  0  0  0  0  0  0  0  0
  188.4330  176.1820  143.1530 C   0  0  0  0  0  2  0  0  0  0  0  0
  187.1390  178.0630  142.9050 C   0  0  0  0  0  0  0  0  0  0  0  0
  188.5010  178.4370  142.5720 C   0  0  0  0  0  3  0  0  0  0  0  0
  187.0730  176.7830  143.2510 C   0  0  0  0  0  3  0  0  0  0  0  0
  185.9890  179.0260  142.8990 C   0  0  2  0  0  3  0  0  0  0  0  0
  183.3580  178.9730  140.6130 N   0  0  0  0  0  2  0  0  0  0  0  0
  184.4190  178.9690  141.5680 C   0  0  0  0  0  0  0  0  0  0  0  0
  184.5390  178.2490  143.2450 S   0  0  0  0  0  0  0  0  0  0  0  0
  182.3570  179.5330  138.4320 N   0  0  0  0  0  1  0  0  0  0  0  0
  183.4620  179.5880  139.3270 C   0  0  0  0  0  0  0  0  0  0  0  0
  184.5180  180.1780  138.9770 O   0  0  0  0  0  0  0  0  0  0  0  0
  185.6720  179.4550  141.5580 N   0  0  0  0  0  0  0  0  0  0  0  0
  191.6840  177.4760  143.5260 C   0  0  1  0  0  3  0  0  0  0  0  0
  191.5290  178.7200  144.1410 O   0  0  0  0  0  1  0  0  0  0  0  0
  191.5100  176.3580  144.5460 C   0  0  0  0  0  2  0  0  0  0  0  0
  192.1310  176.0540  146.9570 C   0  0  0  0  0  1  0  0  0  0  0  0
  191.3780  176.9170  145.9570 C   0  0  2  0  0  3  0  0  0  0  0  0
  189.7850  177.4950  147.6660 O   0  0  0  0  0  1  0  0  0  0  0  0
  189.9120  177.0400  146.3520 C   0  0  0  0  0  2  0  0  0  0  0  0
  190.4720  175.8820  139.3980 O   0  0  0  0  0  0  0  0  0  0  0  0
  190.4010  176.9920  139.9870 C   0  0  0  0  0  0  0  0  0  0  0  0
  189.6340  178.1050  139.3570 C   0  0  0  0  0  2  0  0  0  0  0  0
  189.1340  177.6940  137.9800 C   0  0  2  0  0  3  0  0  0  0  0  0
  189.4260  178.6890  137.0440 O   0  0  0  0  0  1  0  0  0  0  0  0
  187.6630  177.4480  138.0150 C   0  0  0  0  0  0  0  0  0  0  0  0
  186.8380  178.3190  138.7150 O   0  0  0  0  0  1  0  0  0  0  0  0
  187.1650  176.4580  137.4170 O   0  0  0  0  0  0  0  0  0  0  0  0
  1  3  1  0  0  0  0
  1 16  1  0  0  0  0
  2  1  2  0  0  0  0
  3  4  1  0  0  0  0
  4  7  1  0  0  0  0
  5  7  2  0  0  0  0
  6  3  2  0  0  0  0
  6  5  1  0  0  0  0
  8  5  1  6  0  0  0
  8 11  1  0  0  0  0
  9 10  1  0  0  0  0
 10 11  1  0  0  0  0
 12 13  1  0  0  0  0
 13  9  1  0  0  0  0
 14 13  2  0  0  0  0
 15 10  2  0  0  0  0
 15  8  1  0  0  0  0
 16 17  1  1  0  0  0
 16 18  1  0  0  0  0
 18 20  1  0  0  0  0
 20 22  1  0  0  0  0
 20 19  1  1  0  0  0
 22 21  1  0  0  0  0
 23 24  2  0  0  0  0
 24  2  1  0  0  0  0
 25 24  1  0  0  0  0
 26 27  1  6  0  0  0
 26 28  1  0  0  0  0
 26 25  1  0  0  0  0
 28 29  1  0  0  0  0
 30 28  2  0  0  0  0
M  END
>  <MODEL>
2

>  <REMARK>
 VINA RESULT:      -7.1      1.254      5.526
  Name = 
  10 active torsions:
  status: ('A' for Active; 'I' for Inactive)
    1  A    between atoms: C_2  and  C_25
    2  A    between atoms: C_3  and  C_7
    3  A    between atoms: C_3  and  C_11
    4  A    between atoms: C_4  and  C_8
    5  A    between atoms: C_6  and  C_7
    6  A    between atoms: C_8  and  C_27
    7  A    between atoms: C_11  and  C_30
    8  A    between atoms: N_13  and  C_22
    9  A    between atoms: C_22  and  C_27
   10  A    between atoms: C_24  and  C_30
                            x       y       z     vdW  Elec       q    Type
                         _______ _______ _______ _____ _____    ______ ____

>  <TORSDO>
F 10

$$$$
=
 OpenBabel10222417403D

 30 31  0  0  1  0  0  0  0  0999 V2000
  186.8580  177.8350  145.1440 C   0  0  0  0  0  0  0  0  0  0  0  0
  187.4740  177.9010  146.2940 N   0  0  0  0  0  0  0  0  0  0  0  0
  187.5280  177.4420  143.8860 C   0  0  0  0  0  0  0  0  0  0  0  0
  187.9820  176.0560  143.5500 C   0  0  0  0  0  2  0  0  0  0  0  0
  188.6410  177.5640  141.9490 C   0  0  0  0  0  0  0  0  0  0  0  0
  187.9390  178.3130  142.9750 C   0  0  0  0  0  3  0  0  0  0  0  0
  188.6710  176.2720  142.2460 C   0  0  0  0  0  3  0  0  0  0  0  0
  189.2020  178.1880  140.7050 C   0  0  2  0  0  3  0  0  0  0  0  0
  191.5110  176.6670  138.5820 N   0  0  0  0  0  2  0  0  0  0  0  0
  190.5390  177.2720  139.4350 C   0  0  0  0  0  0  0  0  0  0  0  0
  188.7150  177.3530  139.3290 S   0  0  0  0  0  0  0  0  0  0  0  0
  193.8120  176.0590  137.9450 N   0  0  0  0  0  1  0  0  0  0  0  0
  192.9140  176.6990  138.8450 C   0  0  0  0  0  0  0  0  0  0  0  0
  193.3670  177.2880  139.8620 O   0  0  0  0  0  0  0  0  0  0  0  0
  190.6210  177.9490  140.5930 N   0  0  0  0  0  0  0  0  0  0  0  0
  185.4310  178.2860  145.0690 C   0  0  1  0  0  3  0  0  0  0  0  0
  185.1070  179.0650  146.1820 O   0  0  0  0  0  1  0  0  0  0  0  0
  185.1920  179.0720  143.7870 C   0  0  0  0  0  2  0  0  0  0  0  0
  184.5510  178.4000  141.4570 C   0  0  0  0  0  1  0  0  0  0  0  0
  184.1350  178.4010  142.9200 C   0  0  2  0  0  3  0  0  0  0  0  0
  182.1900  178.7200  144.3020 O   0  0  0  0  0  1  0  0  0  0  0  0
  182.7850  179.0850  143.0920 C   0  0  0  0  0  2  0  0  0  0  0  0
  188.9690  176.5380  147.4860 O   0  0  0  0  0  0  0  0  0  0  0  0
  188.7890  177.4310  146.6170 C   0  0  0  0  0  0  0  0  0  0  0  0
  189.9730  178.1050  146.0100 C   0  0  0  0  0  2  0  0  0  0  0  0
  190.9750  177.0760  145.5100 C   0  0  2  0  0  3  0  0  0  0  0  0
  192.0060  176.9150  146.4380 O   0  0  0  0  0  1  0  0  0  0  0  0
  191.5390  177.4980  144.1950 C   0  0  0  0  0  0  0  0  0  0  0  0
  191.9670  176.5350  143.2900 O   0  0  0  0  0  0  0  0  0  0  0  0
  191.6320  178.7190  143.9010 O   0  0  0  0  0  1  0  0  0  0  0  0
  1  2  2  0  0  0  0
  2 24  1  0  0  0  0
  3  1  1  0  0  0  0
  4  3  1  0  0  0  0
  5  7  2  0  0  0  0
  5  6  1  0  0  0  0
  6  3  2  0  0  0  0
  7  4  1  0  0  0  0
  8  5  1  1  0  0  0
  9 13  1  0  0  0  0
  9 10  1  0  0  0  0
 10 15  2  0  0  0  0
 11 10  1  0  0  0  0
 11  8  1  0  0  0  0
 12 13  1  0  0  0  0
 13 14  2  0  0  0  0
 15  8  1  0  0  0  0
 16  1  1  0  0  0  0
 16 17  1  1  0  0  0
 18 16  1  0  0  0  0
 20 19  1  6  0  0  0
 20 22  1  0  0  0  0
 20 18  1  0  0  0  0
 22 21  1  0  0  0  0
 24 23  2  0  0  0  0
 25 24  1  0  0  0  0
 26 25  1  0  0  0  0
 26 27  1  1  0  0  0
 28 26  1  0  0  0  0
 29 28  2  0  0  0  0
 30 28  1  0  0  0  0
M  END
>  <MODEL>
3

>  <REMARK>
 VINA RESULT:      -7.1      3.229      6.099
  Name = 
  10 active torsions:
  status: ('A' for Active; 'I' for Inactive)
    1  A    between atoms: C_2  and  C_25
    2  A    between atoms: C_3  and  C_7
    3  A    between atoms: C_3  and  C_11
    4  A    between atoms: C_4  and  C_8
    5  A    between atoms: C_6  and  C_7
    6  A    between atoms: C_8  and  C_27
    7  A    between atoms: C_11  and  C_30
    8  A    between atoms: N_13  and  C_22
    9  A    between atoms: C_22  and  C_27
   10  A    between atoms: C_24  and  C_30
                            x       y       z     vdW  Elec       q    Type
                         _______ _______ _______ _____ _____    ______ ____

>  <TORSDO>
F 10

$$$$
=
 OpenBabel10222417403D

 30 31  0  0  1  0  0  0  0  0999 V2000
  190.3730  177.6460  141.3510 C   0  0  0  0  0  0  0  0  0  0  0  0
  191.4460  177.5940  142.0930 N   0  0  0  0  0  0  0  0  0  0  0  0
  189.0050  177.7430  141.9060 C   0  0  0  0  0  0  0  0  0  0  0  0
  188.3560  176.7130  142.7770 C   0  0  0  0  0  2  0  0  0  0  0  0
  186.8880  178.3910  142.2250 C   0  0  0  0  0  0  0  0  0  0  0  0
  188.1450  178.6920  141.5640 C   0  0  0  0  0  3  0  0  0  0  0  0
  186.9830  177.2730  142.9330 C   0  0  0  0  0  3  0  0  0  0  0  0
  185.6760  179.2720  142.1420 C   0  0  2  0  0  3  0  0  0  0  0  0
  182.6860  178.4020  140.5770 N   0  0  0  0  0  2  0  0  0  0  0  0
  183.9000  178.7400  141.2470 C   0  0  0  0  0  0  0  0  0  0  0  0
  184.3880  178.6220  143.0060 S   0  0  0  0  0  0  0  0  0  0  0  0
  181.2560  178.1820  138.5820 N   0  0  0  0  0  1  0  0  0  0  0  0
  182.4970  178.5560  139.1690 C   0  0  0  0  0  0  0  0  0  0  0  0
  183.4160  179.0200  138.4420 O   0  0  0  0  0  0  0  0  0  0  0  0
  185.0820  179.2230  140.8280 N   0  0  0  0  0  0  0  0  0  0  0  0
  190.5200  177.4870  139.8680 C   0  0  1  0  0  3  0  0  0  0  0  0
  191.7600  176.9250  139.5600 O   0  0  0  0  0  1  0  0  0  0  0  0
  189.3950  176.6210  139.3160 C   0  0  0  0  0  2  0  0  0  0  0  0
  189.4450  176.5290  136.8100 C   0  0  0  0  0  1  0  0  0  0  0  0
  188.8330  177.2050  138.0270 C   0  0  2  0  0  3  0  0  0  0  0  0
  188.1320  179.3280  137.1350 O   0  0  0  0  0  1  0  0  0  0  0  0
  189.0620  178.7100  137.9750 C   0  0  0  0  0  2  0  0  0  0  0  0
  191.8270  178.9650  143.9620 O   0  0  0  0  0  0  0  0  0  0  0  0
  191.5520  177.8240  143.5050 C   0  0  0  0  0  0  0  0  0  0  0  0
  191.4680  176.6660  144.4400 C   0  0  0  0  0  2  0  0  0  0  0  0
  191.4230  177.1470  145.8820 C   0  0  2  0  0  3  0  0  0  0  0  0
  192.2010  176.3160  146.6920 O   0  0  0  0  0  1  0  0  0  0  0  0
  190.0170  177.1650  146.3790 C   0  0  0  0  0  0  0  0  0  0  0  0
  189.1100  178.0680  145.8400 O   0  0  0  0  0  0  0  0  0  0  0  0
  189.6460  176.3700  147.2820 O   0  0  0  0  0  1  0  0  0  0  0  0
  1  3  1  0  0  0  0
  1  2  2  0  0  0  0
  2 24  1  0  0  0  0
  3  4  1  0  0  0  0
  4  7  1  0  0  0  0
  5  7  2  0  0  0  0
  6  3  2  0  0  0  0
  6  5  1  0  0  0  0
  8  5  1  6  0  0  0
  8 11  1  0  0  0  0
  9 10  1  0  0  0  0
 10 11  1  0  0  0  0
 12 13  1  0  0  0  0
 13  9  1  0  0  0  0
 14 13  2  0  0  0  0
 15 10  2  0  0  0  0
 15  8  1  0  0  0  0
 16 17  1  1  0  0  0
 16  1  1  0  0  0  0
 18 16  1  0  0  0  0
 20 19  1  6  0  0  0
 20 18  1  0  0  0  0
 21 22  1  0  0  0  0
 22 20  1  0  0  0  0
 24 23  2  0  0  0  0
 24 25  1  0  0  0  0
 25 26  1  0  0  0  0
 26 28  1  0  0  0  0
 26 27  1  1  0  0  0
 28 30  1  0  0  0  0
 29 28  2  0  0  0  0
M  END
>  <MODEL>
4

>  <REMARK>
 VINA RESULT:      -6.9      1.203      1.560
  Name = 
  10 active torsions:
  status: ('A' for Active; 'I' for Inactive)
    1  A    between atoms: C_2  and  C_25
    2  A    between atoms: C_3  and  C_7
    3  A    between atoms: C_3  and  C_11
    4  A    between atoms: C_4  and  C_8
    5  A    between atoms: C_6  and  C_7
    6  A    between atoms: C_8  and  C_27
    7  A    between atoms: C_11  and  C_30
    8  A    between atoms: N_13  and  C_22
    9  A    between atoms: C_22  and  C_27
   10  A    between atoms: C_24  and  C_30
                            x       y       z     vdW  Elec       q    Type
                         _______ _______ _______ _____ _____    ______ ____

>  <TORSDO>
F 10

$$$$
=
 OpenBabel10222417403D

 30 31  0  0  1  0  0  0  0  0999 V2000
  185.6140  178.8910  141.2970 C   0  0  0  0  0  0  0  0  0  0  0  0
  186.7200  178.6230  140.6570 N   0  0  0  0  0  0  0  0  0  0  0  0
  185.4920  178.8270  142.7700 C   0  0  0  0  0  0  0  0  0  0  0  0
  184.8250  179.8610  143.6230 C   0  0  0  0  0  2  0  0  0  0  0  0
  185.8340  178.2430  144.9020 C   0  0  0  0  0  0  0  0  0  0  0  0
  186.1010  177.9150  143.5140 C   0  0  0  0  0  3  0  0  0  0  0  0
  185.0980  179.3440  144.9930 C   0  0  0  0  0  3  0  0  0  0  0  0
  186.2980  177.4040  146.0570 C   0  0  2  0  0  3  0  0  0  0  0  0
  189.4290  177.6550  147.5690 N   0  0  0  0  0  2  0  0  0  0  0  0
  188.1350  177.5800  146.9690 C   0  0  0  0  0  0  0  0  0  0  0  0
  186.5380  178.3390  147.4340 S   0  0  0  0  0  0  0  0  0  0  0  0
  191.8330  177.1290  147.6970 N   0  0  0  0  0  1  0  0  0  0  0  0
  190.5780  176.9900  147.0410 C   0  0  0  0  0  0  0  0  0  0  0  0
  190.4940  176.2820  146.0020 O   0  0  0  0  0  0  0  0  0  0  0  0
  187.6610  176.9660  145.8710 N   0  0  0  0  0  0  0  0  0  0  0  0
  184.3750  179.1670  140.5010 C   0  0  1  0  0  3  0  0  0  0  0  0
  184.6880  179.8930  139.3500 O   0  0  0  0  0  1  0  0  0  0  0  0
  183.6830  177.8620  140.1310 C   0  0  0  0  0  2  0  0  0  0  0  0
  181.4470  178.5240  139.2080 C   0  0  0  0  0  1  0  0  0  0  0  0
  182.1860  177.9380  140.4000 C   0  0  2  0  0  3  0  0  0  0  0  0
  180.6370  179.3330  141.6040 O   0  0  0  0  0  1  0  0  0  0  0  0
  181.9060  178.7520  141.6570 C   0  0  0  0  0  2  0  0  0  0  0  0
  188.7090  179.4090  141.6290 O   0  0  0  0  0  0  0  0  0  0  0  0
  188.0320  178.4350  141.2060 C   0  0  0  0  0  0  0  0  0  0  0  0
  188.6560  177.0820  141.1510 C   0  0  0  0  0  2  0  0  0  0  0  0
  190.1730  177.1960  141.1120 C   0  0  2  0  0  3  0  0  0  0  0  0
  190.6750  176.5560  139.9760 O   0  0  0  0  0  1  0  0  0  0  0  0
  190.7700  176.5910  142.3380 C   0  0  0  0  0  0  0  0  0  0  0  0
  191.7080  177.3080  143.0700 O   0  0  0  0  0  1  0  0  0  0  0  0
  190.4310  175.4380  142.7140 O   0  0  0  0  0  0  0  0  0  0  0  0
  1  3  1  0  0  0  0
  2 24  1  0  0  0  0
  2  1  2  0  0  0  0
  3  6  2  0  0  0  0
  3  4  1  0  0  0  0
  4  7  1  0  0  0  0
  5  7  2  0  0  0  0
  6  5  1  0  0  0  0
  8  5  1  6  0  0  0
  8 11  1  0  0  0  0
 10 11  1  0  0  0  0
 10  9  1  0  0  0  0
 13  9  1  0  0  0  0
 13 12  1  0  0  0  0
 14 13  2  0  0  0  0
 15  8  1  0  0  0  0
 15 10  2  0  0  0  0
 16 17  1  6  0  0  0
 16  1  1  0  0  0  0
 18 20  1  0  0  0  0
 18 16  1  0  0  0  0
 20 19  1  6  0  0  0
 20 22  1  0  0  0  0
 21 22  1  0  0  0  0
 24 23  2  0  0  0  0
 25 24  1  0  0  0  0
 26 27  1  6  0  0  0
 26 25  1  0  0  0  0
 26 28  1  0  0  0  0
 28 30  2  0  0  0  0
 28 29  1  0  0  0  0
M  END
>  <MODEL>
5

>  <REMARK>
 VINA RESULT:      -6.7      2.688      6.802
  Name = 
  10 active torsions:
  status: ('A' for Active; 'I' for Inactive)
    1  A    between atoms: C_2  and  C_25
    2  A    between atoms: C_3  and  C_7
    3  A    between atoms: C_3  and  C_11
    4  A    between atoms: C_4  and  C_8
    5  A    between atoms: C_6  and  C_7
    6  A    between atoms: C_8  and  C_27
    7  A    between atoms: C_11  and  C_30
    8  A    between atoms: N_13  and  C_22
    9  A    between atoms: C_22  and  C_27
   10  A    between atoms: C_24  and  C_30
                            x       y       z     vdW  Elec       q    Type
                         _______ _______ _______ _____ _____    ______ ____

>  <TORSDO>
F 10

$$$$
=
 OpenBabel10222417403D

 30 31  0  0  1  0  0  0  0  0999 V2000
  186.7070  178.4840  140.9790 C   0  0  0  0  0  0  0  0  0  0  0  0
  186.9400  178.3090  139.7060 N   0  0  0  0  0  0  0  0  0  0  0  0
  187.5980  177.9770  142.0450 C   0  0  0  0  0  0  0  0  0  0  0  0
  187.1580  177.1490  143.2120 C   0  0  0  0  0  2  0  0  0  0  0  0
  189.3750  177.7220  143.3800 C   0  0  0  0  0  0  0  0  0  0  0  0
  188.8690  178.3320  142.1640 C   0  0  0  0  0  3  0  0  0  0  0  0
  188.4220  177.0320  143.9930 C   0  0  0  0  0  3  0  0  0  0  0  0
  190.8010  177.8330  143.8320 C   0  0  2  0  0  3  0  0  0  0  0  0
  192.2810  175.8250  146.2670 N   0  0  0  0  0  2  0  0  0  0  0  0
  191.6800  176.6220  145.2450 C   0  0  0  0  0  0  0  0  0  0  0  0
  191.6800  176.4590  143.4240 S   0  0  0  0  0  0  0  0  0  0  0  0
  192.7760  175.2550  148.6120 N   0  0  0  0  0  1  0  0  0  0  0  0
  192.1540  176.1110  147.6610 C   0  0  0  0  0  0  0  0  0  0  0  0
  191.4990  177.1110  148.0580 O   0  0  0  0  0  0  0  0  0  0  0  0
  190.9060  177.7200  145.2670 N   0  0  0  0  0  0  0  0  0  0  0  0
  185.4190  179.1320  141.3890 C   0  0  1  0  0  3  0  0  0  0  0  0
  184.8160  179.7520  140.2920 O   0  0  0  0  0  1  0  0  0  0  0  0
  184.4780  178.0980  141.9940 C   0  0  0  0  0  2  0  0  0  0  0  0
  182.4540  179.0030  143.1670 C   0  0  0  0  0  1  0  0  0  0  0  0
  183.9080  178.5850  143.3200 C   0  0  2  0  0  3  0  0  0  0  0  0
  185.2780  179.4060  145.1210 O   0  0  0  0  0  1  0  0  0  0  0  0
  184.7400  179.7340  143.8740 C   0  0  0  0  0  2  0  0  0  0  0  0
  188.4270  176.5890  139.1180 O   0  0  0  0  0  0  0  0  0  0  0  0
  188.1370  177.8140  139.0900 C   0  0  0  0  0  0  0  0  0  0  0  0
  189.1190  178.7830  138.5230 C   0  0  0  0  0  2  0  0  0  0  0  0
  188.8550  179.0050  137.0410 C   0  0  2  0  0  3  0  0  0  0  0  0
  187.5530  179.4710  136.8470 O   0  0  0  0  0  1  0  0  0  0  0  0
  189.0560  177.7350  136.2840 C   0  0  0  0  0  0  0  0  0  0  0  0
  188.0000  177.1920  135.5630 O   0  0  0  0  0  0  0  0  0  0  0  0
  190.1720  177.1520  136.2940 O   0  0  0  0  0  1  0  0  0  0  0  0
  1 16  1  0  0  0  0
  1  3  1  0  0  0  0
  2  1  2  0  0  0  0
  3  6  2  0  0  0  0
  3  4  1  0  0  0  0
  4  7  1  0  0  0  0
  5  7  2  0  0  0  0
  6  5  1  0  0  0  0
  8  5  1  1  0  0  0
  8 15  1  0  0  0  0
  9 13  1  0  0  0  0
 10 15  2  0  0  0  0
 10  9  1  0  0  0  0
 11  8  1  0  0  0  0
 11 10  1  0  0  0  0
 13 14  2  0  0  0  0
 13 12  1  0  0  0  0
 16 17  1  6  0  0  0
 16 18  1  0  0  0  0
 18 20  1  0  0  0  0
 20 19  1  6  0  0  0
 20 22  1  0  0  0  0
 22 21  1  0  0  0  0
 24 23  2  0  0  0  0
 24  2  1  0  0  0  0
 25 24  1  0  0  0  0
 26 27  1  1  0  0  0
 26 25  1  0  0  0  0
 28 30  1  0  0  0  0
 28 26  1  0  0  0  0
 29 28  2  0  0  0  0
M  END
>  <MODEL>
6

>  <REMARK>
 VINA RESULT:      -6.6      2.673      8.249
  Name = 
  10 active torsions:
  status: ('A' for Active; 'I' for Inactive)
    1  A    between atoms: C_2  and  C_25
    2  A    between atoms: C_3  and  C_7
    3  A    between atoms: C_3  and  C_11
    4  A    between atoms: C_4  and  C_8
    5  A    between atoms: C_6  and  C_7
    6  A    between atoms: C_8  and  C_27
    7  A    between atoms: C_11  and  C_30
    8  A    between atoms: N_13  and  C_22
    9  A    between atoms: C_22  and  C_27
   10  A    between atoms: C_24  and  C_30
                            x       y       z     vdW  Elec       q    Type
                         _______ _______ _______ _____ _____    ______ ____

>  <TORSDO>
F 10

$$$$
=
 OpenBabel10222417403D

 30 31  0  0  1  0  0  0  0  0999 V2000
  188.7000  177.5920  146.4330 C   0  0  0  0  0  0  0  0  0  0  0  0
  187.4640  177.8760  146.7420 N   0  0  0  0  0  0  0  0  0  0  0  0
  189.2550  177.7530  145.0710 C   0  0  0  0  0  0  0  0  0  0  0  0
  190.0080  178.9520  144.5860 C   0  0  0  0  0  2  0  0  0  0  0  0
  189.6280  177.4560  142.8860 C   0  0  0  0  0  0  0  0  0  0  0  0
  189.0100  176.9080  144.0790 C   0  0  0  0  0  3  0  0  0  0  0  0
  190.2140  178.6170  143.1490 C   0  0  0  0  0  3  0  0  0  0  0  0
  189.6320  176.7560  141.5580 C   0  0  2  0  0  3  0  0  0  0  0  0
  189.1510  178.3220  138.4810 N   0  0  0  0  0  2  0  0  0  0  0  0
  189.3830  177.6900  139.7410 C   0  0  0  0  0  0  0  0  0  0  0  0
  190.9300  177.2500  140.6110 S   0  0  0  0  0  0  0  0  0  0  0  0
  187.7080  179.2420  136.7090 N   0  0  0  0  0  1  0  0  0  0  0  0
  187.8460  178.5980  137.9700 C   0  0  0  0  0  0  0  0  0  0  0  0
  186.8170  178.2770  138.6210 O   0  0  0  0  0  0  0  0  0  0  0  0
  188.5690  177.2380  140.7100 N   0  0  0  0  0  0  0  0  0  0  0  0
  189.5740  176.9670  147.4780 C   0  0  1  0  0  3  0  0  0  0  0  0
  189.1580  175.6600  147.7420 O   0  0  0  0  0  1  0  0  0  0  0  0
  191.0280  176.9770  147.0250 C   0  0  0  0  0  2  0  0  0  0  0  0
  192.7970  175.8360  148.3890 C   0  0  0  0  0  1  0  0  0  0  0  0
  191.7110  175.6530  147.3410 C   0  0  2  0  0  3  0  0  0  0  0  0
  192.0520  175.8460  144.9650 O   0  0  0  0  0  1  0  0  0  0  0  0
  192.2880  175.0310  146.0750 C   0  0  0  0  0  2  0  0  0  0  0  0
  185.9540  179.6300  146.3450 O   0  0  0  0  0  0  0  0  0  0  0  0
  186.4920  178.5650  145.9430 C   0  0  0  0  0  0  0  0  0  0  0  0
  186.0150  177.9400  144.6760 C   0  0  0  0  0  2  0  0  0  0  0  0
  185.0250  178.8540  143.9710 C   0  0  2  0  0  3  0  0  0  0  0  0
  183.7260  178.5880  144.4100 O   0  0  0  0  0  1  0  0  0  0  0  0
  185.1070  178.6650  142.4930 C   0  0  0  0  0  0  0  0  0  0  0  0
  186.0740  179.3480  141.7670 O   0  0  0  0  0  0  0  0  0  0  0  0
  184.3080  177.8930  141.9000 O   0  0  0  0  0  1  0  0  0  0  0  0
  1  2  2  0  0  0  0
  1 16  1  0  0  0  0
  3  1  1  0  0  0  0
  4  3  1  0  0  0  0
  5  7  2  0  0  0  0
  5  6  1  0  0  0  0
  6  3  2  0  0  0  0
  7  4  1  0  0  0  0
  8  5  1  1  0  0  0
  9 10  1  0  0  0  0
 10 11  1  0  0  0  0
 10 15  2  0  0  0  0
 11  8  1  0  0  0  0
 12 13  1  0  0  0  0
 13  9  1  0  0  0  0
 13 14  2  0  0  0  0
 15  8  1  0  0  0  0
 16 17  1  6  0  0  0
 18 20  1  0  0  0  0
 18 16  1  0  0  0  0
 20 19  1  1  0  0  0
 21 22  1  0  0  0  0
 22 20  1  0  0  0  0
 24 23  2  0  0  0  0
 24  2  1  0  0  0  0
 25 24  1  0  0  0  0
 26 27  1  1  0  0  0
 26 25  1  0  0  0  0
 28 26  1  0  0  0  0
 29 28  2  0  0  0  0
 30 28  1  0  0  0  0
M  END
>  <MODEL>
7

>  <REMARK>
 VINA RESULT:      -6.5      3.029      6.412
  Name = 
  10 active torsions:
  status: ('A' for Active; 'I' for Inactive)
    1  A    between atoms: C_2  and  C_25
    2  A    between atoms: C_3  and  C_7
    3  A    between atoms: C_3  and  C_11
    4  A    between atoms: C_4  and  C_8
    5  A    between atoms: C_6  and  C_7
    6  A    between atoms: C_8  and  C_27
    7  A    between atoms: C_11  and  C_30
    8  A    between atoms: N_13  and  C_22
    9  A    between atoms: C_22  and  C_27
   10  A    between atoms: C_24  and  C_30
                            x       y       z     vdW  Elec       q    Type
                         _______ _______ _______ _____ _____    ______ ____

>  <TORSDO>
F 10

$$$$
=
 OpenBabel10222417403D

 30 31  0  0  1  0  0  0  0  0999 V2000
  190.0730  177.5400  141.2300 C   0  0  0  0  0  0  0  0  0  0  0  0
  190.2410  177.7140  139.9470 N   0  0  0  0  0  0  0  0  0  0  0  0
  188.7650  177.6880  141.9050 C   0  0  0  0  0  0  0  0  0  0  0  0
  188.1740  176.6990  142.8610 C   0  0  0  0  0  2  0  0  0  0  0  0
  186.7030  178.4000  142.3980 C   0  0  0  0  0  0  0  0  0  0  0  0
  187.9000  178.6500  141.6170 C   0  0  0  0  0  3  0  0  0  0  0  0
  186.8360  177.2990  143.1260 C   0  0  0  0  0  3  0  0  0  0  0  0
  185.5100  179.3100  142.4010 C   0  0  2  0  0  3  0  0  0  0  0  0
  182.4820  178.6290  140.8140 N   0  0  0  0  0  2  0  0  0  0  0  0
  183.7120  178.8880  141.4920 C   0  0  0  0  0  0  0  0  0  0  0  0
  184.2180  178.6220  143.2280 S   0  0  0  0  0  0  0  0  0  0  0  0
  181.0240  178.5970  138.8280 N   0  0  0  0  0  1  0  0  0  0  0  0
  182.2800  178.8970  139.4250 C   0  0  0  0  0  0  0  0  0  0  0  0
  183.2000  179.3970  138.7240 O   0  0  0  0  0  0  0  0  0  0  0  0
  184.8990  179.3770  141.0950 N   0  0  0  0  0  0  0  0  0  0  0  0
  191.2790  177.2870  142.0830 C   0  0  1  0  0  3  0  0  0  0  0  0
  192.4460  177.4170  141.3260 O   0  0  0  0  0  1  0  0  0  0  0  0
  191.3040  178.2510  143.2610 C   0  0  0  0  0  2  0  0  0  0  0  0
  191.6080  176.0100  144.3450 C   0  0  0  0  0  1  0  0  0  0  0  0
  191.4510  177.5040  144.5800 C   0  0  2  0  0  3  0  0  0  0  0  0
  190.1380  176.7900  146.4670 O   0  0  0  0  0  1  0  0  0  0  0  0
  190.2620  177.7810  145.4900 C   0  0  0  0  0  2  0  0  0  0  0  0
  188.8400  179.0010  138.5700 O   0  0  0  0  0  0  0  0  0  0  0  0
  189.2330  177.8620  138.9380 C   0  0  0  0  0  0  0  0  0  0  0  0
  188.5440  176.6490  138.4130 C   0  0  0  0  0  2  0  0  0  0  0  0
  189.1030  176.2650  137.0510 C   0  0  2  0  0  3  0  0  0  0  0  0
  188.2160  175.4160  136.3870 O   0  0  0  0  0  1  0  0  0  0  0  0
  190.4270  175.5930  137.2060 C   0  0  0  0  0  0  0  0  0  0  0  0
  191.5240  176.0690  136.5000 O   0  0  0  0  0  0  0  0  0  0  0  0
  190.5560  174.6000  137.9680 O   0  0  0  0  0  1  0  0  0  0  0  0
  1  3  1  0  0  0  0
  1 16  1  0  0  0  0
  2  1  2  0  0  0  0
  3  4  1  0  0  0  0
  4  7  1  0  0  0  0
  5  7  2  0  0  0  0
  6  3  2  0  0  0  0
  6  5  1  0  0  0  0
  8  5  1  6  0  0  0
  8 11  1  0  0  0  0
  9 10  1  0  0  0  0
 10 11  1  0  0  0  0
 12 13  1  0  0  0  0
 13  9  1  0  0  0  0
 14 13  2  0  0  0  0
 15 10  2  0  0  0  0
 15  8  1  0  0  0  0
 16 17  1  6  0  0  0
 16 18  1  0  0  0  0
 18 20  1  0  0  0  0
 20 19  1  6  0  0  0
 20 22  1  0  0  0  0
 22 21  1  0  0  0  0
 23 24  2  0  0  0  0
 24  2  1  0  0  0  0
 25 24  1  0  0  0  0
 26 27  1  1  0  0  0
 26 28  1  0  0  0  0
 26 25  1  0  0  0  0
 28 30  1  0  0  0  0
 29 28  2  0  0  0  0
M  END
>  <MODEL>
8

>  <REMARK>
 VINA RESULT:      -6.4      1.752      5.559
  Name = 
  10 active torsions:
  status: ('A' for Active; 'I' for Inactive)
    1  A    between atoms: C_2  and  C_25
    2  A    between atoms: C_3  and  C_7
    3  A    between atoms: C_3  and  C_11
    4  A    between atoms: C_4  and  C_8
    5  A    between atoms: C_6  and  C_7
    6  A    between atoms: C_8  and  C_27
    7  A    between atoms: C_11  and  C_30
    8  A    between atoms: N_13  and  C_22
    9  A    between atoms: C_22  and  C_27
   10  A    between atoms: C_24  and  C_30
                            x       y       z     vdW  Elec       q    Type
                         _______ _______ _______ _____ _____    ______ ____

>  <TORSDO>
F 10

$$$$
=
 OpenBabel10222417403D

 30 31  0  0  1  0  0  0  0  0999 V2000
  190.2440  177.1330  140.4510 C   0  0  0  0  0  0  0  0  0  0  0  0
  190.3780  176.9540  139.1640 N   0  0  0  0  0  0  0  0  0  0  0  0
  188.9630  177.5080  141.0890 C   0  0  0  0  0  0  0  0  0  0  0  0
  188.1080  178.6680  140.6840 C   0  0  0  0  0  3  0  0  0  0  0  0
  187.2940  177.6450  142.5710 C   0  0  0  0  0  0  0  0  0  0  0  0
  188.5070  176.9420  142.1970 C   0  0  0  0  0  2  0  0  0  0  0  0
  187.0360  178.6280  141.7180 C   0  0  0  0  0  3  0  0  0  0  0  0
  186.4380  177.2570  143.7410 C   0  0  2  0  0  3  0  0  0  0  0  0
  186.9150  178.3660  147.0110 N   0  0  0  0  0  2  0  0  0  0  0  0
  186.7020  177.9420  145.6640 C   0  0  0  0  0  0  0  0  0  0  0  0
  185.6010  178.5810  144.3520 S   0  0  0  0  0  0  0  0  0  0  0  0
  188.0020  178.2330  149.2180 N   0  0  0  0  0  1  0  0  0  0  0  0
  187.8450  177.7370  147.8940 C   0  0  0  0  0  0  0  0  0  0  0  0
  188.5280  176.7480  147.5150 O   0  0  0  0  0  0  0  0  0  0  0  0
  187.2410  176.9730  144.9060 N   0  0  0  0  0  0  0  0  0  0  0  0
  191.4660  177.0650  141.3140 C   0  0  1  0  0  3  0  0  0  0  0  0
  192.5880  177.5030  140.6060 O   0  0  0  0  0  1  0  0  0  0  0  0
  191.2730  177.9060  142.5690 C   0  0  0  0  0  2  0  0  0  0  0  0
  191.5730  175.6360  143.5940 C   0  0  0  0  0  1  0  0  0  0  0  0
  191.6870  177.1350  143.8160 C   0  0  2  0  0  3  0  0  0  0  0  0
  190.0980  178.7030  144.7190 O   0  0  0  0  0  1  0  0  0  0  0  0
  190.8510  177.5640  145.0150 C   0  0  0  0  0  2  0  0  0  0  0  0
  188.3040  176.1900  138.3700 O   0  0  0  0  0  0  0  0  0  0  0  0
  189.3450  176.8720  138.1730 C   0  0  0  0  0  0  0  0  0  0  0  0
  189.5660  177.4950  136.8360 C   0  0  0  0  0  2  0  0  0  0  0  0
  188.7810  178.7920  136.7160 C   0  0  2  0  0  3  0  0  0  0  0  0
  189.0540  179.6250  137.8040 O   0  0  0  0  0  1  0  0  0  0  0  0
  187.3180  178.5090  136.6510 C   0  0  0  0  0  0  0  0  0  0  0  0
  186.4790  178.9960  137.6450 O   0  0  0  0  0  1  0  0  0  0  0  0
  186.8380  177.8310  135.7050 O   0  0  0  0  0  0  0  0  0  0  0  0
  1  3  1  0  0  0  0
  1 16  1  0  0  0  0
  2  1  2  0  0  0  0
  3  6  1  0  0  0  0
  4  3  2  0  0  0  0
  4  7  1  0  0  0  0
  6  5  1  0  0  0  0
  7  5  2  0  0  0  0
  8  5  1  6  0  0  0
  8 11  1  0  0  0  0
  8 15  1  0  0  0  0
  9 13  1  0  0  0  0
 10  9  1  0  0  0  0
 11 10  1  0  0  0  0
 13 12  1  0  0  0  0
 14 13  2  0  0  0  0
 15 10  2  0  0  0  0
 16 17  1  6  0  0  0
 16 18  1  0  0  0  0
 18 20  1  0  0  0  0
 20 19  1  6  0  0  0
 20 22  1  0  0  0  0
 21 22  1  0  0  0  0
 24 23  2  0  0  0  0
 24  2  1  0  0  0  0
 25 24  1  0  0  0  0
 26 25  1  0  0  0  0
 26 27  1  1  0  0  0
 28 26  1  0  0  0  0
 28 29  1  0  0  0  0
 30 28  2  0  0  0  0
M  END
>  <MODEL>
9

>  <REMARK>
 VINA RESULT:      -6.3      2.817      6.874
  Name = 
  10 active torsions:
  status: ('A' for Active; 'I' for Inactive)
    1  A    between atoms: C_2  and  C_25
    2  A    between atoms: C_3  and  C_7
    3  A    between atoms: C_3  and  C_11
    4  A    between atoms: C_4  and  C_8
    5  A    between atoms: C_6  and  C_7
    6  A    between atoms: C_8  and  C_27
    7  A    between atoms: C_11  and  C_30
    8  A    between atoms: N_13  and  C_22
    9  A    between atoms: C_22  and  C_27
   10  A    between atoms: C_24  and  C_30
                            x       y       z     vdW  Elec       q    Type
                         _______ _______ _______ _____ _____    ______ ____

>  <TORSDO>
F 10

$$$$
