=
 OpenBabel10222421113D

 34 37  0  0  1  0  0  0  0  0999 V2000
  187.1290  177.8540  146.3010 C   0  0  0  0  0  0  0  0  0  0  0  0
  184.1890  178.8630  142.7900 C   0  0  0  0  0  0  0  0  0  0  0  0
  187.8140  175.7230  143.9180 O   0  0  0  0  0  1  0  0  0  0  0  0
  185.7470  178.6190  146.9160 S   0  0  0  0  0  0  0  0  0  0  0  0
  188.1230  177.0690  144.1110 C   0  0  2  0  0  3  0  0  0  0  0  0
  189.4930  177.1990  144.8090 C   0  0  2  0  0  3  0  0  0  0  0  0
  183.3970  179.3890  143.8290 C   0  0  0  0  0  3  0  0  0  0  0  0
  183.7510  178.9190  141.5100 F   0  0  0  0  0  0  0  0  0  0  0  0
  189.4260  176.7350  146.2880 C   0  0  2  0  0  3  0  0  0  0  0  0
  185.8440  178.2450  144.4140 C   0  0  0  0  0  0  0  0  0  0  0  0
  185.4320  178.2820  143.0830 C   0  0  0  0  0  3  0  0  0  0  0  0
  185.0290  178.7750  145.4020 C   0  0  0  0  0  0  0  0  0  0  0  0
  187.0390  177.7280  144.9190 C   0  0  0  0  0  0  0  0  0  0  0  0
  183.8280  179.3380  145.1230 N   0  0  0  0  0  0  0  0  0  0  0  0
  188.3090  177.4100  147.0490 C   0  0  0  0  0  0  0  0  0  0  0  0
  188.3550  177.5260  148.3020 O   0  0  0  0  0  0  0  0  0  0  0  0
  190.7060  176.9280  146.9570 N   0  0  0  0  0  2  0  0  0  0  0  0
  192.5660  175.7430  147.8920 C   0  0  0  0  0  2  0  0  0  0  0  0
  191.2380  175.6100  147.2600 C   0  0  2  0  0  3  0  0  0  0  0  0
  192.4270  175.4170  146.5330 O   0  0  0  0  0  0  0  0  0  0  0  0
  190.0330  178.6280  144.6930 C   0  0  0  0  0  2  0  0  0  0  0  0
  190.4290  178.9650  143.2630 C   0  0  0  0  0  2  0  0  0  0  0  0
  191.6030  178.1060  142.8020 C   0  0  1  0  0  3  0  0  0  0  0  0
  192.0520  177.2800  143.8220 F   0  0  0  0  0  0  0  0  0  0  0  0
  191.2580  177.3320  141.6110 N   0  0  0  0  0  2  0  0  0  0  0  0
  192.2410  177.5740  140.5600 C   0  0  0  0  0  2  0  0  0  0  0  0
  191.9270  176.7120  139.3490 C   0  0  0  0  0  2  0  0  0  0  0  0
  190.5700  176.1920  139.4320 N   0  0  0  0  0  2  0  0  0  0  0  0
  189.8270  176.7010  138.2890 C   0  0  0  0  0  2  0  0  0  0  0  0
  188.4540  176.6300  138.5450 O   0  0  0  0  0  0  0  0  0  0  0  0
  188.0010  178.1880  139.0400 P   0  0  0  0  0  0  0  0  0  0  0  0
  189.0030  179.3190  138.2800 O   0  0  0  0  0  0  0  0  0  0  0  0
  188.1570  178.3200  140.5380 O   0  0  0  0  0  1  0  0  0  0  0  0
  186.3940  178.4920  138.6080 O   0  0  0  0  0  1  0  0  0  0  0  0
  1  4  1  0  0  0  0
  1 15  1  0  0  0  0
  2 11  2  0  0  0  0
  2  7  1  0  0  0  0
  5  3  1  1  0  0  0
  5  6  1  0  0  0  0
  5 13  1  0  0  0  0
  6 21  1  1  0  0  0
  6  9  1  0  0  0  0
  7 14  2  0  0  0  0
  8  2  1  0  0  0  0
  9 17  1  1  0  0  0
  9 15  1  0  0  0  0
 10 13  1  0  0  0  0
 10 12  2  0  0  0  0
 11 10  1  0  0  0  0
 12  4  1  0  0  0  0
 13  1  2  0  0  0  0
 14 12  1  0  0  0  0
 15 16  2  0  0  0  0
 19 17  1  6  0  0  0
 19 18  1  0  0  0  0
 20 19  1  0  0  0  0
 20 18  1  0  0  0  0
 22 21  1  0  0  0  0
 23 22  1  0  0  0  0
 23 24  1  1  0  0  0
 25 23  1  0  0  0  0
 26 25  1  0  0  0  0
 27 28  1  0  0  0  0
 27 26  1  0  0  0  0
 29 30  1  0  0  0  0
 29 28  1  0  0  0  0
 30 31  1  0  0  0  0
 31 33  1  0  0  0  0
 32 31  2  0  0  0  0
 34 31  1  0  0  0  0
M  END
>  <MODEL>
1

>  <REMARK>
 VINA RESULT:      -8.1      0.000      0.000
  Name = 
  12 active torsions:
  status: ('A' for Active; 'I' for Inactive)
    1  A    between atoms: C_2  and  O_4
    2  A    between atoms: C_2  and  N_12
    3  A    between atoms: O_4  and  P_13
    4  A    between atoms: N_5  and  C_18
    5  A    between atoms: N_5  and  C_29
    6  A    between atoms: C_6  and  C_8
    7  A    between atoms: C_6  and  N_12
    8  A    between atoms: C_8  and  N_16
    9  A    between atoms: C_11  and  C_23
   10  A    between atoms: C_15  and  C_23
   11  A    between atoms: C_15  and  C_32
   12  A    between atoms: N_16  and  C_32
                            x       y       z     vdW  Elec       q    Type
                         _______ _______ _______ _____ _____    ______ ____

>  <TORSDO>
F 12

$$$$
=
 OpenBabel10222421113D

 34 37  0  0  1  0  0  0  0  0999 V2000
  187.1500  177.8810  146.2480 C   0  0  0  0  0  0  0  0  0  0  0  0
  184.1080  178.8410  142.8120 C   0  0  0  0  0  0  0  0  0  0  0  0
  187.8000  175.7480  143.8560 O   0  0  0  0  0  1  0  0  0  0  0  0
  185.7760  178.6320  146.8960 S   0  0  0  0  0  0  0  0  0  0  0  0
  188.0970  177.0990  144.0360 C   0  0  2  0  0  3  0  0  0  0  0  0
  189.4830  177.2480  144.6980 C   0  0  2  0  0  3  0  0  0  0  0  0
  183.3380  179.3620  143.8690 C   0  0  0  0  0  3  0  0  0  0  0  0
  183.6370  178.8870  141.5430 F   0  0  0  0  0  0  0  0  0  0  0  0
  189.4600  176.7890  146.1800 C   0  0  2  0  0  3  0  0  0  0  0  0
  185.8130  178.2490  144.3940 C   0  0  0  0  0  0  0  0  0  0  0  0
  185.3660  178.2760  143.0740 C   0  0  0  0  0  3  0  0  0  0  0  0
  185.0180  178.7730  145.4010 C   0  0  0  0  0  0  0  0  0  0  0  0
  187.0260  177.7480  144.8690 C   0  0  0  0  0  0  0  0  0  0  0  0
  183.8030  179.3210  145.1510 N   0  0  0  0  0  0  0  0  0  0  0  0
  188.3550  177.4540  146.9670 C   0  0  0  0  0  0  0  0  0  0  0  0
  188.4330  177.5750  148.2180 O   0  0  0  0  0  0  0  0  0  0  0  0
  190.7540  177.0000  146.8150 N   0  0  0  0  0  2  0  0  0  0  0  0
  192.5530  175.8530  147.9060 C   0  0  0  0  0  2  0  0  0  0  0  0
  191.2480  175.6980  147.2310 C   0  0  2  0  0  3  0  0  0  0  0  0
  192.4600  175.4330  146.5680 O   0  0  0  0  0  0  0  0  0  0  0  0
  190.0020  178.6830  144.5630 C   0  0  0  0  0  2  0  0  0  0  0  0
  191.4960  178.7150  144.2750 C   0  0  0  0  0  2  0  0  0  0  0  0
  191.8630  177.7380  143.1620 C   0  0  1  0  0  3  0  0  0  0  0  0
  191.8670  176.4300  143.6230 F   0  0  0  0  0  0  0  0  0  0  0  0
  190.9750  177.8890  142.0110 N   0  0  0  0  0  2  0  0  0  0  0  0
  191.6790  177.5130  140.7890 C   0  0  0  0  0  2  0  0  0  0  0  0
  190.6950  177.4020  139.6370 C   0  0  0  0  0  2  0  0  0  0  0  0
  190.4080  176.0050  139.3460 N   0  0  0  0  0  2  0  0  0  0  0  0
  190.9130  175.7140  138.0120 C   0  0  0  0  0  2  0  0  0  0  0  0
  191.6160  174.5060  138.0240 O   0  0  0  0  0  0  0  0  0  0  0  0
  193.1720  174.8780  137.4590 P   0  0  0  0  0  0  0  0  0  0  0  0
  193.0730  175.3200  135.8290 O   0  0  0  0  0  0  0  0  0  0  0  0
  194.0710  173.6690  137.5880 O   0  0  0  0  0  1  0  0  0  0  0  0
  193.8200  176.1660  138.3440 O   0  0  0  0  0  1  0  0  0  0  0  0
  1  4  1  0  0  0  0
  1 15  1  0  0  0  0
  2 11  2  0  0  0  0
  2  7  1  0  0  0  0
  5  3  1  1  0  0  0
  5  6  1  0  0  0  0
  5 13  1  0  0  0  0
  6 21  1  1  0  0  0
  6  9  1  0  0  0  0
  7 14  2  0  0  0  0
  8  2  1  0  0  0  0
  9 17  1  1  0  0  0
  9 15  1  0  0  0  0
 10 13  1  0  0  0  0
 10 12  2  0  0  0  0
 11 10  1  0  0  0  0
 12  4  1  0  0  0  0
 13  1  2  0  0  0  0
 14 12  1  0  0  0  0
 15 16  2  0  0  0  0
 19 17  1  6  0  0  0
 19 18  1  0  0  0  0
 20 19  1  0  0  0  0
 20 18  1  0  0  0  0
 22 21  1  0  0  0  0
 23 24  1  1  0  0  0
 23 22  1  0  0  0  0
 25 23  1  0  0  0  0
 26 25  1  0  0  0  0
 27 26  1  0  0  0  0
 28 27  1  0  0  0  0
 29 30  1  0  0  0  0
 29 28  1  0  0  0  0
 31 33  1  0  0  0  0
 31 30  1  0  0  0  0
 31 34  1  0  0  0  0
 32 31  2  0  0  0  0
M  END
>  <MODEL>
2

>  <REMARK>
 VINA RESULT:      -7.6      2.200      2.591
  Name = 
  12 active torsions:
  status: ('A' for Active; 'I' for Inactive)
    1  A    between atoms: C_2  and  O_4
    2  A    between atoms: C_2  and  N_12
    3  A    between atoms: O_4  and  P_13
    4  A    between atoms: N_5  and  C_18
    5  A    between atoms: N_5  and  C_29
    6  A    between atoms: C_6  and  C_8
    7  A    between atoms: C_6  and  N_12
    8  A    between atoms: C_8  and  N_16
    9  A    between atoms: C_11  and  C_23
   10  A    between atoms: C_15  and  C_23
   11  A    between atoms: C_15  and  C_32
   12  A    between atoms: N_16  and  C_32
                            x       y       z     vdW  Elec       q    Type
                         _______ _______ _______ _____ _____    ______ ____

>  <TORSDO>
F 12

$$$$
=
 OpenBabel10222421113D

 34 37  0  0  1  0  0  0  0  0999 V2000
  188.0060  176.2340  137.1750 C   0  0  0  0  0  0  0  0  0  0  0  0
  184.1450  178.6170  138.3620 C   0  0  0  0  0  0  0  0  0  0  0  0
  188.9260  179.3620  137.4280 O   0  0  0  0  0  1  0  0  0  0  0  0
  186.6320  175.3880  136.6590 S   0  0  0  0  0  0  0  0  0  0  0  0
  188.6600  178.3670  138.3690 C   0  0  2  0  0  3  0  0  0  0  0  0
  189.9650  177.6330  138.7400 C   0  0  2  0  0  3  0  0  0  0  0  0
  183.4910  177.5360  137.7400 C   0  0  0  0  0  3  0  0  0  0  0  0
  183.4230  179.6280  138.9000 F   0  0  0  0  0  0  0  0  0  0  0  0
  190.4770  176.7520  137.5700 C   0  0  2  0  0  3  0  0  0  0  0  0
  186.2520  177.5850  137.8580 C   0  0  0  0  0  0  0  0  0  0  0  0
  185.5470  178.6450  138.4240 C   0  0  0  0  0  3  0  0  0  0  0  0
  185.5640  176.5430  137.2560 C   0  0  0  0  0  0  0  0  0  0  0  0
  187.6380  177.4100  137.8200 C   0  0  0  0  0  0  0  0  0  0  0  0
  184.2100  176.5120  137.1950 N   0  0  0  0  0  0  0  0  0  0  0  0
  189.4070  175.8240  137.0440 C   0  0  0  0  0  0  0  0  0  0  0  0
  189.7100  174.7600  136.4420 O   0  0  0  0  0  0  0  0  0  0  0  0
  191.6700  176.0080  137.9560 N   0  0  0  0  0  2  0  0  0  0  0  0
  193.8210  175.3720  137.1160 C   0  0  0  0  0  2  0  0  0  0  0  0
  192.7130  176.3430  137.0010 C   0  0  2  0  0  3  0  0  0  0  0  0
  193.8950  176.6480  137.7010 O   0  0  0  0  0  0  0  0  0  0  0  0
  189.7870  176.8150  140.0230 C   0  0  0  0  0  2  0  0  0  0  0  0
  190.2700  177.5770  141.2480 C   0  0  0  0  0  2  0  0  0  0  0  0
  189.0960  178.0410  142.1040 C   0  0  1  0  0  3  0  0  0  0  0  0
  188.4010  179.0720  141.4880 F   0  0  0  0  0  0  0  0  0  0  0  0
  188.2060  176.9290  142.4320 N   0  0  0  0  0  2  0  0  0  0  0  0
  187.1240  177.3960  143.2930 C   0  0  0  0  0  2  0  0  0  0  0  0
  187.3880  176.9770  144.7300 C   0  0  0  0  0  2  0  0  0  0  0  0
  187.8120  178.1210  145.5240 N   0  0  0  0  0  2  0  0  0  0  0  0
  189.1550  177.8500  146.0160 C   0  0  0  0  0  2  0  0  0  0  0  0
  189.6170  176.6400  145.4880 O   0  0  0  0  0  0  0  0  0  0  0  0
  191.2700  176.8770  145.1850 P   0  0  0  0  0  0  0  0  0  0  0  0
  191.7920  175.7300  144.0580 O   0  0  0  0  0  0  0  0  0  0  0  0
  192.0590  176.7060  146.4640 O   0  0  0  0  0  1  0  0  0  0  0  0
  191.5310  178.4280  144.5610 O   0  0  0  0  0  1  0  0  0  0  0  0
  1 13  2  0  0  0  0
  2 11  1  0  0  0  0
  2  8  1  0  0  0  0
  4  1  1  0  0  0  0
  4 12  1  0  0  0  0
  5  3  1  6  0  0  0
  5  6  1  0  0  0  0
  6 21  1  1  0  0  0
  7  2  2  0  0  0  0
  9 17  1  1  0  0  0
  9  6  1  0  0  0  0
 10 11  2  0  0  0  0
 12 10  1  0  0  0  0
 13 10  1  0  0  0  0
 13  5  1  0  0  0  0
 14 12  2  0  0  0  0
 14  7  1  0  0  0  0
 15  1  1  0  0  0  0
 15  9  1  0  0  0  0
 16 15  2  0  0  0  0
 18 20  1  0  0  0  0
 19 18  1  0  0  0  0
 19 20  1  0  0  0  0
 19 17  1  1  0  0  0
 21 22  1  0  0  0  0
 22 23  1  0  0  0  0
 23 24  1  6  0  0  0
 23 25  1  0  0  0  0
 25 26  1  0  0  0  0
 26 27  1  0  0  0  0
 27 28  1  0  0  0  0
 28 29  1  0  0  0  0
 30 29  1  0  0  0  0
 31 30  1  0  0  0  0
 31 33  1  0  0  0  0
 32 31  2  0  0  0  0
 34 31  1  0  0  0  0
M  END
>  <MODEL>
3

>  <REMARK>
 VINA RESULT:      -6.6      3.789      7.498
  Name = 
  12 active torsions:
  status: ('A' for Active; 'I' for Inactive)
    1  A    between atoms: C_2  and  O_4
    2  A    between atoms: C_2  and  N_12
    3  A    between atoms: O_4  and  P_13
    4  A    between atoms: N_5  and  C_18
    5  A    between atoms: N_5  and  C_29
    6  A    between atoms: C_6  and  C_8
    7  A    between atoms: C_6  and  N_12
    8  A    between atoms: C_8  and  N_16
    9  A    between atoms: C_11  and  C_23
   10  A    between atoms: C_15  and  C_23
   11  A    between atoms: C_15  and  C_32
   12  A    between atoms: N_16  and  C_32
                            x       y       z     vdW  Elec       q    Type
                         _______ _______ _______ _____ _____    ______ ____

>  <TORSDO>
F 12

$$$$
=
 OpenBabel10222421113D

 34 37  0  0  1  0  0  0  0  0999 V2000
  188.1530  176.2440  137.3940 C   0  0  0  0  0  0  0  0  0  0  0  0
  184.1900  178.5680  138.3330 C   0  0  0  0  0  0  0  0  0  0  0  0
  189.0040  179.3890  137.6760 O   0  0  0  0  0  1  0  0  0  0  0  0
  186.8260  175.3700  136.8050 S   0  0  0  0  0  0  0  0  0  0  0  0
  188.6990  178.3960  138.6070 C   0  0  2  0  0  3  0  0  0  0  0  0
  189.9930  177.6880  139.0610 C   0  0  2  0  0  3  0  0  0  0  0  0
  183.5910  177.4720  137.6820 C   0  0  0  0  0  3  0  0  0  0  0  0
  183.4190  179.5700  138.8190 F   0  0  0  0  0  0  0  0  0  0  0  0
  190.5880  176.8070  137.9300 C   0  0  2  0  0  3  0  0  0  0  0  0
  186.3400  177.5690  137.9620 C   0  0  0  0  0  0  0  0  0  0  0  0
  185.5840  178.6200  138.4770 C   0  0  0  0  0  3  0  0  0  0  0  0
  185.7060  176.5120  137.3280 C   0  0  0  0  0  0  0  0  0  0  0  0
  187.7270  177.4180  138.0070 C   0  0  0  0  0  0  0  0  0  0  0  0
  184.3580  176.4560  137.1880 N   0  0  0  0  0  0  0  0  0  0  0  0
  189.5670  175.8580  137.3490 C   0  0  0  0  0  0  0  0  0  0  0  0
  189.9220  174.7950  136.7740 O   0  0  0  0  0  0  0  0  0  0  0  0
  191.7670  176.0870  138.3910 N   0  0  0  0  0  2  0  0  0  0  0  0
  193.5680  175.5690  136.8980 C   0  0  0  0  0  2  0  0  0  0  0  0
  192.9110  176.6360  137.6820 C   0  0  2  0  0  3  0  0  0  0  0  0
  194.0810  175.9970  138.1340 O   0  0  0  0  0  0  0  0  0  0  0  0
  189.7520  176.8750  140.3370 C   0  0  0  0  0  2  0  0  0  0  0  0
  189.1160  177.7210  141.4310 C   0  0  0  0  0  2  0  0  0  0  0  0
  189.4520  177.1730  142.8140 C   0  0  1  0  0  3  0  0  0  0  0  0
  190.4690  176.2320  142.7480 F   0  0  0  0  0  0  0  0  0  0  0  0
  189.7890  178.2490  143.7440 N   0  0  0  0  0  2  0  0  0  0  0  0
  189.3100  177.9180  145.0820 C   0  0  0  0  0  2  0  0  0  0  0  0
  188.0060  177.1440  144.9880 C   0  0  0  0  0  2  0  0  0  0  0  0
  187.0000  177.7340  145.8600 N   0  0  0  0  0  2  0  0  0  0  0  0
  185.9220  178.2350  145.0200 C   0  0  0  0  0  2  0  0  0  0  0  0
  186.1100  177.8090  143.7020 O   0  0  0  0  0  0  0  0  0  0  0  0
  185.0280  178.7240  142.7680 P   0  0  0  0  0  0  0  0  0  0  0  0
  184.0510  179.6410  143.8000 O   0  0  0  0  0  1  0  0  0  0  0  0
  184.1520  177.8070  141.9460 O   0  0  0  0  0  1  0  0  0  0  0  0
  185.8810  179.7640  141.7420 O   0  0  0  0  0  0  0  0  0  0  0  0
  1 13  2  0  0  0  0
  2 11  1  0  0  0  0
  2  8  1  0  0  0  0
  4 12  1  0  0  0  0
  4  1  1  0  0  0  0
  5  3  1  6  0  0  0
  5  6  1  0  0  0  0
  6 21  1  1  0  0  0
  7  2  2  0  0  0  0
  9 17  1  1  0  0  0
  9  6  1  0  0  0  0
 10 13  1  0  0  0  0
 10 11  2  0  0  0  0
 12 10  1  0  0  0  0
 13  5  1  0  0  0  0
 14 12  2  0  0  0  0
 14  7  1  0  0  0  0
 15  1  1  0  0  0  0
 15  9  1  0  0  0  0
 16 15  2  0  0  0  0
 18 19  1  0  0  0  0
 18 20  1  0  0  0  0
 19 20  1  0  0  0  0
 19 17  1  1  0  0  0
 21 22  1  0  0  0  0
 22 23  1  0  0  0  0
 23 24  1  6  0  0  0
 23 25  1  0  0  0  0
 25 26  1  0  0  0  0
 27 26  1  0  0  0  0
 27 28  1  0  0  0  0
 29 28  1  0  0  0  0
 30 29  1  0  0  0  0
 31 30  1  0  0  0  0
 31 32  1  0  0  0  0
 33 31  1  0  0  0  0
 34 31  2  0  0  0  0
M  END
>  <MODEL>
4

>  <REMARK>
 VINA RESULT:      -6.6      3.704      7.077
  Name = 
  12 active torsions:
  status: ('A' for Active; 'I' for Inactive)
    1  A    between atoms: C_2  and  O_4
    2  A    between atoms: C_2  and  N_12
    3  A    between atoms: O_4  and  P_13
    4  A    between atoms: N_5  and  C_18
    5  A    between atoms: N_5  and  C_29
    6  A    between atoms: C_6  and  C_8
    7  A    between atoms: C_6  and  N_12
    8  A    between atoms: C_8  and  N_16
    9  A    between atoms: C_11  and  C_23
   10  A    between atoms: C_15  and  C_23
   11  A    between atoms: C_15  and  C_32
   12  A    between atoms: N_16  and  C_32
                            x       y       z     vdW  Elec       q    Type
                         _______ _______ _______ _____ _____    ______ ____

>  <TORSDO>
F 12

$$$$
=
 OpenBabel10222421113D

 34 37  0  0  1  0  0  0  0  0999 V2000
  190.3580  177.4560  143.5200 C   0  0  0  0  0  0  0  0  0  0  0  0
  188.1200  177.5050  147.6410 C   0  0  0  0  0  0  0  0  0  0  0  0
  187.7580  175.5100  143.1490 O   0  0  0  0  0  1  0  0  0  0  0  0
  191.4510  177.8380  144.7580 S   0  0  0  0  0  0  0  0  0  0  0  0
  187.9170  176.8960  143.1650 C   0  0  2  0  0  3  0  0  0  0  0  0
  188.1160  177.4170  141.7270 C   0  0  2  0  0  3  0  0  0  0  0  0
  189.3960  177.8320  148.1390 C   0  0  0  0  0  3  0  0  0  0  0  0
  187.0700  177.3950  148.4880 F   0  0  0  0  0  0  0  0  0  0  0  0
  189.4990  177.0040  141.1560 C   0  0  2  0  0  3  0  0  0  0  0  0
  189.0460  177.4170  145.4280 C   0  0  0  0  0  0  0  0  0  0  0  0
  187.9380  177.2940  146.2650 C   0  0  0  0  0  3  0  0  0  0  0  0
  190.2820  177.7400  145.9650 C   0  0  0  0  0  0  0  0  0  0  0  0
  189.0830  177.2620  144.0410 C   0  0  0  0  0  0  0  0  0  0  0  0
  190.4620  177.9450  147.2940 N   0  0  0  0  0  0  0  0  0  0  0  0
  190.6330  177.3770  142.0820 C   0  0  0  0  0  0  0  0  0  0  0  0
  191.8010  177.5450  141.6420 O   0  0  0  0  0  0  0  0  0  0  0  0
  189.7060  177.5620  139.8260 N   0  0  0  0  0  2  0  0  0  0  0  0
  189.3100  177.0720  137.5140 C   0  0  0  0  0  2  0  0  0  0  0  0
  188.8940  176.7860  138.9030 C   0  0  2  0  0  3  0  0  0  0  0  0
  188.1680  177.6650  138.0790 O   0  0  0  0  0  0  0  0  0  0  0  0
  187.9130  178.9340  141.6620 C   0  0  0  0  0  2  0  0  0  0  0  0
  186.4800  179.3240  141.9940 C   0  0  0  0  0  2  0  0  0  0  0  0
  185.4920  178.6360  141.0570 C   0  0  1  0  0  3  0  0  0  0  0  0
  184.5700  177.8800  141.7660 F   0  0  0  0  0  0  0  0  0  0  0  0
  184.8250  179.6020  140.1870 N   0  0  0  0  0  2  0  0  0  0  0  0
  184.3070  178.9270  139.0010 C   0  0  0  0  0  2  0  0  0  0  0  0
  182.7920  179.0340  138.9630 C   0  0  0  0  0  2  0  0  0  0  0  0
  182.1830  177.7450  139.2600 N   0  0  0  0  0  2  0  0  0  0  0  0
  181.5650  177.8360  140.5750 C   0  0  0  0  0  2  0  0  0  0  0  0
  181.1770  179.1560  140.8260 O   0  0  0  0  0  0  0  0  0  0  0  0
  180.6780  179.1840  142.4470 P   0  0  0  0  0  0  0  0  0  0  0  0
  180.0780  180.7230  142.8110 O   0  0  0  0  0  1  0  0  0  0  0  0
  181.8500  178.8860  143.3540 O   0  0  0  0  0  1  0  0  0  0  0  0
  179.4580  178.0390  142.7000 O   0  0  0  0  0  0  0  0  0  0  0  0
  1 13  2  0  0  0  0
  1  4  1  0  0  0  0
  2  7  1  0  0  0  0
  2  8  1  0  0  0  0
  4 12  1  0  0  0  0
  5  3  1  6  0  0  0
  5 13  1  0  0  0  0
  6 21  1  1  0  0  0
  6  5  1  0  0  0  0
  9 17  1  6  0  0  0
  9  6  1  0  0  0  0
  9 15  1  0  0  0  0
 10 12  2  0  0  0  0
 10 11  1  0  0  0  0
 11  2  2  0  0  0  0
 12 14  1  0  0  0  0
 13 10  1  0  0  0  0
 14  7  2  0  0  0  0
 15  1  1  0  0  0  0
 16 15  2  0  0  0  0
 18 20  1  0  0  0  0
 18 19  1  0  0  0  0
 19 17  1  1  0  0  0
 20 19  1  0  0  0  0
 21 22  1  0  0  0  0
 23 24  1  1  0  0  0
 23 22  1  0  0  0  0
 25 23  1  0  0  0  0
 26 25  1  0  0  0  0
 27 26  1  0  0  0  0
 27 28  1  0  0  0  0
 28 29  1  0  0  0  0
 29 30  1  0  0  0  0
 30 31  1  0  0  0  0
 31 34  2  0  0  0  0
 31 32  1  0  0  0  0
 31 33  1  0  0  0  0
M  END
>  <MODEL>
5

>  <REMARK>
 VINA RESULT:      -6.6      3.951      6.924
  Name = 
  12 active torsions:
  status: ('A' for Active; 'I' for Inactive)
    1  A    between atoms: C_2  and  O_4
    2  A    between atoms: C_2  and  N_12
    3  A    between atoms: O_4  and  P_13
    4  A    between atoms: N_5  and  C_18
    5  A    between atoms: N_5  and  C_29
    6  A    between atoms: C_6  and  C_8
    7  A    between atoms: C_6  and  N_12
    8  A    between atoms: C_8  and  N_16
    9  A    between atoms: C_11  and  C_23
   10  A    between atoms: C_15  and  C_23
   11  A    between atoms: C_15  and  C_32
   12  A    between atoms: N_16  and  C_32
                            x       y       z     vdW  Elec       q    Type
                         _______ _______ _______ _____ _____    ______ ____

>  <TORSDO>
F 12

$$$$
=
 OpenBabel10222421113D

 34 37  0  0  1  0  0  0  0  0999 V2000
  188.1340  176.3850  137.4700 C   0  0  0  0  0  0  0  0  0  0  0  0
  184.2080  178.6800  138.6160 C   0  0  0  0  0  0  0  0  0  0  0  0
  189.0470  179.4590  138.1080 O   0  0  0  0  0  1  0  0  0  0  0  0
  186.7970  175.6110  136.7730 S   0  0  0  0  0  0  0  0  0  0  0  0
  188.7090  178.3770  138.9200 C   0  0  2  0  0  3  0  0  0  0  0  0
  189.9810  177.5930  139.3070 C   0  0  2  0  0  3  0  0  0  0  0  0
  183.5960  177.6760  137.8410 C   0  0  0  0  0  3  0  0  0  0  0  0
  183.4530  179.6390  139.2020 F   0  0  0  0  0  0  0  0  0  0  0  0
  190.5720  176.8300  138.0920 C   0  0  2  0  0  3  0  0  0  0  0  0
  186.3420  177.6790  138.1610 C   0  0  0  0  0  0  0  0  0  0  0  0
  185.6020  178.6840  138.7810 C   0  0  0  0  0  3  0  0  0  0  0  0
  185.6940  176.7130  137.4070 C   0  0  0  0  0  0  0  0  0  0  0  0
  187.7250  177.4930  138.2050 C   0  0  0  0  0  0  0  0  0  0  0  0
  184.3480  176.7040  137.2460 N   0  0  0  0  0  0  0  0  0  0  0  0
  189.5390  175.9730  137.3980 C   0  0  0  0  0  0  0  0  0  0  0  0
  189.8800  174.9730  136.7140 O   0  0  0  0  0  0  0  0  0  0  0  0
  191.7300  176.0370  138.4840 N   0  0  0  0  0  2  0  0  0  0  0  0
  193.6230  175.7530  137.0440 C   0  0  0  0  0  2  0  0  0  0  0  0
  192.9060  176.6900  137.9330 C   0  0  2  0  0  3  0  0  0  0  0  0
  194.0560  175.9990  138.3580 O   0  0  0  0  0  0  0  0  0  0  0  0
  189.7060  176.6500  140.4830 C   0  0  0  0  0  2  0  0  0  0  0  0
  189.2460  177.4110  141.7180 C   0  0  0  0  0  2  0  0  0  0  0  0
  188.8260  176.4530  142.8280 C   0  0  1  0  0  3  0  0  0  0  0  0
  189.9020  176.1170  143.6360 F   0  0  0  0  0  0  0  0  0  0  0  0
  187.7270  177.0050  143.6180 N   0  0  0  0  0  2  0  0  0  0  0  0
  188.2560  177.8720  144.6660 C   0  0  0  0  0  2  0  0  0  0  0  0
  187.3130  177.8790  145.8580 C   0  0  0  0  0  2  0  0  0  0  0  0
  188.0110  177.4470  147.0600 N   0  0  0  0  0  2  0  0  0  0  0  0
  189.4360  177.4200  146.7630 C   0  0  0  0  0  2  0  0  0  0  0  0
  190.0050  176.2500  147.2770 O   0  0  0  0  0  0  0  0  0  0  0  0
  191.6700  176.3880  146.9850 P   0  0  0  0  0  0  0  0  0  0  0  0
  192.4310  176.9410  148.3910 O   0  0  0  0  0  1  0  0  0  0  0  0
  191.9190  177.3760  145.8680 O   0  0  0  0  0  0  0  0  0  0  0  0
  192.3140  174.8810  146.5630 O   0  0  0  0  0  1  0  0  0  0  0  0
  1 13  2  0  0  0  0
  2 11  1  0  0  0  0
  2  8  1  0  0  0  0
  4 12  1  0  0  0  0
  4  1  1  0  0  0  0
  5  3  1  6  0  0  0
  5  6  1  0  0  0  0
  6 21  1  1  0  0  0
  7  2  2  0  0  0  0
  9 17  1  1  0  0  0
  9  6  1  0  0  0  0
 10 13  1  0  0  0  0
 10 11  2  0  0  0  0
 12 10  1  0  0  0  0
 13  5  1  0  0  0  0
 14 12  2  0  0  0  0
 14  7  1  0  0  0  0
 15  1  1  0  0  0  0
 15  9  1  0  0  0  0
 16 15  2  0  0  0  0
 18 19  1  0  0  0  0
 18 20  1  0  0  0  0
 19 20  1  0  0  0  0
 19 17  1  1  0  0  0
 21 22  1  0  0  0  0
 22 23  1  0  0  0  0
 23 25  1  0  0  0  0
 23 24  1  1  0  0  0
 25 26  1  0  0  0  0
 26 27  1  0  0  0  0
 27 28  1  0  0  0  0
 29 28  1  0  0  0  0
 29 30  1  0  0  0  0
 31 30  1  0  0  0  0
 31 32  1  0  0  0  0
 33 31  2  0  0  0  0
 34 31  1  0  0  0  0
M  END
>  <MODEL>
6

>  <REMARK>
 VINA RESULT:      -6.5      3.711      7.669
  Name = 
  12 active torsions:
  status: ('A' for Active; 'I' for Inactive)
    1  A    between atoms: C_2  and  O_4
    2  A    between atoms: C_2  and  N_12
    3  A    between atoms: O_4  and  P_13
    4  A    between atoms: N_5  and  C_18
    5  A    between atoms: N_5  and  C_29
    6  A    between atoms: C_6  and  C_8
    7  A    between atoms: C_6  and  N_12
    8  A    between atoms: C_8  and  N_16
    9  A    between atoms: C_11  and  C_23
   10  A    between atoms: C_15  and  C_23
   11  A    between atoms: C_15  and  C_32
   12  A    between atoms: N_16  and  C_32
                            x       y       z     vdW  Elec       q    Type
                         _______ _______ _______ _____ _____    ______ ____

>  <TORSDO>
F 12

$$$$
=
 OpenBabel10222421113D

 34 37  0  0  1  0  0  0  0  0999 V2000
  187.9450  176.3690  137.4420 C   0  0  0  0  0  0  0  0  0  0  0  0
  184.2110  178.9710  138.5690 C   0  0  0  0  0  0  0  0  0  0  0  0
  189.0570  179.4220  137.8010 O   0  0  0  0  0  1  0  0  0  0  0  0
  186.5360  175.6260  136.8630 S   0  0  0  0  0  0  0  0  0  0  0  0
  188.6960  178.4260  138.7080 C   0  0  2  0  0  3  0  0  0  0  0  0
  189.9390  177.6000  139.1010 C   0  0  2  0  0  3  0  0  0  0  0  0
  183.5080  177.9500  137.9010 C   0  0  0  0  0  3  0  0  0  0  0  0
  183.5380  180.0150  139.1100 F   0  0  0  0  0  0  0  0  0  0  0  0
  190.4300  176.7140  137.9250 C   0  0  2  0  0  3  0  0  0  0  0  0
  186.2610  177.8150  138.1040 C   0  0  0  0  0  0  0  0  0  0  0  0
  185.6080  178.9060  138.6750 C   0  0  0  0  0  3  0  0  0  0  0  0
  185.5270  176.8350  137.4560 C   0  0  0  0  0  0  0  0  0  0  0  0
  187.6330  177.5510  138.1050 C   0  0  0  0  0  0  0  0  0  0  0  0
  184.1760  176.8940  137.3520 N   0  0  0  0  0  0  0  0  0  0  0  0
  189.3200  175.8710  137.3430 C   0  0  0  0  0  0  0  0  0  0  0  0
  189.5730  174.8030  136.7250 O   0  0  0  0  0  0  0  0  0  0  0  0
  191.5590  175.8850  138.3290 N   0  0  0  0  0  2  0  0  0  0  0  0
  193.8360  175.4610  137.7130 C   0  0  0  0  0  2  0  0  0  0  0  0
  192.7530  176.4670  137.7380 C   0  0  2  0  0  3  0  0  0  0  0  0
  193.7850  176.4670  138.6940 O   0  0  0  0  0  0  0  0  0  0  0  0
  189.6670  176.7660  140.3560 C   0  0  0  0  0  2  0  0  0  0  0  0
  190.7600  176.9460  141.4000 C   0  0  0  0  0  2  0  0  0  0  0  0
  190.2780  176.5120  142.7800 C   0  0  1  0  0  3  0  0  0  0  0  0
  190.1840  175.1310  142.8680 F   0  0  0  0  0  0  0  0  0  0  0  0
  191.1360  177.0500  143.8350 N   0  0  0  0  0  2  0  0  0  0  0  0
  190.4940  178.2030  144.4570 C   0  0  0  0  0  2  0  0  0  0  0  0
  189.0360  177.8900  144.7480 C   0  0  0  0  0  2  0  0  0  0  0  0
  188.9070  177.2110  146.0290 N   0  0  0  0  0  2  0  0  0  0  0  0
  187.8240  177.8470  146.7640 C   0  0  0  0  0  2  0  0  0  0  0  0
  186.5940  177.3500  146.3220 O   0  0  0  0  0  0  0  0  0  0  0  0
  185.5520  178.6880  146.2750 P   0  0  0  0  0  0  0  0  0  0  0  0
  186.0550  179.8170  147.4300 O   0  0  0  0  0  1  0  0  0  0  0  0
  184.1390  178.2530  146.5950 O   0  0  0  0  0  1  0  0  0  0  0  0
  185.5920  179.4050  144.7430 O   0  0  0  0  0  0  0  0  0  0  0  0
  1 13  2  0  0  0  0
  2 11  1  0  0  0  0
  2  8  1  0  0  0  0
  4  1  1  0  0  0  0
  4 12  1  0  0  0  0
  5  3  1  6  0  0  0
  5  6  1  0  0  0  0
  6 21  1  1  0  0  0
  7  2  2  0  0  0  0
  9 17  1  1  0  0  0
  9  6  1  0  0  0  0
 10 13  1  0  0  0  0
 10 11  2  0  0  0  0
 12 10  1  0  0  0  0
 13  5  1  0  0  0  0
 14 12  2  0  0  0  0
 14  7  1  0  0  0  0
 15  1  1  0  0  0  0
 15  9  1  0  0  0  0
 16 15  2  0  0  0  0
 18 19  1  0  0  0  0
 18 20  1  0  0  0  0
 19 17  1  1  0  0  0
 19 20  1  0  0  0  0
 21 22  1  0  0  0  0
 22 23  1  0  0  0  0
 23 24  1  6  0  0  0
 23 25  1  0  0  0  0
 25 26  1  0  0  0  0
 26 27  1  0  0  0  0
 27 28  1  0  0  0  0
 28 29  1  0  0  0  0
 30 29  1  0  0  0  0
 31 30  1  0  0  0  0
 31 33  1  0  0  0  0
 31 32  1  0  0  0  0
 34 31  2  0  0  0  0
M  END
>  <MODEL>
7

>  <REMARK>
 VINA RESULT:      -6.4      3.741      7.278
  Name = 
  12 active torsions:
  status: ('A' for Active; 'I' for Inactive)
    1  A    between atoms: C_2  and  O_4
    2  A    between atoms: C_2  and  N_12
    3  A    between atoms: O_4  and  P_13
    4  A    between atoms: N_5  and  C_18
    5  A    between atoms: N_5  and  C_29
    6  A    between atoms: C_6  and  C_8
    7  A    between atoms: C_6  and  N_12
    8  A    between atoms: C_8  and  N_16
    9  A    between atoms: C_11  and  C_23
   10  A    between atoms: C_15  and  C_23
   11  A    between atoms: C_15  and  C_32
   12  A    between atoms: N_16  and  C_32
                            x       y       z     vdW  Elec       q    Type
                         _______ _______ _______ _____ _____    ______ ____

>  <TORSDO>
F 12

$$$$
=
 OpenBabel10222421113D

 34 37  0  0  1  0  0  0  0  0999 V2000
  190.4550  177.5390  143.5370 C   0  0  0  0  0  0  0  0  0  0  0  0
  187.8870  177.5030  147.4610 C   0  0  0  0  0  0  0  0  0  0  0  0
  188.1800  175.2330  143.0970 O   0  0  0  0  0  1  0  0  0  0  0  0
  191.3770  178.1370  144.8280 S   0  0  0  0  0  0  0  0  0  0  0  0
  188.1500  176.6260  143.0330 C   0  0  2  0  0  3  0  0  0  0  0  0
  188.4000  177.0900  141.5830 C   0  0  2  0  0  3  0  0  0  0  0  0
  189.0610  178.0310  148.0330 C   0  0  0  0  0  3  0  0  0  0  0  0
  186.7920  177.2950  148.2300 F   0  0  0  0  0  0  0  0  0  0  0  0
  189.8690  176.8430  141.1490 C   0  0  2  0  0  3  0  0  0  0  0  0
  189.0020  177.4230  145.3370 C   0  0  0  0  0  0  0  0  0  0  0  0
  187.8530  177.1940  146.0920 C   0  0  0  0  0  3  0  0  0  0  0  0
  190.1330  177.9430  145.9450 C   0  0  0  0  0  0  0  0  0  0  0  0
  189.1780  177.1990  143.9700 C   0  0  0  0  0  0  0  0  0  0  0  0
  190.1700  178.2450  147.2670 N   0  0  0  0  0  0  0  0  0  0  0  0
  190.8600  177.4200  142.1330 C   0  0  0  0  0  0  0  0  0  0  0  0
  192.0280  177.7240  141.7740 O   0  0  0  0  0  0  0  0  0  0  0  0
  190.1120  177.3500  139.8050 N   0  0  0  0  0  2  0  0  0  0  0  0
  190.8560  176.5420  137.6750 C   0  0  0  0  0  2  0  0  0  0  0  0
  190.9920  176.4040  139.1400 C   0  0  2  0  0  3  0  0  0  0  0  0
  190.2150  175.5100  138.3800 O   0  0  0  0  0  0  0  0  0  0  0  0
  188.0010  178.5580  141.4020 C   0  0  0  0  0  2  0  0  0  0  0  0
  186.7060  178.6970  140.6160 C   0  0  0  0  0  2  0  0  0  0  0  0
  185.5270  178.9740  141.5440 C   0  0  1  0  0  3  0  0  0  0  0  0
  184.5890  177.9540  141.4830 F   0  0  0  0  0  0  0  0  0  0  0  0
  185.9740  179.1970  142.9180 N   0  0  0  0  0  2  0  0  0  0  0  0
  185.1900  178.3760  143.8340 C   0  0  0  0  0  2  0  0  0  0  0  0
  184.3960  179.2640  144.7770 C   0  0  0  0  0  2  0  0  0  0  0  0
  183.0310  178.7740  144.9090 N   0  0  0  0  0  2  0  0  0  0  0  0
  182.2950  179.1810  143.7210 C   0  0  0  0  0  2  0  0  0  0  0  0
  180.9380  178.8810  143.8780 O   0  0  0  0  0  0  0  0  0  0  0  0
  180.2530  179.0460  142.3350 P   0  0  0  0  0  0  0  0  0  0  0  0
  179.7930  180.6580  142.1070 O   0  0  0  0  0  1  0  0  0  0  0  0
  179.0300  178.1630  142.2160 O   0  0  0  0  0  1  0  0  0  0  0  0
  181.3800  178.6170  141.1490 O   0  0  0  0  0  0  0  0  0  0  0  0
  1 13  2  0  0  0  0
  1  4  1  0  0  0  0
  2  7  1  0  0  0  0
  2  8  1  0  0  0  0
  4 12  1  0  0  0  0
  5  3  1  6  0  0  0
  5 13  1  0  0  0  0
  6 21  1  1  0  0  0
  6  5  1  0  0  0  0
  9 17  1  6  0  0  0
  9  6  1  0  0  0  0
  9 15  1  0  0  0  0
 10 12  2  0  0  0  0
 10 11  1  0  0  0  0
 11  2  2  0  0  0  0
 12 14  1  0  0  0  0
 13 10  1  0  0  0  0
 14  7  2  0  0  0  0
 15  1  1  0  0  0  0
 16 15  2  0  0  0  0
 18 20  1  0  0  0  0
 18 19  1  0  0  0  0
 19 17  1  1  0  0  0
 20 19  1  0  0  0  0
 22 21  1  0  0  0  0
 22 23  1  0  0  0  0
 23 24  1  1  0  0  0
 23 25  1  0  0  0  0
 25 26  1  0  0  0  0
 26 27  1  0  0  0  0
 27 28  1  0  0  0  0
 29 30  1  0  0  0  0
 29 28  1  0  0  0  0
 31 30  1  0  0  0  0
 32 31  1  0  0  0  0
 33 31  1  0  0  0  0
 34 31  2  0  0  0  0
M  END
>  <MODEL>
8

>  <REMARK>
 VINA RESULT:      -6.2      3.679      6.909
  Name = 
  12 active torsions:
  status: ('A' for Active; 'I' for Inactive)
    1  A    between atoms: C_2  and  O_4
    2  A    between atoms: C_2  and  N_12
    3  A    between atoms: O_4  and  P_13
    4  A    between atoms: N_5  and  C_18
    5  A    between atoms: N_5  and  C_29
    6  A    between atoms: C_6  and  C_8
    7  A    between atoms: C_6  and  N_12
    8  A    between atoms: C_8  and  N_16
    9  A    between atoms: C_11  and  C_23
   10  A    between atoms: C_15  and  C_23
   11  A    between atoms: C_15  and  C_32
   12  A    between atoms: N_16  and  C_32
                            x       y       z     vdW  Elec       q    Type
                         _______ _______ _______ _____ _____    ______ ____

>  <TORSDO>
F 12

$$$$
=
 OpenBabel10222421113D

 34 37  0  0  1  0  0  0  0  0999 V2000
  187.9330  176.2050  137.3610 C   0  0  0  0  0  0  0  0  0  0  0  0
  184.0360  178.6220  138.3420 C   0  0  0  0  0  0  0  0  0  0  0  0
  188.8600  179.3290  137.6290 O   0  0  0  0  0  1  0  0  0  0  0  0
  186.5790  175.3620  136.7880 S   0  0  0  0  0  0  0  0  0  0  0  0
  188.5430  178.3440  138.5650 C   0  0  2  0  0  3  0  0  0  0  0  0
  189.8250  177.6060  139.0040 C   0  0  2  0  0  3  0  0  0  0  0  0
  183.4050  177.5390  137.6990 C   0  0  0  0  0  3  0  0  0  0  0  0
  183.2950  179.6420  138.8360 F   0  0  0  0  0  0  0  0  0  0  0  0
  190.3860  176.7110  137.8680 C   0  0  2  0  0  3  0  0  0  0  0  0
  186.1580  177.5720  137.9480 C   0  0  0  0  0  0  0  0  0  0  0  0
  185.4330  178.6420  138.4700 C   0  0  0  0  0  3  0  0  0  0  0  0
  185.4920  176.5290  137.3230 C   0  0  0  0  0  0  0  0  0  0  0  0
  187.5420  177.3890  137.9770 C   0  0  0  0  0  0  0  0  0  0  0  0
  184.1420  176.5060  137.1980 N   0  0  0  0  0  0  0  0  0  0  0  0
  189.3360  175.7850  137.3000 C   0  0  0  0  0  0  0  0  0  0  0  0
  189.6600  174.7130  136.7220 O   0  0  0  0  0  0  0  0  0  0  0  0
  191.5540  175.9640  138.3160 N   0  0  0  0  0  2  0  0  0  0  0  0
  193.8220  175.4760  137.7170 C   0  0  0  0  0  2  0  0  0  0  0  0
  192.6740  176.3780  137.4880 C   0  0  2  0  0  3  0  0  0  0  0  0
  193.7490  176.7430  138.3190 O   0  0  0  0  0  0  0  0  0  0  0  0
  189.5800  176.8000  140.2840 C   0  0  0  0  0  2  0  0  0  0  0  0
  190.3480  177.3760  141.4660 C   0  0  0  0  0  2  0  0  0  0  0  0
  189.4830  177.4010  142.7220 C   0  0  1  0  0  3  0  0  0  0  0  0
  189.0420  176.1280  143.0540 F   0  0  0  0  0  0  0  0  0  0  0  0
  190.1900  178.0220  143.8410 N   0  0  0  0  0  2  0  0  0  0  0  0
  191.5280  177.4520  143.9600 C   0  0  0  0  0  2  0  0  0  0  0  0
  191.5450  176.3890  145.0450 C   0  0  0  0  0  2  0  0  0  0  0  0
  191.6810  177.0050  146.3580 N   0  0  0  0  0  2  0  0  0  0  0  0
  190.4440  176.7740  147.0880 C   0  0  0  0  0  2  0  0  0  0  0  0
  189.7720  177.9860  147.2790 O   0  0  0  0  0  0  0  0  0  0  0  0
  188.1250  177.5880  147.3550 P   0  0  0  0  0  0  0  0  0  0  0  0
  187.2860  178.8580  148.0920 O   0  0  0  0  0  1  0  0  0  0  0  0
  187.9350  176.3300  148.1750 O   0  0  0  0  0  1  0  0  0  0  0  0
  187.5110  177.3480  145.7970 O   0  0  0  0  0  0  0  0  0  0  0  0
  1 13  2  0  0  0  0
  2 11  1  0  0  0  0
  2  8  1  0  0  0  0
  4 12  1  0  0  0  0
  4  1  1  0  0  0  0
  5  3  1  6  0  0  0
  5  6  1  0  0  0  0
  6 21  1  1  0  0  0
  7  2  2  0  0  0  0
  9 17  1  1  0  0  0
  9  6  1  0  0  0  0
 10 13  1  0  0  0  0
 10 11  2  0  0  0  0
 12 10  1  0  0  0  0
 13  5  1  0  0  0  0
 14 12  2  0  0  0  0
 14  7  1  0  0  0  0
 15  1  1  0  0  0  0
 15  9  1  0  0  0  0
 16 15  2  0  0  0  0
 18 20  1  0  0  0  0
 19 18  1  0  0  0  0
 19 17  1  1  0  0  0
 19 20  1  0  0  0  0
 21 22  1  0  0  0  0
 22 23  1  0  0  0  0
 23 24  1  1  0  0  0
 23 25  1  0  0  0  0
 25 26  1  0  0  0  0
 26 27  1  0  0  0  0
 27 28  1  0  0  0  0
 28 29  1  0  0  0  0
 29 30  1  0  0  0  0
 30 31  1  0  0  0  0
 31 32  1  0  0  0  0
 31 33  1  0  0  0  0
 34 31  2  0  0  0  0
M  END
>  <MODEL>
9

>  <REMARK>
 VINA RESULT:      -6.1      3.774      7.464
  Name = 
  12 active torsions:
  status: ('A' for Active; 'I' for Inactive)
    1  A    between atoms: C_2  and  O_4
    2  A    between atoms: C_2  and  N_12
    3  A    between atoms: O_4  and  P_13
    4  A    between atoms: N_5  and  C_18
    5  A    between atoms: N_5  and  C_29
    6  A    between atoms: C_6  and  C_8
    7  A    between atoms: C_6  and  N_12
    8  A    between atoms: C_8  and  N_16
    9  A    between atoms: C_11  and  C_23
   10  A    between atoms: C_15  and  C_23
   11  A    between atoms: C_15  and  C_32
   12  A    between atoms: N_16  and  C_32
                            x       y       z     vdW  Elec       q    Type
                         _______ _______ _______ _____ _____    ______ ____

>  <TORSDO>
F 12

$$$$
