=
 OpenBabel10222418073D

 25 28  0  0  1  0  0  0  0  0999 V2000
  190.4180  177.0910  143.7250 C   0  0  2  0  0  3  0  0  0  0  0  0
  191.7130  177.8730  143.6350 C   0  0  0  0  0  2  0  0  0  0  0  0
  190.7220  177.9220  142.4920 C   0  0  1  0  0  3  0  0  0  0  0  0
  189.5370  177.3930  145.9460 C   0  0  0  0  0  3  0  0  0  0  0  0
  184.6130  179.6380  145.0000 C   0  0  0  0  0  2  0  0  0  0  0  0
  186.5820  178.5450  146.1310 C   0  0  0  0  0  0  0  0  0  0  0  0
  184.4400  178.2700  144.3470 C   0  0  0  0  0  2  0  0  0  0  0  0
  186.9900  178.1680  147.3740 C   0  0  0  0  0  3  0  0  0  0  0  0
  185.5200  179.5100  146.1370 N   0  0  0  0  0  2  0  0  0  0  0  0
  188.0880  177.4920  144.1970 O   0  0  0  0  0  0  0  0  0  0  0  0
  185.7960  177.7560  143.9650 C   0  0  0  0  0  3  0  0  0  0  0  0
  186.8500  177.8760  144.7820 C   0  0  0  0  0  0  0  0  0  0  0  0
  189.4220  177.8370  144.5950 C   0  0  2  0  0  3  0  0  0  0  0  0
  189.0370  177.1280  146.9820 C   0  0  0  0  0  3  0  0  0  0  0  0
  187.9050  177.0640  147.8480 C   0  0  0  0  0  2  0  0  0  0  0  0
  190.3110  175.9230  137.9620 C   0  0  0  0  0  2  0  0  0  0  0  0
  190.5070  176.9870  140.1550 C   0  0  0  0  0  0  0  0  0  0  0  0
  190.9100  176.1060  139.2850 N   0  0  0  0  0  0  0  0  0  0  0  0
  191.1560  177.0360  141.4260 N   0  0  0  0  0  2  0  0  0  0  0  0
  189.7140  177.2300  137.4410 C   0  0  2  0  0  3  0  0  0  0  0  0
  188.7300  177.7130  138.5000 C   0  0  0  0  0  2  0  0  0  0  0  0
  189.4650  178.0220  139.8010 C   0  0  0  0  0  2  0  0  0  0  0  0
  188.4900  175.5810  136.0010 C   0  0  0  0  0  1  0  0  0  0  0  0
  187.8090  177.9470  135.9570 C   0  0  0  0  0  1  0  0  0  0  0  0
  188.9970  177.0100  136.1060 C   0  0  0  0  0  3  0  0  0  0  0  0
  1  2  1  1  0  0  0
  1 13  1  0  0  0  0
  3 19  1  6  0  0  0
  3  2  1  0  0  0  0
  3  1  1  0  0  0  0
  4 14  2  0  0  0  0
  5  9  1  0  0  0  0
  6  9  1  0  0  0  0
  6  8  2  0  0  0  0
  7  5  1  0  0  0  0
  8 15  1  0  0  0  0
 10 13  1  0  0  0  0
 10 12  1  0  0  0  0
 11  7  1  0  0  0  0
 11 12  2  0  0  0  0
 12  6  1  0  0  0  0
 13  4  1  1  0  0  0
 14 15  1  0  0  0  0
 16 18  1  0  0  0  0
 17 19  1  0  0  0  0
 18 17  2  0  0  0  0
 20 25  1  6  0  0  0
 20 16  1  0  0  0  0
 20 21  1  0  0  0  0
 21 22  1  0  0  0  0
 22 17  1  0  0  0  0
 23 25  1  0  0  0  0
 24 25  1  0  0  0  0
M  END
>  <MODEL>
1

>  <REMARK>
 VINA RESULT:      -8.4      0.000      0.000
  Name = 
  3 active torsions:
  status: ('A' for Active; 'I' for Inactive)
    1  A    between atoms: C_3  and  C_19
    2  A    between atoms: C_12  and  N_21
    3  A    between atoms: C_18  and  C_23
                            x       y       z     vdW  Elec       q    Type
                         _______ _______ _______ _____ _____    ______ ____

>  <TORSDO>
F 3

$$$$
=
 OpenBabel10222418073D

 25 28  0  0  1  0  0  0  0  0999 V2000
  189.4000  178.0110  139.7500 C   0  0  2  0  0  3  0  0  0  0  0  0
  190.6900  177.2680  139.4710 C   0  0  0  0  0  2  0  0  0  0  0  0
  189.8550  176.9010  140.6780 C   0  0  1  0  0  3  0  0  0  0  0  0
  188.6640  177.6650  137.4830 C   0  0  0  0  0  3  0  0  0  0  0  0
  183.2150  177.2240  138.0360 C   0  0  0  0  0  2  0  0  0  0  0  0
  185.5220  177.4700  137.0510 C   0  0  0  0  0  0  0  0  0  0  0  0
  183.4400  178.6610  138.4970 C   0  0  0  0  0  2  0  0  0  0  0  0
  186.1360  177.5100  135.8360 C   0  0  0  0  0  3  0  0  0  0  0  0
  184.2090  176.8920  137.0180 N   0  0  0  0  0  2  0  0  0  0  0  0
  187.1160  178.2850  139.0290 O   0  0  0  0  0  0  0  0  0  0  0  0
  184.8520  178.7810  138.9910 C   0  0  0  0  0  3  0  0  0  0  0  0
  185.8760  178.2190  138.3370 C   0  0  0  0  0  0  0  0  0  0  0  0
  188.2950  177.4880  138.8500 C   0  0  2  0  0  3  0  0  0  0  0  0
  188.3680  177.9110  136.3670 C   0  0  0  0  0  3  0  0  0  0  0  0
  187.3960  178.1920  135.3600 C   0  0  0  0  0  2  0  0  0  0  0  0
  189.6710  178.3190  145.4360 C   0  0  0  0  0  2  0  0  0  0  0  0
  189.7330  177.5420  143.1190 C   0  0  0  0  0  0  0  0  0  0  0  0
  190.2880  178.1650  144.1180 N   0  0  0  0  0  0  0  0  0  0  0  0
  190.4290  177.4950  141.8730 N   0  0  0  0  0  2  0  0  0  0  0  0
  188.7310  177.1550  145.7460 C   0  0  2  0  0  3  0  0  0  0  0  0
  187.7280  177.0870  144.6020 C   0  0  0  0  0  2  0  0  0  0  0  0
  188.4430  176.7740  143.2900 C   0  0  0  0  0  2  0  0  0  0  0  0
  188.9160  178.0840  148.0680 C   0  0  0  0  0  1  0  0  0  0  0  0
  186.7550  178.2140  146.8950 C   0  0  0  0  0  1  0  0  0  0  0  0
  188.0080  177.3730  147.0780 C   0  0  0  0  0  3  0  0  0  0  0  0
  1  2  1  6  0  0  0
  1  3  1  0  0  0  0
  2  3  1  0  0  0  0
  3 19  1  1  0  0  0
  5  7  1  0  0  0  0
  6 12  1  0  0  0  0
  7 11  1  0  0  0  0
  8  6  2  0  0  0  0
  9  6  1  0  0  0  0
  9  5  1  0  0  0  0
 12 11  2  0  0  0  0
 12 10  1  0  0  0  0
 13  4  1  6  0  0  0
 13 10  1  0  0  0  0
 13  1  1  0  0  0  0
 14  4  2  0  0  0  0
 15  8  1  0  0  0  0
 15 14  1  0  0  0  0
 16 20  1  0  0  0  0
 17 22  1  0  0  0  0
 17 18  2  0  0  0  0
 18 16  1  0  0  0  0
 19 17  1  0  0  0  0
 20 25  1  1  0  0  0
 21 20  1  0  0  0  0
 22 21  1  0  0  0  0
 24 25  1  0  0  0  0
 25 23  1  0  0  0  0
M  END
>  <MODEL>
2

>  <REMARK>
 VINA RESULT:      -8.3      2.761      7.843
  Name = 
  3 active torsions:
  status: ('A' for Active; 'I' for Inactive)
    1  A    between atoms: C_3  and  C_19
    2  A    between atoms: C_12  and  N_21
    3  A    between atoms: C_18  and  C_23
                            x       y       z     vdW  Elec       q    Type
                         _______ _______ _______ _____ _____    ______ ____

>  <TORSDO>
F 3

$$$$
=
 OpenBabel10222418073D

 25 28  0  0  1  0  0  0  0  0999 V2000
  188.2810  177.5930  141.8020 C   0  0  2  0  0  3  0  0  0  0  0  0
  188.9200  178.3420  140.6500 C   0  0  0  0  0  2  0  0  0  0  0  0
  187.7110  178.9240  141.3500 C   0  0  1  0  0  3  0  0  0  0  0  0
  190.2910  177.0310  143.0040 C   0  0  0  0  0  3  0  0  0  0  0  0
  188.9610  178.2220  148.2010 C   0  0  0  0  0  2  0  0  0  0  0  0
  190.1600  177.3500  146.1630 C   0  0  0  0  0  0  0  0  0  0  0  0
  187.9770  177.0960  147.8980 C   0  0  0  0  0  2  0  0  0  0  0  0
  191.3320  176.7420  145.8260 C   0  0  0  0  0  3  0  0  0  0  0  0
  190.1900  177.9930  147.4460 N   0  0  0  0  0  2  0  0  0  0  0  0
  188.3660  177.2800  144.1900 O   0  0  0  0  0  0  0  0  0  0  0  0
  187.7570  177.0490  146.4150 C   0  0  0  0  0  3  0  0  0  0  0  0
  188.7700  177.1760  145.5500 C   0  0  0  0  0  0  0  0  0  0  0  0
  189.0920  177.8020  143.0680 C   0  0  2  0  0  3  0  0  0  0  0  0
  191.1130  176.3720  143.5370 C   0  0  0  0  0  3  0  0  0  0  0  0
  191.6960  175.7970  144.7060 C   0  0  0  0  0  2  0  0  0  0  0  0
  182.8320  178.1460  140.8320 C   0  0  0  0  0  2  0  0  0  0  0  0
  185.2150  178.6000  141.1350 C   0  0  0  0  0  0  0  0  0  0  0  0
  184.2110  178.2950  140.3650 N   0  0  0  0  0  0  0  0  0  0  0  0
  186.5190  178.6780  140.5580 N   0  0  0  0  0  2  0  0  0  0  0  0
  182.5630  179.0270  142.0510 C   0  0  2  0  0  3  0  0  0  0  0  0
  183.6090  178.6580  143.0950 C   0  0  0  0  0  2  0  0  0  0  0  0
  185.0080  178.9860  142.5810 C   0  0  0  0  0  2  0  0  0  0  0  0
  181.1770  178.7040  144.1170 C   0  0  0  0  0  1  0  0  0  0  0  0
  180.2090  179.9120  142.2020 C   0  0  0  0  0  1  0  0  0  0  0  0
  181.1530  178.7890  142.5990 C   0  0  0  0  0  3  0  0  0  0  0  0
  1  2  1  6  0  0  0
  1 13  1  0  0  0  0
  2  3  1  0  0  0  0
  3 19  1  6  0  0  0
  3  1  1  0  0  0  0
  4 14  2  0  0  0  0
  6  9  1  0  0  0  0
  7  5  1  0  0  0  0
  8  6  2  0  0  0  0
  9  5  1  0  0  0  0
 10 12  1  0  0  0  0
 11  7  1  0  0  0  0
 12  6  1  0  0  0  0
 12 11  2  0  0  0  0
 13  4  1  6  0  0  0
 13 10  1  0  0  0  0
 14 15  1  0  0  0  0
 15  8  1  0  0  0  0
 16 20  1  0  0  0  0
 17 22  1  0  0  0  0
 18 16  1  0  0  0  0
 18 17  2  0  0  0  0
 19 17  1  0  0  0  0
 20 25  1  1  0  0  0
 20 21  1  0  0  0  0
 22 21  1  0  0  0  0
 24 25  1  0  0  0  0
 25 23  1  0  0  0  0
M  END
>  <MODEL>
3

>  <REMARK>
 VINA RESULT:      -7.9      2.983      5.976
  Name = 
  3 active torsions:
  status: ('A' for Active; 'I' for Inactive)
    1  A    between atoms: C_3  and  C_19
    2  A    between atoms: C_12  and  N_21
    3  A    between atoms: C_18  and  C_23
                            x       y       z     vdW  Elec       q    Type
                         _______ _______ _______ _____ _____    ______ ____

>  <TORSDO>
F 3

$$$$
=
 OpenBabel10222418073D

 25 28  0  0  1  0  0  0  0  0999 V2000
  188.9440  177.9210  143.3380 C   0  0  2  0  0  3  0  0  0  0  0  0
  189.4400  177.2040  144.5770 C   0  0  0  0  0  2  0  0  0  0  0  0
  188.0250  176.9760  144.0900 C   0  0  1  0  0  3  0  0  0  0  0  0
  190.8890  177.2930  142.0640 C   0  0  0  0  0  3  0  0  0  0  0  0
  188.8280  176.4760  137.0360 C   0  0  0  0  0  2  0  0  0  0  0  0
  190.4240  176.8060  138.9580 C   0  0  0  0  0  0  0  0  0  0  0  0
  188.5540  177.9650  137.2260 C   0  0  0  0  0  2  0  0  0  0  0  0
  191.7610  176.7730  139.2180 C   0  0  0  0  0  3  0  0  0  0  0  0
  190.0520  176.1240  137.7510 N   0  0  0  0  0  2  0  0  0  0  0  0
  189.0270  177.9380  140.9290 O   0  0  0  0  0  0  0  0  0  0  0  0
  188.4780  178.2460  138.6970 C   0  0  0  0  0  3  0  0  0  0  0  0
  189.3450  177.7050  139.5620 C   0  0  0  0  0  0  0  0  0  0  0  0
  189.4640  177.2240  142.0930 C   0  0  2  0  0  3  0  0  0  0  0  0
  191.8950  177.4020  141.4570 C   0  0  0  0  0  3  0  0  0  0  0  0
  192.6150  177.5020  140.2280 C   0  0  0  0  0  2  0  0  0  0  0  0
  183.8160  179.5370  144.7310 C   0  0  0  0  0  2  0  0  0  0  0  0
  185.8400  178.2100  144.3830 C   0  0  0  0  0  0  0  0  0  0  0  0
  185.1060  178.9770  145.1370 N   0  0  0  0  0  0  0  0  0  0  0  0
  187.0990  177.7620  144.8870 N   0  0  0  0  0  2  0  0  0  0  0  0
  183.1110  178.6260  143.7270 C   0  0  2  0  0  3  0  0  0  0  0  0
  184.0800  178.4190  142.5710 C   0  0  0  0  0  2  0  0  0  0  0  0
  185.3340  177.6950  143.0560 C   0  0  0  0  0  2  0  0  0  0  0  0
  181.6260  179.0030  141.7410 C   0  0  0  0  0  1  0  0  0  0  0  0
  180.6040  178.7080  143.9620 C   0  0  0  0  0  1  0  0  0  0  0  0
  181.8120  179.2650  143.2270 C   0  0  0  0  0  3  0  0  0  0  0  0
  1  3  1  0  0  0  0
  1  2  1  1  0  0  0
  3  2  1  0  0  0  0
  3 19  1  1  0  0  0
  5  7  1  0  0  0  0
  5  9  1  0  0  0  0
  6  8  2  0  0  0  0
  6 12  1  0  0  0  0
  7 11  1  0  0  0  0
  8 15  1  0  0  0  0
  9  6  1  0  0  0  0
 10 13  1  0  0  0  0
 11 12  2  0  0  0  0
 12 10  1  0  0  0  0
 13  4  1  1  0  0  0
 13  1  1  0  0  0  0
 14  4  2  0  0  0  0
 15 14  1  0  0  0  0
 16 18  1  0  0  0  0
 17 19  1  0  0  0  0
 17 18  2  0  0  0  0
 20 25  1  6  0  0  0
 20 16  1  0  0  0  0
 21 22  1  0  0  0  0
 21 20  1  0  0  0  0
 22 17  1  0  0  0  0
 23 25  1  0  0  0  0
 25 24  1  0  0  0  0
M  END
>  <MODEL>
4

>  <REMARK>
 VINA RESULT:      -7.8      1.931      7.429
  Name = 
  3 active torsions:
  status: ('A' for Active; 'I' for Inactive)
    1  A    between atoms: C_3  and  C_19
    2  A    between atoms: C_12  and  N_21
    3  A    between atoms: C_18  and  C_23
                            x       y       z     vdW  Elec       q    Type
                         _______ _______ _______ _____ _____    ______ ____

>  <TORSDO>
F 3

$$$$
=
 OpenBabel10222418073D

 25 28  0  0  1  0  0  0  0  0999 V2000
  185.7320  178.9220  144.0740 C   0  0  2  0  0  3  0  0  0  0  0  0
  184.3770  178.2530  143.9730 C   0  0  0  0  0  2  0  0  0  0  0  0
  185.3370  178.1920  142.8040 C   0  0  1  0  0  3  0  0  0  0  0  0
  186.4520  178.2420  146.2700 C   0  0  0  0  0  3  0  0  0  0  0  0
  191.5020  176.2910  145.3360 C   0  0  0  0  0  2  0  0  0  0  0  0
  189.4200  177.1280  146.4820 C   0  0  0  0  0  0  0  0  0  0  0  0
  191.6810  177.7570  144.9530 C   0  0  0  0  0  2  0  0  0  0  0  0
  188.9070  177.2680  147.7360 C   0  0  0  0  0  3  0  0  0  0  0  0
  190.5090  176.1960  146.4020 N   0  0  0  0  0  2  0  0  0  0  0  0
  188.0310  178.4840  144.6520 O   0  0  0  0  0  0  0  0  0  0  0  0
  190.3410  178.3070  144.5610 C   0  0  0  0  0  3  0  0  0  0  0  0
  189.2330  178.0240  145.2570 C   0  0  0  0  0  0  0  0  0  0  0  0
  186.6830  178.0500  144.8750 C   0  0  2  0  0  3  0  0  0  0  0  0
  186.8630  178.3250  147.3730 C   0  0  0  0  0  3  0  0  0  0  0  0
  187.9250  178.2530  148.3240 C   0  0  0  0  0  2  0  0  0  0  0  0
  183.0900  179.5550  138.5870 C   0  0  0  0  0  2  0  0  0  0  0  0
  184.1210  178.8460  140.6880 C   0  0  0  0  0  0  0  0  0  0  0  0
  183.8920  179.7640  139.7940 N   0  0  0  0  0  0  0  0  0  0  0  0
  184.9530  179.1710  141.8020 N   0  0  0  0  0  2  0  0  0  0  0  0
  182.0210  178.4870  138.8140 C   0  0  2  0  0  3  0  0  0  0  0  0
  182.7470  177.2360  139.2930 C   0  0  0  0  0  2  0  0  0  0  0  0
  183.4310  177.5030  140.6310 C   0  0  0  0  0  2  0  0  0  0  0  0
  181.0120  179.4800  136.7430 C   0  0  0  0  0  1  0  0  0  0  0  0
  182.0230  177.2380  136.6260 C   0  0  0  0  0  1  0  0  0  0  0  0
  181.2540  178.1970  137.5200 C   0  0  0  0  0  3  0  0  0  0  0  0
  1  2  1  1  0  0  0
  1 13  1  0  0  0  0
  3 19  1  6  0  0  0
  3  2  1  0  0  0  0
  3  1  1  0  0  0  0
  4 14  2  0  0  0  0
  5  9  1  0  0  0  0
  6  8  2  0  0  0  0
  7  5  1  0  0  0  0
  8 15  1  0  0  0  0
  9  6  1  0  0  0  0
 10 13  1  0  0  0  0
 10 12  1  0  0  0  0
 11  7  1  0  0  0  0
 11 12  2  0  0  0  0
 12  6  1  0  0  0  0
 13  4  1  1  0  0  0
 14 15  1  0  0  0  0
 16 20  1  0  0  0  0
 16 18  1  0  0  0  0
 17 19  1  0  0  0  0
 18 17  2  0  0  0  0
 20 25  1  6  0  0  0
 20 21  1  0  0  0  0
 21 22  1  0  0  0  0
 22 17  1  0  0  0  0
 23 25  1  0  0  0  0
 24 25  1  0  0  0  0
M  END
>  <MODEL>
5

>  <REMARK>
 VINA RESULT:      -7.7      4.011      5.824
  Name = 
  3 active torsions:
  status: ('A' for Active; 'I' for Inactive)
    1  A    between atoms: C_3  and  C_19
    2  A    between atoms: C_12  and  N_21
    3  A    between atoms: C_18  and  C_23
                            x       y       z     vdW  Elec       q    Type
                         _______ _______ _______ _____ _____    ______ ____

>  <TORSDO>
F 3

$$$$
=
 OpenBabel10222418073D

 25 28  0  0  1  0  0  0  0  0999 V2000
  189.0160  177.9970  139.1300 C   0  0  2  0  0  3  0  0  0  0  0  0
  190.1150  177.2340  138.4190 C   0  0  0  0  0  2  0  0  0  0  0  0
  189.7950  176.9210  139.8650 C   0  0  1  0  0  3  0  0  0  0  0  0
  187.6390  177.1910  137.3260 C   0  0  0  0  0  3  0  0  0  0  0  0
  182.5550  177.8230  139.3130 C   0  0  0  0  0  2  0  0  0  0  0  0
  184.4990  177.4130  137.7630 C   0  0  0  0  0  0  0  0  0  0  0  0
  183.0270  179.2720  139.2520 C   0  0  0  0  0  2  0  0  0  0  0  0
  184.7430  177.0280  136.4790 C   0  0  0  0  0  3  0  0  0  0  0  0
  183.1850  177.0730  138.2300 N   0  0  0  0  0  2  0  0  0  0  0  0
  186.6550  178.4450  138.9480 O   0  0  0  0  0  0  0  0  0  0  0  0
  184.5260  179.2830  139.3230 C   0  0  0  0  0  3  0  0  0  0  0  0
  185.2680  178.4060  138.6350 C   0  0  0  0  0  0  0  0  0  0  0  0
  187.6600  177.4450  138.7300 C   0  0  2  0  0  3  0  0  0  0  0  0
  187.0610  177.1790  136.2970 C   0  0  0  0  0  3  0  0  0  0  0  0
  185.8710  177.3400  135.5250 C   0  0  0  0  0  2  0  0  0  0  0  0
  191.5580  178.2270  144.3220 C   0  0  0  0  0  2  0  0  0  0  0  0
  190.6840  177.5020  142.1570 C   0  0  0  0  0  0  0  0  0  0  0  0
  191.5530  178.1690  142.8600 N   0  0  0  0  0  0  0  0  0  0  0  0
  190.7690  177.5600  140.7330 N   0  0  0  0  0  2  0  0  0  0  0  0
  190.9680  176.9540  144.9270 C   0  0  2  0  0  3  0  0  0  0  0  0
  189.5790  176.7870  144.3240 C   0  0  0  0  0  2  0  0  0  0  0  0
  189.6800  176.5830  142.8150 C   0  0  0  0  0  2  0  0  0  0  0  0
  189.4480  176.8480  146.9200 C   0  0  0  0  0  1  0  0  0  0  0  0
  191.7610  176.0280  147.1320 C   0  0  0  0  0  1  0  0  0  0  0  0
  190.8790  177.0620  146.4520 C   0  0  0  0  0  3  0  0  0  0  0  0
  1  2  1  6  0  0  0
  1  3  1  0  0  0  0
  2  3  1  0  0  0  0
  3 19  1  1  0  0  0
  6  9  1  0  0  0  0
  6 12  1  0  0  0  0
  7  5  1  0  0  0  0
  7 11  1  0  0  0  0
  8  6  2  0  0  0  0
  9  5  1  0  0  0  0
 12 10  1  0  0  0  0
 12 11  2  0  0  0  0
 13  4  1  6  0  0  0
 13 10  1  0  0  0  0
 13  1  1  0  0  0  0
 14  4  2  0  0  0  0
 15 14  1  0  0  0  0
 15  8  1  0  0  0  0
 16 20  1  0  0  0  0
 17 22  1  0  0  0  0
 17 18  2  0  0  0  0
 18 16  1  0  0  0  0
 19 17  1  0  0  0  0
 20 25  1  1  0  0  0
 21 20  1  0  0  0  0
 22 21  1  0  0  0  0
 25 23  1  0  0  0  0
 25 24  1  0  0  0  0
M  END
>  <MODEL>
6

>  <REMARK>
 VINA RESULT:      -7.6      3.103      7.599
  Name = 
  3 active torsions:
  status: ('A' for Active; 'I' for Inactive)
    1  A    between atoms: C_3  and  C_19
    2  A    between atoms: C_12  and  N_21
    3  A    between atoms: C_18  and  C_23
                            x       y       z     vdW  Elec       q    Type
                         _______ _______ _______ _____ _____    ______ ____

>  <TORSDO>
F 3

$$$$
=
 OpenBabel10222418073D

 25 28  0  0  1  0  0  0  0  0999 V2000
  190.0860  175.9960  142.7480 C   0  0  2  0  0  3  0  0  0  0  0  0
  191.3440  176.7190  143.1830 C   0  0  0  0  0  2  0  0  0  0  0  0
  190.4250  177.3540  142.1630 C   0  0  1  0  0  3  0  0  0  0  0  0
  187.8520  176.7660  143.2110 C   0  0  0  0  0  3  0  0  0  0  0  0
  187.9340  177.5100  148.6540 C   0  0  0  0  0  2  0  0  0  0  0  0
  187.2420  177.5430  146.2310 C   0  0  0  0  0  0  0  0  0  0  0  0
  188.9610  178.5430  148.2030 C   0  0  0  0  0  2  0  0  0  0  0  0
  186.1820  177.9060  145.4570 C   0  0  0  0  0  3  0  0  0  0  0  0
  186.9140  177.3700  147.6180 N   0  0  0  0  0  2  0  0  0  0  0  0
  189.4460  177.0890  144.8000 O   0  0  0  0  0  0  0  0  0  0  0  0
  189.5200  178.1050  146.8820 C   0  0  0  0  0  3  0  0  0  0  0  0
  188.7370  177.6120  145.9150 C   0  0  0  0  0  0  0  0  0  0  0  0
  189.0030  176.1620  143.7990 C   0  0  2  0  0  3  0  0  0  0  0  0
  186.9280  177.4980  143.2880 C   0  0  0  0  0  3  0  0  0  0  0  0
  186.0880  178.3840  144.0280 C   0  0  0  0  0  2  0  0  0  0  0  0
  190.0230  177.1570  137.2140 C   0  0  0  0  0  2  0  0  0  0  0  0
  190.1810  177.3320  139.6480 C   0  0  0  0  0  0  0  0  0  0  0  0
  190.7250  177.0660  138.4960 N   0  0  0  0  0  0  0  0  0  0  0  0
  190.9670  177.1660  140.8280 N   0  0  0  0  0  2  0  0  0  0  0  0
  188.9210  178.2140  137.2630 C   0  0  2  0  0  3  0  0  0  0  0  0
  188.0170  177.8480  138.4340 C   0  0  0  0  0  2  0  0  0  0  0  0
  188.7940  177.9240  139.7450 C   0  0  0  0  0  2  0  0  0  0  0  0
  188.8790  177.5070  134.8570 C   0  0  0  0  0  1  0  0  0  0  0  0
  186.7700  177.5600  136.1270 C   0  0  0  0  0  1  0  0  0  0  0  0
  188.1220  178.2330  135.9570 C   0  0  0  0  0  3  0  0  0  0  0  0
  1  2  1  1  0  0  0
  1 13  1  0  0  0  0
  3 19  1  6  0  0  0
  3  1  1  0  0  0  0
  3  2  1  0  0  0  0
  4 14  2  0  0  0  0
  6  9  1  0  0  0  0
  7  5  1  0  0  0  0
  8  6  2  0  0  0  0
  9  5  1  0  0  0  0
 10 12  1  0  0  0  0
 11  7  1  0  0  0  0
 12  6  1  0  0  0  0
 12 11  2  0  0  0  0
 13  4  1  6  0  0  0
 13 10  1  0  0  0  0
 14 15  1  0  0  0  0
 15  8  1  0  0  0  0
 16 20  1  0  0  0  0
 16 18  1  0  0  0  0
 17 22  1  0  0  0  0
 17 19  1  0  0  0  0
 18 17  2  0  0  0  0
 20 25  1  6  0  0  0
 20 21  1  0  0  0  0
 21 22  1  0  0  0  0
 23 25  1  0  0  0  0
 25 24  1  0  0  0  0
M  END
>  <MODEL>
7

>  <REMARK>
 VINA RESULT:      -7.4      1.330      2.693
  Name = 
  3 active torsions:
  status: ('A' for Active; 'I' for Inactive)
    1  A    between atoms: C_3  and  C_19
    2  A    between atoms: C_12  and  N_21
    3  A    between atoms: C_18  and  C_23
                            x       y       z     vdW  Elec       q    Type
                         _______ _______ _______ _____ _____    ______ ____

>  <TORSDO>
F 3

$$$$
=
 OpenBabel10222418073D

 25 28  0  0  1  0  0  0  0  0999 V2000
  183.9170  179.0700  141.4050 C   0  0  2  0  0  3  0  0  0  0  0  0
  185.4010  179.3780  141.3970 C   0  0  0  0  0  2  0  0  0  0  0  0
  184.8900  178.1500  142.1200 C   0  0  1  0  0  3  0  0  0  0  0  0
  183.0450  179.4480  139.1930 C   0  0  0  0  0  3  0  0  0  0  0  0
  181.1040  174.5010  137.7960 C   0  0  0  0  0  2  0  0  0  0  0  0
  181.6070  176.9710  137.8180 C   0  0  0  0  0  0  0  0  0  0  0  0
  180.2060  174.8430  138.9810 C   0  0  0  0  0  2  0  0  0  0  0  0
  181.4190  178.0780  137.0470 C   0  0  0  0  0  3  0  0  0  0  0  0
  181.4630  175.7350  137.1020 N   0  0  0  0  0  2  0  0  0  0  0  0
  182.3880  177.5720  140.2960 O   0  0  0  0  0  0  0  0  0  0  0  0
  180.9330  175.8210  139.8560 C   0  0  0  0  0  3  0  0  0  0  0  0
  181.6240  176.8470  139.3420 C   0  0  0  0  0  0  0  0  0  0  0  0
  183.5120  178.4380  140.0860 C   0  0  2  0  0  3  0  0  0  0  0  0
  182.3070  179.7990  138.3410 C   0  0  0  0  0  3  0  0  0  0  0  0
  181.2710  179.5400  137.3930 C   0  0  0  0  0  2  0  0  0  0  0  0
  186.6160  177.8150  146.7670 C   0  0  0  0  0  2  0  0  0  0  0  0
  185.8450  178.0080  144.4550 C   0  0  0  0  0  0  0  0  0  0  0  0
  185.6650  178.2120  145.7280 N   0  0  0  0  0  0  0  0  0  0  0  0
  184.8200  178.4130  143.5470 N   0  0  0  0  0  2  0  0  0  0  0  0
  188.0480  177.8120  146.2330 C   0  0  2  0  0  3  0  0  0  0  0  0
  188.0570  176.9020  145.0120 C   0  0  0  0  0  2  0  0  0  0  0  0
  187.1540  177.4720  143.9210 C   0  0  0  0  0  2  0  0  0  0  0  0
  190.4160  177.1280  146.6990 C   0  0  0  0  0  1  0  0  0  0  0  0
  189.1240  178.2530  148.4680 C   0  0  0  0  0  1  0  0  0  0  0  0
  189.0260  177.2950  147.2920 C   0  0  0  0  0  3  0  0  0  0  0  0
  1  2  1  6  0  0  0
  1  3  1  0  0  0  0
  2  3  1  0  0  0  0
  3 19  1  1  0  0  0
  5  7  1  0  0  0  0
  6 12  1  0  0  0  0
  7 11  1  0  0  0  0
  8 15  1  0  0  0  0
  8  6  2  0  0  0  0
  9  5  1  0  0  0  0
  9  6  1  0  0  0  0
 12 11  2  0  0  0  0
 12 10  1  0  0  0  0
 13  4  1  6  0  0  0
 13 10  1  0  0  0  0
 13  1  1  0  0  0  0
 14  4  2  0  0  0  0
 15 14  1  0  0  0  0
 17 18  2  0  0  0  0
 18 16  1  0  0  0  0
 19 17  1  0  0  0  0
 20 16  1  0  0  0  0
 20 25  1  1  0  0  0
 21 20  1  0  0  0  0
 22 17  1  0  0  0  0
 22 21  1  0  0  0  0
 23 25  1  0  0  0  0
 25 24  1  0  0  0  0
M  END
>  <MODEL>
8

>  <REMARK>
 VINA RESULT:      -7.3      4.891      8.987
  Name = 
  3 active torsions:
  status: ('A' for Active; 'I' for Inactive)
    1  A    between atoms: C_3  and  C_19
    2  A    between atoms: C_12  and  N_21
    3  A    between atoms: C_18  and  C_23
                            x       y       z     vdW  Elec       q    Type
                         _______ _______ _______ _____ _____    ______ ____

>  <TORSDO>
F 3

$$$$
=
 OpenBabel10222418073D

 25 28  0  0  1  0  0  0  0  0999 V2000
  182.1610  179.3780  143.5120 C   0  0  2  0  0  3  0  0  0  0  0  0
  180.9350  178.6150  143.9700 C   0  0  0  0  0  2  0  0  0  0  0  0
  181.2660  178.6930  142.4960 C   0  0  1  0  0  3  0  0  0  0  0  0
  183.8190  178.6280  145.0900 C   0  0  0  0  0  3  0  0  0  0  0  0
  187.9880  177.1280  141.8420 C   0  0  0  0  0  2  0  0  0  0  0  0
  186.6100  177.7340  143.8620 C   0  0  0  0  0  0  0  0  0  0  0  0
  187.9130  178.6240  141.5480 C   0  0  0  0  0  2  0  0  0  0  0  0
  186.7100  177.7610  145.2210 C   0  0  0  0  0  3  0  0  0  0  0  0
  187.5850  176.8960  143.2260 N   0  0  0  0  0  2  0  0  0  0  0  0
  184.4910  179.0850  142.9670 O   0  0  0  0  0  0  0  0  0  0  0  0
  186.5180  179.0910  141.8420 C   0  0  0  0  0  3  0  0  0  0  0  0
  185.8550  178.6840  142.9310 C   0  0  0  0  0  0  0  0  0  0  0  0
  183.4060  178.5360  143.7280 C   0  0  2  0  0  3  0  0  0  0  0  0
  184.6780  178.6770  145.8980 C   0  0  0  0  0  3  0  0  0  0  0  0
  186.0570  178.6310  146.2670 C   0  0  0  0  0  2  0  0  0  0  0  0
  180.0320  181.6520  138.7010 C   0  0  0  0  0  2  0  0  0  0  0  0
  180.6420  180.1280  140.5130 C   0  0  0  0  0  0  0  0  0  0  0  0
  179.8980  181.0890  140.0450 N   0  0  0  0  0  0  0  0  0  0  0  0
  180.4320  179.6960  141.8570 N   0  0  0  0  0  2  0  0  0  0  0  0
  180.5680  180.6130  137.7180 C   0  0  2  0  0  3  0  0  0  0  0  0
  181.8770  180.0960  138.3000 C   0  0  0  0  0  2  0  0  0  0  0  0
  181.6230  179.3920  139.6300 C   0  0  0  0  0  2  0  0  0  0  0  0
  180.1250  180.4110  135.2570 C   0  0  0  0  0  1  0  0  0  0  0  0
  180.2600  182.6520  136.2700 C   0  0  0  0  0  1  0  0  0  0  0  0
  180.8050  181.2350  136.3390 C   0  0  0  0  0  3  0  0  0  0  0  0
  1 13  1  0  0  0  0
  1  2  1  1  0  0  0
  3 19  1  6  0  0  0
  3  1  1  0  0  0  0
  3  2  1  0  0  0  0
  4 14  2  0  0  0  0
  5  9  1  0  0  0  0
  6  8  2  0  0  0  0
  7  5  1  0  0  0  0
  7 11  1  0  0  0  0
  8 15  1  0  0  0  0
  9  6  1  0  0  0  0
 10 13  1  0  0  0  0
 11 12  2  0  0  0  0
 12 10  1  0  0  0  0
 12  6  1  0  0  0  0
 13  4  1  1  0  0  0
 14 15  1  0  0  0  0
 16 18  1  0  0  0  0
 17 19  1  0  0  0  0
 18 17  2  0  0  0  0
 20 25  1  6  0  0  0
 20 21  1  0  0  0  0
 20 16  1  0  0  0  0
 21 22  1  0  0  0  0
 22 17  1  0  0  0  0
 23 25  1  0  0  0  0
 24 25  1  0  0  0  0
M  END
>  <MODEL>
9

>  <REMARK>
 VINA RESULT:      -7.3      5.093      7.681
  Name = 
  3 active torsions:
  status: ('A' for Active; 'I' for Inactive)
    1  A    between atoms: C_3  and  C_19
    2  A    between atoms: C_12  and  N_21
    3  A    between atoms: C_18  and  C_23
                            x       y       z     vdW  Elec       q    Type
                         _______ _______ _______ _____ _____    ______ ____

>  <TORSDO>
F 3

$$$$
