=
 OpenBabel10222418073D

 25 28  0  0  1  0  0  0  0  0999 V2000
  186.3140  178.6410  141.1450 C   0  0  0  0  0  0  0  0  0  0  0  0
  187.7600  177.9310  142.9680 C   0  0  0  0  0  0  0  0  0  0  0  0
  187.3430  178.4800  140.2720 N   0  0  0  0  0  0  0  0  0  0  0  0
  190.0770  177.3620  142.4160 O   0  0  0  0  0  0  0  0  0  0  0  0
  189.6320  177.8430  139.6270 C   0  0  2  0  0  3  0  0  0  0  0  0
  188.8110  177.7950  142.0310 C   0  0  0  0  0  0  0  0  0  0  0  0
  188.5740  178.0690  140.6750 C   0  0  0  0  0  0  0  0  0  0  0  0
  186.5090  178.3630  142.4990 C   0  0  0  0  0  3  0  0  0  0  0  0
  190.1560  176.4110  139.7200 C   0  0  2  0  0  3  0  0  0  0  0  0
  191.2410  177.6720  141.6550 C   0  0  0  0  0  2  0  0  0  0  0  0
  191.0490  177.5690  140.1330 C   0  0  2  0  0  3  0  0  0  0  0  0
  186.9580  177.4120  146.6040 N   0  0  0  0  0  0  0  0  0  0  0  0
  187.9200  177.6490  144.4250 C   0  0  0  0  0  0  0  0  0  0  0  0
  189.2740  177.1270  146.3600 C   0  0  0  0  0  0  0  0  0  0  0  0
  188.1560  177.1470  147.1290 N   0  0  0  0  0  0  0  0  0  0  0  0
  189.1700  177.3740  144.9920 C   0  0  0  0  0  3  0  0  0  0  0  0
  186.8080  177.6650  145.2760 C   0  0  0  0  0  3  0  0  0  0  0  0
  191.6230  176.5700  145.8790 C   0  0  0  0  0  1  0  0  0  0  0  0
  190.5950  176.8100  146.9670 C   0  0  0  0  0  2  0  0  0  0  0  0
  191.0360  174.7710  138.2240 O   0  0  0  0  0  0  0  0  0  0  0  0
  190.3090  176.7310  137.2150 N   0  0  0  0  0  1  0  0  0  0  0  0
  190.5440  175.9210  138.3630 C   0  0  0  0  0  0  0  0  0  0  0  0
  184.9190  179.7470  139.5840 O   0  0  0  0  0  0  0  0  0  0  0  0
  183.8160  178.8010  141.3900 N   0  0  0  0  0  1  0  0  0  0  0  0
  185.0020  179.0940  140.6580 C   0  0  0  0  0  0  0  0  0  0  0  0
  1  8  1  0  0  0  0
  2 13  1  0  0  0  0
  3  7  1  0  0  0  0
  3  1  2  0  0  0  0
  5  9  1  0  0  0  0
  5 11  1  0  0  0  0
  5  7  1  1  0  0  0
  6  4  1  0  0  0  0
  6  2  1  0  0  0  0
  7  6  2  0  0  0  0
  8  2  2  0  0  0  0
  9 22  1  6  0  0  0
  9 11  1  0  0  0  0
 10  4  1  0  0  0  0
 11 10  1  1  0  0  0
 12 15  1  0  0  0  0
 13 16  2  0  0  0  0
 13 17  1  0  0  0  0
 14 19  1  0  0  0  0
 14 15  2  0  0  0  0
 16 14  1  0  0  0  0
 17 12  2  0  0  0  0
 18 19  1  0  0  0  0
 20 22  2  0  0  0  0
 21 22  1  0  0  0  0
 23 25  2  0  0  0  0
 25  1  1  0  0  0  0
 25 24  1  0  0  0  0
M  END
>  <MODEL>
1

>  <REMARK>
 VINA RESULT:      -8.8      0.000      0.000
  Name = 
  4 active torsions:
  status: ('A' for Active; 'I' for Inactive)
    1  A    between atoms: C_2  and  C_6
    2  A    between atoms: C_3  and  C_11
    3  A    between atoms: C_4  and  C_20
    4  A    between atoms: C_18  and  C_23
                            x       y       z     vdW  Elec       q    Type
                         _______ _______ _______ _____ _____    ______ ____

>  <TORSDO>
F 4

$$$$
=
 OpenBabel10222418073D

 25 28  0  0  1  0  0  0  0  0999 V2000
  187.0990  178.5080  141.5880 C   0  0  0  0  0  0  0  0  0  0  0  0
  188.9750  177.7680  142.9460 C   0  0  0  0  0  0  0  0  0  0  0  0
  187.8430  178.3220  140.4660 N   0  0  0  0  0  0  0  0  0  0  0  0
  191.0380  177.1450  141.7800 O   0  0  0  0  0  0  0  0  0  0  0  0
  189.8510  177.6320  139.2190 C   0  0  2  0  0  3  0  0  0  0  0  0
  189.7240  177.6060  141.7570 C   0  0  0  0  0  0  0  0  0  0  0  0
  189.1280  177.8830  140.5170 C   0  0  0  0  0  0  0  0  0  0  0  0
  187.6540  178.2270  142.8380 C   0  0  0  0  0  3  0  0  0  0  0  0
  190.3490  176.1890  139.1750 C   0  0  2  0  0  3  0  0  0  0  0  0
  191.9530  177.4280  140.7260 C   0  0  0  0  0  2  0  0  0  0  0  0
  191.3460  177.3270  139.3170 C   0  0  2  0  0  3  0  0  0  0  0  0
  191.4040  177.0710  145.7300 N   0  0  0  0  0  0  0  0  0  0  0  0
  189.5260  177.4840  144.3050 C   0  0  0  0  0  0  0  0  0  0  0  0
  189.2560  177.0690  146.6720 C   0  0  0  0  0  0  0  0  0  0  0  0
  190.6020  176.9460  146.7890 N   0  0  0  0  0  0  0  0  0  0  0  0
  188.6990  177.3450  145.4250 C   0  0  0  0  0  3  0  0  0  0  0  0
  190.9060  177.3340  144.4920 C   0  0  0  0  0  3  0  0  0  0  0  0
  188.4240  178.2260  148.6790 C   0  0  0  0  0  1  0  0  0  0  0  0
  188.3850  176.9440  147.8720 C   0  0  0  0  0  2  0  0  0  0  0  0
  190.2870  176.5020  136.8080 O   0  0  0  0  0  0  0  0  0  0  0  0
  190.4360  174.2920  137.5040 N   0  0  0  0  0  1  0  0  0  0  0  0
  190.3370  175.6880  137.7670 C   0  0  0  0  0  0  0  0  0  0  0  0
  184.9880  179.0650  142.5050 O   0  0  0  0  0  0  0  0  0  0  0  0
  185.1780  179.3760  140.2160 N   0  0  0  0  0  1  0  0  0  0  0  0
  185.7130  178.9900  141.4780 C   0  0  0  0  0  0  0  0  0  0  0  0
  1  8  1  0  0  0  0
  2 13  1  0  0  0  0
  3  7  1  0  0  0  0
  3  1  2  0  0  0  0
  5 11  1  0  0  0  0
  5  7  1  1  0  0  0
  6  4  1  0  0  0  0
  6  2  1  0  0  0  0
  7  6  2  0  0  0  0
  8  2  2  0  0  0  0
  9 22  1  6  0  0  0
  9  5  1  0  0  0  0
  9 11  1  0  0  0  0
 10  4  1  0  0  0  0
 11 10  1  1  0  0  0
 12 15  1  0  0  0  0
 13 17  1  0  0  0  0
 13 16  2  0  0  0  0
 14 15  2  0  0  0  0
 14 19  1  0  0  0  0
 16 14  1  0  0  0  0
 17 12  2  0  0  0  0
 19 18  1  0  0  0  0
 20 22  2  0  0  0  0
 21 22  1  0  0  0  0
 24 25  1  0  0  0  0
 25  1  1  0  0  0  0
 25 23  2  0  0  0  0
M  END
>  <MODEL>
2

>  <REMARK>
 VINA RESULT:      -8.7      1.624      2.092
  Name = 
  4 active torsions:
  status: ('A' for Active; 'I' for Inactive)
    1  A    between atoms: C_2  and  C_6
    2  A    between atoms: C_3  and  C_11
    3  A    between atoms: C_4  and  C_20
    4  A    between atoms: C_18  and  C_23
                            x       y       z     vdW  Elec       q    Type
                         _______ _______ _______ _____ _____    ______ ____

>  <TORSDO>
F 4

$$$$
=
 OpenBabel10222418073D

 25 28  0  0  1  0  0  0  0  0999 V2000
  189.1470  177.3980  142.7120 C   0  0  0  0  0  0  0  0  0  0  0  0
  187.6420  177.8590  144.5660 C   0  0  0  0  0  0  0  0  0  0  0  0
  190.1820  177.2860  143.5850 N   0  0  0  0  0  0  0  0  0  0  0  0
  188.6050  177.9090  146.8180 O   0  0  0  0  0  0  0  0  0  0  0  0
  191.2060  177.2350  145.8230 C   0  0  2  0  0  3  0  0  0  0  0  0
  188.7480  177.7540  145.4410 C   0  0  0  0  0  0  0  0  0  0  0  0
  190.0180  177.4550  144.9240 C   0  0  0  0  0  0  0  0  0  0  0  0
  187.8660  177.6790  143.1920 C   0  0  0  0  0  3  0  0  0  0  0  0
  190.8750  176.1700  146.8670 C   0  0  2  0  0  3  0  0  0  0  0  0
  189.6960  178.2950  147.6480 C   0  0  0  0  0  2  0  0  0  0  0  0
  191.0320  177.6210  147.2930 C   0  0  2  0  0  3  0  0  0  0  0  0
  184.6890  178.4330  146.8210 N   0  0  0  0  0  0  0  0  0  0  0  0
  186.2560  178.1610  145.0320 C   0  0  0  0  0  0  0  0  0  0  0  0
  183.9370  178.7050  144.6150 C   0  0  0  0  0  0  0  0  0  0  0  0
  183.7100  178.7000  145.9540 N   0  0  0  0  0  0  0  0  0  0  0  0
  185.2170  178.4390  144.1360 C   0  0  0  0  0  3  0  0  0  0  0  0
  185.9530  178.1610  146.4000 C   0  0  0  0  0  3  0  0  0  0  0  0
  183.2420  178.6730  142.2540 C   0  0  0  0  0  1  0  0  0  0  0  0
  182.8320  179.0250  143.6700 C   0  0  0  0  0  2  0  0  0  0  0  0
  192.5960  174.5860  146.3850 O   0  0  0  0  0  0  0  0  0  0  0  0
  192.7570  175.6110  148.4620 N   0  0  0  0  0  1  0  0  0  0  0  0
  192.1050  175.3960  147.2140 C   0  0  0  0  0  0  0  0  0  0  0  0
  190.2360  176.3780  140.8730 O   0  0  0  0  0  0  0  0  0  0  0  0
  188.6400  177.9640  140.3140 N   0  0  0  0  0  1  0  0  0  0  0  0
  189.3780  177.2110  141.2710 C   0  0  0  0  0  0  0  0  0  0  0  0
  1  8  2  0  0  0  0
  1  3  1  0  0  0  0
  2 13  1  0  0  0  0
  2  6  2  0  0  0  0
  3  7  2  0  0  0  0
  4 10  1  0  0  0  0
  5  7  1  6  0  0  0
  5  9  1  0  0  0  0
  5 11  1  0  0  0  0
  6  4  1  0  0  0  0
  7  6  1  0  0  0  0
  8  2  1  0  0  0  0
  9 22  1  1  0  0  0
  9 11  1  0  0  0  0
 11 10  1  6  0  0  0
 13 17  2  0  0  0  0
 14 15  1  0  0  0  0
 15 12  2  0  0  0  0
 16 14  2  0  0  0  0
 16 13  1  0  0  0  0
 17 12  1  0  0  0  0
 18 19  1  0  0  0  0
 19 14  1  0  0  0  0
 20 22  2  0  0  0  0
 22 21  1  0  0  0  0
 23 25  2  0  0  0  0
 24 25  1  0  0  0  0
 25  1  1  0  0  0  0
M  END
>  <MODEL>
3

>  <REMARK>
 VINA RESULT:      -8.3      2.581      5.996
  Name = 
  4 active torsions:
  status: ('A' for Active; 'I' for Inactive)
    1  A    between atoms: C_2  and  C_6
    2  A    between atoms: C_3  and  C_11
    3  A    between atoms: C_4  and  C_20
    4  A    between atoms: C_18  and  C_23
                            x       y       z     vdW  Elec       q    Type
                         _______ _______ _______ _____ _____    ______ ____

>  <TORSDO>
F 4

$$$$
=
 OpenBabel10222418073D

 25 28  0  0  1  0  0  0  0  0999 V2000
  185.7840  178.3460  144.8680 C   0  0  0  0  0  0  0  0  0  0  0  0
  186.2940  178.2710  142.4910 C   0  0  0  0  0  0  0  0  0  0  0  0
  187.0030  177.8130  145.1420 N   0  0  0  0  0  0  0  0  0  0  0  0
  188.4740  177.3680  141.8320 O   0  0  0  0  0  0  0  0  0  0  0  0
  189.2430  176.9730  144.5630 C   0  0  2  0  0  3  0  0  0  0  0  0
  187.5470  177.6990  142.8160 C   0  0  0  0  0  0  0  0  0  0  0  0
  187.8860  177.4860  144.1620 C   0  0  0  0  0  0  0  0  0  0  0  0
  185.4190  178.5870  143.5420 C   0  0  0  0  0  3  0  0  0  0  0  0
  190.3310  177.8540  143.9510 C   0  0  2  0  0  3  0  0  0  0  0  0
  189.4800  176.3820  142.0470 C   0  0  0  0  0  2  0  0  0  0  0  0
  190.1320  176.4370  143.4390 C   0  0  2  0  0  3  0  0  0  0  0  0
  186.3540  178.6270  138.7490 N   0  0  0  0  0  0  0  0  0  0  0  0
  185.8580  178.5430  141.0900 C   0  0  0  0  0  0  0  0  0  0  0  0
  184.2050  179.2360  139.4670 C   0  0  0  0  0  0  0  0  0  0  0  0
  185.1150  179.0430  138.4780 N   0  0  0  0  0  0  0  0  0  0  0  0
  184.5640  178.9840  140.7890 C   0  0  0  0  0  3  0  0  0  0  0  0
  186.7530  178.3740  140.0240 C   0  0  0  0  0  3  0  0  0  0  0  0
  181.8560  179.2120  140.2040 C   0  0  0  0  0  1  0  0  0  0  0  0
  182.8240  179.6810  139.1360 C   0  0  0  0  0  2  0  0  0  0  0  0
  192.3790  178.8140  144.7180 O   0  0  0  0  0  0  0  0  0  0  0  0
  191.6410  176.9750  145.9280 N   0  0  0  0  0  1  0  0  0  0  0  0
  191.5150  177.9100  144.8610 C   0  0  0  0  0  0  0  0  0  0  0  0
  183.6730  179.0030  145.7160 O   0  0  0  0  0  0  0  0  0  0  0  0
  185.3050  178.6350  147.3200 N   0  0  0  0  0  1  0  0  0  0  0  0
  184.8630  178.6780  145.9670 C   0  0  0  0  0  0  0  0  0  0  0  0
  1  3  1  0  0  0  0
  1 25  1  0  0  0  0
  2  6  2  0  0  0  0
  2  8  1  0  0  0  0
  4 10  1  0  0  0  0
  4  6  1  0  0  0  0
  5  7  1  6  0  0  0
  6  7  1  0  0  0  0
  7  3  2  0  0  0  0
  8  1  2  0  0  0  0
  9  5  1  0  0  0  0
  9 22  1  1  0  0  0
 11 10  1  6  0  0  0
 11  9  1  0  0  0  0
 11  5  1  0  0  0  0
 12 17  1  0  0  0  0
 13  2  1  0  0  0  0
 14 16  2  0  0  0  0
 15 12  2  0  0  0  0
 15 14  1  0  0  0  0
 16 13  1  0  0  0  0
 17 13  2  0  0  0  0
 19 14  1  0  0  0  0
 19 18  1  0  0  0  0
 20 22  2  0  0  0  0
 22 21  1  0  0  0  0
 23 25  2  0  0  0  0
 25 24  1  0  0  0  0
M  END
>  <MODEL>
4

>  <REMARK>
 VINA RESULT:      -8.1      2.517      6.307
  Name = 
  4 active torsions:
  status: ('A' for Active; 'I' for Inactive)
    1  A    between atoms: C_2  and  C_6
    2  A    between atoms: C_3  and  C_11
    3  A    between atoms: C_4  and  C_20
    4  A    between atoms: C_18  and  C_23
                            x       y       z     vdW  Elec       q    Type
                         _______ _______ _______ _____ _____    ______ ____

>  <TORSDO>
F 4

$$$$
=
 OpenBabel10222418073D

 25 28  0  0  1  0  0  0  0  0999 V2000
  185.7160  178.3620  144.6910 C   0  0  0  0  0  0  0  0  0  0  0  0
  186.2790  178.3280  142.3250 C   0  0  0  0  0  0  0  0  0  0  0  0
  186.9250  177.8130  144.9820 N   0  0  0  0  0  0  0  0  0  0  0  0
  188.4660  177.4190  141.6970 O   0  0  0  0  0  0  0  0  0  0  0  0
  189.1710  176.9660  144.4370 C   0  0  2  0  0  3  0  0  0  0  0  0
  187.5190  177.7390  142.6670 C   0  0  0  0  0  0  0  0  0  0  0  0
  187.8260  177.4980  144.0160 C   0  0  0  0  0  0  0  0  0  0  0  0
  185.3830  178.6310  143.3620 C   0  0  0  0  0  3  0  0  0  0  0  0
  190.2790  177.8490  143.8660 C   0  0  2  0  0  3  0  0  0  0  0  0
  189.4590  176.4210  141.9160 C   0  0  0  0  0  2  0  0  0  0  0  0
  190.0800  176.4430  143.3230 C   0  0  2  0  0  3  0  0  0  0  0  0
  184.3560  179.6480  139.3770 N   0  0  0  0  0  0  0  0  0  0  0  0
  185.8770  178.6300  140.9200 C   0  0  0  0  0  0  0  0  0  0  0  0
  186.2000  178.4730  138.5280 C   0  0  0  0  0  0  0  0  0  0  0  0
  185.0760  179.2110  138.3430 N   0  0  0  0  0  0  0  0  0  0  0  0
  186.6190  178.1760  139.8230 C   0  0  0  0  0  3  0  0  0  0  0  0
  184.7210  179.3780  140.6590 C   0  0  0  0  0  3  0  0  0  0  0  0
  188.3820  178.6280  137.3980 C   0  0  0  0  0  1  0  0  0  0  0  0
  186.9960  178.0140  137.3570 C   0  0  0  0  0  2  0  0  0  0  0  0
  192.2990  178.7960  144.7180 O   0  0  0  0  0  0  0  0  0  0  0  0
  191.5560  176.8990  145.8320 N   0  0  0  0  0  1  0  0  0  0  0  0
  191.4420  177.8780  144.8040 C   0  0  0  0  0  0  0  0  0  0  0  0
  183.5870  179.0030  145.5050 O   0  0  0  0  0  0  0  0  0  0  0  0
  185.1910  178.6280  147.1360 N   0  0  0  0  0  1  0  0  0  0  0  0
  184.7740  178.6800  145.7750 C   0  0  0  0  0  0  0  0  0  0  0  0
  1  3  1  0  0  0  0
  1 25  1  0  0  0  0
  2  6  2  0  0  0  0
  2  8  1  0  0  0  0
  4 10  1  0  0  0  0
  4  6  1  0  0  0  0
  5  7  1  6  0  0  0
  6  7  1  0  0  0  0
  7  3  2  0  0  0  0
  8  1  2  0  0  0  0
  9  5  1  0  0  0  0
  9 22  1  1  0  0  0
 11 10  1  6  0  0  0
 11  9  1  0  0  0  0
 11  5  1  0  0  0  0
 12 17  1  0  0  0  0
 13  2  1  0  0  0  0
 14 16  2  0  0  0  0
 15 14  1  0  0  0  0
 15 12  2  0  0  0  0
 16 13  1  0  0  0  0
 17 13  2  0  0  0  0
 19 18  1  0  0  0  0
 19 14  1  0  0  0  0
 20 22  2  0  0  0  0
 22 21  1  0  0  0  0
 23 25  2  0  0  0  0
 25 24  1  0  0  0  0
M  END
>  <MODEL>
5

>  <REMARK>
 VINA RESULT:      -7.9      2.610      6.000
  Name = 
  4 active torsions:
  status: ('A' for Active; 'I' for Inactive)
    1  A    between atoms: C_2  and  C_6
    2  A    between atoms: C_3  and  C_11
    3  A    between atoms: C_4  and  C_20
    4  A    between atoms: C_18  and  C_23
                            x       y       z     vdW  Elec       q    Type
                         _______ _______ _______ _____ _____    ______ ____

>  <TORSDO>
F 4

$$$$
=
 OpenBabel10222418073D

 25 28  0  0  1  0  0  0  0  0999 V2000
  181.1650  178.9000  143.1320 C   0  0  0  0  0  0  0  0  0  0  0  0
  183.5440  178.6360  143.5630 C   0  0  0  0  0  0  0  0  0  0  0  0
  181.4090  178.8690  141.7950 N   0  0  0  0  0  0  0  0  0  0  0  0
  185.0340  178.4820  141.6240 O   0  0  0  0  0  0  0  0  0  0  0  0
  182.8300  178.6360  139.7990 C   0  0  2  0  0  3  0  0  0  0  0  0
  183.7590  178.6280  142.1640 C   0  0  0  0  0  0  0  0  0  0  0  0
  182.6640  178.7380  141.2920 C   0  0  0  0  0  0  0  0  0  0  0  0
  182.2280  178.7770  144.0290 C   0  0  0  0  0  3  0  0  0  0  0  0
  183.5680  177.3460  139.4470 C   0  0  2  0  0  3  0  0  0  0  0  0
  185.3540  178.9480  140.3160 C   0  0  0  0  0  2  0  0  0  0  0  0
  184.2630  178.6850  139.2650 C   0  0  2  0  0  3  0  0  0  0  0  0
  185.4840  178.8680  146.7740 N   0  0  0  0  0  0  0  0  0  0  0  0
  184.6480  178.5110  144.5600 C   0  0  0  0  0  0  0  0  0  0  0  0
  186.8890  177.8580  145.1910 C   0  0  0  0  0  0  0  0  0  0  0  0
  186.6560  178.3200  146.4450 N   0  0  0  0  0  0  0  0  0  0  0  0
  185.8840  177.9430  144.2300 C   0  0  0  0  0  3  0  0  0  0  0  0
  184.4750  178.9790  145.8700 C   0  0  0  0  0  3  0  0  0  0  0  0
  189.2630  177.7050  145.8240 C   0  0  0  0  0  1  0  0  0  0  0  0
  188.1980  177.2340  144.8540 C   0  0  0  0  0  2  0  0  0  0  0  0
  183.2650  175.6200  137.8240 O   0  0  0  0  0  0  0  0  0  0  0  0
  182.3940  177.6890  137.2330 N   0  0  0  0  0  1  0  0  0  0  0  0
  183.0920  176.8290  138.1280 C   0  0  0  0  0  0  0  0  0  0  0  0
  179.3140  178.2110  144.4370 O   0  0  0  0  0  0  0  0  0  0  0  0
  178.9750  180.1350  143.1890 N   0  0  0  0  0  1  0  0  0  0  0  0
  179.7870  179.0480  143.6240 C   0  0  0  0  0  0  0  0  0  0  0  0
  1 25  1  0  0  0  0
  1  8  1  0  0  0  0
  2  8  2  0  0  0  0
  2 13  1  0  0  0  0
  3  1  2  0  0  0  0
  4  6  1  0  0  0  0
  5  7  1  1  0  0  0
  6  2  1  0  0  0  0
  7  3  1  0  0  0  0
  7  6  2  0  0  0  0
  9 22  1  6  0  0  0
  9  5  1  0  0  0  0
 10  4  1  0  0  0  0
 11  9  1  0  0  0  0
 11  5  1  0  0  0  0
 11 10  1  1  0  0  0
 13 17  1  0  0  0  0
 14 15  2  0  0  0  0
 15 12  1  0  0  0  0
 16 13  2  0  0  0  0
 16 14  1  0  0  0  0
 17 12  2  0  0  0  0
 19 14  1  0  0  0  0
 19 18  1  0  0  0  0
 20 22  2  0  0  0  0
 21 22  1  0  0  0  0
 24 25  1  0  0  0  0
 25 23  2  0  0  0  0
M  END
>  <MODEL>
6

>  <REMARK>
 VINA RESULT:      -7.7      3.928      5.446
  Name = 
  4 active torsions:
  status: ('A' for Active; 'I' for Inactive)
    1  A    between atoms: C_2  and  C_6
    2  A    between atoms: C_3  and  C_11
    3  A    between atoms: C_4  and  C_20
    4  A    between atoms: C_18  and  C_23
                            x       y       z     vdW  Elec       q    Type
                         _______ _______ _______ _____ _____    ______ ____

>  <TORSDO>
F 4

$$$$
=
 OpenBabel10222418073D

 25 28  0  0  1  0  0  0  0  0999 V2000
  190.3600  176.8520  140.3650 C   0  0  0  0  0  0  0  0  0  0  0  0
  188.5740  177.7980  141.7190 C   0  0  0  0  0  0  0  0  0  0  0  0
  191.1640  176.8150  141.4600 N   0  0  0  0  0  0  0  0  0  0  0  0
  189.0420  178.1910  144.0910 O   0  0  0  0  0  0  0  0  0  0  0  0
  191.6800  177.1010  143.8500 C   0  0  2  0  0  3  0  0  0  0  0  0
  189.4480  177.7620  142.8300 C   0  0  0  0  0  0  0  0  0  0  0  0
  190.7480  177.2520  142.6770 C   0  0  0  0  0  0  0  0  0  0  0  0
  189.0560  177.3380  140.4840 C   0  0  0  0  0  3  0  0  0  0  0  0
  190.9990  176.2920  144.9520 C   0  0  2  0  0  3  0  0  0  0  0  0
  189.9760  178.6270  145.0740 C   0  0  0  0  0  2  0  0  0  0  0  0
  191.2550  177.7760  145.1550 C   0  0  2  0  0  3  0  0  0  0  0  0
  185.3030  179.3780  140.7520 N   0  0  0  0  0  0  0  0  0  0  0  0
  187.1740  178.3110  141.7950 C   0  0  0  0  0  0  0  0  0  0  0  0
  185.1200  178.7320  143.0000 C   0  0  0  0  0  0  0  0  0  0  0  0
  184.5940  179.2890  141.8790 N   0  0  0  0  0  0  0  0  0  0  0  0
  186.4190  178.2300  142.9710 C   0  0  0  0  0  3  0  0  0  0  0  0
  186.5760  178.9080  140.6770 C   0  0  0  0  0  3  0  0  0  0  0  0
  185.1770  178.8410  145.4590 C   0  0  0  0  0  1  0  0  0  0  0  0
  184.3020  178.6280  144.2390 C   0  0  0  0  0  2  0  0  0  0  0  0
  192.5430  174.4820  145.1580 O   0  0  0  0  0  0  0  0  0  0  0  0
  192.4270  175.8890  147.0000 N   0  0  0  0  0  1  0  0  0  0  0  0
  192.0140  175.4890  145.6980 C   0  0  0  0  0  0  0  0  0  0  0  0
  190.1850  175.5480  138.3970 O   0  0  0  0  0  0  0  0  0  0  0  0
  192.1110  176.8270  138.5600 N   0  0  0  0  0  1  0  0  0  0  0  0
  190.8610  176.3710  139.0690 C   0  0  0  0  0  0  0  0  0  0  0  0
  1  8  2  0  0  0  0
  1  3  1  0  0  0  0
  2 13  1  0  0  0  0
  2  6  2  0  0  0  0
  3  7  2  0  0  0  0
  4 10  1  0  0  0  0
  5  7  1  6  0  0  0
  5  9  1  0  0  0  0
  5 11  1  0  0  0  0
  6  4  1  0  0  0  0
  7  6  1  0  0  0  0
  8  2  1  0  0  0  0
  9 11  1  0  0  0  0
  9 22  1  1  0  0  0
 11 10  1  6  0  0  0
 12 15  1  0  0  0  0
 13 16  2  0  0  0  0
 14 19  1  0  0  0  0
 15 14  2  0  0  0  0
 16 14  1  0  0  0  0
 17 12  2  0  0  0  0
 17 13  1  0  0  0  0
 19 18  1  0  0  0  0
 20 22  2  0  0  0  0
 22 21  1  0  0  0  0
 23 25  2  0  0  0  0
 24 25  1  0  0  0  0
 25  1  1  0  0  0  0
M  END
>  <MODEL>
7

>  <REMARK>
 VINA RESULT:      -7.7      2.373      5.637
  Name = 
  4 active torsions:
  status: ('A' for Active; 'I' for Inactive)
    1  A    between atoms: C_2  and  C_6
    2  A    between atoms: C_3  and  C_11
    3  A    between atoms: C_4  and  C_20
    4  A    between atoms: C_18  and  C_23
                            x       y       z     vdW  Elec       q    Type
                         _______ _______ _______ _____ _____    ______ ____

>  <TORSDO>
F 4

$$$$
=
 OpenBabel10222418073D

 25 28  0  0  1  0  0  0  0  0999 V2000
  186.3440  178.6210  141.8620 C   0  0  0  0  0  0  0  0  0  0  0  0
  188.5370  177.7240  142.4090 C   0  0  0  0  0  0  0  0  0  0  0  0
  186.6660  178.5910  140.5410 N   0  0  0  0  0  0  0  0  0  0  0  0
  190.0720  177.2780  140.5530 O   0  0  0  0  0  0  0  0  0  0  0  0
  188.1190  178.0880  138.6190 C   0  0  2  0  0  3  0  0  0  0  0  0
  188.8420  177.7270  141.0280 C   0  0  0  0  0  0  0  0  0  0  0  0
  187.8780  178.1600  140.1040 C   0  0  0  0  0  0  0  0  0  0  0  0
  187.2720  178.1830  142.8080 C   0  0  0  0  0  3  0  0  0  0  0  0
  188.5220  176.6680  138.2280 C   0  0  2  0  0  3  0  0  0  0  0  0
  190.5950  177.7050  139.2980 C   0  0  0  0  0  2  0  0  0  0  0  0
  189.5510  177.7860  138.1720 C   0  0  2  0  0  3  0  0  0  0  0  0
  191.5530  176.1990  144.0550 N   0  0  0  0  0  0  0  0  0  0  0  0
  189.4970  177.2690  143.4580 C   0  0  0  0  0  0  0  0  0  0  0  0
  190.1690  177.0090  145.7670 C   0  0  0  0  0  0  0  0  0  0  0  0
  191.3050  176.3930  145.3520 N   0  0  0  0  0  0  0  0  0  0  0  0
  189.2500  177.4610  144.8220 C   0  0  0  0  0  3  0  0  0  0  0  0
  190.6830  176.6160  143.0970 C   0  0  0  0  0  3  0  0  0  0  0  0
  188.4360  177.2050  147.5040 C   0  0  0  0  0  1  0  0  0  0  0  0
  189.9240  177.2300  147.2180 C   0  0  0  0  0  2  0  0  0  0  0  0
  188.5390  175.4150  136.1940 O   0  0  0  0  0  0  0  0  0  0  0  0
  186.9320  177.0870  136.3060 N   0  0  0  0  0  1  0  0  0  0  0  0
  188.0250  176.3560  136.8540 C   0  0  0  0  0  0  0  0  0  0  0  0
  184.0200  178.9370  141.5330 O   0  0  0  0  0  0  0  0  0  0  0  0
  184.8500  179.7550  143.5370 N   0  0  0  0  0  1  0  0  0  0  0  0
  185.0190  179.1020  142.2830 C   0  0  0  0  0  0  0  0  0  0  0  0
  1 25  1  0  0  0  0
  1  8  1  0  0  0  0
  2  8  2  0  0  0  0
  2 13  1  0  0  0  0
  3  1  2  0  0  0  0
  4  6  1  0  0  0  0
  5  7  1  1  0  0  0
  6  2  1  0  0  0  0
  7  3  1  0  0  0  0
  7  6  2  0  0  0  0
  9 22  1  6  0  0  0
  9  5  1  0  0  0  0
 10  4  1  0  0  0  0
 11  9  1  0  0  0  0
 11  5  1  0  0  0  0
 11 10  1  1  0  0  0
 12 15  1  0  0  0  0
 13 16  2  0  0  0  0
 14 19  1  0  0  0  0
 15 14  2  0  0  0  0
 16 14  1  0  0  0  0
 17 13  1  0  0  0  0
 17 12  2  0  0  0  0
 19 18  1  0  0  0  0
 20 22  2  0  0  0  0
 21 22  1  0  0  0  0
 23 25  2  0  0  0  0
 25 24  1  0  0  0  0
M  END
>  <MODEL>
8

>  <REMARK>
 VINA RESULT:      -7.5      2.088      2.507
  Name = 
  4 active torsions:
  status: ('A' for Active; 'I' for Inactive)
    1  A    between atoms: C_2  and  C_6
    2  A    between atoms: C_3  and  C_11
    3  A    between atoms: C_4  and  C_20
    4  A    between atoms: C_18  and  C_23
                            x       y       z     vdW  Elec       q    Type
                         _______ _______ _______ _____ _____    ______ ____

>  <TORSDO>
F 4

$$$$
=
 OpenBabel10222418073D

 25 28  0  0  1  0  0  0  0  0999 V2000
  185.7610  178.3300  145.0570 C   0  0  0  0  0  0  0  0  0  0  0  0
  187.0380  177.7330  143.0740 C   0  0  0  0  0  0  0  0  0  0  0  0
  184.7370  178.7460  144.2660 N   0  0  0  0  0  0  0  0  0  0  0  0
  185.9960  178.1400  140.8950 O   0  0  0  0  0  0  0  0  0  0  0  0
  183.5920  179.1040  142.1170 C   0  0  2  0  0  3  0  0  0  0  0  0
  185.9590  178.1950  142.2860 C   0  0  0  0  0  0  0  0  0  0  0  0
  184.8040  178.6930  142.9100 C   0  0  0  0  0  0  0  0  0  0  0  0
  186.9190  177.8130  144.4700 C   0  0  0  0  0  3  0  0  0  0  0  0
  183.1590  177.9600  141.2020 C   0  0  2  0  0  3  0  0  0  0  0  0
  185.2030  179.0030  140.0860 C   0  0  0  0  0  2  0  0  0  0  0  0
  183.7700  179.2150  140.6020 C   0  0  2  0  0  3  0  0  0  0  0  0
  190.1740  175.7020  142.6590 N   0  0  0  0  0  0  0  0  0  0  0  0
  188.2960  177.1770  142.4940 C   0  0  0  0  0  0  0  0  0  0  0  0
  189.9790  177.0680  140.7610 C   0  0  0  0  0  0  0  0  0  0  0  0
  190.6350  176.1200  141.4780 N   0  0  0  0  0  0  0  0  0  0  0  0
  188.7950  177.6070  141.2590 C   0  0  0  0  0  3  0  0  0  0  0  0
  189.0270  176.2040  143.1880 C   0  0  0  0  0  3  0  0  0  0  0  0
  189.4300  178.2470  138.6710 C   0  0  0  0  0  1  0  0  0  0  0  0
  190.5040  177.5030  139.4380 C   0  0  0  0  0  2  0  0  0  0  0  0
  181.1280  177.2170  140.1880 O   0  0  0  0  0  0  0  0  0  0  0  0
  180.8690  178.8120  141.8550 N   0  0  0  0  0  1  0  0  0  0  0  0
  181.6750  177.9760  141.0300 C   0  0  0  0  0  0  0  0  0  0  0  0
  184.5160  178.6260  147.0490 O   0  0  0  0  0  0  0  0  0  0  0  0
  186.7840  178.2530  147.3530 N   0  0  0  0  0  1  0  0  0  0  0  0
  185.6390  178.4120  146.5200 C   0  0  0  0  0  0  0  0  0  0  0  0
  1 25  1  0  0  0  0
  2  8  2  0  0  0  0
  3  1  2  0  0  0  0
  4  6  1  0  0  0  0
  5  7  1  1  0  0  0
  6  7  2  0  0  0  0
  6  2  1  0  0  0  0
  7  3  1  0  0  0  0
  8  1  1  0  0  0  0
  9 22  1  6  0  0  0
  9  5  1  0  0  0  0
 10  4  1  0  0  0  0
 11 10  1  1  0  0  0
 11  9  1  0  0  0  0
 11  5  1  0  0  0  0
 12 17  1  0  0  0  0
 13  2  1  0  0  0  0
 13 17  2  0  0  0  0
 14 16  2  0  0  0  0
 14 15  1  0  0  0  0
 15 12  2  0  0  0  0
 16 13  1  0  0  0  0
 18 19  1  0  0  0  0
 19 14  1  0  0  0  0
 20 22  2  0  0  0  0
 22 21  1  0  0  0  0
 25 23  2  0  0  0  0
 25 24  1  0  0  0  0
M  END
>  <MODEL>
9

>  <REMARK>
 VINA RESULT:      -7.4      2.694      6.266
  Name = 
  4 active torsions:
  status: ('A' for Active; 'I' for Inactive)
    1  A    between atoms: C_2  and  C_6
    2  A    between atoms: C_3  and  C_11
    3  A    between atoms: C_4  and  C_20
    4  A    between atoms: C_18  and  C_23
                            x       y       z     vdW  Elec       q    Type
                         _______ _______ _______ _____ _____    ______ ____

>  <TORSDO>
F 4

$$$$
