=
 OpenBabel10222418143D

 59 62  0  0  1  0  0  0  0  0999 V2000
  188.8360  177.7720  140.6150 C   0  0  0  0  0  2  0  0  0  0  0  0
  190.8610  177.1390  139.2200 C   0  0  0  0  0  0  0  0  0  0  0  0
  188.6480  177.1730  138.2130 C   0  0  0  0  0  3  0  0  0  0  0  0
  189.4710  177.3610  139.3250 C   0  0  0  0  0  0  0  0  0  0  0  0
  191.4100  176.7160  137.9950 C   0  0  0  0  0  0  0  0  0  0  0  0
  191.7590  177.3380  140.4020 C   0  0  0  0  0  1  0  0  0  0  0  0
  189.1880  176.7420  136.9970 C   0  0  0  0  0  0  0  0  0  0  0  0
  190.5640  176.5160  136.8920 C   0  0  0  0  0  3  0  0  0  0  0  0
  188.3130  176.5120  135.8090 C   0  0  0  0  0  2  0  0  0  0  0  0
  188.2720  175.0320  135.4610 C   0  0  0  0  0  2  0  0  0  0  0  0
  186.0480  174.0080  136.0230 C   0  0  0  0  0  0  0  0  0  0  0  0
  186.4390  173.7720  137.1990 O   0  0  0  0  0  0  0  0  0  0  0  0
  186.9250  174.6430  135.0840 N   0  0  0  0  0  2  0  0  0  0  0  0
  184.7420  173.6690  135.6610 O   0  0  0  0  0  0  0  0  0  0  0  0
  181.9660  175.2350  137.6460 C   0  0  2  0  0  0  0  0  0  0  0  0
  182.2080  175.7310  139.0100 C   0  0  0  0  0  2  0  0  0  0  0  0
  181.1090  173.2990  136.2950 C   0  0  0  0  0  2  0  0  0  0  0  0
  182.5480  172.7580  136.2080 C   0  0  1  0  0  3  0  0  0  0  0  0
  181.5160  176.5020  138.0490 O   0  0  0  0  0  0  0  0  0  0  0  0
  180.8740  174.1780  137.5270 C   0  0  0  0  0  2  0  0  0  0  0  0
  183.1790  175.2280  136.7200 C   0  0  1  0  0  3  0  0  0  0  0  0
  183.6530  173.7750  136.5720 C   0  0  2  0  0  3  0  0  0  0  0  0
  182.8520  177.2370  135.4680 O   0  0  0  0  0  1  0  0  0  0  0  0
  182.8340  175.8460  135.3700 C   0  0  0  0  0  2  0  0  0  0  0  0
  182.7110  171.4670  137.0020 C   0  0  0  0  0  2  0  0  0  0  0  0
  183.7900  170.7210  136.5190 O   0  0  0  0  0  1  0  0  0  0  0  0
  192.7920  176.4980  137.8940 O   0  0  0  0  0  0  0  0  0  0  0  0
  193.3710  175.2040  137.7570 C   0  0  0  0  0  2  0  0  0  0  0  0
  193.5200  173.5820  135.8920 C   0  0  0  0  0  1  0  0  0  0  0  0
  193.8490  174.9940  136.3310 C   0  0  0  0  0  2  0  0  0  0  0  0
  187.3630  178.0760  140.4180 C   0  0  0  0  0  2  0  0  0  0  0  0
  187.0140  179.2690  141.1690 N   0  0  0  0  0  2  0  0  0  0  0  0
  185.7850  179.7180  140.6730 N   0  0  0  0  0  2  0  0  0  0  0  0
  185.1510  178.5780  140.0270 C   0  0  0  0  0  2  0  0  0  0  0  0
  183.7020  178.6770  140.1550 N   0  0  0  0  0  0  0  0  0  0  0  0
  183.0620  178.7060  141.2860 C   0  0  0  0  0  0  0  0  0  0  0  0
  184.5840  177.6340  142.7910 N   0  0  0  0  0  2  0  0  0  0  0  0
  183.7460  179.7440  143.4540 N   0  0  0  0  0  2  0  0  0  0  0  0
  183.7690  178.6150  142.5780 C   0  0  0  0  0  0  0  0  0  0  0  0
  184.5940  179.8490  144.6310 C   0  0  0  0  0  2  0  0  0  0  0  0
  184.1010  178.8700  145.6840 C   0  0  0  0  0  2  0  0  0  0  0  0
  185.2620  178.2060  146.4170 C   0  0  2  0  0  3  0  0  0  0  0  0
  185.3000  178.6310  147.7480 O   0  0  0  0  0  1  0  0  0  0  0  0
  186.4770  178.4840  145.7820 O   0  0  0  0  0  0  0  0  0  0  0  0
  187.4140  177.6780  146.4350 C   0  0  0  0  0  2  0  0  0  0  0  0
  188.8030  177.9920  145.9140 C   0  0  0  0  0  2  0  0  0  0  0  0
  189.7510  176.8650  146.2840 C   0  0  0  0  0  2  0  0  0  0  0  0
  191.1710  177.1970  145.8440 C   0  0  1  0  0  3  0  0  0  0  0  0
  192.0880  176.4830  146.6160 O   0  0  0  0  0  1  0  0  0  0  0  0
  191.3620  176.8350  144.3810 C   0  0  0  0  0  2  0  0  0  0  0  0
  192.0130  177.8690  143.7100 O   0  0  0  0  0  0  0  0  0  0  0  0
  191.1100  178.8800  143.6850 N   0  0  0  0  0  1  0  0  0  0  0  0
  181.5910  178.7450  141.2720 C   0  0  0  0  0  0  0  0  0  0  0  0
  180.9480  178.5510  142.3400 O   0  0  0  0  0  0  0  0  0  0  0  0
  180.9150  178.9860  140.0730 O   0  0  0  0  0  0  0  0  0  0  0  0
  180.0010  180.0630  139.9400 C   0  0  0  0  0  2  0  0  0  0  0  0
  181.0140  181.8650  138.5900 C   0  0  0  0  0  2  0  0  0  0  0  0
  179.5090  182.0350  138.5490 C   0  0  0  0  0  2  0  0  0  0  0  0
  180.1140  180.6480  138.5460 C   0  0  0  0  0  3  0  0  0  0  0  0
  2  4  1  0  0  0  0
  2  6  1  0  0  0  0
  3  4  2  0  0  0  0
  4  1  1  0  0  0  0
  5  2  2  0  0  0  0
  7  3  1  0  0  0  0
  8  7  2  0  0  0  0
  8  5  1  0  0  0  0
  9  7  1  0  0  0  0
 10  9  1  0  0  0  0
 11 12  2  0  0  0  0
 13 10  1  0  0  0  0
 13 11  1  0  0  0  0
 14 11  1  0  0  0  0
 15 20  1  6  0  0  0
 15 19  1  0  0  0  0
 15 16  1  0  0  0  0
 17 20  1  0  0  0  0
 18 17  1  0  0  0  0
 18 22  1  0  0  0  0
 18 25  1  1  0  0  0
 19 16  1  0  0  0  0
 21 24  1  6  0  0  0
 21 15  1  0  0  0  0
 22 14  1  6  0  0  0
 22 21  1  0  0  0  0
 24 23  1  0  0  0  0
 26 25  1  0  0  0  0
 27  5  1  0  0  0  0
 28 27  1  0  0  0  0
 29 30  1  0  0  0  0
 30 28  1  0  0  0  0
 31  1  1  0  0  0  0
 31 32  1  0  0  0  0
 33 32  1  0  0  0  0
 34 35  1  0  0  0  0
 34 33  1  0  0  0  0
 35 36  2  0  0  0  0
 36 39  1  0  0  0  0
 38 40  1  0  0  0  0
 39 37  2  0  0  0  0
 39 38  1  0  0  0  0
 40 41  1  0  0  0  0
 41 42  1  0  0  0  0
 42 43  1  1  0  0  0
 44 42  1  0  0  0  0
 44 45  1  0  0  0  0
 46 47  1  0  0  0  0
 46 45  1  0  0  0  0
 48 47  1  0  0  0  0
 48 49  1  1  0  0  0
 50 48  1  0  0  0  0
 51 50  1  0  0  0  0
 52 51  1  0  0  0  0
 53 36  1  0  0  0  0
 53 54  2  0  0  0  0
 55 53  1  0  0  0  0
 56 55  1  0  0  0  0
 58 57  1  0  0  0  0
 59 58  1  0  0  0  0
 59 57  1  0  0  0  0
 59 56  1  0  0  0  0
M  END
>  <MODEL>
1

>  <REMARK>
 VINA RESULT:      -5.4      0.000      0.000
  Name = 
  31 active torsions:
  status: ('A' for Active; 'I' for Inactive)
    1  A    between atoms: O_2  and  C_19
    2  A    between atoms: O_2  and  C_21
    3  A    between atoms: C_3  and  C_10
    4  A    between atoms: C_3  and  C_41
    5  A    between atoms: C_5  and  C_30
    6  A    between atoms: C_5  and  O_37
    7  A    between atoms: C_9  and  C_12
    8  A    between atoms: C_9  and  C_52
    9  A    between atoms: C_10  and  N_27
   10  A    between atoms: C_13  and  C_53
   11  A    between atoms: C_13  and  O_55
   12  A    between atoms: C_14  and  C_16
   13  A    between atoms: C_14  and  N_59
   14  A    between atoms: C_15  and  C_18
   15  A    between atoms: C_16  and  C_29
   16  A    between atoms: C_17  and  N_32
   17  A    between atoms: C_17  and  N_49
   18  A    between atoms: C_19  and  C_54
   19  A    between atoms: C_20  and  C_30
   20  A    between atoms: C_20  and  C_53
   21  A    between atoms: C_24  and  O_34
   22  A    between atoms: C_26  and  C_48
   23  A    between atoms: C_28  and  O_50
   24  A    between atoms: C_28  and  C_56
   25  A    between atoms: C_31  and  C_33
   26  A    between atoms: C_31  and  O_50
   27  A    between atoms: C_33  and  C_51
   28  A    between atoms: O_34  and  C_58
   29  A    between atoms: C_41  and  O_55
   30  A    between atoms: N_46  and  N_49
   31  A    between atoms: N_46  and  C_52
                            x       y       z     vdW  Elec       q    Type
                         _______ _______ _______ _____ _____    ______ ____

>  <TORSDO>
F 31

$$$$
=
 OpenBabel10222418143D

 59 62  0  0  1  0  0  0  0  0999 V2000
  190.6830  175.9370  138.5600 C   0  0  0  0  0  2  0  0  0  0  0  0
  192.3580  174.6380  137.1620 C   0  0  0  0  0  0  0  0  0  0  0  0
  189.9750  174.2280  136.9040 C   0  0  0  0  0  3  0  0  0  0  0  0
  191.0210  174.9210  137.5150 C   0  0  0  0  0  0  0  0  0  0  0  0
  192.6300  173.6460  136.2010 C   0  0  0  0  0  0  0  0  0  0  0  0
  193.4920  175.3730  137.8050 C   0  0  0  0  0  1  0  0  0  0  0  0
  190.2410  173.2340  135.9570 C   0  0  0  0  0  0  0  0  0  0  0  0
  191.5650  172.9470  135.6090 C   0  0  0  0  0  3  0  0  0  0  0  0
  189.1310  172.4680  135.3170 C   0  0  0  0  0  2  0  0  0  0  0  0
  187.9850  172.2780  136.3000 C   0  0  0  0  0  2  0  0  0  0  0  0
  185.8480  173.5980  136.2680 C   0  0  0  0  0  0  0  0  0  0  0  0
  186.1620  174.1570  137.3540 O   0  0  0  0  0  0  0  0  0  0  0  0
  186.7240  172.6300  135.6740 N   0  0  0  0  0  2  0  0  0  0  0  0
  184.6530  173.9570  135.6400 O   0  0  0  0  0  0  0  0  0  0  0  0
  181.3450  174.9040  137.1400 C   0  0  2  0  0  0  0  0  0  0  0  0
  181.2240  175.1690  138.5830 C   0  0  0  0  0  2  0  0  0  0  0  0
  181.0440  173.1710  135.3480 C   0  0  0  0  0  2  0  0  0  0  0  0
  182.5230  172.7790  135.5160 C   0  0  1  0  0  3  0  0  0  0  0  0
  180.6650  176.0350  137.6170 O   0  0  0  0  0  0  0  0  0  0  0  0
  180.4430  173.7950  136.6100 C   0  0  0  0  0  2  0  0  0  0  0  0
  182.7190  175.1650  136.5320 C   0  0  1  0  0  3  0  0  0  0  0  0
  183.3890  173.8070  136.2780 C   0  0  2  0  0  3  0  0  0  0  0  0
  183.6550  176.8860  135.1640 O   0  0  0  0  0  1  0  0  0  0  0  0
  182.5990  175.9800  135.2500 C   0  0  0  0  0  2  0  0  0  0  0  0
  182.6700  171.3870  136.1180 C   0  0  0  0  0  2  0  0  0  0  0  0
  181.5520  170.6000  135.8270 O   0  0  0  0  0  1  0  0  0  0  0  0
  193.9590  173.3690  135.8500 O   0  0  0  0  0  0  0  0  0  0  0  0
  194.6670  174.0850  134.8430 C   0  0  0  0  0  2  0  0  0  0  0  0
  196.6280  175.2240  135.8380 C   0  0  0  0  0  1  0  0  0  0  0  0
  196.1630  173.9920  135.0890 C   0  0  0  0  0  2  0  0  0  0  0  0
  190.0840  177.1790  137.9300 C   0  0  0  0  0  2  0  0  0  0  0  0
  188.7720  177.4230  138.5020 N   0  0  0  0  0  2  0  0  0  0  0  0
  188.9240  178.4380  139.4540 N   0  0  0  0  0  2  0  0  0  0  0  0
  187.8690  178.2510  140.4380 C   0  0  0  0  0  2  0  0  0  0  0  0
  186.6040  178.7510  139.9120 N   0  0  0  0  0  0  0  0  0  0  0  0
  185.4900  178.7860  140.5800 C   0  0  0  0  0  0  0  0  0  0  0  0
  186.3840  177.6080  142.4620 N   0  0  0  0  0  2  0  0  0  0  0  0
  184.3630  178.7860  142.8110 N   0  0  0  0  0  2  0  0  0  0  0  0
  185.4020  178.2870  141.9660 C   0  0  0  0  0  0  0  0  0  0  0  0
  184.3260  178.5440  144.2450 C   0  0  0  0  0  2  0  0  0  0  0  0
  185.7130  178.7790  144.8220 C   0  0  0  0  0  2  0  0  0  0  0  0
  185.8000  178.3190  146.2730 C   0  0  2  0  0  3  0  0  0  0  0  0
  185.1680  179.2410  147.1120 O   0  0  0  0  0  1  0  0  0  0  0  0
  187.1320  178.1410  146.6610 O   0  0  0  0  0  0  0  0  0  0  0  0
  187.8400  178.0180  145.4620 C   0  0  0  0  0  2  0  0  0  0  0  0
  189.2540  177.5540  145.7550 C   0  0  0  0  0  2  0  0  0  0  0  0
  190.2370  178.3740  144.9390 C   0  0  0  0  0  2  0  0  0  0  0  0
  191.5370  177.6040  144.7400 C   0  0  1  0  0  3  0  0  0  0  0  0
  191.6270  176.5730  145.6750 O   0  0  0  0  0  1  0  0  0  0  0  0
  191.5860  177.0150  143.3410 C   0  0  0  0  0  2  0  0  0  0  0  0
  191.3280  175.6450  143.3860 O   0  0  0  0  0  0  0  0  0  0  0  0
  190.1280  175.5040  142.7720 N   0  0  0  0  0  1  0  0  0  0  0  0
  184.2690  179.2590  139.9080 C   0  0  0  0  0  0  0  0  0  0  0  0
  184.2840  180.3480  139.2710 O   0  0  0  0  0  0  0  0  0  0  0  0
  183.0970  178.5020  139.9860 O   0  0  0  0  0  0  0  0  0  0  0  0
  181.9360  178.9970  140.6350 C   0  0  0  0  0  2  0  0  0  0  0  0
  181.1330  179.4130  138.3380 C   0  0  0  0  0  2  0  0  0  0  0  0
  180.3140  180.2660  139.2840 C   0  0  0  0  0  2  0  0  0  0  0  0
  180.7490  178.8770  139.7000 C   0  0  0  0  0  3  0  0  0  0  0  0
  2  4  1  0  0  0  0
  2  6  1  0  0  0  0
  3  4  2  0  0  0  0
  4  1  1  0  0  0  0
  5  2  2  0  0  0  0
  7  3  1  0  0  0  0
  8  7  2  0  0  0  0
  8  5  1  0  0  0  0
  9  7  1  0  0  0  0
  9 10  1  0  0  0  0
 11 12  2  0  0  0  0
 13 11  1  0  0  0  0
 13 10  1  0  0  0  0
 14 11  1  0  0  0  0
 15 20  1  6  0  0  0
 15 19  1  0  0  0  0
 15 16  1  0  0  0  0
 17 18  1  0  0  0  0
 17 20  1  0  0  0  0
 18 25  1  1  0  0  0
 18 22  1  0  0  0  0
 19 16  1  0  0  0  0
 21 24  1  6  0  0  0
 21 15  1  0  0  0  0
 22 14  1  6  0  0  0
 22 21  1  0  0  0  0
 23 24  1  0  0  0  0
 26 25  1  0  0  0  0
 27  5  1  0  0  0  0
 28 30  1  0  0  0  0
 28 27  1  0  0  0  0
 30 29  1  0  0  0  0
 31 32  1  0  0  0  0
 31  1  1  0  0  0  0
 32 33  1  0  0  0  0
 33 34  1  0  0  0  0
 35 34  1  0  0  0  0
 35 36  2  0  0  0  0
 36 39  1  0  0  0  0
 38 40  1  0  0  0  0
 39 37  2  0  0  0  0
 39 38  1  0  0  0  0
 40 41  1  0  0  0  0
 41 42  1  0  0  0  0
 42 44  1  0  0  0  0
 42 43  1  1  0  0  0
 45 46  1  0  0  0  0
 45 44  1  0  0  0  0
 47 46  1  0  0  0  0
 48 47  1  0  0  0  0
 48 49  1  1  0  0  0
 50 51  1  0  0  0  0
 50 48  1  0  0  0  0
 52 51  1  0  0  0  0
 53 55  1  0  0  0  0
 53 36  1  0  0  0  0
 54 53  2  0  0  0  0
 55 56  1  0  0  0  0
 57 58  1  0  0  0  0
 57 59  1  0  0  0  0
 58 59  1  0  0  0  0
 59 56  1  0  0  0  0
M  END
>  <MODEL>
2

>  <REMARK>
 VINA RESULT:      -5.3      1.761      2.481
  Name = 
  31 active torsions:
  status: ('A' for Active; 'I' for Inactive)
    1  A    between atoms: O_2  and  C_19
    2  A    between atoms: O_2  and  C_21
    3  A    between atoms: C_3  and  C_10
    4  A    between atoms: C_3  and  C_41
    5  A    between atoms: C_5  and  C_30
    6  A    between atoms: C_5  and  O_37
    7  A    between atoms: C_9  and  C_12
    8  A    between atoms: C_9  and  C_52
    9  A    between atoms: C_10  and  N_27
   10  A    between atoms: C_13  and  C_53
   11  A    between atoms: C_13  and  O_55
   12  A    between atoms: C_14  and  C_16
   13  A    between atoms: C_14  and  N_59
   14  A    between atoms: C_15  and  C_18
   15  A    between atoms: C_16  and  C_29
   16  A    between atoms: C_17  and  N_32
   17  A    between atoms: C_17  and  N_49
   18  A    between atoms: C_19  and  C_54
   19  A    between atoms: C_20  and  C_30
   20  A    between atoms: C_20  and  C_53
   21  A    between atoms: C_24  and  O_34
   22  A    between atoms: C_26  and  C_48
   23  A    between atoms: C_28  and  O_50
   24  A    between atoms: C_28  and  C_56
   25  A    between atoms: C_31  and  C_33
   26  A    between atoms: C_31  and  O_50
   27  A    between atoms: C_33  and  C_51
   28  A    between atoms: O_34  and  C_58
   29  A    between atoms: C_41  and  O_55
   30  A    between atoms: N_46  and  N_49
   31  A    between atoms: N_46  and  C_52
                            x       y       z     vdW  Elec       q    Type
                         _______ _______ _______ _____ _____    ______ ____

>  <TORSDO>
F 31

$$$$
=
 OpenBabel10222418143D

 59 62  0  0  1  0  0  0  0  0999 V2000
  186.1730  177.5280  145.8620 C   0  0  0  0  0  2  0  0  0  0  0  0
  188.6910  177.4390  146.1780 C   0  0  0  0  0  0  0  0  0  0  0  0
  187.7190  176.9950  143.9940 C   0  0  0  0  0  3  0  0  0  0  0  0
  187.5600  177.3270  145.3410 C   0  0  0  0  0  0  0  0  0  0  0  0
  189.9750  177.2030  145.6530 C   0  0  0  0  0  0  0  0  0  0  0  0
  188.5390  177.7960  147.6240 C   0  0  0  0  0  1  0  0  0  0  0  0
  188.9920  176.7480  143.4700 C   0  0  0  0  0  0  0  0  0  0  0  0
  190.1140  176.8540  144.2990 C   0  0  0  0  0  3  0  0  0  0  0  0
  189.1710  176.3670  142.0370 C   0  0  0  0  0  2  0  0  0  0  0  0
  188.8870  177.5590  141.1350 C   0  0  0  0  0  2  0  0  0  0  0  0
  190.7930  177.2720  139.5240 C   0  0  0  0  0  0  0  0  0  0  0  0
  191.6250  177.4730  140.4520 O   0  0  0  0  0  0  0  0  0  0  0  0
  189.3860  177.3030  139.7960 N   0  0  0  0  0  2  0  0  0  0  0  0
  191.2650  176.9910  138.2400 O   0  0  0  0  0  0  0  0  0  0  0  0
  189.8360  174.2020  136.1730 C   0  0  2  0  0  0  0  0  0  0  0  0
  188.9150  173.2220  136.7700 C   0  0  0  0  0  2  0  0  0  0  0  0
  192.2270  174.6410  135.5410 C   0  0  0  0  0  2  0  0  0  0  0  0
  192.4350  175.3180  136.9070 C   0  0  1  0  0  3  0  0  0  0  0  0
  188.6400  173.8440  135.5310 O   0  0  0  0  0  0  0  0  0  0  0  0
  191.0950  173.6090  135.5510 C   0  0  0  0  0  2  0  0  0  0  0  0
  189.8490  175.5810  136.8250 C   0  0  1  0  0  3  0  0  0  0  0  0
  191.1360  175.7000  137.6530 C   0  0  2  0  0  3  0  0  0  0  0  0
  188.9180  177.6980  136.2250 O   0  0  0  0  0  1  0  0  0  0  0  0
  189.7550  176.6800  135.7720 C   0  0  0  0  0  2  0  0  0  0  0  0
  193.3600  174.5030  137.8030 C   0  0  0  0  0  2  0  0  0  0  0  0
  194.4220  175.2860  138.2630 O   0  0  0  0  0  1  0  0  0  0  0  0
  191.0960  177.3170  146.4870 O   0  0  0  0  0  0  0  0  0  0  0  0
  191.7410  176.1980  147.0870 C   0  0  0  0  0  2  0  0  0  0  0  0
  193.1870  175.4450  148.9510 C   0  0  0  0  0  1  0  0  0  0  0  0
  192.3980  176.6110  148.3930 C   0  0  0  0  0  2  0  0  0  0  0  0
  185.2510  178.0220  144.7640 C   0  0  0  0  0  2  0  0  0  0  0  0
  186.0460  178.5220  143.6570 N   0  0  0  0  0  2  0  0  0  0  0  0
  185.4490  178.0520  142.4810 N   0  0  0  0  0  2  0  0  0  0  0  0
  184.8330  179.2020  141.8350 C   0  0  0  0  0  2  0  0  0  0  0  0
  183.4360  178.9130  141.5360 N   0  0  0  0  0  0  0  0  0  0  0  0
  182.9510  178.7790  140.3370 C   0  0  0  0  0  0  0  0  0  0  0  0
  184.2300  180.1070  138.8110 N   0  0  0  0  0  2  0  0  0  0  0  0
  184.3380  177.7620  138.5240 N   0  0  0  0  0  2  0  0  0  0  0  0
  183.7970  178.9340  139.1380 C   0  0  0  0  0  0  0  0  0  0  0  0
  185.3630  177.8120  137.4930 C   0  0  0  0  0  2  0  0  0  0  0  0
  184.8540  177.0910  136.2550 C   0  0  0  0  0  2  0  0  0  0  0  0
  185.7910  175.9610  135.8420 C   0  0  2  0  0  3  0  0  0  0  0  0
  186.4030  176.2620  134.6210 O   0  0  0  0  0  1  0  0  0  0  0  0
  185.1020  174.7480  135.7540 O   0  0  0  0  0  0  0  0  0  0  0  0
  185.2020  174.1870  137.0310 C   0  0  0  0  0  2  0  0  0  0  0  0
  184.4930  172.8460  137.0510 C   0  0  0  0  0  2  0  0  0  0  0  0
  183.4410  172.8110  135.9560 C   0  0  0  0  0  2  0  0  0  0  0  0
  182.9260  171.3910  135.7560 C   0  0  1  0  0  3  0  0  0  0  0  0
  183.5340  170.5320  136.6730 O   0  0  0  0  0  1  0  0  0  0  0  0
  181.4220  171.3490  135.9550 C   0  0  0  0  0  2  0  0  0  0  0  0
  181.0080  172.4320  136.7300 O   0  0  0  0  0  0  0  0  0  0  0  0
  180.5450  171.8750  137.8750 N   0  0  0  0  0  1  0  0  0  0  0  0
  181.5060  178.5500  140.1740 C   0  0  0  0  0  0  0  0  0  0  0  0
  180.6820  179.2730  140.7980 O   0  0  0  0  0  0  0  0  0  0  0  0
  181.0570  177.5260  139.3360 O   0  0  0  0  0  0  0  0  0  0  0  0
  180.3280  177.8040  138.1500 C   0  0  0  0  0  2  0  0  0  0  0  0
  179.7650  179.5540  136.5020 C   0  0  0  0  0  2  0  0  0  0  0  0
  181.2000  179.1280  136.2660 C   0  0  0  0  0  2  0  0  0  0  0  0
  180.6560  179.2060  137.6760 C   0  0  0  0  0  3  0  0  0  0  0  0
  2  6  1  0  0  0  0
  3  4  1  0  0  0  0
  4  1  1  0  0  0  0
  4  2  2  0  0  0  0
  5  2  1  0  0  0  0
  5 27  1  0  0  0  0
  7  3  2  0  0  0  0
  7  8  1  0  0  0  0
  8  5  2  0  0  0  0
  9  7  1  0  0  0  0
 10  9  1  0  0  0  0
 11 13  1  0  0  0  0
 11 12  2  0  0  0  0
 13 10  1  0  0  0  0
 14 11  1  0  0  0  0
 15 20  1  6  0  0  0
 15 16  1  0  0  0  0
 15 21  1  0  0  0  0
 17 20  1  0  0  0  0
 17 18  1  0  0  0  0
 18 22  1  0  0  0  0
 18 25  1  1  0  0  0
 19 15  1  0  0  0  0
 19 16  1  0  0  0  0
 21 24  1  6  0  0  0
 21 22  1  0  0  0  0
 22 14  1  6  0  0  0
 24 23  1  0  0  0  0
 25 26  1  0  0  0  0
 27 28  1  0  0  0  0
 28 30  1  0  0  0  0
 30 29  1  0  0  0  0
 31  1  1  0  0  0  0
 32 31  1  0  0  0  0
 33 32  1  0  0  0  0
 34 33  1  0  0  0  0
 35 34  1  0  0  0  0
 36 35  2  0  0  0  0
 37 39  2  0  0  0  0
 38 39  1  0  0  0  0
 39 36  1  0  0  0  0
 40 38  1  0  0  0  0
 41 40  1  0  0  0  0
 42 43  1  6  0  0  0
 42 41  1  0  0  0  0
 44 42  1  0  0  0  0
 44 45  1  0  0  0  0
 45 46  1  0  0  0  0
 47 46  1  0  0  0  0
 48 50  1  0  0  0  0
 48 47  1  0  0  0  0
 48 49  1  1  0  0  0
 50 51  1  0  0  0  0
 51 52  1  0  0  0  0
 53 36  1  0  0  0  0
 53 54  2  0  0  0  0
 55 53  1  0  0  0  0
 56 55  1  0  0  0  0
 57 59  1  0  0  0  0
 58 57  1  0  0  0  0
 58 59  1  0  0  0  0
 59 56  1  0  0  0  0
M  END
>  <MODEL>
3

>  <REMARK>
 VINA RESULT:      -5.2      2.224      8.471
  Name = 
  31 active torsions:
  status: ('A' for Active; 'I' for Inactive)
    1  A    between atoms: O_2  and  C_19
    2  A    between atoms: O_2  and  C_21
    3  A    between atoms: C_3  and  C_10
    4  A    between atoms: C_3  and  C_41
    5  A    between atoms: C_5  and  C_30
    6  A    between atoms: C_5  and  O_37
    7  A    between atoms: C_9  and  C_12
    8  A    between atoms: C_9  and  C_52
    9  A    between atoms: C_10  and  N_27
   10  A    between atoms: C_13  and  C_53
   11  A    between atoms: C_13  and  O_55
   12  A    between atoms: C_14  and  C_16
   13  A    between atoms: C_14  and  N_59
   14  A    between atoms: C_15  and  C_18
   15  A    between atoms: C_16  and  C_29
   16  A    between atoms: C_17  and  N_32
   17  A    between atoms: C_17  and  N_49
   18  A    between atoms: C_19  and  C_54
   19  A    between atoms: C_20  and  C_30
   20  A    between atoms: C_20  and  C_53
   21  A    between atoms: C_24  and  O_34
   22  A    between atoms: C_26  and  C_48
   23  A    between atoms: C_28  and  O_50
   24  A    between atoms: C_28  and  C_56
   25  A    between atoms: C_31  and  C_33
   26  A    between atoms: C_31  and  O_50
   27  A    between atoms: C_33  and  C_51
   28  A    between atoms: O_34  and  C_58
   29  A    between atoms: C_41  and  O_55
   30  A    between atoms: N_46  and  N_49
   31  A    between atoms: N_46  and  C_52
                            x       y       z     vdW  Elec       q    Type
                         _______ _______ _______ _____ _____    ______ ____

>  <TORSDO>
F 31

$$$$
=
 OpenBabel10222418143D

 59 62  0  0  1  0  0  0  0  0999 V2000
  190.3230  176.5360  139.0090 C   0  0  0  0  0  2  0  0  0  0  0  0
  192.3200  175.5330  137.8030 C   0  0  0  0  0  0  0  0  0  0  0  0
  190.0770  174.7160  137.3380 C   0  0  0  0  0  3  0  0  0  0  0  0
  190.9270  175.5850  138.0250 C   0  0  0  0  0  0  0  0  0  0  0  0
  192.8470  174.5940  136.8960 C   0  0  0  0  0  0  0  0  0  0  0  0
  193.2460  176.4580  138.5300 C   0  0  0  0  0  1  0  0  0  0  0  0
  190.5980  173.7740  136.4450 C   0  0  0  0  0  0  0  0  0  0  0  0
  191.9780  173.7170  136.2270 C   0  0  0  0  0  3  0  0  0  0  0  0
  189.7000  172.8230  135.7250 C   0  0  0  0  0  2  0  0  0  0  0  0
  188.4480  172.5540  136.5460 C   0  0  0  0  0  2  0  0  0  0  0  0
  186.4440  174.0140  136.1430 C   0  0  0  0  0  0  0  0  0  0  0  0
  186.7410  174.7210  137.1450 O   0  0  0  0  0  0  0  0  0  0  0  0
  187.2630  172.8950  135.7800 N   0  0  0  0  0  2  0  0  0  0  0  0
  185.3250  174.3560  135.3790 O   0  0  0  0  0  0  0  0  0  0  0  0
  181.9480  173.9440  136.9650 C   0  0  2  0  0  0  0  0  0  0  0  0
  180.7270  173.9600  136.1440 C   0  0  0  0  0  2  0  0  0  0  0  0
  183.4500  175.3320  138.4230 C   0  0  0  0  0  2  0  0  0  0  0  0
  184.3170  175.6410  137.1880 C   0  0  1  0  0  3  0  0  0  0  0  0
  180.9490  172.9720  137.1290 O   0  0  0  0  0  0  0  0  0  0  0  0
  181.9990  174.9980  138.0660 C   0  0  0  0  0  2  0  0  0  0  0  0
  183.2160  173.4770  136.2570 C   0  0  1  0  0  3  0  0  0  0  0  0
  184.0830  174.7120  135.9750 C   0  0  2  0  0  3  0  0  0  0  0  0
  183.3910  171.1890  136.9240 O   0  0  0  0  0  1  0  0  0  0  0  0
  183.9610  172.4490  137.1010 C   0  0  0  0  0  2  0  0  0  0  0  0
  184.2140  177.1060  136.7820 C   0  0  0  0  0  2  0  0  0  0  0  0
  185.2920  177.4740  135.9730 O   0  0  0  0  0  1  0  0  0  0  0  0
  194.2310  174.5470  136.6760 O   0  0  0  0  0  0  0  0  0  0  0  0
  194.8170  174.0030  135.4970 C   0  0  0  0  0  2  0  0  0  0  0  0
  196.4810  173.3950  137.2270 C   0  0  0  0  0  1  0  0  0  0  0  0
  196.2730  173.6550  135.7490 C   0  0  0  0  0  2  0  0  0  0  0  0
  189.4710  177.5730  138.3030 C   0  0  0  0  0  2  0  0  0  0  0  0
  188.1250  177.5400  138.8450 N   0  0  0  0  0  2  0  0  0  0  0  0
  188.0000  178.6430  139.6970 N   0  0  0  0  0  2  0  0  0  0  0  0
  186.8210  178.4100  140.5160 C   0  0  0  0  0  2  0  0  0  0  0  0
  185.6530  179.0180  139.8900 N   0  0  0  0  0  0  0  0  0  0  0  0
  184.4980  179.1640  140.4690 C   0  0  0  0  0  0  0  0  0  0  0  0
  184.6680  177.5170  142.1980 N   0  0  0  0  0  2  0  0  0  0  0  0
  183.8210  179.6330  142.8280 N   0  0  0  0  0  2  0  0  0  0  0  0
  184.2570  178.6910  141.8460 C   0  0  0  0  0  0  0  0  0  0  0  0
  183.7810  179.3310  144.2510 C   0  0  0  0  0  2  0  0  0  0  0  0
  185.2030  179.2500  144.7790 C   0  0  0  0  0  2  0  0  0  0  0  0
  185.2740  178.4500  146.0750 C   0  0  2  0  0  3  0  0  0  0  0  0
  185.5320  179.3000  147.1550 O   0  0  0  0  0  1  0  0  0  0  0  0
  186.2530  177.4550  145.9950 O   0  0  0  0  0  0  0  0  0  0  0  0
  187.0360  177.8120  144.8940 C   0  0  0  0  0  2  0  0  0  0  0  0
  187.4970  176.5590  144.1730 C   0  0  0  0  0  2  0  0  0  0  0  0
  188.8690  176.7980  143.5670 C   0  0  0  0  0  2  0  0  0  0  0  0
  189.7890  177.4710  144.5780 C   0  0  1  0  0  3  0  0  0  0  0  0
  189.8130  176.7350  145.7630 O   0  0  0  0  0  1  0  0  0  0  0  0
  191.1980  177.5640  144.0200 C   0  0  0  0  0  2  0  0  0  0  0  0
  191.8660  178.6550  144.5750 O   0  0  0  0  0  0  0  0  0  0  0  0
  191.4180  179.7230  143.8710 N   0  0  0  0  0  1  0  0  0  0  0  0
  183.3830  179.7390  139.7010 C   0  0  0  0  0  0  0  0  0  0  0  0
  183.6160  180.5790  138.7880 O   0  0  0  0  0  0  0  0  0  0  0  0
  182.0700  179.3590  139.9920 O   0  0  0  0  0  0  0  0  0  0  0  0
  181.4060  178.3510  139.2460 C   0  0  0  0  0  2  0  0  0  0  0  0
  179.7320  177.9240  137.4830 C   0  0  0  0  0  2  0  0  0  0  0  0
  180.9250  178.6030  136.8430 C   0  0  0  0  0  2  0  0  0  0  0  0
  180.4830  179.0020  138.2350 C   0  0  0  0  0  3  0  0  0  0  0  0
  2  4  1  0  0  0  0
  2  6  1  0  0  0  0
  3  4  2  0  0  0  0
  4  1  1  0  0  0  0
  5  2  2  0  0  0  0
  7  3  1  0  0  0  0
  8  7  2  0  0  0  0
  8  5  1  0  0  0  0
  9  7  1  0  0  0  0
  9 10  1  0  0  0  0
 11 12  2  0  0  0  0
 13 11  1  0  0  0  0
 13 10  1  0  0  0  0
 14 11  1  0  0  0  0
 15 16  1  6  0  0  0
 15 19  1  0  0  0  0
 15 20  1  0  0  0  0
 16 19  1  0  0  0  0
 18 25  1  6  0  0  0
 18 17  1  0  0  0  0
 20 17  1  0  0  0  0
 21 15  1  0  0  0  0
 21 24  1  1  0  0  0
 22 14  1  1  0  0  0
 22 21  1  0  0  0  0
 22 18  1  0  0  0  0
 23 24  1  0  0  0  0
 26 25  1  0  0  0  0
 27  5  1  0  0  0  0
 28 30  1  0  0  0  0
 28 27  1  0  0  0  0
 30 29  1  0  0  0  0
 31 32  1  0  0  0  0
 31  1  1  0  0  0  0
 32 33  1  0  0  0  0
 33 34  1  0  0  0  0
 35 36  2  0  0  0  0
 35 34  1  0  0  0  0
 36 39  1  0  0  0  0
 38 40  1  0  0  0  0
 39 37  2  0  0  0  0
 39 38  1  0  0  0  0
 40 41  1  0  0  0  0
 41 42  1  0  0  0  0
 42 43  1  1  0  0  0
 44 42  1  0  0  0  0
 45 44  1  0  0  0  0
 46 45  1  0  0  0  0
 47 46  1  0  0  0  0
 47 48  1  0  0  0  0
 48 49  1  1  0  0  0
 50 51  1  0  0  0  0
 50 48  1  0  0  0  0
 52 51  1  0  0  0  0
 53 55  1  0  0  0  0
 53 36  1  0  0  0  0
 54 53  2  0  0  0  0
 56 55  1  0  0  0  0
 57 59  1  0  0  0  0
 58 57  1  0  0  0  0
 58 59  1  0  0  0  0
 59 56  1  0  0  0  0
M  END
>  <MODEL>
4

>  <REMARK>
 VINA RESULT:      -5.1      1.809      2.839
  Name = 
  31 active torsions:
  status: ('A' for Active; 'I' for Inactive)
    1  A    between atoms: O_2  and  C_19
    2  A    between atoms: O_2  and  C_21
    3  A    between atoms: C_3  and  C_10
    4  A    between atoms: C_3  and  C_41
    5  A    between atoms: C_5  and  C_30
    6  A    between atoms: C_5  and  O_37
    7  A    between atoms: C_9  and  C_12
    8  A    between atoms: C_9  and  C_52
    9  A    between atoms: C_10  and  N_27
   10  A    between atoms: C_13  and  C_53
   11  A    between atoms: C_13  and  O_55
   12  A    between atoms: C_14  and  C_16
   13  A    between atoms: C_14  and  N_59
   14  A    between atoms: C_15  and  C_18
   15  A    between atoms: C_16  and  C_29
   16  A    between atoms: C_17  and  N_32
   17  A    between atoms: C_17  and  N_49
   18  A    between atoms: C_19  and  C_54
   19  A    between atoms: C_20  and  C_30
   20  A    between atoms: C_20  and  C_53
   21  A    between atoms: C_24  and  O_34
   22  A    between atoms: C_26  and  C_48
   23  A    between atoms: C_28  and  O_50
   24  A    between atoms: C_28  and  C_56
   25  A    between atoms: C_31  and  C_33
   26  A    between atoms: C_31  and  O_50
   27  A    between atoms: C_33  and  C_51
   28  A    between atoms: O_34  and  C_58
   29  A    between atoms: C_41  and  O_55
   30  A    between atoms: N_46  and  N_49
   31  A    between atoms: N_46  and  C_52
                            x       y       z     vdW  Elec       q    Type
                         _______ _______ _______ _____ _____    ______ ____

>  <TORSDO>
F 31

$$$$
=
 OpenBabel10222418143D

 59 62  0  0  1  0  0  0  0  0999 V2000
  189.1700  177.6770  140.8690 C   0  0  0  0  0  2  0  0  0  0  0  0
  190.9000  177.0820  139.1090 C   0  0  0  0  0  0  0  0  0  0  0  0
  188.5480  177.2260  138.5080 C   0  0  0  0  0  3  0  0  0  0  0  0
  189.5570  177.3300  139.4680 C   0  0  0  0  0  0  0  0  0  0  0  0
  191.2130  176.7200  137.7860 C   0  0  0  0  0  0  0  0  0  0  0  0
  191.9950  177.1910  140.1240 C   0  0  0  0  0  1  0  0  0  0  0  0
  188.8530  176.8540  137.1950 C   0  0  0  0  0  0  0  0  0  0  0  0
  190.1820  176.6040  136.8390 C   0  0  0  0  0  3  0  0  0  0  0  0
  187.7780  176.7150  136.1690 C   0  0  0  0  0  2  0  0  0  0  0  0
  188.0410  175.5020  135.2900 C   0  0  0  0  0  2  0  0  0  0  0  0
  186.0310  174.0080  135.4850 C   0  0  0  0  0  0  0  0  0  0  0  0
  186.4430  173.5770  136.5970 O   0  0  0  0  0  0  0  0  0  0  0  0
  186.7920  174.9850  134.7620 N   0  0  0  0  0  2  0  0  0  0  0  0
  184.8120  173.5420  134.9860 O   0  0  0  0  0  0  0  0  0  0  0  0
  181.4980  173.2090  136.7190 C   0  0  2  0  0  0  0  0  0  0  0  0
  180.2600  173.0370  135.9420 C   0  0  0  0  0  2  0  0  0  0  0  0
  182.9560  174.8770  137.9020 C   0  0  0  0  0  2  0  0  0  0  0  0
  183.7770  175.0360  136.6100 C   0  0  1  0  0  3  0  0  0  0  0  0
  180.5580  172.2240  137.0580 O   0  0  0  0  0  0  0  0  0  0  0  0
  181.5170  174.4190  137.6450 C   0  0  0  0  0  2  0  0  0  0  0  0
  182.7730  172.7030  136.0510 C   0  0  1  0  0  3  0  0  0  0  0  0
  183.5660  173.9220  135.5590 C   0  0  2  0  0  3  0  0  0  0  0  0
  183.3940  170.5020  136.7440 O   0  0  0  0  0  1  0  0  0  0  0  0
  183.5920  171.8540  137.0180 C   0  0  0  0  0  2  0  0  0  0  0  0
  183.5850  176.4150  135.9900 C   0  0  0  0  0  2  0  0  0  0  0  0
  183.6250  176.3420  134.5950 O   0  0  0  0  0  1  0  0  0  0  0  0
  192.5480  176.4770  137.4320 O   0  0  0  0  0  0  0  0  0  0  0  0
  193.1690  175.2010  137.5530 C   0  0  0  0  0  2  0  0  0  0  0  0
  193.7480  174.9380  135.1600 C   0  0  0  0  0  1  0  0  0  0  0  0
  192.9220  174.3790  136.3000 C   0  0  0  0  0  2  0  0  0  0  0  0
  187.6830  177.9620  140.9630 C   0  0  0  0  0  2  0  0  0  0  0  0
  187.4770  179.3860  141.1520 N   0  0  0  0  0  2  0  0  0  0  0  0
  186.0960  179.6110  141.0920 N   0  0  0  0  0  2  0  0  0  0  0  0
  185.4510  178.3380  141.3790 C   0  0  0  0  0  2  0  0  0  0  0  0
  184.0970  178.5670  141.8670 N   0  0  0  0  0  0  0  0  0  0  0  0
  183.7700  178.6500  143.1230 C   0  0  0  0  0  0  0  0  0  0  0  0
  185.7600  177.6760  144.0290 N   0  0  0  0  0  2  0  0  0  0  0  0
  184.7770  179.4310  145.2730 N   0  0  0  0  0  2  0  0  0  0  0  0
  184.7710  178.4910  144.1950 C   0  0  0  0  0  0  0  0  0  0  0  0
  185.8540  179.5090  146.2470 C   0  0  0  0  0  2  0  0  0  0  0  0
  185.7610  178.3160  147.1840 C   0  0  0  0  0  2  0  0  0  0  0  0
  187.1400  177.7550  147.5130 C   0  0  2  0  0  3  0  0  0  0  0  0
  187.3950  177.8700  148.8820 O   0  0  0  0  0  1  0  0  0  0  0  0
  188.1330  178.4080  146.7760 O   0  0  0  0  0  0  0  0  0  0  0  0
  189.3210  177.7560  147.1200 C   0  0  0  0  0  2  0  0  0  0  0  0
  189.8010  176.9270  145.9450 C   0  0  0  0  0  2  0  0  0  0  0  0
  189.3190  177.5560  144.6490 C   0  0  0  0  0  2  0  0  0  0  0  0
  190.4990  178.0710  143.8350 C   0  0  1  0  0  3  0  0  0  0  0  0
  190.8450  179.3540  144.2590 O   0  0  0  0  0  1  0  0  0  0  0  0
  191.6940  177.1490  144.0070 C   0  0  0  0  0  2  0  0  0  0  0  0
  191.4450  175.9190  143.3980 O   0  0  0  0  0  0  0  0  0  0  0  0
  192.1260  175.0220  144.1520 N   0  0  0  0  0  1  0  0  0  0  0  0
  182.3530  178.8210  143.4810 C   0  0  0  0  0  0  0  0  0  0  0  0
  182.0380  179.1660  144.6530 O   0  0  0  0  0  0  0  0  0  0  0  0
  181.3620  178.5910  142.5220 O   0  0  0  0  0  0  0  0  0  0  0  0
  180.0140  178.3470  142.8920 C   0  0  0  0  0  2  0  0  0  0  0  0
  179.8470  178.9020  140.4920 C   0  0  0  0  0  2  0  0  0  0  0  0
  179.6450  180.1760  141.2850 C   0  0  0  0  0  2  0  0  0  0  0  0
  179.0940  178.8660  141.8050 C   0  0  0  0  0  3  0  0  0  0  0  0
  1 31  1  0  0  0  0
  2  4  1  0  0  0  0
  2  6  1  0  0  0  0
  3  4  2  0  0  0  0
  4  1  1  0  0  0  0
  5  2  2  0  0  0  0
  7  3  1  0  0  0  0
  8  7  2  0  0  0  0
  8  5  1  0  0  0  0
  9  7  1  0  0  0  0
 10  9  1  0  0  0  0
 11 12  2  0  0  0  0
 13 10  1  0  0  0  0
 13 11  1  0  0  0  0
 14 11  1  0  0  0  0
 15 16  1  6  0  0  0
 15 19  1  0  0  0  0
 15 20  1  0  0  0  0
 16 19  1  0  0  0  0
 18 25  1  6  0  0  0
 18 17  1  0  0  0  0
 20 17  1  0  0  0  0
 21 15  1  0  0  0  0
 21 24  1  1  0  0  0
 22 14  1  1  0  0  0
 22 21  1  0  0  0  0
 22 18  1  0  0  0  0
 23 24  1  0  0  0  0
 26 25  1  0  0  0  0
 27 28  1  0  0  0  0
 27  5  1  0  0  0  0
 29 30  1  0  0  0  0
 30 28  1  0  0  0  0
 31 32  1  0  0  0  0
 33 32  1  0  0  0  0
 33 34  1  0  0  0  0
 34 35  1  0  0  0  0
 35 36  2  0  0  0  0
 36 53  1  0  0  0  0
 36 39  1  0  0  0  0
 37 39  2  0  0  0  0
 38 40  1  0  0  0  0
 39 38  1  0  0  0  0
 40 41  1  0  0  0  0
 41 42  1  0  0  0  0
 42 43  1  1  0  0  0
 44 45  1  0  0  0  0
 44 42  1  0  0  0  0
 46 45  1  0  0  0  0
 47 46  1  0  0  0  0
 48 50  1  0  0  0  0
 48 49  1  1  0  0  0
 48 47  1  0  0  0  0
 51 50  1  0  0  0  0
 51 52  1  0  0  0  0
 53 54  2  0  0  0  0
 55 56  1  0  0  0  0
 55 53  1  0  0  0  0
 57 58  1  0  0  0  0
 57 59  1  0  0  0  0
 58 59  1  0  0  0  0
 59 56  1  0  0  0  0
M  END
>  <MODEL>
5

>  <REMARK>
 VINA RESULT:      -5.0      1.555      2.508
  Name = 
  31 active torsions:
  status: ('A' for Active; 'I' for Inactive)
    1  A    between atoms: O_2  and  C_19
    2  A    between atoms: O_2  and  C_21
    3  A    between atoms: C_3  and  C_10
    4  A    between atoms: C_3  and  C_41
    5  A    between atoms: C_5  and  C_30
    6  A    between atoms: C_5  and  O_37
    7  A    between atoms: C_9  and  C_12
    8  A    between atoms: C_9  and  C_52
    9  A    between atoms: C_10  and  N_27
   10  A    between atoms: C_13  and  C_53
   11  A    between atoms: C_13  and  O_55
   12  A    between atoms: C_14  and  C_16
   13  A    between atoms: C_14  and  N_59
   14  A    between atoms: C_15  and  C_18
   15  A    between atoms: C_16  and  C_29
   16  A    between atoms: C_17  and  N_32
   17  A    between atoms: C_17  and  N_49
   18  A    between atoms: C_19  and  C_54
   19  A    between atoms: C_20  and  C_30
   20  A    between atoms: C_20  and  C_53
   21  A    between atoms: C_24  and  O_34
   22  A    between atoms: C_26  and  C_48
   23  A    between atoms: C_28  and  O_50
   24  A    between atoms: C_28  and  C_56
   25  A    between atoms: C_31  and  C_33
   26  A    between atoms: C_31  and  O_50
   27  A    between atoms: C_33  and  C_51
   28  A    between atoms: O_34  and  C_58
   29  A    between atoms: C_41  and  O_55
   30  A    between atoms: N_46  and  N_49
   31  A    between atoms: N_46  and  C_52
                            x       y       z     vdW  Elec       q    Type
                         _______ _______ _______ _____ _____    ______ ____

>  <TORSDO>
F 31

$$$$
=
 OpenBabel10222418143D

 59 62  0  0  1  0  0  0  0  0999 V2000
  192.6550  174.7110  135.4240 C   0  0  0  0  0  2  0  0  0  0  0  0
  190.8730  172.9540  134.9940 C   0  0  0  0  0  0  0  0  0  0  0  0
  190.2860  175.3140  134.9880 C   0  0  0  0  0  3  0  0  0  0  0  0
  191.2470  174.3100  135.1200 C   0  0  0  0  0  0  0  0  0  0  0  0
  189.5280  172.6220  134.7460 C   0  0  0  0  0  0  0  0  0  0  0  0
  191.8900  171.8640  135.1310 C   0  0  0  0  0  1  0  0  0  0  0  0
  188.9470  174.9870  134.7530 C   0  0  0  0  0  0  0  0  0  0  0  0
  188.5730  173.6460  134.6330 C   0  0  0  0  0  3  0  0  0  0  0  0
  187.9080  176.0530  134.6360 C   0  0  0  0  0  2  0  0  0  0  0  0
  186.5170  175.4520  134.7670 C   0  0  0  0  0  2  0  0  0  0  0  0
  184.6660  176.5120  136.0940 C   0  0  0  0  0  0  0  0  0  0  0  0
  184.7460  175.5990  136.9610 O   0  0  0  0  0  0  0  0  0  0  0  0
  185.5320  176.5020  134.9510 N   0  0  0  0  0  2  0  0  0  0  0  0
  183.7450  177.5460  136.2810 O   0  0  0  0  0  0  0  0  0  0  0  0
  181.1610  177.3660  138.9970 C   0  0  2  0  0  0  0  0  0  0  0  0
  180.9100  176.1040  139.7110 C   0  0  0  0  0  2  0  0  0  0  0  0
  180.3790  178.8460  137.1250 C   0  0  0  0  0  2  0  0  0  0  0  0
  181.3850  178.1490  136.1910 C   0  0  1  0  0  3  0  0  0  0  0  0
  181.0740  177.3280  140.3980 O   0  0  0  0  0  0  0  0  0  0  0  0
  179.9450  177.9650  138.3000 C   0  0  0  0  0  2  0  0  0  0  0  0
  182.5650  177.5350  138.4260 C   0  0  1  0  0  3  0  0  0  0  0  0
  182.4850  177.3320  136.9060 C   0  0  2  0  0  3  0  0  0  0  0  0
  184.4790  178.9660  138.4220 O   0  0  0  0  0  1  0  0  0  0  0  0
  183.1330  178.9050  138.7800 C   0  0  0  0  0  2  0  0  0  0  0  0
  180.6800  177.3090  135.1330 C   0  0  0  0  0  2  0  0  0  0  0  0
  181.0300  175.9620  135.2560 O   0  0  0  0  0  1  0  0  0  0  0  0
  189.1600  171.2740  134.6190 O   0  0  0  0  0  0  0  0  0  0  0  0
  188.1480  170.6620  135.4110 C   0  0  0  0  0  2  0  0  0  0  0  0
  185.6730  170.6400  135.4980 C   0  0  0  0  0  1  0  0  0  0  0  0
  186.8800  170.4860  134.5950 C   0  0  0  0  0  2  0  0  0  0  0  0
  192.9780  174.4780  136.8880 C   0  0  0  0  0  2  0  0  0  0  0  0
  193.4470  175.7170  137.4800 N   0  0  0  0  0  2  0  0  0  0  0  0
  192.3130  176.4780  137.7890 N   0  0  0  0  0  2  0  0  0  0  0  0
  192.0740  176.3140  139.2150 C   0  0  0  0  0  2  0  0  0  0  0  0
  190.7560  176.8340  139.5590 N   0  0  0  0  0  0  0  0  0  0  0  0
  190.4020  177.2130  140.7520 C   0  0  0  0  0  0  0  0  0  0  0  0
  192.5760  177.4070  141.7330 N   0  0  0  0  0  2  0  0  0  0  0  0
  190.7790  176.9910  143.2120 N   0  0  0  0  0  2  0  0  0  0  0  0
  191.3260  177.1240  141.8990 C   0  0  0  0  0  0  0  0  0  0  0  0
  191.5780  177.1300  144.4190 C   0  0  0  0  0  2  0  0  0  0  0  0
  190.8210  177.9910  145.4170 C   0  0  0  0  0  2  0  0  0  0  0  0
  190.3500  177.1740  146.6150 C   0  0  2  0  0  3  0  0  0  0  0  0
  191.3130  176.2230  146.9620 O   0  0  0  0  0  1  0  0  0  0  0  0
  189.1270  176.5510  146.3440 O   0  0  0  0  0  0  0  0  0  0  0  0
  188.2710  176.9880  147.3590 C   0  0  0  0  0  2  0  0  0  0  0  0
  187.9490  178.4560  147.1530 C   0  0  0  0  0  2  0  0  0  0  0  0
  186.4590  178.6800  147.3420 C   0  0  0  0  0  2  0  0  0  0  0  0
  185.7840  178.9380  146.0010 C   0  0  1  0  0  3  0  0  0  0  0  0
  186.5480  178.3880  144.9710 O   0  0  0  0  0  1  0  0  0  0  0  0
  184.4010  178.3110  145.9840 C   0  0  0  0  0  2  0  0  0  0  0  0
  183.4540  179.2450  145.5620 O   0  0  0  0  0  0  0  0  0  0  0  0
  183.0010  178.7600  144.3800 N   0  0  0  0  0  1  0  0  0  0  0  0
  189.0180  177.6600  140.9760 C   0  0  0  0  0  0  0  0  0  0  0  0
  188.6660  178.0650  142.1180 O   0  0  0  0  0  0  0  0  0  0  0  0
  188.0980  177.6250  139.9240 O   0  0  0  0  0  0  0  0  0  0  0  0
  188.0890  178.6200  138.9120 C   0  0  0  0  0  2  0  0  0  0  0  0
  189.0390  178.5560  136.6350 C   0  0  0  0  0  2  0  0  0  0  0  0
  187.5920  178.9910  136.5290 C   0  0  0  0  0  2  0  0  0  0  0  0
  187.9980  177.9540  137.5540 C   0  0  0  0  0  3  0  0  0  0  0  0
  1 31  1  0  0  0  0
  2  4  1  0  0  0  0
  2  6  1  0  0  0  0
  3  4  2  0  0  0  0
  4  1  1  0  0  0  0
  5  2  2  0  0  0  0
  7  3  1  0  0  0  0
  8  5  1  0  0  0  0
  8  7  2  0  0  0  0
  9  7  1  0  0  0  0
  9 10  1  0  0  0  0
 10 13  1  0  0  0  0
 11 14  1  0  0  0  0
 11 12  2  0  0  0  0
 13 11  1  0  0  0  0
 15 20  1  6  0  0  0
 15 16  1  0  0  0  0
 15 19  1  0  0  0  0
 16 19  1  0  0  0  0
 17 20  1  0  0  0  0
 18 25  1  6  0  0  0
 18 22  1  0  0  0  0
 18 17  1  0  0  0  0
 21 24  1  6  0  0  0
 21 15  1  0  0  0  0
 22 14  1  6  0  0  0
 22 21  1  0  0  0  0
 23 24  1  0  0  0  0
 25 26  1  0  0  0  0
 27  5  1  0  0  0  0
 27 28  1  0  0  0  0
 30 28  1  0  0  0  0
 30 29  1  0  0  0  0
 31 32  1  0  0  0  0
 32 33  1  0  0  0  0
 33 34  1  0  0  0  0
 34 35  1  0  0  0  0
 35 36  2  0  0  0  0
 36 53  1  0  0  0  0
 36 39  1  0  0  0  0
 37 39  2  0  0  0  0
 38 40  1  0  0  0  0
 39 38  1  0  0  0  0
 40 41  1  0  0  0  0
 41 42  1  0  0  0  0
 42 43  1  6  0  0  0
 44 42  1  0  0  0  0
 44 45  1  0  0  0  0
 46 47  1  0  0  0  0
 46 45  1  0  0  0  0
 48 49  1  6  0  0  0
 48 47  1  0  0  0  0
 50 48  1  0  0  0  0
 51 50  1  0  0  0  0
 52 51  1  0  0  0  0
 53 54  2  0  0  0  0
 55 53  1  0  0  0  0
 56 55  1  0  0  0  0
 57 59  1  0  0  0  0
 58 57  1  0  0  0  0
 58 59  1  0  0  0  0
 59 56  1  0  0  0  0
M  END
>  <MODEL>
6

>  <REMARK>
 VINA RESULT:      -4.3      2.632      6.154
  Name = 
  31 active torsions:
  status: ('A' for Active; 'I' for Inactive)
    1  A    between atoms: O_2  and  C_19
    2  A    between atoms: O_2  and  C_21
    3  A    between atoms: C_3  and  C_10
    4  A    between atoms: C_3  and  C_41
    5  A    between atoms: C_5  and  C_30
    6  A    between atoms: C_5  and  O_37
    7  A    between atoms: C_9  and  C_12
    8  A    between atoms: C_9  and  C_52
    9  A    between atoms: C_10  and  N_27
   10  A    between atoms: C_13  and  C_53
   11  A    between atoms: C_13  and  O_55
   12  A    between atoms: C_14  and  C_16
   13  A    between atoms: C_14  and  N_59
   14  A    between atoms: C_15  and  C_18
   15  A    between atoms: C_16  and  C_29
   16  A    between atoms: C_17  and  N_32
   17  A    between atoms: C_17  and  N_49
   18  A    between atoms: C_19  and  C_54
   19  A    between atoms: C_20  and  C_30
   20  A    between atoms: C_20  and  C_53
   21  A    between atoms: C_24  and  O_34
   22  A    between atoms: C_26  and  C_48
   23  A    between atoms: C_28  and  O_50
   24  A    between atoms: C_28  and  C_56
   25  A    between atoms: C_31  and  C_33
   26  A    between atoms: C_31  and  O_50
   27  A    between atoms: C_33  and  C_51
   28  A    between atoms: O_34  and  C_58
   29  A    between atoms: C_41  and  O_55
   30  A    between atoms: N_46  and  N_49
   31  A    between atoms: N_46  and  C_52
                            x       y       z     vdW  Elec       q    Type
                         _______ _______ _______ _____ _____    ______ ____

>  <TORSDO>
F 31

$$$$
=
 OpenBabel10222418143D

 59 62  0  0  1  0  0  0  0  0999 V2000
  187.2270  178.1760  136.6990 C   0  0  0  0  0  2  0  0  0  0  0  0
  189.4810  177.0100  136.7670 C   0  0  0  0  0  0  0  0  0  0  0  0
  188.5780  178.0370  138.7780 C   0  0  0  0  0  3  0  0  0  0  0  0
  188.4530  177.7200  137.4240 C   0  0  0  0  0  0  0  0  0  0  0  0
  190.6350  176.6350  137.4800 C   0  0  0  0  0  0  0  0  0  0  0  0
  189.3630  176.6590  135.3170 C   0  0  0  0  0  1  0  0  0  0  0  0
  189.7290  177.6770  139.4870 C   0  0  0  0  0  0  0  0  0  0  0  0
  190.7510  176.9780  138.8380 C   0  0  0  0  0  3  0  0  0  0  0  0
  189.8840  178.0350  140.9280 C   0  0  0  0  0  2  0  0  0  0  0  0
  190.7320  176.9940  141.6430 C   0  0  0  0  0  2  0  0  0  0  0  0
  189.2520  177.3530  143.6400 C   0  0  0  0  0  0  0  0  0  0  0  0
  189.1760  178.5850  143.3790 O   0  0  0  0  0  0  0  0  0  0  0  0
  190.0270  176.4840  142.8040 N   0  0  0  0  0  2  0  0  0  0  0  0
  188.5480  176.8470  144.7360 O   0  0  0  0  0  0  0  0  0  0  0  0
  186.8830  178.8170  147.4640 C   0  0  2  0  0  0  0  0  0  0  0  0
  186.8590  180.2880  147.4190 C   0  0  0  0  0  2  0  0  0  0  0  0
  188.0740  176.8190  148.4110 C   0  0  0  0  0  2  0  0  0  0  0  0
  188.9410  176.7670  147.1400 C   0  0  1  0  0  3  0  0  0  0  0  0
  185.7000  179.5320  147.7040 O   0  0  0  0  0  0  0  0  0  0  0  0
  187.5300  178.2190  148.7080 C   0  0  0  0  0  2  0  0  0  0  0  0
  186.9690  178.1150  146.1120 C   0  0  1  0  0  3  0  0  0  0  0  0
  188.4000  177.5840  145.9450 C   0  0  2  0  0  3  0  0  0  0  0  0
  184.8020  177.4530  145.3530 O   0  0  0  0  0  1  0  0  0  0  0  0
  185.9390  176.9950  146.0160 C   0  0  0  0  0  2  0  0  0  0  0  0
  190.3920  177.1270  147.4360 C   0  0  0  0  0  2  0  0  0  0  0  0
  191.1970  175.9850  147.4340 O   0  0  0  0  0  1  0  0  0  0  0  0
  191.6540  175.9270  136.8260 O   0  0  0  0  0  0  0  0  0  0  0  0
  193.0280  176.2950  136.8920 C   0  0  0  0  0  2  0  0  0  0  0  0
  193.6990  174.4570  135.3740 C   0  0  0  0  0  1  0  0  0  0  0  0
  193.7230  175.9570  135.5850 C   0  0  0  0  0  2  0  0  0  0  0  0
  186.2260  177.0440  136.5700 C   0  0  0  0  0  2  0  0  0  0  0  0
  185.3150  177.0770  137.7000 N   0  0  0  0  0  2  0  0  0  0  0  0
  184.4930  178.1980  137.5300 N   0  0  0  0  0  2  0  0  0  0  0  0
  183.1900  177.8480  138.0740 C   0  0  0  0  0  2  0  0  0  0  0  0
  182.2500  178.9410  137.8530 N   0  0  0  0  0  0  0  0  0  0  0  0
  181.4030  178.9970  136.8680 C   0  0  0  0  0  0  0  0  0  0  0  0
  182.1770  177.9350  134.8680 N   0  0  0  0  0  2  0  0  0  0  0  0
  180.5150  176.7900  136.1010 N   0  0  0  0  0  2  0  0  0  0  0  0
  181.3330  177.9350  135.8460 C   0  0  0  0  0  0  0  0  0  0  0  0
  180.5570  175.5910  135.2790 C   0  0  0  0  0  2  0  0  0  0  0  0
  181.4160  174.5460  135.9720 C   0  0  0  0  0  2  0  0  0  0  0  0
  180.5640  173.4420  136.5890 C   0  0  2  0  0  3  0  0  0  0  0  0
  180.4600  173.6260  137.9700 O   0  0  0  0  0  1  0  0  0  0  0  0
  181.0990  172.1810  136.3050 O   0  0  0  0  0  0  0  0  0  0  0  0
  182.4210  172.4310  135.9250 C   0  0  0  0  0  2  0  0  0  0  0  0
  183.3540  171.5480  136.7320 C   0  0  0  0  0  2  0  0  0  0  0  0
  184.6290  172.3110  137.0460 C   0  0  0  0  0  2  0  0  0  0  0  0
  185.6400  172.1490  135.9180 C   0  0  1  0  0  3  0  0  0  0  0  0
  185.4930  173.1870  134.9960 O   0  0  0  0  0  1  0  0  0  0  0  0
  187.0520  172.1720  136.4750 C   0  0  0  0  0  2  0  0  0  0  0  0
  187.6840  173.3690  136.1370 O   0  0  0  0  0  0  0  0  0  0  0  0
  188.7690  173.4220  136.9460 N   0  0  0  0  0  1  0  0  0  0  0  0
  180.5530  180.1900  136.7260 C   0  0  0  0  0  0  0  0  0  0  0  0
  179.3130  180.0580  136.5330 O   0  0  0  0  0  0  0  0  0  0  0  0
  181.1260  181.4630  136.7950 O   0  0  0  0  0  0  0  0  0  0  0  0
  180.9300  182.3050  137.9210 C   0  0  0  0  0  2  0  0  0  0  0  0
  180.9720  183.9240  136.0580 C   0  0  0  0  0  2  0  0  0  0  0  0
  181.6440  184.5660  137.2540 C   0  0  0  0  0  2  0  0  0  0  0  0
  180.4460  183.6630  137.4530 C   0  0  0  0  0  3  0  0  0  0  0  0
  1  4  1  0  0  0  0
  2  4  2  0  0  0  0
  2  5  1  0  0  0  0
  3  7  2  0  0  0  0
  4  3  1  0  0  0  0
  5  8  2  0  0  0  0
  6  2  1  0  0  0  0
  7  9  1  0  0  0  0
  8  7  1  0  0  0  0
  9 10  1  0  0  0  0
 10 13  1  0  0  0  0
 11 14  1  0  0  0  0
 12 11  2  0  0  0  0
 13 11  1  0  0  0  0
 15 16  1  6  0  0  0
 15 19  1  0  0  0  0
 15 20  1  0  0  0  0
 16 19  1  0  0  0  0
 17 20  1  0  0  0  0
 18 25  1  1  0  0  0
 18 17  1  0  0  0  0
 21 24  1  1  0  0  0
 21 15  1  0  0  0  0
 22 14  1  6  0  0  0
 22 21  1  0  0  0  0
 22 18  1  0  0  0  0
 23 24  1  0  0  0  0
 26 25  1  0  0  0  0
 27 28  1  0  0  0  0
 27  5  1  0  0  0  0
 29 30  1  0  0  0  0
 30 28  1  0  0  0  0
 31  1  1  0  0  0  0
 31 32  1  0  0  0  0
 33 32  1  0  0  0  0
 33 34  1  0  0  0  0
 35 34  1  0  0  0  0
 36 35  2  0  0  0  0
 37 39  2  0  0  0  0
 39 38  1  0  0  0  0
 39 36  1  0  0  0  0
 40 41  1  0  0  0  0
 40 38  1  0  0  0  0
 41 42  1  0  0  0  0
 42 43  1  1  0  0  0
 44 42  1  0  0  0  0
 45 44  1  0  0  0  0
 45 46  1  0  0  0  0
 46 47  1  0  0  0  0
 48 49  1  6  0  0  0
 48 50  1  0  0  0  0
 48 47  1  0  0  0  0
 51 50  1  0  0  0  0
 51 52  1  0  0  0  0
 53 55  1  0  0  0  0
 53 36  1  0  0  0  0
 54 53  2  0  0  0  0
 55 56  1  0  0  0  0
 57 58  1  0  0  0  0
 57 59  1  0  0  0  0
 58 59  1  0  0  0  0
 59 56  1  0  0  0  0
M  END
>  <MODEL>
7

>  <REMARK>
 VINA RESULT:      -4.0      2.503      8.691
  Name = 
  31 active torsions:
  status: ('A' for Active; 'I' for Inactive)
    1  A    between atoms: O_2  and  C_19
    2  A    between atoms: O_2  and  C_21
    3  A    between atoms: C_3  and  C_10
    4  A    between atoms: C_3  and  C_41
    5  A    between atoms: C_5  and  C_30
    6  A    between atoms: C_5  and  O_37
    7  A    between atoms: C_9  and  C_12
    8  A    between atoms: C_9  and  C_52
    9  A    between atoms: C_10  and  N_27
   10  A    between atoms: C_13  and  C_53
   11  A    between atoms: C_13  and  O_55
   12  A    between atoms: C_14  and  C_16
   13  A    between atoms: C_14  and  N_59
   14  A    between atoms: C_15  and  C_18
   15  A    between atoms: C_16  and  C_29
   16  A    between atoms: C_17  and  N_32
   17  A    between atoms: C_17  and  N_49
   18  A    between atoms: C_19  and  C_54
   19  A    between atoms: C_20  and  C_30
   20  A    between atoms: C_20  and  C_53
   21  A    between atoms: C_24  and  O_34
   22  A    between atoms: C_26  and  C_48
   23  A    between atoms: C_28  and  O_50
   24  A    between atoms: C_28  and  C_56
   25  A    between atoms: C_31  and  C_33
   26  A    between atoms: C_31  and  O_50
   27  A    between atoms: C_33  and  C_51
   28  A    between atoms: O_34  and  C_58
   29  A    between atoms: C_41  and  O_55
   30  A    between atoms: N_46  and  N_49
   31  A    between atoms: N_46  and  C_52
                            x       y       z     vdW  Elec       q    Type
                         _______ _______ _______ _____ _____    ______ ____

>  <TORSDO>
F 31

$$$$
=
 OpenBabel10222418143D

 59 62  0  0  1  0  0  0  0  0999 V2000
  187.8990  178.0230  140.4830 C   0  0  0  0  0  2  0  0  0  0  0  0
  189.7580  176.7580  139.3040 C   0  0  0  0  0  0  0  0  0  0  0  0
  187.9810  177.8000  138.0120 C   0  0  0  0  0  3  0  0  0  0  0  0
  188.5710  177.5200  139.2460 C   0  0  0  0  0  0  0  0  0  0  0  0
  190.3350  176.2730  138.1160 C   0  0  0  0  0  0  0  0  0  0  0  0
  190.4050  176.4500  140.6190 C   0  0  0  0  0  1  0  0  0  0  0  0
  188.5450  177.3100  136.8300 C   0  0  0  0  0  0  0  0  0  0  0  0
  189.7170  176.5500  136.8850 C   0  0  0  0  0  3  0  0  0  0  0  0
  187.9070  177.5810  135.5070 C   0  0  0  0  0  2  0  0  0  0  0  0
  187.6660  176.2790  134.7590 C   0  0  0  0  0  2  0  0  0  0  0  0
  185.8600  174.9690  135.9140 C   0  0  0  0  0  0  0  0  0  0  0  0
  186.7030  174.4980  136.7260 O   0  0  0  0  0  0  0  0  0  0  0  0
  186.2770  175.8770  134.8860 N   0  0  0  0  0  2  0  0  0  0  0  0
  184.5150  174.6160  136.0500 O   0  0  0  0  0  0  0  0  0  0  0  0
  181.1150  176.0460  136.7440 C   0  0  2  0  0  0  0  0  0  0  0  0
  180.4020  176.8180  135.7140 C   0  0  0  0  0  2  0  0  0  0  0  0
  182.5800  176.2130  138.7770 C   0  0  0  0  0  2  0  0  0  0  0  0
  183.8130  176.0840  137.8650 C   0  0  1  0  0  3  0  0  0  0  0  0
  179.7640  175.7970  136.4540 O   0  0  0  0  0  0  0  0  0  0  0  0
  181.3580  176.7870  138.0530 C   0  0  0  0  0  2  0  0  0  0  0  0
  182.1050  175.0080  136.2260 C   0  0  1  0  0  3  0  0  0  0  0  0
  183.5220  175.5580  136.4410 C   0  0  2  0  0  3  0  0  0  0  0  0
  181.4540  172.7180  136.0200 O   0  0  0  0  0  1  0  0  0  0  0  0
  181.9080  173.6710  136.9310 C   0  0  0  0  0  2  0  0  0  0  0  0
  184.6130  177.3800  137.8160 C   0  0  0  0  0  2  0  0  0  0  0  0
  184.5920  178.0230  139.0570 O   0  0  0  0  0  1  0  0  0  0  0  0
  191.5150  175.5180  138.1770 O   0  0  0  0  0  0  0  0  0  0  0  0
  192.1680  174.9930  137.0250 C   0  0  0  0  0  2  0  0  0  0  0  0
  194.4400  174.8720  138.0030 C   0  0  0  0  0  1  0  0  0  0  0  0
  193.5860  175.5300  136.9380 C   0  0  0  0  0  2  0  0  0  0  0  0
  188.8900  178.1410  141.6250 C   0  0  0  0  0  2  0  0  0  0  0  0
  188.2630  177.6910  142.8550 N   0  0  0  0  0  2  0  0  0  0  0  0
  189.2880  177.2320  143.6910 N   0  0  0  0  0  2  0  0  0  0  0  0
  189.7110  178.3670  144.4980 C   0  0  0  0  0  2  0  0  0  0  0  0
  190.6000  177.9160  145.5620 N   0  0  0  0  0  0  0  0  0  0  0  0
  190.2010  177.3800  146.6770 C   0  0  0  0  0  0  0  0  0  0  0  0
  188.3670  176.0940  147.5210 N   0  0  0  0  0  2  0  0  0  0  0  0
  187.9040  178.3340  146.9190 N   0  0  0  0  0  2  0  0  0  0  0  0
  188.7680  177.1970  146.9800 C   0  0  0  0  0  0  0  0  0  0  0  0
  186.5390  178.3160  147.4210 C   0  0  0  0  0  2  0  0  0  0  0  0
  185.7230  179.3580  146.6730 C   0  0  0  0  0  2  0  0  0  0  0  0
  184.9820  178.7450  145.4900 C   0  0  2  0  0  3  0  0  0  0  0  0
  185.6920  177.6520  144.9880 O   0  0  0  0  0  1  0  0  0  0  0  0
  184.7760  179.6950  144.4840 O   0  0  0  0  0  0  0  0  0  0  0  0
  183.5580  179.3380  143.8990 C   0  0  0  0  0  2  0  0  0  0  0  0
  183.7900  178.9280  142.4570 C   0  0  0  0  0  2  0  0  0  0  0  0
  182.5600  178.2090  141.9300 C   0  0  0  0  0  2  0  0  0  0  0  0
  181.3900  179.1770  141.8010 C   0  0  1  0  0  3  0  0  0  0  0  0
  181.1870  179.5000  140.4590 O   0  0  0  0  0  1  0  0  0  0  0  0
  180.1270  178.5460  142.3600 C   0  0  0  0  0  2  0  0  0  0  0  0
  179.4930  179.4300  143.2320 O   0  0  0  0  0  0  0  0  0  0  0  0
  179.0570  178.6490  144.2510 N   0  0  0  0  0  1  0  0  0  0  0  0
  191.2030  177.0260  147.6960 C   0  0  0  0  0  0  0  0  0  0  0  0
  191.5830  177.8920  148.5310 O   0  0  0  0  0  0  0  0  0  0  0  0
  191.7350  175.7340  147.7260 O   0  0  0  0  0  0  0  0  0  0  0  0
  192.6040  175.2650  146.7070 C   0  0  0  0  0  2  0  0  0  0  0  0
  192.7550  173.8000  144.7260 C   0  0  0  0  0  2  0  0  0  0  0  0
  192.0600  175.0810  144.3120 C   0  0  0  0  0  2  0  0  0  0  0  0
  191.8030  174.4880  145.6810 C   0  0  0  0  0  3  0  0  0  0  0  0
  1 31  1  0  0  0  0
  2  6  1  0  0  0  0
  3  4  2  0  0  0  0
  4  2  1  0  0  0  0
  4  1  1  0  0  0  0
  5 27  1  0  0  0  0
  5  2  2  0  0  0  0
  7  8  2  0  0  0  0
  7  3  1  0  0  0  0
  8  5  1  0  0  0  0
  9  7  1  0  0  0  0
 10 13  1  0  0  0  0
 10  9  1  0  0  0  0
 11 14  1  0  0  0  0
 11 12  2  0  0  0  0
 13 11  1  0  0  0  0
 15 16  1  6  0  0  0
 15 20  1  0  0  0  0
 16 19  1  0  0  0  0
 18 25  1  6  0  0  0
 18 17  1  0  0  0  0
 19 15  1  0  0  0  0
 20 17  1  0  0  0  0
 21 22  1  0  0  0  0
 21 15  1  0  0  0  0
 21 24  1  1  0  0  0
 22 14  1  1  0  0  0
 22 18  1  0  0  0  0
 23 24  1  0  0  0  0
 25 26  1  0  0  0  0
 28 27  1  0  0  0  0
 30 28  1  0  0  0  0
 30 29  1  0  0  0  0
 31 32  1  0  0  0  0
 32 33  1  0  0  0  0
 33 34  1  0  0  0  0
 34 35  1  0  0  0  0
 35 36  2  0  0  0  0
 36 39  1  0  0  0  0
 36 53  1  0  0  0  0
 38 39  1  0  0  0  0
 38 40  1  0  0  0  0
 39 37  2  0  0  0  0
 41 40  1  0  0  0  0
 42 43  1  6  0  0  0
 42 41  1  0  0  0  0
 44 42  1  0  0  0  0
 45 44  1  0  0  0  0
 46 45  1  0  0  0  0
 47 46  1  0  0  0  0
 48 49  1  6  0  0  0
 48 47  1  0  0  0  0
 48 50  1  0  0  0  0
 50 51  1  0  0  0  0
 51 52  1  0  0  0  0
 53 55  1  0  0  0  0
 53 54  2  0  0  0  0
 56 55  1  0  0  0  0
 57 59  1  0  0  0  0
 58 57  1  0  0  0  0
 58 59  1  0  0  0  0
 59 56  1  0  0  0  0
M  END
>  <MODEL>
8

>  <REMARK>
 VINA RESULT:      -4.0      2.192      6.986
  Name = 
  31 active torsions:
  status: ('A' for Active; 'I' for Inactive)
    1  A    between atoms: O_2  and  C_19
    2  A    between atoms: O_2  and  C_21
    3  A    between atoms: C_3  and  C_10
    4  A    between atoms: C_3  and  C_41
    5  A    between atoms: C_5  and  C_30
    6  A    between atoms: C_5  and  O_37
    7  A    between atoms: C_9  and  C_12
    8  A    between atoms: C_9  and  C_52
    9  A    between atoms: C_10  and  N_27
   10  A    between atoms: C_13  and  C_53
   11  A    between atoms: C_13  and  O_55
   12  A    between atoms: C_14  and  C_16
   13  A    between atoms: C_14  and  N_59
   14  A    between atoms: C_15  and  C_18
   15  A    between atoms: C_16  and  C_29
   16  A    between atoms: C_17  and  N_32
   17  A    between atoms: C_17  and  N_49
   18  A    between atoms: C_19  and  C_54
   19  A    between atoms: C_20  and  C_30
   20  A    between atoms: C_20  and  C_53
   21  A    between atoms: C_24  and  O_34
   22  A    between atoms: C_26  and  C_48
   23  A    between atoms: C_28  and  O_50
   24  A    between atoms: C_28  and  C_56
   25  A    between atoms: C_31  and  C_33
   26  A    between atoms: C_31  and  O_50
   27  A    between atoms: C_33  and  C_51
   28  A    between atoms: O_34  and  C_58
   29  A    between atoms: C_41  and  O_55
   30  A    between atoms: N_46  and  N_49
   31  A    between atoms: N_46  and  C_52
                            x       y       z     vdW  Elec       q    Type
                         _______ _______ _______ _____ _____    ______ ____

>  <TORSDO>
F 31

$$$$
=
 OpenBabel10222418143D

 59 62  0  0  1  0  0  0  0  0999 V2000
  186.2310  178.1850  139.2210 C   0  0  0  0  0  2  0  0  0  0  0  0
  185.7750  177.0420  137.0000 C   0  0  0  0  0  0  0  0  0  0  0  0
  188.0600  177.3230  137.7800 C   0  0  0  0  0  3  0  0  0  0  0  0
  186.6890  177.4940  137.9760 C   0  0  0  0  0  0  0  0  0  0  0  0
  186.2530  176.4320  135.8260 C   0  0  0  0  0  0  0  0  0  0  0  0
  184.3000  177.2150  137.1950 C   0  0  0  0  0  1  0  0  0  0  0  0
  188.5400  176.7280  136.6090 C   0  0  0  0  0  0  0  0  0  0  0  0
  187.6370  176.2850  135.6380 C   0  0  0  0  0  3  0  0  0  0  0  0
  190.0070  176.5650  136.3780 C   0  0  0  0  0  2  0  0  0  0  0  0
  190.2670  176.0850  134.9580 C   0  0  0  0  0  2  0  0  0  0  0  0
  192.0000  174.3420  135.4770 C   0  0  0  0  0  0  0  0  0  0  0  0
  191.1590  173.6890  136.1530 O   0  0  0  0  0  0  0  0  0  0  0  0
  191.6200  175.5710  134.8430 N   0  0  0  0  0  2  0  0  0  0  0  0
  193.2940  173.8370  135.3320 O   0  0  0  0  0  0  0  0  0  0  0  0
  195.7990  174.1190  138.1140 C   0  0  2  0  0  0  0  0  0  0  0  0
  195.5440  174.9990  139.2660 C   0  0  0  0  0  2  0  0  0  0  0  0
  196.9560  173.9430  135.8920 C   0  0  0  0  0  2  0  0  0  0  0  0
  195.6590  174.4150  135.2100 C   0  0  1  0  0  3  0  0  0  0  0  0
  195.9990  173.6710  139.4290 O   0  0  0  0  0  0  0  0  0  0  0  0
  197.0780  174.4210  137.3420 C   0  0  0  0  0  2  0  0  0  0  0  0
  194.5600  173.5730  137.4110 C   0  0  1  0  0  3  0  0  0  0  0  0
  194.3910  174.3360  136.0900 C   0  0  2  0  0  3  0  0  0  0  0  0
  195.3370  171.4790  138.2610 O   0  0  0  0  0  1  0  0  0  0  0  0
  194.6840  172.0710  137.1800 C   0  0  0  0  0  2  0  0  0  0  0  0
  195.8180  175.8030  134.6030 C   0  0  0  0  0  2  0  0  0  0  0  0
  194.9580  176.7160  135.2210 O   0  0  0  0  0  1  0  0  0  0  0  0
  185.3420  175.9820  134.8590 O   0  0  0  0  0  0  0  0  0  0  0  0
  185.0570  174.6050  134.6350 C   0  0  0  0  0  2  0  0  0  0  0  0
  183.4420  172.7720  135.0370 C   0  0  0  0  0  1  0  0  0  0  0  0
  183.7970  174.2040  135.3810 C   0  0  0  0  0  2  0  0  0  0  0  0
  187.3740  178.9440  139.8670 C   0  0  0  0  0  2  0  0  0  0  0  0
  186.9790  179.3650  141.1990 N   0  0  0  0  0  2  0  0  0  0  0  0
  187.7360  178.6140  142.1060 N   0  0  0  0  0  2  0  0  0  0  0  0
  186.8390  177.6250  142.6840 C   0  0  0  0  0  2  0  0  0  0  0  0
  185.4710  178.1300  142.6730 N   0  0  0  0  0  0  0  0  0  0  0  0
  184.8020  178.4670  143.7350 C   0  0  0  0  0  0  0  0  0  0  0  0
  186.1160  177.3200  145.3740 N   0  0  0  0  0  2  0  0  0  0  0  0
  185.3410  179.4770  145.9570 N   0  0  0  0  0  2  0  0  0  0  0  0
  185.3810  178.3430  145.0870 C   0  0  0  0  0  0  0  0  0  0  0  0
  186.0820  179.5400  147.2080 C   0  0  0  0  0  2  0  0  0  0  0  0
  186.2190  178.1350  147.7720 C   0  0  0  0  0  2  0  0  0  0  0  0
  187.6710  177.8010  148.0920 C   0  0  2  0  0  3  0  0  0  0  0  0
  187.9780  178.1780  149.4020 O   0  0  0  0  0  1  0  0  0  0  0  0
  188.5380  178.4280  147.1900 O   0  0  0  0  0  0  0  0  0  0  0  0
  189.7630  177.7770  147.3610 C   0  0  0  0  0  2  0  0  0  0  0  0
  189.8670  176.6280  146.3760 C   0  0  0  0  0  2  0  0  0  0  0  0
  189.7290  177.1600  144.9600 C   0  0  0  0  0  2  0  0  0  0  0  0
  190.9810  177.9270  144.5530 C   0  0  1  0  0  3  0  0  0  0  0  0
  192.0420  177.5830  145.3910 O   0  0  0  0  0  1  0  0  0  0  0  0
  191.3510  177.5990  143.1180 C   0  0  0  0  0  2  0  0  0  0  0  0
  191.2110  176.2310  142.8850 O   0  0  0  0  0  0  0  0  0  0  0  0
  190.4330  176.1510  141.7790 N   0  0  0  0  0  1  0  0  0  0  0  0
  183.4040  178.9040  143.5890 C   0  0  0  0  0  0  0  0  0  0  0  0
  182.7250  179.1920  144.6130 O   0  0  0  0  0  0  0  0  0  0  0  0
  182.8330  178.9870  142.3160 O   0  0  0  0  0  0  0  0  0  0  0  0
  182.1170  177.9000  141.7520 C   0  0  0  0  0  2  0  0  0  0  0  0
  180.4070  177.7040  139.9810 C   0  0  0  0  0  2  0  0  0  0  0  0
  180.9210  179.1280  139.9830 C   0  0  0  0  0  2  0  0  0  0  0  0
  180.7560  178.3810  141.2890 C   0  0  0  0  0  3  0  0  0  0  0  0
  1 31  1  0  0  0  0
  2  6  1  0  0  0  0
  2  4  1  0  0  0  0
  3  4  2  0  0  0  0
  4  1  1  0  0  0  0
  5  2  2  0  0  0  0
  7  3  1  0  0  0  0
  8  5  1  0  0  0  0
  8  7  2  0  0  0  0
  9  7  1  0  0  0  0
 10  9  1  0  0  0  0
 11 12  2  0  0  0  0
 13 10  1  0  0  0  0
 13 11  1  0  0  0  0
 14 11  1  0  0  0  0
 15 20  1  6  0  0  0
 15 16  1  0  0  0  0
 15 19  1  0  0  0  0
 16 19  1  0  0  0  0
 17 20  1  0  0  0  0
 18 25  1  1  0  0  0
 18 17  1  0  0  0  0
 18 22  1  0  0  0  0
 21 24  1  6  0  0  0
 21 15  1  0  0  0  0
 22 14  1  6  0  0  0
 22 21  1  0  0  0  0
 24 23  1  0  0  0  0
 25 26  1  0  0  0  0
 27  5  1  0  0  0  0
 28 27  1  0  0  0  0
 28 30  1  0  0  0  0
 29 30  1  0  0  0  0
 31 32  1  0  0  0  0
 32 33  1  0  0  0  0
 33 34  1  0  0  0  0
 35 34  1  0  0  0  0
 35 36  2  0  0  0  0
 36 39  1  0  0  0  0
 38 40  1  0  0  0  0
 39 37  2  0  0  0  0
 39 38  1  0  0  0  0
 40 41  1  0  0  0  0
 41 42  1  0  0  0  0
 42 43  1  1  0  0  0
 44 45  1  0  0  0  0
 44 42  1  0  0  0  0
 46 45  1  0  0  0  0
 47 46  1  0  0  0  0
 48 47  1  0  0  0  0
 48 49  1  1  0  0  0
 50 48  1  0  0  0  0
 51 50  1  0  0  0  0
 52 51  1  0  0  0  0
 53 36  1  0  0  0  0
 53 54  2  0  0  0  0
 55 53  1  0  0  0  0
 56 55  1  0  0  0  0
 57 58  1  0  0  0  0
 57 59  1  0  0  0  0
 58 59  1  0  0  0  0
 59 56  1  0  0  0  0
M  END
>  <MODEL>
9

>  <REMARK>
 VINA RESULT:      -3.6      2.377      7.296
  Name = 
  31 active torsions:
  status: ('A' for Active; 'I' for Inactive)
    1  A    between atoms: O_2  and  C_19
    2  A    between atoms: O_2  and  C_21
    3  A    between atoms: C_3  and  C_10
    4  A    between atoms: C_3  and  C_41
    5  A    between atoms: C_5  and  C_30
    6  A    between atoms: C_5  and  O_37
    7  A    between atoms: C_9  and  C_12
    8  A    between atoms: C_9  and  C_52
    9  A    between atoms: C_10  and  N_27
   10  A    between atoms: C_13  and  C_53
   11  A    between atoms: C_13  and  O_55
   12  A    between atoms: C_14  and  C_16
   13  A    between atoms: C_14  and  N_59
   14  A    between atoms: C_15  and  C_18
   15  A    between atoms: C_16  and  C_29
   16  A    between atoms: C_17  and  N_32
   17  A    between atoms: C_17  and  N_49
   18  A    between atoms: C_19  and  C_54
   19  A    between atoms: C_20  and  C_30
   20  A    between atoms: C_20  and  C_53
   21  A    between atoms: C_24  and  O_34
   22  A    between atoms: C_26  and  C_48
   23  A    between atoms: C_28  and  O_50
   24  A    between atoms: C_28  and  C_56
   25  A    between atoms: C_31  and  C_33
   26  A    between atoms: C_31  and  O_50
   27  A    between atoms: C_33  and  C_51
   28  A    between atoms: O_34  and  C_58
   29  A    between atoms: C_41  and  O_55
   30  A    between atoms: N_46  and  N_49
   31  A    between atoms: N_46  and  C_52
                            x       y       z     vdW  Elec       q    Type
                         _______ _______ _______ _____ _____    ______ ____

>  <TORSDO>
F 31

$$$$
