=
 OpenBabel10222418213D

 34 36  0  0  1  0  0  0  0  0999 V2000
  189.1330  178.0740  142.2470 C   0  0  0  0  0  3  0  0  0  0  0  0
  189.3460  177.6720  143.5670 C   0  0  0  0  0  3  0  0  0  0  0  0
  186.7330  177.9780  142.5960 C   0  0  0  0  0  0  0  0  0  0  0  0
  186.9610  177.5750  143.9150 C   0  0  0  0  0  3  0  0  0  0  0  0
  187.8380  178.2320  141.7380 C   0  0  0  0  0  0  0  0  0  0  0  0
  188.2620  177.4210  144.4070 C   0  0  0  0  0  0  0  0  0  0  0  0
  185.3590  178.1270  142.1950 C   0  0  0  0  0  0  0  0  0  0  0  0
  184.2010  178.2290  141.8750 C   0  0  0  0  0  0  0  0  0  0  0  0
  182.0670  178.0530  135.9250 O   0  0  0  0  0  1  0  0  0  0  0  0
  181.1220  179.4950  139.9680 C   0  0  1  0  0  3  0  0  0  0  0  0
  181.3870  179.8730  137.3570 C   0  0  2  0  0  3  0  0  0  0  0  0
  182.6180  179.2800  140.2890 C   0  0  2  0  0  3  0  0  0  0  0  0
  180.3670  180.0110  141.1940 C   0  0  0  0  0  2  0  0  0  0  0  0
  183.4310  178.8060  139.0600 C   0  0  0  0  0  2  0  0  0  0  0  0
  180.7050  180.6340  136.2270 C   0  0  0  0  0  1  0  0  0  0  0  0
  182.0020  178.8680  142.6970 C   0  0  0  0  0  2  0  0  0  0  0  0
  180.3830  181.4400  138.8360 O   0  0  0  0  0  0  0  0  0  0  0  0
  181.3240  178.3560  137.0670 C   0  0  2  0  0  3  0  0  0  0  0  0
  180.5270  179.0300  142.3500 C   0  0  0  0  0  2  0  0  0  0  0  0
  182.7880  178.3420  141.4960 C   0  0  2  0  0  3  0  0  0  0  0  0
  180.8840  180.3300  138.7240 C   0  0  0  0  0  0  0  0  0  0  0  0
  181.7490  177.4310  138.2210 C   0  0  0  0  0  2  0  0  0  0  0  0
  183.1130  177.5130  138.5810 O   0  0  0  0  0  0  0  0  0  0  0  0
  187.7370  178.6380  140.3970 O   0  0  0  0  0  0  0  0  0  0  0  0
  188.6990  178.3940  139.3830 C   0  0  0  0  0  1  0  0  0  0  0  0
  188.5000  177.0070  145.7560 N   0  0  0  0  0  2  0  0  0  0  0  0
  188.4340  177.9160  146.8980 C   0  0  2  0  0  3  0  0  0  0  0  0
  189.6110  177.6860  147.8470 C   0  0  0  0  0  2  0  0  0  0  0  0
  190.5680  176.6530  147.2780 C   0  0  0  0  0  2  0  0  0  0  0  0
  191.8700  176.9280  147.6980 O   0  0  0  0  0  1  0  0  0  0  0  0
  187.1470  177.7960  147.5870 N   0  0  0  0  0  2  0  0  0  0  0  0
  186.2470  178.8730  147.1840 C   0  0  0  0  0  2  0  0  0  0  0  0
  184.1860  178.9510  145.9400 N   0  0  0  0  0  2  0  0  0  0  0  0
  184.9360  178.3060  146.7530 C   0  0  0  0  0  3  0  0  0  0  0  0
  1  2  1  0  0  0  0
  2  6  2  0  0  0  0
  3  4  2  0  0  0  0
  4  6  1  0  0  0  0
  5  1  2  0  0  0  0
  5  3  1  0  0  0  0
  6 26  1  0  0  0  0
  7  3  1  0  0  0  0
  8  7  3  0  0  0  0
 10 12  1  0  0  0  0
 10 13  1  1  0  0  0
 11 15  1  6  0  0  0
 11 21  1  0  0  0  0
 12 14  1  6  0  0  0
 12 20  1  0  0  0  0
 13 19  1  0  0  0  0
 18  9  1  6  0  0  0
 18 11  1  0  0  0  0
 18 22  1  0  0  0  0
 19 16  1  0  0  0  0
 20  8  1  1  0  0  0
 20 16  1  0  0  0  0
 21 17  2  0  0  0  0
 21 10  1  0  0  0  0
 22 23  1  0  0  0  0
 23 14  1  0  0  0  0
 24  5  1  0  0  0  0
 25 24  1  0  0  0  0
 26 27  1  0  0  0  0
 27 31  1  0  0  0  0
 27 28  1  1  0  0  0
 29 30  1  0  0  0  0
 29 28  1  0  0  0  0
 32 31  1  0  0  0  0
 33 34  2  0  0  0  0
 34 32  1  0  0  0  0
M  END
>  <MODEL>
1

>  <REMARK>
 VINA RESULT:      -7.7      0.000      0.000
  Name = 
  10 active torsions:
  status: ('A' for Active; 'I' for Inactive)
    1  A    between atoms: C_2  and  C_8
    2  A    between atoms: C_8  and  C_10
    3  A    between atoms: C_10  and  N_32
    4  A    between atoms: C_10  and  N_33
    5  A    between atoms: C_11  and  C_14
    6  A    between atoms: C_17  and  C_29
    7  A    between atoms: C_19  and  O_24
    8  A    between atoms: C_21  and  C_23
    9  A    between atoms: C_23  and  N_32
   10  A    between atoms: C_25  and  N_33
                            x       y       z     vdW  Elec       q    Type
                         _______ _______ _______ _____ _____    ______ ____

>  <TORSDO>
F 10

$$$$
=
 OpenBabel10222418213D

 34 36  0  0  1  0  0  0  0  0999 V2000
  184.9530  178.6850  146.0190 C   0  0  0  0  0  3  0  0  0  0  0  0
  186.1390  178.0640  146.4160 C   0  0  0  0  0  3  0  0  0  0  0  0
  185.5800  178.4130  143.6900 C   0  0  0  0  0  0  0  0  0  0  0  0
  186.7640  177.7940  144.1020 C   0  0  0  0  0  3  0  0  0  0  0  0
  184.6530  178.8720  144.6640 C   0  0  0  0  0  0  0  0  0  0  0  0
  187.0490  177.6160  145.4610 C   0  0  0  0  0  0  0  0  0  0  0  0
  185.3730  178.5280  142.2700 C   0  0  0  0  0  0  0  0  0  0  0  0
  185.1790  178.6040  141.0830 C   0  0  0  0  0  0  0  0  0  0  0  0
  179.4620  179.2820  138.4670 O   0  0  0  0  0  1  0  0  0  0  0  0
  183.5340  177.8130  137.7080 C   0  0  1  0  0  3  0  0  0  0  0  0
  180.9000  177.5070  137.6870 C   0  0  2  0  0  3  0  0  0  0  0  0
  183.7200  177.8250  139.2420 C   0  0  2  0  0  3  0  0  0  0  0  0
  184.8110  177.3490  137.0050 C   0  0  0  0  0  2  0  0  0  0  0  0
  182.4340  178.2400  139.9960 C   0  0  0  0  0  2  0  0  0  0  0  0
  179.8190  176.8840  136.8140 C   0  0  0  0  0  1  0  0  0  0  0  0
  186.1850  178.2170  138.9020 C   0  0  0  0  0  2  0  0  0  0  0  0
  182.4240  176.0230  136.6250 O   0  0  0  0  0  0  0  0  0  0  0  0
  180.6600  179.0300  137.7960 C   0  0  2  0  0  3  0  0  0  0  0  0
  185.9730  178.2550  137.3930 C   0  0  0  0  0  2  0  0  0  0  0  0
  184.9310  178.6850  139.6390 C   0  0  2  0  0  3  0  0  0  0  0  0
  182.2950  177.0650  137.2540 C   0  0  0  0  0  0  0  0  0  0  0  0
  181.7930  179.8480  138.4390 C   0  0  0  0  0  2  0  0  0  0  0  0
  182.0230  179.5800  139.8080 O   0  0  0  0  0  0  0  0  0  0  0  0
  183.4340  179.5100  144.3750 O   0  0  0  0  0  0  0  0  0  0  0  0
  182.2160  178.8600  144.0480 C   0  0  0  0  0  1  0  0  0  0  0  0
  188.2600  176.9840  145.8860 N   0  0  0  0  0  2  0  0  0  0  0  0
  189.5570  177.6560  145.8960 C   0  0  2  0  0  3  0  0  0  0  0  0
  190.2220  177.5830  144.5210 C   0  0  0  0  0  2  0  0  0  0  0  0
  190.5660  178.9730  144.0150 C   0  0  0  0  0  2  0  0  0  0  0  0
  191.9410  179.1870  144.1070 O   0  0  0  0  0  1  0  0  0  0  0  0
  190.4200  177.1120  146.9480 N   0  0  0  0  0  2  0  0  0  0  0  0
  191.6100  176.4950  146.3680 C   0  0  0  0  0  2  0  0  0  0  0  0
  192.8080  176.1850  148.4340 N   0  0  0  0  0  2  0  0  0  0  0  0
  192.2930  175.6500  147.3910 C   0  0  0  0  0  3  0  0  0  0  0  0
  1  2  1  0  0  0  0
  3  4  2  0  0  0  0
  3  5  1  0  0  0  0
  4  6  1  0  0  0  0
  5  1  2  0  0  0  0
  6 26  1  0  0  0  0
  6  2  2  0  0  0  0
  7  3  1  0  0  0  0
  8  7  3  0  0  0  0
 10 13  1  6  0  0  0
 10 12  1  0  0  0  0
 11 15  1  6  0  0  0
 11 18  1  0  0  0  0
 12 20  1  0  0  0  0
 12 14  1  1  0  0  0
 13 19  1  0  0  0  0
 16 20  1  0  0  0  0
 17 21  2  0  0  0  0
 18 22  1  0  0  0  0
 18  9  1  1  0  0  0
 19 16  1  0  0  0  0
 20  8  1  1  0  0  0
 21 11  1  0  0  0  0
 21 10  1  0  0  0  0
 22 23  1  0  0  0  0
 23 14  1  0  0  0  0
 24  5  1  0  0  0  0
 25 24  1  0  0  0  0
 26 27  1  0  0  0  0
 27 28  1  6  0  0  0
 27 31  1  0  0  0  0
 29 30  1  0  0  0  0
 29 28  1  0  0  0  0
 32 31  1  0  0  0  0
 32 34  1  0  0  0  0
 34 33  2  0  0  0  0
M  END
>  <MODEL>
2

>  <REMARK>
 VINA RESULT:      -7.4      2.249      4.485
  Name = 
  10 active torsions:
  status: ('A' for Active; 'I' for Inactive)
    1  A    between atoms: C_2  and  C_8
    2  A    between atoms: C_8  and  C_10
    3  A    between atoms: C_10  and  N_32
    4  A    between atoms: C_10  and  N_33
    5  A    between atoms: C_11  and  C_14
    6  A    between atoms: C_17  and  C_29
    7  A    between atoms: C_19  and  O_24
    8  A    between atoms: C_21  and  C_23
    9  A    between atoms: C_23  and  N_32
   10  A    between atoms: C_25  and  N_33
                            x       y       z     vdW  Elec       q    Type
                         _______ _______ _______ _____ _____    ______ ____

>  <TORSDO>
F 10

$$$$
=
 OpenBabel10222418213D

 34 36  0  0  1  0  0  0  0  0999 V2000
  185.5410  178.5500  146.6290 C   0  0  0  0  0  3  0  0  0  0  0  0
  186.7890  177.9690  146.8610 C   0  0  0  0  0  3  0  0  0  0  0  0
  185.8870  178.3590  144.2350 C   0  0  0  0  0  0  0  0  0  0  0  0
  187.1340  177.7790  144.4820 C   0  0  0  0  0  3  0  0  0  0  0  0
  185.0690  178.7570  145.3270 C   0  0  0  0  0  0  0  0  0  0  0  0
  187.5910  177.5800  145.7900 C   0  0  0  0  0  0  0  0  0  0  0  0
  185.5020  178.4990  142.8550 C   0  0  0  0  0  0  0  0  0  0  0  0
  185.1850  178.5880  141.6950 C   0  0  0  0  0  0  0  0  0  0  0  0
  179.2160  178.8160  139.6170 O   0  0  0  0  0  1  0  0  0  0  0  0
  183.3150  177.7330  138.4560 C   0  0  1  0  0  3  0  0  0  0  0  0
  180.7270  177.1950  138.6590 C   0  0  2  0  0  3  0  0  0  0  0  0
  183.6380  177.7260  139.9670 C   0  0  2  0  0  3  0  0  0  0  0  0
  184.5580  177.4020  137.6290 C   0  0  0  0  0  2  0  0  0  0  0  0
  182.3950  178.0070  140.8450 C   0  0  0  0  0  2  0  0  0  0  0  0
  179.6280  176.4980  137.8660 C   0  0  0  0  0  1  0  0  0  0  0  0
  186.0190  178.3430  139.4230 C   0  0  0  0  0  2  0  0  0  0  0  0
  182.2700  175.8770  137.4200 O   0  0  0  0  0  0  0  0  0  0  0  0
  180.3660  178.6870  138.8360 C   0  0  2  0  0  3  0  0  0  0  0  0
  185.6680  178.3980  137.9410 C   0  0  0  0  0  2  0  0  0  0  0  0
  184.8010  178.6810  140.2820 C   0  0  2  0  0  3  0  0  0  0  0  0
  182.1090  176.8890  138.0900 C   0  0  0  0  0  0  0  0  0  0  0  0
  181.4780  179.5880  139.4010 C   0  0  0  0  0  2  0  0  0  0  0  0
  181.8530  179.3100  140.7350 O   0  0  0  0  0  0  0  0  0  0  0  0
  183.8020  179.3510  145.2070 O   0  0  0  0  0  0  0  0  0  0  0  0
  182.6690  178.7680  144.5830 C   0  0  0  0  0  1  0  0  0  0  0  0
  188.8680  176.9880  146.0460 N   0  0  0  0  0  2  0  0  0  0  0  0
  190.0210  177.1490  145.1630 C   0  0  2  0  0  3  0  0  0  0  0  0
  191.3050  176.6850  145.8510 C   0  0  0  0  0  2  0  0  0  0  0  0
  191.1110  176.6040  147.3550 C   0  0  0  0  0  2  0  0  0  0  0  0
  192.3500  176.5240  147.9910 O   0  0  0  0  0  1  0  0  0  0  0  0
  190.1260  178.5310  144.6880 N   0  0  0  0  0  2  0  0  0  0  0  0
  190.8620  178.5860  143.4290 C   0  0  0  0  0  2  0  0  0  0  0  0
  190.8020  177.4660  141.2970 N   0  0  0  0  0  2  0  0  0  0  0  0
  190.3320  177.5590  142.4850 C   0  0  0  0  0  3  0  0  0  0  0  0
  1  2  1  0  0  0  0
  3  4  2  0  0  0  0
  3  5  1  0  0  0  0
  4  6  1  0  0  0  0
  5  1  2  0  0  0  0
  6 26  1  0  0  0  0
  6  2  2  0  0  0  0
  7  3  1  0  0  0  0
  8  7  3  0  0  0  0
 10 13  1  6  0  0  0
 10 12  1  0  0  0  0
 11 15  1  6  0  0  0
 11 18  1  0  0  0  0
 12 20  1  0  0  0  0
 12 14  1  1  0  0  0
 13 19  1  0  0  0  0
 16 20  1  0  0  0  0
 17 21  2  0  0  0  0
 18 22  1  0  0  0  0
 18  9  1  1  0  0  0
 19 16  1  0  0  0  0
 20  8  1  1  0  0  0
 21 10  1  0  0  0  0
 21 11  1  0  0  0  0
 22 23  1  0  0  0  0
 23 14  1  0  0  0  0
 24  5  1  0  0  0  0
 25 24  1  0  0  0  0
 27 28  1  1  0  0  0
 27 26  1  0  0  0  0
 28 29  1  0  0  0  0
 29 30  1  0  0  0  0
 31 27  1  0  0  0  0
 32 31  1  0  0  0  0
 33 34  2  0  0  0  0
 34 32  1  0  0  0  0
M  END
>  <MODEL>
3

>  <REMARK>
 VINA RESULT:      -7.3      2.166      4.279
  Name = 
  10 active torsions:
  status: ('A' for Active; 'I' for Inactive)
    1  A    between atoms: C_2  and  C_8
    2  A    between atoms: C_8  and  C_10
    3  A    between atoms: C_10  and  N_32
    4  A    between atoms: C_10  and  N_33
    5  A    between atoms: C_11  and  C_14
    6  A    between atoms: C_17  and  C_29
    7  A    between atoms: C_19  and  O_24
    8  A    between atoms: C_21  and  C_23
    9  A    between atoms: C_23  and  N_32
   10  A    between atoms: C_25  and  N_33
                            x       y       z     vdW  Elec       q    Type
                         _______ _______ _______ _____ _____    ______ ____

>  <TORSDO>
F 10

$$$$
=
 OpenBabel10222418213D

 34 36  0  0  1  0  0  0  0  0999 V2000
  189.6340  177.8720  142.0160 C   0  0  0  0  0  3  0  0  0  0  0  0
  190.0710  177.8850  143.3420 C   0  0  0  0  0  3  0  0  0  0  0  0
  187.3270  177.9590  142.7670 C   0  0  0  0  0  0  0  0  0  0  0  0
  187.7790  177.9700  144.0890 C   0  0  0  0  0  3  0  0  0  0  0  0
  188.2690  177.9060  141.7040 C   0  0  0  0  0  0  0  0  0  0  0  0
  189.1470  177.9350  144.3840 C   0  0  0  0  0  0  0  0  0  0  0  0
  185.9030  178.0200  142.5710 C   0  0  0  0  0  0  0  0  0  0  0  0
  184.7060  178.0690  142.4350 C   0  0  0  0  0  0  0  0  0  0  0  0
  181.5970  176.7370  137.0920 O   0  0  0  0  0  1  0  0  0  0  0  0
  181.3290  178.9830  140.8600 C   0  0  1  0  0  3  0  0  0  0  0  0
  181.1420  178.8220  138.2200 C   0  0  2  0  0  3  0  0  0  0  0  0
  182.8610  178.8080  140.9610 C   0  0  2  0  0  3  0  0  0  0  0  0
  180.7850  179.7500  142.0660 C   0  0  0  0  0  2  0  0  0  0  0  0
  183.4610  178.0810  139.7340 C   0  0  0  0  0  2  0  0  0  0  0  0
  180.2660  179.3520  137.0920 C   0  0  0  0  0  1  0  0  0  0  0  0
  182.6690  178.9030  143.4710 C   0  0  0  0  0  2  0  0  0  0  0  0
  180.3780  180.6740  139.5010 O   0  0  0  0  0  0  0  0  0  0  0  0
  181.0540  177.2790  138.2580 C   0  0  2  0  0  3  0  0  0  0  0  0
  181.1530  179.0200  143.3520 C   0  0  0  0  0  2  0  0  0  0  0  0
  183.2470  178.1300  142.2860 C   0  0  2  0  0  3  0  0  0  0  0  0
  180.8710  179.5540  139.5310 C   0  0  0  0  0  0  0  0  0  0  0  0
  181.6830  176.5970  139.4860 C   0  0  0  0  0  2  0  0  0  0  0  0
  183.0870  176.7240  139.5870 O   0  0  0  0  0  0  0  0  0  0  0  0
  187.9390  177.8870  140.3380 O   0  0  0  0  0  0  0  0  0  0  0  0
  188.7120  178.4500  139.2900 C   0  0  0  0  0  1  0  0  0  0  0  0
  189.6130  177.9450  145.7370 N   0  0  0  0  0  2  0  0  0  0  0  0
  188.9850  177.1780  146.8100 C   0  0  2  0  0  3  0  0  0  0  0  0
  188.2450  178.0990  147.7800 C   0  0  0  0  0  2  0  0  0  0  0  0
  186.7420  177.9770  147.5960 C   0  0  0  0  0  2  0  0  0  0  0  0
  186.2250  179.1770  147.1060 O   0  0  0  0  0  1  0  0  0  0  0  0
  189.9710  176.3400  147.4980 N   0  0  0  0  0  2  0  0  0  0  0  0
  191.3240  176.6770  147.0650 C   0  0  0  0  0  2  0  0  0  0  0  0
  193.1300  176.1050  148.5520 N   0  0  0  0  0  2  0  0  0  0  0  0
  192.3000  175.7170  147.6570 C   0  0  0  0  0  3  0  0  0  0  0  0
  1  2  1  0  0  0  0
  2  6  2  0  0  0  0
  3  4  2  0  0  0  0
  4  6  1  0  0  0  0
  5  1  2  0  0  0  0
  5  3  1  0  0  0  0
  6 26  1  0  0  0  0
  7  3  1  0  0  0  0
  8  7  3  0  0  0  0
 10 12  1  0  0  0  0
 10 13  1  1  0  0  0
 11 15  1  6  0  0  0
 11 18  1  0  0  0  0
 11 21  1  0  0  0  0
 12 14  1  6  0  0  0
 12 20  1  0  0  0  0
 13 19  1  0  0  0  0
 17 21  2  0  0  0  0
 18  9  1  6  0  0  0
 18 22  1  0  0  0  0
 19 16  1  0  0  0  0
 20  8  1  1  0  0  0
 20 16  1  0  0  0  0
 21 10  1  0  0  0  0
 22 23  1  0  0  0  0
 23 14  1  0  0  0  0
 24  5  1  0  0  0  0
 25 24  1  0  0  0  0
 26 27  1  0  0  0  0
 27 31  1  0  0  0  0
 27 28  1  1  0  0  0
 29 28  1  0  0  0  0
 30 29  1  0  0  0  0
 32 31  1  0  0  0  0
 32 34  1  0  0  0  0
 34 33  2  0  0  0  0
M  END
>  <MODEL>
4

>  <REMARK>
 VINA RESULT:      -7.2      1.810      2.896
  Name = 
  10 active torsions:
  status: ('A' for Active; 'I' for Inactive)
    1  A    between atoms: C_2  and  C_8
    2  A    between atoms: C_8  and  C_10
    3  A    between atoms: C_10  and  N_32
    4  A    between atoms: C_10  and  N_33
    5  A    between atoms: C_11  and  C_14
    6  A    between atoms: C_17  and  C_29
    7  A    between atoms: C_19  and  O_24
    8  A    between atoms: C_21  and  C_23
    9  A    between atoms: C_23  and  N_32
   10  A    between atoms: C_25  and  N_33
                            x       y       z     vdW  Elec       q    Type
                         _______ _______ _______ _____ _____    ______ ____

>  <TORSDO>
F 10

$$$$
=
 OpenBabel10222418213D

 34 36  0  0  1  0  0  0  0  0999 V2000
  188.4890  177.7010  146.2720 C   0  0  0  0  0  3  0  0  0  0  0  0
  187.1010  177.8330  146.1890 C   0  0  0  0  0  3  0  0  0  0  0  0
  188.6420  177.7100  143.8490 C   0  0  0  0  0  0  0  0  0  0  0  0
  187.2520  177.8420  143.7820 C   0  0  0  0  0  3  0  0  0  0  0  0
  189.2790  177.6360  145.1180 C   0  0  0  0  0  0  0  0  0  0  0  0
  186.4770  177.9050  144.9450 C   0  0  0  0  0  0  0  0  0  0  0  0
  189.3490  177.6770  142.5960 C   0  0  0  0  0  0  0  0  0  0  0  0
  189.9580  177.6700  141.5560 C   0  0  0  0  0  0  0  0  0  0  0  0
  187.3390  178.2320  135.8270 O   0  0  0  0  0  1  0  0  0  0  0  0
  190.8650  176.6990  137.9560 C   0  0  1  0  0  3  0  0  0  0  0  0
  188.8650  176.4080  136.2410 C   0  0  2  0  0  3  0  0  0  0  0  0
  190.0110  176.7970  139.2410 C   0  0  2  0  0  3  0  0  0  0  0  0
  192.2720  176.1890  138.2710 C   0  0  0  0  0  2  0  0  0  0  0  0
  188.5620  177.2610  138.9610 C   0  0  0  0  0  2  0  0  0  0  0  0
  188.5830  175.7420  134.8990 C   0  0  0  0  0  1  0  0  0  0  0  0
  192.1210  177.1540  140.5700 C   0  0  0  0  0  2  0  0  0  0  0  0
  190.6510  174.8570  136.4830 O   0  0  0  0  0  0  0  0  0  0  0  0
  188.6740  177.9360  136.1070 C   0  0  2  0  0  3  0  0  0  0  0  0
  192.9410  177.1090  139.2860 C   0  0  0  0  0  2  0  0  0  0  0  0
  190.7100  177.6710  140.2960 C   0  0  2  0  0  3  0  0  0  0  0  0
  190.1880  175.9340  136.8360 C   0  0  0  0  0  0  0  0  0  0  0  0
  189.1520  178.7830  137.3000 C   0  0  0  0  0  2  0  0  0  0  0  0
  188.4270  178.5910  138.4980 O   0  0  0  0  0  0  0  0  0  0  0  0
  190.6640  177.5000  145.3140 O   0  0  0  0  0  0  0  0  0  0  0  0
  191.4130  176.3070  145.1400 C   0  0  0  0  0  1  0  0  0  0  0  0
  185.0540  178.0380  144.8800 N   0  0  0  0  0  2  0  0  0  0  0  0
  184.3690  178.8650  143.8900 C   0  0  2  0  0  3  0  0  0  0  0  0
  182.9340  179.1660  144.3260 C   0  0  0  0  0  2  0  0  0  0  0  0
  181.9390  178.6020  143.3270 C   0  0  0  0  0  2  0  0  0  0  0  0
  180.6460  179.0010  143.6660 O   0  0  0  0  0  1  0  0  0  0  0  0
  184.4160  178.2420  142.5650 N   0  0  0  0  0  2  0  0  0  0  0  0
  185.0610  179.1290  141.6020 C   0  0  0  0  0  2  0  0  0  0  0  0
  184.6220  179.6220  139.2860 N   0  0  0  0  0  2  0  0  0  0  0  0
  184.1460  179.3800  140.4500 C   0  0  0  0  0  3  0  0  0  0  0  0
  2  1  1  0  0  0  0
  3  5  1  0  0  0  0
  4  3  2  0  0  0  0
  4  6  1  0  0  0  0
  5 24  1  0  0  0  0
  5  1  2  0  0  0  0
  6  2  2  0  0  0  0
  7  3  1  0  0  0  0
  8  7  3  0  0  0  0
 10 13  1  1  0  0  0
 10 12  1  0  0  0  0
 11 15  1  6  0  0  0
 11 21  1  0  0  0  0
 12 14  1  6  0  0  0
 12 20  1  0  0  0  0
 13 19  1  0  0  0  0
 17 21  2  0  0  0  0
 18  9  1  1  0  0  0
 18 11  1  0  0  0  0
 18 22  1  0  0  0  0
 19 16  1  0  0  0  0
 20 16  1  0  0  0  0
 20  8  1  1  0  0  0
 21 10  1  0  0  0  0
 22 23  1  0  0  0  0
 23 14  1  0  0  0  0
 25 24  1  0  0  0  0
 26  6  1  0  0  0  0
 27 28  1  1  0  0  0
 27 26  1  0  0  0  0
 29 30  1  0  0  0  0
 29 28  1  0  0  0  0
 31 27  1  0  0  0  0
 32 31  1  0  0  0  0
 33 34  2  0  0  0  0
 34 32  1  0  0  0  0
M  END
>  <MODEL>
5

>  <REMARK>
 VINA RESULT:      -7.2      3.110      7.606
  Name = 
  10 active torsions:
  status: ('A' for Active; 'I' for Inactive)
    1  A    between atoms: C_2  and  C_8
    2  A    between atoms: C_8  and  C_10
    3  A    between atoms: C_10  and  N_32
    4  A    between atoms: C_10  and  N_33
    5  A    between atoms: C_11  and  C_14
    6  A    between atoms: C_17  and  C_29
    7  A    between atoms: C_19  and  O_24
    8  A    between atoms: C_21  and  C_23
    9  A    between atoms: C_23  and  N_32
   10  A    between atoms: C_25  and  N_33
                            x       y       z     vdW  Elec       q    Type
                         _______ _______ _______ _____ _____    ______ ____

>  <TORSDO>
F 10

$$$$
=
 OpenBabel10222418213D

 34 36  0  0  1  0  0  0  0  0999 V2000
  183.2960  178.8620  144.6780 C   0  0  0  0  0  3  0  0  0  0  0  0
  182.2190  178.8510  143.7890 C   0  0  0  0  0  3  0  0  0  0  0  0
  184.8430  178.6540  142.8200 C   0  0  0  0  0  0  0  0  0  0  0  0
  183.7560  178.6440  141.9410 C   0  0  0  0  0  3  0  0  0  0  0  0
  184.6140  178.7630  144.2180 C   0  0  0  0  0  0  0  0  0  0  0  0
  182.4430  178.7430  142.4180 C   0  0  0  0  0  0  0  0  0  0  0  0
  186.1520  178.5680  142.2270 C   0  0  0  0  0  0  0  0  0  0  0  0
  187.2470  178.4680  141.7320 C   0  0  0  0  0  0  0  0  0  0  0  0
  188.3390  178.1620  135.5110 O   0  0  0  0  0  1  0  0  0  0  0  0
  189.9810  177.0630  139.4370 C   0  0  1  0  0  3  0  0  0  0  0  0
  189.2850  176.4690  136.9480 C   0  0  2  0  0  3  0  0  0  0  0  0
  188.5570  177.2980  139.9900 C   0  0  2  0  0  3  0  0  0  0  0  0
  190.9420  176.6540  140.5540 C   0  0  0  0  0  2  0  0  0  0  0  0
  187.5400  177.6640  138.8830 C   0  0  0  0  0  2  0  0  0  0  0  0
  189.7800  175.6210  135.7840 C   0  0  0  0  0  1  0  0  0  0  0  0
  189.5640  177.9100  142.2170 C   0  0  0  0  0  2  0  0  0  0  0  0
  190.5540  175.0350  138.3570 O   0  0  0  0  0  0  0  0  0  0  0  0
  189.2700  177.9570  136.5310 C   0  0  2  0  0  3  0  0  0  0  0  0
  190.9620  177.7260  141.6370 C   0  0  0  0  0  2  0  0  0  0  0  0
  188.5770  178.3310  141.1290 C   0  0  2  0  0  3  0  0  0  0  0  0
  190.0200  176.1300  138.2420 C   0  0  0  0  0  0  0  0  0  0  0  0
  189.0290  178.9730  137.6610 C   0  0  0  0  0  2  0  0  0  0  0  0
  187.7480  178.9150  138.2550 O   0  0  0  0  0  0  0  0  0  0  0  0
  185.6220  178.7800  145.1980 O   0  0  0  0  0  0  0  0  0  0  0  0
  185.4400  178.5100  146.5790 C   0  0  0  0  0  1  0  0  0  0  0  0
  181.3280  178.7310  141.5220 N   0  0  0  0  0  2  0  0  0  0  0  0
  181.3650  178.1100  140.2000 C   0  0  2  0  0  3  0  0  0  0  0  0
  181.6020  179.1570  139.1100 C   0  0  0  0  0  2  0  0  0  0  0  0
  183.0390  179.1070  138.6210 C   0  0  0  0  0  2  0  0  0  0  0  0
  183.7410  180.2170  139.0930 O   0  0  0  0  0  1  0  0  0  0  0  0
  180.1470  177.3340  139.9540 N   0  0  0  0  0  2  0  0  0  0  0  0
  180.4790  175.9550  139.6060 C   0  0  0  0  0  2  0  0  0  0  0  0
  179.0300  175.1180  141.3380 N   0  0  0  0  0  2  0  0  0  0  0  0
  179.4260  175.0330  140.1230 C   0  0  0  0  0  3  0  0  0  0  0  0
  2  1  2  0  0  0  0
  3  5  2  0  0  0  0
  4  6  2  0  0  0  0
  4  3  1  0  0  0  0
  5  1  1  0  0  0  0
  5 24  1  0  0  0  0
  6  2  1  0  0  0  0
  7  3  1  0  0  0  0
  8  7  3  0  0  0  0
 10 12  1  0  0  0  0
 10 13  1  1  0  0  0
 11 15  1  6  0  0  0
 11 21  1  0  0  0  0
 12 14  1  6  0  0  0
 12 20  1  0  0  0  0
 13 19  1  0  0  0  0
 18  9  1  6  0  0  0
 18 11  1  0  0  0  0
 18 22  1  0  0  0  0
 19 16  1  0  0  0  0
 20  8  1  1  0  0  0
 20 16  1  0  0  0  0
 21 17  2  0  0  0  0
 21 10  1  0  0  0  0
 22 23  1  0  0  0  0
 23 14  1  0  0  0  0
 24 25  1  0  0  0  0
 26  6  1  0  0  0  0
 27 28  1  6  0  0  0
 27 26  1  0  0  0  0
 29 30  1  0  0  0  0
 29 28  1  0  0  0  0
 31 27  1  0  0  0  0
 32 31  1  0  0  0  0
 32 34  1  0  0  0  0
 34 33  2  0  0  0  0
M  END
>  <MODEL>
6

>  <REMARK>
 VINA RESULT:      -7.1      3.342      8.226
  Name = 
  10 active torsions:
  status: ('A' for Active; 'I' for Inactive)
    1  A    between atoms: C_2  and  C_8
    2  A    between atoms: C_8  and  C_10
    3  A    between atoms: C_10  and  N_32
    4  A    between atoms: C_10  and  N_33
    5  A    between atoms: C_11  and  C_14
    6  A    between atoms: C_17  and  C_29
    7  A    between atoms: C_19  and  O_24
    8  A    between atoms: C_21  and  C_23
    9  A    between atoms: C_23  and  N_32
   10  A    between atoms: C_25  and  N_33
                            x       y       z     vdW  Elec       q    Type
                         _______ _______ _______ _____ _____    ______ ____

>  <TORSDO>
F 10

$$$$
=
 OpenBabel10222418213D

 34 36  0  0  1  0  0  0  0  0999 V2000
  188.4990  177.5620  145.1500 C   0  0  0  0  0  3  0  0  0  0  0  0
  189.4280  177.6080  144.1090 C   0  0  0  0  0  3  0  0  0  0  0  0
  186.6960  177.9410  143.5710 C   0  0  0  0  0  0  0  0  0  0  0  0
  187.6370  177.9850  142.5380 C   0  0  0  0  0  3  0  0  0  0  0  0
  187.1300  177.7280  144.9070 C   0  0  0  0  0  0  0  0  0  0  0  0
  189.0020  177.8190  142.7990 C   0  0  0  0  0  0  0  0  0  0  0  0
  185.3160  178.1020  143.1940 C   0  0  0  0  0  0  0  0  0  0  0  0
  184.1620  178.2120  142.8640 C   0  0  0  0  0  0  0  0  0  0  0  0
  182.0810  177.4930  136.9350 O   0  0  0  0  0  1  0  0  0  0  0  0
  181.1460  179.3730  140.7970 C   0  0  1  0  0  3  0  0  0  0  0  0
  181.4490  179.4720  138.1640 C   0  0  2  0  0  3  0  0  0  0  0  0
  182.6310  179.1440  141.1580 C   0  0  2  0  0  3  0  0  0  0  0  0
  180.3960  180.0360  141.9530 C   0  0  0  0  0  2  0  0  0  0  0  0
  183.4390  178.5210  139.9950 C   0  0  0  0  0  2  0  0  0  0  0  0
  180.8030  180.1340  136.9530 C   0  0  0  0  0  1  0  0  0  0  0  0
  181.9780  179.0010  143.5870 C   0  0  0  0  0  2  0  0  0  0  0  0
  180.4820  181.2140  139.4620 O   0  0  0  0  0  0  0  0  0  0  0  0
  181.3380  177.9360  138.0310 C   0  0  2  0  0  3  0  0  0  0  0  0
  180.5120  179.1750  143.2060 C   0  0  0  0  0  2  0  0  0  0  0  0
  182.7570  178.3300  142.4570 C   0  0  2  0  0  3  0  0  0  0  0  0
  180.9480  180.0820  139.4710 C   0  0  0  0  0  0  0  0  0  0  0  0
  181.7210  177.1210  139.2790 C   0  0  0  0  0  2  0  0  0  0  0  0
  183.0830  177.1960  139.6470 O   0  0  0  0  0  0  0  0  0  0  0  0
  186.2830  177.6670  146.0270 O   0  0  0  0  0  0  0  0  0  0  0  0
  185.8700  178.7730  146.8140 C   0  0  0  0  0  1  0  0  0  0  0  0
  189.9680  177.8640  141.7450 N   0  0  0  0  0  2  0  0  0  0  0  0
  189.7280  177.3210  140.4100 C   0  0  2  0  0  3  0  0  0  0  0  0
  191.0040  176.7110  139.8290 C   0  0  0  0  0  2  0  0  0  0  0  0
  192.2250  177.5010  140.2680 C   0  0  0  0  0  2  0  0  0  0  0  0
  193.3320  177.1290  139.5040 O   0  0  0  0  0  1  0  0  0  0  0  0
  189.1610  178.3420  139.5250 N   0  0  0  0  0  2  0  0  0  0  0  0
  188.9600  177.8040  138.1830 C   0  0  0  0  0  2  0  0  0  0  0  0
  187.1840  179.0010  137.0810 N   0  0  0  0  0  2  0  0  0  0  0  0
  187.5370  177.9820  137.7720 C   0  0  0  0  0  3  0  0  0  0  0  0
  2  1  2  0  0  0  0
  3  5  2  0  0  0  0
  4  6  2  0  0  0  0
  4  3  1  0  0  0  0
  5  1  1  0  0  0  0
  5 24  1  0  0  0  0
  6  2  1  0  0  0  0
  7  3  1  0  0  0  0
  8  7  3  0  0  0  0
 10 12  1  0  0  0  0
 10 13  1  1  0  0  0
 11 15  1  6  0  0  0
 11 21  1  0  0  0  0
 12 14  1  6  0  0  0
 12 20  1  0  0  0  0
 13 19  1  0  0  0  0
 17 21  2  0  0  0  0
 18  9  1  6  0  0  0
 18 11  1  0  0  0  0
 18 22  1  0  0  0  0
 19 16  1  0  0  0  0
 20  8  1  1  0  0  0
 20 16  1  0  0  0  0
 21 10  1  0  0  0  0
 22 23  1  0  0  0  0
 23 14  1  0  0  0  0
 24 25  1  0  0  0  0
 26  6  1  0  0  0  0
 27 28  1  6  0  0  0
 27 26  1  0  0  0  0
 28 29  1  0  0  0  0
 30 29  1  0  0  0  0
 31 27  1  0  0  0  0
 32 31  1  0  0  0  0
 33 34  2  0  0  0  0
 34 32  1  0  0  0  0
M  END
>  <MODEL>
7

>  <REMARK>
 VINA RESULT:      -7.0      2.761      4.622
  Name = 
  10 active torsions:
  status: ('A' for Active; 'I' for Inactive)
    1  A    between atoms: C_2  and  C_8
    2  A    between atoms: C_8  and  C_10
    3  A    between atoms: C_10  and  N_32
    4  A    between atoms: C_10  and  N_33
    5  A    between atoms: C_11  and  C_14
    6  A    between atoms: C_17  and  C_29
    7  A    between atoms: C_19  and  O_24
    8  A    between atoms: C_21  and  C_23
    9  A    between atoms: C_23  and  N_32
   10  A    between atoms: C_25  and  N_33
                            x       y       z     vdW  Elec       q    Type
                         _______ _______ _______ _____ _____    ______ ____

>  <TORSDO>
F 10

$$$$
=
 OpenBabel10222418213D

 34 36  0  0  1  0  0  0  0  0999 V2000
  191.6470  173.8130  136.1560 C   0  0  0  0  0  3  0  0  0  0  0  0
  193.0110  174.0990  136.0670 C   0  0  0  0  0  3  0  0  0  0  0  0
  191.3990  175.4920  137.8910 C   0  0  0  0  0  0  0  0  0  0  0  0
  192.7660  175.7670  137.7920 C   0  0  0  0  0  3  0  0  0  0  0  0
  190.8220  174.4940  137.0600 C   0  0  0  0  0  0  0  0  0  0  0  0
  193.5760  175.0770  136.8830 C   0  0  0  0  0  0  0  0  0  0  0  0
  190.6510  176.2720  138.8410 C   0  0  0  0  0  0  0  0  0  0  0  0
  190.0420  176.9480  139.6330 C   0  0  0  0  0  0  0  0  0  0  0  0
  191.7060  177.7450  145.6820 O   0  0  0  0  0  1  0  0  0  0  0  0
  188.2940  177.8910  142.9150 C   0  0  1  0  0  3  0  0  0  0  0  0
  189.4390  177.0930  145.1690 C   0  0  2  0  0  3  0  0  0  0  0  0
  189.1690  177.0660  141.9460 C   0  0  2  0  0  3  0  0  0  0  0  0
  186.9300  178.2000  142.2950 C   0  0  0  0  0  2  0  0  0  0  0  0
  190.5410  176.6870  142.5540 C   0  0  0  0  0  2  0  0  0  0  0  0
  189.0730  176.8630  146.6300 C   0  0  0  0  0  1  0  0  0  0  0  0
  187.9340  178.1010  140.0090 C   0  0  0  0  0  2  0  0  0  0  0  0
  187.1220  176.8510  144.6920 O   0  0  0  0  0  0  0  0  0  0  0  0
  190.5270  178.1860  145.0770 C   0  0  2  0  0  3  0  0  0  0  0  0
  187.1180  178.9470  140.9800 C   0  0  0  0  0  2  0  0  0  0  0  0
  189.3100  177.7830  140.5920 C   0  0  2  0  0  3  0  0  0  0  0  0
  188.1970  177.2900  144.3050 C   0  0  0  0  0  0  0  0  0  0  0  0
  190.8380  178.7120  143.6650 C   0  0  0  0  0  2  0  0  0  0  0  0
  191.4220  177.7690  142.7900 O   0  0  0  0  0  0  0  0  0  0  0  0
  189.4660  174.1260  137.0690 O   0  0  0  0  0  0  0  0  0  0  0  0
  188.8140  173.3360  136.0870 C   0  0  0  0  0  1  0  0  0  0  0  0
  194.9760  175.3550  136.7800 N   0  0  0  0  0  2  0  0  0  0  0  0
  196.0150  174.3630  137.0470 C   0  0  2  0  0  3  0  0  0  0  0  0
  195.8700  173.7860  138.4560 C   0  0  0  0  0  2  0  0  0  0  0  0
  196.7880  174.5060  139.4290 C   0  0  0  0  0  2  0  0  0  0  0  0
  196.0430  175.3590  140.2440 O   0  0  0  0  0  1  0  0  0  0  0  0
  197.3480  174.9300  136.8250 N   0  0  0  0  0  2  0  0  0  0  0  0
  197.4640  175.4490  135.4650 C   0  0  0  0  0  2  0  0  0  0  0  0
  198.7270  173.4290  135.1100 N   0  0  0  0  0  2  0  0  0  0  0  0
  198.1390  174.4430  134.5940 C   0  0  0  0  0  3  0  0  0  0  0  0
  1  5  1  0  0  0  0
  2  1  2  0  0  0  0
  2  6  1  0  0  0  0
  3  7  1  0  0  0  0
  4  3  1  0  0  0  0
  5 24  1  0  0  0  0
  5  3  2  0  0  0  0
  6  4  2  0  0  0  0
  7  8  3  0  0  0  0
 10 13  1  6  0  0  0
 10 21  1  0  0  0  0
 11 15  1  1  0  0  0
 12 14  1  1  0  0  0
 12 10  1  0  0  0  0
 14 23  1  0  0  0  0
 16 20  1  0  0  0  0
 16 19  1  0  0  0  0
 18 11  1  0  0  0  0
 18  9  1  6  0  0  0
 19 13  1  0  0  0  0
 20  8  1  6  0  0  0
 20 12  1  0  0  0  0
 21 17  2  0  0  0  0
 21 11  1  0  0  0  0
 22 18  1  0  0  0  0
 23 22  1  0  0  0  0
 25 24  1  0  0  0  0
 26  6  1  0  0  0  0
 26 27  1  0  0  0  0
 27 28  1  1  0  0  0
 28 29  1  0  0  0  0
 29 30  1  0  0  0  0
 31 27  1  0  0  0  0
 32 31  1  0  0  0  0
 34 33  2  0  0  0  0
 34 32  1  0  0  0  0
M  END
>  <MODEL>
8

>  <REMARK>
 VINA RESULT:      -6.9      6.418     10.560
  Name = 
  10 active torsions:
  status: ('A' for Active; 'I' for Inactive)
    1  A    between atoms: C_2  and  C_8
    2  A    between atoms: C_8  and  C_10
    3  A    between atoms: C_10  and  N_32
    4  A    between atoms: C_10  and  N_33
    5  A    between atoms: C_11  and  C_14
    6  A    between atoms: C_17  and  C_29
    7  A    between atoms: C_19  and  O_24
    8  A    between atoms: C_21  and  C_23
    9  A    between atoms: C_23  and  N_32
   10  A    between atoms: C_25  and  N_33
                            x       y       z     vdW  Elec       q    Type
                         _______ _______ _______ _____ _____    ______ ____

>  <TORSDO>
F 10

$$$$
=
 OpenBabel10222418213D

 34 36  0  0  1  0  0  0  0  0999 V2000
  191.6630  177.2850  141.0940 C   0  0  0  0  0  3  0  0  0  0  0  0
  191.3650  177.5250  142.4370 C   0  0  0  0  0  3  0  0  0  0  0  0
  189.3620  177.7670  140.4890 C   0  0  0  0  0  0  0  0  0  0  0  0
  189.0780  178.0030  141.8370 C   0  0  0  0  0  3  0  0  0  0  0  0
  190.6800  177.3980  140.1040 C   0  0  0  0  0  0  0  0  0  0  0  0
  190.0730  177.8840  142.8150 C   0  0  0  0  0  0  0  0  0  0  0  0
  188.2750  177.9360  139.5610 C   0  0  0  0  0  0  0  0  0  0  0  0
  187.3650  178.0500  138.7800 C   0  0  0  0  0  0  0  0  0  0  0  0
  181.5570  180.0440  140.2950 O   0  0  0  0  0  1  0  0  0  0  0  0
  183.8130  177.6370  137.3900 C   0  0  1  0  0  3  0  0  0  0  0  0
  181.8020  177.9680  139.0870 C   0  0  2  0  0  3  0  0  0  0  0  0
  184.9520  177.6210  138.4330 C   0  0  2  0  0  3  0  0  0  0  0  0
  184.2150  176.8740  136.1270 C   0  0  0  0  0  2  0  0  0  0  0  0
  184.5670  178.3390  139.7480 C   0  0  0  0  0  2  0  0  0  0  0  0
  180.3260  177.6110  139.2100 C   0  0  0  0  0  1  0  0  0  0  0  0
  186.6180  177.4090  136.5550 C   0  0  0  0  0  2  0  0  0  0  0  0
  181.9760  176.1520  137.5620 O   0  0  0  0  0  0  0  0  0  0  0  0
  181.9600  179.5060  139.0710 C   0  0  2  0  0  3  0  0  0  0  0  0
  185.4840  177.4810  135.5390 C   0  0  0  0  0  2  0  0  0  0  0  0
  186.2540  178.1720  137.8280 C   0  0  2  0  0  3  0  0  0  0  0  0
  182.4720  177.2010  137.9500 C   0  0  0  0  0  0  0  0  0  0  0  0
  183.3580  180.0370  138.7090 C   0  0  0  0  0  2  0  0  0  0  0  0
  184.3730  179.7370  139.6450 O   0  0  0  0  0  0  0  0  0  0  0  0
  191.0860  177.1330  138.7850 O   0  0  0  0  0  0  0  0  0  0  0  0
  190.9870  175.8810  138.1230 C   0  0  0  0  0  1  0  0  0  0  0  0
  189.7850  178.1240  144.1960 N   0  0  0  0  0  2  0  0  0  0  0  0
  189.0120  177.2050  145.0270 C   0  0  2  0  0  3  0  0  0  0  0  0
  187.5550  177.6570  145.1340 C   0  0  0  0  0  2  0  0  0  0  0  0
  187.0700  177.5720  146.5710 C   0  0  0  0  0  2  0  0  0  0  0  0
  186.3480  178.7200  146.8990 O   0  0  0  0  0  1  0  0  0  0  0  0
  189.6310  177.0450  146.3460 N   0  0  0  0  0  2  0  0  0  0  0  0
  191.0710  176.8390  146.2150 C   0  0  0  0  0  2  0  0  0  0  0  0
  192.5130  176.3910  148.0910 N   0  0  0  0  0  2  0  0  0  0  0  0
  191.5640  175.9830  147.3330 C   0  0  0  0  0  3  0  0  0  0  0  0
  1  2  1  0  0  0  0
  2  6  2  0  0  0  0
  3  4  2  0  0  0  0
  4  6  1  0  0  0  0
  5  3  1  0  0  0  0
  5  1  2  0  0  0  0
  6 26  1  0  0  0  0
  7  3  1  0  0  0  0
  8  7  3  0  0  0  0
 10 13  1  6  0  0  0
 10 21  1  0  0  0  0
 10 12  1  0  0  0  0
 11 15  1  6  0  0  0
 12 14  1  1  0  0  0
 16 20  1  0  0  0  0
 17 21  2  0  0  0  0
 18 11  1  0  0  0  0
 18  9  1  1  0  0  0
 19 13  1  0  0  0  0
 19 16  1  0  0  0  0
 20 12  1  0  0  0  0
 20  8  1  1  0  0  0
 21 11  1  0  0  0  0
 22 18  1  0  0  0  0
 22 23  1  0  0  0  0
 23 14  1  0  0  0  0
 24  5  1  0  0  0  0
 25 24  1  0  0  0  0
 26 27  1  0  0  0  0
 27 28  1  1  0  0  0
 27 31  1  0  0  0  0
 28 29  1  0  0  0  0
 29 30  1  0  0  0  0
 32 31  1  0  0  0  0
 32 34  1  0  0  0  0
 34 33  2  0  0  0  0
M  END
>  <MODEL>
9

>  <REMARK>
 VINA RESULT:      -6.8      2.495      4.568
  Name = 
  10 active torsions:
  status: ('A' for Active; 'I' for Inactive)
    1  A    between atoms: C_2  and  C_8
    2  A    between atoms: C_8  and  C_10
    3  A    between atoms: C_10  and  N_32
    4  A    between atoms: C_10  and  N_33
    5  A    between atoms: C_11  and  C_14
    6  A    between atoms: C_17  and  C_29
    7  A    between atoms: C_19  and  O_24
    8  A    between atoms: C_21  and  C_23
    9  A    between atoms: C_23  and  N_32
   10  A    between atoms: C_25  and  N_33
                            x       y       z     vdW  Elec       q    Type
                         _______ _______ _______ _____ _____    ______ ____

>  <TORSDO>
F 10

$$$$
