=
 OpenBabel10222419123D

 64 74  0  0  1  0  0  0  0  0999 V2000
  183.1670  173.1360  136.9190 C   0  0  0  0  0  0  0  0  0  0  0  0
  181.9380  172.9330  137.3140 C   0  0  0  0  0  3  0  0  0  0  0  0
  189.5590  177.8710  136.3510 N   0  0  0  0  0  0  0  0  0  0  0  0
  185.2730  171.5450  135.1300 C   0  0  0  0  0  0  0  0  0  0  0  0
  187.1870  177.5110  136.6780 C   0  0  2  0  0  3  0  0  0  0  0  0
  188.3720  178.3790  136.9280 C   0  0  0  0  0  0  0  0  0  0  0  0
  184.2330  177.0180  135.6460 O   0  0  0  0  0  1  0  0  0  0  0  0
  185.8140  178.3260  138.6550 C   0  0  0  0  0  2  0  0  0  0  0  0
  184.4080  173.3460  136.5740 C   0  0  0  0  0  3  0  0  0  0  0  0
  187.2020  176.0390  134.5940 C   0  0  0  0  0  2  0  0  0  0  0  0
  186.4320  177.0880  137.9620 C   0  0  2  0  0  0  0  0  0  0  0  0
  182.0020  177.7500  138.0110 C   0  0  1  0  0  3  0  0  0  0  0  0
  188.3280  179.4880  137.5180 O   0  0  0  0  0  0  0  0  0  0  0  0
  186.4950  171.1040  135.1850 N   0  0  0  0  0  0  0  0  0  0  0  0
  180.3070  175.9750  136.4130 O   0  0  0  0  0  1  0  0  0  0  0  0
  186.0730  175.1210  134.7330 N   0  0  0  0  0  0  0  0  0  0  0  0
  183.5250  177.8680  137.7840 C   0  0  2  0  0  3  0  0  0  0  0  0
  187.4920  173.2590  135.1370 N   0  0  0  0  0  0  0  0  0  0  0  0
  179.8980  173.7650  138.1360 O   0  0  0  0  0  0  0  0  0  0  0  0
  184.9590  173.0230  135.2160 C   0  0  1  0  0  3  0  0  0  0  0  0
  184.2020  170.6110  135.0580 N   0  0  0  0  0  1  0  0  0  0  0  0
  181.3200  175.4560  137.2270 C   0  0  2  0  0  3  0  0  0  0  0  0
  187.3720  176.4180  138.9650 C   0  0  0  0  0  1  0  0  0  0  0  0
  187.8440  176.3190  135.9470 C   0  0  1  0  0  3  0  0  0  0  0  0
  184.0860  176.6890  136.9880 C   0  0  2  0  0  3  0  0  0  0  0  0
  181.0050  174.0380  137.6020 C   0  0  0  0  0  0  0  0  0  0  0  0
  186.1950  173.8530  134.9870 C   0  0  0  0  0  0  0  0  0  0  0  0
  187.6310  171.9740  135.2410 C   0  0  0  0  0  3  0  0  0  0  0  0
  185.3530  176.0670  137.5890 C   0  0  0  0  0  2  0  0  0  0  0  0
  181.5430  176.3450  138.4480 C   0  0  0  0  0  2  0  0  0  0  0  0
  184.3420  178.1440  139.0530 C   0  0  0  0  0  2  0  0  0  0  0  0
  189.2690  176.7520  135.7840 C   0  0  0  0  0  0  0  0  0  0  0  0
  179.8510  180.7340  142.6730 C   0  0  0  0  0  3  0  0  0  0  0  0
  180.1830  179.9400  143.6480 N   0  0  0  0  0  0  0  0  0  0  0  0
  180.5090  178.6970  139.8910 C   0  0  2  0  0  3  0  0  0  0  0  0
  180.5120  177.8280  140.9090 C   0  0  0  0  0  2  0  0  0  0  0  0
  181.4920  178.8220  138.8790 N   0  0  2  0  0  0  0  0  0  0  0  0
  181.5470  180.2420  138.5020 C   0  0  0  0  0  2  0  0  0  0  0  0
  179.8470  178.5710  141.9790 C   0  0  2  0  0  3  0  0  0  0  0  0
  179.5790  179.8980  141.5180 C   0  0  2  0  0  3  0  0  0  0  0  0
  180.0000  179.9760  140.2700 C   0  0  1  0  0  3  0  0  0  0  0  0
  180.2510  178.6070  143.2030 N   0  0  0  0  0  2  0  0  0  0  0  0
  180.7720  181.0350  139.5820 C   0  0  0  0  0  2  0  0  0  0  0  0
  190.4710  175.8680  134.7960 S   0  0  0  0  0  0  0  0  0  0  0  0
  192.4140  174.5010  136.1570 C   0  0  2  0  0  3  0  0  0  0  0  0
  191.7240  175.8500  136.1080 C   0  0  2  0  0  3  0  0  0  0  0  0
  191.2890  174.8230  137.1250 C   0  0  0  0  0  2  0  0  0  0  0  0
  194.6290  173.3750  136.8020 C   0  0  2  0  0  0  0  0  0  0  0  0
  194.8600  174.5770  135.8940 C   0  0  2  0  0  3  0  0  0  0  0  0
  194.4990  175.8690  136.5870 C   0  0  0  0  0  2  0  0  0  0  0  0
  193.7290  174.6100  136.9170 C   0  0  1  0  0  0  0  0  0  0  0  0
  195.4900  173.1900  138.0500 C   0  0  2  0  0  3  0  0  0  0  0  0
  194.6920  173.2690  139.1940 O   0  0  0  0  0  1  0  0  0  0  0  0
  197.9970  173.6290  137.7270 C   0  0  0  0  0  0  0  0  0  0  0  0
  198.9050  174.5510  136.9170 C   0  0  0  0  0  1  0  0  0  0  0  0
  198.1110  172.1280  137.4760 C   0  0  0  0  0  1  0  0  0  0  0  0
  196.6290  174.2290  138.0640 C   0  0  2  0  0  3  0  0  0  0  0  0
  197.6590  173.9970  139.1680 C   0  0  2  0  0  3  0  0  0  0  0  0
  197.8110  175.6330  141.0320 C   0  0  0  0  0  1  0  0  0  0  0  0
  198.2240  175.3450  139.6040 C   0  0  0  0  0  2  0  0  0  0  0  0
  193.9660  172.2400  136.2790 O   0  0  0  0  0  0  0  0  0  0  0  0
  195.7250  170.9910  135.2930 C   0  0  0  0  0  1  0  0  0  0  0  0
  194.7780  171.1140  136.4750 C   0  0  0  0  0  3  0  0  0  0  0  0
  193.9180  169.8650  136.5240 C   0  0  0  0  0  1  0  0  0  0  0  0
  1  2  2  0  0  0  0
  2 26  1  0  0  0  0
  3  6  1  0  0  0  0
  4 14  2  0  0  0  0
  4 20  1  0  0  0  0
  5  6  1  1  0  0  0
  5 11  1  0  0  0  0
  6 13  2  0  0  0  0
  8 31  1  0  0  0  0
  9  1  2  0  0  0  0
 10 16  1  0  0  0  0
 11  8  1  0  0  0  0
 11 23  1  1  0  0  0
 12 30  1  1  0  0  0
 12 37  1  0  0  0  0
 14 28  1  0  0  0  0
 16 27  2  0  0  0  0
 17 12  1  0  0  0  0
 17 31  1  1  0  0  0
 18 28  2  0  0  0  0
 20  9  1  1  0  0  0
 21  4  1  0  0  0  0
 22 15  1  1  0  0  0
 22 26  1  0  0  0  0
 22 30  1  0  0  0  0
 24 10  1  6  0  0  0
 24  5  1  0  0  0  0
 25  7  1  6  0  0  0
 25 29  1  0  0  0  0
 25 17  1  0  0  0  0
 26 19  2  0  0  0  0
 27 18  1  0  0  0  0
 27 20  1  0  0  0  0
 29 11  1  0  0  0  0
 32 24  1  0  0  0  0
 32  3  2  0  0  0  0
 33 34  2  0  0  0  0
 35 41  1  0  0  0  0
 35 36  1  1  0  0  0
 37 38  1  6  0  0  0
 37 35  1  0  0  0  0
 38 43  1  0  0  0  0
 39 36  1  6  0  0  0
 39 42  1  0  0  0  0
 40 39  1  0  0  0  0
 40 33  1  1  0  0  0
 41 43  1  1  0  0  0
 41 40  1  0  0  0  0
 42 34  1  0  0  0  0
 44 32  1  0  0  0  0
 45 51  1  0  0  0  0
 45 47  1  1  0  0  0
 46 44  1  6  0  0  0
 46 45  1  0  0  0  0
 46 47  1  0  0  0  0
 48 61  1  6  0  0  0
 48 51  1  0  0  0  0
 48 52  1  0  0  0  0
 49 50  1  1  0  0  0
 49 48  1  0  0  0  0
 49 51  1  0  0  0  0
 51 50  1  1  0  0  0
 52 53  1  1  0  0  0
 54 57  1  0  0  0  0
 54 58  1  0  0  0  0
 55 54  1  0  0  0  0
 56 54  1  0  0  0  0
 57 52  1  1  0  0  0
 57 58  1  0  0  0  0
 58 60  1  6  0  0  0
 60 59  1  0  0  0  0
 61 63  1  0  0  0  0
 62 63  1  0  0  0  0
 63 64  1  0  0  0  0
M  END
>  <MODEL>
1

>  <REMARK>
 VINA RESULT:      -5.3      0.000      0.000
  Name = 
  9 active torsions:
  status: ('A' for Active; 'I' for Inactive)
    1  A    between atoms: O_6  and  C_19
    2  A    between atoms: O_6  and  C_21
    3  A    between atoms: C_14  and  C_19
    4  A    between atoms: C_14  and  C_57
    5  A    between atoms: C_22  and  N_30
    6  A    between atoms: C_24  and  C_51
    7  A    between atoms: C_41  and  C_64
    8  A    between atoms: S_52  and  C_60
    9  A    between atoms: S_52  and  C_63
                            x       y       z     vdW  Elec       q    Type
                         _______ _______ _______ _____ _____    ______ ____

>  <TORSDO>
F 9

$$$$
