=
 OpenBabel10222415363D

 40 42  0  0  1  0  0  0  0  0999 V2000
  185.0110  178.4960  141.1890 N   0  0  0  0  0  0  0  0  0  0  0  0
  182.3080  179.0490  141.1290 C   0  0  0  0  0  0  0  0  0  0  0  0
  184.5190  178.8140  140.0260 C   0  0  0  0  0  0  0  0  0  0  0  0
  184.1570  178.0580  142.2900 C   0  0  2  0  0  3  0  0  0  0  0  0
  182.8640  178.7150  142.2450 N   0  0  0  0  0  0  0  0  0  0  0  0
  182.6370  179.8550  138.7750 C   0  0  0  0  0  1  0  0  0  0  0  0
  183.0250  178.8080  139.8120 C   0  0  2  0  0  3  0  0  0  0  0  0
  186.0040  177.6900  143.9110 N   0  0  0  0  0  0  0  0  0  0  0  0
  186.4370  178.0390  145.1380 C   0  0  0  0  0  0  0  0  0  0  0  0
  185.3750  179.1160  145.8700 S   0  0  0  0  0  0  0  0  0  0  0  0
  184.8240  178.2970  143.6020 C   0  0  0  0  0  0  0  0  0  0  0  0
  184.2940  179.1460  144.5790 C   0  0  0  0  0  3  0  0  0  0  0  0
  187.7800  177.8600  147.2040 C   0  0  0  0  0  1  0  0  0  0  0  0
  187.7230  177.5460  145.7220 C   0  0  2  0  0  3  0  0  0  0  0  0
  191.3770  179.3060  144.0900 C   0  0  0  0  0  1  0  0  0  0  0  0
  190.4270  175.8440  142.7200 C   0  0  0  0  0  2  0  0  0  0  0  0
  190.5950  178.2700  143.4350 N   0  0  0  0  0  0  0  0  0  0  0  0
  189.2080  176.2570  143.5400 C   0  0  0  0  0  2  0  0  0  0  0  0
  188.8570  178.1670  145.0460 N   0  0  0  0  0  0  0  0  0  0  0  0
  191.2500  177.3530  142.0860 S   0  0  0  0  0  0  0  0  0  0  0  0
  189.5160  177.6100  144.0740 C   0  0  0  0  0  0  0  0  0  0  0  0
  180.2380  179.0960  142.2790 O   0  0  0  0  0  1  0  0  0  0  0  0
  180.9090  179.5810  141.1550 C   0  0  0  0  0  2  0  0  0  0  0  0
  185.3730  179.1520  138.9670 O   0  0  0  0  0  0  0  0  0  0  0  0
  185.7270  178.2350  137.9350 C   0  0  0  0  0  2  0  0  0  0  0  0
  187.1930  177.8430  138.0470 C   0  0  0  0  0  2  0  0  0  0  0  0
  187.8490  178.6580  139.0580 N   0  0  0  0  0  2  0  0  0  0  0  0
  189.2690  178.6560  138.7500 C   0  0  0  0  0  2  0  0  0  0  0  0
  189.6090  177.4260  137.9250 C   0  0  0  0  0  2  0  0  0  0  0  0
  190.8140  176.7970  138.4410 N   0  0  0  0  0  2  0  0  0  0  0  0
  191.6380  176.4500  137.2930 C   0  0  0  0  0  2  0  0  0  0  0  0
  193.2400  176.9370  138.9880 O   0  0  0  0  0  1  0  0  0  0  0  0
  193.1090  176.4830  137.6750 C   0  0  1  0  0  3  0  0  0  0  0  0
  192.9980  174.1050  137.4770 O   0  0  0  0  0  0  0  0  0  0  0  0
  193.7300  175.1300  137.5400 C   0  0  0  0  0  0  0  0  0  0  0  0
  195.1200  175.0260  137.4700 O   0  0  0  0  0  0  0  0  0  0  0  0
  195.6520  172.9170  138.9730 O   0  0  0  0  0  1  0  0  0  0  0  0
  195.8100  175.2490  140.1630 O   0  0  0  0  0  1  0  0  0  0  0  0
  196.0590  174.3570  138.7480 P   0  0  0  0  0  0  0  0  0  0  0  0
  197.6950  174.4150  138.3310 O   0  0  0  0  0  0  0  0  0  0  0  0
  1  4  1  0  0  0  0
  2 23  1  0  0  0  0
  2  5  2  0  0  0  0
  3  1  2  0  0  0  0
  4 11  1  1  0  0  0
  5  4  1  0  0  0  0
  7  6  1  6  0  0  0
  7  3  1  0  0  0  0
  7  2  1  0  0  0  0
  8  9  2  0  0  0  0
  9 14  1  0  0  0  0
  9 10  1  0  0  0  0
 11  8  1  0  0  0  0
 11 12  2  0  0  0  0
 12 10  1  0  0  0  0
 14 13  1  1  0  0  0
 16 18  1  0  0  0  0
 17 21  1  0  0  0  0
 17 15  1  0  0  0  0
 18 21  1  0  0  0  0
 19 14  1  0  0  0  0
 20 16  1  0  0  0  0
 20 17  1  0  0  0  0
 21 19  2  0  0  0  0
 23 22  1  0  0  0  0
 24  3  1  0  0  0  0
 25 26  1  0  0  0  0
 25 24  1  0  0  0  0
 26 27  1  0  0  0  0
 28 27  1  0  0  0  0
 29 30  1  0  0  0  0
 29 28  1  0  0  0  0
 31 33  1  0  0  0  0
 31 30  1  0  0  0  0
 33 32  1  1  0  0  0
 34 35  2  0  0  0  0
 35 33  1  0  0  0  0
 36 35  1  0  0  0  0
 36 39  1  0  0  0  0
 39 37  1  0  0  0  0
 39 38  1  0  0  0  0
 40 39  2  0  0  0  0
M  END
>  <MODEL>
1

>  <REMARK>
 VINA RESULT:      -7.5      0.000      0.000
  Name = 
  16 active torsions:
  status: ('A' for Active; 'I' for Inactive)
    1  A    between atoms: C_3  and  N_20
    2  A    between atoms: C_3  and  C_39
    3  A    between atoms: C_9  and  C_40
    4  A    between atoms: CA_10  and  C_22
    5  A    between atoms: C_11  and  C_18
    6  A    between atoms: C_11  and  C_19
    7  A    between atoms: O_13  and  C_18
    8  A    between atoms: O_13  and  P_29
    9  A    between atoms: N_17  and  C_19
   10  A    between atoms: N_17  and  C_34
   11  A    between atoms: N_20  and  C_32
   12  A    between atoms: C_23  and  O_36
   13  A    between atoms: C_24  and  C_25
   14  A    between atoms: N_30  and  C_40
   15  A    between atoms: C_32  and  C_34
   16  A    between atoms: O_36  and  C_39
                            x       y       z     vdW  Elec       q    Type
                         _______ _______ _______ _____ _____    ______ ____

>  <TORSDO>
F 16

$$$$
=
 OpenBabel10222415363D

 40 42  0  0  1  0  0  0  0  0999 V2000
  187.0260  177.7940  143.6160 N   0  0  0  0  0  0  0  0  0  0  0  0
  187.6920  177.3410  146.2550 C   0  0  0  0  0  0  0  0  0  0  0  0
  186.1460  178.1690  144.4990 C   0  0  0  0  0  0  0  0  0  0  0  0
  188.0850  176.8420  143.9430 C   0  0  2  0  0  3  0  0  0  0  0  0
  188.5110  176.9850  145.3230 N   0  0  0  0  0  0  0  0  0  0  0  0
  185.6920  178.7210  146.8820 C   0  0  0  0  0  1  0  0  0  0  0  0
  186.2490  177.6770  145.9220 C   0  0  2  0  0  3  0  0  0  0  0  0
  189.0520  177.1460  141.6750 N   0  0  0  0  0  0  0  0  0  0  0  0
  190.2200  177.2750  141.0160 C   0  0  0  0  0  0  0  0  0  0  0  0
  191.5200  177.2240  142.0800 S   0  0  0  0  0  0  0  0  0  0  0  0
  189.2420  177.0010  143.0150 C   0  0  0  0  0  0  0  0  0  0  0  0
  190.5700  177.0160  143.4540 C   0  0  0  0  0  3  0  0  0  0  0  0
  189.1210  178.2850  139.0480 C   0  0  0  0  0  1  0  0  0  0  0  0
  190.3090  177.4810  139.5380 C   0  0  2  0  0  3  0  0  0  0  0  0
  190.1620  173.8350  137.1300 C   0  0  0  0  0  1  0  0  0  0  0  0
  193.4760  175.7770  137.0300 C   0  0  0  0  0  2  0  0  0  0  0  0
  191.3840  174.4640  137.6030 N   0  0  0  0  0  0  0  0  0  0  0  0
  192.6840  176.4680  138.1360 C   0  0  0  0  0  2  0  0  0  0  0  0
  190.3470  176.1950  138.8490 N   0  0  0  0  0  0  0  0  0  0  0  0
  192.9500  174.0250  136.9340 S   0  0  0  0  0  0  0  0  0  0  0  0
  191.3940  175.7330  138.2330 C   0  0  0  0  0  0  0  0  0  0  0  0
  189.1560  178.2820  147.8610 O   0  0  0  0  0  1  0  0  0  0  0  0
  188.1660  177.3160  147.6750 C   0  0  0  0  0  2  0  0  0  0  0  0
  185.0940  179.0200  144.1300 O   0  0  0  0  0  0  0  0  0  0  0  0
  183.9530  178.5710  143.4040 C   0  0  0  0  0  2  0  0  0  0  0  0
  182.6850  178.7820  144.2180 C   0  0  0  0  0  2  0  0  0  0  0  0
  181.6530  179.3790  143.3850 N   0  0  0  0  0  2  0  0  0  0  0  0
  181.6540  178.6550  142.1240 C   0  0  0  0  0  2  0  0  0  0  0  0
  180.7870  179.3900  141.1160 C   0  0  0  0  0  2  0  0  0  0  0  0
  181.4290  179.3890  139.8110 N   0  0  0  0  0  2  0  0  0  0  0  0
  182.7780  178.8800  140.0010 C   0  0  0  0  0  2  0  0  0  0  0  0
  184.5250  180.2120  139.0790 O   0  0  0  0  0  1  0  0  0  0  0  0
  183.6300  179.1840  138.7790 C   0  0  1  0  0  3  0  0  0  0  0  0
  183.8100  176.8450  138.3260 O   0  0  0  0  0  0  0  0  0  0  0  0
  184.3790  177.9710  138.3310 C   0  0  0  0  0  0  0  0  0  0  0  0
  185.7020  178.1090  137.9070 O   0  0  0  0  0  0  0  0  0  0  0  0
  186.8520  176.0000  136.8010 O   0  0  0  0  0  1  0  0  0  0  0  0
  187.5000  178.3300  135.7870 O   0  0  0  0  0  1  0  0  0  0  0  0
  186.2910  177.3660  136.4700 P   0  0  0  0  0  0  0  0  0  0  0  0
  185.0220  177.1940  135.3680 O   0  0  0  0  0  0  0  0  0  0  0  0
  1  4  1  0  0  0  0
  1  3  2  0  0  0  0
  2 23  1  0  0  0  0
  3  7  1  0  0  0  0
  4 11  1  6  0  0  0
  4  5  1  0  0  0  0
  5  2  2  0  0  0  0
  7  2  1  0  0  0  0
  7  6  1  1  0  0  0
  8 11  1  0  0  0  0
  9  8  2  0  0  0  0
  9 10  1  0  0  0  0
 10 12  1  0  0  0  0
 11 12  2  0  0  0  0
 14 13  1  6  0  0  0
 14  9  1  0  0  0  0
 15 17  1  0  0  0  0
 16 18  1  0  0  0  0
 17 21  1  0  0  0  0
 18 21  1  0  0  0  0
 19 14  1  0  0  0  0
 20 16  1  0  0  0  0
 20 17  1  0  0  0  0
 21 19  2  0  0  0  0
 23 22  1  0  0  0  0
 24  3  1  0  0  0  0
 25 24  1  0  0  0  0
 25 26  1  0  0  0  0
 27 26  1  0  0  0  0
 28 27  1  0  0  0  0
 29 28  1  0  0  0  0
 30 31  1  0  0  0  0
 30 29  1  0  0  0  0
 33 32  1  1  0  0  0
 33 31  1  0  0  0  0
 34 35  2  0  0  0  0
 35 33  1  0  0  0  0
 36 35  1  0  0  0  0
 38 39  1  0  0  0  0
 39 37  1  0  0  0  0
 39 36  1  0  0  0  0
 40 39  2  0  0  0  0
M  END
>  <MODEL>
2

>  <REMARK>
 VINA RESULT:      -7.3      4.259      8.044
  Name = 
  16 active torsions:
  status: ('A' for Active; 'I' for Inactive)
    1  A    between atoms: C_3  and  N_20
    2  A    between atoms: C_3  and  C_39
    3  A    between atoms: C_9  and  C_40
    4  A    between atoms: CA_10  and  C_22
    5  A    between atoms: C_11  and  C_18
    6  A    between atoms: C_11  and  C_19
    7  A    between atoms: O_13  and  C_18
    8  A    between atoms: O_13  and  P_29
    9  A    between atoms: N_17  and  C_19
   10  A    between atoms: N_17  and  C_34
   11  A    between atoms: N_20  and  C_32
   12  A    between atoms: C_23  and  O_36
   13  A    between atoms: C_24  and  C_25
   14  A    between atoms: N_30  and  C_40
   15  A    between atoms: C_32  and  C_34
   16  A    between atoms: O_36  and  C_39
                            x       y       z     vdW  Elec       q    Type
                         _______ _______ _______ _____ _____    ______ ____

>  <TORSDO>
F 16

$$$$
=
 OpenBabel10222415363D

 40 42  0  0  1  0  0  0  0  0999 V2000
  187.6560  177.4840  144.9110 N   0  0  0  0  0  0  0  0  0  0  0  0
  190.2710  176.9970  145.6490 C   0  0  0  0  0  0  0  0  0  0  0  0
  187.9080  177.5370  146.1870 C   0  0  0  0  0  0  0  0  0  0  0  0
  188.5620  176.8190  143.9770 C   0  0  2  0  0  3  0  0  0  0  0  0
  189.9430  176.9500  144.4010 N   0  0  0  0  0  0  0  0  0  0  0  0
  189.6420  177.7450  147.9610 C   0  0  0  0  0  1  0  0  0  0  0  0
  189.1990  176.9700  146.7260 C   0  0  2  0  0  3  0  0  0  0  0  0
  189.3650  177.2380  141.6630 N   0  0  0  0  0  0  0  0  0  0  0  0
  189.0020  177.7830  140.4850 C   0  0  0  0  0  0  0  0  0  0  0  0
  187.4470  178.4140  140.5660 S   0  0  0  0  0  0  0  0  0  0  0  0
  188.3810  177.3540  142.5960 C   0  0  0  0  0  0  0  0  0  0  0  0
  187.2080  177.9920  142.1790 C   0  0  0  0  0  3  0  0  0  0  0  0
  189.3700  178.7650  138.2480 C   0  0  0  0  0  1  0  0  0  0  0  0
  189.8780  177.7700  139.2730 C   0  0  2  0  0  3  0  0  0  0  0  0
  189.7400  173.9570  137.1400 C   0  0  0  0  0  1  0  0  0  0  0  0
  193.1210  175.7820  137.0930 C   0  0  0  0  0  2  0  0  0  0  0  0
  190.9550  174.5820  137.6360 N   0  0  0  0  0  0  0  0  0  0  0  0
  192.2920  176.5800  138.0960 C   0  0  0  0  0  2  0  0  0  0  0  0
  189.9100  176.4350  138.6860 N   0  0  0  0  0  0  0  0  0  0  0  0
  192.5400  174.0450  137.0970 S   0  0  0  0  0  0  0  0  0  0  0  0
  190.9740  175.8950  138.1700 C   0  0  0  0  0  0  0  0  0  0  0  0
  192.0650  175.7280  146.5310 O   0  0  0  0  0  1  0  0  0  0  0  0
  191.7230  176.9770  146.0110 C   0  0  0  0  0  2  0  0  0  0  0  0
  186.9790  178.1110  147.0670 O   0  0  0  0  0  0  0  0  0  0  0  0
  186.0010  179.0580  146.6500 C   0  0  0  0  0  2  0  0  0  0  0  0
  184.6310  178.4040  146.5490 C   0  0  0  0  0  2  0  0  0  0  0  0
  183.8420  179.0580  145.5170 N   0  0  0  0  0  2  0  0  0  0  0  0
  184.1740  178.4130  144.2570 C   0  0  0  0  0  2  0  0  0  0  0  0
  183.2310  178.9050  143.1710 C   0  0  0  0  0  2  0  0  0  0  0  0
  183.9750  179.1860  141.9540 N   0  0  0  0  0  2  0  0  0  0  0  0
  183.4880  178.2690  140.9350 C   0  0  0  0  0  2  0  0  0  0  0  0
  184.4770  179.9360  139.5500 O   0  0  0  0  0  1  0  0  0  0  0  0
  183.4920  178.9470  139.5740 C   0  0  1  0  0  3  0  0  0  0  0  0
  182.7630  177.3850  137.9210 O   0  0  0  0  0  0  0  0  0  0  0  0
  183.7370  177.9580  138.4820 C   0  0  0  0  0  0  0  0  0  0  0  0
  185.0500  177.6950  138.0870 O   0  0  0  0  0  0  0  0  0  0  0  0
  184.8600  177.2210  135.4930 O   0  0  0  0  0  0  0  0  0  0  0  0
  184.7550  175.1200  137.0570 O   0  0  0  0  0  1  0  0  0  0  0  0
  185.4240  176.6470  136.7730 P   0  0  0  0  0  0  0  0  0  0  0  0
  187.1010  176.5050  136.6290 O   0  0  0  0  0  1  0  0  0  0  0  0
  1  3  2  0  0  0  0
  2 23  1  0  0  0  0
  2  7  1  0  0  0  0
  3  7  1  0  0  0  0
  3 24  1  0  0  0  0
  4 11  1  6  0  0  0
  4  5  1  0  0  0  0
  4  1  1  0  0  0  0
  5  2  2  0  0  0  0
  7  6  1  1  0  0  0
  8 11  1  0  0  0  0
  9 10  1  0  0  0  0
  9  8  2  0  0  0  0
 10 12  1  0  0  0  0
 12 11  2  0  0  0  0
 14 13  1  6  0  0  0
 14  9  1  0  0  0  0
 15 17  1  0  0  0  0
 16 20  1  0  0  0  0
 16 18  1  0  0  0  0
 17 21  1  0  0  0  0
 18 21  1  0  0  0  0
 19 14  1  0  0  0  0
 20 17  1  0  0  0  0
 21 19  2  0  0  0  0
 23 22  1  0  0  0  0
 25 24  1  0  0  0  0
 26 25  1  0  0  0  0
 27 26  1  0  0  0  0
 28 27  1  0  0  0  0
 29 28  1  0  0  0  0
 30 29  1  0  0  0  0
 31 30  1  0  0  0  0
 33 32  1  1  0  0  0
 33 31  1  0  0  0  0
 34 35  2  0  0  0  0
 35 33  1  0  0  0  0
 36 35  1  0  0  0  0
 37 39  2  0  0  0  0
 39 38  1  0  0  0  0
 39 36  1  0  0  0  0
 40 39  1  0  0  0  0
M  END
>  <MODEL>
3

>  <REMARK>
 VINA RESULT:      -7.2      4.076      8.590
  Name = 
  16 active torsions:
  status: ('A' for Active; 'I' for Inactive)
    1  A    between atoms: C_3  and  N_20
    2  A    between atoms: C_3  and  C_39
    3  A    between atoms: C_9  and  C_40
    4  A    between atoms: CA_10  and  C_22
    5  A    between atoms: C_11  and  C_18
    6  A    between atoms: C_11  and  C_19
    7  A    between atoms: O_13  and  C_18
    8  A    between atoms: O_13  and  P_29
    9  A    between atoms: N_17  and  C_19
   10  A    between atoms: N_17  and  C_34
   11  A    between atoms: N_20  and  C_32
   12  A    between atoms: C_23  and  O_36
   13  A    between atoms: C_24  and  C_25
   14  A    between atoms: N_30  and  C_40
   15  A    between atoms: C_32  and  C_34
   16  A    between atoms: O_36  and  C_39
                            x       y       z     vdW  Elec       q    Type
                         _______ _______ _______ _____ _____    ______ ____

>  <TORSDO>
F 16

$$$$
=
 OpenBabel10222415363D

 40 42  0  0  1  0  0  0  0  0999 V2000
  187.0060  177.7590  143.7260 N   0  0  0  0  0  0  0  0  0  0  0  0
  187.8510  177.4940  146.3400 C   0  0  0  0  0  0  0  0  0  0  0  0
  186.1570  178.1290  144.6400 C   0  0  0  0  0  0  0  0  0  0  0  0
  188.1410  176.8920  144.0370 C   0  0  2  0  0  3  0  0  0  0  0  0
  188.6350  177.1360  145.3790 N   0  0  0  0  0  0  0  0  0  0  0  0
  185.8070  178.7850  147.0150 C   0  0  0  0  0  1  0  0  0  0  0  0
  186.3720  177.7240  146.0780 C   0  0  2  0  0  3  0  0  0  0  0  0
  188.9470  177.2190  141.7100 N   0  0  0  0  0  0  0  0  0  0  0  0
  190.0660  177.3640  140.9750 C   0  0  0  0  0  0  0  0  0  0  0  0
  191.4370  177.3170  141.9460 S   0  0  0  0  0  0  0  0  0  0  0  0
  189.2290  177.0670  143.0330 C   0  0  0  0  0  0  0  0  0  0  0  0
  190.5850  177.0910  143.3810 C   0  0  0  0  0  3  0  0  0  0  0  0
  188.7700  178.2760  139.0790 C   0  0  0  0  0  1  0  0  0  0  0  0
  190.0520  177.5800  139.4950 C   0  0  2  0  0  3  0  0  0  0  0  0
  190.1620  173.9690  137.0350 C   0  0  0  0  0  1  0  0  0  0  0  0
  193.4520  175.9410  137.2650 C   0  0  0  0  0  2  0  0  0  0  0  0
  191.3300  174.6020  137.6260 N   0  0  0  0  0  0  0  0  0  0  0  0
  192.5550  176.6090  138.3030 C   0  0  0  0  0  2  0  0  0  0  0  0
  190.1660  176.3060  138.7950 N   0  0  0  0  0  0  0  0  0  0  0  0
  192.9540  174.1860  137.0970 S   0  0  0  0  0  0  0  0  0  0  0  0
  191.2690  175.8610  138.2720 C   0  0  0  0  0  0  0  0  0  0  0  0
  189.7440  177.1760  147.7270 O   0  0  0  0  0  1  0  0  0  0  0  0
  188.4070  177.5770  147.7270 C   0  0  0  0  0  2  0  0  0  0  0  0
  185.0340  178.8940  144.2930 O   0  0  0  0  0  0  0  0  0  0  0  0
  184.0250  178.4270  143.4020 C   0  0  0  0  0  2  0  0  0  0  0  0
  182.6560  178.9340  143.8320 C   0  0  0  0  0  2  0  0  0  0  0  0
  181.8190  179.1560  142.6630 N   0  0  0  0  0  2  0  0  0  0  0  0
  180.4910  178.6660  142.9920 C   0  0  0  0  0  2  0  0  0  0  0  0
  179.9140  177.9220  141.7990 C   0  0  0  0  0  2  0  0  0  0  0  0
  179.3640  178.8670  140.8400 N   0  0  0  0  0  2  0  0  0  0  0  0
  179.9180  178.5250  139.5390 C   0  0  0  0  0  2  0  0  0  0  0  0
  180.6180  180.7880  139.7940 O   0  0  0  0  0  1  0  0  0  0  0  0
  180.4480  179.7730  138.8510 C   0  0  1  0  0  3  0  0  0  0  0  0
  181.7510  178.8990  137.0490 O   0  0  0  0  0  0  0  0  0  0  0  0
  181.7440  179.4960  138.1610 C   0  0  0  0  0  0  0  0  0  0  0  0
  182.9330  179.9210  138.7550 O   0  0  0  0  0  0  0  0  0  0  0  0
  183.4450  177.6570  140.0220 O   0  0  0  0  0  1  0  0  0  0  0  0
  185.1600  179.6030  140.4030 O   0  0  0  0  0  1  0  0  0  0  0  0
  184.1240  178.8150  139.3250 P   0  0  0  0  0  0  0  0  0  0  0  0
  185.0180  178.2300  138.0160 O   0  0  0  0  0  0  0  0  0  0  0  0
  1  4  1  0  0  0  0
  1  3  2  0  0  0  0
  2 23  1  0  0  0  0
  3  7  1  0  0  0  0
  4 11  1  6  0  0  0
  4  5  1  0  0  0  0
  5  2  2  0  0  0  0
  7  2  1  0  0  0  0
  7  6  1  1  0  0  0
  8 11  1  0  0  0  0
  9  8  2  0  0  0  0
  9 10  1  0  0  0  0
 10 12  1  0  0  0  0
 11 12  2  0  0  0  0
 14 13  1  6  0  0  0
 14  9  1  0  0  0  0
 15 17  1  0  0  0  0
 16 18  1  0  0  0  0
 17 21  1  0  0  0  0
 19 14  1  0  0  0  0
 20 16  1  0  0  0  0
 20 17  1  0  0  0  0
 21 18  1  0  0  0  0
 21 19  2  0  0  0  0
 23 22  1  0  0  0  0
 24  3  1  0  0  0  0
 25 26  1  0  0  0  0
 25 24  1  0  0  0  0
 27 28  1  0  0  0  0
 27 26  1  0  0  0  0
 29 28  1  0  0  0  0
 30 29  1  0  0  0  0
 31 30  1  0  0  0  0
 33 31  1  0  0  0  0
 33 32  1  1  0  0  0
 34 35  2  0  0  0  0
 35 36  1  0  0  0  0
 35 33  1  0  0  0  0
 36 39  1  0  0  0  0
 39 37  1  0  0  0  0
 39 38  1  0  0  0  0
 40 39  2  0  0  0  0
M  END
>  <MODEL>
4

>  <REMARK>
 VINA RESULT:      -7.2      4.943      9.028
  Name = 
  16 active torsions:
  status: ('A' for Active; 'I' for Inactive)
    1  A    between atoms: C_3  and  N_20
    2  A    between atoms: C_3  and  C_39
    3  A    between atoms: C_9  and  C_40
    4  A    between atoms: CA_10  and  C_22
    5  A    between atoms: C_11  and  C_18
    6  A    between atoms: C_11  and  C_19
    7  A    between atoms: O_13  and  C_18
    8  A    between atoms: O_13  and  P_29
    9  A    between atoms: N_17  and  C_19
   10  A    between atoms: N_17  and  C_34
   11  A    between atoms: N_20  and  C_32
   12  A    between atoms: C_23  and  O_36
   13  A    between atoms: C_24  and  C_25
   14  A    between atoms: N_30  and  C_40
   15  A    between atoms: C_32  and  C_34
   16  A    between atoms: O_36  and  C_39
                            x       y       z     vdW  Elec       q    Type
                         _______ _______ _______ _____ _____    ______ ____

>  <TORSDO>
F 16

$$$$
=
 OpenBabel10222415363D

 40 42  0  0  1  0  0  0  0  0999 V2000
  185.0440  179.1020  141.5680 N   0  0  0  0  0  0  0  0  0  0  0  0
  182.3220  178.6500  141.5570 C   0  0  0  0  0  0  0  0  0  0  0  0
  184.4500  179.1700  142.7240 C   0  0  0  0  0  0  0  0  0  0  0  0
  184.2980  179.1950  140.3140 C   0  0  2  0  0  3  0  0  0  0  0  0
  182.9770  178.6110  140.4460 N   0  0  0  0  0  0  0  0  0  0  0  0
  182.4310  178.6050  144.0640 C   0  0  0  0  0  1  0  0  0  0  0  0
  182.9460  179.2720  142.7950 C   0  0  2  0  0  3  0  0  0  0  0  0
  186.4140  178.5750  139.1690 N   0  0  0  0  0  0  0  0  0  0  0  0
  186.8990  177.9360  138.0860 C   0  0  0  0  0  0  0  0  0  0  0  0
  185.6530  177.3130  137.1460 S   0  0  0  0  0  0  0  0  0  0  0  0
  185.0530  178.5490  139.2020 C   0  0  0  0  0  0  0  0  0  0  0  0
  184.4230  177.8840  138.1450 C   0  0  0  0  0  3  0  0  0  0  0  0
  188.9160  179.0530  137.1990 C   0  0  0  0  0  1  0  0  0  0  0  0
  188.3600  177.7830  137.8130 C   0  0  2  0  0  3  0  0  0  0  0  0
  189.2190  174.7410  134.7920 C   0  0  0  0  0  1  0  0  0  0  0  0
  191.7140  174.9590  137.7070 C   0  0  0  0  0  2  0  0  0  0  0  0
  189.7240  174.7170  136.1560 N   0  0  0  0  0  0  0  0  0  0  0  0
  190.5710  175.8750  138.1380 C   0  0  0  0  0  2  0  0  0  0  0  0
  188.5920  176.6610  136.9100 N   0  0  0  0  0  0  0  0  0  0  0  0
  191.0410  173.6480  136.6190 S   0  0  0  0  0  0  0  0  0  0  0  0
  189.5610  175.8050  137.0490 C   0  0  0  0  0  0  0  0  0  0  0  0
  180.2410  178.6010  140.4260 O   0  0  0  0  0  1  0  0  0  0  0  0
  180.9060  178.1640  141.5730 C   0  0  0  0  0  2  0  0  0  0  0  0
  185.2040  179.1590  143.9060 O   0  0  0  0  0  0  0  0  0  0  0  0
  185.8430  177.9890  144.4060 C   0  0  0  0  0  2  0  0  0  0  0  0
  185.7050  177.9080  145.9190 C   0  0  0  0  0  2  0  0  0  0  0  0
  186.8540  178.5320  146.5570 N   0  0  0  0  0  2  0  0  0  0  0  0
  187.7490  177.4600  146.9620 C   0  0  0  0  0  2  0  0  0  0  0  0
  188.6990  177.9690  148.0330 C   0  0  0  0  0  2  0  0  0  0  0  0
  190.0380  177.4540  147.7970 N   0  0  0  0  0  2  0  0  0  0  0  0
  190.0130  176.7760  146.5100 C   0  0  0  0  0  2  0  0  0  0  0  0
  191.8570  175.9780  145.2310 O   0  0  0  0  0  1  0  0  0  0  0  0
  191.2460  177.1410  145.7000 C   0  0  1  0  0  3  0  0  0  0  0  0
  191.7590  178.8030  144.0620 O   0  0  0  0  0  0  0  0  0  0  0  0
  190.8920  178.0300  144.5530 C   0  0  0  0  0  0  0  0  0  0  0  0
  189.5990  177.9760  144.0280 O   0  0  0  0  0  0  0  0  0  0  0  0
  188.3580  175.7860  143.2200 O   0  0  0  0  0  1  0  0  0  0  0  0
  190.5890  176.3710  141.9730 O   0  0  0  0  0  1  0  0  0  0  0  0
  189.1820  176.9480  142.7120 P   0  0  0  0  0  0  0  0  0  0  0  0
  188.2760  177.8210  141.5840 O   0  0  0  0  0  0  0  0  0  0  0  0
  1  3  2  0  0  0  0
  2 23  1  0  0  0  0
  2  7  1  0  0  0  0
  3  7  1  0  0  0  0
  3 24  1  0  0  0  0
  4 11  1  6  0  0  0
  4  5  1  0  0  0  0
  4  1  1  0  0  0  0
  5  2  2  0  0  0  0
  7  6  1  1  0  0  0
  8 11  1  0  0  0  0
  9  8  2  0  0  0  0
 10  9  1  0  0  0  0
 10 12  1  0  0  0  0
 12 11  2  0  0  0  0
 14 13  1  6  0  0  0
 14  9  1  0  0  0  0
 15 17  1  0  0  0  0
 16 18  1  0  0  0  0
 17 20  1  0  0  0  0
 17 21  1  0  0  0  0
 19 21  2  0  0  0  0
 19 14  1  0  0  0  0
 20 16  1  0  0  0  0
 21 18  1  0  0  0  0
 22 23  1  0  0  0  0
 24 25  1  0  0  0  0
 25 26  1  0  0  0  0
 26 27  1  0  0  0  0
 27 28  1  0  0  0  0
 28 29  1  0  0  0  0
 30 29  1  0  0  0  0
 31 30  1  0  0  0  0
 33 32  1  6  0  0  0
 33 31  1  0  0  0  0
 34 35  2  0  0  0  0
 35 33  1  0  0  0  0
 36 35  1  0  0  0  0
 38 39  1  0  0  0  0
 39 37  1  0  0  0  0
 39 36  1  0  0  0  0
 40 39  2  0  0  0  0
M  END
>  <MODEL>
5

>  <REMARK>
 VINA RESULT:      -7.0      3.719      7.071
  Name = 
  16 active torsions:
  status: ('A' for Active; 'I' for Inactive)
    1  A    between atoms: C_3  and  N_20
    2  A    between atoms: C_3  and  C_39
    3  A    between atoms: C_9  and  C_40
    4  A    between atoms: CA_10  and  C_22
    5  A    between atoms: C_11  and  C_18
    6  A    between atoms: C_11  and  C_19
    7  A    between atoms: O_13  and  C_18
    8  A    between atoms: O_13  and  P_29
    9  A    between atoms: N_17  and  C_19
   10  A    between atoms: N_17  and  C_34
   11  A    between atoms: N_20  and  C_32
   12  A    between atoms: C_23  and  O_36
   13  A    between atoms: C_24  and  C_25
   14  A    between atoms: N_30  and  C_40
   15  A    between atoms: C_32  and  C_34
   16  A    between atoms: O_36  and  C_39
                            x       y       z     vdW  Elec       q    Type
                         _______ _______ _______ _____ _____    ______ ____

>  <TORSDO>
F 16

$$$$
=
 OpenBabel10222415363D

 40 42  0  0  1  0  0  0  0  0999 V2000
  188.4630  177.4110  144.3650 N   0  0  0  0  0  0  0  0  0  0  0  0
  190.1610  176.9400  146.4890 C   0  0  0  0  0  0  0  0  0  0  0  0
  187.9750  177.6470  145.5480 C   0  0  0  0  0  0  0  0  0  0  0  0
  189.6480  176.5770  144.1750 C   0  0  2  0  0  3  0  0  0  0  0  0
  190.5710  176.7170  145.2850 N   0  0  0  0  0  0  0  0  0  0  0  0
  188.4560  178.0540  147.9560 C   0  0  0  0  0  1  0  0  0  0  0  0
  188.6790  177.1180  146.7740 C   0  0  2  0  0  3  0  0  0  0  0  0
  189.6230  176.9320  141.7160 N   0  0  0  0  0  0  0  0  0  0  0  0
  190.4130  177.2480  140.6710 C   0  0  0  0  0  0  0  0  0  0  0  0
  191.9960  177.5100  141.1690 S   0  0  0  0  0  0  0  0  0  0  0  0
  190.3210  176.9040  142.8840 C   0  0  0  0  0  0  0  0  0  0  0  0
  191.6850  177.2010  142.7950 C   0  0  0  0  0  3  0  0  0  0  0  0
  188.5150  177.9900  139.2730 C   0  0  0  0  0  1  0  0  0  0  0  0
  189.9040  177.3810  139.2710 C   0  0  2  0  0  3  0  0  0  0  0  0
  189.4840  173.6680  137.0040 C   0  0  0  0  0  1  0  0  0  0  0  0
  192.7430  175.6220  136.4300 C   0  0  0  0  0  2  0  0  0  0  0  0
  190.7520  174.3160  137.3000 N   0  0  0  0  0  0  0  0  0  0  0  0
  192.0910  176.3410  137.6090 C   0  0  0  0  0  2  0  0  0  0  0  0
  189.8660  176.0770  138.6190 N   0  0  0  0  0  0  0  0  0  0  0  0
  192.2240  173.8660  136.4510 S   0  0  0  0  0  0  0  0  0  0  0  0
  190.8300  175.6030  137.8890 C   0  0  0  0  0  0  0  0  0  0  0  0
  192.3230  176.2690  147.1850 O   0  0  0  0  0  1  0  0  0  0  0  0
  191.1600  176.9180  147.6030 C   0  0  0  0  0  2  0  0  0  0  0  0
  186.7900  178.3830  145.6890 O   0  0  0  0  0  0  0  0  0  0  0  0
  185.6800  178.2400  144.8080 C   0  0  0  0  0  2  0  0  0  0  0  0
  184.5640  179.2010  145.1920 C   0  0  0  0  0  2  0  0  0  0  0  0
  183.7010  179.4430  144.0470 N   0  0  0  0  0  2  0  0  0  0  0  0
  182.4530  178.7420  144.3000 C   0  0  0  0  0  2  0  0  0  0  0  0
  181.4400  179.1040  143.2260 C   0  0  0  0  0  2  0  0  0  0  0  0
  180.2670  178.2510  143.3400 N   0  0  0  0  0  2  0  0  0  0  0  0
  179.6130  178.2530  142.0400 C   0  0  0  0  0  2  0  0  0  0  0  0
  180.2770  176.7740  140.2940 O   0  0  0  0  0  1  0  0  0  0  0  0
  180.6250  177.9600  140.9440 C   0  0  1  0  0  3  0  0  0  0  0  0
  179.6640  179.3940  139.2930 O   0  0  0  0  0  0  0  0  0  0  0  0
  180.6880  179.0810  139.9590 C   0  0  0  0  0  0  0  0  0  0  0  0
  181.8870  179.7790  139.8030 O   0  0  0  0  0  0  0  0  0  0  0  0
  183.2170  178.0110  138.3540 O   0  0  0  0  0  0  0  0  0  0  0  0
  183.8720  178.1500  140.8890 O   0  0  0  0  0  1  0  0  0  0  0  0
  183.3840  178.9830  139.5010 P   0  0  0  0  0  0  0  0  0  0  0  0
  184.5560  180.1290  139.0950 O   0  0  0  0  0  1  0  0  0  0  0  0
  1  3  2  0  0  0  0
  2  7  1  0  0  0  0
  2 23  1  0  0  0  0
  3 24  1  0  0  0  0
  3  7  1  0  0  0  0
  4 11  1  6  0  0  0
  4  1  1  0  0  0  0
  4  5  1  0  0  0  0
  5  2  2  0  0  0  0
  7  6  1  1  0  0  0
  8 11  1  0  0  0  0
  9 10  1  0  0  0  0
  9  8  2  0  0  0  0
 10 12  1  0  0  0  0
 12 11  2  0  0  0  0
 14 13  1  1  0  0  0
 14  9  1  0  0  0  0
 15 17  1  0  0  0  0
 16 20  1  0  0  0  0
 16 18  1  0  0  0  0
 17 21  1  0  0  0  0
 18 21  1  0  0  0  0
 19 14  1  0  0  0  0
 20 17  1  0  0  0  0
 21 19  2  0  0  0  0
 22 23  1  0  0  0  0
 25 26  1  0  0  0  0
 25 24  1  0  0  0  0
 27 28  1  0  0  0  0
 27 26  1  0  0  0  0
 29 30  1  0  0  0  0
 29 28  1  0  0  0  0
 31 30  1  0  0  0  0
 33 32  1  6  0  0  0
 33 31  1  0  0  0  0
 34 35  2  0  0  0  0
 35 33  1  0  0  0  0
 36 35  1  0  0  0  0
 37 39  2  0  0  0  0
 39 36  1  0  0  0  0
 39 38  1  0  0  0  0
 40 39  1  0  0  0  0
M  END
>  <MODEL>
6

>  <REMARK>
 VINA RESULT:      -6.8      4.774      9.799
  Name = 
  16 active torsions:
  status: ('A' for Active; 'I' for Inactive)
    1  A    between atoms: C_3  and  N_20
    2  A    between atoms: C_3  and  C_39
    3  A    between atoms: C_9  and  C_40
    4  A    between atoms: CA_10  and  C_22
    5  A    between atoms: C_11  and  C_18
    6  A    between atoms: C_11  and  C_19
    7  A    between atoms: O_13  and  C_18
    8  A    between atoms: O_13  and  P_29
    9  A    between atoms: N_17  and  C_19
   10  A    between atoms: N_17  and  C_34
   11  A    between atoms: N_20  and  C_32
   12  A    between atoms: C_23  and  O_36
   13  A    between atoms: C_24  and  C_25
   14  A    between atoms: N_30  and  C_40
   15  A    between atoms: C_32  and  C_34
   16  A    between atoms: O_36  and  C_39
                            x       y       z     vdW  Elec       q    Type
                         _______ _______ _______ _____ _____    ______ ____

>  <TORSDO>
F 16

$$$$
=
 OpenBabel10222415363D

 40 42  0  0  1  0  0  0  0  0999 V2000
  187.8470  177.3620  144.6860 N   0  0  0  0  0  0  0  0  0  0  0  0
  190.2800  176.8820  145.8960 C   0  0  0  0  0  0  0  0  0  0  0  0
  187.8780  177.5030  145.9790 C   0  0  0  0  0  0  0  0  0  0  0  0
  188.8780  176.6140  143.9690 C   0  0  2  0  0  3  0  0  0  0  0  0
  190.1690  176.7500  144.6170 N   0  0  0  0  0  0  0  0  0  0  0  0
  189.2880  177.8080  148.0070 C   0  0  0  0  0  1  0  0  0  0  0  0
  189.0400  176.9530  146.7700 C   0  0  2  0  0  3  0  0  0  0  0  0
  189.8110  176.4560  141.6730 N   0  0  0  0  0  0  0  0  0  0  0  0
  189.7220  176.9940  140.4400 C   0  0  0  0  0  0  0  0  0  0  0  0
  188.5680  178.2150  140.3980 S   0  0  0  0  0  0  0  0  0  0  0  0
  188.9520  177.0500  142.5450 C   0  0  0  0  0  0  0  0  0  0  0  0
  188.1550  178.0760  142.0240 C   0  0  0  0  0  3  0  0  0  0  0  0
  191.9080  177.1410  139.2980 C   0  0  0  0  0  1  0  0  0  0  0  0
  190.5280  176.5130  139.2770 C   0  0  2  0  0  3  0  0  0  0  0  0
  188.9400  177.6890  135.3770 C   0  0  0  0  0  1  0  0  0  0  0  0
  189.6660  173.9430  135.8300 C   0  0  0  0  0  2  0  0  0  0  0  0
  188.8650  176.3460  135.9290 N   0  0  0  0  0  0  0  0  0  0  0  0
  189.8360  174.5180  137.2340 C   0  0  0  0  0  2  0  0  0  0  0  0
  189.8580  176.8450  138.0240 N   0  0  0  0  0  0  0  0  0  0  0  0
  188.4550  174.9690  134.9160 S   0  0  0  0  0  0  0  0  0  0  0  0
  189.5390  175.9710  137.1170 C   0  0  0  0  0  0  0  0  0  0  0  0
  191.7390  175.8240  147.4320 O   0  0  0  0  0  1  0  0  0  0  0  0
  191.6480  176.8620  146.5040 C   0  0  0  0  0  2  0  0  0  0  0  0
  186.8300  178.1560  146.6440 O   0  0  0  0  0  0  0  0  0  0  0  0
  185.9190  179.0280  145.9820 C   0  0  0  0  0  2  0  0  0  0  0  0
  184.4820  178.6130  146.2650 C   0  0  0  0  0  2  0  0  0  0  0  0
  183.6230  179.0130  145.1600 N   0  0  0  0  0  2  0  0  0  0  0  0
  184.4810  179.2000  144.0020 C   0  0  0  0  0  2  0  0  0  0  0  0
  184.0350  178.2730  142.8830 C   0  0  0  0  0  2  0  0  0  0  0  0
  184.5210  178.7650  141.6040 N   0  0  0  0  0  2  0  0  0  0  0  0
  183.6780  178.1770  140.5740 C   0  0  0  0  0  2  0  0  0  0  0  0
  184.9290  179.7630  139.3110 O   0  0  0  0  0  1  0  0  0  0  0  0
  183.7630  178.9980  139.2970 C   0  0  1  0  0  3  0  0  0  0  0  0
  184.8210  177.8590  137.4830 O   0  0  0  0  0  0  0  0  0  0  0  0
  183.7460  178.1170  138.0900 C   0  0  0  0  0  0  0  0  0  0  0  0
  182.5320  177.5770  137.6620 O   0  0  0  0  0  0  0  0  0  0  0  0
  180.9000  175.4970  137.6930 O   0  0  0  0  0  1  0  0  0  0  0  0
  183.3930  175.0140  138.3440 O   0  0  0  0  0  1  0  0  0  0  0  0
  182.3240  175.8930  137.3730 P   0  0  0  0  0  0  0  0  0  0  0  0
  182.6430  175.5600  135.7470 O   0  0  0  0  0  0  0  0  0  0  0  0
  1  3  2  0  0  0  0
  2 23  1  0  0  0  0
  2  7  1  0  0  0  0
  3 24  1  0  0  0  0
  3  7  1  0  0  0  0
  4 11  1  6  0  0  0
  4  5  1  0  0  0  0
  4  1  1  0  0  0  0
  5  2  2  0  0  0  0
  7  6  1  1  0  0  0
  8 11  1  0  0  0  0
  9  8  2  0  0  0  0
 10  9  1  0  0  0  0
 10 12  1  0  0  0  0
 12 11  2  0  0  0  0
 14 13  1  6  0  0  0
 14  9  1  0  0  0  0
 15 17  1  0  0  0  0
 16 18  1  0  0  0  0
 17 21  1  0  0  0  0
 19 14  1  0  0  0  0
 20 16  1  0  0  0  0
 20 17  1  0  0  0  0
 21 18  1  0  0  0  0
 21 19  2  0  0  0  0
 23 22  1  0  0  0  0
 25 26  1  0  0  0  0
 25 24  1  0  0  0  0
 27 26  1  0  0  0  0
 28 27  1  0  0  0  0
 29 28  1  0  0  0  0
 30 29  1  0  0  0  0
 31 30  1  0  0  0  0
 33 32  1  1  0  0  0
 33 31  1  0  0  0  0
 34 35  2  0  0  0  0
 35 33  1  0  0  0  0
 36 35  1  0  0  0  0
 39 36  1  0  0  0  0
 39 37  1  0  0  0  0
 39 38  1  0  0  0  0
 40 39  2  0  0  0  0
M  END
>  <MODEL>
7

>  <REMARK>
 VINA RESULT:      -6.8      4.820      9.094
  Name = 
  16 active torsions:
  status: ('A' for Active; 'I' for Inactive)
    1  A    between atoms: C_3  and  N_20
    2  A    between atoms: C_3  and  C_39
    3  A    between atoms: C_9  and  C_40
    4  A    between atoms: CA_10  and  C_22
    5  A    between atoms: C_11  and  C_18
    6  A    between atoms: C_11  and  C_19
    7  A    between atoms: O_13  and  C_18
    8  A    between atoms: O_13  and  P_29
    9  A    between atoms: N_17  and  C_19
   10  A    between atoms: N_17  and  C_34
   11  A    between atoms: N_20  and  C_32
   12  A    between atoms: C_23  and  O_36
   13  A    between atoms: C_24  and  C_25
   14  A    between atoms: N_30  and  C_40
   15  A    between atoms: C_32  and  C_34
   16  A    between atoms: O_36  and  C_39
                            x       y       z     vdW  Elec       q    Type
                         _______ _______ _______ _____ _____    ______ ____

>  <TORSDO>
F 16

$$$$
=
 OpenBabel10222415363D

 40 42  0  0  1  0  0  0  0  0999 V2000
  184.8140  178.6320  141.3090 N   0  0  0  0  0  0  0  0  0  0  0  0
  182.0790  178.9940  141.3980 C   0  0  0  0  0  0  0  0  0  0  0  0
  184.2490  178.9880  140.1920 C   0  0  0  0  0  0  0  0  0  0  0  0
  184.0430  178.0650  142.4130 C   0  0  2  0  0  3  0  0  0  0  0  0
  182.7080  178.6290  142.4650 N   0  0  0  0  0  0  0  0  0  0  0  0
  182.2450  179.9710  139.0920 C   0  0  0  0  0  1  0  0  0  0  0  0
  182.7510  178.8900  140.0390 C   0  0  2  0  0  3  0  0  0  0  0  0
  185.9560  177.6760  143.9500 N   0  0  0  0  0  0  0  0  0  0  0  0
  186.4260  177.9840  145.1750 C   0  0  0  0  0  0  0  0  0  0  0  0
  185.3660  179.0040  145.9890 S   0  0  0  0  0  0  0  0  0  0  0  0
  184.7520  178.2650  143.7100 C   0  0  0  0  0  0  0  0  0  0  0  0
  184.2380  179.0610  144.7400 C   0  0  0  0  0  3  0  0  0  0  0  0
  187.8560  177.7750  147.1790 C   0  0  0  0  0  1  0  0  0  0  0  0
  187.7420  177.5000  145.6920 C   0  0  2  0  0  3  0  0  0  0  0  0
  191.2870  179.3930  143.9710 C   0  0  0  0  0  1  0  0  0  0  0  0
  190.4690  175.8710  142.6690 C   0  0  0  0  0  2  0  0  0  0  0  0
  190.5410  178.3130  143.3450 N   0  0  0  0  0  0  0  0  0  0  0  0
  189.2460  176.2430  143.5040 C   0  0  0  0  0  2  0  0  0  0  0  0
  188.8370  178.1590  144.9880 N   0  0  0  0  0  0  0  0  0  0  0  0
  191.2130  177.4050  141.9980 S   0  0  0  0  0  0  0  0  0  0  0  0
  189.5030  177.6170  144.0130 C   0  0  0  0  0  0  0  0  0  0  0  0
  180.5260  180.3840  142.5220 O   0  0  0  0  0  1  0  0  0  0  0  0
  180.6500  179.4220  141.5170 C   0  0  0  0  0  2  0  0  0  0  0  0
  185.0290  179.4530  139.1230 O   0  0  0  0  0  0  0  0  0  0  0  0
  185.9180  178.6150  138.3920 C   0  0  0  0  0  2  0  0  0  0  0  0
  185.1520  177.7810  137.3750 C   0  0  0  0  0  2  0  0  0  0  0  0
  185.7200  176.4440  137.3010 N   0  0  0  0  0  2  0  0  0  0  0  0
  185.8590  176.1180  135.8910 C   0  0  0  0  0  2  0  0  0  0  0  0
  187.1260  175.3080  135.6780 C   0  0  0  0  0  2  0  0  0  0  0  0
  188.2690  176.1960  135.5380 N   0  0  0  0  0  2  0  0  0  0  0  0
  189.4620  175.3940  135.7610 C   0  0  0  0  0  2  0  0  0  0  0  0
  189.7450  173.5320  137.2200 O   0  0  0  0  0  1  0  0  0  0  0  0
  189.5030  174.9060  137.2010 C   0  0  1  0  0  3  0  0  0  0  0  0
  190.3810  176.8190  138.3310 O   0  0  0  0  0  0  0  0  0  0  0  0
  190.5590  175.6200  137.9800 C   0  0  0  0  0  0  0  0  0  0  0  0
  191.7260  174.9370  138.3240 O   0  0  0  0  0  0  0  0  0  0  0  0
  194.2600  174.2340  138.0440 O   0  0  0  0  0  1  0  0  0  0  0  0
  193.7080  176.7570  137.5880 O   0  0  0  0  0  1  0  0  0  0  0  0
  193.2030  175.1480  137.4630 P   0  0  0  0  0  0  0  0  0  0  0  0
  192.9640  174.7600  135.8370 O   0  0  0  0  0  0  0  0  0  0  0  0
  1  4  1  0  0  0  0
  2 23  1  0  0  0  0
  2  5  2  0  0  0  0
  3  1  2  0  0  0  0
  4  5  1  0  0  0  0
  4 11  1  1  0  0  0
  7  6  1  6  0  0  0
  7  3  1  0  0  0  0
  7  2  1  0  0  0  0
  8  9  2  0  0  0  0
  9 14  1  0  0  0  0
  9 10  1  0  0  0  0
 11  8  1  0  0  0  0
 11 12  2  0  0  0  0
 12 10  1  0  0  0  0
 14 13  1  1  0  0  0
 16 18  1  0  0  0  0
 17 15  1  0  0  0  0
 17 21  1  0  0  0  0
 18 21  1  0  0  0  0
 19 14  1  0  0  0  0
 20 16  1  0  0  0  0
 20 17  1  0  0  0  0
 21 19  2  0  0  0  0
 23 22  1  0  0  0  0
 24  3  1  0  0  0  0
 25 24  1  0  0  0  0
 26 25  1  0  0  0  0
 27 26  1  0  0  0  0
 28 27  1  0  0  0  0
 29 28  1  0  0  0  0
 30 29  1  0  0  0  0
 30 31  1  0  0  0  0
 31 33  1  0  0  0  0
 33 32  1  6  0  0  0
 33 35  1  0  0  0  0
 35 36  1  0  0  0  0
 35 34  2  0  0  0  0
 39 38  1  0  0  0  0
 39 37  1  0  0  0  0
 39 36  1  0  0  0  0
 40 39  2  0  0  0  0
M  END
>  <MODEL>
8

>  <REMARK>
 VINA RESULT:      -6.8      1.662      2.364
  Name = 
  16 active torsions:
  status: ('A' for Active; 'I' for Inactive)
    1  A    between atoms: C_3  and  N_20
    2  A    between atoms: C_3  and  C_39
    3  A    between atoms: C_9  and  C_40
    4  A    between atoms: CA_10  and  C_22
    5  A    between atoms: C_11  and  C_18
    6  A    between atoms: C_11  and  C_19
    7  A    between atoms: O_13  and  C_18
    8  A    between atoms: O_13  and  P_29
    9  A    between atoms: N_17  and  C_19
   10  A    between atoms: N_17  and  C_34
   11  A    between atoms: N_20  and  C_32
   12  A    between atoms: C_23  and  O_36
   13  A    between atoms: C_24  and  C_25
   14  A    between atoms: N_30  and  C_40
   15  A    between atoms: C_32  and  C_34
   16  A    between atoms: O_36  and  C_39
                            x       y       z     vdW  Elec       q    Type
                         _______ _______ _______ _____ _____    ______ ____

>  <TORSDO>
F 16

$$$$
=
 OpenBabel10222415363D

 40 42  0  0  1  0  0  0  0  0999 V2000
  184.9520  179.2950  142.9940 N   0  0  0  0  0  0  0  0  0  0  0  0
  182.6200  178.6490  141.6680 C   0  0  0  0  0  0  0  0  0  0  0  0
  183.8670  179.3020  143.7120 C   0  0  0  0  0  0  0  0  0  0  0  0
  184.9070  179.3550  141.5340 C   0  0  2  0  0  3  0  0  0  0  0  0
  183.7350  178.6750  141.0170 N   0  0  0  0  0  0  0  0  0  0  0  0
  181.4950  178.5720  143.9100 C   0  0  0  0  0  1  0  0  0  0  0  0
  182.5160  179.2940  143.0390 C   0  0  2  0  0  3  0  0  0  0  0  0
  186.2850  178.6270  139.5990 N   0  0  0  0  0  0  0  0  0  0  0  0
  187.4810  178.0970  139.2740 C   0  0  0  0  0  0  0  0  0  0  0  0
  188.4090  177.8160  140.6470 S   0  0  0  0  0  0  0  0  0  0  0  0
  186.1520  178.7830  140.9450 C   0  0  0  0  0  0  0  0  0  0  0  0
  187.2440  178.3820  141.7230 C   0  0  0  0  0  3  0  0  0  0  0  0
  186.8310  178.3010  136.8990 C   0  0  0  0  0  1  0  0  0  0  0  0
  187.9090  177.8470  137.8640 C   0  0  2  0  0  3  0  0  0  0  0  0
  188.5210  173.6450  136.8270 C   0  0  0  0  0  1  0  0  0  0  0  0
  191.6310  175.8920  136.6180 C   0  0  0  0  0  2  0  0  0  0  0  0
  189.5740  174.5520  137.2520 N   0  0  0  0  0  0  0  0  0  0  0  0
  190.5850  176.7810  137.2860 C   0  0  0  0  0  2  0  0  0  0  0  0
  188.1810  176.4280  137.6610 N   0  0  0  0  0  0  0  0  0  0  0  0
  191.2700  174.1440  137.0310 S   0  0  0  0  0  0  0  0  0  0  0  0
  189.3620  175.9440  137.4140 C   0  0  0  0  0  0  0  0  0  0  0  0
  181.8100  177.1570  140.0160 O   0  0  0  0  0  1  0  0  0  0  0  0
  181.4140  178.0630  141.0020 C   0  0  0  0  0  2  0  0  0  0  0  0
  183.9460  179.3260  145.1120 O   0  0  0  0  0  0  0  0  0  0  0  0
  184.6820  178.3640  145.8620 C   0  0  0  0  0  2  0  0  0  0  0  0
  185.7230  179.0490  146.7360 C   0  0  0  0  0  2  0  0  0  0  0  0
  186.8260  178.1390  147.0000 N   0  0  0  0  0  2  0  0  0  0  0  0
  187.5750  178.6910  148.1160 C   0  0  0  0  0  2  0  0  0  0  0  0
  188.8490  177.8870  148.3210 C   0  0  0  0  0  2  0  0  0  0  0  0
  188.9400  176.8350  147.3220 N   0  0  0  0  0  2  0  0  0  0  0  0
  190.1200  176.0450  147.6420 C   0  0  0  0  0  2  0  0  0  0  0  0
  192.3210  176.7800  148.1830 O   0  0  0  0  0  1  0  0  0  0  0  0
  191.3740  176.7570  147.1580 C   0  0  1  0  0  3  0  0  0  0  0  0
  192.3070  174.8770  146.0180 O   0  0  0  0  0  0  0  0  0  0  0  0
  191.9430  176.0830  145.9530 C   0  0  0  0  0  0  0  0  0  0  0  0
  192.0480  176.8010  144.7610 O   0  0  0  0  0  0  0  0  0  0  0  0
  190.1450  178.6360  144.8110 O   0  0  0  0  0  1  0  0  0  0  0  0
  189.4800  176.3150  143.7880 O   0  0  0  0  0  1  0  0  0  0  0  0
  190.6790  177.4920  143.9780 P   0  0  0  0  0  0  0  0  0  0  0  0
  191.1370  178.0750  142.4600 O   0  0  0  0  0  0  0  0  0  0  0  0
  1  3  2  0  0  0  0
  2  7  1  0  0  0  0
  3 24  1  0  0  0  0
  4 11  1  6  0  0  0
  4  1  1  0  0  0  0
  5  4  1  0  0  0  0
  5  2  2  0  0  0  0
  7  3  1  0  0  0  0
  7  6  1  1  0  0  0
  8 11  1  0  0  0  0
  9  8  2  0  0  0  0
  9 10  1  0  0  0  0
 10 12  1  0  0  0  0
 11 12  2  0  0  0  0
 14 13  1  6  0  0  0
 14  9  1  0  0  0  0
 15 17  1  0  0  0  0
 16 20  1  0  0  0  0
 16 18  1  0  0  0  0
 17 21  1  0  0  0  0
 18 21  1  0  0  0  0
 19 14  1  0  0  0  0
 20 17  1  0  0  0  0
 21 19  2  0  0  0  0
 22 23  1  0  0  0  0
 23  2  1  0  0  0  0
 24 25  1  0  0  0  0
 25 26  1  0  0  0  0
 26 27  1  0  0  0  0
 27 28  1  0  0  0  0
 28 29  1  0  0  0  0
 30 31  1  0  0  0  0
 30 29  1  0  0  0  0
 33 31  1  0  0  0  0
 33 32  1  1  0  0  0
 35 34  2  0  0  0  0
 35 33  1  0  0  0  0
 36 35  1  0  0  0  0
 38 39  1  0  0  0  0
 39 36  1  0  0  0  0
 39 37  1  0  0  0  0
 40 39  2  0  0  0  0
M  END
>  <MODEL>
9

>  <REMARK>
 VINA RESULT:      -6.7      3.790      7.171
  Name = 
  16 active torsions:
  status: ('A' for Active; 'I' for Inactive)
    1  A    between atoms: C_3  and  N_20
    2  A    between atoms: C_3  and  C_39
    3  A    between atoms: C_9  and  C_40
    4  A    between atoms: CA_10  and  C_22
    5  A    between atoms: C_11  and  C_18
    6  A    between atoms: C_11  and  C_19
    7  A    between atoms: O_13  and  C_18
    8  A    between atoms: O_13  and  P_29
    9  A    between atoms: N_17  and  C_19
   10  A    between atoms: N_17  and  C_34
   11  A    between atoms: N_20  and  C_32
   12  A    between atoms: C_23  and  O_36
   13  A    between atoms: C_24  and  C_25
   14  A    between atoms: N_30  and  C_40
   15  A    between atoms: C_32  and  C_34
   16  A    between atoms: O_36  and  C_39
                            x       y       z     vdW  Elec       q    Type
                         _______ _______ _______ _____ _____    ______ ____

>  <TORSDO>
F 16

$$$$
