=
 OpenBabel10222416093D

 26 30  0  0  1  0  0  0  0  0999 V2000
  185.0270  178.4980  144.8840 C   0  0  0  0  0  3  0  0  0  0  0  0
  185.8680  178.7640  139.0260 C   0  0  0  0  0  2  0  0  0  0  0  0
  184.7610  177.7920  141.1340 C   0  0  1  0  0  3  0  0  0  0  0  0
  183.4440  177.9850  140.3620 C   0  0  2  0  0  3  0  0  0  0  0  0
  185.9340  178.6070  140.5590 C   0  0  1  0  0  3  0  0  0  0  0  0
  184.4970  178.2170  142.5410 C   0  0  0  0  0  0  0  0  0  0  0  0
  187.5360  177.0850  144.6070 C   0  0  0  0  0  2  0  0  0  0  0  0
  185.3940  178.0320  143.6080 C   0  0  0  0  0  0  0  0  0  0  0  0
  187.6040  178.2500  142.4630 C   0  0  1  0  0  3  0  0  0  0  0  0
  188.9690  177.4830  144.3040 C   0  0  0  0  0  2  0  0  0  0  0  0
  182.9190  179.3170  144.0050 C   0  0  0  0  0  3  0  0  0  0  0  0
  182.3050  179.0870  141.2870 S   0  0  0  0  0  0  0  0  0  0  0  0
  188.0510  178.1820  138.5930 C   0  0  1  0  0  3  0  0  0  0  0  0
  183.7920  179.1300  145.0820 C   0  0  0  0  0  3  0  0  0  0  0  0
  188.4340  179.2820  137.7230 N   0  0  0  0  0  1  0  0  0  0  0  0
  186.7280  177.3820  143.3510 C   0  0  1  0  0  3  0  0  0  0  0  0
  189.0170  177.8420  142.8330 C   0  0  0  0  0  2  0  0  0  0  0  0
  188.3930  178.5090  140.0570 C   0  0  0  0  0  2  0  0  0  0  0  0
  187.2880  177.9930  140.9820 C   0  0  2  0  0  3  0  0  0  0  0  0
  186.6950  177.8220  138.3830 O   0  0  0  0  0  0  0  0  0  0  0  0
  183.2930  178.8610  142.7400 C   0  0  0  0  0  0  0  0  0  0  0  0
  181.6460  176.6140  139.6690 N   0  0  0  0  0  0  0  0  0  0  0  0
  182.8190  176.6910  140.1520 N   0  0  0  0  0  0  0  0  0  0  0  0
  180.2780  174.8450  140.3470 O   0  0  0  0  0  0  0  0  0  0  0  0
  181.0160  175.3500  139.4590 C   0  0  0  0  0  0  0  0  0  0  0  0
  181.2240  174.6550  138.2360 N   0  0  0  0  0  1  0  0  0  0  0  0
  1 14  1  0  0  0  0
  3  6  1  1  0  0  0
  4 23  1  1  0  0  0
  4  3  1  0  0  0  0
  4 12  1  0  0  0  0
  5  2  1  6  0  0  0
  5 19  1  0  0  0  0
  5  3  1  0  0  0  0
  6 21  2  0  0  0  0
  6  8  1  0  0  0  0
  8  1  2  0  0  0  0
  9 17  1  6  0  0  0
  9 16  1  0  0  0  0
 10  7  1  0  0  0  0
 11 14  2  0  0  0  0
 12 21  1  0  0  0  0
 13 15  1  6  0  0  0
 13 18  1  0  0  0  0
 16  8  1  0  0  0  0
 16  7  1  1  0  0  0
 17 10  1  0  0  0  0
 19 18  1  6  0  0  0
 19  9  1  0  0  0  0
 20 13  1  0  0  0  0
 20  2  1  0  0  0  0
 21 11  1  0  0  0  0
 22 23  2  0  0  0  0
 25 22  1  0  0  0  0
 25 24  2  0  0  0  0
 26 25  1  0  0  0  0
M  END
>  <MODEL>
1

>  <REMARK>
 VINA RESULT:      -7.6      0.000      0.000
  Name = 
  2 active torsions:
  status: ('A' for Active; 'I' for Inactive)
    1  A    between atoms: C_5  and  N_12
    2  A    between atoms: N_11  and  C_13
                            x       y       z     vdW  Elec       q    Type
                         _______ _______ _______ _____ _____    ______ ____

>  <TORSDO>
F 2

$$$$
=
 OpenBabel10222416093D

 26 30  0  0  1  0  0  0  0  0999 V2000
  185.0890  177.8850  138.7330 C   0  0  0  0  0  3  0  0  0  0  0  0
  179.9060  179.0430  141.3600 C   0  0  0  0  0  2  0  0  0  0  0  0
  181.8090  179.5900  139.7190 C   0  0  1  0  0  3  0  0  0  0  0  0
  180.6770  179.8250  138.7030 C   0  0  2  0  0  3  0  0  0  0  0  0
  181.3690  178.7760  140.9490 C   0  0  1  0  0  3  0  0  0  0  0  0
  182.8900  178.8570  138.9930 C   0  0  0  0  0  0  0  0  0  0  0  0
  185.9660  178.8940  141.2990 C   0  0  0  0  0  2  0  0  0  0  0  0
  184.1690  178.6060  139.5180 C   0  0  0  0  0  0  0  0  0  0  0  0
  183.6810  178.3400  141.9540 C   0  0  1  0  0  3  0  0  0  0  0  0
  185.9720  178.3620  142.7210 C   0  0  0  0  0  2  0  0  0  0  0  0
  183.4490  177.6830  136.9570 C   0  0  0  0  0  3  0  0  0  0  0  0
  180.8690  178.7190  137.2510 S   0  0  0  0  0  0  0  0  0  0  0  0
  180.3000  179.3540  143.6050 C   0  0  1  0  0  3  0  0  0  0  0  0
  184.7320  177.4330  137.4560 C   0  0  0  0  0  3  0  0  0  0  0  0
  179.2830  178.4750  144.1600 N   0  0  0  0  0  1  0  0  0  0  0  0
  184.5050  179.0740  140.9100 C   0  0  1  0  0  3  0  0  0  0  0  0
  184.5380  178.4010  143.2040 C   0  0  0  0  0  2  0  0  0  0  0  0
  181.6310  178.6010  143.4410 C   0  0  0  0  0  2  0  0  0  0  0  0
  182.3200  179.0270  142.1420 C   0  0  2  0  0  3  0  0  0  0  0  0
  179.8360  179.9730  142.4160 O   0  0  0  0  0  0  0  0  0  0  0  0
  182.5390  178.3890  137.7440 C   0  0  0  0  0  0  0  0  0  0  0  0
  180.6950  181.5030  137.0360 N   0  0  0  0  0  0  0  0  0  0  0  0
  180.7010  181.2130  138.2740 N   0  0  0  0  0  0  0  0  0  0  0  0
  180.7390  183.8050  137.4320 O   0  0  0  0  0  0  0  0  0  0  0  0
  180.7210  182.8610  136.5980 C   0  0  0  0  0  0  0  0  0  0  0  0
  180.7260  183.1510  135.2050 N   0  0  0  0  0  1  0  0  0  0  0  0
  1  8  1  0  0  0  0
  2 20  1  0  0  0  0
  3  6  1  6  0  0  0
  3  5  1  0  0  0  0
  4 23  1  6  0  0  0
  4  3  1  0  0  0  0
  5  2  1  1  0  0  0
  5 19  1  0  0  0  0
  6  8  2  0  0  0  0
  7 10  1  0  0  0  0
  8 16  1  0  0  0  0
  9 19  1  0  0  0  0
  9 17  1  1  0  0  0
 10 17  1  0  0  0  0
 11 14  1  0  0  0  0
 11 21  2  0  0  0  0
 12 21  1  0  0  0  0
 12  4  1  0  0  0  0
 13 15  1  6  0  0  0
 14  1  2  0  0  0  0
 16  7  1  1  0  0  0
 16  9  1  0  0  0  0
 18 13  1  0  0  0  0
 19 18  1  1  0  0  0
 20 13  1  0  0  0  0
 21  6  1  0  0  0  0
 22 23  2  0  0  0  0
 25 22  1  0  0  0  0
 25 24  2  0  0  0  0
 26 25  1  0  0  0  0
M  END
>  <MODEL>
2

>  <REMARK>
 VINA RESULT:      -6.5      3.922      6.385
  Name = 
  2 active torsions:
  status: ('A' for Active; 'I' for Inactive)
    1  A    between atoms: C_5  and  N_12
    2  A    between atoms: N_11  and  C_13
                            x       y       z     vdW  Elec       q    Type
                         _______ _______ _______ _____ _____    ______ ____

>  <TORSDO>
F 2

$$$$
=
 OpenBabel10222416093D

 26 30  0  0  1  0  0  0  0  0999 V2000
  180.6890  179.7140  143.5510 C   0  0  0  0  0  3  0  0  0  0  0  0
  183.3930  178.4390  138.4370 C   0  0  0  0  0  2  0  0  0  0  0  0
  181.7080  177.9460  140.3170 C   0  0  1  0  0  3  0  0  0  0  0  0
  180.7110  177.7090  139.1690 C   0  0  2  0  0  3  0  0  0  0  0  0
  182.9600  178.7340  139.8880 C   0  0  1  0  0  3  0  0  0  0  0  0
  180.9740  178.7050  141.3720 C   0  0  0  0  0  0  0  0  0  0  0  0
  183.2220  178.6800  144.4920 C   0  0  0  0  0  2  0  0  0  0  0  0
  181.4790  178.9680  142.6580 C   0  0  0  0  0  0  0  0  0  0  0  0
  183.9280  179.1890  142.2120 C   0  0  1  0  0  3  0  0  0  0  0  0
  184.6510  179.1910  144.5170 C   0  0  0  0  0  2  0  0  0  0  0  0
  178.9460  179.9190  141.8750 C   0  0  0  0  0  3  0  0  0  0  0  0
  179.2730  178.8400  139.3170 S   0  0  0  0  0  0  0  0  0  0  0  0
  185.6250  178.0990  138.8780 C   0  0  1  0  0  3  0  0  0  0  0  0
  179.4250  180.1800  143.1640 C   0  0  0  0  0  3  0  0  0  0  0  0
  186.2130  178.9540  137.8590 N   0  0  0  0  0  1  0  0  0  0  0  0
  182.8570  178.4840  143.0270 C   0  0  1  0  0  3  0  0  0  0  0  0
  185.1600  179.1220  143.0930 C   0  0  0  0  0  2  0  0  0  0  0  0
  185.4490  178.8750  140.1940 C   0  0  0  0  0  2  0  0  0  0  0  0
  184.1310  178.4790  140.8650 C   0  0  2  0  0  3  0  0  0  0  0  0
  184.4360  177.4920  138.4010 O   0  0  0  0  0  0  0  0  0  0  0  0
  179.7390  179.1880  140.9910 C   0  0  0  0  0  0  0  0  0  0  0  0
  180.1960  175.7020  140.3090 N   0  0  0  0  0  0  0  0  0  0  0  0
  180.2600  176.3290  139.2050 N   0  0  0  0  0  0  0  0  0  0  0  0
  179.6960  173.6480  139.3140 O   0  0  0  0  0  0  0  0  0  0  0  0
  179.7580  174.3440  140.3610 C   0  0  0  0  0  0  0  0  0  0  0  0
  179.3860  173.7730  141.6100 N   0  0  0  0  0  1  0  0  0  0  0  0
  3  6  1  1  0  0  0
  4 23  1  1  0  0  0
  4 12  1  0  0  0  0
  4  3  1  0  0  0  0
  5  2  1  6  0  0  0
  5  3  1  0  0  0  0
  5 19  1  0  0  0  0
  6  8  1  0  0  0  0
  7 10  1  0  0  0  0
  8 16  1  0  0  0  0
  8  1  2  0  0  0  0
  9 16  1  0  0  0  0
  9 17  1  1  0  0  0
 11 14  2  0  0  0  0
 12 21  1  0  0  0  0
 13 15  1  6  0  0  0
 13 18  1  0  0  0  0
 14  1  1  0  0  0  0
 16  7  1  1  0  0  0
 17 10  1  0  0  0  0
 19 18  1  6  0  0  0
 19  9  1  0  0  0  0
 20  2  1  0  0  0  0
 20 13  1  0  0  0  0
 21  6  2  0  0  0  0
 21 11  1  0  0  0  0
 22 25  1  0  0  0  0
 23 22  2  0  0  0  0
 24 25  2  0  0  0  0
 25 26  1  0  0  0  0
M  END
>  <MODEL>
3

>  <REMARK>
 VINA RESULT:      -6.3      2.290      3.506
  Name = 
  2 active torsions:
  status: ('A' for Active; 'I' for Inactive)
    1  A    between atoms: C_5  and  N_12
    2  A    between atoms: N_11  and  C_13
                            x       y       z     vdW  Elec       q    Type
                         _______ _______ _______ _____ _____    ______ ____

>  <TORSDO>
F 2

$$$$
=
 OpenBabel10222416093D

 26 30  0  0  1  0  0  0  0  0999 V2000
  192.3870  173.7770  136.6590 C   0  0  0  0  0  3  0  0  0  0  0  0
  189.3180  178.6280  138.1250 C   0  0  0  0  0  2  0  0  0  0  0  0
  190.5260  176.4300  138.6920 C   0  0  1  0  0  3  0  0  0  0  0  0
  191.2280  177.2600  139.7810 C   0  0  2  0  0  3  0  0  0  0  0  0
  189.8690  177.2880  137.5960 C   0  0  1  0  0  3  0  0  0  0  0  0
  191.5710  175.5520  138.0840 C   0  0  0  0  0  0  0  0  0  0  0  0
  189.7070  173.0090  135.8840 C   0  0  0  0  0  2  0  0  0  0  0  0
  191.3050  174.5170  137.1710 C   0  0  0  0  0  0  0  0  0  0  0  0
  189.3310  175.4200  135.9330 C   0  0  1  0  0  3  0  0  0  0  0  0
  188.7620  173.3870  134.7580 C   0  0  0  0  0  2  0  0  0  0  0  0
  193.9430  175.1120  137.9560 C   0  0  0  0  0  3  0  0  0  0  0  0
  193.0490  177.2270  139.5500 S   0  0  0  0  0  0  0  0  0  0  0  0
  187.2500  178.4910  137.1260 C   0  0  1  0  0  3  0  0  0  0  0  0
  193.6990  174.0690  137.0560 C   0  0  0  0  0  3  0  0  0  0  0  0
  187.1800  179.8090  136.5150 N   0  0  0  0  0  1  0  0  0  0  0  0
  189.8860  174.2570  136.7380 C   0  0  1  0  0  3  0  0  0  0  0  0
  188.2650  174.7850  135.0610 C   0  0  0  0  0  2  0  0  0  0  0  0
  187.8340  177.4690  136.1360 C   0  0  0  0  0  2  0  0  0  0  0  0
  188.7590  176.4950  136.8690 C   0  0  2  0  0  3  0  0  0  0  0  0
  187.9320  178.5460  138.3680 O   0  0  0  0  0  0  0  0  0  0  0  0
  192.8670  175.8480  138.4520 C   0  0  0  0  0  0  0  0  0  0  0  0
  189.7390  176.9410  141.5920 N   0  0  0  0  0  0  0  0  0  0  0  0
  190.8850  176.7220  141.0870 N   0  0  0  0  0  0  0  0  0  0  0  0
  188.2220  176.0030  143.1000 O   0  0  0  0  0  0  0  0  0  0  0  0
  189.3880  176.4220  142.8740 C   0  0  0  0  0  0  0  0  0  0  0  0
  190.3650  176.3780  143.9070 N   0  0  0  0  0  1  0  0  0  0  0  0
  1 14  2  0  0  0  0
  1  8  1  0  0  0  0
  2 20  1  0  0  0  0
  3  6  1  6  0  0  0
  3  4  1  0  0  0  0
  4 23  1  1  0  0  0
  5  2  1  1  0  0  0
  5  3  1  0  0  0  0
  6 21  1  0  0  0  0
  8  6  2  0  0  0  0
  9 17  1  6  0  0  0
  9 16  1  0  0  0  0
  9 19  1  0  0  0  0
 10 17  1  0  0  0  0
 10  7  1  0  0  0  0
 11 21  2  0  0  0  0
 12  4  1  0  0  0  0
 13 15  1  6  0  0  0
 13 20  1  0  0  0  0
 14 11  1  0  0  0  0
 16  7  1  6  0  0  0
 16  8  1  0  0  0  0
 18 13  1  0  0  0  0
 19 18  1  6  0  0  0
 19  5  1  0  0  0  0
 21 12  1  0  0  0  0
 22 25  1  0  0  0  0
 23 22  2  0  0  0  0
 25 24  2  0  0  0  0
 25 26  1  0  0  0  0
M  END
>  <MODEL>
4

>  <REMARK>
 VINA RESULT:      -6.1      5.315      8.558
  Name = 
  2 active torsions:
  status: ('A' for Active; 'I' for Inactive)
    1  A    between atoms: C_5  and  N_12
    2  A    between atoms: N_11  and  C_13
                            x       y       z     vdW  Elec       q    Type
                         _______ _______ _______ _____ _____    ______ ____

>  <TORSDO>
F 2

$$$$
=
 OpenBabel10222416093D

 26 30  0  0  1  0  0  0  0  0999 V2000
  187.3230  177.1400  137.8770 C   0  0  0  0  0  3  0  0  0  0  0  0
  183.6700  178.6860  142.2760 C   0  0  0  0  0  2  0  0  0  0  0  0
  184.7550  179.0480  139.9730 C   0  0  1  0  0  3  0  0  0  0  0  0
  183.3140  179.2750  139.4860 C   0  0  2  0  0  3  0  0  0  0  0  0
  184.8360  178.3290  141.3320 C   0  0  1  0  0  3  0  0  0  0  0  0
  185.4360  178.2260  138.9290 C   0  0  0  0  0  0  0  0  0  0  0  0
  189.1820  178.2550  139.7930 C   0  0  0  0  0  2  0  0  0  0  0  0
  186.8140  177.9460  138.9110 C   0  0  0  0  0  0  0  0  0  0  0  0
  187.3480  177.8460  141.3500 C   0  0  1  0  0  3  0  0  0  0  0  0
  189.7540  177.8070  141.1260 C   0  0  0  0  0  2  0  0  0  0  0  0
  185.1010  176.9090  136.9300 C   0  0  0  0  0  3  0  0  0  0  0  0
  182.8810  178.0790  138.1630 S   0  0  0  0  0  0  0  0  0  0  0  0
  184.9440  179.1100  144.1440 C   0  0  1  0  0  3  0  0  0  0  0  0
  186.4720  176.6310  136.8870 C   0  0  0  0  0  3  0  0  0  0  0  0
  184.2230  178.3130  145.1240 N   0  0  0  0  0  1  0  0  0  0  0  0
  187.6920  178.4790  140.0120 C   0  0  1  0  0  3  0  0  0  0  0  0
  188.6390  177.9410  142.1410 C   0  0  0  0  0  2  0  0  0  0  0  0
  186.0810  178.2880  143.5130 C   0  0  0  0  0  2  0  0  0  0  0  0
  186.1930  178.6050  142.0200 C   0  0  2  0  0  3  0  0  0  0  0  0
  184.0500  179.6790  143.2010 O   0  0  0  0  0  0  0  0  0  0  0  0
  184.6010  177.7010  137.9640 C   0  0  0  0  0  0  0  0  0  0  0  0
  182.0530  181.0840  138.6280 N   0  0  0  0  0  0  0  0  0  0  0  0
  183.1870  180.6330  138.9840 N   0  0  0  0  0  0  0  0  0  0  0  0
  182.7630  183.2990  138.4130 O   0  0  0  0  0  0  0  0  0  0  0  0
  181.9130  182.4140  138.1310 C   0  0  0  0  0  0  0  0  0  0  0  0
  180.8000  182.7440  137.3070 N   0  0  0  0  0  1  0  0  0  0  0  0
  1  8  1  0  0  0  0
  2 20  1  0  0  0  0
  3  6  1  6  0  0  0
  3  5  1  0  0  0  0
  4 23  1  6  0  0  0
  4  3  1  0  0  0  0
  5 19  1  0  0  0  0
  5  2  1  1  0  0  0
  7 10  1  0  0  0  0
  8  6  2  0  0  0  0
  8 16  1  0  0  0  0
  9 19  1  0  0  0  0
  9 17  1  1  0  0  0
 10 17  1  0  0  0  0
 11 21  2  0  0  0  0
 12  4  1  0  0  0  0
 13 15  1  1  0  0  0
 14 11  1  0  0  0  0
 14  1  2  0  0  0  0
 16  7  1  6  0  0  0
 16  9  1  0  0  0  0
 18 13  1  0  0  0  0
 19 18  1  1  0  0  0
 20 13  1  0  0  0  0
 21 12  1  0  0  0  0
 21  6  1  0  0  0  0
 22 23  2  0  0  0  0
 25 24  2  0  0  0  0
 25 22  1  0  0  0  0
 26 25  1  0  0  0  0
M  END
>  <MODEL>
5

>  <REMARK>
 VINA RESULT:      -6.0      3.206      5.391
  Name = 
  2 active torsions:
  status: ('A' for Active; 'I' for Inactive)
    1  A    between atoms: C_5  and  N_12
    2  A    between atoms: N_11  and  C_13
                            x       y       z     vdW  Elec       q    Type
                         _______ _______ _______ _____ _____    ______ ____

>  <TORSDO>
F 2

$$$$
=
 OpenBabel10222416093D

 26 30  0  0  1  0  0  0  0  0999 V2000
  183.9650  177.0440  138.3390 C   0  0  0  0  0  3  0  0  0  0  0  0
  182.5990  178.7310  143.8510 C   0  0  0  0  0  2  0  0  0  0  0  0
  182.4200  178.9210  141.2930 C   0  0  1  0  0  3  0  0  0  0  0  0
  180.9010  178.9390  141.5410 C   0  0  2  0  0  3  0  0  0  0  0  0
  183.2290  178.3830  142.4880 C   0  0  1  0  0  3  0  0  0  0  0  0
  182.6480  178.0520  140.1000 C   0  0  0  0  0  0  0  0  0  0  0  0
  186.3160  178.5660  139.0660 C   0  0  0  0  0  2  0  0  0  0  0  0
  183.8830  177.9140  139.4420 C   0  0  0  0  0  0  0  0  0  0  0  0
  185.5000  178.1640  141.3310 C   0  0  1  0  0  3  0  0  0  0  0  0
  187.5010  178.3430  139.9880 C   0  0  0  0  0  2  0  0  0  0  0  0
  181.6180  176.4760  138.5840 C   0  0  0  0  0  3  0  0  0  0  0  0
  180.0830  177.5540  140.6570 S   0  0  0  0  0  0  0  0  0  0  0  0
  184.5180  179.5050  144.8560 C   0  0  1  0  0  3  0  0  0  0  0  0
  182.8350  176.3350  137.9080 C   0  0  0  0  0  3  0  0  0  0  0  0
  184.4630  178.7620  146.1050 N   0  0  0  0  0  1  0  0  0  0  0  0
  185.0850  178.6630  139.9570 C   0  0  1  0  0  3  0  0  0  0  0  0
  186.9810  178.4840  141.4030 C   0  0  0  0  0  2  0  0  0  0  0  0
  185.3370  178.7330  143.8070 C   0  0  0  0  0  2  0  0  0  0  0  0
  184.6930  178.8770  142.4260 C   0  0  2  0  0  3  0  0  0  0  0  0
  183.2160  179.8620  144.4230 O   0  0  0  0  0  0  0  0  0  0  0  0
  181.5470  177.3320  139.6840 C   0  0  0  0  0  0  0  0  0  0  0  0
  180.3480  180.4910  139.8440 N   0  0  0  0  0  0  0  0  0  0  0  0
  180.3580  180.2070  141.0830 N   0  0  0  0  0  0  0  0  0  0  0  0
  178.9310  182.3390  140.0330 O   0  0  0  0  0  0  0  0  0  0  0  0
  179.8200  181.7330  139.3780 C   0  0  0  0  0  0  0  0  0  0  0  0
  180.3030  182.2910  138.1620 N   0  0  0  0  0  1  0  0  0  0  0  0
  1  8  1  0  0  0  0
  2 20  1  0  0  0  0
  3  6  1  6  0  0  0
  3  4  1  0  0  0  0
  3  5  1  0  0  0  0
  4 23  1  6  0  0  0
  5  2  1  1  0  0  0
  7 10  1  0  0  0  0
  8 16  1  0  0  0  0
  8  6  2  0  0  0  0
  9 17  1  1  0  0  0
  9 19  1  0  0  0  0
 10 17  1  0  0  0  0
 11 21  2  0  0  0  0
 12  4  1  0  0  0  0
 13 15  1  1  0  0  0
 14  1  2  0  0  0  0
 14 11  1  0  0  0  0
 16  7  1  6  0  0  0
 16  9  1  0  0  0  0
 18 13  1  0  0  0  0
 19  5  1  0  0  0  0
 19 18  1  1  0  0  0
 20 13  1  0  0  0  0
 21  6  1  0  0  0  0
 21 12  1  0  0  0  0
 22 23  2  0  0  0  0
 25 22  1  0  0  0  0
 25 24  2  0  0  0  0
 26 25  1  0  0  0  0
M  END
>  <MODEL>
6

>  <REMARK>
 VINA RESULT:      -6.0      3.406      5.416
  Name = 
  2 active torsions:
  status: ('A' for Active; 'I' for Inactive)
    1  A    between atoms: C_5  and  N_12
    2  A    between atoms: N_11  and  C_13
                            x       y       z     vdW  Elec       q    Type
                         _______ _______ _______ _____ _____    ______ ____

>  <TORSDO>
F 2

$$$$
=
 OpenBabel10222416093D

 26 30  0  0  1  0  0  0  0  0999 V2000
  181.6310  179.3770  143.2170 C   0  0  0  0  0  3  0  0  0  0  0  0
  185.8290  178.5580  139.1180 C   0  0  0  0  0  2  0  0  0  0  0  0
  183.6780  177.8790  140.3540 C   0  0  1  0  0  3  0  0  0  0  0  0
  183.0920  177.6980  138.9430 C   0  0  2  0  0  3  0  0  0  0  0  0
  184.9600  178.7330  140.3800 C   0  0  1  0  0  3  0  0  0  0  0  0
  182.6200  178.5380  141.1750 C   0  0  0  0  0  0  0  0  0  0  0  0
  183.8050  178.3530  144.8280 C   0  0  0  0  0  2  0  0  0  0  0  0
  182.6930  178.7220  142.5670 C   0  0  0  0  0  0  0  0  0  0  0  0
  185.1470  179.0470  142.9120 C   0  0  1  0  0  3  0  0  0  0  0  0
  185.1300  178.9030  145.3230 C   0  0  0  0  0  2  0  0  0  0  0  0
  180.4760  179.6520  141.1010 C   0  0  0  0  0  3  0  0  0  0  0  0
  181.6220  178.7710  138.7080 S   0  0  0  0  0  0  0  0  0  0  0  0
  187.8350  178.2530  140.2040 C   0  0  1  0  0  3  0  0  0  0  0  0
  180.5240  179.8320  142.4870 C   0  0  0  0  0  3  0  0  0  0  0  0
  188.6620  179.1970  139.4700 N   0  0  0  0  0  1  0  0  0  0  0  0
  183.9150  178.2530  143.3130 C   0  0  1  0  0  3  0  0  0  0  0  0
  186.0530  178.9530  144.1240 C   0  0  0  0  0  2  0  0  0  0  0  0
  187.2250  178.9250  141.4460 C   0  0  0  0  0  2  0  0  0  0  0  0
  185.7870  178.4430  141.6530 C   0  0  2  0  0  3  0  0  0  0  0  0
  186.8800  177.6470  139.3480 O   0  0  0  0  0  0  0  0  0  0  0  0
  181.5370  179.0100  140.4610 C   0  0  0  0  0  0  0  0  0  0  0  0
  181.6100  176.0030  138.2190 N   0  0  0  0  0  0  0  0  0  0  0  0
  182.7220  176.3050  138.7550 N   0  0  0  0  0  0  0  0  0  0  0  0
  180.1430  174.2050  138.4940 O   0  0  0  0  0  0  0  0  0  0  0  0
  181.2300  174.6390  138.0300 C   0  0  0  0  0  0  0  0  0  0  0  0
  182.0890  173.7630  137.3090 N   0  0  0  0  0  1  0  0  0  0  0  0
  2 20  1  0  0  0  0
  3  5  1  0  0  0  0
  3  6  1  1  0  0  0
  4 23  1  1  0  0  0
  4  3  1  0  0  0  0
  5  2  1  6  0  0  0
  5 19  1  0  0  0  0
  6  8  2  0  0  0  0
  7 10  1  0  0  0  0
  8  1  1  0  0  0  0
  8 16  1  0  0  0  0
  9 16  1  0  0  0  0
  9 17  1  1  0  0  0
 11 14  1  0  0  0  0
 12  4  1  0  0  0  0
 12 21  1  0  0  0  0
 13 15  1  6  0  0  0
 13 18  1  0  0  0  0
 14  1  2  0  0  0  0
 16  7  1  1  0  0  0
 17 10  1  0  0  0  0
 19 18  1  6  0  0  0
 19  9  1  0  0  0  0
 20 13  1  0  0  0  0
 21 11  2  0  0  0  0
 21  6  1  0  0  0  0
 22 23  2  0  0  0  0
 25 22  1  0  0  0  0
 25 24  2  0  0  0  0
 26 25  1  0  0  0  0
M  END
>  <MODEL>
7

>  <REMARK>
 VINA RESULT:      -6.0      1.580      2.554
  Name = 
  2 active torsions:
  status: ('A' for Active; 'I' for Inactive)
    1  A    between atoms: C_5  and  N_12
    2  A    between atoms: N_11  and  C_13
                            x       y       z     vdW  Elec       q    Type
                         _______ _______ _______ _____ _____    ______ ____

>  <TORSDO>
F 2

$$$$
=
 OpenBabel10222416093D

 26 30  0  0  1  0  0  0  0  0999 V2000
  187.9300  178.1520  140.4990 C   0  0  0  0  0  3  0  0  0  0  0  0
  191.4850  176.1420  136.2080 C   0  0  0  0  0  2  0  0  0  0  0  0
  189.4300  175.9640  137.7430 C   0  0  1  0  0  3  0  0  0  0  0  0
  188.6630  175.6490  136.4470 C   0  0  2  0  0  3  0  0  0  0  0  0
  190.7980  176.6270  137.5000 C   0  0  1  0  0  3  0  0  0  0  0  0
  188.5620  176.8800  138.5420 C   0  0  0  0  0  0  0  0  0  0  0  0
  190.1410  177.1000  142.0410 C   0  0  0  0  0  2  0  0  0  0  0  0
  188.8220  177.2650  139.8690 C   0  0  0  0  0  0  0  0  0  0  0  0
  191.3200  177.2990  139.9130 C   0  0  1  0  0  3  0  0  0  0  0  0
  191.5720  177.5320  142.3050 C   0  0  0  0  0  2  0  0  0  0  0  0
  186.5740  178.2530  138.4900 C   0  0  0  0  0  3  0  0  0  0  0  0
  187.3150  176.8650  136.1790 S   0  0  0  0  0  0  0  0  0  0  0  0
  193.5540  175.7350  137.1290 C   0  0  1  0  0  3  0  0  0  0  0  0
  186.8080  178.6370  139.8150 C   0  0  0  0  0  3  0  0  0  0  0  0
  194.3950  176.4320  136.1690 N   0  0  0  0  0  1  0  0  0  0  0  0
  190.0590  176.7530  140.5600 C   0  0  1  0  0  3  0  0  0  0  0  0
  192.3460  177.2690  141.0300 C   0  0  0  0  0  2  0  0  0  0  0  0
  193.1810  176.6680  138.2930 C   0  0  0  0  0  2  0  0  0  0  0  0
  191.7300  176.4260  138.7170 C   0  0  2  0  0  3  0  0  0  0  0  0
  192.4380  175.1410  136.4840 O   0  0  0  0  0  0  0  0  0  0  0  0
  187.4670  177.3810  137.8680 C   0  0  0  0  0  0  0  0  0  0  0  0
  186.8560  174.1380  136.6630 N   0  0  0  0  0  0  0  0  0  0  0  0
  188.1090  174.3080  136.5330 N   0  0  0  0  0  0  0  0  0  0  0  0
  186.7880  171.8730  136.0940 O   0  0  0  0  0  0  0  0  0  0  0  0
  186.2960  172.8280  136.7520 C   0  0  0  0  0  0  0  0  0  0  0  0
  185.1710  172.5990  137.5920 N   0  0  0  0  0  1  0  0  0  0  0  0
  2 20  1  0  0  0  0
  3  6  1  1  0  0  0
  4 23  1  1  0  0  0
  4  3  1  0  0  0  0
  5  2  1  6  0  0  0
  5  3  1  0  0  0  0
  5 19  1  0  0  0  0
  6  8  2  0  0  0  0
  7 10  1  0  0  0  0
  8  1  1  0  0  0  0
  8 16  1  0  0  0  0
  9 16  1  0  0  0  0
  9 17  1  1  0  0  0
 11 14  1  0  0  0  0
 12  4  1  0  0  0  0
 12 21  1  0  0  0  0
 13 15  1  6  0  0  0
 13 18  1  0  0  0  0
 14  1  2  0  0  0  0
 16  7  1  1  0  0  0
 17 10  1  0  0  0  0
 19 18  1  6  0  0  0
 19  9  1  0  0  0  0
 20 13  1  0  0  0  0
 21 11  2  0  0  0  0
 21  6  1  0  0  0  0
 22 25  1  0  0  0  0
 23 22  2  0  0  0  0
 24 25  2  0  0  0  0
 25 26  1  0  0  0  0
M  END
>  <MODEL>
8

>  <REMARK>
 VINA RESULT:      -6.0      4.484      5.956
  Name = 
  2 active torsions:
  status: ('A' for Active; 'I' for Inactive)
    1  A    between atoms: C_5  and  N_12
    2  A    between atoms: N_11  and  C_13
                            x       y       z     vdW  Elec       q    Type
                         _______ _______ _______ _____ _____    ______ ____

>  <TORSDO>
F 2

$$$$
=
 OpenBabel10222416093D

 26 30  0  0  1  0  0  0  0  0999 V2000
  181.4110  179.2790  141.0930 C   0  0  0  0  0  3  0  0  0  0  0  0
  186.3280  178.2410  137.9560 C   0  0  0  0  0  2  0  0  0  0  0  0
  183.9920  177.6020  138.8210 C   0  0  1  0  0  3  0  0  0  0  0  0
  183.6900  177.2750  137.3480 C   0  0  2  0  0  3  0  0  0  0  0  0
  185.2310  178.4980  139.0080 C   0  0  1  0  0  3  0  0  0  0  0  0
  182.7850  178.2950  139.3620 C   0  0  0  0  0  0  0  0  0  0  0  0
  183.2530  178.4770  143.1750 C   0  0  0  0  0  2  0  0  0  0  0  0
  182.5890  178.6050  140.7200 C   0  0  0  0  0  0  0  0  0  0  0  0
  184.9260  179.0430  141.4890 C   0  0  1  0  0  3  0  0  0  0  0  0
  184.4510  179.1140  143.8570 C   0  0  0  0  0  2  0  0  0  0  0  0
  180.6770  179.3240  138.7800 C   0  0  0  0  0  3  0  0  0  0  0  0
  182.2740  178.2730  136.7400 S   0  0  0  0  0  0  0  0  0  0  0  0
  188.0940  178.1020  139.4240 C   0  0  1  0  0  3  0  0  0  0  0  0
  180.4570  179.6290  140.1280 C   0  0  0  0  0  3  0  0  0  0  0  0
  189.0300  179.0050  138.7730 N   0  0  0  0  0  1  0  0  0  0  0  0
  183.6530  178.2460  141.7230 C   0  0  1  0  0  3  0  0  0  0  0  0
  185.5850  179.0880  142.8540 C   0  0  0  0  0  2  0  0  0  0  0  0
  187.2470  178.8620  140.4600 C   0  0  0  0  0  2  0  0  0  0  0  0
  185.8040  178.3510  140.4360 C   0  0  2  0  0  3  0  0  0  0  0  0
  187.3300  177.3900  138.4640 O   0  0  0  0  0  0  0  0  0  0  0  0
  181.8520  178.6650  138.4160 C   0  0  0  0  0  0  0  0  0  0  0  0
  184.2370  174.9860  137.5820 N   0  0  0  0  0  0  0  0  0  0  0  0
  183.3850  175.8600  137.2260 N   0  0  0  0  0  0  0  0  0  0  0  0
  182.7800  173.1900  137.2520 O   0  0  0  0  0  0  0  0  0  0  0  0
  183.9540  173.5920  137.4660 C   0  0  0  0  0  0  0  0  0  0  0  0
  185.0100  172.6470  137.5930 N   0  0  0  0  0  1  0  0  0  0  0  0
  2 20  1  0  0  0  0
  3  5  1  0  0  0  0
  3  6  1  6  0  0  0
  4 23  1  1  0  0  0
  4  3  1  0  0  0  0
  5  2  1  6  0  0  0
  5 19  1  0  0  0  0
  6  8  2  0  0  0  0
  7 10  1  0  0  0  0
  8  1  1  0  0  0  0
  8 16  1  0  0  0  0
  9 16  1  0  0  0  0
  9 17  1  1  0  0  0
 11 14  1  0  0  0  0
 12  4  1  0  0  0  0
 12 21  1  0  0  0  0
 13 15  1  6  0  0  0
 13 18  1  0  0  0  0
 14  1  2  0  0  0  0
 16  7  1  1  0  0  0
 17 10  1  0  0  0  0
 19 18  1  6  0  0  0
 19  9  1  0  0  0  0
 20 13  1  0  0  0  0
 21 11  2  0  0  0  0
 21  6  1  0  0  0  0
 23 22  2  0  0  0  0
 24 25  2  0  0  0  0
 25 22  1  0  0  0  0
 25 26  1  0  0  0  0
M  END
>  <MODEL>
9

>  <REMARK>
 VINA RESULT:      -5.8      2.450      3.680
  Name = 
  2 active torsions:
  status: ('A' for Active; 'I' for Inactive)
    1  A    between atoms: C_5  and  N_12
    2  A    between atoms: N_11  and  C_13
                            x       y       z     vdW  Elec       q    Type
                         _______ _______ _______ _____ _____    ______ ____

>  <TORSDO>
F 2

$$$$
