=
 OpenBabel10222417263D

 28 29  0  0  1  0  0  0  0  0999 V2000
  188.8050  175.5680  142.8740 C   0  0  0  0  0  2  0  0  0  0  0  0
  189.2540  176.8160  142.7390 C   0  0  0  0  0  0  0  0  0  0  0  0
  187.6420  178.5980  143.0680 O   0  0  0  0  0  0  0  0  0  0  0  0
  188.5230  177.4690  145.1150 C   0  0  2  0  0  3  0  0  0  0  0  0
  186.0760  177.9260  144.7920 C   0  0  1  0  0  3  0  0  0  0  0  0
  186.4580  177.8710  143.3030 C   0  0  0  0  0  2  0  0  0  0  0  0
  188.7370  177.9060  143.6470 C   0  0  1  0  0  3  0  0  0  0  0  0
  187.2870  178.1430  145.7090 C   0  0  0  0  0  2  0  0  0  0  0  0
  185.0040  178.8020  145.0680 O   0  0  0  0  0  0  0  0  0  0  0  0
  184.0370  178.6770  144.0560 C   0  0  0  0  0  1  0  0  0  0  0  0
  189.7570  177.7970  145.9390 C   0  0  0  0  0  2  0  0  0  0  0  0
  192.4680  175.3270  146.8720 O   0  0  0  0  0  0  0  0  0  0  0  0
  191.6910  177.1870  147.9570 O   0  0  0  0  0  1  0  0  0  0  0  0
  190.7080  176.6960  145.8950 N   0  0  0  0  0  2  0  0  0  0  0  0
  191.6270  176.4280  146.9550 C   0  0  0  0  0  0  0  0  0  0  0  0
  192.1090  177.9750  140.8010 O   0  0  0  0  0  0  0  0  0  0  0  0
  190.0440  177.1800  141.5910 N   0  0  0  0  0  0  0  0  0  0  0  0
  191.4630  177.4120  141.7240 C   0  0  0  0  0  0  0  0  0  0  0  0
  192.1380  177.0160  142.8750 O   0  0  0  0  0  1  0  0  0  0  0  0
  188.9420  176.8180  138.0400 N   0  0  0  0  0  0  0  0  0  0  0  0
  188.3880  177.9940  139.9570 C   0  0  0  0  0  3  0  0  0  0  0  0
  188.1300  177.7010  138.5340 C   0  0  0  0  0  0  0  0  0  0  0  0
  190.6880  175.5910  139.0520 O   0  0  0  0  0  0  0  0  0  0  0  0
  189.4160  177.2270  140.2960 C   0  0  0  0  0  0  0  0  0  0  0  0
  189.7900  176.4710  139.1180 C   0  0  0  0  0  0  0  0  0  0  0  0
  187.2520  178.5820  136.5210 O   0  0  0  0  0  0  0  0  0  0  0  0
  187.0690  178.3340  137.7410 C   0  0  0  0  0  0  0  0  0  0  0  0
  185.8270  178.6720  138.3480 N   0  0  0  0  0  1  0  0  0  0  0  0
  2  1  2  0  0  0  0
  3  6  1  0  0  0  0
  3  7  1  0  0  0  0
  4  8  1  0  0  0  0
  4 11  1  1  0  0  0
  5  9  1  6  0  0  0
  5  8  1  0  0  0  0
  6  5  1  0  0  0  0
  7  2  1  6  0  0  0
  7  4  1  0  0  0  0
 10  9  1  0  0  0  0
 12 15  2  0  0  0  0
 14 11  1  0  0  0  0
 14 15  1  0  0  0  0
 15 13  1  0  0  0  0
 16 18  2  0  0  0  0
 17 18  1  0  0  0  0
 17  2  1  0  0  0  0
 18 19  1  0  0  0  0
 20 22  2  0  0  0  0
 20 25  1  0  0  0  0
 21 24  2  0  0  0  0
 22 21  1  0  0  0  0
 23 25  2  0  0  0  0
 24 17  1  0  0  0  0
 25 24  1  0  0  0  0
 26 27  2  0  0  0  0
 27 28  1  0  0  0  0
 27 22  1  0  0  0  0
M  END
>  <MODEL>
1

>  <REMARK>
 VINA RESULT:      -7.2      0.000      0.000
  Name = 
  7 active torsions:
  status: ('A' for Active; 'I' for Inactive)
    1  A    between atoms: C_3  and  C_14
    2  A    between atoms: N_5  and  C_22
    3  A    between atoms: N_5  and  C_26
    4  A    between atoms: O_6  and  C_12
    5  A    between atoms: C_10  and  C_18
    6  A    between atoms: C_14  and  N_17
    7  A    between atoms: C_22  and  C_23
                            x       y       z     vdW  Elec       q    Type
                         _______ _______ _______ _____ _____    ______ ____

>  <TORSDO>
F 7

$$$$
=
 OpenBabel10222417263D

 28 29  0  0  1  0  0  0  0  0999 V2000
  189.1860  175.5850  142.8630 C   0  0  0  0  0  2  0  0  0  0  0  0
  189.3290  176.8820  143.1390 C   0  0  0  0  0  0  0  0  0  0  0  0
  190.4090  177.8850  141.2140 O   0  0  0  0  0  0  0  0  0  0  0  0
  187.9110  177.9000  141.2520 C   0  0  2  0  0  3  0  0  0  0  0  0
  189.2090  177.2250  139.2130 C   0  0  1  0  0  3  0  0  0  0  0  0
  190.2850  176.8620  140.2520 C   0  0  0  0  0  2  0  0  0  0  0  0
  189.2490  177.9030  142.0300 C   0  0  1  0  0  3  0  0  0  0  0  0
  188.1440  178.1780  139.7690 C   0  0  0  0  0  2  0  0  0  0  0  0
  189.7410  177.6440  137.9740 O   0  0  0  0  0  0  0  0  0  0  0  0
  189.0900  178.8220  137.5700 C   0  0  0  0  0  1  0  0  0  0  0  0
  186.9640  178.9290  141.8460 C   0  0  0  0  0  2  0  0  0  0  0  0
  183.3490  178.2310  140.9710 O   0  0  0  0  0  1  0  0  0  0  0  0
  184.8700  179.6700  140.0430 O   0  0  0  0  0  0  0  0  0  0  0  0
  185.6020  178.4150  141.8730 N   0  0  0  0  0  2  0  0  0  0  0  0
  184.6120  178.8040  140.9200 C   0  0  0  0  0  0  0  0  0  0  0  0
  191.6390  177.6610  145.8410 O   0  0  0  0  0  1  0  0  0  0  0  0
  189.7910  177.2980  144.4380 N   0  0  0  0  0  0  0  0  0  0  0  0
  191.1930  177.5520  144.6690 C   0  0  0  0  0  0  0  0  0  0  0  0
  192.0720  177.6810  143.5980 O   0  0  0  0  0  0  0  0  0  0  0  0
  187.7010  177.4500  147.5310 N   0  0  0  0  0  0  0  0  0  0  0  0
  187.7440  178.3010  145.3780 C   0  0  0  0  0  3  0  0  0  0  0  0
  187.0730  178.2110  146.6890 C   0  0  0  0  0  0  0  0  0  0  0  0
  189.7310  176.2610  147.3210 O   0  0  0  0  0  0  0  0  0  0  0  0
  188.8260  177.5390  145.4800 C   0  0  0  0  0  0  0  0  0  0  0  0
  188.8340  176.9890  146.8200 C   0  0  0  0  0  0  0  0  0  0  0  0
  185.8440  179.9330  147.7500 O   0  0  0  0  0  0  0  0  0  0  0  0
  185.8240  178.9040  147.0250 C   0  0  0  0  0  0  0  0  0  0  0  0
  184.5800  178.4160  146.5330 N   0  0  0  0  0  1  0  0  0  0  0  0
  1  2  2  0  0  0  0
  2 17  1  0  0  0  0
  3  7  1  0  0  0  0
  4 11  1  1  0  0  0
  4  7  1  0  0  0  0
  5  9  1  6  0  0  0
  5  8  1  0  0  0  0
  5  6  1  0  0  0  0
  6  3  1  0  0  0  0
  7  2  1  1  0  0  0
  8  4  1  0  0  0  0
 10  9  1  0  0  0  0
 11 14  1  0  0  0  0
 13 15  2  0  0  0  0
 15 12  1  0  0  0  0
 15 14  1  0  0  0  0
 17 18  1  0  0  0  0
 17 24  1  0  0  0  0
 18 16  1  0  0  0  0
 19 18  2  0  0  0  0
 21 24  2  0  0  0  0
 21 22  1  0  0  0  0
 22 27  1  0  0  0  0
 22 20  2  0  0  0  0
 24 25  1  0  0  0  0
 25 23  2  0  0  0  0
 25 20  1  0  0  0  0
 27 26  2  0  0  0  0
 28 27  1  0  0  0  0
M  END
>  <MODEL>
2

>  <REMARK>
 VINA RESULT:      -7.1      2.469      6.959
  Name = 
  7 active torsions:
  status: ('A' for Active; 'I' for Inactive)
    1  A    between atoms: C_3  and  C_14
    2  A    between atoms: N_5  and  C_22
    3  A    between atoms: N_5  and  C_26
    4  A    between atoms: O_6  and  C_12
    5  A    between atoms: C_10  and  C_18
    6  A    between atoms: C_14  and  N_17
    7  A    between atoms: C_22  and  C_23
                            x       y       z     vdW  Elec       q    Type
                         _______ _______ _______ _____ _____    ______ ____

>  <TORSDO>
F 7

$$$$
=
 OpenBabel10222417263D

 28 29  0  0  1  0  0  0  0  0999 V2000
  188.5300  175.7220  143.0160 C   0  0  0  0  0  2  0  0  0  0  0  0
  189.2870  176.8200  143.0030 C   0  0  0  0  0  0  0  0  0  0  0  0
  188.0110  178.4600  144.2540 O   0  0  0  0  0  0  0  0  0  0  0  0
  189.7460  177.1710  145.5070 C   0  0  2  0  0  3  0  0  0  0  0  0
  187.4300  177.5160  146.4110 C   0  0  1  0  0  3  0  0  0  0  0  0
  187.0740  177.6430  144.9200 C   0  0  0  0  0  2  0  0  0  0  0  0
  189.2510  177.7750  144.1720 C   0  0  1  0  0  3  0  0  0  0  0  0
  188.9280  177.7040  146.6820 C   0  0  0  0  0  2  0  0  0  0  0  0
  186.6090  178.2940  147.2560 O   0  0  0  0  0  0  0  0  0  0  0  0
  185.3540  178.4650  146.6450 C   0  0  0  0  0  1  0  0  0  0  0  0
  191.2210  177.4800  145.7000 C   0  0  0  0  0  2  0  0  0  0  0  0
  192.7510  175.4880  148.5310 O   0  0  0  0  0  1  0  0  0  0  0  0
  192.4560  174.9750  146.3180 O   0  0  0  0  0  0  0  0  0  0  0  0
  191.6630  177.0570  147.0210 N   0  0  0  0  0  2  0  0  0  0  0  0
  192.3040  175.8020  147.2550 C   0  0  0  0  0  0  0  0  0  0  0  0
  191.9660  177.9160  140.7970 O   0  0  0  0  0  0  0  0  0  0  0  0
  189.9540  177.2240  141.7920 N   0  0  0  0  0  0  0  0  0  0  0  0
  191.3940  177.3240  141.7500 C   0  0  0  0  0  0  0  0  0  0  0  0
  192.1700  176.7670  142.7610 O   0  0  0  0  0  1  0  0  0  0  0  0
  187.5760  178.3000  139.1190 N   0  0  0  0  0  0  0  0  0  0  0  0
  189.2860  176.7760  139.4620 C   0  0  0  0  0  3  0  0  0  0  0  0
  188.2630  177.3490  138.5660 C   0  0  0  0  0  0  0  0  0  0  0  0
  187.7400  179.2760  141.2640 O   0  0  0  0  0  0  0  0  0  0  0  0
  189.1730  177.4450  140.6020 C   0  0  0  0  0  0  0  0  0  0  0  0
  188.1110  178.4140  140.4240 C   0  0  0  0  0  0  0  0  0  0  0  0
  187.4880  175.7890  136.9650 O   0  0  0  0  0  0  0  0  0  0  0  0
  188.0320  176.9030  137.1870 C   0  0  0  0  0  0  0  0  0  0  0  0
  188.4230  177.7240  136.0930 N   0  0  0  0  0  1  0  0  0  0  0  0
  2  1  2  0  0  0  0
  3  6  1  0  0  0  0
  4 11  1  1  0  0  0
  4  8  1  0  0  0  0
  5  8  1  0  0  0  0
  5  9  1  1  0  0  0
  6  5  1  0  0  0  0
  7  2  1  6  0  0  0
  7  3  1  0  0  0  0
  7  4  1  0  0  0  0
 10  9  1  0  0  0  0
 11 14  1  0  0  0  0
 13 15  2  0  0  0  0
 14 15  1  0  0  0  0
 15 12  1  0  0  0  0
 16 18  2  0  0  0  0
 17  2  1  0  0  0  0
 18 17  1  0  0  0  0
 18 19  1  0  0  0  0
 20 25  1  0  0  0  0
 21 24  2  0  0  0  0
 22 20  2  0  0  0  0
 22 21  1  0  0  0  0
 24 17  1  0  0  0  0
 25 24  1  0  0  0  0
 25 23  2  0  0  0  0
 26 27  2  0  0  0  0
 27 22  1  0  0  0  0
 28 27  1  0  0  0  0
M  END
>  <MODEL>
3

>  <REMARK>
 VINA RESULT:      -7.0      1.523      2.036
  Name = 
  7 active torsions:
  status: ('A' for Active; 'I' for Inactive)
    1  A    between atoms: C_3  and  C_14
    2  A    between atoms: N_5  and  C_22
    3  A    between atoms: N_5  and  C_26
    4  A    between atoms: O_6  and  C_12
    5  A    between atoms: C_10  and  C_18
    6  A    between atoms: C_14  and  N_17
    7  A    between atoms: C_22  and  C_23
                            x       y       z     vdW  Elec       q    Type
                         _______ _______ _______ _____ _____    ______ ____

>  <TORSDO>
F 7

$$$$
=
 OpenBabel10222417263D

 28 29  0  0  1  0  0  0  0  0999 V2000
  188.3520  175.6940  143.1330 C   0  0  0  0  0  2  0  0  0  0  0  0
  188.8510  176.9240  143.0030 C   0  0  0  0  0  0  0  0  0  0  0  0
  187.8440  178.5500  144.4940 O   0  0  0  0  0  0  0  0  0  0  0  0
  189.6300  177.0860  145.4480 C   0  0  2  0  0  3  0  0  0  0  0  0
  187.4670  177.5050  146.6490 C   0  0  1  0  0  3  0  0  0  0  0  0
  186.9430  177.7480  145.2230 C   0  0  0  0  0  2  0  0  0  0  0  0
  189.0180  177.8020  144.2200 C   0  0  1  0  0  3  0  0  0  0  0  0
  188.9960  177.5890  146.7430 C   0  0  0  0  0  2  0  0  0  0  0  0
  186.8050  178.2740  147.6320 O   0  0  0  0  0  0  0  0  0  0  0  0
  185.6850  178.8940  147.0520 C   0  0  0  0  0  1  0  0  0  0  0  0
  191.1340  177.2960  145.4740 C   0  0  0  0  0  2  0  0  0  0  0  0
  192.8640  175.6370  148.4030 O   0  0  0  0  0  1  0  0  0  0  0  0
  192.4300  174.8780  146.2860 O   0  0  0  0  0  0  0  0  0  0  0  0
  191.6660  177.0250  146.8020 N   0  0  0  0  0  2  0  0  0  0  0  0
  192.3320  175.8060  147.1320 C   0  0  0  0  0  0  0  0  0  0  0  0
  187.9780  178.6130  139.9010 O   0  0  0  0  0  0  0  0  0  0  0  0
  189.0110  177.5050  141.6960 N   0  0  0  0  0  0  0  0  0  0  0  0
  187.9640  178.3190  141.1250 C   0  0  0  0  0  0  0  0  0  0  0  0
  186.9230  178.7900  141.9200 O   0  0  0  0  0  1  0  0  0  0  0  0
  192.5390  177.4380  140.4680 N   0  0  0  0  0  0  0  0  0  0  0  0
  190.4230  176.7540  139.8200 C   0  0  0  0  0  3  0  0  0  0  0  0
  191.8670  176.8450  139.5300 C   0  0  0  0  0  0  0  0  0  0  0  0
  191.8400  178.3190  142.5450 O   0  0  0  0  0  0  0  0  0  0  0  0
  190.2610  177.3350  141.0020 C   0  0  0  0  0  0  0  0  0  0  0  0
  191.5700  177.7740  141.4430 C   0  0  0  0  0  0  0  0  0  0  0  0
  193.5570  176.8460  137.8730 O   0  0  0  0  0  0  0  0  0  0  0  0
  192.4960  176.3250  138.3100 C   0  0  0  0  0  0  0  0  0  0  0  0
  191.9120  175.2300  137.6130 N   0  0  0  0  0  1  0  0  0  0  0  0
  2  1  2  0  0  0  0
  3  6  1  0  0  0  0
  4 11  1  1  0  0  0
  4  8  1  0  0  0  0
  5  8  1  0  0  0  0
  5  9  1  1  0  0  0
  6  5  1  0  0  0  0
  7  2  1  6  0  0  0
  7  3  1  0  0  0  0
  7  4  1  0  0  0  0
 10  9  1  0  0  0  0
 11 14  1  0  0  0  0
 13 15  2  0  0  0  0
 14 15  1  0  0  0  0
 15 12  1  0  0  0  0
 16 18  2  0  0  0  0
 17  2  1  0  0  0  0
 18 17  1  0  0  0  0
 18 19  1  0  0  0  0
 20 25  1  0  0  0  0
 21 24  2  0  0  0  0
 22 21  1  0  0  0  0
 22 20  2  0  0  0  0
 24 25  1  0  0  0  0
 24 17  1  0  0  0  0
 25 23  2  0  0  0  0
 26 27  2  0  0  0  0
 27 22  1  0  0  0  0
 28 27  1  0  0  0  0
M  END
>  <MODEL>
4

>  <REMARK>
 VINA RESULT:      -7.0      2.102      3.389
  Name = 
  7 active torsions:
  status: ('A' for Active; 'I' for Inactive)
    1  A    between atoms: C_3  and  C_14
    2  A    between atoms: N_5  and  C_22
    3  A    between atoms: N_5  and  C_26
    4  A    between atoms: O_6  and  C_12
    5  A    between atoms: C_10  and  C_18
    6  A    between atoms: C_14  and  N_17
    7  A    between atoms: C_22  and  C_23
                            x       y       z     vdW  Elec       q    Type
                         _______ _______ _______ _____ _____    ______ ____

>  <TORSDO>
F 7

$$$$
=
 OpenBabel10222417263D

 28 29  0  0  1  0  0  0  0  0999 V2000
  187.3060  176.2620  143.5400 C   0  0  0  0  0  2  0  0  0  0  0  0
  187.6070  177.5600  143.4850 C   0  0  0  0  0  0  0  0  0  0  0  0
  186.0250  179.1540  142.5690 O   0  0  0  0  0  0  0  0  0  0  0  0
  185.4720  178.1490  144.7880 C   0  0  2  0  0  3  0  0  0  0  0  0
  183.7770  178.3270  142.9460 C   0  0  1  0  0  3  0  0  0  0  0  0
  185.0290  178.3010  142.0520 C   0  0  0  0  0  2  0  0  0  0  0  0
  186.5430  178.5940  143.7650 C   0  0  1  0  0  3  0  0  0  0  0  0
  184.0950  178.6870  144.4030 C   0  0  0  0  0  2  0  0  0  0  0  0
  182.7130  179.0810  142.4050 O   0  0  0  0  0  0  0  0  0  0  0  0
  182.3930  178.5760  141.1330 C   0  0  0  0  0  1  0  0  0  0  0  0
  185.8580  178.6210  146.1810 C   0  0  0  0  0  2  0  0  0  0  0  0
  188.2490  176.9080  148.5620 O   0  0  0  0  0  1  0  0  0  0  0  0
  187.7370  179.1220  148.2790 O   0  0  0  0  0  0  0  0  0  0  0  0
  186.6600  177.6120  146.8580 N   0  0  0  0  0  2  0  0  0  0  0  0
  187.5580  177.9280  147.9230 C   0  0  0  0  0  0  0  0  0  0  0  0
  190.8960  179.1090  143.3100 O   0  0  0  0  0  0  0  0  0  0  0  0
  188.8670  177.9870  142.9330 N   0  0  0  0  0  0  0  0  0  0  0  0
  189.9060  178.4990  143.7950 C   0  0  0  0  0  0  0  0  0  0  0  0
  189.8280  178.3280  145.1730 O   0  0  0  0  0  1  0  0  0  0  0  0
  189.9800  177.0340  139.4960 N   0  0  0  0  0  0  0  0  0  0  0  0
  188.5440  178.5170  140.5470 C   0  0  0  0  0  3  0  0  0  0  0  0
  189.1250  177.9890  139.2970 C   0  0  0  0  0  0  0  0  0  0  0  0
  190.6920  175.9910  141.4920 O   0  0  0  0  0  0  0  0  0  0  0  0
  189.1080  177.8160  141.5230 C   0  0  0  0  0  0  0  0  0  0  0  0
  190.0130  176.8720  140.9010 C   0  0  0  0  0  0  0  0  0  0  0  0
  188.9830  179.6870  137.6550 O   0  0  0  0  0  0  0  0  0  0  0  0
  188.7830  178.4810  137.9580 C   0  0  0  0  0  0  0  0  0  0  0  0
  188.2210  177.5990  136.9930 N   0  0  0  0  0  1  0  0  0  0  0  0
  2  1  2  0  0  0  0
  3  7  1  0  0  0  0
  4 11  1  1  0  0  0
  5  9  1  6  0  0  0
  5  8  1  0  0  0  0
  6  3  1  0  0  0  0
  6  5  1  0  0  0  0
  7  2  1  6  0  0  0
  7  4  1  0  0  0  0
  8  4  1  0  0  0  0
 10  9  1  0  0  0  0
 11 14  1  0  0  0  0
 14 15  1  0  0  0  0
 15 13  2  0  0  0  0
 15 12  1  0  0  0  0
 16 18  2  0  0  0  0
 17  2  1  0  0  0  0
 17 18  1  0  0  0  0
 18 19  1  0  0  0  0
 20 25  1  0  0  0  0
 21 24  2  0  0  0  0
 22 20  2  0  0  0  0
 22 21  1  0  0  0  0
 24 17  1  0  0  0  0
 25 23  2  0  0  0  0
 25 24  1  0  0  0  0
 26 27  2  0  0  0  0
 27 22  1  0  0  0  0
 28 27  1  0  0  0  0
M  END
>  <MODEL>
5

>  <REMARK>
 VINA RESULT:      -7.0      2.251      2.913
  Name = 
  7 active torsions:
  status: ('A' for Active; 'I' for Inactive)
    1  A    between atoms: C_3  and  C_14
    2  A    between atoms: N_5  and  C_22
    3  A    between atoms: N_5  and  C_26
    4  A    between atoms: O_6  and  C_12
    5  A    between atoms: C_10  and  C_18
    6  A    between atoms: C_14  and  N_17
    7  A    between atoms: C_22  and  C_23
                            x       y       z     vdW  Elec       q    Type
                         _______ _______ _______ _____ _____    ______ ____

>  <TORSDO>
F 7

$$$$
=
 OpenBabel10222417263D

 28 29  0  0  1  0  0  0  0  0999 V2000
  187.9200  176.0190  143.3300 C   0  0  0  0  0  2  0  0  0  0  0  0
  187.7710  177.2560  143.8050 C   0  0  0  0  0  0  0  0  0  0  0  0
  188.5160  178.5700  141.9070 O   0  0  0  0  0  0  0  0  0  0  0  0
  186.0500  178.3840  142.2640 C   0  0  2  0  0  3  0  0  0  0  0  0
  187.0970  178.0690  140.0060 C   0  0  1  0  0  3  0  0  0  0  0  0
  188.3240  177.6660  140.8420 C   0  0  0  0  0  2  0  0  0  0  0  0
  187.4780  178.3960  142.8590 C   0  0  1  0  0  3  0  0  0  0  0  0
  186.0610  178.8610  140.8130 C   0  0  0  0  0  2  0  0  0  0  0  0
  187.4290  178.6780  138.7750 O   0  0  0  0  0  0  0  0  0  0  0  0
  188.8140  178.5610  138.5640 C   0  0  0  0  0  1  0  0  0  0  0  0
  185.1320  179.2560  143.1050 C   0  0  0  0  0  2  0  0  0  0  0  0
  181.5090  178.4860  143.8860 O   0  0  0  0  0  0  0  0  0  0  0  0
  183.1880  179.3190  145.2030 O   0  0  0  0  0  1  0  0  0  0  0  0
  183.7530  178.7990  142.9970 N   0  0  0  0  0  2  0  0  0  0  0  0
  182.8240  178.8890  144.0770 C   0  0  0  0  0  0  0  0  0  0  0  0
  187.4010  178.4150  147.2340 O   0  0  0  0  0  1  0  0  0  0  0  0
  188.1180  177.5530  145.1700 N   0  0  0  0  0  0  0  0  0  0  0  0
  187.0930  177.9070  146.1240 C   0  0  0  0  0  0  0  0  0  0  0  0
  185.7510  177.6920  145.8300 O   0  0  0  0  0  0  0  0  0  0  0  0
  191.8130  177.6550  145.7100 N   0  0  0  0  0  0  0  0  0  0  0  0
  189.9260  176.6150  146.5590 C   0  0  0  0  0  3  0  0  0  0  0  0
  191.3890  176.8050  146.5930 C   0  0  0  0  0  0  0  0  0  0  0  0
  190.6340  178.9620  144.1350 O   0  0  0  0  0  0  0  0  0  0  0  0
  189.4880  177.4110  145.5910 C   0  0  0  0  0  0  0  0  0  0  0  0
  190.6450  178.0830  145.0360 C   0  0  0  0  0  0  0  0  0  0  0  0
  192.7220  174.9620  147.2450 O   0  0  0  0  0  0  0  0  0  0  0  0
  192.2880  176.1110  147.5220 C   0  0  0  0  0  0  0  0  0  0  0  0
  192.6740  176.7320  148.7440 N   0  0  0  0  0  1  0  0  0  0  0  0
  1  2  2  0  0  0  0
  2 17  1  0  0  0  0
  3  7  1  0  0  0  0
  4  7  1  0  0  0  0
  4 11  1  1  0  0  0
  5  9  1  6  0  0  0
  5  8  1  0  0  0  0
  5  6  1  0  0  0  0
  6  3  1  0  0  0  0
  7  2  1  6  0  0  0
  8  4  1  0  0  0  0
 10  9  1  0  0  0  0
 12 15  2  0  0  0  0
 14 11  1  0  0  0  0
 14 15  1  0  0  0  0
 15 13  1  0  0  0  0
 17 24  1  0  0  0  0
 17 18  1  0  0  0  0
 18 16  1  0  0  0  0
 19 18  2  0  0  0  0
 20 22  2  0  0  0  0
 21 22  1  0  0  0  0
 22 27  1  0  0  0  0
 23 25  2  0  0  0  0
 24 21  2  0  0  0  0
 25 24  1  0  0  0  0
 25 20  1  0  0  0  0
 26 27  2  0  0  0  0
 27 28  1  0  0  0  0
M  END
>  <MODEL>
6

>  <REMARK>
 VINA RESULT:      -6.8      2.622      7.319
  Name = 
  7 active torsions:
  status: ('A' for Active; 'I' for Inactive)
    1  A    between atoms: C_3  and  C_14
    2  A    between atoms: N_5  and  C_22
    3  A    between atoms: N_5  and  C_26
    4  A    between atoms: O_6  and  C_12
    5  A    between atoms: C_10  and  C_18
    6  A    between atoms: C_14  and  N_17
    7  A    between atoms: C_22  and  C_23
                            x       y       z     vdW  Elec       q    Type
                         _______ _______ _______ _____ _____    ______ ____

>  <TORSDO>
F 7

$$$$
=
 OpenBabel10222417263D

 28 29  0  0  1  0  0  0  0  0999 V2000
  186.8160  176.1640  143.9150 C   0  0  0  0  0  2  0  0  0  0  0  0
  187.2310  177.3740  143.5390 C   0  0  0  0  0  0  0  0  0  0  0  0
  188.5000  178.2750  145.3990 O   0  0  0  0  0  0  0  0  0  0  0  0
  189.7770  177.0330  143.6480 C   0  0  2  0  0  3  0  0  0  0  0  0
  190.1370  176.6280  146.0980 C   0  0  1  0  0  3  0  0  0  0  0  0
  188.6850  177.1290  146.1990 C   0  0  0  0  0  2  0  0  0  0  0  0
  188.5570  177.9040  144.0310 C   0  0  1  0  0  3  0  0  0  0  0  0
  190.8080  177.0150  144.7740 C   0  0  0  0  0  2  0  0  0  0  0  0
  190.9200  176.9380  147.2320 O   0  0  0  0  0  0  0  0  0  0  0  0
  192.0340  176.0810  147.2680 C   0  0  0  0  0  1  0  0  0  0  0  0
  190.4000  177.5520  142.3620 C   0  0  0  0  0  2  0  0  0  0  0  0
  190.8490  175.6360  139.1300 O   0  0  0  0  0  0  0  0  0  0  0  0
  190.5520  177.8720  139.5230 O   0  0  0  0  0  1  0  0  0  0  0  0
  190.5490  176.4740  141.3950 N   0  0  0  0  0  2  0  0  0  0  0  0
  190.6510  176.7070  139.9900 C   0  0  0  0  0  0  0  0  0  0  0  0
  186.0050  179.7430  141.0630 O   0  0  0  0  0  1  0  0  0  0  0  0
  186.3290  178.2710  142.8650 N   0  0  0  0  0  0  0  0  0  0  0  0
  186.6430  178.7720  141.5480 C   0  0  0  0  0  0  0  0  0  0  0  0
  187.6580  178.1890  140.7950 O   0  0  0  0  0  0  0  0  0  0  0  0
  183.4720  179.2110  145.0820 N   0  0  0  0  0  0  0  0  0  0  0  0
  183.8780  178.5420  142.9020 C   0  0  0  0  0  3  0  0  0  0  0  0
  182.9120  178.9370  143.9450 C   0  0  0  0  0  0  0  0  0  0  0  0
  185.7480  179.2350  145.7150 O   0  0  0  0  0  0  0  0  0  0  0  0
  185.0690  178.5940  143.4850 C   0  0  0  0  0  0  0  0  0  0  0  0
  184.8550  179.0140  144.8550 C   0  0  0  0  0  0  0  0  0  0  0  0
  180.6890  178.2310  144.3440 O   0  0  0  0  0  0  0  0  0  0  0  0
  181.4610  179.0170  143.7360 C   0  0  0  0  0  0  0  0  0  0  0  0
  180.9190  179.9830  142.8420 N   0  0  0  0  0  1  0  0  0  0  0  0
  2  1  2  0  0  0  0
  3  6  1  0  0  0  0
  4 11  1  6  0  0  0
  4  7  1  0  0  0  0
  4  8  1  0  0  0  0
  5  6  1  0  0  0  0
  5  9  1  1  0  0  0
  7  2  1  1  0  0  0
  7  3  1  0  0  0  0
  8  5  1  0  0  0  0
  9 10  1  0  0  0  0
 12 15  2  0  0  0  0
 13 15  1  0  0  0  0
 14 11  1  0  0  0  0
 15 14  1  0  0  0  0
 16 18  1  0  0  0  0
 17 24  1  0  0  0  0
 17  2  1  0  0  0  0
 18 17  1  0  0  0  0
 19 18  2  0  0  0  0
 21 24  2  0  0  0  0
 21 22  1  0  0  0  0
 22 20  2  0  0  0  0
 24 25  1  0  0  0  0
 25 20  1  0  0  0  0
 25 23  2  0  0  0  0
 27 22  1  0  0  0  0
 27 26  2  0  0  0  0
 28 27  1  0  0  0  0
M  END
>  <MODEL>
7

>  <REMARK>
 VINA RESULT:      -6.8      2.615      6.232
  Name = 
  7 active torsions:
  status: ('A' for Active; 'I' for Inactive)
    1  A    between atoms: C_3  and  C_14
    2  A    between atoms: N_5  and  C_22
    3  A    between atoms: N_5  and  C_26
    4  A    between atoms: O_6  and  C_12
    5  A    between atoms: C_10  and  C_18
    6  A    between atoms: C_14  and  N_17
    7  A    between atoms: C_22  and  C_23
                            x       y       z     vdW  Elec       q    Type
                         _______ _______ _______ _____ _____    ______ ____

>  <TORSDO>
F 7

$$$$
=
 OpenBabel10222417263D

 28 29  0  0  1  0  0  0  0  0999 V2000
  187.9990  179.3790  141.8370 C   0  0  0  0  0  2  0  0  0  0  0  0
  188.1000  178.1350  142.3070 C   0  0  0  0  0  0  0  0  0  0  0  0
  187.3900  177.1210  144.3920 O   0  0  0  0  0  0  0  0  0  0  0  0
  185.6620  178.3670  143.0870 C   0  0  2  0  0  3  0  0  0  0  0  0
  185.9410  178.6730  145.5620 C   0  0  1  0  0  3  0  0  0  0  0  0
  187.3840  178.2310  145.2610 C   0  0  0  0  0  2  0  0  0  0  0  0
  186.9660  177.5350  143.1030 C   0  0  1  0  0  3  0  0  0  0  0  0
  184.9600  178.3040  144.4420 C   0  0  0  0  0  2  0  0  0  0  0  0
  185.4910  178.2940  146.8450 O   0  0  0  0  0  0  0  0  0  0  0  0
  186.6010  178.1360  147.6930 C   0  0  0  0  0  1  0  0  0  0  0  0
  184.7420  177.8660  141.9860 C   0  0  0  0  0  2  0  0  0  0  0  0
  184.2740  180.2840  139.1120 O   0  0  0  0  0  0  0  0  0  0  0  0
  185.7500  178.5560  139.3990 O   0  0  0  0  0  1  0  0  0  0  0  0
  184.2780  178.9750  141.1640 N   0  0  0  0  0  2  0  0  0  0  0  0
  184.8040  179.2440  139.8640 C   0  0  0  0  0  0  0  0  0  0  0  0
  190.7820  176.0140  141.0610 O   0  0  0  0  0  1  0  0  0  0  0  0
  189.3650  177.4470  142.2660 N   0  0  0  0  0  0  0  0  0  0  0  0
  189.8210  176.8280  141.0450 C   0  0  0  0  0  0  0  0  0  0  0  0
  189.2050  177.1190  139.8320 O   0  0  0  0  0  0  0  0  0  0  0  0
  191.6640  178.1860  145.1170 N   0  0  0  0  0  0  0  0  0  0  0  0
  190.4670  176.4200  144.2170 C   0  0  0  0  0  3  0  0  0  0  0  0
  191.3860  176.9270  145.2550 C   0  0  0  0  0  0  0  0  0  0  0  0
  190.9030  179.7720  143.5400 O   0  0  0  0  0  0  0  0  0  0  0  0
  190.2060  177.4600  143.4360 C   0  0  0  0  0  0  0  0  0  0  0  0
  190.9380  178.5890  143.9710 C   0  0  0  0  0  0  0  0  0  0  0  0
  192.3560  174.9420  146.1030 O   0  0  0  0  0  0  0  0  0  0  0  0
  191.9380  176.1060  146.3390 C   0  0  0  0  0  0  0  0  0  0  0  0
  192.0040  176.6210  147.6640 N   0  0  0  0  0  1  0  0  0  0  0  0
  1  2  2  0  0  0  0
  3  6  1  0  0  0  0
  4 11  1  6  0  0  0
  4  7  1  0  0  0  0
  4  8  1  0  0  0  0
  5  9  1  1  0  0  0
  6  5  1  0  0  0  0
  7  2  1  1  0  0  0
  7  3  1  0  0  0  0
  8  5  1  0  0  0  0
  9 10  1  0  0  0  0
 12 15  2  0  0  0  0
 13 15  1  0  0  0  0
 14 11  1  0  0  0  0
 15 14  1  0  0  0  0
 17  2  1  0  0  0  0
 17 24  1  0  0  0  0
 18 16  1  0  0  0  0
 18 17  1  0  0  0  0
 19 18  2  0  0  0  0
 20 22  2  0  0  0  0
 21 22  1  0  0  0  0
 22 27  1  0  0  0  0
 23 25  2  0  0  0  0
 24 25  1  0  0  0  0
 24 21  2  0  0  0  0
 25 20  1  0  0  0  0
 26 27  2  0  0  0  0
 27 28  1  0  0  0  0
M  END
>  <MODEL>
8

>  <REMARK>
 VINA RESULT:      -6.7      2.149      6.445
  Name = 
  7 active torsions:
  status: ('A' for Active; 'I' for Inactive)
    1  A    between atoms: C_3  and  C_14
    2  A    between atoms: N_5  and  C_22
    3  A    between atoms: N_5  and  C_26
    4  A    between atoms: O_6  and  C_12
    5  A    between atoms: C_10  and  C_18
    6  A    between atoms: C_14  and  N_17
    7  A    between atoms: C_22  and  C_23
                            x       y       z     vdW  Elec       q    Type
                         _______ _______ _______ _____ _____    ______ ____

>  <TORSDO>
F 7

$$$$
=
 OpenBabel10222417263D

 28 29  0  0  1  0  0  0  0  0999 V2000
  187.9290  175.8710  143.1980 C   0  0  0  0  0  2  0  0  0  0  0  0
  188.0270  177.1730  143.4670 C   0  0  0  0  0  0  0  0  0  0  0  0
  189.5240  178.1520  141.8300 O   0  0  0  0  0  0  0  0  0  0  0  0
  187.0910  178.1140  141.2660 C   0  0  2  0  0  3  0  0  0  0  0  0
  188.8510  177.4180  139.6190 C   0  0  1  0  0  3  0  0  0  0  0  0
  189.6500  177.1030  140.8960 C   0  0  0  0  0  2  0  0  0  0  0  0
  188.2010  178.1640  142.3420 C   0  0  1  0  0  3  0  0  0  0  0  0
  187.6690  178.3620  139.8740 C   0  0  0  0  0  2  0  0  0  0  0  0
  189.6600  177.8180  138.5320 O   0  0  0  0  0  0  0  0  0  0  0  0
  189.0280  178.8750  137.8540 C   0  0  0  0  0  1  0  0  0  0  0  0
  186.0140  179.1380  141.5850 C   0  0  0  0  0  2  0  0  0  0  0  0
  182.8160  178.5660  139.6430 O   0  0  0  0  0  1  0  0  0  0  0  0
  184.5370  180.0400  139.3060 O   0  0  0  0  0  0  0  0  0  0  0  0
  184.7050  178.6470  141.1750 N   0  0  0  0  0  2  0  0  0  0  0  0
  184.0370  179.1190  140.0050 C   0  0  0  0  0  0  0  0  0  0  0  0
  187.2720  178.7610  146.6530 O   0  0  0  0  0  1  0  0  0  0  0  0
  188.2040  177.6190  144.8240 N   0  0  0  0  0  0  0  0  0  0  0  0
  187.0850  178.1350  145.5760 C   0  0  0  0  0  0  0  0  0  0  0  0
  185.7840  177.9490  145.1220 O   0  0  0  0  0  0  0  0  0  0  0  0
  191.7620  177.7380  145.9610 N   0  0  0  0  0  0  0  0  0  0  0  0
  189.7940  176.6010  146.4100 C   0  0  0  0  0  3  0  0  0  0  0  0
  191.2270  176.8110  146.6940 C   0  0  0  0  0  0  0  0  0  0  0  0
  190.8120  179.1490  144.3220 O   0  0  0  0  0  0  0  0  0  0  0  0
  189.4930  177.4650  145.4490 C   0  0  0  0  0  0  0  0  0  0  0  0
  190.7040  178.2000  145.1420 C   0  0  0  0  0  0  0  0  0  0  0  0
  191.9190  174.8020  147.7350 O   0  0  0  0  0  0  0  0  0  0  0  0
  191.9860  176.0590  147.7000 C   0  0  0  0  0  0  0  0  0  0  0  0
  192.8010  176.7450  148.6430 N   0  0  0  0  0  1  0  0  0  0  0  0
  1  2  2  0  0  0  0
  2 17  1  0  0  0  0
  3  7  1  0  0  0  0
  4 11  1  1  0  0  0
  4  7  1  0  0  0  0
  5  9  1  6  0  0  0
  5  8  1  0  0  0  0
  5  6  1  0  0  0  0
  6  3  1  0  0  0  0
  7  2  1  1  0  0  0
  8  4  1  0  0  0  0
 10  9  1  0  0  0  0
 12 15  1  0  0  0  0
 13 15  2  0  0  0  0
 14 11  1  0  0  0  0
 15 14  1  0  0  0  0
 17 24  1  0  0  0  0
 17 18  1  0  0  0  0
 18 16  1  0  0  0  0
 19 18  2  0  0  0  0
 20 22  2  0  0  0  0
 21 22  1  0  0  0  0
 22 27  1  0  0  0  0
 23 25  2  0  0  0  0
 24 21  2  0  0  0  0
 25 24  1  0  0  0  0
 25 20  1  0  0  0  0
 27 26  2  0  0  0  0
 27 28  1  0  0  0  0
M  END
>  <MODEL>
9

>  <REMARK>
 VINA RESULT:      -6.6      2.277      7.665
  Name = 
  7 active torsions:
  status: ('A' for Active; 'I' for Inactive)
    1  A    between atoms: C_3  and  C_14
    2  A    between atoms: N_5  and  C_22
    3  A    between atoms: N_5  and  C_26
    4  A    between atoms: O_6  and  C_12
    5  A    between atoms: C_10  and  C_18
    6  A    between atoms: C_14  and  N_17
    7  A    between atoms: C_22  and  C_23
                            x       y       z     vdW  Elec       q    Type
                         _______ _______ _______ _____ _____    ______ ____

>  <TORSDO>
F 7

$$$$
