=
 OpenBabel10222418403D

 41 44  0  0  1  0  0  0  0  0999 V2000
  184.1420  178.5940  137.9260 N   0  0  0  0  0  0  0  0  0  0  0  0
  184.5630  179.1860  144.7690 C   0  0  0  0  0  3  0  0  0  0  0  0
  184.6960  178.6550  142.3930 C   0  0  0  0  0  0  0  0  0  0  0  0
  187.3220  178.4630  139.6370 C   0  0  0  0  0  3  0  0  0  0  0  0
  183.2570  178.7170  142.3260 C   0  0  0  0  0  0  0  0  0  0  0  0
  183.0120  178.6160  138.6430 N   0  0  0  0  0  0  0  0  0  0  0  0
  182.5220  178.9410  143.5000 C   0  0  0  0  0  3  0  0  0  0  0  0
  186.8580  178.3370  140.9850 C   0  0  0  0  0  0  0  0  0  0  0  0
  182.5810  178.6250  141.0790 C   0  0  0  0  0  0  0  0  0  0  0  0
  187.7700  178.0190  141.9370 C   0  0  1  0  0  3  0  0  0  0  0  0
  183.1700  179.1640  144.7140 C   0  0  0  0  0  3  0  0  0  0  0  0
  183.3760  178.5120  139.9450 C   0  0  0  0  0  0  0  0  0  0  0  0
  186.4680  178.5430  138.5710 N   0  0  0  0  0  2  0  0  0  0  0  0
  185.1440  178.4740  138.8210 C   0  0  0  0  0  0  0  0  0  0  0  0
  184.6920  178.4140  140.0610 N   0  0  0  0  0  0  0  0  0  0  0  0
  185.4340  178.4260  141.1870 C   0  0  0  0  0  0  0  0  0  0  0  0
  185.3120  178.9470  143.6170 C   0  0  0  0  0  3  0  0  0  0  0  0
  187.8240  176.1350  143.5460 C   0  0  0  0  0  1  0  0  0  0  0  0
  187.3780  177.4210  143.1390 O   0  0  0  0  0  0  0  0  0  0  0  0
  180.5800  180.0100  140.5110 C   0  0  0  0  0  1  0  0  0  0  0  0
  181.1570  178.7540  140.9700 N   0  0  0  0  0  0  0  0  0  0  0  0
  180.3010  177.6190  141.3230 C   0  0  1  0  0  3  0  0  0  0  0  0
  179.1250  178.0510  141.9440 O   0  0  0  0  0  0  0  0  0  0  0  0
  179.4000  177.9920  143.3120 C   0  0  0  0  0  1  0  0  0  0  0  0
  179.9900  176.7340  140.1130 C   0  0  0  0  0  2  0  0  0  0  0  0
  179.7690  175.3320  140.4870 C   0  0  0  0  0  0  0  0  0  0  0  0
  179.5840  174.1820  140.7950 C   0  0  0  0  0  3  0  0  0  0  0  0
  189.2450  178.2020  141.6640 C   0  0  0  0  0  2  0  0  0  0  0  0
  191.1870  177.6330  143.2000 C   0  0  0  0  0  0  0  0  0  0  0  0
  191.6900  176.8490  142.3510 O   0  0  0  0  0  0  0  0  0  0  0  0
  189.9820  178.3490  142.9110 N   0  0  0  0  0  2  0  0  0  0  0  0
  191.8500  177.8080  144.5210 C   0  0  0  0  0  2  0  0  0  0  0  0
  191.7750  176.5730  145.2860 N   0  0  0  0  0  2  0  0  0  0  0  0
  191.2320  176.8960  146.5990 C   0  0  2  0  0  3  0  0  0  0  0  0
  192.4940  176.9510  148.4750 O   0  0  0  0  0  1  0  0  0  0  0  0
  191.8870  176.0910  147.6220 N   0  0  0  0  0  2  0  0  0  0  0  0
  189.7210  176.6730  146.6210 C   0  0  0  0  0  2  0  0  0  0  0  0
  187.5010  177.7650  146.5280 C   0  0  0  0  0  1  0  0  0  0  0  0
  188.9570  177.9570  146.9070 C   0  0  1  0  0  3  0  0  0  0  0  0
  187.8500  177.8050  149.1360 C   0  0  0  0  0  1  0  0  0  0  0  0
  189.0740  178.2900  148.3830 C   0  0  0  0  0  2  0  0  0  0  0  0
  1  6  1  0  0  0  0
  1 14  2  0  0  0  0
  3 17  1  0  0  0  0
  4  8  2  0  0  0  0
  5  3  1  0  0  0  0
  5  7  1  0  0  0  0
  6 12  2  0  0  0  0
  7 11  2  0  0  0  0
  8 16  1  0  0  0  0
  8 10  1  0  0  0  0
  9  5  2  0  0  0  0
 10 28  1  6  0  0  0
 10 19  1  0  0  0  0
 11  2  1  0  0  0  0
 12 15  1  0  0  0  0
 12  9  1  0  0  0  0
 13 14  1  0  0  0  0
 13  4  1  0  0  0  0
 14 15  1  0  0  0  0
 15 16  1  0  0  0  0
 16  3  2  0  0  0  0
 17  2  2  0  0  0  0
 19 18  1  0  0  0  0
 20 21  1  0  0  0  0
 21  9  1  0  0  0  0
 21 22  1  0  0  0  0
 22 25  1  6  0  0  0
 22 23  1  0  0  0  0
 23 24  1  0  0  0  0
 25 26  1  0  0  0  0
 26 27  3  0  0  0  0
 28 31  1  0  0  0  0
 29 32  1  0  0  0  0
 30 29  2  0  0  0  0
 31 29  1  0  0  0  0
 32 33  1  0  0  0  0
 33 34  1  0  0  0  0
 34 37  1  6  0  0  0
 34 36  1  0  0  0  0
 36 35  1  0  0  0  0
 37 39  1  0  0  0  0
 39 38  1  1  0  0  0
 39 41  1  0  0  0  0
 41 40  1  0  0  0  0
M  END
>  <MODEL>
1

>  <REMARK>
 VINA RESULT:      -7.7      0.000      0.000
  Name = 
  15 active torsions:
  status: ('A' for Active; 'I' for Inactive)
    1  A    between atoms: C_6  and  C_11
    2  A    between atoms: C_6  and  C_25
    3  A    between atoms: C_11  and  N_13
    4  A    between atoms: C_11  and  N_31
    5  A    between atoms: C_14  and  N_39
    6  A    between atoms: O_15  and  C_18
    7  A    between atoms: C_16  and  O_24
    8  A    between atoms: C_16  and  C_34
    9  A    between atoms: C_16  and  N_39
   10  A    between atoms: C_17  and  C_40
   11  A    between atoms: C_18  and  C_37
   12  A    between atoms: C_23  and  C_25
   13  A    between atoms: N_31  and  C_40
   14  A    between atoms: C_34  and  C_38
   15  A    between atoms: N_35  and  C_37
                            x       y       z     vdW  Elec       q    Type
                         _______ _______ _______ _____ _____    ______ ____

>  <TORSDO>
F 15

$$$$
=
 OpenBabel10222418403D

 41 44  0  0  1  0  0  0  0  0999 V2000
  186.3720  178.2360  137.1950 N   0  0  0  0  0  0  0  0  0  0  0  0
  184.3470  179.1290  143.7100 C   0  0  0  0  0  3  0  0  0  0  0  0
  185.3440  178.5300  141.5670 C   0  0  0  0  0  0  0  0  0  0  0  0
  188.7630  178.5580  139.8840 C   0  0  0  0  0  3  0  0  0  0  0  0
  184.0170  178.4140  141.0130 C   0  0  0  0  0  0  0  0  0  0  0  0
  185.0690  178.1460  137.4840 N   0  0  0  0  0  0  0  0  0  0  0  0
  182.9050  178.5890  141.8500 C   0  0  0  0  0  3  0  0  0  0  0  0
  187.8780  178.4270  141.0020 C   0  0  0  0  0  0  0  0  0  0  0  0
  183.8260  178.1930  139.6220 C   0  0  0  0  0  0  0  0  0  0  0  0
  188.4350  178.2580  142.2270 C   0  0  1  0  0  3  0  0  0  0  0  0
  183.0690  178.9350  143.1900 C   0  0  0  0  0  3  0  0  0  0  0  0
  184.9700  178.1360  138.8360 C   0  0  0  0  0  0  0  0  0  0  0  0
  188.3260  178.4940  138.5900 N   0  0  0  0  0  2  0  0  0  0  0  0
  187.0100  178.2730  138.3830 C   0  0  0  0  0  0  0  0  0  0  0  0
  186.1680  178.2040  139.3970 N   0  0  0  0  0  0  0  0  0  0  0  0
  186.4710  178.3480  140.7030 C   0  0  0  0  0  0  0  0  0  0  0  0
  185.4680  178.9410  142.9010 C   0  0  0  0  0  3  0  0  0  0  0  0
  187.7110  176.2600  143.5040 C   0  0  0  0  0  1  0  0  0  0  0  0
  187.7160  177.6620  143.2680 O   0  0  0  0  0  0  0  0  0  0  0  0
  181.6430  177.0160  139.3180 C   0  0  0  0  0  1  0  0  0  0  0  0
  182.5220  178.1420  139.0300 N   0  0  0  0  0  0  0  0  0  0  0  0
  182.0900  179.2230  138.1400 C   0  0  1  0  0  3  0  0  0  0  0  0
  180.8400  178.9430  137.5790 O   0  0  0  0  0  0  0  0  0  0  0  0
  181.0860  178.7990  136.2120 C   0  0  0  0  0  1  0  0  0  0  0  0
  182.0830  180.5810  138.8460 C   0  0  0  0  0  2  0  0  0  0  0  0
  180.7920  180.8740  139.4820 C   0  0  0  0  0  0  0  0  0  0  0  0
  179.7330  181.1120  140.0060 C   0  0  0  0  0  3  0  0  0  0  0  0
  189.8860  178.6100  142.4560 C   0  0  0  0  0  2  0  0  0  0  0  0
  191.3070  176.9650  143.7710 C   0  0  0  0  0  0  0  0  0  0  0  0
  191.8050  176.4810  142.7190 O   0  0  0  0  0  0  0  0  0  0  0  0
  190.3620  178.0370  143.7070 N   0  0  0  0  0  2  0  0  0  0  0  0
  191.7020  176.4080  145.0940 C   0  0  0  0  0  2  0  0  0  0  0  0
  191.6280  177.4420  146.1140 N   0  0  0  0  0  2  0  0  0  0  0  0
  190.9630  176.8700  147.2780 C   0  0  2  0  0  3  0  0  0  0  0  0
  192.8580  176.2300  148.3310 O   0  0  0  0  0  1  0  0  0  0  0  0
  191.7250  175.7340  147.7790 N   0  0  0  0  0  2  0  0  0  0  0  0
  189.5370  176.4520  146.9260 C   0  0  0  0  0  2  0  0  0  0  0  0
  189.2030  178.3340  148.5000 C   0  0  0  0  0  1  0  0  0  0  0  0
  188.4980  177.3160  147.6240 C   0  0  1  0  0  3  0  0  0  0  0  0
  186.2850  178.3610  147.1410 C   0  0  0  0  0  1  0  0  0  0  0  0
  187.6520  178.0220  146.5790 C   0  0  0  0  0  2  0  0  0  0  0  0
  1  6  1  0  0  0  0
  1 14  2  0  0  0  0
  3 17  1  0  0  0  0
  4  8  2  0  0  0  0
  5  3  1  0  0  0  0
  5  7  1  0  0  0  0
  6 12  2  0  0  0  0
  7 11  2  0  0  0  0
  8 10  1  0  0  0  0
  9  5  2  0  0  0  0
 10 28  1  6  0  0  0
 10 19  1  0  0  0  0
 11  2  1  0  0  0  0
 12 15  1  0  0  0  0
 12  9  1  0  0  0  0
 13  4  1  0  0  0  0
 14 13  1  0  0  0  0
 14 15  1  0  0  0  0
 15 16  1  0  0  0  0
 16  8  1  0  0  0  0
 16  3  2  0  0  0  0
 17  2  2  0  0  0  0
 19 18  1  0  0  0  0
 21 20  1  0  0  0  0
 21  9  1  0  0  0  0
 22 25  1  1  0  0  0
 22 21  1  0  0  0  0
 23 22  1  0  0  0  0
 24 23  1  0  0  0  0
 25 26  1  0  0  0  0
 26 27  3  0  0  0  0
 28 31  1  0  0  0  0
 29 32  1  0  0  0  0
 30 29  2  0  0  0  0
 31 29  1  0  0  0  0
 32 33  1  0  0  0  0
 33 34  1  0  0  0  0
 34 37  1  6  0  0  0
 34 36  1  0  0  0  0
 36 35  1  0  0  0  0
 37 39  1  0  0  0  0
 39 38  1  1  0  0  0
 41 40  1  0  0  0  0
 41 39  1  0  0  0  0
M  END
>  <MODEL>
2

>  <REMARK>
 VINA RESULT:      -7.5      1.589      2.642
  Name = 
  15 active torsions:
  status: ('A' for Active; 'I' for Inactive)
    1  A    between atoms: C_6  and  C_11
    2  A    between atoms: C_6  and  C_25
    3  A    between atoms: C_11  and  N_13
    4  A    between atoms: C_11  and  N_31
    5  A    between atoms: C_14  and  N_39
    6  A    between atoms: O_15  and  C_18
    7  A    between atoms: C_16  and  O_24
    8  A    between atoms: C_16  and  C_34
    9  A    between atoms: C_16  and  N_39
   10  A    between atoms: C_17  and  C_40
   11  A    between atoms: C_18  and  C_37
   12  A    between atoms: C_23  and  C_25
   13  A    between atoms: N_31  and  C_40
   14  A    between atoms: C_34  and  C_38
   15  A    between atoms: N_35  and  C_37
                            x       y       z     vdW  Elec       q    Type
                         _______ _______ _______ _____ _____    ______ ____

>  <TORSDO>
F 15

$$$$
=
 OpenBabel10222418403D

 41 44  0  0  1  0  0  0  0  0999 V2000
  185.8910  178.6410  146.5470 N   0  0  0  0  0  0  0  0  0  0  0  0
  186.8680  178.6160  139.7360 C   0  0  0  0  0  3  0  0  0  0  0  0
  186.1910  178.3620  142.0650 C   0  0  0  0  0  0  0  0  0  0  0  0
  183.1250  178.9720  144.2450 C   0  0  0  0  0  3  0  0  0  0  0  0
  187.5730  178.1450  142.4140 C   0  0  0  0  0  0  0  0  0  0  0  0
  187.1100  178.3670  146.0710 N   0  0  0  0  0  0  0  0  0  0  0  0
  188.5410  178.1000  141.4000 C   0  0  0  0  0  3  0  0  0  0  0  0
  183.7910  178.6220  143.0270 C   0  0  0  0  0  0  0  0  0  0  0  0
  187.9740  178.0460  143.7750 C   0  0  0  0  0  0  0  0  0  0  0  0
  183.0220  178.3980  141.9330 C   0  0  1  0  0  3  0  0  0  0  0  0
  188.1890  178.3240  140.0700 C   0  0  0  0  0  3  0  0  0  0  0  0
  186.9780  178.2070  144.7310 C   0  0  0  0  0  0  0  0  0  0  0  0
  183.7660  178.9890  145.4530 N   0  0  0  0  0  2  0  0  0  0  0  0
  185.0680  178.6340  145.4780 C   0  0  0  0  0  0  0  0  0  0  0  0
  185.7160  178.3610  144.3600 N   0  0  0  0  0  0  0  0  0  0  0  0
  185.2130  178.4060  143.1090 C   0  0  0  0  0  0  0  0  0  0  0  0
  185.8860  178.6470  140.7270 C   0  0  0  0  0  3  0  0  0  0  0  0
  182.6500  176.7650  140.1050 C   0  0  0  0  0  1  0  0  0  0  0  0
  183.4910  177.6160  140.8720 O   0  0  0  0  0  0  0  0  0  0  0  0
  190.2150  179.0690  144.1860 C   0  0  0  0  0  1  0  0  0  0  0  0
  189.3470  177.9000  144.1580 N   0  0  0  0  0  0  0  0  0  0  0  0
  189.8590  176.5760  144.5170 C   0  0  1  0  0  3  0  0  0  0  0  0
  189.5850  175.6420  143.5120 O   0  0  0  0  0  0  0  0  0  0  0  0
  190.7710  175.5430  142.7820 C   0  0  0  0  0  1  0  0  0  0  0  0
  191.3530  176.6060  144.8460 C   0  0  0  0  0  2  0  0  0  0  0  0
  191.6200  176.3340  146.2640 C   0  0  0  0  0  0  0  0  0  0  0  0
  191.8400  176.1130  147.4280 C   0  0  0  0  0  3  0  0  0  0  0  0
  181.5960  178.8960  141.8930 C   0  0  0  0  0  2  0  0  0  0  0  0
  180.3570  180.6380  140.5210 C   0  0  0  0  0  0  0  0  0  0  0  0
  179.6890  181.0200  141.5190 O   0  0  0  0  0  0  0  0  0  0  0  0
  181.3330  179.6000  140.6460 N   0  0  0  0  0  2  0  0  0  0  0  0
  180.1200  181.2720  139.1950 C   0  0  0  0  0  2  0  0  0  0  0  0
  180.0500  180.2520  138.1590 N   0  0  0  0  0  2  0  0  0  0  0  0
  179.8730  180.9300  136.8800 C   0  0  2  0  0  3  0  0  0  0  0  0
  180.2780  179.7410  135.0010 O   0  0  0  0  0  1  0  0  0  0  0  0
  180.8980  180.4940  135.9400 N   0  0  0  0  0  2  0  0  0  0  0  0
  179.9210  182.4440  137.0680 C   0  0  0  0  0  2  0  0  0  0  0  0
  179.1250  183.3740  134.9160 C   0  0  0  0  0  1  0  0  0  0  0  0
  180.3420  183.1660  135.7970 C   0  0  1  0  0  3  0  0  0  0  0  0
  181.8250  184.3710  137.4000 C   0  0  0  0  0  1  0  0  0  0  0  0
  180.9570  184.5050  136.1640 C   0  0  0  0  0  2  0  0  0  0  0  0
  2 11  1  0  0  0  0
  2 17  2  0  0  0  0
  3  5  1  0  0  0  0
  3 16  2  0  0  0  0
  4 13  1  0  0  0  0
  5  9  2  0  0  0  0
  6  1  1  0  0  0  0
  7  5  1  0  0  0  0
  8 16  1  0  0  0  0
  8  4  2  0  0  0  0
  9 21  1  0  0  0  0
  9 12  1  0  0  0  0
 10 28  1  1  0  0  0
 10  8  1  0  0  0  0
 11  7  2  0  0  0  0
 12  6  2  0  0  0  0
 13 14  1  0  0  0  0
 14  1  2  0  0  0  0
 15 12  1  0  0  0  0
 15 14  1  0  0  0  0
 16 15  1  0  0  0  0
 17  3  1  0  0  0  0
 18 19  1  0  0  0  0
 19 10  1  0  0  0  0
 21 20  1  0  0  0  0
 21 22  1  0  0  0  0
 22 25  1  6  0  0  0
 23 22  1  0  0  0  0
 24 23  1  0  0  0  0
 25 26  1  0  0  0  0
 26 27  3  0  0  0  0
 29 31  1  0  0  0  0
 29 30  2  0  0  0  0
 31 28  1  0  0  0  0
 32 29  1  0  0  0  0
 33 32  1  0  0  0  0
 34 37  1  1  0  0  0
 34 33  1  0  0  0  0
 35 36  1  0  0  0  0
 36 34  1  0  0  0  0
 39 38  1  6  0  0  0
 39 41  1  0  0  0  0
 39 37  1  0  0  0  0
 41 40  1  0  0  0  0
M  END
>  <MODEL>
3

>  <REMARK>
 VINA RESULT:      -7.1      3.251     10.498
  Name = 
  15 active torsions:
  status: ('A' for Active; 'I' for Inactive)
    1  A    between atoms: C_6  and  C_11
    2  A    between atoms: C_6  and  C_25
    3  A    between atoms: C_11  and  N_13
    4  A    between atoms: C_11  and  N_31
    5  A    between atoms: C_14  and  N_39
    6  A    between atoms: O_15  and  C_18
    7  A    between atoms: C_16  and  O_24
    8  A    between atoms: C_16  and  C_34
    9  A    between atoms: C_16  and  N_39
   10  A    between atoms: C_17  and  C_40
   11  A    between atoms: C_18  and  C_37
   12  A    between atoms: C_23  and  C_25
   13  A    between atoms: N_31  and  C_40
   14  A    between atoms: C_34  and  C_38
   15  A    between atoms: N_35  and  C_37
                            x       y       z     vdW  Elec       q    Type
                         _______ _______ _______ _____ _____    ______ ____

>  <TORSDO>
F 15

$$$$
=
 OpenBabel10222418403D

 41 44  0  0  1  0  0  0  0  0999 V2000
  191.6390  177.1780  139.6300 N   0  0  0  0  0  0  0  0  0  0  0  0
  185.8700  177.8320  143.3240 C   0  0  0  0  0  3  0  0  0  0  0  0
  187.7460  177.9110  141.7690 C   0  0  0  0  0  0  0  0  0  0  0  0
  188.4070  177.4680  138.0410 C   0  0  0  0  0  3  0  0  0  0  0  0
  188.6460  177.9070  142.8960 C   0  0  0  0  0  0  0  0  0  0  0  0
  191.7350  177.3430  140.9550 N   0  0  0  0  0  0  0  0  0  0  0  0
  188.1200  177.9380  144.1960 C   0  0  0  0  0  3  0  0  0  0  0  0
  187.6230  177.8610  139.1740 C   0  0  0  0  0  0  0  0  0  0  0  0
  190.0510  177.8010  142.7070 C   0  0  0  0  0  0  0  0  0  0  0  0
  186.3630  178.3030  138.9420 C   0  0  1  0  0  3  0  0  0  0  0  0
  186.7420  177.9110  144.4080 C   0  0  0  0  0  3  0  0  0  0  0  0
  190.4960  177.6660  141.3970 C   0  0  0  0  0  0  0  0  0  0  0  0
  189.7520  177.2340  138.1250 N   0  0  0  0  0  2  0  0  0  0  0  0
  190.3460  177.4120  139.3240 C   0  0  0  0  0  0  0  0  0  0  0  0
  189.6340  177.7200  140.3920 N   0  0  0  0  0  0  0  0  0  0  0  0
  188.2960  177.8790  140.4470 C   0  0  0  0  0  0  0  0  0  0  0  0
  186.3710  177.8190  142.0220 C   0  0  0  0  0  3  0  0  0  0  0  0
  184.3230  179.4300  139.7870 C   0  0  0  0  0  1  0  0  0  0  0  0
  185.7100  179.1310  139.8620 O   0  0  0  0  0  0  0  0  0  0  0  0
  191.7230  178.9060  144.1990 C   0  0  0  0  0  1  0  0  0  0  0  0
  190.9660  177.7240  143.8070 N   0  0  0  0  0  0  0  0  0  0  0  0
  191.1290  176.4570  144.5240 C   0  0  1  0  0  3  0  0  0  0  0  0
  192.0280  175.6160  143.8580 O   0  0  0  0  0  0  0  0  0  0  0  0
  192.1570  174.5020  144.6900 C   0  0  0  0  0  1  0  0  0  0  0  0
  191.5510  176.6690  145.9790 C   0  0  0  0  0  2  0  0  0  0  0  0
  190.4070  176.9480  146.8580 C   0  0  0  0  0  0  0  0  0  0  0  0
  189.4710  177.1790  147.5800 C   0  0  0  0  0  3  0  0  0  0  0  0
  185.6830  178.0030  137.6260 C   0  0  0  0  0  2  0  0  0  0  0  0
  184.0060  176.3390  136.6910 C   0  0  0  0  0  0  0  0  0  0  0  0
  183.9100  176.9730  135.6070 O   0  0  0  0  0  0  0  0  0  0  0  0
  184.8840  176.7900  137.7270 N   0  0  0  0  0  2  0  0  0  0  0  0
  183.1890  175.1120  136.8990 C   0  0  0  0  0  2  0  0  0  0  0  0
  183.8600  174.2170  137.8300 N   0  0  0  0  0  2  0  0  0  0  0  0
  184.5710  173.2140  137.0460 C   0  0  2  0  0  3  0  0  0  0  0  0
  183.4560  171.7260  135.7590 O   0  0  0  0  0  1  0  0  0  0  0  0
  183.8230  171.9630  137.0410 N   0  0  0  0  0  2  0  0  0  0  0  0
  185.9770  173.0010  137.6020 C   0  0  0  0  0  2  0  0  0  0  0  0
  187.4050  171.6960  136.0570 C   0  0  0  0  0  1  0  0  0  0  0  0
  187.0410  173.0940  136.5190 C   0  0  1  0  0  3  0  0  0  0  0  0
  187.2450  175.2190  135.2300 C   0  0  0  0  0  1  0  0  0  0  0  0
  186.4990  173.9050  135.3550 C   0  0  0  0  0  2  0  0  0  0  0  0
  1  6  1  0  0  0  0
  2 11  1  0  0  0  0
  3 17  1  0  0  0  0
  3  5  1  0  0  0  0
  4 13  1  0  0  0  0
  4  8  2  0  0  0  0
  5  7  1  0  0  0  0
  6 12  2  0  0  0  0
  7 11  2  0  0  0  0
  8 16  1  0  0  0  0
  9  5  2  0  0  0  0
  9 21  1  0  0  0  0
 10 28  1  6  0  0  0
 10  8  1  0  0  0  0
 10 19  1  0  0  0  0
 12  9  1  0  0  0  0
 13 14  1  0  0  0  0
 14  1  2  0  0  0  0
 14 15  1  0  0  0  0
 15 16  1  0  0  0  0
 15 12  1  0  0  0  0
 16  3  2  0  0  0  0
 17  2  2  0  0  0  0
 18 19  1  0  0  0  0
 21 20  1  0  0  0  0
 21 22  1  0  0  0  0
 22 25  1  1  0  0  0
 23 22  1  0  0  0  0
 23 24  1  0  0  0  0
 25 26  1  0  0  0  0
 26 27  3  0  0  0  0
 28 31  1  0  0  0  0
 29 32  1  0  0  0  0
 29 31  1  0  0  0  0
 30 29  2  0  0  0  0
 32 33  1  0  0  0  0
 34 37  1  1  0  0  0
 34 33  1  0  0  0  0
 35 36  1  0  0  0  0
 36 34  1  0  0  0  0
 39 38  1  6  0  0  0
 39 37  1  0  0  0  0
 40 41  1  0  0  0  0
 41 39  1  0  0  0  0
M  END
>  <MODEL>
4

>  <REMARK>
 VINA RESULT:      -7.0      3.818      9.445
  Name = 
  15 active torsions:
  status: ('A' for Active; 'I' for Inactive)
    1  A    between atoms: C_6  and  C_11
    2  A    between atoms: C_6  and  C_25
    3  A    between atoms: C_11  and  N_13
    4  A    between atoms: C_11  and  N_31
    5  A    between atoms: C_14  and  N_39
    6  A    between atoms: O_15  and  C_18
    7  A    between atoms: C_16  and  O_24
    8  A    between atoms: C_16  and  C_34
    9  A    between atoms: C_16  and  N_39
   10  A    between atoms: C_17  and  C_40
   11  A    between atoms: C_18  and  C_37
   12  A    between atoms: C_23  and  C_25
   13  A    between atoms: N_31  and  C_40
   14  A    between atoms: C_34  and  C_38
   15  A    between atoms: N_35  and  C_37
                            x       y       z     vdW  Elec       q    Type
                         _______ _______ _______ _____ _____    ______ ____

>  <TORSDO>
F 15

$$$$
=
 OpenBabel10222418403D

 41 44  0  0  1  0  0  0  0  0999 V2000
  191.2920  177.1860  139.6450 N   0  0  0  0  0  0  0  0  0  0  0  0
  185.7580  177.9460  143.6640 C   0  0  0  0  0  3  0  0  0  0  0  0
  187.5410  177.9880  142.0020 C   0  0  0  0  0  0  0  0  0  0  0  0
  187.9760  177.5110  138.2460 C   0  0  0  0  0  3  0  0  0  0  0  0
  188.5050  177.9790  143.0750 C   0  0  0  0  0  0  0  0  0  0  0  0
  191.4670  177.3580  140.9600 N   0  0  0  0  0  0  0  0  0  0  0  0
  188.0560  178.0260  144.4030 C   0  0  0  0  0  3  0  0  0  0  0  0
  187.2660  177.9230  139.4190 C   0  0  0  0  0  0  0  0  0  0  0  0
  189.8950  177.8520  142.8050 C   0  0  0  0  0  0  0  0  0  0  0  0
  186.0000  178.3810  139.2580 C   0  0  1  0  0  3  0  0  0  0  0  0
  186.6930  178.0190  144.6950 C   0  0  0  0  0  3  0  0  0  0  0  0
  190.2600  177.7020  141.4720 C   0  0  0  0  0  0  0  0  0  0  0  0
  189.3200  177.2590  138.2520 N   0  0  0  0  0  2  0  0  0  0  0  0
  189.9860  177.4360  139.4130 C   0  0  0  0  0  0  0  0  0  0  0  0
  189.3420  177.7610  140.5190 N   0  0  0  0  0  0  0  0  0  0  0  0
  188.0120  177.9400  140.6510 C   0  0  0  0  0  0  0  0  0  0  0  0
  186.1820  177.9170  142.3360 C   0  0  0  0  0  3  0  0  0  0  0  0
  184.0900  179.7250  140.0880 C   0  0  0  0  0  1  0  0  0  0  0  0
  185.4130  179.2240  140.2080 O   0  0  0  0  0  0  0  0  0  0  0  0
  191.6620  178.9440  144.1920 C   0  0  0  0  0  1  0  0  0  0  0  0
  190.8720  177.7690  143.8500 N   0  0  0  0  0  0  0  0  0  0  0  0
  191.0640  176.5020  144.5600 C   0  0  1  0  0  3  0  0  0  0  0  0
  191.9550  175.6710  143.8740 O   0  0  0  0  0  0  0  0  0  0  0  0
  192.1870  174.6020  144.7410 C   0  0  0  0  0  1  0  0  0  0  0  0
  191.5160  176.7170  146.0070 C   0  0  0  0  0  2  0  0  0  0  0  0
  190.3930  177.0060  146.9070 C   0  0  0  0  0  0  0  0  0  0  0  0
  189.4730  177.2440  147.6490 C   0  0  0  0  0  3  0  0  0  0  0  0
  185.2410  178.0820  137.9860 C   0  0  0  0  0  2  0  0  0  0  0  0
  182.8800  177.1430  137.9810 C   0  0  0  0  0  0  0  0  0  0  0  0
  182.3990  178.2250  137.5500 O   0  0  0  0  0  0  0  0  0  0  0  0
  184.2860  177.0030  138.2010 N   0  0  0  0  0  2  0  0  0  0  0  0
  181.9700  176.0010  138.2720 C   0  0  0  0  0  2  0  0  0  0  0  0
  180.6280  176.4890  138.5490 N   0  0  0  0  0  2  0  0  0  0  0  0
  180.3430  176.2300  139.9560 C   0  0  2  0  0  3  0  0  0  0  0  0
  179.1320  174.9700  141.3890 O   0  0  0  0  0  1  0  0  0  0  0  0
  179.4710  175.0700  140.0820 N   0  0  0  0  0  2  0  0  0  0  0  0
  179.7070  177.4570  140.6060 C   0  0  0  0  0  2  0  0  0  0  0  0
  180.5070  179.7940  140.4290 C   0  0  0  0  0  1  0  0  0  0  0  0
  180.7500  178.4520  141.0930 C   0  0  1  0  0  3  0  0  0  0  0  0
  181.9740  179.0080  143.1930 C   0  0  0  0  0  1  0  0  0  0  0  0
  180.6430  178.5880  142.6010 C   0  0  0  0  0  2  0  0  0  0  0  0
  1  6  1  0  0  0  0
  2 11  1  0  0  0  0
  3 17  1  0  0  0  0
  3  5  1  0  0  0  0
  4 13  1  0  0  0  0
  4  8  2  0  0  0  0
  5  7  1  0  0  0  0
  6 12  2  0  0  0  0
  7 11  2  0  0  0  0
  8 16  1  0  0  0  0
  9  5  2  0  0  0  0
  9 21  1  0  0  0  0
 10 28  1  6  0  0  0
 10  8  1  0  0  0  0
 10 19  1  0  0  0  0
 12  9  1  0  0  0  0
 13 14  1  0  0  0  0
 14  1  2  0  0  0  0
 14 15  1  0  0  0  0
 15 16  1  0  0  0  0
 15 12  1  0  0  0  0
 16  3  2  0  0  0  0
 17  2  2  0  0  0  0
 18 19  1  0  0  0  0
 21 20  1  0  0  0  0
 21 22  1  0  0  0  0
 22 25  1  1  0  0  0
 23 22  1  0  0  0  0
 23 24  1  0  0  0  0
 25 26  1  0  0  0  0
 26 27  3  0  0  0  0
 28 31  1  0  0  0  0
 29 31  1  0  0  0  0
 29 32  1  0  0  0  0
 30 29  2  0  0  0  0
 32 33  1  0  0  0  0
 33 34  1  0  0  0  0
 34 36  1  0  0  0  0
 34 37  1  6  0  0  0
 36 35  1  0  0  0  0
 37 39  1  0  0  0  0
 39 38  1  6  0  0  0
 39 41  1  0  0  0  0
 41 40  1  0  0  0  0
M  END
>  <MODEL>
5

>  <REMARK>
 VINA RESULT:      -7.0      2.181      9.083
  Name = 
  15 active torsions:
  status: ('A' for Active; 'I' for Inactive)
    1  A    between atoms: C_6  and  C_11
    2  A    between atoms: C_6  and  C_25
    3  A    between atoms: C_11  and  N_13
    4  A    between atoms: C_11  and  N_31
    5  A    between atoms: C_14  and  N_39
    6  A    between atoms: O_15  and  C_18
    7  A    between atoms: C_16  and  O_24
    8  A    between atoms: C_16  and  C_34
    9  A    between atoms: C_16  and  N_39
   10  A    between atoms: C_17  and  C_40
   11  A    between atoms: C_18  and  C_37
   12  A    between atoms: C_23  and  C_25
   13  A    between atoms: N_31  and  C_40
   14  A    between atoms: C_34  and  C_38
   15  A    between atoms: N_35  and  C_37
                            x       y       z     vdW  Elec       q    Type
                         _______ _______ _______ _____ _____    ______ ____

>  <TORSDO>
F 15

$$$$
=
 OpenBabel10222418403D

 41 44  0  0  1  0  0  0  0  0999 V2000
  183.6430  179.0040  142.7810 N   0  0  0  0  0  0  0  0  0  0  0  0
  184.7400  176.8820  136.3280 C   0  0  0  0  0  3  0  0  0  0  0  0
  184.6750  177.9080  138.5390 C   0  0  0  0  0  0  0  0  0  0  0  0
  186.9840  178.4490  141.5220 C   0  0  0  0  0  3  0  0  0  0  0  0
  183.2400  178.0000  138.4240 C   0  0  0  0  0  0  0  0  0  0  0  0
  182.6050  178.9330  141.9390 N   0  0  0  0  0  0  0  0  0  0  0  0
  182.6170  177.5940  137.2330 C   0  0  0  0  0  3  0  0  0  0  0  0
  186.6900  178.3190  140.1260 C   0  0  0  0  0  0  0  0  0  0  0  0
  182.4470  178.4290  139.5230 C   0  0  0  0  0  0  0  0  0  0  0  0
  187.7340  178.3300  139.2610 C   0  0  1  0  0  3  0  0  0  0  0  0
  183.3630  177.0490  136.1900 C   0  0  0  0  0  3  0  0  0  0  0  0
  183.1200  178.7130  140.7050 C   0  0  0  0  0  0  0  0  0  0  0  0
  186.0150  178.6880  142.4570 N   0  0  0  0  0  2  0  0  0  0  0  0
  184.7440  178.8270  142.0220 C   0  0  0  0  0  0  0  0  0  0  0  0
  184.4430  178.6550  140.7480 N   0  0  0  0  0  0  0  0  0  0  0  0
  185.2970  178.3250  139.7580 C   0  0  0  0  0  0  0  0  0  0  0  0
  185.3810  177.2950  137.4950 C   0  0  0  0  0  3  0  0  0  0  0  0
  188.6300  179.0040  137.0500 C   0  0  0  0  0  1  0  0  0  0  0  0
  187.5530  178.6840  137.9200 O   0  0  0  0  0  0  0  0  0  0  0  0
  180.2470  177.3090  139.9060 C   0  0  0  0  0  1  0  0  0  0  0  0
  181.0150  178.4650  139.4640 N   0  0  0  0  0  0  0  0  0  0  0  0
  180.3430  179.6640  138.9580 C   0  0  1  0  0  3  0  0  0  0  0  0
  179.2250  179.9800  139.7380 O   0  0  0  0  0  0  0  0  0  0  0  0
  179.7180  180.8010  140.7530 C   0  0  0  0  0  1  0  0  0  0  0  0
  181.2960  180.8570  138.8550 C   0  0  0  0  0  2  0  0  0  0  0  0
  181.0260  181.6890  137.6750 C   0  0  0  0  0  0  0  0  0  0  0  0
  180.8020  182.3700  136.7080 C   0  0  0  0  0  3  0  0  0  0  0  0
  189.1360  178.0710  139.7610 C   0  0  0  0  0  2  0  0  0  0  0  0
  190.2890  176.8240  141.6500 C   0  0  0  0  0  0  0  0  0  0  0  0
  191.4310  177.1760  141.2500 O   0  0  0  0  0  0  0  0  0  0  0  0
  189.1090  177.2510  140.9630 N   0  0  0  0  0  2  0  0  0  0  0  0
  190.1700  175.9460  142.8460 C   0  0  0  0  0  2  0  0  0  0  0  0
  191.2010  176.2800  143.8160 N   0  0  0  0  0  2  0  0  0  0  0  0
  190.7380  177.4350  144.5760 C   0  0  2  0  0  3  0  0  0  0  0  0
  190.9310  179.6020  143.9610 O   0  0  0  0  0  1  0  0  0  0  0  0
  191.6610  178.5490  144.4010 N   0  0  0  0  0  2  0  0  0  0  0  0
  190.5950  177.0790  146.0540 C   0  0  0  0  0  2  0  0  0  0  0  0
  189.0630  177.9190  147.8080 C   0  0  0  0  0  1  0  0  0  0  0  0
  189.1470  177.1270  146.5170 C   0  0  1  0  0  3  0  0  0  0  0  0
  186.8260  177.5890  145.7320 C   0  0  0  0  0  1  0  0  0  0  0  0
  188.3010  177.7870  145.4430 C   0  0  0  0  0  2  0  0  0  0  0  0
  2 17  2  0  0  0  0
  3 16  2  0  0  0  0
  4 13  1  0  0  0  0
  5  3  1  0  0  0  0
  5  9  2  0  0  0  0
  6  1  1  0  0  0  0
  7  5  1  0  0  0  0
  8  4  2  0  0  0  0
  9 12  1  0  0  0  0
 10 28  1  1  0  0  0
 10  8  1  0  0  0  0
 11  2  1  0  0  0  0
 11  7  2  0  0  0  0
 12 15  1  0  0  0  0
 12  6  2  0  0  0  0
 14 13  1  0  0  0  0
 14  1  2  0  0  0  0
 15 14  1  0  0  0  0
 16  8  1  0  0  0  0
 16 15  1  0  0  0  0
 17  3  1  0  0  0  0
 18 19  1  0  0  0  0
 19 10  1  0  0  0  0
 21  9  1  0  0  0  0
 21 20  1  0  0  0  0
 22 25  1  1  0  0  0
 22 21  1  0  0  0  0
 22 23  1  0  0  0  0
 23 24  1  0  0  0  0
 26 25  1  0  0  0  0
 27 26  3  0  0  0  0
 28 31  1  0  0  0  0
 29 32  1  0  0  0  0
 30 29  2  0  0  0  0
 31 29  1  0  0  0  0
 32 33  1  0  0  0  0
 33 34  1  0  0  0  0
 34 37  1  1  0  0  0
 35 36  1  0  0  0  0
 36 34  1  0  0  0  0
 37 39  1  0  0  0  0
 39 38  1  1  0  0  0
 41 40  1  0  0  0  0
 41 39  1  0  0  0  0
M  END
>  <MODEL>
6

>  <REMARK>
 VINA RESULT:      -6.8      2.161      4.216
  Name = 
  15 active torsions:
  status: ('A' for Active; 'I' for Inactive)
    1  A    between atoms: C_6  and  C_11
    2  A    between atoms: C_6  and  C_25
    3  A    between atoms: C_11  and  N_13
    4  A    between atoms: C_11  and  N_31
    5  A    between atoms: C_14  and  N_39
    6  A    between atoms: O_15  and  C_18
    7  A    between atoms: C_16  and  O_24
    8  A    between atoms: C_16  and  C_34
    9  A    between atoms: C_16  and  N_39
   10  A    between atoms: C_17  and  C_40
   11  A    between atoms: C_18  and  C_37
   12  A    between atoms: C_23  and  C_25
   13  A    between atoms: N_31  and  C_40
   14  A    between atoms: C_34  and  C_38
   15  A    between atoms: N_35  and  C_37
                            x       y       z     vdW  Elec       q    Type
                         _______ _______ _______ _____ _____    ______ ____

>  <TORSDO>
F 15

$$$$
=
 OpenBabel10222418403D

 41 44  0  0  1  0  0  0  0  0999 V2000
  185.9200  178.5640  146.5180 N   0  0  0  0  0  0  0  0  0  0  0  0
  186.6670  178.6250  139.6780 C   0  0  0  0  0  3  0  0  0  0  0  0
  186.0620  178.3510  142.0240 C   0  0  0  0  0  0  0  0  0  0  0  0
  183.0880  179.0040  144.3170 C   0  0  0  0  0  3  0  0  0  0  0  0
  187.4490  178.0920  142.3240 C   0  0  0  0  0  0  0  0  0  0  0  0
  187.1150  178.2660  145.9960 N   0  0  0  0  0  0  0  0  0  0  0  0
  188.3810  178.0390  141.2760 C   0  0  0  0  0  3  0  0  0  0  0  0
  183.7030  178.6570  143.0710 C   0  0  0  0  0  0  0  0  0  0  0  0
  187.8920  177.9610  143.6680 C   0  0  0  0  0  0  0  0  0  0  0  0
  182.8930  178.4700  142.0010 C   0  0  1  0  0  3  0  0  0  0  0  0
  187.9910  178.2940  139.9620 C   0  0  0  0  0  3  0  0  0  0  0  0
  186.9340  178.1320  144.6600 C   0  0  0  0  0  0  0  0  0  0  0  0
  183.7690  178.9840  145.5030 N   0  0  0  0  0  2  0  0  0  0  0  0
  185.0620  178.5950  145.4780 C   0  0  0  0  0  0  0  0  0  0  0  0
  185.6640  178.3240  144.3340 N   0  0  0  0  0  0  0  0  0  0  0  0
  185.1210  178.4030  143.1020 C   0  0  0  0  0  0  0  0  0  0  0  0
  185.7210  178.6660  140.7020 C   0  0  0  0  0  3  0  0  0  0  0  0
  182.4740  176.7200  140.2960 C   0  0  0  0  0  1  0  0  0  0  0  0
  183.3050  177.6940  140.9120 O   0  0  0  0  0  0  0  0  0  0  0  0
  190.1740  178.9180  144.0110 C   0  0  0  0  0  1  0  0  0  0  0  0
  189.2730  177.7730  144.0020 N   0  0  0  0  0  0  0  0  0  0  0  0
  189.7600  176.4320  144.3300 C   0  0  1  0  0  3  0  0  0  0  0  0
  190.2870  175.7980  143.2000 O   0  0  0  0  0  0  0  0  0  0  0  0
  191.6500  175.6610  143.4690 C   0  0  0  0  0  1  0  0  0  0  0  0
  190.7790  176.4530  145.4720 C   0  0  0  0  0  2  0  0  0  0  0  0
  190.1780  176.8530  146.7510 C   0  0  0  0  0  0  0  0  0  0  0  0
  189.6810  177.1800  147.7990 C   0  0  0  0  0  3  0  0  0  0  0  0
  181.4800  179.0050  142.0170 C   0  0  0  0  0  2  0  0  0  0  0  0
  180.1640  180.6970  140.6530 C   0  0  0  0  0  0  0  0  0  0  0  0
  179.4960  181.0590  141.6570 O   0  0  0  0  0  0  0  0  0  0  0  0
  181.1770  179.6940  140.7700 N   0  0  0  0  0  2  0  0  0  0  0  0
  179.8900  181.3160  139.3270 C   0  0  0  0  0  2  0  0  0  0  0  0
  181.1220  181.8340  138.7520 N   0  0  0  0  0  2  0  0  0  0  0  0
  180.8810  182.0790  137.3350 C   0  0  2  0  0  3  0  0  0  0  0  0
  181.6760  184.1890  137.5020 O   0  0  0  0  0  1  0  0  0  0  0  0
  180.5830  183.4890  137.1170 N   0  0  0  0  0  2  0  0  0  0  0  0
  179.7400  181.2010  136.8280 C   0  0  0  0  0  2  0  0  0  0  0  0
  180.8070  181.1510  134.5940 C   0  0  0  0  0  1  0  0  0  0  0  0
  180.1760  180.3010  135.6810 C   0  0  1  0  0  3  0  0  0  0  0  0
  181.4610  178.2330  135.1420 C   0  0  0  0  0  1  0  0  0  0  0  0
  181.1790  179.2850  136.1970 C   0  0  0  0  0  2  0  0  0  0  0  0
  2 11  1  0  0  0  0
  2 17  2  0  0  0  0
  3  5  1  0  0  0  0
  3 16  2  0  0  0  0
  4 13  1  0  0  0  0
  5  9  2  0  0  0  0
  6  1  1  0  0  0  0
  7  5  1  0  0  0  0
  8 16  1  0  0  0  0
  8  4  2  0  0  0  0
  9 21  1  0  0  0  0
  9 12  1  0  0  0  0
 10 28  1  1  0  0  0
 10  8  1  0  0  0  0
 11  7  2  0  0  0  0
 12  6  2  0  0  0  0
 14 13  1  0  0  0  0
 14  1  2  0  0  0  0
 15 12  1  0  0  0  0
 15 14  1  0  0  0  0
 16 15  1  0  0  0  0
 17  3  1  0  0  0  0
 18 19  1  0  0  0  0
 19 10  1  0  0  0  0
 21 20  1  0  0  0  0
 21 22  1  0  0  0  0
 22 25  1  1  0  0  0
 23 24  1  0  0  0  0
 23 22  1  0  0  0  0
 25 26  1  0  0  0  0
 26 27  3  0  0  0  0
 29 31  1  0  0  0  0
 29 30  2  0  0  0  0
 31 28  1  0  0  0  0
 32 29  1  0  0  0  0
 33 32  1  0  0  0  0
 34 37  1  1  0  0  0
 34 33  1  0  0  0  0
 36 34  1  0  0  0  0
 36 35  1  0  0  0  0
 39 38  1  6  0  0  0
 39 41  1  0  0  0  0
 39 37  1  0  0  0  0
 40 41  1  0  0  0  0
M  END
>  <MODEL>
7

>  <REMARK>
 VINA RESULT:      -6.8      3.180     10.289
  Name = 
  15 active torsions:
  status: ('A' for Active; 'I' for Inactive)
    1  A    between atoms: C_6  and  C_11
    2  A    between atoms: C_6  and  C_25
    3  A    between atoms: C_11  and  N_13
    4  A    between atoms: C_11  and  N_31
    5  A    between atoms: C_14  and  N_39
    6  A    between atoms: O_15  and  C_18
    7  A    between atoms: C_16  and  O_24
    8  A    between atoms: C_16  and  C_34
    9  A    between atoms: C_16  and  N_39
   10  A    between atoms: C_17  and  C_40
   11  A    between atoms: C_18  and  C_37
   12  A    between atoms: C_23  and  C_25
   13  A    between atoms: N_31  and  C_40
   14  A    between atoms: C_34  and  C_38
   15  A    between atoms: N_35  and  C_37
                            x       y       z     vdW  Elec       q    Type
                         _______ _______ _______ _____ _____    ______ ____

>  <TORSDO>
F 15

$$$$
=
 OpenBabel10222418403D

 41 44  0  0  1  0  0  0  0  0999 V2000
  186.2630  177.9210  136.5520 N   0  0  0  0  0  0  0  0  0  0  0  0
  184.4940  179.2380  143.0700 C   0  0  0  0  0  3  0  0  0  0  0  0
  185.4000  178.4920  140.9330 C   0  0  0  0  0  0  0  0  0  0  0  0
  188.7560  178.3380  139.1340 C   0  0  0  0  0  3  0  0  0  0  0  0
  184.0520  178.3770  140.4320 C   0  0  0  0  0  0  0  0  0  0  0  0
  184.9690  177.8810  136.8910 N   0  0  0  0  0  0  0  0  0  0  0  0
  182.9740  178.6280  141.2950 C   0  0  0  0  0  3  0  0  0  0  0  0
  187.9090  178.2930  140.2870 C   0  0  0  0  0  0  0  0  0  0  0  0
  183.8050  178.0820  139.0640 C   0  0  0  0  0  0  0  0  0  0  0  0
  188.5050  178.1820  141.5000 C   0  0  1  0  0  3  0  0  0  0  0  0
  183.1940  179.0460  142.6060 C   0  0  0  0  0  3  0  0  0  0  0  0
  184.9190  177.9510  138.2430 C   0  0  0  0  0  0  0  0  0  0  0  0
  188.2710  178.2110  137.8620 N   0  0  0  0  0  2  0  0  0  0  0  0
  186.9450  178.0110  137.7130 C   0  0  0  0  0  0  0  0  0  0  0  0
  186.1380  178.0220  138.7580 N   0  0  0  0  0  0  0  0  0  0  0  0
  186.4910  178.2330  140.0420 C   0  0  0  0  0  0  0  0  0  0  0  0
  185.5810  178.9760  142.2350 C   0  0  0  0  0  3  0  0  0  0  0  0
  188.0470  176.3650  143.1230 C   0  0  0  0  0  1  0  0  0  0  0  0
  187.8100  177.6640  142.5990 O   0  0  0  0  0  0  0  0  0  0  0  0
  181.7900  179.2680  138.1830 C   0  0  0  0  0  1  0  0  0  0  0  0
  182.4800  178.0290  138.5210 N   0  0  0  0  0  0  0  0  0  0  0  0
  181.8360  176.7310  138.3120 C   0  0  1  0  0  3  0  0  0  0  0  0
  182.2450  176.1550  137.1050 O   0  0  0  0  0  0  0  0  0  0  0  0
  181.0630  175.9370  136.3940 C   0  0  0  0  0  1  0  0  0  0  0  0
  182.0740  175.7760  139.4840 C   0  0  0  0  0  2  0  0  0  0  0  0
  180.8210  175.2480  140.0400 C   0  0  0  0  0  0  0  0  0  0  0  0
  179.7920  174.8180  140.4950 C   0  0  0  0  0  3  0  0  0  0  0  0
  189.9710  178.5100  141.6580 C   0  0  0  0  0  2  0  0  0  0  0  0
  191.0840  178.4870  143.9420 C   0  0  0  0  0  0  0  0  0  0  0  0
  191.0770  179.7450  144.0110 O   0  0  0  0  0  0  0  0  0  0  0  0
  190.5320  177.8130  142.8060 N   0  0  0  0  0  2  0  0  0  0  0  0
  191.6800  177.6940  145.0520 C   0  0  0  0  0  2  0  0  0  0  0  0
  190.7060  176.7440  145.5680 N   0  0  0  0  0  2  0  0  0  0  0  0
  190.4280  177.1030  146.9530 C   0  0  2  0  0  3  0  0  0  0  0  0
  191.9760  175.5170  147.4010 O   0  0  0  0  0  1  0  0  0  0  0  0
  191.5600  176.7440  147.7970 N   0  0  0  0  0  2  0  0  0  0  0  0
  189.1540  176.4160  147.4370 C   0  0  0  0  0  2  0  0  0  0  0  0
  188.4940  178.5360  148.5330 C   0  0  0  0  0  1  0  0  0  0  0  0
  188.0150  177.4020  147.6470 C   0  0  1  0  0  3  0  0  0  0  0  0
  186.1150  177.6040  146.0430 C   0  0  0  0  0  1  0  0  0  0  0  0
  187.5710  177.9440  146.3000 C   0  0  0  0  0  2  0  0  0  0  0  0
  1  6  1  0  0  0  0
  1 14  2  0  0  0  0
  3 17  1  0  0  0  0
  4  8  2  0  0  0  0
  5  3  1  0  0  0  0
  5  7  1  0  0  0  0
  6 12  2  0  0  0  0
  7 11  2  0  0  0  0
  8 10  1  0  0  0  0
  9  5  2  0  0  0  0
 10 28  1  6  0  0  0
 10 19  1  0  0  0  0
 11  2  1  0  0  0  0
 12 15  1  0  0  0  0
 12  9  1  0  0  0  0
 13  4  1  0  0  0  0
 14 13  1  0  0  0  0
 14 15  1  0  0  0  0
 15 16  1  0  0  0  0
 16  8  1  0  0  0  0
 16  3  2  0  0  0  0
 17  2  2  0  0  0  0
 19 18  1  0  0  0  0
 20 21  1  0  0  0  0
 21  9  1  0  0  0  0
 22 21  1  0  0  0  0
 22 25  1  1  0  0  0
 23 22  1  0  0  0  0
 24 23  1  0  0  0  0
 25 26  1  0  0  0  0
 26 27  3  0  0  0  0
 28 31  1  0  0  0  0
 29 30  2  0  0  0  0
 29 32  1  0  0  0  0
 31 29  1  0  0  0  0
 32 33  1  0  0  0  0
 33 34  1  0  0  0  0
 34 37  1  1  0  0  0
 34 36  1  0  0  0  0
 35 36  1  0  0  0  0
 37 39  1  0  0  0  0
 39 38  1  1  0  0  0
 40 41  1  0  0  0  0
 41 39  1  0  0  0  0
M  END
>  <MODEL>
8

>  <REMARK>
 VINA RESULT:      -6.7      1.763      2.434
  Name = 
  15 active torsions:
  status: ('A' for Active; 'I' for Inactive)
    1  A    between atoms: C_6  and  C_11
    2  A    between atoms: C_6  and  C_25
    3  A    between atoms: C_11  and  N_13
    4  A    between atoms: C_11  and  N_31
    5  A    between atoms: C_14  and  N_39
    6  A    between atoms: O_15  and  C_18
    7  A    between atoms: C_16  and  O_24
    8  A    between atoms: C_16  and  C_34
    9  A    between atoms: C_16  and  N_39
   10  A    between atoms: C_17  and  C_40
   11  A    between atoms: C_18  and  C_37
   12  A    between atoms: C_23  and  C_25
   13  A    between atoms: N_31  and  C_40
   14  A    between atoms: C_34  and  C_38
   15  A    between atoms: N_35  and  C_37
                            x       y       z     vdW  Elec       q    Type
                         _______ _______ _______ _____ _____    ______ ____

>  <TORSDO>
F 15

$$$$
=
 OpenBabel10222418403D

 41 44  0  0  1  0  0  0  0  0999 V2000
  184.2500  179.0860  142.7290 N   0  0  0  0  0  0  0  0  0  0  0  0
  185.0070  177.0730  136.1920 C   0  0  0  0  0  3  0  0  0  0  0  0
  185.0760  178.0420  138.4290 C   0  0  0  0  0  0  0  0  0  0  0  0
  187.5080  178.3600  141.3460 C   0  0  0  0  0  3  0  0  0  0  0  0
  183.6470  178.2250  138.3640 C   0  0  0  0  0  0  0  0  0  0  0  0
  183.1840  179.1020  141.9200 N   0  0  0  0  0  0  0  0  0  0  0  0
  182.9630  177.8910  137.1850 C   0  0  0  0  0  3  0  0  0  0  0  0
  187.1630  178.2850  139.9580 C   0  0  0  0  0  0  0  0  0  0  0  0
  182.9170  178.6720  139.4990 C   0  0  0  0  0  0  0  0  0  0  0  0
  188.1770  178.2550  139.0590 C   0  0  1  0  0  3  0  0  0  0  0  0
  183.6400  177.3280  136.1050 C   0  0  0  0  0  3  0  0  0  0  0  0
  183.6450  178.8830  140.6650 C   0  0  0  0  0  0  0  0  0  0  0  0
  186.5860  178.6320  142.3180 N   0  0  0  0  0  2  0  0  0  0  0  0
  185.3140  178.8610  141.9300 C   0  0  0  0  0  0  0  0  0  0  0  0
  184.9620  178.7430  140.6630 N   0  0  0  0  0  0  0  0  0  0  0  0
  185.7620  178.3870  139.6370 C   0  0  0  0  0  0  0  0  0  0  0  0
  185.7100  177.4150  137.3480 C   0  0  0  0  0  3  0  0  0  0  0  0
  189.0400  178.8390  136.8100 C   0  0  0  0  0  1  0  0  0  0  0  0
  187.9760  178.6560  137.7340 O   0  0  0  0  0  0  0  0  0  0  0  0
  180.8840  180.1060  139.2780 C   0  0  0  0  0  1  0  0  0  0  0  0
  181.4900  178.7980  139.4890 N   0  0  0  0  0  0  0  0  0  0  0  0
  180.6590  177.6090  139.6910 C   0  0  1  0  0  3  0  0  0  0  0  0
  181.4030  176.5640  140.2470 O   0  0  0  0  0  0  0  0  0  0  0  0
  181.0500  175.4380  139.5010 C   0  0  0  0  0  1  0  0  0  0  0  0
  179.4190  177.9110  140.5360 C   0  0  0  0  0  2  0  0  0  0  0  0
  179.7430  178.0980  141.9570 C   0  0  0  0  0  0  0  0  0  0  0  0
  180.0110  178.2540  143.1210 C   0  0  0  0  0  3  0  0  0  0  0  0
  189.5760  177.8970  139.5050 C   0  0  0  0  0  2  0  0  0  0  0  0
  190.6620  176.9300  141.5880 C   0  0  0  0  0  0  0  0  0  0  0  0
  191.7520  177.5140  141.3490 O   0  0  0  0  0  0  0  0  0  0  0  0
  189.5370  177.0950  140.7200 N   0  0  0  0  0  2  0  0  0  0  0  0
  190.5470  176.0510  142.7850 C   0  0  0  0  0  2  0  0  0  0  0  0
  189.4100  176.4580  143.5960 N   0  0  0  0  0  2  0  0  0  0  0  0
  189.9280  177.1390  144.7760 C   0  0  2  0  0  3  0  0  0  0  0  0
  191.6510  177.1210  146.2400 O   0  0  0  0  0  1  0  0  0  0  0  0
  191.3380  176.8180  144.9580 N   0  0  0  0  0  2  0  0  0  0  0  0
  189.1220  176.7520  146.0130 C   0  0  0  0  0  2  0  0  0  0  0  0
  186.8930  177.7780  145.6760 C   0  0  0  0  0  1  0  0  0  0  0  0
  188.1890  177.8670  146.4610 C   0  0  1  0  0  3  0  0  0  0  0  0
  189.0720  178.2600  148.7600 C   0  0  0  0  0  1  0  0  0  0  0  0
  187.9110  177.7200  147.9460 C   0  0  0  0  0  2  0  0  0  0  0  0
  2 17  2  0  0  0  0
  3 16  2  0  0  0  0
  4 13  1  0  0  0  0
  5  3  1  0  0  0  0
  5  9  2  0  0  0  0
  6  1  1  0  0  0  0
  7  5  1  0  0  0  0
  8  4  2  0  0  0  0
  9 12  1  0  0  0  0
 10 28  1  1  0  0  0
 10  8  1  0  0  0  0
 11  2  1  0  0  0  0
 11  7  2  0  0  0  0
 12  6  2  0  0  0  0
 14 13  1  0  0  0  0
 14  1  2  0  0  0  0
 15 12  1  0  0  0  0
 15 14  1  0  0  0  0
 16  8  1  0  0  0  0
 16 15  1  0  0  0  0
 17  3  1  0  0  0  0
 18 19  1  0  0  0  0
 19 10  1  0  0  0  0
 20 21  1  0  0  0  0
 21  9  1  0  0  0  0
 21 22  1  0  0  0  0
 22 23  1  0  0  0  0
 22 25  1  1  0  0  0
 24 23  1  0  0  0  0
 25 26  1  0  0  0  0
 26 27  3  0  0  0  0
 28 31  1  0  0  0  0
 29 32  1  0  0  0  0
 30 29  2  0  0  0  0
 31 29  1  0  0  0  0
 32 33  1  0  0  0  0
 33 34  1  0  0  0  0
 34 36  1  0  0  0  0
 34 37  1  1  0  0  0
 36 35  1  0  0  0  0
 37 39  1  0  0  0  0
 39 38  1  6  0  0  0
 39 41  1  0  0  0  0
 41 40  1  0  0  0  0
M  END
>  <MODEL>
9

>  <REMARK>
 VINA RESULT:      -6.7      1.985      3.715
  Name = 
  15 active torsions:
  status: ('A' for Active; 'I' for Inactive)
    1  A    between atoms: C_6  and  C_11
    2  A    between atoms: C_6  and  C_25
    3  A    between atoms: C_11  and  N_13
    4  A    between atoms: C_11  and  N_31
    5  A    between atoms: C_14  and  N_39
    6  A    between atoms: O_15  and  C_18
    7  A    between atoms: C_16  and  O_24
    8  A    between atoms: C_16  and  C_34
    9  A    between atoms: C_16  and  N_39
   10  A    between atoms: C_17  and  C_40
   11  A    between atoms: C_18  and  C_37
   12  A    between atoms: C_23  and  C_25
   13  A    between atoms: N_31  and  C_40
   14  A    between atoms: C_34  and  C_38
   15  A    between atoms: N_35  and  C_37
                            x       y       z     vdW  Elec       q    Type
                         _______ _______ _______ _____ _____    ______ ____

>  <TORSDO>
F 15

$$$$
