=
 OpenBabel10222418493D

 68 71  0  0  1  0  0  0  0  0999 V2000
  181.7160  177.8900  137.0500 C   0  0  0  0  0  0  0  0  0  0  0  0
  181.0860  176.7710  137.4860 C   0  0  0  0  0  0  0  0  0  0  0  0
  181.3220  175.3850  136.9240 C   0  0  2  0  0  3  0  0  0  0  0  0
  181.2560  173.4310  138.4240 N   0  0  0  0  0  2  0  0  0  0  0  0
  179.6600  175.3660  135.1370 N   0  0  0  0  0  1  0  0  0  0  0  0
  180.0380  174.7320  136.3950 C   0  0  1  0  0  3  0  0  0  0  0  0
  182.1470  174.4130  137.7840 C   0  0  0  0  0  2  0  0  0  0  0  0
  180.5400  172.6130  137.4250 C   0  0  0  0  0  2  0  0  0  0  0  0
  180.2890  173.3140  136.1520 N   0  0  0  0  0  2  0  0  0  0  0  0
  181.5650  179.1730  137.8200 C   0  0  1  0  0  3  0  0  0  0  0  0
  182.5350  179.2740  138.8200 O   0  0  0  0  0  1  0  0  0  0  0  0
  180.1460  181.8250  138.2530 C   0  0  0  0  0  2  0  0  0  0  0  0
  181.4770  180.4360  136.9450 C   0  0  2  0  0  3  0  0  0  0  0  0
  179.0290  180.6280  136.3990 C   0  0  0  0  0  2  0  0  0  0  0  0
  181.4170  181.6610  137.6610 O   0  0  0  0  0  0  0  0  0  0  0  0
  180.4180  180.3400  135.8410 C   0  0  0  0  0  2  0  0  0  0  0  0
  179.0510  181.9220  137.1970 C   0  0  0  0  0  2  0  0  0  0  0  0
  180.2450  176.8400  138.6390 N   0  0  0  0  0  2  0  0  0  0  0  0
  180.6800  176.2690  139.9030 C   0  0  0  0  0  2  0  0  0  0  0  0
  180.1480  177.0790  141.0630 C   0  0  0  0  0  2  0  0  0  0  0  0
  181.1760  177.8180  141.6440 O   0  0  0  0  0  0  0  0  0  0  0  0
  180.5740  178.4950  142.7050 C   0  0  1  0  0  3  0  0  0  0  0  0
  180.0590  177.4900  143.7210 C   0  0  0  0  0  1  0  0  0  0  0  0
  181.5790  179.3900  143.3500 C   0  0  0  0  0  3  0  0  0  0  0  0
  182.8200  179.0840  143.3480 N   0  0  0  0  0  0  0  0  0  0  0  0
  183.7730  179.9580  143.9780 C   0  0  0  0  0  2  0  0  0  0  0  0
  186.5070  177.3610  143.3090 C   0  0  2  0  0  3  0  0  0  0  0  0
  185.2940  178.2500  143.0110 C   0  0  0  0  0  2  0  0  0  0  0  0
  187.1000  177.6630  144.5550 O   0  0  0  0  0  0  0  0  0  0  0  0
  185.0960  179.2400  144.1610 C   0  0  2  0  0  3  0  0  0  0  0  0
  185.1390  178.6360  145.4480 O   0  0  0  0  0  0  0  0  0  0  0  0
  186.0670  177.5560  145.5070 C   0  0  2  0  0  3  0  0  0  0  0  0
  187.4720  178.7620  141.6240 C   0  0  0  0  0  1  0  0  0  0  0  0
  187.4800  177.4170  142.2060 N   0  0  0  0  0  0  0  0  0  0  0  0
  189.7480  176.6880  141.5990 C   0  0  0  0  0  1  0  0  0  0  0  0
  188.8280  177.1340  142.7230 C   0  0  2  0  0  3  0  0  0  0  0  0
  188.7870  176.1170  143.6810 O   0  0  0  0  0  1  0  0  0  0  0  0
  186.6110  177.4130  146.8560 N   0  0  0  0  0  2  0  0  0  0  0  0
  187.0320  178.7150  147.3540 C   0  0  0  0  0  2  0  0  0  0  0  0
  188.0530  178.5200  148.4520 C   0  0  0  0  0  2  0  0  0  0  0  0
  189.0790  177.4880  148.0220 C   0  0  0  0  0  1  0  0  0  0  0  0
  182.6040  177.8950  135.8340 C   0  0  0  0  0  2  0  0  0  0  0  0
  184.6310  177.1050  137.0170 C   0  0  0  0  0  3  0  0  0  0  0  0
  183.8200  176.9950  135.9580 C   0  0  0  0  0  0  0  0  0  0  0  0
  184.9170  172.5370  135.8970 C   0  0  0  0  0  1  0  0  0  0  0  0
  184.0350  175.9050  134.9840 C   0  0  0  0  0  3  0  0  0  0  0  0
  184.7790  174.8550  135.2310 C   0  0  0  0  0  0  0  0  0  0  0  0
  185.5470  173.8330  135.4910 C   0  0  0  0  0  0  0  0  0  0  0  0
  187.3890  171.5830  135.2550 C   0  0  0  0  0  2  0  0  0  0  0  0
  187.8590  172.8300  135.2690 C   0  0  0  0  0  0  0  0  0  0  0  0
  190.1170  172.1010  135.4220 O   0  0  0  0  0  0  0  0  0  0  0  0
  186.9780  173.9670  135.4270 N   0  0  0  0  0  0  0  0  0  0  0  0
  187.5660  175.2580  135.8030 C   0  0  0  0  0  2  0  0  0  0  0  0
  188.8470  175.5120  135.0170 C   0  0  0  0  0  2  0  0  0  0  0  0
  189.7980  174.4240  135.2150 N   0  0  0  0  0  0  0  0  0  0  0  0
  189.3160  173.0650  135.2770 C   0  0  0  0  0  0  0  0  0  0  0  0
  191.2090  174.7920  135.3560 C   0  0  2  0  0  3  0  0  0  0  0  0
  191.6470  174.8710  136.8260 C   0  0  2  0  0  3  0  0  0  0  0  0
  192.1240  173.5280  137.3530 C   0  0  0  0  0  1  0  0  0  0  0  0
  190.3460  176.7500  137.5510 O   0  0  0  0  0  1  0  0  0  0  0  0
  190.5130  175.3730  137.7040 C   0  0  0  0  0  2  0  0  0  0  0  0
  191.5170  175.9630  134.6480 O   0  0  0  0  0  0  0  0  0  0  0  0
  192.6200  176.5240  135.3060 C   0  0  0  0  0  2  0  0  0  0  0  0
  193.9170  176.1550  134.5980 C   0  0  0  0  0  2  0  0  0  0  0  0
  194.9710  176.9030  135.1130 O   0  0  0  0  0  1  0  0  0  0  0  0
  184.4690  178.1400  138.0840 C   0  0  0  0  0  2  0  0  0  0  0  0
  186.9370  178.0820  137.8320 C   0  0  0  0  0  1  0  0  0  0  0  0
  185.7990  178.3840  138.7750 C   0  0  0  0  0  2  0  0  0  0  0  0
  1  2  2  0  0  0  0
  1 10  1  0  0  0  0
  2 18  1  0  0  0  0
  3  2  1  1  0  0  0
  3  7  1  0  0  0  0
  6  5  1  6  0  0  0
  6  3  1  0  0  0  0
  7  4  1  0  0  0  0
  8  4  1  0  0  0  0
  9  6  1  0  0  0  0
  9  8  1  0  0  0  0
 10 11  1  1  0  0  0
 13 15  1  0  0  0  0
 13 10  1  1  0  0  0
 14 17  1  0  0  0  0
 15 12  1  0  0  0  0
 16 14  1  0  0  0  0
 16 13  1  0  0  0  0
 17 12  1  0  0  0  0
 18 19  1  0  0  0  0
 19 20  1  0  0  0  0
 20 21  1  0  0  0  0
 21 22  1  0  0  0  0
 22 24  1  0  0  0  0
 22 23  1  1  0  0  0
 25 24  2  0  0  0  0
 25 26  1  0  0  0  0
 27 34  1  6  0  0  0
 27 29  1  0  0  0  0
 28 27  1  0  0  0  0
 28 30  1  0  0  0  0
 29 32  1  0  0  0  0
 30 26  1  6  0  0  0
 30 31  1  0  0  0  0
 31 32  1  0  0  0  0
 32 38  1  1  0  0  0
 33 34  1  0  0  0  0
 34 36  1  0  0  0  0
 36 35  1  6  0  0  0
 36 37  1  0  0  0  0
 38 39  1  0  0  0  0
 39 40  1  0  0  0  0
 41 40  1  0  0  0  0
 42 44  1  0  0  0  0
 42  1  1  0  0  0  0
 43 66  1  0  0  0  0
 44 43  2  0  0  0  0
 46 47  2  0  0  0  0
 46 44  1  0  0  0  0
 47 48  2  0  0  0  0
 48 45  1  0  0  0  0
 49 50  2  0  0  0  0
 50 56  1  0  0  0  0
 50 52  1  0  0  0  0
 52 48  1  0  0  0  0
 52 53  1  0  0  0  0
 54 55  1  0  0  0  0
 54 53  1  0  0  0  0
 55 56  1  0  0  0  0
 55 57  1  0  0  0  0
 56 51  2  0  0  0  0
 57 62  1  1  0  0  0
 57 58  1  0  0  0  0
 58 59  1  1  0  0  0
 58 61  1  0  0  0  0
 60 61  1  0  0  0  0
 62 63  1  0  0  0  0
 64 65  1  0  0  0  0
 64 63  1  0  0  0  0
 66 68  1  0  0  0  0
 67 68  1  0  0  0  0
M  END
>  <MODEL>
1

>  <REMARK>
 VINA RESULT:      -4.5      0.000      0.000
  Name = 
  28 active torsions:
  status: ('A' for Active; 'I' for Inactive)
    1  A    between atoms: C_1  and  N_53
    2  A    between atoms: C_3  and  C_26
    3  A    between atoms: C_5  and  C_15
    4  A    between atoms: C_5  and  C_18
    5  A    between atoms: O_9  and  C_13
    6  A    between atoms: O_9  and  C_16
    7  A    between atoms: C_11  and  C_66
    8  A    between atoms: C_13  and  C_64
    9  A    between atoms: O_14  and  C_65
   10  A    between atoms: O_14  and  C_66
   11  A    between atoms: C_15  and  C_17
   12  A    between atoms: C_16  and  C_41
   13  A    between atoms: C_17  and  C_33
   14  A    between atoms: C_22  and  C_38
   15  A    between atoms: C_23  and  C_28
   16  A    between atoms: C_23  and  N_39
   17  A    between atoms: C_24  and  C_38
   18  A    between atoms: C_26  and  N_43
   19  A    between atoms: C_29  and  N_53
   20  A    between atoms: C_32  and  C_36
   21  A    between atoms: C_33  and  C_45
   22  A    between atoms: C_34  and  N_42
   23  A    between atoms: C_34  and  C_61
   24  A    between atoms: C_36  and  C_65
   25  A    between atoms: N_37  and  C_59
   26  A    between atoms: N_39  and  C_67
   27  A    between atoms: N_43  and  C_64
   28  A    between atoms: N_58  and  C_65
                            x       y       z     vdW  Elec       q    Type
                         _______ _______ _______ _____ _____    ______ ____

>  <TORSDO>
F 28

$$$$
=
 OpenBabel10222418493D

 68 71  0  0  1  0  0  0  0  0999 V2000
  181.9270  177.6430  138.1080 C   0  0  0  0  0  0  0  0  0  0  0  0
  182.2210  176.5820  137.3180 C   0  0  0  0  0  0  0  0  0  0  0  0
  182.0170  175.1360  137.7190 C   0  0  2  0  0  3  0  0  0  0  0  0
  180.4770  174.5880  139.5650 N   0  0  0  0  0  2  0  0  0  0  0  0
  181.4130  174.1780  135.5580 N   0  0  0  0  0  1  0  0  0  0  0  0
  180.9180  174.4420  136.9040 C   0  0  1  0  0  3  0  0  0  0  0  0
  181.8870  174.8410  139.2240 C   0  0  0  0  0  2  0  0  0  0  0  0
  179.9480  173.4080  138.8520 C   0  0  0  0  0  2  0  0  0  0  0  0
  180.5810  173.1730  137.5410 N   0  0  0  0  0  2  0  0  0  0  0  0
  181.9690  179.0310  137.5310 C   0  0  1  0  0  3  0  0  0  0  0  0
  183.0130  179.1610  136.6120 O   0  0  0  0  0  1  0  0  0  0  0  0
  181.1670  181.6930  136.3030 C   0  0  0  0  0  2  0  0  0  0  0  0
  180.6230  179.5350  136.9800 C   0  0  2  0  0  3  0  0  0  0  0  0
  180.0300  181.4590  138.4870 C   0  0  0  0  0  2  0  0  0  0  0  0
  180.7190  180.4250  135.8770 O   0  0  0  0  0  0  0  0  0  0  0  0
  179.6680  180.0380  138.0680 C   0  0  0  0  0  2  0  0  0  0  0  0
  180.1700  182.3410  137.2570 C   0  0  0  0  0  2  0  0  0  0  0  0
  182.6200  176.8010  135.9630 N   0  0  0  0  0  2  0  0  0  0  0  0
  183.7520  176.0810  135.4040 C   0  0  0  0  0  2  0  0  0  0  0  0
  184.6860  175.6240  136.5020 C   0  0  0  0  0  2  0  0  0  0  0  0
  185.7560  176.5080  136.6210 O   0  0  0  0  0  0  0  0  0  0  0  0
  186.8240  175.8630  135.9980 C   0  0  1  0  0  3  0  0  0  0  0  0
  187.0010  176.4140  134.5940 C   0  0  0  0  0  1  0  0  0  0  0  0
  188.0680  176.0960  136.7890 C   0  0  0  0  0  3  0  0  0  0  0  0
  189.2090  176.1330  136.2140 N   0  0  0  0  0  0  0  0  0  0  0  0
  190.3960  176.3560  136.9940 C   0  0  0  0  0  2  0  0  0  0  0  0
  193.0640  173.6370  136.6050 C   0  0  2  0  0  3  0  0  0  0  0  0
  191.7470  174.2740  137.0630 C   0  0  0  0  0  2  0  0  0  0  0  0
  193.7720  174.4600  135.7020 O   0  0  0  0  0  0  0  0  0  0  0  0
  191.5720  175.6290  136.3730 C   0  0  2  0  0  3  0  0  0  0  0  0
  192.7300  176.4530  136.4320 O   0  0  0  0  0  0  0  0  0  0  0  0
  193.9360  175.6970  136.3590 C   0  0  2  0  0  3  0  0  0  0  0  0
  192.2560  172.4090  134.7150 C   0  0  0  0  0  1  0  0  0  0  0  0
  192.8310  172.2900  136.0580 N   0  0  0  0  0  0  0  0  0  0  0  0
  195.1440  172.1940  136.8830 C   0  0  0  0  0  1  0  0  0  0  0  0
  194.1100  171.5690  135.9620 C   0  0  2  0  0  3  0  0  0  0  0  0
  194.6070  171.6140  134.6570 O   0  0  0  0  0  1  0  0  0  0  0  0
  195.0030  176.4800  135.7410 N   0  0  0  0  0  2  0  0  0  0  0  0
  195.9960  175.5860  135.1640 C   0  0  0  0  0  2  0  0  0  0  0  0
  197.1610  175.4560  136.1170 C   0  0  0  0  0  2  0  0  0  0  0  0
  197.8230  174.1020  135.9390 C   0  0  0  0  0  1  0  0  0  0  0  0
  181.5150  177.4880  139.5480 C   0  0  0  0  0  2  0  0  0  0  0  0
  181.0100  178.9530  141.4790 C   0  0  0  0  0  3  0  0  0  0  0  0
  181.7580  178.7250  140.3930 C   0  0  0  0  0  0  0  0  0  0  0  0
  186.0170  178.4610  138.7000 C   0  0  0  0  0  1  0  0  0  0  0  0
  182.9070  179.6070  140.1000 C   0  0  0  0  0  3  0  0  0  0  0  0
  184.1440  179.1820  140.0440 C   0  0  0  0  0  0  0  0  0  0  0  0
  185.3720  178.7400  140.0220 C   0  0  0  0  0  0  0  0  0  0  0  0
  184.0590  178.2690  142.5830 C   0  0  0  0  0  2  0  0  0  0  0  0
  185.3880  178.2180  142.4970 C   0  0  0  0  0  0  0  0  0  0  0  0
  185.6530  178.0740  144.8550 O   0  0  0  0  0  0  0  0  0  0  0  0
  186.0740  178.4880  141.2510 N   0  0  0  0  0  0  0  0  0  0  0  0
  187.5110  178.7790  141.2960 C   0  0  0  0  0  2  0  0  0  0  0  0
  188.2210  177.8310  142.2550 C   0  0  0  0  0  2  0  0  0  0  0  0
  187.6280  177.9040  143.5860 N   0  0  0  0  0  0  0  0  0  0  0  0
  186.1970  178.0330  143.7170 C   0  0  0  0  0  0  0  0  0  0  0  0
  188.5460  177.8570  144.7270 C   0  0  2  0  0  3  0  0  0  0  0  0
  189.8870  177.2010  144.3680 C   0  0  2  0  0  3  0  0  0  0  0  0
  191.0060  178.2200  144.2390 C   0  0  0  0  0  1  0  0  0  0  0  0
  190.4950  175.2220  143.1580 O   0  0  0  0  0  1  0  0  0  0  0  0
  189.7790  176.4160  143.0720 C   0  0  0  0  0  2  0  0  0  0  0  0
  187.9520  177.2670  145.8520 O   0  0  0  0  0  0  0  0  0  0  0  0
  188.2210  178.1350  146.9200 C   0  0  0  0  0  2  0  0  0  0  0  0
  189.1580  177.4790  147.9260 C   0  0  0  0  0  2  0  0  0  0  0  0
  188.7860  177.8270  149.2210 O   0  0  0  0  0  1  0  0  0  0  0  0
  179.8580  178.0930  141.8910 C   0  0  0  0  0  2  0  0  0  0  0  0
  180.1920  178.6710  144.2810 C   0  0  0  0  0  1  0  0  0  0  0  0
  179.2060  178.6630  143.1390 C   0  0  0  0  0  2  0  0  0  0  0  0
  1 42  1  0  0  0  0
  2  1  2  0  0  0  0
  3  2  1  1  0  0  0
  3  7  1  0  0  0  0
  6  5  1  6  0  0  0
  6  9  1  0  0  0  0
  6  3  1  0  0  0  0
  7  4  1  0  0  0  0
  8  4  1  0  0  0  0
  9  8  1  0  0  0  0
 10 11  1  6  0  0  0
 10  1  1  0  0  0  0
 12 17  1  0  0  0  0
 13 10  1  1  0  0  0
 13 16  1  0  0  0  0
 15 12  1  0  0  0  0
 15 13  1  0  0  0  0
 16 14  1  0  0  0  0
 17 14  1  0  0  0  0
 18  2  1  0  0  0  0
 19 18  1  0  0  0  0
 19 20  1  0  0  0  0
 20 21  1  0  0  0  0
 22 23  1  6  0  0  0
 22 21  1  0  0  0  0
 22 24  1  0  0  0  0
 25 24  2  0  0  0  0
 25 26  1  0  0  0  0
 27 34  1  6  0  0  0
 27 28  1  0  0  0  0
 29 32  1  0  0  0  0
 29 27  1  0  0  0  0
 30 31  1  0  0  0  0
 30 26  1  1  0  0  0
 30 28  1  0  0  0  0
 32 38  1  6  0  0  0
 32 31  1  0  0  0  0
 33 34  1  0  0  0  0
 36 34  1  0  0  0  0
 36 35  1  1  0  0  0
 37 36  1  0  0  0  0
 39 38  1  0  0  0  0
 39 40  1  0  0  0  0
 41 40  1  0  0  0  0
 42 44  1  0  0  0  0
 43 66  1  0  0  0  0
 44 43  2  0  0  0  0
 45 48  1  0  0  0  0
 46 44  1  0  0  0  0
 47 46  2  0  0  0  0
 48 47  2  0  0  0  0
 48 52  1  0  0  0  0
 50 49  2  0  0  0  0
 50 56  1  0  0  0  0
 52 53  1  0  0  0  0
 52 50  1  0  0  0  0
 53 54  1  0  0  0  0
 54 55  1  0  0  0  0
 55 56  1  0  0  0  0
 55 57  1  0  0  0  0
 56 51  2  0  0  0  0
 57 62  1  1  0  0  0
 58 59  1  6  0  0  0
 58 57  1  0  0  0  0
 61 60  1  0  0  0  0
 61 58  1  0  0  0  0
 62 63  1  0  0  0  0
 63 64  1  0  0  0  0
 64 65  1  0  0  0  0
 66 68  1  0  0  0  0
 68 67  1  0  0  0  0
M  END
>  <MODEL>
2

>  <REMARK>
 VINA RESULT:      -3.4      2.197      8.610
  Name = 
  28 active torsions:
  status: ('A' for Active; 'I' for Inactive)
    1  A    between atoms: C_1  and  N_53
    2  A    between atoms: C_3  and  C_26
    3  A    between atoms: C_5  and  C_15
    4  A    between atoms: C_5  and  C_18
    5  A    between atoms: O_9  and  C_13
    6  A    between atoms: O_9  and  C_16
    7  A    between atoms: C_11  and  C_66
    8  A    between atoms: C_13  and  C_64
    9  A    between atoms: O_14  and  C_65
   10  A    between atoms: O_14  and  C_66
   11  A    between atoms: C_15  and  C_17
   12  A    between atoms: C_16  and  C_41
   13  A    between atoms: C_17  and  C_33
   14  A    between atoms: C_22  and  C_38
   15  A    between atoms: C_23  and  C_28
   16  A    between atoms: C_23  and  N_39
   17  A    between atoms: C_24  and  C_38
   18  A    between atoms: C_26  and  N_43
   19  A    between atoms: C_29  and  N_53
   20  A    between atoms: C_32  and  C_36
   21  A    between atoms: C_33  and  C_45
   22  A    between atoms: C_34  and  N_42
   23  A    between atoms: C_34  and  C_61
   24  A    between atoms: C_36  and  C_65
   25  A    between atoms: N_37  and  C_59
   26  A    between atoms: N_39  and  C_67
   27  A    between atoms: N_43  and  C_64
   28  A    between atoms: N_58  and  C_65
                            x       y       z     vdW  Elec       q    Type
                         _______ _______ _______ _____ _____    ______ ____

>  <TORSDO>
F 28

$$$$
=
 OpenBabel10222418493D

 68 71  0  0  1  0  0  0  0  0999 V2000
  190.4750  175.8240  138.2020 C   0  0  0  0  0  0  0  0  0  0  0  0
  191.6610  176.1280  138.7840 C   0  0  0  0  0  0  0  0  0  0  0  0
  193.0120  175.7370  138.2230 C   0  0  2  0  0  3  0  0  0  0  0  0
  193.1850  173.8230  136.6790 N   0  0  0  0  0  2  0  0  0  0  0  0
  193.7190  177.8770  137.2900 N   0  0  0  0  0  1  0  0  0  0  0  0
  193.3700  176.5040  136.9440 C   0  0  1  0  0  3  0  0  0  0  0  0
  193.3030  174.2320  138.0880 C   0  0  0  0  0  2  0  0  0  0  0  0
  194.1640  174.5240  135.8240 C   0  0  0  0  0  2  0  0  0  0  0  0
  194.5230  175.8690  136.3120 N   0  0  0  0  0  2  0  0  0  0  0  0
  189.2100  176.4430  138.7290 C   0  0  1  0  0  3  0  0  0  0  0  0
  188.8200  175.8410  139.9280 O   0  0  0  0  0  1  0  0  0  0  0  0
  187.0740  178.4530  139.5220 C   0  0  0  0  0  2  0  0  0  0  0  0
  189.2380  177.9790  138.8140 C   0  0  2  0  0  3  0  0  0  0  0  0
  187.5420  178.7130  137.1070 C   0  0  0  0  0  2  0  0  0  0  0  0
  188.4440  178.5400  139.8490 O   0  0  0  0  0  0  0  0  0  0  0  0
  189.0250  178.6680  137.4620 C   0  0  0  0  0  2  0  0  0  0  0  0
  186.7490  179.2720  138.2770 C   0  0  0  0  0  2  0  0  0  0  0  0
  191.6870  176.9900  139.9230 N   0  0  0  0  0  2  0  0  0  0  0  0
  192.8510  177.0270  140.7910 C   0  0  0  0  0  2  0  0  0  0  0  0
  192.4720  177.5230  142.1690 C   0  0  0  0  0  2  0  0  0  0  0  0
  191.0850  177.5290  142.3110 O   0  0  0  0  0  0  0  0  0  0  0  0
  190.8220  176.5560  143.2760 C   0  0  1  0  0  3  0  0  0  0  0  0
  191.7110  176.7880  144.4870 C   0  0  0  0  0  1  0  0  0  0  0  0
  189.3880  176.6430  143.6820 C   0  0  0  0  0  3  0  0  0  0  0  0
  188.4980  175.9520  143.0790 N   0  0  0  0  0  0  0  0  0  0  0  0
  187.1210  176.0520  143.4830 C   0  0  0  0  0  2  0  0  0  0  0  0
  186.9260  178.0110  146.7670 C   0  0  2  0  0  3  0  0  0  0  0  0
  187.3340  176.8830  145.8120 C   0  0  0  0  0  2  0  0  0  0  0  0
  186.2730  179.0700  146.0980 O   0  0  0  0  0  0  0  0  0  0  0  0
  186.9290  177.2560  144.3840 C   0  0  2  0  0  3  0  0  0  0  0  0
  185.5900  177.7260  144.2750 O   0  0  0  0  0  0  0  0  0  0  0  0
  185.1890  178.4800  145.4160 C   0  0  2  0  0  3  0  0  0  0  0  0
  187.8170  178.2820  148.9730 C   0  0  0  0  0  1  0  0  0  0  0  0
  188.0840  178.4810  147.5460 N   0  0  0  0  0  0  0  0  0  0  0  0
  189.3330  176.4060  147.9660 C   0  0  0  0  0  1  0  0  0  0  0  0
  189.2760  177.7020  147.1750 C   0  0  2  0  0  3  0  0  0  0  0  0
  190.4420  178.4250  147.4400 O   0  0  0  0  0  1  0  0  0  0  0  0
  184.1930  179.4850  145.0500 N   0  0  0  0  0  2  0  0  0  0  0  0
  183.6940  179.2140  143.7090 C   0  0  0  0  0  2  0  0  0  0  0  0
  182.1930  179.0430  143.7640 C   0  0  0  0  0  2  0  0  0  0  0  0
  181.6240  179.0430  142.3570 C   0  0  0  0  0  1  0  0  0  0  0  0
  190.3710  174.9100  137.0090 C   0  0  0  0  0  2  0  0  0  0  0  0
  188.4380  175.1900  135.4880 C   0  0  0  0  0  3  0  0  0  0  0  0
  188.9450  174.6140  136.5840 C   0  0  0  0  0  0  0  0  0  0  0  0
  185.4820  171.7030  135.8030 C   0  0  0  0  0  1  0  0  0  0  0  0
  188.1600  173.5850  137.2980 C   0  0  0  0  0  3  0  0  0  0  0  0
  186.9430  173.2430  136.9560 C   0  0  0  0  0  0  0  0  0  0  0  0
  185.7210  172.9390  136.6120 C   0  0  0  0  0  0  0  0  0  0  0  0
  182.9110  172.3000  136.1600 C   0  0  0  0  0  2  0  0  0  0  0  0
  183.2460  173.4360  136.7710 C   0  0  0  0  0  0  0  0  0  0  0  0
  181.0170  174.2630  136.7080 O   0  0  0  0  0  0  0  0  0  0  0  0
  184.6300  173.8050  136.9740 N   0  0  0  0  0  0  0  0  0  0  0  0
  184.9390  175.2010  137.3040 C   0  0  0  0  0  2  0  0  0  0  0  0
  183.9500  175.7400  138.3300 C   0  0  0  0  0  2  0  0  0  0  0  0
  182.5800  175.6050  137.8460 N   0  0  0  0  0  0  0  0  0  0  0  0
  182.2000  174.4190  137.1170 C   0  0  0  0  0  0  0  0  0  0  0  0
  181.6640  176.7150  138.1250 C   0  0  2  0  0  3  0  0  0  0  0  0
  182.1140  178.0230  137.4580 C   0  0  2  0  0  3  0  0  0  0  0  0
  182.9890  178.8600  138.3750 C   0  0  0  0  0  1  0  0  0  0  0  0
  180.2980  179.4370  138.1290 O   0  0  0  0  0  1  0  0  0  0  0  0
  180.9160  178.8510  137.0240 C   0  0  0  0  0  2  0  0  0  0  0  0
  181.4380  176.8720  139.5010 O   0  0  0  0  0  0  0  0  0  0  0  0
  181.0330  175.6120  139.9620 C   0  0  0  0  0  2  0  0  0  0  0  0
  179.5190  175.4690  139.8890 C   0  0  0  0  0  2  0  0  0  0  0  0
  179.1600  174.1300  140.0080 O   0  0  0  0  0  1  0  0  0  0  0  0
  189.1700  176.2030  134.6670 C   0  0  0  0  0  2  0  0  0  0  0  0
  186.9080  177.2210  134.7340 C   0  0  0  0  0  1  0  0  0  0  0  0
  188.3860  177.5040  134.6300 C   0  0  0  0  0  2  0  0  0  0  0  0
  1 10  1  0  0  0  0
  1  2  2  0  0  0  0
  2 18  1  0  0  0  0
  3  2  1  6  0  0  0
  4  7  1  0  0  0  0
  6  5  1  1  0  0  0
  6  3  1  0  0  0  0
  7  3  1  0  0  0  0
  8  9  1  0  0  0  0
  8  4  1  0  0  0  0
  9  6  1  0  0  0  0
 10 11  1  1  0  0  0
 12 15  1  0  0  0  0
 13 10  1  6  0  0  0
 13 15  1  0  0  0  0
 14 16  1  0  0  0  0
 14 17  1  0  0  0  0
 16 13  1  0  0  0  0
 17 12  1  0  0  0  0
 18 19  1  0  0  0  0
 19 20  1  0  0  0  0
 20 21  1  0  0  0  0
 21 22  1  0  0  0  0
 22 24  1  0  0  0  0
 22 23  1  1  0  0  0
 25 26  1  0  0  0  0
 25 24  2  0  0  0  0
 27 34  1  6  0  0  0
 28 27  1  0  0  0  0
 29 27  1  0  0  0  0
 30 26  1  6  0  0  0
 30 28  1  0  0  0  0
 31 30  1  0  0  0  0
 31 32  1  0  0  0  0
 32 38  1  6  0  0  0
 32 29  1  0  0  0  0
 34 33  1  0  0  0  0
 36 37  1  0  0  0  0
 36 34  1  0  0  0  0
 36 35  1  1  0  0  0
 39 40  1  0  0  0  0
 39 38  1  0  0  0  0
 41 40  1  0  0  0  0
 42  1  1  0  0  0  0
 43 44  2  0  0  0  0
 44 42  1  0  0  0  0
 44 46  1  0  0  0  0
 45 48  1  0  0  0  0
 47 46  2  0  0  0  0
 48 47  2  0  0  0  0
 48 52  1  0  0  0  0
 49 50  2  0  0  0  0
 50 52  1  0  0  0  0
 50 56  1  0  0  0  0
 51 56  2  0  0  0  0
 52 53  1  0  0  0  0
 53 54  1  0  0  0  0
 55 57  1  0  0  0  0
 55 54  1  0  0  0  0
 56 55  1  0  0  0  0
 57 62  1  1  0  0  0
 58 57  1  0  0  0  0
 58 59  1  1  0  0  0
 61 58  1  0  0  0  0
 61 60  1  0  0  0  0
 62 63  1  0  0  0  0
 64 63  1  0  0  0  0
 64 65  1  0  0  0  0
 66 43  1  0  0  0  0
 68 66  1  0  0  0  0
 68 67  1  0  0  0  0
M  END
>  <MODEL>
3

>  <REMARK>
 VINA RESULT:      -3.2      2.433      8.674
  Name = 
  28 active torsions:
  status: ('A' for Active; 'I' for Inactive)
    1  A    between atoms: C_1  and  N_53
    2  A    between atoms: C_3  and  C_26
    3  A    between atoms: C_5  and  C_15
    4  A    between atoms: C_5  and  C_18
    5  A    between atoms: O_9  and  C_13
    6  A    between atoms: O_9  and  C_16
    7  A    between atoms: C_11  and  C_66
    8  A    between atoms: C_13  and  C_64
    9  A    between atoms: O_14  and  C_65
   10  A    between atoms: O_14  and  C_66
   11  A    between atoms: C_15  and  C_17
   12  A    between atoms: C_16  and  C_41
   13  A    between atoms: C_17  and  C_33
   14  A    between atoms: C_22  and  C_38
   15  A    between atoms: C_23  and  C_28
   16  A    between atoms: C_23  and  N_39
   17  A    between atoms: C_24  and  C_38
   18  A    between atoms: C_26  and  N_43
   19  A    between atoms: C_29  and  N_53
   20  A    between atoms: C_32  and  C_36
   21  A    between atoms: C_33  and  C_45
   22  A    between atoms: C_34  and  N_42
   23  A    between atoms: C_34  and  C_61
   24  A    between atoms: C_36  and  C_65
   25  A    between atoms: N_37  and  C_59
   26  A    between atoms: N_39  and  C_67
   27  A    between atoms: N_43  and  C_64
   28  A    between atoms: N_58  and  C_65
                            x       y       z     vdW  Elec       q    Type
                         _______ _______ _______ _____ _____    ______ ____

>  <TORSDO>
F 28

$$$$
=
 OpenBabel10222418493D

 68 71  0  0  1  0  0  0  0  0999 V2000
  183.3110  176.8910  137.6790 C   0  0  0  0  0  0  0  0  0  0  0  0
  182.6700  175.7240  137.4250 C   0  0  0  0  0  0  0  0  0  0  0  0
  181.2610  175.6250  136.8800 C   0  0  2  0  0  3  0  0  0  0  0  0
  180.8570  174.4570  134.7460 N   0  0  0  0  0  2  0  0  0  0  0  0
  180.1260  174.6600  138.8110 N   0  0  0  0  0  1  0  0  0  0  0  0
  180.4970  174.4110  137.4230 C   0  0  1  0  0  3  0  0  0  0  0  0
  181.0890  175.7760  135.3580 C   0  0  0  0  0  2  0  0  0  0  0  0
  179.6200  173.8310  135.2550 C   0  0  0  0  0  2  0  0  0  0  0  0
  179.2820  174.2210  136.6370 N   0  0  0  0  0  2  0  0  0  0  0  0
  184.7760  176.8750  138.0150 C   0  0  1  0  0  3  0  0  0  0  0  0
  185.4350  175.8470  137.3360 O   0  0  0  0  0  1  0  0  0  0  0  0
  187.3470  177.6660  136.5980 C   0  0  0  0  0  2  0  0  0  0  0  0
  185.4820  178.2350  137.8660 C   0  0  2  0  0  3  0  0  0  0  0  0
  187.6840  177.9100  139.0370 C   0  0  0  0  0  2  0  0  0  0  0  0
  186.1610  178.4300  136.6340 O   0  0  0  0  0  0  0  0  0  0  0  0
  186.3330  178.6160  139.0820 C   0  0  0  0  0  2  0  0  0  0  0  0
  188.3280  178.1150  137.6750 C   0  0  0  0  0  2  0  0  0  0  0  0
  183.3830  174.4900  137.5350 N   0  0  0  0  0  2  0  0  0  0  0  0
  183.1730  173.4310  136.5630 C   0  0  0  0  0  2  0  0  0  0  0  0
  183.7200  173.8320  135.2120 C   0  0  0  0  0  2  0  0  0  0  0  0
  184.9610  173.2340  135.0000 O   0  0  0  0  0  0  0  0  0  0  0  0
  184.9630  172.1120  135.8300 C   0  0  1  0  0  3  0  0  0  0  0  0
  183.8130  171.1960  135.4470 C   0  0  0  0  0  1  0  0  0  0  0  0
  186.2570  171.3860  135.6710 C   0  0  0  0  0  3  0  0  0  0  0  0
  187.2180  171.9060  135.0060 N   0  0  0  0  0  0  0  0  0  0  0  0
  188.4560  171.1890  134.8610 C   0  0  0  0  0  2  0  0  0  0  0  0
  190.5120  174.3700  135.4250 C   0  0  2  0  0  3  0  0  0  0  0  0
  189.2680  173.5170  135.1490 C   0  0  0  0  0  2  0  0  0  0  0  0
  191.6360  173.5850  135.7630 O   0  0  0  0  0  0  0  0  0  0  0  0
  189.6110  172.0400  135.3530 C   0  0  2  0  0  3  0  0  0  0  0  0
  190.8120  171.6380  134.7030 O   0  0  0  0  0  0  0  0  0  0  0  0
  191.7960  172.6690  134.7030 C   0  0  2  0  0  3  0  0  0  0  0  0
  189.3920  174.8120  137.4940 C   0  0  0  0  0  1  0  0  0  0  0  0
  190.2280  175.3960  136.4420 N   0  0  0  0  0  0  0  0  0  0  0  0
  191.3300  176.0440  138.5420 C   0  0  0  0  0  1  0  0  0  0  0  0
  191.4900  175.8560  137.0430 C   0  0  2  0  0  3  0  0  0  0  0  0
  191.8860  177.0770  136.4910 O   0  0  0  0  0  1  0  0  0  0  0  0
  193.1420  172.1010  134.7020 N   0  0  0  0  0  2  0  0  0  0  0  0
  193.5810  171.8780  136.0720 C   0  0  0  0  0  2  0  0  0  0  0  0
  194.7040  170.8670  136.0760 C   0  0  0  0  0  2  0  0  0  0  0  0
  194.4880  169.8610  137.1910 C   0  0  0  0  0  1  0  0  0  0  0  0
  182.6190  178.2270  137.5980 C   0  0  0  0  0  2  0  0  0  0  0  0
  181.6040  179.9690  139.0340 C   0  0  0  0  0  3  0  0  0  0  0  0
  182.0970  178.7290  138.9310 C   0  0  0  0  0  0  0  0  0  0  0  0
  181.8770  178.8830  143.5150 C   0  0  0  0  0  1  0  0  0  0  0  0
  182.0010  177.8080  140.0830 C   0  0  0  0  0  3  0  0  0  0  0  0
  182.4120  178.1160  141.2870 C   0  0  0  0  0  0  0  0  0  0  0  0
  182.8550  178.4370  142.4730 C   0  0  0  0  0  0  0  0  0  0  0  0
  184.0480  179.3840  144.9600 C   0  0  0  0  0  2  0  0  0  0  0  0
  184.8170  178.8410  144.0160 C   0  0  0  0  0  0  0  0  0  0  0  0
  186.8240  179.4450  145.1400 O   0  0  0  0  0  0  0  0  0  0  0  0
  184.2640  178.3990  142.7540 N   0  0  0  0  0  0  0  0  0  0  0  0
  185.1840  178.1620  141.6360 C   0  0  0  0  0  2  0  0  0  0  0  0
  186.4280  177.4220  142.1130 C   0  0  0  0  0  2  0  0  0  0  0  0
  187.0860  178.1590  143.1870 N   0  0  0  0  0  0  0  0  0  0  0  0
  186.2830  178.8210  144.1860 C   0  0  0  0  0  0  0  0  0  0  0  0
  188.5510  178.1930  143.1700 C   0  0  2  0  0  3  0  0  0  0  0  0
  189.1450  178.4430  144.5630 C   0  0  2  0  0  3  0  0  0  0  0  0
  190.5490  179.0180  144.4920 C   0  0  0  0  0  1  0  0  0  0  0  0
  190.4560  176.9300  145.8830 O   0  0  0  0  0  1  0  0  0  0  0  0
  189.1760  177.1610  145.3790 C   0  0  0  0  0  2  0  0  0  0  0  0
  189.0420  179.0960  142.2150 O   0  0  0  0  0  0  0  0  0  0  0  0
  190.2040  178.5060  141.7000 C   0  0  0  0  0  2  0  0  0  0  0  0
  190.1900  176.9990  141.9200 C   0  0  0  0  0  2  0  0  0  0  0  0
  191.4920  176.5180  142.0100 O   0  0  0  0  0  1  0  0  0  0  0  0
  181.6060  180.9600  137.9150 C   0  0  0  0  0  2  0  0  0  0  0  0
  179.2310  181.5280  138.3570 C   0  0  0  0  0  1  0  0  0  0  0  0
  180.2160  181.0640  137.3120 C   0  0  0  0  0  2  0  0  0  0  0  0
  1 10  1  0  0  0  0
  2 18  1  0  0  0  0
  2  1  2  0  0  0  0
  3  6  1  0  0  0  0
  3  2  1  6  0  0  0
  4  8  1  0  0  0  0
  4  7  1  0  0  0  0
  6  5  1  1  0  0  0
  7  3  1  0  0  0  0
  8  9  1  0  0  0  0
  9  6  1  0  0  0  0
 10 11  1  6  0  0  0
 12 15  1  0  0  0  0
 12 17  1  0  0  0  0
 13 10  1  1  0  0  0
 13 16  1  0  0  0  0
 14 16  1  0  0  0  0
 15 13  1  0  0  0  0
 17 14  1  0  0  0  0
 19 18  1  0  0  0  0
 20 19  1  0  0  0  0
 21 20  1  0  0  0  0
 21 22  1  0  0  0  0
 22 23  1  6  0  0  0
 24 22  1  0  0  0  0
 25 24  2  0  0  0  0
 26 25  1  0  0  0  0
 27 29  1  0  0  0  0
 27 34  1  1  0  0  0
 28 30  1  0  0  0  0
 28 27  1  0  0  0  0
 30 26  1  6  0  0  0
 31 30  1  0  0  0  0
 32 38  1  1  0  0  0
 32 31  1  0  0  0  0
 32 29  1  0  0  0  0
 34 36  1  0  0  0  0
 34 33  1  0  0  0  0
 36 35  1  1  0  0  0
 37 36  1  0  0  0  0
 38 39  1  0  0  0  0
 39 40  1  0  0  0  0
 40 41  1  0  0  0  0
 42  1  1  0  0  0  0
 42 44  1  0  0  0  0
 44 43  2  0  0  0  0
 44 46  1  0  0  0  0
 46 47  2  0  0  0  0
 47 48  2  0  0  0  0
 48 52  1  0  0  0  0
 48 45  1  0  0  0  0
 50 56  1  0  0  0  0
 50 49  2  0  0  0  0
 52 50  1  0  0  0  0
 53 54  1  0  0  0  0
 53 52  1  0  0  0  0
 54 55  1  0  0  0  0
 55 56  1  0  0  0  0
 56 51  2  0  0  0  0
 57 62  1  6  0  0  0
 57 55  1  0  0  0  0
 57 58  1  0  0  0  0
 58 59  1  6  0  0  0
 58 61  1  0  0  0  0
 61 60  1  0  0  0  0
 63 64  1  0  0  0  0
 63 62  1  0  0  0  0
 64 65  1  0  0  0  0
 66 43  1  0  0  0  0
 68 66  1  0  0  0  0
 68 67  1  0  0  0  0
M  END
>  <MODEL>
4

>  <REMARK>
 VINA RESULT:      -1.9      2.137      8.710
  Name = 
  28 active torsions:
  status: ('A' for Active; 'I' for Inactive)
    1  A    between atoms: C_1  and  N_53
    2  A    between atoms: C_3  and  C_26
    3  A    between atoms: C_5  and  C_15
    4  A    between atoms: C_5  and  C_18
    5  A    between atoms: O_9  and  C_13
    6  A    between atoms: O_9  and  C_16
    7  A    between atoms: C_11  and  C_66
    8  A    between atoms: C_13  and  C_64
    9  A    between atoms: O_14  and  C_65
   10  A    between atoms: O_14  and  C_66
   11  A    between atoms: C_15  and  C_17
   12  A    between atoms: C_16  and  C_41
   13  A    between atoms: C_17  and  C_33
   14  A    between atoms: C_22  and  C_38
   15  A    between atoms: C_23  and  C_28
   16  A    between atoms: C_23  and  N_39
   17  A    between atoms: C_24  and  C_38
   18  A    between atoms: C_26  and  N_43
   19  A    between atoms: C_29  and  N_53
   20  A    between atoms: C_32  and  C_36
   21  A    between atoms: C_33  and  C_45
   22  A    between atoms: C_34  and  N_42
   23  A    between atoms: C_34  and  C_61
   24  A    between atoms: C_36  and  C_65
   25  A    between atoms: N_37  and  C_59
   26  A    between atoms: N_39  and  C_67
   27  A    between atoms: N_43  and  C_64
   28  A    between atoms: N_58  and  C_65
                            x       y       z     vdW  Elec       q    Type
                         _______ _______ _______ _____ _____    ______ ____

>  <TORSDO>
F 28

$$$$
=
 OpenBabel10222418493D

 68 72  0  0  1  0  0  0  0  0999 V2000
  183.6030  176.9630  138.1420 C   0  0  0  0  0  0  0  0  0  0  0  0
  183.0240  175.7860  137.8010 C   0  0  0  0  0  0  0  0  0  0  0  0
  181.6580  175.6610  137.1590 C   0  0  2  0  0  3  0  0  0  0  0  0
  181.4780  175.3390  134.7220 N   0  0  0  0  0  2  0  0  0  0  0  0
  180.7220  173.8550  138.5070 N   0  0  0  0  0  1  0  0  0  0  0  0
  181.1320  174.2200  137.1560 C   0  0  1  0  0  3  0  0  0  0  0  0
  181.4610  176.3460  135.7960 C   0  0  0  0  0  2  0  0  0  0  0  0
  180.3790  174.3650  134.8720 C   0  0  0  0  0  2  0  0  0  0  0  0
  179.9740  174.1360  136.2710 N   0  0  0  0  0  2  0  0  0  0  0  0
  185.0430  176.9840  138.5730 C   0  0  1  0  0  3  0  0  0  0  0  0
  185.8010  176.0750  137.8320 O   0  0  0  0  0  1  0  0  0  0  0  0
  186.4500  178.6350  136.4450 C   0  0  0  0  0  2  0  0  0  0  0  0
  185.6750  178.3870  138.6240 C   0  0  2  0  0  3  0  0  0  0  0  0
  188.1110  177.9740  138.1550 C   0  0  0  0  0  2  0  0  0  0  0  0
  185.5680  179.1390  137.4240 O   0  0  0  0  0  0  0  0  0  0  0  0
  187.0920  178.3960  139.2070 C   0  0  0  0  0  2  0  0  0  0  0  0
  187.9030  178.7800  136.8820 C   0  0  0  0  0  2  0  0  0  0  0  0
  183.7750  174.5750  137.9070 N   0  0  0  0  0  2  0  0  0  0  0  0
  183.9750  173.7290  136.7440 C   0  0  1  0  0  3  0  0  0  0  0  0
  184.6490  174.5030  135.6330 C   0  0  0  0  0  2  0  0  0  0  0  0
  186.0170  174.2400  135.6260 O   0  0  0  0  0  0  0  0  0  0  0  0
  186.1750  173.1480  136.4810 C   0  0  1  0  0  3  0  0  0  0  0  0
  184.8520  172.4130  136.6140 C   0  0  0  0  0  2  0  0  0  0  0  0
  187.2060  172.2280  135.9170 C   0  0  0  0  0  3  0  0  0  0  0  0
  188.1140  172.6700  135.1320 N   0  0  0  0  0  0  0  0  0  0  0  0
  189.0970  171.7670  134.5970 C   0  0  0  0  0  2  0  0  0  0  0  0
  192.4000  173.4200  135.6050 C   0  0  2  0  0  3  0  0  0  0  0  0
  190.9710  173.3280  135.0580 C   0  0  0  0  0  2  0  0  0  0  0  0
  192.8300  172.2070  136.1880 O   0  0  0  0  0  0  0  0  0  0  0  0
  190.4110  171.9310  135.3340 C   0  0  2  0  0  3  0  0  0  0  0  0
  191.2970  170.8790  134.9720 O   0  0  0  0  0  0  0  0  0  0  0  0
  192.6630  171.2230  135.1920 C   0  0  2  0  0  3  0  0  0  0  0  0
  193.9170  174.6270  137.0100 C   0  0  0  0  0  1  0  0  0  0  0  0
  192.5340  174.5550  136.5320 N   0  0  0  0  0  0  0  0  0  0  0  0
  193.4550  176.3800  135.1650 C   0  0  0  0  0  1  0  0  0  0  0  0
  192.2130  175.8060  135.8270 C   0  0  2  0  0  3  0  0  0  0  0  0
  191.7150  176.7620  136.7170 O   0  0  0  0  0  1  0  0  0  0  0  0
  193.4560  170.0330  135.4940 N   0  0  0  0  0  2  0  0  0  0  0  0
  194.7750  170.1570  134.8910 C   0  0  0  0  0  2  0  0  0  0  0  0
  195.8270  169.8490  135.9310 C   0  0  0  0  0  2  0  0  0  0  0  0
  196.4960  171.1340  136.3830 C   0  0  0  0  0  1  0  0  0  0  0  0
  182.8670  178.2760  138.0690 C   0  0  0  0  0  2  0  0  0  0  0  0
  181.8960  180.0020  139.5540 C   0  0  0  0  0  3  0  0  0  0  0  0
  182.2980  178.7350  139.3990 C   0  0  0  0  0  0  0  0  0  0  0  0
  181.3960  178.6530  143.9000 C   0  0  0  0  0  1  0  0  0  0  0  0
  182.0570  177.7560  140.4780 C   0  0  0  0  0  3  0  0  0  0  0  0
  182.2760  178.0100  141.7440 C   0  0  0  0  0  0  0  0  0  0  0  0
  182.5290  178.2790  142.9960 C   0  0  0  0  0  0  0  0  0  0  0  0
  183.3030  179.0440  145.7020 C   0  0  0  0  0  2  0  0  0  0  0  0
  184.2240  178.6030  144.8460 C   0  0  0  0  0  0  0  0  0  0  0  0
  186.0170  179.1620  146.3040 O   0  0  0  0  0  0  0  0  0  0  0  0
  183.8820  178.2550  143.4830 N   0  0  0  0  0  0  0  0  0  0  0  0
  184.9660  178.1360  142.5010 C   0  0  0  0  0  2  0  0  0  0  0  0
  186.1530  177.3920  143.1010 C   0  0  0  0  0  2  0  0  0  0  0  0
  186.6150  178.0530  144.3170 N   0  0  0  0  0  0  0  0  0  0  0  0
  185.6480  178.6070  145.2330 C   0  0  0  0  0  0  0  0  0  0  0  0
  188.0640  178.1260  144.5240 C   0  0  2  0  0  3  0  0  0  0  0  0
  188.8430  178.1140  143.2010 C   0  0  2  0  0  3  0  0  0  0  0  0
  189.8160  176.9490  143.1200 C   0  0  0  0  0  1  0  0  0  0  0  0
  190.8570  179.3430  143.6310 O   0  0  0  0  0  1  0  0  0  0  0  0
  189.6090  179.4130  143.0110 C   0  0  0  0  0  2  0  0  0  0  0  0
  188.5150  177.1380  145.4130 O   0  0  0  0  0  0  0  0  0  0  0  0
  189.0410  177.8310  146.5110 C   0  0  0  0  0  2  0  0  0  0  0  0
  188.6920  177.1250  147.8150 C   0  0  0  0  0  2  0  0  0  0  0  0
  187.9190  177.9580  148.6170 O   0  0  0  0  0  1  0  0  0  0  0  0
  182.0470  181.0570  138.5050 C   0  0  0  0  0  2  0  0  0  0  0  0
  181.0060  181.9220  136.4250 C   0  0  0  0  0  1  0  0  0  0  0  0
  180.7510  181.2020  137.7260 C   0  0  0  0  0  2  0  0  0  0  0  0
  1 10  1  0  0  0  0
  2 18  1  0  0  0  0
  2  1  2  0  0  0  0
  3  2  1  6  0  0  0
  4  8  1  0  0  0  0
  4  7  1  0  0  0  0
  6  3  1  0  0  0  0
  6  5  1  1  0  0  0
  7  3  1  0  0  0  0
  8  9  1  0  0  0  0
  9  6  1  0  0  0  0
 10 11  1  6  0  0  0
 12 17  1  0  0  0  0
 12 15  1  0  0  0  0
 13 10  1  6  0  0  0
 13 16  1  0  0  0  0
 14 16  1  0  0  0  0
 15 13  1  0  0  0  0
 17 14  1  0  0  0  0
 19 18  1  1  0  0  0
 20 19  1  0  0  0  0
 21 20  1  0  0  0  0
 21 22  1  0  0  0  0
 22 24  1  6  0  0  0
 22 23  1  0  0  0  0
 23 19  1  0  0  0  0
 25 24  2  0  0  0  0
 26 25  1  0  0  0  0
 27 29  1  0  0  0  0
 27 34  1  1  0  0  0
 28 30  1  0  0  0  0
 28 27  1  0  0  0  0
 30 26  1  6  0  0  0
 31 32  1  0  0  0  0
 31 30  1  0  0  0  0
 32 38  1  1  0  0  0
 32 29  1  0  0  0  0
 34 33  1  0  0  0  0
 36 35  1  1  0  0  0
 36 34  1  0  0  0  0
 36 37  1  0  0  0  0
 39 38  1  0  0  0  0
 39 40  1  0  0  0  0
 40 41  1  0  0  0  0
 42  1  1  0  0  0  0
 42 44  1  0  0  0  0
 44 43  2  0  0  0  0
 44 46  1  0  0  0  0
 46 47  2  0  0  0  0
 47 48  2  0  0  0  0
 48 52  1  0  0  0  0
 48 45  1  0  0  0  0
 50 56  1  0  0  0  0
 50 49  2  0  0  0  0
 52 50  1  0  0  0  0
 53 54  1  0  0  0  0
 53 52  1  0  0  0  0
 54 55  1  0  0  0  0
 55 57  1  0  0  0  0
 55 56  1  0  0  0  0
 56 51  2  0  0  0  0
 57 62  1  1  0  0  0
 58 59  1  1  0  0  0
 58 57  1  0  0  0  0
 61 58  1  0  0  0  0
 61 60  1  0  0  0  0
 62 63  1  0  0  0  0
 63 64  1  0  0  0  0
 64 65  1  0  0  0  0
 66 43  1  0  0  0  0
 67 68  1  0  0  0  0
 68 66  1  0  0  0  0
M  END
>  <MODEL>
5

>  <REMARK>
 VINA RESULT:      -1.9      2.282      9.383
  Name = 
  28 active torsions:
  status: ('A' for Active; 'I' for Inactive)
    1  A    between atoms: C_1  and  N_53
    2  A    between atoms: C_3  and  C_26
    3  A    between atoms: C_5  and  C_15
    4  A    between atoms: C_5  and  C_18
    5  A    between atoms: O_9  and  C_13
    6  A    between atoms: O_9  and  C_16
    7  A    between atoms: C_11  and  C_66
    8  A    between atoms: C_13  and  C_64
    9  A    between atoms: O_14  and  C_65
   10  A    between atoms: O_14  and  C_66
   11  A    between atoms: C_15  and  C_17
   12  A    between atoms: C_16  and  C_41
   13  A    between atoms: C_17  and  C_33
   14  A    between atoms: C_22  and  C_38
   15  A    between atoms: C_23  and  C_28
   16  A    between atoms: C_23  and  N_39
   17  A    between atoms: C_24  and  C_38
   18  A    between atoms: C_26  and  N_43
   19  A    between atoms: C_29  and  N_53
   20  A    between atoms: C_32  and  C_36
   21  A    between atoms: C_33  and  C_45
   22  A    between atoms: C_34  and  N_42
   23  A    between atoms: C_34  and  C_61
   24  A    between atoms: C_36  and  C_65
   25  A    between atoms: N_37  and  C_59
   26  A    between atoms: N_39  and  C_67
   27  A    between atoms: N_43  and  C_64
   28  A    between atoms: N_58  and  C_65
                            x       y       z     vdW  Elec       q    Type
                         _______ _______ _______ _____ _____    ______ ____

>  <TORSDO>
F 28

$$$$
=
 OpenBabel10222418493D

 68 71  0  0  1  0  0  0  0  0999 V2000
  182.1860  177.6310  138.2430 C   0  0  0  0  0  0  0  0  0  0  0  0
  182.4450  176.5400  137.4820 C   0  0  0  0  0  0  0  0  0  0  0  0
  182.1890  175.1140  137.9200 C   0  0  2  0  0  3  0  0  0  0  0  0
  180.4420  174.6460  139.5960 N   0  0  0  0  0  2  0  0  0  0  0  0
  181.8370  174.0600  135.7470 N   0  0  0  0  0  1  0  0  0  0  0  0
  181.1900  174.3830  137.0140 C   0  0  1  0  0  3  0  0  0  0  0  0
  181.8830  174.8850  139.4100 C   0  0  0  0  0  2  0  0  0  0  0  0
  179.9940  173.4360  138.8780 C   0  0  0  0  0  2  0  0  0  0  0  0
  180.7750  173.1430  137.6620 N   0  0  0  0  0  2  0  0  0  0  0  0
  182.2780  179.0020  137.6310 C   0  0  1  0  0  3  0  0  0  0  0  0
  183.3930  179.1030  136.7940 O   0  0  0  0  0  1  0  0  0  0  0  0
  180.7810  181.6390  137.8290 C   0  0  0  0  0  2  0  0  0  0  0  0
  180.9820  179.4910  136.9600 C   0  0  2  0  0  3  0  0  0  0  0  0
  179.4080  179.8730  138.8840 C   0  0  0  0  0  2  0  0  0  0  0  0
  180.9490  180.8770  136.6530 O   0  0  0  0  0  0  0  0  0  0  0  0
  179.7110  179.0070  137.6650 C   0  0  0  0  0  2  0  0  0  0  0  0
  179.4420  181.3420  138.4950 C   0  0  0  0  0  2  0  0  0  0  0  0
  182.8550  176.7100  136.1230 N   0  0  0  0  0  2  0  0  0  0  0  0
  183.9940  175.9740  135.6010 C   0  0  0  0  0  2  0  0  0  0  0  0
  184.9100  175.5440  136.7250 C   0  0  0  0  0  2  0  0  0  0  0  0
  185.9200  176.4870  136.9080 O   0  0  0  0  0  0  0  0  0  0  0  0
  187.0630  175.8930  136.3730 C   0  0  1  0  0  3  0  0  0  0  0  0
  187.4740  176.6300  135.1100 C   0  0  0  0  0  1  0  0  0  0  0  0
  188.1660  175.9620  137.3760 C   0  0  0  0  0  3  0  0  0  0  0  0
  189.3870  176.0050  137.0000 N   0  0  0  0  0  0  0  0  0  0  0  0
  190.4360  176.0680  137.9820 C   0  0  0  0  0  2  0  0  0  0  0  0
  193.7010  175.3960  136.0980 C   0  0  2  0  0  3  0  0  0  0  0  0
  192.6010  176.2200  136.7770 C   0  0  0  0  0  2  0  0  0  0  0  0
  193.5320  174.0080  136.2970 O   0  0  0  0  0  0  0  0  0  0  0  0
  191.6410  175.2790  137.5080 C   0  0  2  0  0  3  0  0  0  0  0  0
  191.2110  174.1760  136.7180 O   0  0  0  0  0  0  0  0  0  0  0  0
  192.2320  173.7110  135.8390 C   0  0  2  0  0  3  0  0  0  0  0  0
  195.6190  174.8680  137.4310 C   0  0  0  0  0  1  0  0  0  0  0  0
  195.0350  175.8550  136.5190 N   0  0  0  0  0  0  0  0  0  0  0  0
  197.3570  175.7320  135.7190 C   0  0  0  0  0  1  0  0  0  0  0  0
  195.9060  175.9830  135.3400 C   0  0  2  0  0  3  0  0  0  0  0  0
  195.8160  177.2660  134.7940 O   0  0  0  0  0  1  0  0  0  0  0  0
  192.0820  172.2800  135.5820 N   0  0  0  0  0  2  0  0  0  0  0  0
  190.7620  172.0180  135.0270 C   0  0  0  0  0  2  0  0  0  0  0  0
  190.5830  170.5270  134.8560 C   0  0  0  0  0  2  0  0  0  0  0  0
  189.1190  170.2090  134.6130 C   0  0  0  0  0  1  0  0  0  0  0  0
  181.7650  177.5290  139.6860 C   0  0  0  0  0  2  0  0  0  0  0  0
  181.4560  179.0600  141.6060 C   0  0  0  0  0  3  0  0  0  0  0  0
  182.1780  178.7180  140.5320 C   0  0  0  0  0  0  0  0  0  0  0  0
  186.4830  177.7520  139.2630 C   0  0  0  0  0  1  0  0  0  0  0  0
  183.4510  179.4160  140.2570 C   0  0  0  0  0  3  0  0  0  0  0  0
  184.6230  178.8400  140.3550 C   0  0  0  0  0  0  0  0  0  0  0  0
  185.7810  178.2520  140.4870 C   0  0  0  0  0  0  0  0  0  0  0  0
  184.2920  178.5590  142.9760 C   0  0  0  0  0  2  0  0  0  0  0  0
  185.5680  178.1750  143.0060 C   0  0  0  0  0  0  0  0  0  0  0  0
  185.6950  178.3800  145.3720 O   0  0  0  0  0  0  0  0  0  0  0  0
  186.3480  178.0530  141.7940 N   0  0  0  0  0  0  0  0  0  0  0  0
  187.8100  177.9940  141.9090 C   0  0  0  0  0  2  0  0  0  0  0  0
  188.2200  177.0820  143.0590 C   0  0  0  0  0  2  0  0  0  0  0  0
  187.6120  177.5240  144.3090 N   0  0  0  0  0  0  0  0  0  0  0  0
  186.2550  178.0140  144.3030 C   0  0  0  0  0  0  0  0  0  0  0  0
  188.4440  177.4540  145.5140 C   0  0  2  0  0  3  0  0  0  0  0  0
  187.6350  177.6940  146.7960 C   0  0  2  0  0  3  0  0  0  0  0  0
  188.1200  178.9150  147.5590 C   0  0  0  0  0  1  0  0  0  0  0  0
  187.9890  176.8680  149.0190 O   0  0  0  0  0  1  0  0  0  0  0  0
  187.6950  176.4820  147.7110 C   0  0  0  0  0  2  0  0  0  0  0  0
  189.5610  178.2980  145.4260 O   0  0  0  0  0  0  0  0  0  0  0  0
  189.8480  178.4050  144.0580 C   0  0  0  0  0  2  0  0  0  0  0  0
  190.9340  179.4430  143.8120 C   0  0  0  0  0  2  0  0  0  0  0  0
  192.1130  178.8160  143.4210 O   0  0  0  0  0  1  0  0  0  0  0  0
  180.1810  178.3850  142.0000 C   0  0  0  0  0  2  0  0  0  0  0  0
  179.8950  180.6820  142.8960 C   0  0  0  0  0  1  0  0  0  0  0  0
  179.1800  179.4150  142.4940 C   0  0  0  0  0  2  0  0  0  0  0  0
  1 42  1  0  0  0  0
  2  1  2  0  0  0  0
  3  2  1  1  0  0  0
  3  7  1  0  0  0  0
  6  5  1  6  0  0  0
  6  9  1  0  0  0  0
  6  3  1  0  0  0  0
  7  4  1  0  0  0  0
  8  4  1  0  0  0  0
  9  8  1  0  0  0  0
 10 11  1  6  0  0  0
 10  1  1  0  0  0  0
 12 17  1  0  0  0  0
 13 10  1  1  0  0  0
 13 16  1  0  0  0  0
 15 13  1  0  0  0  0
 15 12  1  0  0  0  0
 16 14  1  0  0  0  0
 17 14  1  0  0  0  0
 18  2  1  0  0  0  0
 19 18  1  0  0  0  0
 19 20  1  0  0  0  0
 20 21  1  0  0  0  0
 22 23  1  6  0  0  0
 22 21  1  0  0  0  0
 22 24  1  0  0  0  0
 25 24  2  0  0  0  0
 25 26  1  0  0  0  0
 27 29  1  0  0  0  0
 27 34  1  1  0  0  0
 27 28  1  0  0  0  0
 28 30  1  0  0  0  0
 30 26  1  6  0  0  0
 31 30  1  0  0  0  0
 32 38  1  1  0  0  0
 32 29  1  0  0  0  0
 32 31  1  0  0  0  0
 34 33  1  0  0  0  0
 36 35  1  1  0  0  0
 36 34  1  0  0  0  0
 37 36  1  0  0  0  0
 39 38  1  0  0  0  0
 40 39  1  0  0  0  0
 41 40  1  0  0  0  0
 42 44  1  0  0  0  0
 43 66  1  0  0  0  0
 44 43  2  0  0  0  0
 45 48  1  0  0  0  0
 46 47  2  0  0  0  0
 46 44  1  0  0  0  0
 47 48  2  0  0  0  0
 48 52  1  0  0  0  0
 49 50  2  0  0  0  0
 50 56  1  0  0  0  0
 52 53  1  0  0  0  0
 52 50  1  0  0  0  0
 53 54  1  0  0  0  0
 54 55  1  0  0  0  0
 55 57  1  0  0  0  0
 56 55  1  0  0  0  0
 56 51  2  0  0  0  0
 57 62  1  6  0  0  0
 57 58  1  0  0  0  0
 58 59  1  1  0  0  0
 58 61  1  0  0  0  0
 61 60  1  0  0  0  0
 63 62  1  0  0  0  0
 64 63  1  0  0  0  0
 65 64  1  0  0  0  0
 66 68  1  0  0  0  0
 68 67  1  0  0  0  0
M  END
>  <MODEL>
6

>  <REMARK>
 VINA RESULT:      -1.9      2.174      8.575
  Name = 
  28 active torsions:
  status: ('A' for Active; 'I' for Inactive)
    1  A    between atoms: C_1  and  N_53
    2  A    between atoms: C_3  and  C_26
    3  A    between atoms: C_5  and  C_15
    4  A    between atoms: C_5  and  C_18
    5  A    between atoms: O_9  and  C_13
    6  A    between atoms: O_9  and  C_16
    7  A    between atoms: C_11  and  C_66
    8  A    between atoms: C_13  and  C_64
    9  A    between atoms: O_14  and  C_65
   10  A    between atoms: O_14  and  C_66
   11  A    between atoms: C_15  and  C_17
   12  A    between atoms: C_16  and  C_41
   13  A    between atoms: C_17  and  C_33
   14  A    between atoms: C_22  and  C_38
   15  A    between atoms: C_23  and  C_28
   16  A    between atoms: C_23  and  N_39
   17  A    between atoms: C_24  and  C_38
   18  A    between atoms: C_26  and  N_43
   19  A    between atoms: C_29  and  N_53
   20  A    between atoms: C_32  and  C_36
   21  A    between atoms: C_33  and  C_45
   22  A    between atoms: C_34  and  N_42
   23  A    between atoms: C_34  and  C_61
   24  A    between atoms: C_36  and  C_65
   25  A    between atoms: N_37  and  C_59
   26  A    between atoms: N_39  and  C_67
   27  A    between atoms: N_43  and  C_64
   28  A    between atoms: N_58  and  C_65
                            x       y       z     vdW  Elec       q    Type
                         _______ _______ _______ _____ _____    ______ ____

>  <TORSDO>
F 28

$$$$
=
 OpenBabel10222418493D

 68 71  0  0  1  0  0  0  0  0999 V2000
  185.5760  175.7040  136.8280 C   0  0  0  0  0  0  0  0  0  0  0  0
  184.7190  176.5280  137.4790 C   0  0  0  0  0  0  0  0  0  0  0  0
  183.2150  176.5000  137.3120 C   0  0  2  0  0  3  0  0  0  0  0  0
  181.7670  177.2810  139.1480 N   0  0  0  0  0  2  0  0  0  0  0  0
  182.9970  177.7510  135.2280 N   0  0  0  0  0  1  0  0  0  0  0  0
  182.6660  177.7700  136.6480 C   0  0  1  0  0  3  0  0  0  0  0  0
  182.3830  176.0900  138.5390 C   0  0  0  0  0  2  0  0  0  0  0  0
  180.8440  177.9540  138.2130 C   0  0  0  0  0  2  0  0  0  0  0  0
  181.2140  177.7960  136.7940 N   0  0  0  0  0  2  0  0  0  0  0  0
  187.0250  175.6740  137.2280 C   0  0  1  0  0  3  0  0  0  0  0  0
  187.3390  174.4820  137.8860 O   0  0  0  0  0  1  0  0  0  0  0  0
  188.8710  178.0480  136.7920 C   0  0  0  0  0  2  0  0  0  0  0  0
  188.0090  176.0050  136.0920 C   0  0  2  0  0  3  0  0  0  0  0  0
  187.0850  178.1150  135.0820 C   0  0  0  0  0  2  0  0  0  0  0  0
  189.1780  176.7040  136.4920 O   0  0  0  0  0  0  0  0  0  0  0  0
  187.3350  176.6270  134.8640 C   0  0  0  0  0  2  0  0  0  0  0  0
  188.3620  178.7880  135.5610 C   0  0  0  0  0  2  0  0  0  0  0  0
  185.2160  177.3970  138.5000 N   0  0  0  0  0  2  0  0  0  0  0  0
  186.6050  177.8220  138.4920 C   0  0  0  0  0  2  0  0  0  0  0  0
  186.8920  178.7190  139.6750 C   0  0  0  0  0  2  0  0  0  0  0  0
  188.2600  178.9740  139.7620 O   0  0  0  0  0  0  0  0  0  0  0  0
  188.8060  177.8100  140.3040 C   0  0  1  0  0  3  0  0  0  0  0  0
  189.4010  176.9640  139.1920 C   0  0  0  0  0  1  0  0  0  0  0  0
  189.8720  178.1780  141.2820 C   0  0  0  0  0  3  0  0  0  0  0  0
  190.3780  177.2950  142.0560 N   0  0  0  0  0  0  0  0  0  0  0  0
  191.4020  177.6690  142.9930 C   0  0  0  0  0  2  0  0  0  0  0  0
  191.0870  176.9300  146.7370 C   0  0  2  0  0  3  0  0  0  0  0  0
  191.7690  177.0520  145.3690 C   0  0  0  0  0  2  0  0  0  0  0  0
  189.7780  177.4620  146.7330 O   0  0  0  0  0  0  0  0  0  0  0  0
  190.8240  177.7540  144.3920 C   0  0  2  0  0  3  0  0  0  0  0  0
  189.5030  177.2240  144.3960 O   0  0  0  0  0  0  0  0  0  0  0  0
  189.0970  176.7960  145.6930 C   0  0  2  0  0  3  0  0  0  0  0  0
  191.0670  177.9220  148.9150 C   0  0  0  0  0  1  0  0  0  0  0  0
  191.9220  177.5240  147.7940 N   0  0  0  0  0  0  0  0  0  0  0  0
  192.2070  175.2010  148.5480 C   0  0  0  0  0  1  0  0  0  0  0  0
  192.8940  176.5280  148.2710 C   0  0  2  0  0  3  0  0  0  0  0  0
  193.5020  176.9570  149.4540 O   0  0  0  0  0  1  0  0  0  0  0  0
  187.6500  176.9220  145.8520 N   0  0  0  0  0  2  0  0  0  0  0  0
  187.2310  178.2640  145.4750 C   0  0  0  0  0  2  0  0  0  0  0  0
  185.7220  178.3110  145.4000 C   0  0  0  0  0  2  0  0  0  0  0  0
  185.1440  178.5000  146.7910 C   0  0  0  0  0  1  0  0  0  0  0  0
  185.1260  174.7740  135.7320 C   0  0  0  0  0  2  0  0  0  0  0  0
  185.5950  172.5090  136.6140 C   0  0  0  0  0  3  0  0  0  0  0  0
  185.8690  173.4510  135.7050 C   0  0  0  0  0  0  0  0  0  0  0  0
  189.1010  170.3830  134.5980 C   0  0  0  0  0  1  0  0  0  0  0  0
  186.7950  173.1460  134.5940 C   0  0  0  0  0  3  0  0  0  0  0  0
  187.9120  172.4810  134.7500 C   0  0  0  0  0  0  0  0  0  0  0  0
  189.0340  171.8400  134.9370 C   0  0  0  0  0  0  0  0  0  0  0  0
  188.9700  173.3430  137.4360 C   0  0  0  0  0  2  0  0  0  0  0  0
  190.1130  173.2210  136.7610 C   0  0  0  0  0  0  0  0  0  0  0  0
  191.2390  174.7820  138.1570 O   0  0  0  0  0  0  0  0  0  0  0  0
  190.1720  172.5190  135.4980 N   0  0  0  0  0  0  0  0  0  0  0  0
  191.3410  172.7300  134.6360 C   0  0  0  0  0  2  0  0  0  0  0  0
  192.6220  172.7250  135.4610 C   0  0  0  0  0  2  0  0  0  0  0  0
  192.5590  173.7290  136.5180 N   0  0  0  0  0  0  0  0  0  0  0  0
  191.3170  173.9390  137.2220 C   0  0  0  0  0  0  0  0  0  0  0  0
  193.7840  174.4860  136.7900 C   0  0  2  0  0  3  0  0  0  0  0  0
  194.6380  173.8380  137.8890 C   0  0  2  0  0  3  0  0  0  0  0  0
  194.6900  174.6870  139.1480 C   0  0  0  0  0  1  0  0  0  0  0  0
  196.1160  172.4130  136.6510 O   0  0  0  0  0  1  0  0  0  0  0  0
  196.0550  173.5880  137.4000 C   0  0  0  0  0  2  0  0  0  0  0  0
  193.5150  175.8370  137.0550 O   0  0  0  0  0  0  0  0  0  0  0  0
  194.5770  176.5520  136.4850 C   0  0  0  0  0  2  0  0  0  0  0  0
  194.6990  176.2460  134.9980 C   0  0  0  0  0  2  0  0  0  0  0  0
  195.9430  175.6860  134.7270 O   0  0  0  0  0  1  0  0  0  0  0  0
  184.6360  172.6990  137.7450 C   0  0  0  0  0  2  0  0  0  0  0  0
  183.2000  171.5320  136.0910 C   0  0  0  0  0  1  0  0  0  0  0  0
  183.2120  172.4880  137.2590 C   0  0  0  0  0  2  0  0  0  0  0  0
  1 10  1  0  0  0  0
  1  2  2  0  0  0  0
  2 18  1  0  0  0  0
  3  2  1  1  0  0  0
  3  7  1  0  0  0  0
  6  5  1  6  0  0  0
  6  9  1  0  0  0  0
  6  3  1  0  0  0  0
  7  4  1  0  0  0  0
  8  4  1  0  0  0  0
  9  8  1  0  0  0  0
 10 11  1  6  0  0  0
 13 15  1  0  0  0  0
 13 10  1  1  0  0  0
 14 17  1  0  0  0  0
 15 12  1  0  0  0  0
 16 14  1  0  0  0  0
 16 13  1  0  0  0  0
 17 12  1  0  0  0  0
 19 18  1  0  0  0  0
 19 20  1  0  0  0  0
 20 21  1  0  0  0  0
 21 22  1  0  0  0  0
 22 23  1  6  0  0  0
 22 24  1  0  0  0  0
 24 25  2  0  0  0  0
 25 26  1  0  0  0  0
 27 34  1  1  0  0  0
 28 27  1  0  0  0  0
 29 27  1  0  0  0  0
 30 26  1  6  0  0  0
 30 31  1  0  0  0  0
 30 28  1  0  0  0  0
 31 32  1  0  0  0  0
 32 38  1  1  0  0  0
 32 29  1  0  0  0  0
 34 36  1  0  0  0  0
 34 33  1  0  0  0  0
 36 35  1  1  0  0  0
 36 37  1  0  0  0  0
 39 38  1  0  0  0  0
 40 39  1  0  0  0  0
 40 41  1  0  0  0  0
 42  1  1  0  0  0  0
 43 66  1  0  0  0  0
 44 42  1  0  0  0  0
 44 43  2  0  0  0  0
 45 48  1  0  0  0  0
 46 47  2  0  0  0  0
 46 44  1  0  0  0  0
 47 48  2  0  0  0  0
 48 52  1  0  0  0  0
 50 56  1  0  0  0  0
 50 49  2  0  0  0  0
 52 50  1  0  0  0  0
 53 54  1  0  0  0  0
 53 52  1  0  0  0  0
 54 55  1  0  0  0  0
 55 57  1  0  0  0  0
 55 56  1  0  0  0  0
 56 51  2  0  0  0  0
 57 62  1  1  0  0  0
 57 58  1  0  0  0  0
 58 59  1  1  0  0  0
 60 61  1  0  0  0  0
 61 58  1  0  0  0  0
 63 62  1  0  0  0  0
 64 63  1  0  0  0  0
 65 64  1  0  0  0  0
 67 68  1  0  0  0  0
 68 66  1  0  0  0  0
M  END
>  <MODEL>
7

>  <REMARK>
 VINA RESULT:      -1.7      2.930      5.742
  Name = 
  28 active torsions:
  status: ('A' for Active; 'I' for Inactive)
    1  A    between atoms: C_1  and  N_53
    2  A    between atoms: C_3  and  C_26
    3  A    between atoms: C_5  and  C_15
    4  A    between atoms: C_5  and  C_18
    5  A    between atoms: O_9  and  C_13
    6  A    between atoms: O_9  and  C_16
    7  A    between atoms: C_11  and  C_66
    8  A    between atoms: C_13  and  C_64
    9  A    between atoms: O_14  and  C_65
   10  A    between atoms: O_14  and  C_66
   11  A    between atoms: C_15  and  C_17
   12  A    between atoms: C_16  and  C_41
   13  A    between atoms: C_17  and  C_33
   14  A    between atoms: C_22  and  C_38
   15  A    between atoms: C_23  and  C_28
   16  A    between atoms: C_23  and  N_39
   17  A    between atoms: C_24  and  C_38
   18  A    between atoms: C_26  and  N_43
   19  A    between atoms: C_29  and  N_53
   20  A    between atoms: C_32  and  C_36
   21  A    between atoms: C_33  and  C_45
   22  A    between atoms: C_34  and  N_42
   23  A    between atoms: C_34  and  C_61
   24  A    between atoms: C_36  and  C_65
   25  A    between atoms: N_37  and  C_59
   26  A    between atoms: N_39  and  C_67
   27  A    between atoms: N_43  and  C_64
   28  A    between atoms: N_58  and  C_65
                            x       y       z     vdW  Elec       q    Type
                         _______ _______ _______ _____ _____    ______ ____

>  <TORSDO>
F 28

$$$$
=
 OpenBabel10222418493D

 68 71  0  0  1  0  0  0  0  0999 V2000
  184.3690  176.6050  137.8120 C   0  0  0  0  0  0  0  0  0  0  0  0
  183.7210  175.4270  137.6430 C   0  0  0  0  0  0  0  0  0  0  0  0
  182.2880  175.3010  137.1690 C   0  0  2  0  0  3  0  0  0  0  0  0
  180.4740  176.3380  138.4770 N   0  0  0  0  0  2  0  0  0  0  0  0
  182.5220  176.1400  134.8900 N   0  0  0  0  0  1  0  0  0  0  0  0
  181.8910  176.4030  136.1780 C   0  0  1  0  0  3  0  0  0  0  0  0
  181.2120  175.0850  138.2470 C   0  0  0  0  0  2  0  0  0  0  0  0
  179.7720  176.7880  137.2580 C   0  0  0  0  0  2  0  0  0  0  0  0
  180.4410  176.3900  136.0050 N   0  0  0  0  0  2  0  0  0  0  0  0
  185.8490  176.6050  138.0800 C   0  0  1  0  0  3  0  0  0  0  0  0
  186.1760  175.6980  139.0910 O   0  0  0  0  0  1  0  0  0  0  0  0
  188.7230  177.4150  137.5130 C   0  0  0  0  0  2  0  0  0  0  0  0
  186.7250  176.4420  136.8250 C   0  0  2  0  0  3  0  0  0  0  0  0
  187.2240  178.8030  136.1190 C   0  0  0  0  0  2  0  0  0  0  0  0
  188.1050  176.2220  137.0790 O   0  0  0  0  0  0  0  0  0  0  0  0
  186.4800  177.5200  135.7650 C   0  0  0  0  0  2  0  0  0  0  0  0
  188.6780  178.4870  136.4310 C   0  0  0  0  0  2  0  0  0  0  0  0
  184.4420  174.2000  137.7760 N   0  0  0  0  0  2  0  0  0  0  0  0
  184.1890  173.0950  136.8670 C   0  0  0  0  0  2  0  0  0  0  0  0
  184.6910  173.4230  135.4790 C   0  0  0  0  0  2  0  0  0  0  0  0
  185.9050  172.7790  135.2440 O   0  0  0  0  0  0  0  0  0  0  0  0
  185.8730  171.6490  136.0610 C   0  0  1  0  0  3  0  0  0  0  0  0
  184.6450  170.8170  135.7300 C   0  0  0  0  0  1  0  0  0  0  0  0
  187.1050  170.8400  135.8280 C   0  0  0  0  0  3  0  0  0  0  0  0
  188.0390  171.2780  135.0730 N   0  0  0  0  0  0  0  0  0  0  0  0
  189.2170  170.4820  134.8580 C   0  0  0  0  0  2  0  0  0  0  0  0
  191.5840  173.4790  135.1350 C   0  0  2  0  0  3  0  0  0  0  0  0
  190.2600  172.7330  134.9300 C   0  0  0  0  0  2  0  0  0  0  0  0
  192.6230  172.6210  135.5590 O   0  0  0  0  0  0  0  0  0  0  0  0
  190.4520  171.2550  135.2770 C   0  0  2  0  0  3  0  0  0  0  0  0
  191.6060  170.6740  134.6820 O   0  0  0  0  0  0  0  0  0  0  0  0
  192.6900  171.5950  134.5940 C   0  0  2  0  0  3  0  0  0  0  0  0
  190.6480  174.1850  137.2220 C   0  0  0  0  0  1  0  0  0  0  0  0
  191.4050  174.6210  136.0460 N   0  0  0  0  0  0  0  0  0  0  0  0
  193.3470  174.1430  137.4770 C   0  0  0  0  0  1  0  0  0  0  0  0
  192.7210  175.1110  136.4860 C   0  0  2  0  0  3  0  0  0  0  0  0
  192.6030  176.3560  137.1100 O   0  0  0  0  0  1  0  0  0  0  0  0
  193.9710  170.8960  134.6620 N   0  0  0  0  0  2  0  0  0  0  0  0
  194.1320  170.2960  135.9780 C   0  0  0  0  0  2  0  0  0  0  0  0
  194.9180  171.2380  136.8610 C   0  0  0  0  0  2  0  0  0  0  0  0
  196.3700  171.2640  136.4210 C   0  0  0  0  0  1  0  0  0  0  0  0
  183.6700  177.9340  137.7030 C   0  0  0  0  0  2  0  0  0  0  0  0
  182.7090  179.7380  139.1000 C   0  0  0  0  0  3  0  0  0  0  0  0
  183.2190  178.5020  139.0360 C   0  0  0  0  0  0  0  0  0  0  0  0
  183.5760  178.8910  143.5960 C   0  0  0  0  0  1  0  0  0  0  0  0
  183.2110  177.6460  140.2400 C   0  0  0  0  0  3  0  0  0  0  0  0
  183.7850  177.9840  141.3670 C   0  0  0  0  0  0  0  0  0  0  0  0
  184.3890  178.3300  142.4710 C   0  0  0  0  0  0  0  0  0  0  0  0
  186.2560  179.0370  140.3450 C   0  0  0  0  0  2  0  0  0  0  0  0
  186.7160  178.6110  141.5210 C   0  0  0  0  0  0  0  0  0  0  0  0
  188.9520  178.4600  140.7240 O   0  0  0  0  0  0  0  0  0  0  0  0
  185.8180  178.2120  142.5830 N   0  0  0  0  0  0  0  0  0  0  0  0
  186.3590  177.4180  143.6920 C   0  0  0  0  0  2  0  0  0  0  0  0
  187.7100  177.9650  144.1340 C   0  0  0  0  0  2  0  0  0  0  0  0
  188.6420  178.0050  143.0120 N   0  0  0  0  0  0  0  0  0  0  0  0
  188.1640  178.3930  141.7080 C   0  0  0  0  0  0  0  0  0  0  0  0
  190.0310  177.6250  143.2880 C   0  0  2  0  0  3  0  0  0  0  0  0
  190.2140  177.0800  144.7110 C   0  0  2  0  0  3  0  0  0  0  0  0
  190.0270  178.1590  145.7650 C   0  0  0  0  0  1  0  0  0  0  0  0
  191.6020  175.5860  145.9730 O   0  0  0  0  0  1  0  0  0  0  0  0
  191.5890  176.4550  144.8810 C   0  0  0  0  0  2  0  0  0  0  0  0
  190.9250  178.6680  143.0000 O   0  0  0  0  0  0  0  0  0  0  0  0
  191.9060  178.1060  142.1720 C   0  0  0  0  0  2  0  0  0  0  0  0
  191.4870  176.7190  141.7020 C   0  0  0  0  0  2  0  0  0  0  0  0
  192.2230  176.3530  140.5800 O   0  0  0  0  0  1  0  0  0  0  0  0
  182.6240  180.6640  137.9290 C   0  0  0  0  0  2  0  0  0  0  0  0
  180.1800  180.7560  137.5080 C   0  0  0  0  0  1  0  0  0  0  0  0
  181.5010  180.2290  137.0040 C   0  0  0  0  0  2  0  0  0  0  0  0
  1 10  1  0  0  0  0
  2 18  1  0  0  0  0
  2  1  2  0  0  0  0
  3  2  1  1  0  0  0
  3  7  1  0  0  0  0
  6  5  1  6  0  0  0
  6  3  1  0  0  0  0
  7  4  1  0  0  0  0
  8  4  1  0  0  0  0
  9  6  1  0  0  0  0
  9  8  1  0  0  0  0
 10 11  1  1  0  0  0
 13 15  1  0  0  0  0
 13 10  1  1  0  0  0
 14 17  1  0  0  0  0
 15 12  1  0  0  0  0
 16 14  1  0  0  0  0
 16 13  1  0  0  0  0
 17 12  1  0  0  0  0
 19 18  1  0  0  0  0
 20 19  1  0  0  0  0
 21 20  1  0  0  0  0
 21 22  1  0  0  0  0
 22 23  1  6  0  0  0
 24 22  1  0  0  0  0
 25 24  2  0  0  0  0
 26 25  1  0  0  0  0
 27 29  1  0  0  0  0
 27 34  1  1  0  0  0
 28 27  1  0  0  0  0
 28 30  1  0  0  0  0
 30 26  1  6  0  0  0
 31 30  1  0  0  0  0
 32 38  1  1  0  0  0
 32 31  1  0  0  0  0
 32 29  1  0  0  0  0
 34 36  1  0  0  0  0
 34 33  1  0  0  0  0
 36 37  1  0  0  0  0
 36 35  1  1  0  0  0
 38 39  1  0  0  0  0
 39 40  1  0  0  0  0
 41 40  1  0  0  0  0
 42  1  1  0  0  0  0
 42 44  1  0  0  0  0
 44 43  2  0  0  0  0
 44 46  1  0  0  0  0
 46 47  2  0  0  0  0
 47 48  2  0  0  0  0
 48 52  1  0  0  0  0
 48 45  1  0  0  0  0
 49 50  2  0  0  0  0
 50 56  1  0  0  0  0
 50 52  1  0  0  0  0
 51 56  2  0  0  0  0
 52 53  1  0  0  0  0
 53 54  1  0  0  0  0
 55 57  1  0  0  0  0
 55 54  1  0  0  0  0
 56 55  1  0  0  0  0
 57 62  1  1  0  0  0
 57 58  1  0  0  0  0
 58 61  1  0  0  0  0
 58 59  1  1  0  0  0
 61 60  1  0  0  0  0
 63 62  1  0  0  0  0
 64 63  1  0  0  0  0
 65 64  1  0  0  0  0
 66 43  1  0  0  0  0
 68 67  1  0  0  0  0
 68 66  1  0  0  0  0
M  END
>  <MODEL>
8

>  <REMARK>
 VINA RESULT:      -1.7      2.599      8.805
  Name = 
  28 active torsions:
  status: ('A' for Active; 'I' for Inactive)
    1  A    between atoms: C_1  and  N_53
    2  A    between atoms: C_3  and  C_26
    3  A    between atoms: C_5  and  C_15
    4  A    between atoms: C_5  and  C_18
    5  A    between atoms: O_9  and  C_13
    6  A    between atoms: O_9  and  C_16
    7  A    between atoms: C_11  and  C_66
    8  A    between atoms: C_13  and  C_64
    9  A    between atoms: O_14  and  C_65
   10  A    between atoms: O_14  and  C_66
   11  A    between atoms: C_15  and  C_17
   12  A    between atoms: C_16  and  C_41
   13  A    between atoms: C_17  and  C_33
   14  A    between atoms: C_22  and  C_38
   15  A    between atoms: C_23  and  C_28
   16  A    between atoms: C_23  and  N_39
   17  A    between atoms: C_24  and  C_38
   18  A    between atoms: C_26  and  N_43
   19  A    between atoms: C_29  and  N_53
   20  A    between atoms: C_32  and  C_36
   21  A    between atoms: C_33  and  C_45
   22  A    between atoms: C_34  and  N_42
   23  A    between atoms: C_34  and  C_61
   24  A    between atoms: C_36  and  C_65
   25  A    between atoms: N_37  and  C_59
   26  A    between atoms: N_39  and  C_67
   27  A    between atoms: N_43  and  C_64
   28  A    between atoms: N_58  and  C_65
                            x       y       z     vdW  Elec       q    Type
                         _______ _______ _______ _____ _____    ______ ____

>  <TORSDO>
F 28

$$$$
