=
 OpenBabel10222421063D

 29 31  0  0  1  0  0  0  0  0999 V2000
  184.0660  178.8920  144.7180 C   0  0  0  0  0  0  0  0  0  0  0  0
  184.5860  178.7130  143.3800 C   0  0  0  0  0  0  0  0  0  0  0  0
  186.0890  178.2540  144.8810 C   0  0  0  0  0  0  0  0  0  0  0  0
  182.9120  179.2810  145.0380 O   0  0  0  0  0  0  0  0  0  0  0  0
  185.0880  178.5750  145.6440 N   0  0  0  0  0  0  0  0  0  0  0  0
  185.8160  178.3380  143.4720 N   0  0  0  0  0  0  0  0  0  0  0  0
  188.4380  177.5040  144.5400 C   0  0  0  0  0  3  0  0  0  0  0  0
  189.9150  177.0960  146.4240 C   0  0  0  0  0  0  0  0  0  0  0  0
  187.4020  177.8560  145.4150 C   0  0  0  0  0  0  0  0  0  0  0  0
  189.6860  177.1260  145.0410 C   0  0  0  0  0  3  0  0  0  0  0  0
  188.8780  177.4480  147.2990 C   0  0  0  0  0  3  0  0  0  0  0  0
  187.6300  177.8260  146.7980 C   0  0  0  0  0  3  0  0  0  0  0  0
  192.0570  175.8590  146.2220 O   0  0  0  0  0  0  0  0  0  0  0  0
  191.6140  177.1180  148.0810 O   0  0  0  0  0  1  0  0  0  0  0  0
  191.2280  176.7000  146.9570 C   0  0  0  0  0  0  0  0  0  0  0  0
  183.9100  178.9950  142.0730 C   0  0  1  0  0  3  0  0  0  0  0  0
  184.7980  178.6750  140.8790 C   0  0  0  0  0  1  0  0  0  0  0  0
  180.2330  178.3490  142.6450 C   0  0  0  0  0  2  0  0  0  0  0  0
  180.3720  177.3040  139.3260 C   0  0  0  0  0  2  0  0  0  0  0  0
  181.0070  179.7070  140.8840 N   0  0  0  0  0  0  0  0  0  0  0  0
  182.6150  178.3280  141.9550 N   0  0  0  0  0  2  0  0  0  0  0  0
  181.6750  178.1000  139.1720 C   0  0  0  0  0  2  0  0  0  0  0  0
  180.2350  176.6460  140.7090 C   0  0  1  0  0  3  0  0  0  0  0  0
  181.3530  179.0090  141.9230 C   0  0  0  0  0  0  0  0  0  0  0  0
  181.5110  179.4460  139.6260 O   0  0  0  0  0  0  0  0  0  0  0  0
  179.3920  177.5020  141.6710 C   0  0  0  0  0  2  0  0  0  0  0  0
  179.7240  174.6760  139.4770 O   0  0  0  0  0  0  0  0  0  0  0  0
  178.9310  174.6920  141.6580 N   0  0  0  0  0  1  0  0  0  0  0  0
  179.6250  175.2920  140.5690 C   0  0  0  0  0  0  0  0  0  0  0  0
  1  4  2  0  0  0  0
  1  5  1  0  0  0  0
  2  6  2  0  0  0  0
  2  1  1  0  0  0  0
  3  9  1  0  0  0  0
  3  5  2  0  0  0  0
  6  3  1  0  0  0  0
  7 10  2  0  0  0  0
  7  9  1  0  0  0  0
  8 15  1  0  0  0  0
  8 11  2  0  0  0  0
  9 12  2  0  0  0  0
 10  8  1  0  0  0  0
 12 11  1  0  0  0  0
 13 15  2  0  0  0  0
 15 14  1  0  0  0  0
 16 17  1  6  0  0  0
 16  2  1  0  0  0  0
 19 23  1  0  0  0  0
 20 24  2  0  0  0  0
 21 16  1  0  0  0  0
 22 19  1  0  0  0  0
 22 25  1  0  0  0  0
 23 29  1  6  0  0  0
 23 26  1  0  0  0  0
 24 21  1  0  0  0  0
 24 18  1  0  0  0  0
 25 20  1  0  0  0  0
 26 18  1  0  0  0  0
 27 29  2  0  0  0  0
 29 28  1  0  0  0  0
M  END
>  <MODEL>
1

>  <REMARK>
 VINA RESULT:      -8.5      0.000      0.000
  Name = 
  5 active torsions:
  status: ('A' for Active; 'I' for Inactive)
    1  A    between atoms: C_7  and  C_23
    2  A    between atoms: N_8  and  C_13
    3  A    between atoms: C_12  and  C_13
    4  A    between atoms: C_14  and  C_16
    5  A    between atoms: C_18  and  C_24
                            x       y       z     vdW  Elec       q    Type
                         _______ _______ _______ _____ _____    ______ ____

>  <TORSDO>
F 5

$$$$
=
 OpenBabel10222421063D

 29 31  0  0  1  0  0  0  0  0999 V2000
  186.4710  178.5760  141.6060 C   0  0  0  0  0  0  0  0  0  0  0  0
  185.5000  178.2380  142.6230 C   0  0  0  0  0  0  0  0  0  0  0  0
  187.5290  177.9070  143.3260 C   0  0  0  0  0  0  0  0  0  0  0  0
  186.2360  178.9910  140.4400 O   0  0  0  0  0  0  0  0  0  0  0  0
  187.7660  178.3430  142.1260 N   0  0  0  0  0  0  0  0  0  0  0  0
  186.1340  177.8200  143.6650 N   0  0  0  0  0  0  0  0  0  0  0  0
  189.8610  177.1570  143.7650 C   0  0  0  0  0  3  0  0  0  0  0  0
  190.6540  176.7660  146.0270 C   0  0  0  0  0  0  0  0  0  0  0  0
  188.6000  177.5150  144.2570 C   0  0  0  0  0  0  0  0  0  0  0  0
  190.8820  176.7850  144.6440 C   0  0  0  0  0  3  0  0  0  0  0  0
  189.3910  177.1230  146.5190 C   0  0  0  0  0  3  0  0  0  0  0  0
  188.3700  177.4950  145.6400 C   0  0  0  0  0  3  0  0  0  0  0  0
  191.9840  177.1410  148.0890 O   0  0  0  0  0  1  0  0  0  0  0  0
  192.4170  175.3450  146.7380 O   0  0  0  0  0  0  0  0  0  0  0  0
  191.7260  176.3750  146.9570 C   0  0  0  0  0  0  0  0  0  0  0  0
  184.0040  178.2450  142.5230 C   0  0  1  0  0  3  0  0  0  0  0  0
  183.3490  179.0010  143.6690 C   0  0  0  0  0  1  0  0  0  0  0  0
  183.3700  178.2800  138.7990 C   0  0  0  0  0  2  0  0  0  0  0  0
  180.4300  179.8670  139.7820 C   0  0  0  0  0  2  0  0  0  0  0  0
  181.8350  177.3490  140.3240 N   0  0  0  0  0  0  0  0  0  0  0  0
  183.5310  178.7390  141.2310 N   0  0  0  0  0  2  0  0  0  0  0  0
  180.6380  179.2920  141.1900 C   0  0  0  0  0  2  0  0  0  0  0  0
  181.7490  180.2620  139.0990 C   0  0  1  0  0  3  0  0  0  0  0  0
  183.0000  177.9070  140.1910 C   0  0  0  0  0  0  0  0  0  0  0  0
  180.8580  177.8800  141.1410 O   0  0  0  0  0  0  0  0  0  0  0  0
  182.2690  179.1520  138.1680 C   0  0  0  0  0  2  0  0  0  0  0  0
  182.4250  182.4360  138.4050 O   0  0  0  0  0  0  0  0  0  0  0  0
  180.4140  181.7090  137.5030 N   0  0  0  0  0  1  0  0  0  0  0  0
  181.5610  181.5250  138.3270 C   0  0  0  0  0  0  0  0  0  0  0  0
  1  5  1  0  0  0  0
  1  2  1  0  0  0  0
  2  6  2  0  0  0  0
  3  6  1  0  0  0  0
  3  9  1  0  0  0  0
  4  1  2  0  0  0  0
  5  3  2  0  0  0  0
  7  9  2  0  0  0  0
  7 10  1  0  0  0  0
  8 11  1  0  0  0  0
  8 15  1  0  0  0  0
  9 12  1  0  0  0  0
 10  8  2  0  0  0  0
 12 11  2  0  0  0  0
 14 15  2  0  0  0  0
 15 13  1  0  0  0  0
 16  2  1  0  0  0  0
 16 17  1  1  0  0  0
 18 24  1  0  0  0  0
 19 22  1  0  0  0  0
 20 25  1  0  0  0  0
 21 16  1  0  0  0  0
 23 29  1  6  0  0  0
 23 19  1  0  0  0  0
 24 20  2  0  0  0  0
 24 21  1  0  0  0  0
 25 22  1  0  0  0  0
 26 18  1  0  0  0  0
 26 23  1  0  0  0  0
 28 29  1  0  0  0  0
 29 27  2  0  0  0  0
M  END
>  <MODEL>
2

>  <REMARK>
 VINA RESULT:      -8.2      2.154      3.674
  Name = 
  5 active torsions:
  status: ('A' for Active; 'I' for Inactive)
    1  A    between atoms: C_7  and  C_23
    2  A    between atoms: N_8  and  C_13
    3  A    between atoms: C_12  and  C_13
    4  A    between atoms: C_14  and  C_16
    5  A    between atoms: C_18  and  C_24
                            x       y       z     vdW  Elec       q    Type
                         _______ _______ _______ _____ _____    ______ ____

>  <TORSDO>
F 5

$$$$
=
 OpenBabel10222421063D

 29 31  0  0  1  0  0  0  0  0999 V2000
  191.6590  177.4700  140.7690 C   0  0  0  0  0  0  0  0  0  0  0  0
  190.3890  177.2480  140.1120 C   0  0  0  0  0  0  0  0  0  0  0  0
  190.1360  177.4990  142.2560 C   0  0  0  0  0  0  0  0  0  0  0  0
  192.7960  177.5030  140.2310 O   0  0  0  0  0  0  0  0  0  0  0  0
  191.4250  177.6290  142.1560 N   0  0  0  0  0  0  0  0  0  0  0  0
  189.4630  177.2520  141.0100 N   0  0  0  0  0  0  0  0  0  0  0  0
  190.1390  177.8000  144.7260 C   0  0  0  0  0  3  0  0  0  0  0  0
  188.0760  177.7320  146.0060 C   0  0  0  0  0  0  0  0  0  0  0  0
  189.4250  177.5780  143.5420 C   0  0  0  0  0  0  0  0  0  0  0  0
  189.4690  177.8780  145.9500 C   0  0  0  0  0  3  0  0  0  0  0  0
  187.3610  177.5090  144.8200 C   0  0  0  0  0  3  0  0  0  0  0  0
  188.0310  177.4320  143.5970 C   0  0  0  0  0  3  0  0  0  0  0  0
  187.9920  177.4060  148.4650 O   0  0  0  0  0  1  0  0  0  0  0  0
  186.1860  178.2530  147.3440 O   0  0  0  0  0  0  0  0  0  0  0  0
  187.3660  177.8130  147.2920 C   0  0  0  0  0  0  0  0  0  0  0  0
  190.1280  176.9520  138.6660 C   0  0  1  0  0  3  0  0  0  0  0  0
  190.7890  175.6610  138.2090 C   0  0  0  0  0  1  0  0  0  0  0  0
  186.5900  178.2530  138.4100 C   0  0  0  0  0  2  0  0  0  0  0  0
  186.6290  176.4350  135.4400 C   0  0  0  0  0  2  0  0  0  0  0  0
  188.1750  178.5860  136.7000 N   0  0  0  0  0  0  0  0  0  0  0  0
  188.7030  176.9540  138.3410 N   0  0  0  0  0  2  0  0  0  0  0  0
  188.1630  176.4680  135.4870 C   0  0  0  0  0  2  0  0  0  0  0  0
  185.9930  176.3020  136.8330 C   0  0  1  0  0  3  0  0  0  0  0  0
  187.9760  178.1060  137.8900 C   0  0  0  0  0  0  0  0  0  0  0  0
  188.6420  177.8030  135.6640 O   0  0  0  0  0  0  0  0  0  0  0  0
  185.5770  177.6690  137.4070 C   0  0  0  0  0  2  0  0  0  0  0  0
  184.6820  174.6090  135.7950 O   0  0  0  0  0  0  0  0  0  0  0  0
  183.8160  175.4260  137.7880 N   0  0  0  0  0  1  0  0  0  0  0  0
  184.8070  175.4000  136.7660 C   0  0  0  0  0  0  0  0  0  0  0  0
  1  5  1  0  0  0  0
  2  1  1  0  0  0  0
  2  6  2  0  0  0  0
  3  9  1  0  0  0  0
  4  1  2  0  0  0  0
  5  3  2  0  0  0  0
  6  3  1  0  0  0  0
  7 10  1  0  0  0  0
  8 15  1  0  0  0  0
  9 12  1  0  0  0  0
  9  7  2  0  0  0  0
 10  8  2  0  0  0  0
 11  8  1  0  0  0  0
 12 11  2  0  0  0  0
 15 14  2  0  0  0  0
 15 13  1  0  0  0  0
 16 17  1  1  0  0  0
 16  2  1  0  0  0  0
 19 22  1  0  0  0  0
 19 23  1  0  0  0  0
 20 24  2  0  0  0  0
 21 16  1  0  0  0  0
 22 25  1  0  0  0  0
 23 29  1  6  0  0  0
 23 26  1  0  0  0  0
 24 21  1  0  0  0  0
 24 18  1  0  0  0  0
 25 20  1  0  0  0  0
 26 18  1  0  0  0  0
 27 29  2  0  0  0  0
 29 28  1  0  0  0  0
M  END
>  <MODEL>
3

>  <REMARK>
 VINA RESULT:      -8.1      4.786      6.444
  Name = 
  5 active torsions:
  status: ('A' for Active; 'I' for Inactive)
    1  A    between atoms: C_7  and  C_23
    2  A    between atoms: N_8  and  C_13
    3  A    between atoms: C_12  and  C_13
    4  A    between atoms: C_14  and  C_16
    5  A    between atoms: C_18  and  C_24
                            x       y       z     vdW  Elec       q    Type
                         _______ _______ _______ _____ _____    ______ ____

>  <TORSDO>
F 5

$$$$
=
 OpenBabel10222421063D

 29 31  0  0  1  0  0  0  0  0999 V2000
  182.6540  179.0030  143.5430 C   0  0  0  0  0  0  0  0  0  0  0  0
  183.4910  178.6940  142.4040 C   0  0  0  0  0  0  0  0  0  0  0  0
  184.5980  178.5290  144.2670 C   0  0  0  0  0  0  0  0  0  0  0  0
  181.4430  179.3490  143.5230 O   0  0  0  0  0  0  0  0  0  0  0  0
  183.4300  178.8730  144.7190 N   0  0  0  0  0  0  0  0  0  0  0  0
  184.6750  178.4180  142.8350 N   0  0  0  0  0  0  0  0  0  0  0  0
  185.6840  178.6300  146.5040 C   0  0  0  0  0  3  0  0  0  0  0  0
  187.9570  177.8410  146.8370 C   0  0  0  0  0  0  0  0  0  0  0  0
  185.7540  178.2920  145.1460 C   0  0  0  0  0  0  0  0  0  0  0  0
  186.7780  178.4050  147.3430 C   0  0  0  0  0  3  0  0  0  0  0  0
  188.0270  177.5030  145.4780 C   0  0  0  0  0  3  0  0  0  0  0  0
  186.9330  177.7270  144.6380 C   0  0  0  0  0  3  0  0  0  0  0  0
  190.0760  176.6630  147.3690 O   0  0  0  0  0  0  0  0  0  0  0  0
  189.2380  178.2460  148.7920 O   0  0  0  0  0  1  0  0  0  0  0  0
  189.1120  177.6020  147.7170 C   0  0  0  0  0  0  0  0  0  0  0  0
  183.1450  178.7640  140.9480 C   0  0  1  0  0  3  0  0  0  0  0  0
  184.3730  178.6680  140.0540 C   0  0  0  0  0  1  0  0  0  0  0  0
  179.7940  177.0230  140.8560 C   0  0  0  0  0  2  0  0  0  0  0  0
  180.6660  176.5190  137.5220 C   0  0  0  0  0  2  0  0  0  0  0  0
  180.3400  178.7700  139.3740 N   0  0  0  0  0  0  0  0  0  0  0  0
  182.1390  177.7770  140.5610 N   0  0  0  0  0  2  0  0  0  0  0  0
  181.6760  177.6680  137.6540 C   0  0  0  0  0  2  0  0  0  0  0  0
  180.5590  175.6700  138.7990 C   0  0  1  0  0  3  0  0  0  0  0  0
  180.7450  178.0670  140.3870 C   0  0  0  0  0  0  0  0  0  0  0  0
  181.0550  178.8370  138.1960 O   0  0  0  0  0  0  0  0  0  0  0  0
  179.3810  176.1110  139.6860 C   0  0  0  0  0  2  0  0  0  0  0  0
  179.6810  173.4850  139.1430 O   0  0  0  0  0  0  0  0  0  0  0  0
  181.0870  173.6900  137.3080 N   0  0  0  0  0  1  0  0  0  0  0  0
  180.4100  174.2300  138.4390 C   0  0  0  0  0  0  0  0  0  0  0  0
  1  5  1  0  0  0  0
  2  6  2  0  0  0  0
  2  1  1  0  0  0  0
  3  5  2  0  0  0  0
  3  9  1  0  0  0  0
  4  1  2  0  0  0  0
  6  3  1  0  0  0  0
  7 10  1  0  0  0  0
  8 10  2  0  0  0  0
  8 15  1  0  0  0  0
  9  7  2  0  0  0  0
 11  8  1  0  0  0  0
 12  9  1  0  0  0  0
 12 11  2  0  0  0  0
 13 15  2  0  0  0  0
 15 14  1  0  0  0  0
 16 17  1  6  0  0  0
 16  2  1  0  0  0  0
 19 22  1  0  0  0  0
 19 23  1  0  0  0  0
 20 24  2  0  0  0  0
 21 16  1  0  0  0  0
 22 25  1  0  0  0  0
 23 29  1  6  0  0  0
 23 26  1  0  0  0  0
 24 21  1  0  0  0  0
 24 18  1  0  0  0  0
 25 20  1  0  0  0  0
 26 18  1  0  0  0  0
 28 29  1  0  0  0  0
 29 27  2  0  0  0  0
M  END
>  <MODEL>
4

>  <REMARK>
 VINA RESULT:      -8.1      1.742      2.288
  Name = 
  5 active torsions:
  status: ('A' for Active; 'I' for Inactive)
    1  A    between atoms: C_7  and  C_23
    2  A    between atoms: N_8  and  C_13
    3  A    between atoms: C_12  and  C_13
    4  A    between atoms: C_14  and  C_16
    5  A    between atoms: C_18  and  C_24
                            x       y       z     vdW  Elec       q    Type
                         _______ _______ _______ _____ _____    ______ ____

>  <TORSDO>
F 5

$$$$
=
 OpenBabel10222421063D

 29 31  0  0  1  0  0  0  0  0999 V2000
  182.6250  178.8620  142.6920 C   0  0  0  0  0  0  0  0  0  0  0  0
  183.6010  178.5650  141.6660 C   0  0  0  0  0  0  0  0  0  0  0  0
  184.4800  178.4500  143.6500 C   0  0  0  0  0  0  0  0  0  0  0  0
  181.4170  179.1750  142.5230 O   0  0  0  0  0  0  0  0  0  0  0  0
  183.2580  178.7660  143.9540 N   0  0  0  0  0  0  0  0  0  0  0  0
  184.7310  178.3260  142.2400 N   0  0  0  0  0  0  0  0  0  0  0  0
  186.7560  177.6840  144.3040 C   0  0  0  0  0  3  0  0  0  0  0  0
  187.5390  177.8740  146.5950 C   0  0  0  0  0  0  0  0  0  0  0  0
  185.5280  178.2530  144.6640 C   0  0  0  0  0  0  0  0  0  0  0  0
  187.7550  177.4960  145.2630 C   0  0  0  0  0  3  0  0  0  0  0  0
  186.3100  178.4440  146.9550 C   0  0  0  0  0  3  0  0  0  0  0  0
  185.3110  178.6320  145.9970 C   0  0  0  0  0  3  0  0  0  0  0  0
  188.4250  178.1880  148.8920 O   0  0  0  0  0  1  0  0  0  0  0  0
  189.6410  177.0490  147.3240 O   0  0  0  0  0  0  0  0  0  0  0  0
  188.5880  177.6790  147.6090 C   0  0  0  0  0  0  0  0  0  0  0  0
  183.4310  178.6110  140.1780 C   0  0  1  0  0  3  0  0  0  0  0  0
  184.5510  179.3740  139.4880 C   0  0  0  0  0  1  0  0  0  0  0  0
  181.6500  175.4950  138.9970 C   0  0  0  0  0  2  0  0  0  0  0  0
  184.0790  175.6100  136.5040 C   0  0  0  0  0  2  0  0  0  0  0  0
  181.9870  177.3550  137.5920 N   0  0  0  0  0  0  0  0  0  0  0  0
  183.2650  177.2820  139.5910 N   0  0  0  0  0  2  0  0  0  0  0  0
  184.2930  177.0930  136.8370 C   0  0  0  0  0  2  0  0  0  0  0  0
  183.7810  174.7570  137.7470 C   0  0  1  0  0  3  0  0  0  0  0  0
  182.1420  176.8840  138.7920 C   0  0  0  0  0  0  0  0  0  0  0  0
  183.0520  177.8040  136.8380 O   0  0  0  0  0  0  0  0  0  0  0  0
  182.2690  174.5480  137.9520 C   0  0  0  0  0  2  0  0  0  0  0  0
  185.6870  173.3410  137.9050 O   0  0  0  0  0  0  0  0  0  0  0  0
  183.7430  172.2810  137.2120 N   0  0  0  0  0  1  0  0  0  0  0  0
  184.4630  173.4360  137.6310 C   0  0  0  0  0  0  0  0  0  0  0  0
  1  5  1  0  0  0  0
  2  6  2  0  0  0  0
  2  1  1  0  0  0  0
  3  5  2  0  0  0  0
  3  9  1  0  0  0  0
  4  1  2  0  0  0  0
  6  3  1  0  0  0  0
  7  9  2  0  0  0  0
  7 10  1  0  0  0  0
  8 11  1  0  0  0  0
  8 15  1  0  0  0  0
  9 12  1  0  0  0  0
 10  8  2  0  0  0  0
 12 11  2  0  0  0  0
 14 15  2  0  0  0  0
 15 13  1  0  0  0  0
 16 17  1  6  0  0  0
 16  2  1  0  0  0  0
 19 22  1  0  0  0  0
 19 23  1  0  0  0  0
 20 24  2  0  0  0  0
 21 16  1  0  0  0  0
 22 25  1  0  0  0  0
 23 29  1  6  0  0  0
 23 26  1  0  0  0  0
 24 18  1  0  0  0  0
 24 21  1  0  0  0  0
 25 20  1  0  0  0  0
 26 18  1  0  0  0  0
 28 29  1  0  0  0  0
 29 27  2  0  0  0  0
M  END
>  <MODEL>
5

>  <REMARK>
 VINA RESULT:      -8.0      3.071      3.722
  Name = 
  5 active torsions:
  status: ('A' for Active; 'I' for Inactive)
    1  A    between atoms: C_7  and  C_23
    2  A    between atoms: N_8  and  C_13
    3  A    between atoms: C_12  and  C_13
    4  A    between atoms: C_14  and  C_16
    5  A    between atoms: C_18  and  C_24
                            x       y       z     vdW  Elec       q    Type
                         _______ _______ _______ _____ _____    ______ ____

>  <TORSDO>
F 5

$$$$
=
 OpenBabel10222421063D

 29 31  0  0  1  0  0  0  0  0999 V2000
  184.6910  179.1110  141.0020 C   0  0  0  0  0  0  0  0  0  0  0  0
  183.5320  178.6860  141.7560 C   0  0  0  0  0  0  0  0  0  0  0  0
  185.3510  178.5030  142.9310 C   0  0  0  0  0  0  0  0  0  0  0  0
  184.7130  179.5210  139.8120 O   0  0  0  0  0  0  0  0  0  0  0  0
  185.8360  178.9710  141.8210 N   0  0  0  0  0  0  0  0  0  0  0  0
  183.9270  178.3040  142.9230 N   0  0  0  0  0  0  0  0  0  0  0  0
  185.7560  178.5060  145.3870 C   0  0  0  0  0  3  0  0  0  0  0  0
  187.7910  177.5740  146.3290 C   0  0  0  0  0  0  0  0  0  0  0  0
  186.1920  178.1830  144.0960 C   0  0  0  0  0  0  0  0  0  0  0  0
  186.5490  178.2030  146.4960 C   0  0  0  0  0  3  0  0  0  0  0  0
  188.2280  177.2520  145.0370 C   0  0  0  0  0  3  0  0  0  0  0  0
  187.4340  177.5540  143.9270 C   0  0  0  0  0  3  0  0  0  0  0  0
  188.1670  177.5030  148.7810 O   0  0  0  0  0  1  0  0  0  0  0  0
  189.7740  176.7490  147.3380 O   0  0  0  0  0  0  0  0  0  0  0  0
  188.6310  177.2530  147.4940 C   0  0  0  0  0  0  0  0  0  0  0  0
  182.1100  178.5790  141.2970 C   0  0  1  0  0  3  0  0  0  0  0  0
  181.1280  179.1460  142.3110 C   0  0  0  0  0  1  0  0  0  0  0  0
  182.0300  178.8090  137.5280 C   0  0  0  0  0  2  0  0  0  0  0  0
  179.2240  180.7700  138.1670 C   0  0  0  0  0  2  0  0  0  0  0  0
  180.1790  178.0640  138.7770 N   0  0  0  0  0  0  0  0  0  0  0  0
  181.9000  179.1720  139.9780 N   0  0  0  0  0  2  0  0  0  0  0  0
  179.1460  180.1320  139.5610 C   0  0  0  0  0  2  0  0  0  0  0  0
  180.6700  180.9930  137.6950 C   0  0  1  0  0  3  0  0  0  0  0  0
  181.4160  178.4540  138.8350 C   0  0  0  0  0  0  0  0  0  0  0  0
  179.1750  178.7040  139.4750 O   0  0  0  0  0  0  0  0  0  0  0  0
  181.1620  179.8470  136.7920 C   0  0  0  0  0  2  0  0  0  0  0  0
  181.0360  183.3420  137.6020 O   0  0  0  0  0  0  0  0  0  0  0  0
  180.5670  182.3490  135.5570 N   0  0  0  0  0  1  0  0  0  0  0  0
  180.7700  182.2900  136.9650 C   0  0  0  0  0  0  0  0  0  0  0  0
  1  2  1  0  0  0  0
  1  5  1  0  0  0  0
  2  6  2  0  0  0  0
  3  9  1  0  0  0  0
  4  1  2  0  0  0  0
  5  3  2  0  0  0  0
  6  3  1  0  0  0  0
  7 10  1  0  0  0  0
  8 10  2  0  0  0  0
  8 15  1  0  0  0  0
  9  7  2  0  0  0  0
 11  8  1  0  0  0  0
 12  9  1  0  0  0  0
 12 11  2  0  0  0  0
 14 15  2  0  0  0  0
 15 13  1  0  0  0  0
 16  2  1  0  0  0  0
 16 17  1  1  0  0  0
 18 24  1  0  0  0  0
 19 22  1  0  0  0  0
 20 24  2  0  0  0  0
 20 25  1  0  0  0  0
 21 16  1  0  0  0  0
 23 29  1  6  0  0  0
 23 19  1  0  0  0  0
 24 21  1  0  0  0  0
 25 22  1  0  0  0  0
 26 18  1  0  0  0  0
 26 23  1  0  0  0  0
 28 29  1  0  0  0  0
 29 27  2  0  0  0  0
M  END
>  <MODEL>
6

>  <REMARK>
 VINA RESULT:      -7.9      2.505      4.388
  Name = 
  5 active torsions:
  status: ('A' for Active; 'I' for Inactive)
    1  A    between atoms: C_7  and  C_23
    2  A    between atoms: N_8  and  C_13
    3  A    between atoms: C_12  and  C_13
    4  A    between atoms: C_14  and  C_16
    5  A    between atoms: C_18  and  C_24
                            x       y       z     vdW  Elec       q    Type
                         _______ _______ _______ _____ _____    ______ ____

>  <TORSDO>
F 5

$$$$
=
 OpenBabel10222421063D

 29 31  0  0  1  0  0  0  0  0999 V2000
  185.3640  178.1630  143.9800 C   0  0  0  0  0  0  0  0  0  0  0  0
  186.1880  178.2650  142.7960 C   0  0  0  0  0  0  0  0  0  0  0  0
  187.3650  177.6910  144.5290 C   0  0  0  0  0  0  0  0  0  0  0  0
  184.1270  178.3860  144.0660 O   0  0  0  0  0  0  0  0  0  0  0  0
  186.1860  177.7830  145.0680 N   0  0  0  0  0  0  0  0  0  0  0  0
  187.4040  177.9920  143.1240 N   0  0  0  0  0  0  0  0  0  0  0  0
  189.7930  177.1580  144.6470 C   0  0  0  0  0  3  0  0  0  0  0  0
  190.8660  176.6300  146.7610 C   0  0  0  0  0  0  0  0  0  0  0  0
  188.5650  177.3260  145.2990 C   0  0  0  0  0  0  0  0  0  0  0  0
  190.9360  176.8130  145.3720 C   0  0  0  0  0  3  0  0  0  0  0  0
  189.6360  176.7980  147.4130 C   0  0  0  0  0  3  0  0  0  0  0  0
  188.4930  177.1430  146.6880 C   0  0  0  0  0  3  0  0  0  0  0  0
  192.4590  177.0350  148.6210 O   0  0  0  0  0  1  0  0  0  0  0  0
  192.7500  175.2590  147.2080 O   0  0  0  0  0  0  0  0  0  0  0  0
  192.0670  176.2670  147.5290 C   0  0  0  0  0  0  0  0  0  0  0  0
  185.7900  178.7070  141.4200 C   0  0  1  0  0  3  0  0  0  0  0  0
  186.8260  178.3380  140.3690 C   0  0  0  0  0  1  0  0  0  0  0  0
  182.0260  178.6820  141.1020 C   0  0  0  0  0  2  0  0  0  0  0  0
  182.7580  177.2200  138.0260 C   0  0  0  0  0  2  0  0  0  0  0  0
  183.4140  179.6800  139.4830 N   0  0  0  0  0  0  0  0  0  0  0  0
  184.4630  178.2270  141.0370 N   0  0  0  0  0  2  0  0  0  0  0  0
  184.1780  177.7920  138.1380 C   0  0  0  0  0  2  0  0  0  0  0  0
  182.1900  176.7680  139.3810 C   0  0  1  0  0  3  0  0  0  0  0  0
  183.3810  179.0750  140.6310 C   0  0  0  0  0  0  0  0  0  0  0  0
  184.1460  179.1940  138.4190 O   0  0  0  0  0  0  0  0  0  0  0  0
  181.3040  177.8510  140.0230 C   0  0  0  0  0  2  0  0  0  0  0  0
  181.5970  174.7930  138.1930 O   0  0  0  0  0  0  0  0  0  0  0  0
  180.4420  175.1160  140.1810 N   0  0  0  0  0  1  0  0  0  0  0  0
  181.4050  175.5110  139.2090 C   0  0  0  0  0  0  0  0  0  0  0  0
  1  4  2  0  0  0  0
  1  5  1  0  0  0  0
  2  6  2  0  0  0  0
  2  1  1  0  0  0  0
  3  5  2  0  0  0  0
  3  9  1  0  0  0  0
  6  3  1  0  0  0  0
  7  9  2  0  0  0  0
  7 10  1  0  0  0  0
  8 11  1  0  0  0  0
  8 15  1  0  0  0  0
  9 12  1  0  0  0  0
 10  8  2  0  0  0  0
 12 11  2  0  0  0  0
 14 15  2  0  0  0  0
 15 13  1  0  0  0  0
 16 17  1  6  0  0  0
 16  2  1  0  0  0  0
 19 22  1  0  0  0  0
 19 23  1  0  0  0  0
 20 24  2  0  0  0  0
 21 16  1  0  0  0  0
 22 25  1  0  0  0  0
 23 29  1  6  0  0  0
 23 26  1  0  0  0  0
 24 21  1  0  0  0  0
 24 18  1  0  0  0  0
 25 20  1  0  0  0  0
 26 18  1  0  0  0  0
 27 29  2  0  0  0  0
 29 28  1  0  0  0  0
M  END
>  <MODEL>
7

>  <REMARK>
 VINA RESULT:      -7.9      1.653      2.045
  Name = 
  5 active torsions:
  status: ('A' for Active; 'I' for Inactive)
    1  A    between atoms: C_7  and  C_23
    2  A    between atoms: N_8  and  C_13
    3  A    between atoms: C_12  and  C_13
    4  A    between atoms: C_14  and  C_16
    5  A    between atoms: C_18  and  C_24
                            x       y       z     vdW  Elec       q    Type
                         _______ _______ _______ _____ _____    ______ ____

>  <TORSDO>
F 5

$$$$
=
 OpenBabel10222421063D

 29 31  0  0  1  0  0  0  0  0999 V2000
  187.6650  178.1850  140.1120 C   0  0  0  0  0  0  0  0  0  0  0  0
  188.8210  177.6560  139.4210 C   0  0  0  0  0  0  0  0  0  0  0  0
  189.0680  177.5420  141.5770 C   0  0  0  0  0  0  0  0  0  0  0  0
  186.6310  178.6790  139.5920 O   0  0  0  0  0  0  0  0  0  0  0  0
  187.8870  178.0770  141.5060 N   0  0  0  0  0  0  0  0  0  0  0  0
  189.6810  177.2760  140.3040 N   0  0  0  0  0  0  0  0  0  0  0  0
  190.8220  176.3680  142.8970 C   0  0  0  0  0  3  0  0  0  0  0  0
  191.0140  176.6830  145.2970 C   0  0  0  0  0  0  0  0  0  0  0  0
  189.7330  177.2490  142.8570 C   0  0  0  0  0  0  0  0  0  0  0  0
  191.4580  176.0870  144.1090 C   0  0  0  0  0  3  0  0  0  0  0  0
  189.9240  177.5640  145.2570 C   0  0  0  0  0  3  0  0  0  0  0  0
  189.2880  177.8450  144.0450 C   0  0  0  0  0  3  0  0  0  0  0  0
  192.4690  175.2530  146.7110 O   0  0  0  0  0  0  0  0  0  0  0  0
  191.5450  177.1670  147.5590 O   0  0  0  0  0  1  0  0  0  0  0  0
  191.6810  176.3900  146.5760 C   0  0  0  0  0  0  0  0  0  0  0  0
  189.0900  177.6210  137.9480 C   0  0  1  0  0  3  0  0  0  0  0  0
  189.0550  179.0050  137.3180 C   0  0  0  0  0  1  0  0  0  0  0  0
  191.6870  174.8780  137.9690 C   0  0  0  0  0  2  0  0  0  0  0  0
  192.1040  175.8820  134.6600 C   0  0  0  0  0  2  0  0  0  0  0  0
  189.9360  174.9340  136.3950 N   0  0  0  0  0  0  0  0  0  0  0  0
  190.3340  176.9280  137.6200 N   0  0  0  0  0  2  0  0  0  0  0  0
  190.7170  176.5360  134.7260 C   0  0  0  0  0  2  0  0  0  0  0  0
  192.8830  176.0030  135.9800 C   0  0  1  0  0  3  0  0  0  0  0  0
  190.4480  175.5100  137.4400 C   0  0  0  0  0  0  0  0  0  0  0  0
  189.7370  175.6130  135.2100 O   0  0  0  0  0  0  0  0  0  0  0  0
  192.7370  174.7410  136.8500 C   0  0  0  0  0  2  0  0  0  0  0  0
  194.6460  177.0390  134.7630 O   0  0  0  0  0  0  0  0  0  0  0  0
  195.3400  175.6270  136.4700 N   0  0  0  0  0  1  0  0  0  0  0  0
  194.3250  176.2580  135.6960 C   0  0  0  0  0  0  0  0  0  0  0  0
  1  5  1  0  0  0  0
  2  1  1  0  0  0  0
  2  6  2  0  0  0  0
  3  9  1  0  0  0  0
  4  1  2  0  0  0  0
  5  3  2  0  0  0  0
  6  3  1  0  0  0  0
  7 10  1  0  0  0  0
  8 15  1  0  0  0  0
  9  7  2  0  0  0  0
  9 12  1  0  0  0  0
 10  8  2  0  0  0  0
 11  8  1  0  0  0  0
 12 11  2  0  0  0  0
 15 13  2  0  0  0  0
 15 14  1  0  0  0  0
 16 17  1  1  0  0  0
 16  2  1  0  0  0  0
 19 22  1  0  0  0  0
 19 23  1  0  0  0  0
 20 24  2  0  0  0  0
 21 16  1  0  0  0  0
 22 25  1  0  0  0  0
 23 29  1  6  0  0  0
 23 26  1  0  0  0  0
 24 21  1  0  0  0  0
 24 18  1  0  0  0  0
 25 20  1  0  0  0  0
 26 18  1  0  0  0  0
 27 29  2  0  0  0  0
 29 28  1  0  0  0  0
M  END
>  <MODEL>
8

>  <REMARK>
 VINA RESULT:      -7.9      6.638      8.980
  Name = 
  5 active torsions:
  status: ('A' for Active; 'I' for Inactive)
    1  A    between atoms: C_7  and  C_23
    2  A    between atoms: N_8  and  C_13
    3  A    between atoms: C_12  and  C_13
    4  A    between atoms: C_14  and  C_16
    5  A    between atoms: C_18  and  C_24
                            x       y       z     vdW  Elec       q    Type
                         _______ _______ _______ _____ _____    ______ ____

>  <TORSDO>
F 5

$$$$
=
 OpenBabel10222421063D

 29 31  0  0  1  0  0  0  0  0999 V2000
  187.1740  178.4500  141.6490 C   0  0  0  0  0  0  0  0  0  0  0  0
  188.2850  178.1090  140.7880 C   0  0  0  0  0  0  0  0  0  0  0  0
  188.7830  177.7980  142.8800 C   0  0  0  0  0  0  0  0  0  0  0  0
  186.0490  178.8930  141.2970 O   0  0  0  0  0  0  0  0  0  0  0  0
  187.5600  178.2220  142.9910 N   0  0  0  0  0  0  0  0  0  0  0  0
  189.2680  177.7250  141.5290 N   0  0  0  0  0  0  0  0  0  0  0  0
  190.8350  176.7870  143.8590 C   0  0  0  0  0  3  0  0  0  0  0  0
  191.2020  176.7530  146.2590 C   0  0  0  0  0  0  0  0  0  0  0  0
  189.6100  177.4400  144.0430 C   0  0  0  0  0  0  0  0  0  0  0  0
  191.6260  176.4460  144.9590 C   0  0  0  0  0  3  0  0  0  0  0  0
  189.9750  177.4070  146.4440 C   0  0  0  0  0  3  0  0  0  0  0  0
  189.1850  177.7480  145.3430 C   0  0  0  0  0  3  0  0  0  0  0  0
  192.8100  175.2450  147.3990 O   0  0  0  0  0  0  0  0  0  0  0  0
  192.0440  177.1300  148.4450 O   0  0  0  0  0  1  0  0  0  0  0  0
  192.0310  176.3960  147.4210 C   0  0  0  0  0  0  0  0  0  0  0  0
  188.3880  178.2520  139.3000 C   0  0  1  0  0  3  0  0  0  0  0  0
  189.7890  177.9630  138.7840 C   0  0  0  0  0  1  0  0  0  0  0  0
  185.1310  177.4290  137.5710 C   0  0  0  0  0  2  0  0  0  0  0  0
  187.2160  175.4750  135.5800 C   0  0  0  0  0  2  0  0  0  0  0  0
  186.9900  178.2810  136.4030 N   0  0  0  0  0  0  0  0  0  0  0  0
  187.3930  177.4500  138.5890 N   0  0  0  0  0  2  0  0  0  0  0  0
  188.4030  176.3200  136.0630 C   0  0  0  0  0  2  0  0  0  0  0  0
  186.1650  175.2420  136.6770 C   0  0  1  0  0  3  0  0  0  0  0  0
  186.5210  177.9580  137.5700 C   0  0  0  0  0  0  0  0  0  0  0  0
  188.1410  177.7160  135.8940 O   0  0  0  0  0  0  0  0  0  0  0  0
  185.0060  176.2520  136.5850 C   0  0  0  0  0  2  0  0  0  0  0  0
  185.4770  173.3200  135.4530 O   0  0  0  0  0  0  0  0  0  0  0  0
  185.3000  173.1200  137.7590 N   0  0  0  0  0  1  0  0  0  0  0  0
  185.6330  173.8510  136.5830 C   0  0  0  0  0  0  0  0  0  0  0  0
  1  5  1  0  0  0  0
  2  6  2  0  0  0  0
  2  1  1  0  0  0  0
  3  5  2  0  0  0  0
  3  9  1  0  0  0  0
  4  1  2  0  0  0  0
  6  3  1  0  0  0  0
  7  9  2  0  0  0  0
  7 10  1  0  0  0  0
  8 11  1  0  0  0  0
  8 15  1  0  0  0  0
  9 12  1  0  0  0  0
 10  8  2  0  0  0  0
 12 11  2  0  0  0  0
 13 15  2  0  0  0  0
 15 14  1  0  0  0  0
 16 17  1  6  0  0  0
 16  2  1  0  0  0  0
 19 22  1  0  0  0  0
 19 23  1  0  0  0  0
 20 24  2  0  0  0  0
 21 16  1  0  0  0  0
 23 29  1  6  0  0  0
 24 18  1  0  0  0  0
 24 21  1  0  0  0  0
 25 22  1  0  0  0  0
 25 20  1  0  0  0  0
 26 23  1  0  0  0  0
 26 18  1  0  0  0  0
 27 29  2  0  0  0  0
 29 28  1  0  0  0  0
M  END
>  <MODEL>
9

>  <REMARK>
 VINA RESULT:      -7.7      4.442      5.388
  Name = 
  5 active torsions:
  status: ('A' for Active; 'I' for Inactive)
    1  A    between atoms: C_7  and  C_23
    2  A    between atoms: N_8  and  C_13
    3  A    between atoms: C_12  and  C_13
    4  A    between atoms: C_14  and  C_16
    5  A    between atoms: C_18  and  C_24
                            x       y       z     vdW  Elec       q    Type
                         _______ _______ _______ _____ _____    ______ ____

>  <TORSDO>
F 5

$$$$
