=
 OpenBabel10222416233D

 38 40  0  0  1  0  0  0  0  0999 V2000
  188.2470  176.8460  136.9820 C   0  0  2  0  0  3  0  0  0  0  0  0
  189.3200  178.5510  139.0180 O   0  0  0  0  0  0  0  0  0  0  0  0
  189.0640  176.4160  138.1080 N   0  0  0  0  0  2  0  0  0  0  0  0
  189.5620  177.3170  139.0990 C   0  0  0  0  0  0  0  0  0  0  0  0
  190.4200  176.7800  140.2010 C   0  0  1  0  0  3  0  0  0  0  0  0
  192.2430  177.7350  140.8180 O   0  0  0  0  0  1  0  0  0  0  0  0
  191.7730  176.9310  139.8860 O   0  0  0  0  0  0  0  0  0  0  0  0
  190.0870  177.3940  141.5640 C   0  0  0  0  0  2  0  0  0  0  0  0
  189.7000  176.3450  142.6030 C   0  0  0  0  0  2  0  0  0  0  0  0
  190.6830  176.3560  143.7310 C   0  0  0  0  0  0  0  0  0  0  0  0
  189.5080  177.6920  147.5700 N   0  0  0  0  0  2  0  0  0  0  0  0
  190.5820  176.7110  147.4160 C   0  0  0  0  0  2  0  0  0  0  0  0
  190.3370  176.9330  144.9990 N   0  0  0  0  0  0  0  0  0  0  0  0
  191.8130  175.8220  143.5650 O   0  0  0  0  0  0  0  0  0  0  0  0
  188.5090  177.4490  146.5300 C   0  0  0  0  0  2  0  0  0  0  0  0
  189.1120  177.7160  145.1550 C   0  0  0  0  0  2  0  0  0  0  0  0
  191.3070  176.9390  146.0920 C   0  0  0  0  0  2  0  0  0  0  0  0
  186.7900  176.5070  137.2600 C   0  0  0  0  0  2  0  0  0  0  0  0
  186.6600  178.8930  137.2260 O   0  0  0  0  0  1  0  0  0  0  0  0
  185.9990  177.7430  137.6610 C   0  0  1  0  0  3  0  0  0  0  0  0
  184.7320  177.6900  137.0810 O   0  0  0  0  0  0  0  0  0  0  0  0
  183.8580  177.4840  138.1510 C   0  0  0  0  0  2  0  0  0  0  0  0
  183.3330  178.8170  138.6650 C   0  0  0  0  0  2  0  0  0  0  0  0
  183.6160  178.8250  142.2840 C   0  0  0  0  0  0  0  0  0  0  0  0
  180.9270  178.5520  140.3220 O   0  0  0  0  0  0  0  0  0  0  0  0
  185.5690  178.2260  143.6460 C   0  0  0  0  0  3  0  0  0  0  0  0
  183.4870  178.8790  144.7700 C   0  0  0  0  0  1  0  0  0  0  0  0
  186.5820  178.8300  141.4730 C   0  0  0  0  0  3  0  0  0  0  0  0
  186.5090  178.1680  142.7490 N   0  0  0  0  0  0  0  0  0  0  0  0
  184.3600  179.0970  143.5470 C   0  0  2  0  0  3  0  0  0  0  0  0
  185.5540  179.1230  140.7260 N   0  0  0  0  0  0  0  0  0  0  0  0
  182.0710  178.6650  140.8380 C   0  0  0  0  0  0  0  0  0  0  0  0
  182.2740  178.7010  142.1740 N   0  0  0  0  0  2  0  0  0  0  0  0
  183.2020  178.7900  140.1170 N   0  0  0  0  0  0  0  0  0  0  0  0
  184.1780  178.8830  141.0330 C   0  0  0  0  0  0  0  0  0  0  0  0
  188.7260  176.1860  135.6890 C   0  0  0  0  0  2  0  0  0  0  0  0
  188.2710  174.0970  135.1450 C   0  0  0  0  0  1  0  0  0  0  0  0
  187.7230  175.3790  135.1430 O   0  0  0  0  0  0  0  0  0  0  0  0
  1 36  1  6  0  0  0
  1 18  1  0  0  0  0
  1  3  1  0  0  0  0
  2  4  2  0  0  0  0
  3  4  1  0  0  0  0
  4  5  1  0  0  0  0
  5  8  1  1  0  0  0
  7  5  1  0  0  0  0
  7  6  1  0  0  0  0
  8  9  1  0  0  0  0
  9 10  1  0  0  0  0
 10 13  1  0  0  0  0
 12 11  1  0  0  0  0
 13 16  1  0  0  0  0
 13 17  1  0  0  0  0
 14 10  2  0  0  0  0
 15 11  1  0  0  0  0
 16 15  1  0  0  0  0
 17 12  1  0  0  0  0
 18 20  1  0  0  0  0
 20 19  1  6  0  0  0
 21 20  1  0  0  0  0
 21 22  1  0  0  0  0
 22 23  1  0  0  0  0
 23 34  1  0  0  0  0
 24 30  1  0  0  0  0
 25 32  2  0  0  0  0
 28 29  1  0  0  0  0
 29 26  2  0  0  0  0
 30 26  1  0  0  0  0
 30 27  1  1  0  0  0
 31 35  1  0  0  0  0
 31 28  2  0  0  0  0
 32 33  1  0  0  0  0
 33 24  1  0  0  0  0
 34 32  1  0  0  0  0
 34 35  1  0  0  0  0
 35 24  2  0  0  0  0
 38 37  1  0  0  0  0
 38 36  1  0  0  0  0
M  END
>  <MODEL>
1

>  <REMARK>
 VINA RESULT:      -7.3      0.000      0.000
  Name = 
  14 active torsions:
  status: ('A' for Active; 'I' for Inactive)
    1  A    between atoms: C_1  and  C_14
    2  A    between atoms: C_1  and  N_37
    3  A    between atoms: C_2  and  C_5
    4  A    between atoms: C_2  and  N_18
    5  A    between atoms: C_2  and  C_36
    6  A    between atoms: C_5  and  C_21
    7  A    between atoms: C_6  and  C_31
    8  A    between atoms: C_14  and  O_30
    9  A    between atoms: C_16  and  C_25
   10  A    between atoms: C_16  and  C_31
   11  A    between atoms: C_21  and  O_30
   12  A    between atoms: C_25  and  O_29
   13  A    between atoms: C_25  and  C_32
   14  A    between atoms: O_28  and  C_36
                            x       y       z     vdW  Elec       q    Type
                         _______ _______ _______ _____ _____    ______ ____

>  <TORSDO>
F 14

$$$$
=
 OpenBabel10222416233D

 38 40  0  0  1  0  0  0  0  0999 V2000
  188.2850  177.9000  145.4420 C   0  0  2  0  0  3  0  0  0  0  0  0
  185.9310  179.2730  146.3260 O   0  0  0  0  0  0  0  0  0  0  0  0
  187.0070  177.9370  144.7420 N   0  0  0  0  0  2  0  0  0  0  0  0
  185.8710  178.6510  145.2310 C   0  0  0  0  0  0  0  0  0  0  0  0
  184.5940  178.6000  144.4530 C   0  0  1  0  0  3  0  0  0  0  0  0
  182.4540  178.7580  144.5720 O   0  0  0  0  0  1  0  0  0  0  0  0
  183.5460  179.1500  145.1960 O   0  0  0  0  0  0  0  0  0  0  0  0
  184.7130  179.2610  143.0760 C   0  0  0  0  0  2  0  0  0  0  0  0
  184.5620  178.2620  141.9310 C   0  0  0  0  0  2  0  0  0  0  0  0
  184.1450  178.9750  140.6840 C   0  0  0  0  0  0  0  0  0  0  0  0
  180.0410  179.4380  139.7620 N   0  0  0  0  0  2  0  0  0  0  0  0
  181.0280  180.4090  139.2900 C   0  0  0  0  0  2  0  0  0  0  0  0
  182.7650  179.0190  140.2910 N   0  0  0  0  0  0  0  0  0  0  0  0
  185.0190  179.5660  139.9940 O   0  0  0  0  0  0  0  0  0  0  0  0
  180.4570  178.9630  141.0810 C   0  0  0  0  0  2  0  0  0  0  0  0
  181.7680  178.1910  140.9680 C   0  0  0  0  0  2  0  0  0  0  0  0
  182.3720  179.7180  139.0690 C   0  0  0  0  0  2  0  0  0  0  0  0
  189.2990  177.1450  144.5960 C   0  0  0  0  0  2  0  0  0  0  0  0
  190.5750  179.1650  144.5490 O   0  0  0  0  0  1  0  0  0  0  0  0
  190.1440  178.0960  143.7620 C   0  0  1  0  0  3  0  0  0  0  0  0
  191.2530  177.4120  143.2630 O   0  0  0  0  0  0  0  0  0  0  0  0
  191.1270  177.4940  141.8740 C   0  0  0  0  0  2  0  0  0  0  0  0
  190.0320  176.5560  141.3900 C   0  0  0  0  0  2  0  0  0  0  0  0
  188.6400  177.5550  138.1890 C   0  0  0  0  0  0  0  0  0  0  0  0
  188.0410  178.7070  141.2670 O   0  0  0  0  0  0  0  0  0  0  0  0
  189.6360  177.2890  135.9610 C   0  0  0  0  0  3  0  0  0  0  0  0
  187.4550  178.3970  136.1670 C   0  0  0  0  0  1  0  0  0  0  0  0
  190.7790  175.5410  137.2840 C   0  0  0  0  0  3  0  0  0  0  0  0
  190.6290  176.4870  136.2100 N   0  0  0  0  0  0  0  0  0  0  0  0
  188.3640  177.3240  136.7420 C   0  0  2  0  0  3  0  0  0  0  0  0
  190.2830  175.6870  138.4810 N   0  0  0  0  0  0  0  0  0  0  0  0
  188.4350  178.1160  140.2250 C   0  0  0  0  0  0  0  0  0  0  0  0
  187.9590  178.4030  138.9930 N   0  0  0  0  0  2  0  0  0  0  0  0
  189.3450  177.1230  140.2350 N   0  0  0  0  0  0  0  0  0  0  0  0
  189.4800  176.7760  138.9460 C   0  0  0  0  0  0  0  0  0  0  0  0
  188.1250  177.2500  146.8150 C   0  0  0  0  0  2  0  0  0  0  0  0
  188.2990  178.1550  148.8190 C   0  0  0  0  0  1  0  0  0  0  0  0
  189.0590  177.7630  147.7190 O   0  0  0  0  0  0  0  0  0  0  0  0
  1 18  1  6  0  0  0
  1 36  1  0  0  0  0
  3  4  1  0  0  0  0
  3  1  1  0  0  0  0
  4  2  2  0  0  0  0
  5  8  1  6  0  0  0
  5  7  1  0  0  0  0
  5  4  1  0  0  0  0
  6  7  1  0  0  0  0
  9  8  1  0  0  0  0
 10  9  1  0  0  0  0
 11 15  1  0  0  0  0
 12 11  1  0  0  0  0
 13 10  1  0  0  0  0
 13 16  1  0  0  0  0
 14 10  2  0  0  0  0
 16 15  1  0  0  0  0
 17 12  1  0  0  0  0
 17 13  1  0  0  0  0
 20 19  1  1  0  0  0
 20 18  1  0  0  0  0
 21 20  1  0  0  0  0
 22 21  1  0  0  0  0
 23 22  1  0  0  0  0
 24 35  2  0  0  0  0
 24 33  1  0  0  0  0
 26 29  2  0  0  0  0
 26 30  1  0  0  0  0
 28 31  2  0  0  0  0
 29 28  1  0  0  0  0
 30 27  1  6  0  0  0
 30 24  1  0  0  0  0
 31 35  1  0  0  0  0
 32 34  1  0  0  0  0
 32 25  2  0  0  0  0
 33 32  1  0  0  0  0
 34 23  1  0  0  0  0
 35 34  1  0  0  0  0
 36 38  1  0  0  0  0
 38 37  1  0  0  0  0
M  END
>  <MODEL>
2

>  <REMARK>
 VINA RESULT:      -7.3      2.570      8.794
  Name = 
  14 active torsions:
  status: ('A' for Active; 'I' for Inactive)
    1  A    between atoms: C_1  and  C_14
    2  A    between atoms: C_1  and  N_37
    3  A    between atoms: C_2  and  C_5
    4  A    between atoms: C_2  and  N_18
    5  A    between atoms: C_2  and  C_36
    6  A    between atoms: C_5  and  C_21
    7  A    between atoms: C_6  and  C_31
    8  A    between atoms: C_14  and  O_30
    9  A    between atoms: C_16  and  C_25
   10  A    between atoms: C_16  and  C_31
   11  A    between atoms: C_21  and  O_30
   12  A    between atoms: C_25  and  O_29
   13  A    between atoms: C_25  and  C_32
   14  A    between atoms: O_28  and  C_36
                            x       y       z     vdW  Elec       q    Type
                         _______ _______ _______ _____ _____    ______ ____

>  <TORSDO>
F 14

$$$$
=
 OpenBabel10222416233D

 38 40  0  0  1  0  0  0  0  0999 V2000
  190.2960  177.7920  146.0750 C   0  0  2  0  0  3  0  0  0  0  0  0
  188.1630  177.9070  147.9840 O   0  0  0  0  0  0  0  0  0  0  0  0
  188.8730  177.8130  145.7620 N   0  0  0  0  0  2  0  0  0  0  0  0
  187.8550  177.8830  146.7610 C   0  0  0  0  0  0  0  0  0  0  0  0
  186.4200  177.8680  146.3370 C   0  0  1  0  0  3  0  0  0  0  0  0
  185.5930  179.5930  147.3160 O   0  0  0  0  0  1  0  0  0  0  0  0
  185.5950  178.2780  147.3880 O   0  0  0  0  0  0  0  0  0  0  0  0
  186.1690  178.6920  145.0710 C   0  0  0  0  0  2  0  0  0  0  0  0
  185.3580  177.9290  144.0260 C   0  0  0  0  0  2  0  0  0  0  0  0
  183.9760  178.4960  143.9390 C   0  0  0  0  0  0  0  0  0  0  0  0
  181.8730  178.4370  140.2680 N   0  0  0  0  0  2  0  0  0  0  0  0
  181.1550  178.4150  141.5420 C   0  0  0  0  0  2  0  0  0  0  0  0
  183.3060  178.6060  142.6740 N   0  0  0  0  0  0  0  0  0  0  0  0
  183.3900  178.8480  144.9980 O   0  0  0  0  0  0  0  0  0  0  0  0
  183.1130  177.6780  140.4260 C   0  0  0  0  0  2  0  0  0  0  0  0
  184.0290  178.3790  141.4240 C   0  0  0  0  0  2  0  0  0  0  0  0
  181.9570  179.1620  142.6040 C   0  0  0  0  0  2  0  0  0  0  0  0
  191.0950  177.7440  144.7810 C   0  0  0  0  0  2  0  0  0  0  0  0
  191.2050  180.0290  144.0920 O   0  0  0  0  0  1  0  0  0  0  0  0
  190.6170  178.7990  143.7950 C   0  0  1  0  0  3  0  0  0  0  0  0
  190.9720  178.4170  142.5010 O   0  0  0  0  0  0  0  0  0  0  0  0
  191.0110  177.0200  142.5390 C   0  0  0  0  0  2  0  0  0  0  0  0
  189.6580  176.4460  142.1460 C   0  0  0  0  0  2  0  0  0  0  0  0
  188.7570  177.6950  138.8580 C   0  0  0  0  0  0  0  0  0  0  0  0
  187.7100  178.6250  141.8910 O   0  0  0  0  0  0  0  0  0  0  0  0
  190.0720  177.5800  136.7890 C   0  0  0  0  0  3  0  0  0  0  0  0
  187.8870  178.6970  136.7510 C   0  0  0  0  0  1  0  0  0  0  0  0
  191.0040  175.7270  138.1320 C   0  0  0  0  0  3  0  0  0  0  0  0
  191.0170  176.7510  137.1210 N   0  0  0  0  0  0  0  0  0  0  0  0
  188.6980  177.5740  137.3730 C   0  0  2  0  0  3  0  0  0  0  0  0
  190.3360  175.7910  139.2500 N   0  0  0  0  0  0  0  0  0  0  0  0
  188.2540  178.1070  140.8780 C   0  0  0  0  0  0  0  0  0  0  0  0
  187.9660  178.4900  139.6140 N   0  0  0  0  0  2  0  0  0  0  0  0
  189.1510  177.1050  140.9480 N   0  0  0  0  0  0  0  0  0  0  0  0
  189.4750  176.8520  139.6700 C   0  0  0  0  0  0  0  0  0  0  0  0
  190.6290  176.5980  146.9690 C   0  0  0  0  0  2  0  0  0  0  0  0
  192.5220  175.6680  147.6160 C   0  0  0  0  0  1  0  0  0  0  0  0
  191.7830  176.8450  147.7180 O   0  0  0  0  0  0  0  0  0  0  0  0
  1 18  1  6  0  0  0
  1 36  1  0  0  0  0
  3  1  1  0  0  0  0
  3  4  1  0  0  0  0
  4  2  2  0  0  0  0
  5  8  1  6  0  0  0
  5  4  1  0  0  0  0
  5  7  1  0  0  0  0
  6  7  1  0  0  0  0
  9  8  1  0  0  0  0
 10  9  1  0  0  0  0
 10 14  2  0  0  0  0
 11 15  1  0  0  0  0
 11 12  1  0  0  0  0
 12 17  1  0  0  0  0
 13 10  1  0  0  0  0
 15 16  1  0  0  0  0
 16 13  1  0  0  0  0
 17 13  1  0  0  0  0
 20 19  1  1  0  0  0
 20 18  1  0  0  0  0
 21 22  1  0  0  0  0
 21 20  1  0  0  0  0
 23 22  1  0  0  0  0
 24 33  1  0  0  0  0
 24 35  2  0  0  0  0
 26 29  2  0  0  0  0
 26 30  1  0  0  0  0
 28 31  2  0  0  0  0
 29 28  1  0  0  0  0
 30 27  1  6  0  0  0
 30 24  1  0  0  0  0
 31 35  1  0  0  0  0
 32 34  1  0  0  0  0
 32 25  2  0  0  0  0
 33 32  1  0  0  0  0
 34 23  1  0  0  0  0
 35 34  1  0  0  0  0
 36 38  1  0  0  0  0
 37 38  1  0  0  0  0
M  END
>  <MODEL>
3

>  <REMARK>
 VINA RESULT:      -7.2      2.925      8.416
  Name = 
  14 active torsions:
  status: ('A' for Active; 'I' for Inactive)
    1  A    between atoms: C_1  and  C_14
    2  A    between atoms: C_1  and  N_37
    3  A    between atoms: C_2  and  C_5
    4  A    between atoms: C_2  and  N_18
    5  A    between atoms: C_2  and  C_36
    6  A    between atoms: C_5  and  C_21
    7  A    between atoms: C_6  and  C_31
    8  A    between atoms: C_14  and  O_30
    9  A    between atoms: C_16  and  C_25
   10  A    between atoms: C_16  and  C_31
   11  A    between atoms: C_21  and  O_30
   12  A    between atoms: C_25  and  O_29
   13  A    between atoms: C_25  and  C_32
   14  A    between atoms: O_28  and  C_36
                            x       y       z     vdW  Elec       q    Type
                         _______ _______ _______ _____ _____    ______ ____

>  <TORSDO>
F 14

$$$$
=
 OpenBabel10222416233D

 38 40  0  0  1  0  0  0  0  0999 V2000
  187.4200  177.3680  145.6590 C   0  0  2  0  0  3  0  0  0  0  0  0
  188.2470  176.0150  143.2730 O   0  0  0  0  0  0  0  0  0  0  0  0
  188.5940  177.6930  144.8590 N   0  0  0  0  0  2  0  0  0  0  0  0
  188.9470  176.9850  143.6700 C   0  0  0  0  0  0  0  0  0  0  0  0
  190.1910  177.3770  142.9360 C   0  0  1  0  0  3  0  0  0  0  0  0
  191.7160  178.6340  143.7800 O   0  0  0  0  0  1  0  0  0  0  0  0
  191.2870  177.3890  143.8020 O   0  0  0  0  0  0  0  0  0  0  0  0
  190.4540  176.5020  141.7070 C   0  0  0  0  0  2  0  0  0  0  0  0
  190.7830  177.3220  140.4620 C   0  0  0  0  0  2  0  0  0  0  0  0
  189.5400  177.5590  139.6640 C   0  0  0  0  0  0  0  0  0  0  0  0
  188.6210  175.0790  136.3610 N   0  0  0  0  0  2  0  0  0  0  0  0
  187.5580  175.7360  137.1210 C   0  0  0  0  0  2  0  0  0  0  0  0
  189.2860  176.8150  138.4630 N   0  0  0  0  0  0  0  0  0  0  0  0
  188.6970  178.4010  140.0770 O   0  0  0  0  0  0  0  0  0  0  0  0
  189.6920  174.7160  137.2870 C   0  0  0  0  0  2  0  0  0  0  0  0
  190.3260  175.9750  137.8700 C   0  0  0  0  0  2  0  0  0  0  0  0
  188.0680  177.0570  137.6930 C   0  0  0  0  0  2  0  0  0  0  0  0
  186.3320  178.3990  145.3980 C   0  0  0  0  0  2  0  0  0  0  0  0
  185.7650  179.7570  147.2800 O   0  0  0  0  0  1  0  0  0  0  0  0
  185.4340  178.5770  146.6120 C   0  0  1  0  0  3  0  0  0  0  0  0
  184.1030  178.6370  146.1980 O   0  0  0  0  0  0  0  0  0  0  0  0
  184.1560  178.5090  144.8080 C   0  0  0  0  0  2  0  0  0  0  0  0
  183.2680  179.5540  144.1500 C   0  0  0  0  0  2  0  0  0  0  0  0
  182.4790  178.2890  140.8400 C   0  0  0  0  0  0  0  0  0  0  0  0
  180.4920  178.9120  143.4520 O   0  0  0  0  0  0  0  0  0  0  0  0
  183.7520  178.5980  138.7640 C   0  0  0  0  0  3  0  0  0  0  0  0
  181.6480  177.3360  138.6940 C   0  0  0  0  0  1  0  0  0  0  0  0
  185.4660  178.9380  140.5120 C   0  0  0  0  0  3  0  0  0  0  0  0
  184.8710  179.0870  139.2100 N   0  0  0  0  0  0  0  0  0  0  0  0
  182.8650  177.6780  139.5360 C   0  0  2  0  0  3  0  0  0  0  0  0
  184.8000  178.8070  141.6250 N   0  0  0  0  0  0  0  0  0  0  0  0
  181.4290  178.7630  142.6220 C   0  0  0  0  0  0  0  0  0  0  0  0
  181.2370  178.2790  141.3750 N   0  0  0  0  0  2  0  0  0  0  0  0
  182.7170  179.0440  142.8990 N   0  0  0  0  0  0  0  0  0  0  0  0
  183.3780  178.7520  141.7680 C   0  0  0  0  0  0  0  0  0  0  0  0
  187.7810  177.3170  147.1430 C   0  0  0  0  0  2  0  0  0  0  0  0
  188.9600  178.1520  148.8100 C   0  0  0  0  0  1  0  0  0  0  0  0
  188.8620  178.1600  147.4210 O   0  0  0  0  0  0  0  0  0  0  0  0
  1 18  1  1  0  0  0
  1 36  1  0  0  0  0
  2  4  2  0  0  0  0
  3  1  1  0  0  0  0
  4  3  1  0  0  0  0
  5  8  1  6  0  0  0
  5  4  1  0  0  0  0
  5  7  1  0  0  0  0
  6  7  1  0  0  0  0
  9  8  1  0  0  0  0
 10 14  2  0  0  0  0
 10  9  1  0  0  0  0
 11 12  1  0  0  0  0
 11 15  1  0  0  0  0
 12 17  1  0  0  0  0
 13 10  1  0  0  0  0
 15 16  1  0  0  0  0
 16 13  1  0  0  0  0
 17 13  1  0  0  0  0
 18 20  1  0  0  0  0
 20 19  1  6  0  0  0
 21 20  1  0  0  0  0
 22 21  1  0  0  0  0
 23 22  1  0  0  0  0
 24 33  1  0  0  0  0
 24 35  2  0  0  0  0
 26 29  2  0  0  0  0
 26 30  1  0  0  0  0
 28 31  2  0  0  0  0
 29 28  1  0  0  0  0
 30 27  1  6  0  0  0
 30 24  1  0  0  0  0
 31 35  1  0  0  0  0
 32 34  1  0  0  0  0
 32 25  2  0  0  0  0
 33 32  1  0  0  0  0
 34 23  1  0  0  0  0
 35 34  1  0  0  0  0
 36 38  1  0  0  0  0
 38 37  1  0  0  0  0
M  END
>  <MODEL>
4

>  <REMARK>
 VINA RESULT:      -7.0      2.525      6.950
  Name = 
  14 active torsions:
  status: ('A' for Active; 'I' for Inactive)
    1  A    between atoms: C_1  and  C_14
    2  A    between atoms: C_1  and  N_37
    3  A    between atoms: C_2  and  C_5
    4  A    between atoms: C_2  and  N_18
    5  A    between atoms: C_2  and  C_36
    6  A    between atoms: C_5  and  C_21
    7  A    between atoms: C_6  and  C_31
    8  A    between atoms: C_14  and  O_30
    9  A    between atoms: C_16  and  C_25
   10  A    between atoms: C_16  and  C_31
   11  A    between atoms: C_21  and  O_30
   12  A    between atoms: C_25  and  O_29
   13  A    between atoms: C_25  and  C_32
   14  A    between atoms: O_28  and  C_36
                            x       y       z     vdW  Elec       q    Type
                         _______ _______ _______ _____ _____    ______ ____

>  <TORSDO>
F 14

$$$$
=
 OpenBabel10222416233D

 38 40  0  0  1  0  0  0  0  0999 V2000
  190.1450  177.0490  138.8110 C   0  0  2  0  0  3  0  0  0  0  0  0
  192.1480  177.7200  140.7460 O   0  0  0  0  0  0  0  0  0  0  0  0
  190.0030  176.9370  140.2570 N   0  0  0  0  0  2  0  0  0  0  0  0
  191.0380  177.3000  141.1720 C   0  0  0  0  0  0  0  0  0  0  0  0
  190.8050  177.1180  142.6390 C   0  0  1  0  0  3  0  0  0  0  0  0
  191.8530  178.4080  144.0020 O   0  0  0  0  0  1  0  0  0  0  0  0
  190.7500  178.3570  143.2830 O   0  0  0  0  0  0  0  0  0  0  0  0
  189.5650  176.2710  142.9420 C   0  0  0  0  0  2  0  0  0  0  0  0
  188.7100  176.8610  144.0600 C   0  0  0  0  0  2  0  0  0  0  0  0
  187.4260  177.3850  143.4990 C   0  0  0  0  0  0  0  0  0  0  0  0
  184.4240  178.8830  146.0770 N   0  0  0  0  0  2  0  0  0  0  0  0
  184.5480  179.3780  144.7070 C   0  0  0  0  0  2  0  0  0  0  0  0
  186.3480  177.7680  144.3660 N   0  0  0  0  0  0  0  0  0  0  0  0
  187.3110  177.5180  142.2500 O   0  0  0  0  0  0  0  0  0  0  0  0
  185.7640  178.5960  146.5860 C   0  0  0  0  0  2  0  0  0  0  0  0
  186.3890  177.4520  145.7930 C   0  0  0  0  0  2  0  0  0  0  0  0
  185.0990  178.2770  143.8040 C   0  0  0  0  0  2  0  0  0  0  0  0
  188.7660  177.1650  138.1790 C   0  0  0  0  0  2  0  0  0  0  0  0
  189.1280  179.4990  137.8170 O   0  0  0  0  0  1  0  0  0  0  0  0
  188.2090  178.5740  138.3160 C   0  0  1  0  0  3  0  0  0  0  0  0
  187.0180  178.6720  137.5980 O   0  0  0  0  0  0  0  0  0  0  0  0
  186.1820  177.7030  138.1580 C   0  0  0  0  0  2  0  0  0  0  0  0
  184.8120  177.7440  137.4990 C   0  0  0  0  0  2  0  0  0  0  0  0
  182.0450  178.0560  139.8280 C   0  0  0  0  0  0  0  0  0  0  0  0
  184.4320  180.2400  138.9930 O   0  0  0  0  0  0  0  0  0  0  0  0
  179.9250  176.8180  139.8260 C   0  0  0  0  0  3  0  0  0  0  0  0
  180.3020  178.5340  141.5410 C   0  0  0  0  0  1  0  0  0  0  0  0
  181.4360  175.3170  138.5720 C   0  0  0  0  0  3  0  0  0  0  0  0
  180.1690  175.8770  138.9630 N   0  0  0  0  0  0  0  0  0  0  0  0
  180.9630  177.4770  140.6740 C   0  0  2  0  0  3  0  0  0  0  0  0
  182.5620  175.9730  138.5370 N   0  0  0  0  0  0  0  0  0  0  0  0
  183.6480  179.2620  139.1350 C   0  0  0  0  0  0  0  0  0  0  0  0
  182.6040  179.2760  139.9940 N   0  0  0  0  0  2  0  0  0  0  0  0
  183.7850  178.0980  138.4720 N   0  0  0  0  0  0  0  0  0  0  0  0
  182.7660  177.3400  138.9040 C   0  0  0  0  0  0  0  0  0  0  0  0
  190.9040  175.8460  138.2530 C   0  0  0  0  0  2  0  0  0  0  0  0
  193.0580  176.1180  137.8710 C   0  0  0  0  0  1  0  0  0  0  0  0
  191.8100  176.2450  137.2660 O   0  0  0  0  0  0  0  0  0  0  0  0
  1 18  1  6  0  0  0
  1  3  1  0  0  0  0
  2  4  2  0  0  0  0
  3  4  1  0  0  0  0
  4  5  1  0  0  0  0
  5  8  1  6  0  0  0
  5  7  1  0  0  0  0
  7  6  1  0  0  0  0
  8  9  1  0  0  0  0
 10  9  1  0  0  0  0
 10 13  1  0  0  0  0
 11 15  1  0  0  0  0
 12 11  1  0  0  0  0
 13 16  1  0  0  0  0
 14 10  2  0  0  0  0
 16 15  1  0  0  0  0
 17 13  1  0  0  0  0
 17 12  1  0  0  0  0
 18 20  1  0  0  0  0
 20 19  1  6  0  0  0
 21 22  1  0  0  0  0
 21 20  1  0  0  0  0
 23 22  1  0  0  0  0
 23 34  1  0  0  0  0
 24 33  1  0  0  0  0
 24 30  1  0  0  0  0
 25 32  2  0  0  0  0
 26 30  1  0  0  0  0
 28 29  1  0  0  0  0
 29 26  2  0  0  0  0
 30 27  1  6  0  0  0
 31 28  2  0  0  0  0
 31 35  1  0  0  0  0
 32 33  1  0  0  0  0
 34 35  1  0  0  0  0
 34 32  1  0  0  0  0
 35 24  2  0  0  0  0
 36  1  1  0  0  0  0
 38 37  1  0  0  0  0
 38 36  1  0  0  0  0
M  END
>  <MODEL>
5

>  <REMARK>
 VINA RESULT:      -6.9      2.313      4.102
  Name = 
  14 active torsions:
  status: ('A' for Active; 'I' for Inactive)
    1  A    between atoms: C_1  and  C_14
    2  A    between atoms: C_1  and  N_37
    3  A    between atoms: C_2  and  C_5
    4  A    between atoms: C_2  and  N_18
    5  A    between atoms: C_2  and  C_36
    6  A    between atoms: C_5  and  C_21
    7  A    between atoms: C_6  and  C_31
    8  A    between atoms: C_14  and  O_30
    9  A    between atoms: C_16  and  C_25
   10  A    between atoms: C_16  and  C_31
   11  A    between atoms: C_21  and  O_30
   12  A    between atoms: C_25  and  O_29
   13  A    between atoms: C_25  and  C_32
   14  A    between atoms: O_28  and  C_36
                            x       y       z     vdW  Elec       q    Type
                         _______ _______ _______ _____ _____    ______ ____

>  <TORSDO>
F 14

$$$$
=
 OpenBabel10222416233D

 38 40  0  0  1  0  0  0  0  0999 V2000
  188.1630  177.2990  146.1700 C   0  0  2  0  0  3  0  0  0  0  0  0
  187.8230  176.5880  143.4160 O   0  0  0  0  0  0  0  0  0  0  0  0
  188.8460  177.9150  145.0410 N   0  0  0  0  0  2  0  0  0  0  0  0
  188.6250  177.5220  143.6850 C   0  0  0  0  0  0  0  0  0  0  0  0
  189.4010  178.1970  142.5990 C   0  0  1  0  0  3  0  0  0  0  0  0
  191.4930  178.2260  143.0890 O   0  0  0  0  0  1  0  0  0  0  0  0
  190.6160  177.5410  142.3850 O   0  0  0  0  0  0  0  0  0  0  0  0
  188.6020  178.3380  141.3000 C   0  0  0  0  0  2  0  0  0  0  0  0
  189.0390  177.3400  140.2300 C   0  0  0  0  0  2  0  0  0  0  0  0
  188.6600  177.8460  138.8740 C   0  0  0  0  0  0  0  0  0  0  0  0
  190.6340  176.3920  135.4260 N   0  0  0  0  0  2  0  0  0  0  0  0
  189.2560  176.8760  135.3500 C   0  0  0  0  0  2  0  0  0  0  0  0
  189.4120  177.4650  137.7120 N   0  0  0  0  0  0  0  0  0  0  0  0
  187.6490  178.5900  138.7580 O   0  0  0  0  0  0  0  0  0  0  0  0
  190.8220  175.7390  136.7200 C   0  0  0  0  0  2  0  0  0  0  0  0
  190.6860  176.7600  137.8450 C   0  0  0  0  0  2  0  0  0  0  0  0
  189.0310  177.9680  136.3940 C   0  0  0  0  0  2  0  0  0  0  0  0
  187.2170  178.3110  146.7980 C   0  0  0  0  0  2  0  0  0  0  0  0
  184.8450  178.2550  147.0850 O   0  0  0  0  0  1  0  0  0  0  0  0
  185.8540  178.2920  146.1220 C   0  0  1  0  0  3  0  0  0  0  0  0
  185.7080  179.4390  145.3430 O   0  0  0  0  0  0  0  0  0  0  0  0
  184.4960  179.2630  144.6710 C   0  0  0  0  0  2  0  0  0  0  0  0
  184.6630  178.2580  143.5410 C   0  0  0  0  0  2  0  0  0  0  0  0
  181.8570  178.9070  141.3300 C   0  0  0  0  0  0  0  0  0  0  0  0
  185.1220  178.6530  140.6710 O   0  0  0  0  0  0  0  0  0  0  0  0
  179.5010  178.3050  141.6660 C   0  0  0  0  0  3  0  0  0  0  0  0
  180.1560  179.4450  139.5930 C   0  0  0  0  0  1  0  0  0  0  0  0
  180.3900  178.3400  143.9720 C   0  0  0  0  0  3  0  0  0  0  0  0
  179.4950  177.9470  142.9160 N   0  0  0  0  0  0  0  0  0  0  0  0
  180.4420  179.3040  141.0780 C   0  0  2  0  0  3  0  0  0  0  0  0
  181.6520  178.6300  143.8110 N   0  0  0  0  0  0  0  0  0  0  0  0
  183.9620  178.6980  141.1630 C   0  0  0  0  0  0  0  0  0  0  0  0
  182.8600  178.9550  140.4240 N   0  0  0  0  0  2  0  0  0  0  0  0
  183.7050  178.5240  142.4730 N   0  0  0  0  0  0  0  0  0  0  0  0
  182.3730  178.6480  142.5760 C   0  0  0  0  0  0  0  0  0  0  0  0
  189.1750  176.7860  147.1940 C   0  0  0  0  0  2  0  0  0  0  0  0
  191.2840  176.1710  147.3870 C   0  0  0  0  0  1  0  0  0  0  0  0
  190.4730  177.1640  146.8410 O   0  0  0  0  0  0  0  0  0  0  0  0
  1 18  1  1  0  0  0
  1 36  1  0  0  0  0
  2  4  2  0  0  0  0
  3  1  1  0  0  0  0
  4  3  1  0  0  0  0
  5  8  1  6  0  0  0
  5  4  1  0  0  0  0
  7  5  1  0  0  0  0
  7  6  1  0  0  0  0
  9  8  1  0  0  0  0
 10  9  1  0  0  0  0
 11 15  1  0  0  0  0
 12 11  1  0  0  0  0
 12 17  1  0  0  0  0
 13 16  1  0  0  0  0
 13 10  1  0  0  0  0
 14 10  2  0  0  0  0
 15 16  1  0  0  0  0
 17 13  1  0  0  0  0
 20 18  1  0  0  0  0
 20 19  1  1  0  0  0
 21 20  1  0  0  0  0
 22 21  1  0  0  0  0
 23 22  1  0  0  0  0
 24 35  2  0  0  0  0
 25 32  2  0  0  0  0
 26 29  2  0  0  0  0
 29 28  1  0  0  0  0
 30 27  1  6  0  0  0
 30 24  1  0  0  0  0
 30 26  1  0  0  0  0
 31 28  2  0  0  0  0
 32 34  1  0  0  0  0
 33 32  1  0  0  0  0
 33 24  1  0  0  0  0
 34 35  1  0  0  0  0
 34 23  1  0  0  0  0
 35 31  1  0  0  0  0
 38 36  1  0  0  0  0
 38 37  1  0  0  0  0
M  END
>  <MODEL>
6

>  <REMARK>
 VINA RESULT:      -6.7      2.625      7.295
  Name = 
  14 active torsions:
  status: ('A' for Active; 'I' for Inactive)
    1  A    between atoms: C_1  and  C_14
    2  A    between atoms: C_1  and  N_37
    3  A    between atoms: C_2  and  C_5
    4  A    between atoms: C_2  and  N_18
    5  A    between atoms: C_2  and  C_36
    6  A    between atoms: C_5  and  C_21
    7  A    between atoms: C_6  and  C_31
    8  A    between atoms: C_14  and  O_30
    9  A    between atoms: C_16  and  C_25
   10  A    between atoms: C_16  and  C_31
   11  A    between atoms: C_21  and  O_30
   12  A    between atoms: C_25  and  O_29
   13  A    between atoms: C_25  and  C_32
   14  A    between atoms: O_28  and  C_36
                            x       y       z     vdW  Elec       q    Type
                         _______ _______ _______ _____ _____    ______ ____

>  <TORSDO>
F 14

$$$$
=
 OpenBabel10222416233D

 38 40  0  0  1  0  0  0  0  0999 V2000
  184.0430  178.1920  141.6340 C   0  0  2  0  0  3  0  0  0  0  0  0
  186.1510  177.4260  143.4150 O   0  0  0  0  0  0  0  0  0  0  0  0
  184.2780  178.7440  142.9620 N   0  0  0  0  0  2  0  0  0  0  0  0
  185.3570  178.3260  143.8000 C   0  0  0  0  0  0  0  0  0  0  0  0
  185.4940  178.9320  145.1610 C   0  0  1  0  0  3  0  0  0  0  0  0
  183.9200  178.6270  146.5910 O   0  0  0  0  0  1  0  0  0  0  0  0
  184.2640  179.4260  145.6030 O   0  0  0  0  0  0  0  0  0  0  0  0
  186.1120  177.9690  146.1790 C   0  0  0  0  0  2  0  0  0  0  0  0
  187.1770  178.6350  147.0460 C   0  0  0  0  0  2  0  0  0  0  0  0
  188.2400  177.6430  147.4010 C   0  0  0  0  0  0  0  0  0  0  0  0
  191.5730  177.0860  144.8550 N   0  0  0  0  0  2  0  0  0  0  0  0
  191.6800  176.8370  146.2920 C   0  0  0  0  0  2  0  0  0  0  0  0
  189.3020  177.3460  146.4820 N   0  0  0  0  0  0  0  0  0  0  0  0
  188.2100  177.0920  148.5340 O   0  0  0  0  0  0  0  0  0  0  0  0
  190.6610  178.2090  144.6490 C   0  0  0  0  0  2  0  0  0  0  0  0
  189.2550  177.8300  145.1030 C   0  0  0  0  0  2  0  0  0  0  0  0
  190.3330  176.3750  146.8410 C   0  0  0  0  0  2  0  0  0  0  0  0
  184.8810  178.9540  140.6180 C   0  0  0  0  0  2  0  0  0  0  0  0
  184.2770  180.4990  138.8980 O   0  0  0  0  0  1  0  0  0  0  0  0
  184.1130  179.1810  139.3240 C   0  0  1  0  0  3  0  0  0  0  0  0
  184.5940  178.3140  138.3430 O   0  0  0  0  0  0  0  0  0  0  0  0
  185.9730  178.2570  138.5620 C   0  0  0  0  0  2  0  0  0  0  0  0
  186.7150  178.2140  137.2350 C   0  0  0  0  0  2  0  0  0  0  0  0
  189.8280  176.3510  137.3660 C   0  0  0  0  0  0  0  0  0  0  0  0
  189.0590  179.3720  138.5650 O   0  0  0  0  0  0  0  0  0  0  0  0
  190.1390  173.9200  137.2180 C   0  0  0  0  0  3  0  0  0  0  0  0
  192.1040  175.3550  137.5430 C   0  0  0  0  0  1  0  0  0  0  0  0
  187.9580  174.2610  136.1060 C   0  0  0  0  0  3  0  0  0  0  0  0
  188.9630  173.5260  136.8290 N   0  0  0  0  0  0  0  0  0  0  0  0
  190.7290  175.2560  136.9060 C   0  0  2  0  0  3  0  0  0  0  0  0
  187.7620  175.5470  136.2020 N   0  0  0  0  0  0  0  0  0  0  0  0
  189.1020  178.2290  138.0360 C   0  0  0  0  0  0  0  0  0  0  0  0
  190.2210  177.4710  138.0150 N   0  0  0  0  0  2  0  0  0  0  0  0
  188.0520  177.6590  137.4140 N   0  0  0  0  0  0  0  0  0  0  0  0
  188.5110  176.4680  136.9990 C   0  0  0  0  0  0  0  0  0  0  0  0
  182.5570  178.2620  141.2810 C   0  0  0  0  0  2  0  0  0  0  0  0
  180.7420  179.3860  141.8320 C   0  0  0  0  0  1  0  0  0  0  0  0
  181.8040  178.6720  142.3840 O   0  0  0  0  0  0  0  0  0  0  0  0
  1 18  1  6  0  0  0
  1  3  1  0  0  0  0
  2  4  2  0  0  0  0
  3  4  1  0  0  0  0
  4  5  1  0  0  0  0
  5  7  1  0  0  0  0
  5  8  1  1  0  0  0
  7  6  1  0  0  0  0
  8  9  1  0  0  0  0
  9 10  1  0  0  0  0
 10 14  2  0  0  0  0
 11 12  1  0  0  0  0
 12 17  1  0  0  0  0
 13 17  1  0  0  0  0
 13 10  1  0  0  0  0
 15 11  1  0  0  0  0
 15 16  1  0  0  0  0
 16 13  1  0  0  0  0
 20 19  1  6  0  0  0
 20 18  1  0  0  0  0
 21 22  1  0  0  0  0
 21 20  1  0  0  0  0
 23 34  1  0  0  0  0
 23 22  1  0  0  0  0
 24 33  1  0  0  0  0
 28 31  2  0  0  0  0
 28 29  1  0  0  0  0
 29 26  2  0  0  0  0
 30 26  1  0  0  0  0
 30 24  1  0  0  0  0
 30 27  1  1  0  0  0
 31 35  1  0  0  0  0
 32 25  2  0  0  0  0
 33 32  1  0  0  0  0
 34 32  1  0  0  0  0
 35 24  2  0  0  0  0
 35 34  1  0  0  0  0
 36  1  1  0  0  0  0
 36 38  1  0  0  0  0
 37 38  1  0  0  0  0
M  END
>  <MODEL>
7

>  <REMARK>
 VINA RESULT:      -6.7      2.636      6.805
  Name = 
  14 active torsions:
  status: ('A' for Active; 'I' for Inactive)
    1  A    between atoms: C_1  and  C_14
    2  A    between atoms: C_1  and  N_37
    3  A    between atoms: C_2  and  C_5
    4  A    between atoms: C_2  and  N_18
    5  A    between atoms: C_2  and  C_36
    6  A    between atoms: C_5  and  C_21
    7  A    between atoms: C_6  and  C_31
    8  A    between atoms: C_14  and  O_30
    9  A    between atoms: C_16  and  C_25
   10  A    between atoms: C_16  and  C_31
   11  A    between atoms: C_21  and  O_30
   12  A    between atoms: C_25  and  O_29
   13  A    between atoms: C_25  and  C_32
   14  A    between atoms: O_28  and  C_36
                            x       y       z     vdW  Elec       q    Type
                         _______ _______ _______ _____ _____    ______ ____

>  <TORSDO>
F 14

$$$$
=
 OpenBabel10222416233D

 38 40  0  0  1  0  0  0  0  0999 V2000
  187.1980  177.5350  146.0530 C   0  0  2  0  0  3  0  0  0  0  0  0
  187.5640  176.3040  143.4920 O   0  0  0  0  0  0  0  0  0  0  0  0
  188.1520  177.9550  145.0350 N   0  0  0  0  0  2  0  0  0  0  0  0
  188.2790  177.3040  143.7700 C   0  0  0  0  0  0  0  0  0  0  0  0
  189.3120  177.7940  142.8040 C   0  0  1  0  0  3  0  0  0  0  0  0
  191.0540  176.9120  143.7020 O   0  0  0  0  0  1  0  0  0  0  0  0
  190.5050  178.0860  143.4700 O   0  0  0  0  0  0  0  0  0  0  0  0
  189.5410  176.8250  141.6400 C   0  0  0  0  0  2  0  0  0  0  0  0
  190.0310  177.5300  140.3770 C   0  0  0  0  0  2  0  0  0  0  0  0
  189.9680  176.5920  139.2130 C   0  0  0  0  0  0  0  0  0  0  0  0
  187.2750  177.3190  136.0310 N   0  0  0  0  0  2  0  0  0  0  0  0
  188.5230  176.5910  135.8030 C   0  0  0  0  0  2  0  0  0  0  0  0
  188.9670  176.7510  138.1960 N   0  0  0  0  0  0  0  0  0  0  0  0
  190.8280  175.6750  139.1170 O   0  0  0  0  0  0  0  0  0  0  0  0
  187.5180  178.3420  137.0470 C   0  0  0  0  0  2  0  0  0  0  0  0
  187.8560  177.6830  138.3810 C   0  0  0  0  0  2  0  0  0  0  0  0
  188.9170  175.8270  137.0650 C   0  0  0  0  0  2  0  0  0  0  0  0
  186.1640  178.6330  146.2570 C   0  0  0  0  0  2  0  0  0  0  0  0
  183.8410  179.0040  145.8380 O   0  0  0  0  0  1  0  0  0  0  0  0
  185.0130  178.5010  145.2710 C   0  0  1  0  0  3  0  0  0  0  0  0
  185.3110  179.2170  144.1120 O   0  0  0  0  0  0  0  0  0  0  0  0
  184.0990  179.3000  143.4220 C   0  0  0  0  0  2  0  0  0  0  0  0
  184.0230  178.2110  142.3620 C   0  0  0  0  0  2  0  0  0  0  0  0
  182.1360  179.3960  139.4960 C   0  0  0  0  0  0  0  0  0  0  0  0
  185.4260  179.4010  140.0760 O   0  0  0  0  0  0  0  0  0  0  0  0
  179.9090  178.6770  138.7550 C   0  0  0  0  0  3  0  0  0  0  0  0
  181.1160  180.3640  137.4410 C   0  0  0  0  0  1  0  0  0  0  0  0
  179.9040  178.0850  141.1540 C   0  0  0  0  0  3  0  0  0  0  0  0
  179.5010  177.9840  139.7760 N   0  0  0  0  0  0  0  0  0  0  0  0
  180.8680  179.8190  138.8370 C   0  0  2  0  0  3  0  0  0  0  0  0
  181.0940  178.4330  141.5590 N   0  0  0  0  0  0  0  0  0  0  0  0
  184.1710  179.2830  140.0880 C   0  0  0  0  0  0  0  0  0  0  0  0
  183.3830  179.7150  139.0790 N   0  0  0  0  0  2  0  0  0  0  0  0
  183.4860  178.7460  141.1160 N   0  0  0  0  0  0  0  0  0  0  0  0
  182.2010  178.8100  140.7350 C   0  0  0  0  0  0  0  0  0  0  0  0
  187.9180  177.2120  147.3610 C   0  0  0  0  0  2  0  0  0  0  0  0
  189.3010  178.2530  148.7280 C   0  0  0  0  0  1  0  0  0  0  0  0
  189.1690  177.8340  147.4060 O   0  0  0  0  0  0  0  0  0  0  0  0
  1 18  1  1  0  0  0
  1 36  1  0  0  0  0
  2  4  2  0  0  0  0
  3  1  1  0  0  0  0
  4  3  1  0  0  0  0
  5  8  1  6  0  0  0
  5  7  1  0  0  0  0
  5  4  1  0  0  0  0
  7  6  1  0  0  0  0
  9  8  1  0  0  0  0
 10  9  1  0  0  0  0
 11 15  1  0  0  0  0
 12 11  1  0  0  0  0
 12 17  1  0  0  0  0
 13 16  1  0  0  0  0
 13 10  1  0  0  0  0
 14 10  2  0  0  0  0
 15 16  1  0  0  0  0
 17 13  1  0  0  0  0
 20 19  1  1  0  0  0
 20 18  1  0  0  0  0
 21 20  1  0  0  0  0
 22 21  1  0  0  0  0
 23 22  1  0  0  0  0
 24 35  2  0  0  0  0
 25 32  2  0  0  0  0
 26 30  1  0  0  0  0
 26 29  2  0  0  0  0
 28 31  2  0  0  0  0
 29 28  1  0  0  0  0
 30 27  1  6  0  0  0
 30 24  1  0  0  0  0
 32 34  1  0  0  0  0
 33 24  1  0  0  0  0
 33 32  1  0  0  0  0
 34 23  1  0  0  0  0
 35 34  1  0  0  0  0
 35 31  1  0  0  0  0
 36 38  1  0  0  0  0
 38 37  1  0  0  0  0
M  END
>  <MODEL>
8

>  <REMARK>
 VINA RESULT:      -6.7      2.507      7.216
  Name = 
  14 active torsions:
  status: ('A' for Active; 'I' for Inactive)
    1  A    between atoms: C_1  and  C_14
    2  A    between atoms: C_1  and  N_37
    3  A    between atoms: C_2  and  C_5
    4  A    between atoms: C_2  and  N_18
    5  A    between atoms: C_2  and  C_36
    6  A    between atoms: C_5  and  C_21
    7  A    between atoms: C_6  and  C_31
    8  A    between atoms: C_14  and  O_30
    9  A    between atoms: C_16  and  C_25
   10  A    between atoms: C_16  and  C_31
   11  A    between atoms: C_21  and  O_30
   12  A    between atoms: C_25  and  O_29
   13  A    between atoms: C_25  and  C_32
   14  A    between atoms: O_28  and  C_36
                            x       y       z     vdW  Elec       q    Type
                         _______ _______ _______ _____ _____    ______ ____

>  <TORSDO>
F 14

$$$$
=
 OpenBabel10222416233D

 38 40  0  0  1  0  0  0  0  0999 V2000
  188.3130  177.6470  137.8600 C   0  0  2  0  0  3  0  0  0  0  0  0
  185.5310  176.9630  137.8210 O   0  0  0  0  0  0  0  0  0  0  0  0
  187.2310  178.4460  138.4210 N   0  0  0  0  0  2  0  0  0  0  0  0
  185.8610  178.0440  138.3790 C   0  0  0  0  0  0  0  0  0  0  0  0
  184.8210  178.9510  138.9570 C   0  0  1  0  0  3  0  0  0  0  0  0
  182.8580  179.6840  138.4800 O   0  0  0  0  0  1  0  0  0  0  0  0
  183.5460  178.5620  138.5400 O   0  0  0  0  0  0  0  0  0  0  0  0
  184.9070  179.0550  140.4830 C   0  0  0  0  0  2  0  0  0  0  0  0
  184.1820  177.9130  141.1900 C   0  0  0  0  0  2  0  0  0  0  0  0
  183.4430  178.4380  142.3800 C   0  0  0  0  0  0  0  0  0  0  0  0
  179.2170  178.2700  142.5110 N   0  0  0  0  0  2  0  0  0  0  0  0
  180.0050  178.2430  143.7430 C   0  0  0  0  0  2  0  0  0  0  0  0
  182.0090  178.5120  142.3800 N   0  0  0  0  0  0  0  0  0  0  0  0
  184.0940  178.7860  143.4020 O   0  0  0  0  0  0  0  0  0  0  0  0
  179.9570  177.5500  141.4760 C   0  0  0  0  0  2  0  0  0  0  0  0
  181.2500  178.2900  141.1490 C   0  0  0  0  0  2  0  0  0  0  0  0
  181.3000  179.0270  143.5490 C   0  0  0  0  0  2  0  0  0  0  0  0
  189.6010  177.9460  138.6120 C   0  0  0  0  0  2  0  0  0  0  0  0
  190.7020  175.8420  138.8820 O   0  0  0  0  0  1  0  0  0  0  0  0
  189.9640  176.8140  139.5610 C   0  0  1  0  0  3  0  0  0  0  0  0
  190.7260  177.3200  140.6150 O   0  0  0  0  0  0  0  0  0  0  0  0
  189.7970  177.6140  141.6170 C   0  0  0  0  0  2  0  0  0  0  0  0
  189.6000  176.4060  142.5210 C   0  0  0  0  0  2  0  0  0  0  0  0
  188.7860  177.4070  145.9140 C   0  0  0  0  0  0  0  0  0  0  0  0
  186.8140  176.9590  143.2550 O   0  0  0  0  0  0  0  0  0  0  0  0
  190.0570  176.9570  147.9650 C   0  0  0  0  0  3  0  0  0  0  0  0
  187.9370  178.1840  148.1230 C   0  0  0  0  0  1  0  0  0  0  0  0
  191.7800  176.7710  146.2020 C   0  0  0  0  0  3  0  0  0  0  0  0
  191.1830  176.5170  147.4870 N   0  0  0  0  0  0  0  0  0  0  0  0
  189.1610  177.9220  147.2620 C   0  0  2  0  0  3  0  0  0  0  0  0
  191.1150  176.9780  145.1000 N   0  0  0  0  0  0  0  0  0  0  0  0
  187.7470  177.0560  144.0970 C   0  0  0  0  0  0  0  0  0  0  0  0
  187.5450  177.4420  145.3770 N   0  0  0  0  0  2  0  0  0  0  0  0
  189.0390  176.8130  143.8040 N   0  0  0  0  0  0  0  0  0  0  0  0
  189.6930  177.0270  144.9560 C   0  0  0  0  0  0  0  0  0  0  0  0
  188.4720  177.9340  136.3670 C   0  0  0  0  0  2  0  0  0  0  0  0
  188.6900  176.0590  135.2270 C   0  0  0  0  0  1  0  0  0  0  0  0
  187.7480  177.0130  135.6050 O   0  0  0  0  0  0  0  0  0  0  0  0
  1 36  1  6  0  0  0
  1  3  1  0  0  0  0
  1 18  1  0  0  0  0
  2  4  2  0  0  0  0
  4  3  1  0  0  0  0
  4  5  1  0  0  0  0
  5  8  1  1  0  0  0
  6  7  1  0  0  0  0
  7  5  1  0  0  0  0
  8  9  1  0  0  0  0
  9 10  1  0  0  0  0
 10 13  1  0  0  0  0
 10 14  2  0  0  0  0
 11 12  1  0  0  0  0
 13 17  1  0  0  0  0
 15 11  1  0  0  0  0
 16 15  1  0  0  0  0
 16 13  1  0  0  0  0
 17 12  1  0  0  0  0
 18 20  1  0  0  0  0
 20 19  1  6  0  0  0
 20 21  1  0  0  0  0
 21 22  1  0  0  0  0
 22 23  1  0  0  0  0
 23 34  1  0  0  0  0
 24 30  1  0  0  0  0
 25 32  2  0  0  0  0
 28 29  1  0  0  0  0
 29 26  2  0  0  0  0
 30 26  1  0  0  0  0
 30 27  1  1  0  0  0
 31 28  2  0  0  0  0
 32 33  1  0  0  0  0
 33 24  1  0  0  0  0
 34 32  1  0  0  0  0
 34 35  1  0  0  0  0
 35 31  1  0  0  0  0
 35 24  2  0  0  0  0
 37 38  1  0  0  0  0
 38 36  1  0  0  0  0
M  END
>  <MODEL>
9

>  <REMARK>
 VINA RESULT:      -6.7      1.973      6.947
  Name = 
  14 active torsions:
  status: ('A' for Active; 'I' for Inactive)
    1  A    between atoms: C_1  and  C_14
    2  A    between atoms: C_1  and  N_37
    3  A    between atoms: C_2  and  C_5
    4  A    between atoms: C_2  and  N_18
    5  A    between atoms: C_2  and  C_36
    6  A    between atoms: C_5  and  C_21
    7  A    between atoms: C_6  and  C_31
    8  A    between atoms: C_14  and  O_30
    9  A    between atoms: C_16  and  C_25
   10  A    between atoms: C_16  and  C_31
   11  A    between atoms: C_21  and  O_30
   12  A    between atoms: C_25  and  O_29
   13  A    between atoms: C_25  and  C_32
   14  A    between atoms: O_28  and  C_36
                            x       y       z     vdW  Elec       q    Type
                         _______ _______ _______ _____ _____    ______ ____

>  <TORSDO>
F 14

$$$$
