=
 OpenBabel10222418523D

 33 36  0  0  1  0  0  0  0  0999 V2000
  186.4250  178.8550  141.3190 C   0  0  0  0  0  0  0  0  0  0  0  0
  188.6600  177.6910  141.5200 C   0  0  1  0  0  3  0  0  0  0  0  0
  190.1390  176.4920  140.0780 C   0  0  1  0  0  3  0  0  0  0  0  0
  186.1090  178.8040  139.9240 N   0  0  0  0  0  2  0  0  0  0  0  0
  186.9310  178.2380  138.8980 C   0  0  0  0  0  0  0  0  0  0  0  0
  185.9840  179.8220  141.9980 O   0  0  0  0  0  0  0  0  0  0  0  0
  188.4090  178.1050  139.0600 C   0  0  0  0  0  2  0  0  0  0  0  0
  187.2010  177.7430  141.9940 C   0  0  1  0  0  3  0  0  0  0  0  0
  189.5240  176.7410  142.3330 C   0  0  0  0  0  2  0  0  0  0  0  0
  186.4090  177.9150  137.8010 O   0  0  0  0  0  0  0  0  0  0  0  0
  190.5320  176.1620  141.4470 N   0  0  0  0  0  2  0  0  0  0  0  0
  188.7390  177.0930  140.1450 C   0  0  2  0  0  3  0  0  0  0  0  0
  188.8760  178.4410  148.8510 C   0  0  0  0  0  1  0  0  0  0  0  0
  187.0570  177.7710  143.4930 C   0  0  0  0  0  0  0  0  0  0  0  0
  188.1620  177.4240  144.2910 C   0  0  0  0  0  3  0  0  0  0  0  0
  188.0120  177.4490  145.6770 C   0  0  0  0  0  0  0  0  0  0  0  0
  188.2250  177.3470  148.0280 C   0  0  2  0  0  3  0  0  0  0  0  0
  185.8320  178.1310  144.1050 C   0  0  0  0  0  3  0  0  0  0  0  0
  185.7110  178.1470  145.5030 C   0  0  0  0  0  3  0  0  0  0  0  0
  189.0190  177.1360  146.7200 C   0  0  0  0  0  2  0  0  0  0  0  0
  186.8290  177.8000  146.2580 C   0  0  0  0  0  0  0  0  0  0  0  0
  186.9160  177.7570  147.6310 O   0  0  0  0  0  0  0  0  0  0  0  0
  191.1880  177.4040  139.4250 C   0  0  1  0  0  3  0  0  0  0  0  0
  192.2670  177.6240  140.2870 O   0  0  0  0  0  1  0  0  0  0  0  0
  191.6760  176.7990  138.1180 C   0  0  0  0  0  2  0  0  0  0  0  0
  193.1470  176.4170  138.2000 C   0  0  0  0  0  2  0  0  0  0  0  0
  194.4370  176.9470  136.1850 N   0  0  0  0  0  1  0  0  0  0  0  0
  193.6630  175.9140  136.8570 C   0  0  1  0  0  3  0  0  0  0  0  0
  194.5080  174.6600  137.0360 C   0  0  0  0  0  2  0  0  0  0  0  0
  195.8430  173.7650  139.3820 O   0  0  0  0  0  1  0  0  0  0  0  0
  196.4830  174.5120  138.5970 C   0  0  0  0  0  0  0  0  0  0  0  0
  197.7920  174.8650  138.8970 O   0  0  0  0  0  0  0  0  0  0  0  0
  195.8770  174.9980  137.4000 N   0  0  0  0  0  2  0  0  0  0  0  0
  1  8  1  0  0  0  0
  1  6  2  0  0  0  0
  2  8  1  0  0  0  0
  2  9  1  1  0  0  0
  3 23  1  1  0  0  0
  3 12  1  0  0  0  0
  3 11  1  0  0  0  0
  4  1  1  0  0  0  0
  5  7  1  0  0  0  0
  5  4  1  0  0  0  0
  8 14  1  1  0  0  0
 10  5  2  0  0  0  0
 11  9  1  0  0  0  0
 12  7  1  6  0  0  0
 12  2  1  0  0  0  0
 14 18  2  0  0  0  0
 14 15  1  0  0  0  0
 15 16  2  0  0  0  0
 16 21  1  0  0  0  0
 16 20  1  0  0  0  0
 17 13  1  1  0  0  0
 18 19  1  0  0  0  0
 19 21  2  0  0  0  0
 20 17  1  0  0  0  0
 21 22  1  0  0  0  0
 22 17  1  0  0  0  0
 23 24  1  1  0  0  0
 25 26  1  0  0  0  0
 25 23  1  0  0  0  0
 28 27  1  1  0  0  0
 28 29  1  0  0  0  0
 28 26  1  0  0  0  0
 29 33  1  0  0  0  0
 31 32  2  0  0  0  0
 31 30  1  0  0  0  0
 33 31  1  0  0  0  0
M  END
>  <MODEL>
1

>  <REMARK>
 VINA RESULT:      -9.3      0.000      0.000
  Name = 
  7 active torsions:
  status: ('A' for Active; 'I' for Inactive)
    1  A    between atoms: C_3  and  C_19
    2  A    between atoms: C_5  and  C_8
    3  A    between atoms: C_5  and  C_21
    4  A    between atoms: C_16  and  N_26
    5  A    between atoms: C_16  and  C_33
    6  A    between atoms: C_21  and  C_30
    7  A    between atoms: C_30  and  C_33
                            x       y       z     vdW  Elec       q    Type
                         _______ _______ _______ _____ _____    ______ ____

>  <TORSDO>
F 7

$$$$
=
 OpenBabel10222418523D

 33 36  0  0  1  0  0  0  0  0999 V2000
  187.3190  177.3240  144.6480 C   0  0  0  0  0  0  0  0  0  0  0  0
  187.4330  177.7710  142.1630 C   0  0  1  0  0  3  0  0  0  0  0  0
  189.1360  178.1880  140.5410 C   0  0  1  0  0  3  0  0  0  0  0  0
  188.6830  177.2210  145.0650 N   0  0  0  0  0  2  0  0  0  0  0  0
  189.8300  177.3190  144.2150 C   0  0  0  0  0  0  0  0  0  0  0  0
  186.4470  176.6730  145.2860 O   0  0  0  0  0  0  0  0  0  0  0  0
  189.7520  177.0240  142.7540 C   0  0  0  0  0  2  0  0  0  0  0  0
  186.9050  178.2490  143.5230 C   0  0  1  0  0  3  0  0  0  0  0  0
  186.8550  178.5420  140.9870 C   0  0  0  0  0  2  0  0  0  0  0  0
  190.9500  177.5860  144.7210 O   0  0  0  0  0  0  0  0  0  0  0  0
  187.8740  178.6200  139.9430 N   0  0  0  0  0  2  0  0  0  0  0  0
  188.9010  178.0630  142.0430 C   0  0  2  0  0  3  0  0  0  0  0  0
  180.0090  177.7600  141.9380 C   0  0  0  0  0  1  0  0  0  0  0  0
  185.4250  178.5320  143.5270 C   0  0  0  0  0  0  0  0  0  0  0  0
  184.6850  178.3070  142.3530 C   0  0  0  0  0  3  0  0  0  0  0  0
  183.3180  178.5790  142.3700 C   0  0  0  0  0  0  0  0  0  0  0  0
  181.0160  178.8930  141.9330 C   0  0  2  0  0  3  0  0  0  0  0  0
  184.7770  179.0250  144.6840 C   0  0  0  0  0  3  0  0  0  0  0  0
  183.3990  179.2900  144.6720 C   0  0  0  0  0  3  0  0  0  0  0  0
  182.3310  178.4180  141.2740 C   0  0  0  0  0  2  0  0  0  0  0  0
  182.7000  179.0510  143.4900 C   0  0  0  0  0  0  0  0  0  0  0  0
  181.3540  179.2430  143.2760 O   0  0  0  0  0  0  0  0  0  0  0  0
  189.6340  176.9010  139.8700 C   0  0  1  0  0  3  0  0  0  0  0  0
  188.9000  176.6230  138.7120 O   0  0  0  0  0  1  0  0  0  0  0  0
  191.1140  177.0150  139.5380 C   0  0  0  0  0  2  0  0  0  0  0  0
  191.5090  176.0480  138.4310 C   0  0  0  0  0  2  0  0  0  0  0  0
  193.6990  176.9620  139.0400 N   0  0  0  0  0  1  0  0  0  0  0  0
  192.9590  176.2550  138.0070 C   0  0  1  0  0  3  0  0  0  0  0  0
  193.6290  174.9220  137.7010 C   0  0  0  0  0  2  0  0  0  0  0  0
  195.3140  173.0360  139.0010 O   0  0  0  0  0  1  0  0  0  0  0  0
  195.8610  174.0410  138.4760 C   0  0  0  0  0  0  0  0  0  0  0  0
  197.2390  174.1910  138.5480 O   0  0  0  0  0  0  0  0  0  0  0  0
  195.0780  175.0280  137.8060 N   0  0  0  0  0  2  0  0  0  0  0  0
  1  4  1  0  0  0  0
  1  6  2  0  0  0  0
  2  9  1  6  0  0  0
  2  8  1  0  0  0  0
  3 23  1  6  0  0  0
  3 12  1  0  0  0  0
  5 10  2  0  0  0  0
  5  4  1  0  0  0  0
  7  5  1  0  0  0  0
  8 14  1  6  0  0  0
  8  1  1  0  0  0  0
 11  3  1  0  0  0  0
 11  9  1  0  0  0  0
 12  2  1  0  0  0  0
 12  7  1  6  0  0  0
 14 18  1  0  0  0  0
 15 16  1  0  0  0  0
 15 14  2  0  0  0  0
 16 21  2  0  0  0  0
 17 13  1  1  0  0  0
 17 22  1  0  0  0  0
 19 18  2  0  0  0  0
 20 17  1  0  0  0  0
 20 16  1  0  0  0  0
 21 19  1  0  0  0  0
 22 21  1  0  0  0  0
 23 24  1  6  0  0  0
 25 23  1  0  0  0  0
 26 25  1  0  0  0  0
 28 26  1  0  0  0  0
 28 27  1  1  0  0  0
 29 33  1  0  0  0  0
 29 28  1  0  0  0  0
 31 32  2  0  0  0  0
 31 30  1  0  0  0  0
 33 31  1  0  0  0  0
M  END
>  <MODEL>
2

>  <REMARK>
 VINA RESULT:      -9.1      2.593      4.635
  Name = 
  7 active torsions:
  status: ('A' for Active; 'I' for Inactive)
    1  A    between atoms: C_3  and  C_19
    2  A    between atoms: C_5  and  C_8
    3  A    between atoms: C_5  and  C_21
    4  A    between atoms: C_16  and  N_26
    5  A    between atoms: C_16  and  C_33
    6  A    between atoms: C_21  and  C_30
    7  A    between atoms: C_30  and  C_33
                            x       y       z     vdW  Elec       q    Type
                         _______ _______ _______ _____ _____    ______ ____

>  <TORSDO>
F 7

$$$$
=
 OpenBabel10222418523D

 33 36  0  0  1  0  0  0  0  0999 V2000
  186.3800  178.8540  141.3180 C   0  0  0  0  0  0  0  0  0  0  0  0
  188.6190  177.6960  141.5080 C   0  0  1  0  0  3  0  0  0  0  0  0
  190.0890  176.4930  140.0600 C   0  0  1  0  0  3  0  0  0  0  0  0
  186.0540  178.7960  139.9260 N   0  0  0  0  0  2  0  0  0  0  0  0
  186.8690  178.2270  138.8960 C   0  0  0  0  0  0  0  0  0  0  0  0
  185.9420  179.8230  141.9950 O   0  0  0  0  0  0  0  0  0  0  0  0
  188.3480  178.0980  139.0480 C   0  0  0  0  0  2  0  0  0  0  0  0
  187.1630  177.7470  141.9920 C   0  0  1  0  0  3  0  0  0  0  0  0
  189.4900  176.7500  142.3190 C   0  0  0  0  0  2  0  0  0  0  0  0
  186.3390  177.8980  137.8040 O   0  0  0  0  0  0  0  0  0  0  0  0
  190.4930  176.1700  141.4280 N   0  0  0  0  0  2  0  0  0  0  0  0
  188.6880  177.0910  140.1340 C   0  0  2  0  0  3  0  0  0  0  0  0
  188.8960  178.4430  148.8350 C   0  0  0  0  0  1  0  0  0  0  0  0
  187.0300  177.7810  143.4920 C   0  0  0  0  0  0  0  0  0  0  0  0
  188.1350  177.4210  144.2830 C   0  0  0  0  0  3  0  0  0  0  0  0
  187.9960  177.4530  145.6700 C   0  0  0  0  0  0  0  0  0  0  0  0
  188.2240  177.3550  148.0200 C   0  0  2  0  0  3  0  0  0  0  0  0
  185.8150  178.1600  144.1110 C   0  0  0  0  0  3  0  0  0  0  0  0
  185.7040  178.1820  145.5100 C   0  0  0  0  0  3  0  0  0  0  0  0
  189.0060  177.1290  146.7070 C   0  0  0  0  0  2  0  0  0  0  0  0
  186.8220  177.8210  146.2580 C   0  0  0  0  0  0  0  0  0  0  0  0
  186.9180  177.7810  147.6310 O   0  0  0  0  0  0  0  0  0  0  0  0
  191.1310  177.4040  139.3950 C   0  0  1  0  0  3  0  0  0  0  0  0
  192.1920  177.6720  140.2670 O   0  0  0  0  0  1  0  0  0  0  0  0
  191.6520  176.7670  138.1160 C   0  0  0  0  0  2  0  0  0  0  0  0
  193.1690  176.6360  138.1400 C   0  0  0  0  0  2  0  0  0  0  0  0
  195.0590  175.2450  137.4370 N   0  0  0  0  0  1  0  0  0  0  0  0
  193.6400  175.4980  137.2430 C   0  0  1  0  0  3  0  0  0  0  0  0
  192.8400  174.2300  137.5120 C   0  0  0  0  0  2  0  0  0  0  0  0
  190.0690  173.5950  137.4510 O   0  0  0  0  0  1  0  0  0  0  0  0
  190.7090  173.5100  136.3710 C   0  0  0  0  0  0  0  0  0  0  0  0
  190.0540  173.1180  135.2110 O   0  0  0  0  0  0  0  0  0  0  0  0
  192.1030  173.8150  136.3260 N   0  0  0  0  0  2  0  0  0  0  0  0
  1  8  1  0  0  0  0
  1  6  2  0  0  0  0
  2  8  1  0  0  0  0
  2  9  1  1  0  0  0
  3 23  1  1  0  0  0
  3 12  1  0  0  0  0
  3 11  1  0  0  0  0
  4  1  1  0  0  0  0
  5  7  1  0  0  0  0
  5  4  1  0  0  0  0
  8 14  1  1  0  0  0
 10  5  2  0  0  0  0
 11  9  1  0  0  0  0
 12  7  1  6  0  0  0
 12  2  1  0  0  0  0
 14 18  2  0  0  0  0
 14 15  1  0  0  0  0
 15 16  2  0  0  0  0
 16 21  1  0  0  0  0
 16 20  1  0  0  0  0
 17 13  1  1  0  0  0
 18 19  1  0  0  0  0
 19 21  2  0  0  0  0
 20 17  1  0  0  0  0
 21 22  1  0  0  0  0
 22 17  1  0  0  0  0
 23 24  1  1  0  0  0
 25 26  1  0  0  0  0
 25 23  1  0  0  0  0
 28 27  1  1  0  0  0
 28 29  1  0  0  0  0
 28 26  1  0  0  0  0
 31 30  1  0  0  0  0
 32 31  2  0  0  0  0
 33 31  1  0  0  0  0
 33 29  1  0  0  0  0
M  END
>  <MODEL>
3

>  <REMARK>
 VINA RESULT:      -9.0      1.796      2.324
  Name = 
  7 active torsions:
  status: ('A' for Active; 'I' for Inactive)
    1  A    between atoms: C_3  and  C_19
    2  A    between atoms: C_5  and  C_8
    3  A    between atoms: C_5  and  C_21
    4  A    between atoms: C_16  and  N_26
    5  A    between atoms: C_16  and  C_33
    6  A    between atoms: C_21  and  C_30
    7  A    between atoms: C_30  and  C_33
                            x       y       z     vdW  Elec       q    Type
                         _______ _______ _______ _____ _____    ______ ____

>  <TORSDO>
F 7

$$$$
=
 OpenBabel10222418523D

 33 36  0  0  1  0  0  0  0  0999 V2000
  185.7250  178.5970  141.9110 C   0  0  0  0  0  0  0  0  0  0  0  0
  183.3760  178.4640  142.8350 C   0  0  1  0  0  3  0  0  0  0  0  0
  181.1870  179.1150  142.1360 C   0  0  1  0  0  3  0  0  0  0  0  0
  185.5710  179.1250  140.5900 N   0  0  0  0  0  2  0  0  0  0  0  0
  184.3300  179.4550  139.9580 C   0  0  0  0  0  0  0  0  0  0  0  0
  186.6990  177.8280  142.1380 O   0  0  0  0  0  0  0  0  0  0  0  0
  183.0440  178.8230  140.3760 C   0  0  0  0  0  2  0  0  0  0  0  0
  184.7990  179.0050  143.0370 C   0  0  1  0  0  3  0  0  0  0  0  0
  182.4790  178.6610  144.0460 C   0  0  0  0  0  2  0  0  0  0  0  0
  184.3290  180.2410  138.9760 O   0  0  0  0  0  0  0  0  0  0  0  0
  181.1130  178.8790  143.5770 N   0  0  0  0  0  2  0  0  0  0  0  0
  182.6630  179.2610  141.7800 C   0  0  2  0  0  3  0  0  0  0  0  0
  189.5450  178.0250  148.2160 C   0  0  0  0  0  1  0  0  0  0  0  0
  185.3730  178.6910  144.3940 C   0  0  0  0  0  0  0  0  0  0  0  0
  186.6550  178.1220  144.4770 C   0  0  0  0  0  3  0  0  0  0  0  0
  187.1710  177.8320  145.7400 C   0  0  0  0  0  0  0  0  0  0  0  0
  188.4320  177.1800  147.6290 C   0  0  2  0  0  3  0  0  0  0  0  0
  184.6400  178.9530  145.5770 C   0  0  0  0  0  3  0  0  0  0  0  0
  185.1850  178.6500  146.8350 C   0  0  0  0  0  3  0  0  0  0  0  0
  188.4880  177.2430  146.0870 C   0  0  0  0  0  2  0  0  0  0  0  0
  186.4600  178.0900  146.8750 C   0  0  0  0  0  0  0  0  0  0  0  0
  187.1650  177.7260  147.9990 O   0  0  0  0  0  0  0  0  0  0  0  0
  180.4600  178.0000  141.3730 C   0  0  1  0  0  3  0  0  0  0  0  0
  179.6960  177.2130  142.2410 O   0  0  0  0  0  1  0  0  0  0  0  0
  179.5750  178.5910  140.2860 C   0  0  0  0  0  2  0  0  0  0  0  0
  179.6660  180.1110  140.2650 C   0  0  0  0  0  2  0  0  0  0  0  0
  180.0450  179.7080  137.8780 N   0  0  0  0  0  1  0  0  0  0  0  0
  180.3290  180.6080  138.9850 C   0  0  1  0  0  3  0  0  0  0  0  0
  179.8640  182.0180  138.6470 C   0  0  0  0  0  2  0  0  0  0  0  0
  179.8040  184.7790  137.9680 O   0  0  0  0  0  1  0  0  0  0  0  0
  180.7170  184.0750  137.4620 C   0  0  0  0  0  0  0  0  0  0  0  0
  181.6440  184.6580  136.6090 O   0  0  0  0  0  0  0  0  0  0  0  0
  180.8100  182.6820  137.7600 N   0  0  0  0  0  2  0  0  0  0  0  0
  1  6  2  0  0  0  0
  1  8  1  0  0  0  0
  2  8  1  0  0  0  0
  2  9  1  1  0  0  0
  3 23  1  6  0  0  0
  3 11  1  0  0  0  0
  4  1  1  0  0  0  0
  5  7  1  0  0  0  0
  5  4  1  0  0  0  0
  8 14  1  1  0  0  0
 10  5  2  0  0  0  0
 11  9  1  0  0  0  0
 12  7  1  6  0  0  0
 12  3  1  0  0  0  0
 12  2  1  0  0  0  0
 14 15  2  0  0  0  0
 14 18  1  0  0  0  0
 15 16  1  0  0  0  0
 16 20  1  0  0  0  0
 16 21  2  0  0  0  0
 17 22  1  0  0  0  0
 17 13  1  1  0  0  0
 18 19  2  0  0  0  0
 19 21  1  0  0  0  0
 20 17  1  0  0  0  0
 21 22  1  0  0  0  0
 23 24  1  1  0  0  0
 25 23  1  0  0  0  0
 26 25  1  0  0  0  0
 28 27  1  6  0  0  0
 28 26  1  0  0  0  0
 29 28  1  0  0  0  0
 31 33  1  0  0  0  0
 31 30  1  0  0  0  0
 32 31  2  0  0  0  0
 33 29  1  0  0  0  0
M  END
>  <MODEL>
4

>  <REMARK>
 VINA RESULT:      -8.8      5.977      9.700
  Name = 
  7 active torsions:
  status: ('A' for Active; 'I' for Inactive)
    1  A    between atoms: C_3  and  C_19
    2  A    between atoms: C_5  and  C_8
    3  A    between atoms: C_5  and  C_21
    4  A    between atoms: C_16  and  N_26
    5  A    between atoms: C_16  and  C_33
    6  A    between atoms: C_21  and  C_30
    7  A    between atoms: C_30  and  C_33
                            x       y       z     vdW  Elec       q    Type
                         _______ _______ _______ _____ _____    ______ ____

>  <TORSDO>
F 7

$$$$
=
 OpenBabel10222418523D

 33 36  0  0  1  0  0  0  0  0999 V2000
  184.8630  178.8910  145.1860 C   0  0  0  0  0  0  0  0  0  0  0  0
  185.3440  178.7220  142.7100 C   0  0  1  0  0  3  0  0  0  0  0  0
  184.0860  178.3870  140.7070 C   0  0  1  0  0  3  0  0  0  0  0  0
  183.4360  178.8620  145.2850 N   0  0  0  0  0  2  0  0  0  0  0  0
  182.5200  178.7920  144.1880 C   0  0  0  0  0  0  0  0  0  0  0  0
  185.5130  179.5170  146.0670 O   0  0  0  0  0  0  0  0  0  0  0  0
  182.8960  179.2550  142.8200 C   0  0  0  0  0  2  0  0  0  0  0  0
  185.5940  178.1260  144.1020 C   0  0  1  0  0  3  0  0  0  0  0  0
  186.2320  178.1250  141.6300 C   0  0  0  0  0  2  0  0  0  0  0  0
  181.3420  178.4010  144.3950 O   0  0  0  0  0  0  0  0  0  0  0  0
  185.4810  178.1030  140.3760 N   0  0  0  0  0  2  0  0  0  0  0  0
  183.9690  178.3560  142.2280 C   0  0  2  0  0  3  0  0  0  0  0  0
  191.4880  175.7340  147.2390 C   0  0  0  0  0  1  0  0  0  0  0  0
  187.0540  177.9350  144.4190 C   0  0  0  0  0  0  0  0  0  0  0  0
  187.4320  177.6420  145.7410 C   0  0  0  0  0  3  0  0  0  0  0  0
  188.7880  177.4730  146.0210 C   0  0  0  0  0  0  0  0  0  0  0  0
  190.9300  177.1130  146.9520 C   0  0  2  0  0  3  0  0  0  0  0  0
  188.0440  178.0540  143.4140 C   0  0  0  0  0  3  0  0  0  0  0  0
  189.4010  177.8790  143.7250 C   0  0  0  0  0  3  0  0  0  0  0  0
  189.4300  177.1550  147.3200 C   0  0  0  0  0  2  0  0  0  0  0  0
  189.7340  177.5870  145.0460 C   0  0  0  0  0  0  0  0  0  0  0  0
  190.9980  177.3780  145.5500 O   0  0  0  0  0  0  0  0  0  0  0  0
  183.6420  179.7100  140.0660 C   0  0  1  0  0  3  0  0  0  0  0  0
  184.5560  180.1280  139.0940 O   0  0  0  0  0  1  0  0  0  0  0  0
  182.2560  179.5640  139.4550 C   0  0  0  0  0  2  0  0  0  0  0  0
  181.9920  180.6470  138.4190 C   0  0  0  0  0  2  0  0  0  0  0  0
  179.7120  179.7570  138.5360 N   0  0  0  0  0  1  0  0  0  0  0  0
  180.6930  180.3860  137.6660 C   0  0  1  0  0  3  0  0  0  0  0  0
  180.1310  181.6790  137.0900 C   0  0  0  0  0  2  0  0  0  0  0  0
  180.9190  183.9110  135.5150 O   0  0  0  0  0  0  0  0  0  0  0  0
  181.2290  183.9220  136.7350 C   0  0  0  0  0  0  0  0  0  0  0  0
  181.9300  185.0000  137.2580 O   0  0  0  0  0  1  0  0  0  0  0  0
  180.8650  182.8350  137.5860 N   0  0  0  0  0  2  0  0  0  0  0  0
  1  4  1  0  0  0  0
  1  6  2  0  0  0  0
  2  9  1  6  0  0  0
  2  8  1  0  0  0  0
  3 23  1  1  0  0  0
  3 12  1  0  0  0  0
  5 10  2  0  0  0  0
  5  4  1  0  0  0  0
  7  5  1  0  0  0  0
  8 14  1  1  0  0  0
  8  1  1  0  0  0  0
 11  3  1  0  0  0  0
 11  9  1  0  0  0  0
 12  2  1  0  0  0  0
 12  7  1  6  0  0  0
 14 15  1  0  0  0  0
 15 16  2  0  0  0  0
 16 20  1  0  0  0  0
 17 13  1  6  0  0  0
 17 20  1  0  0  0  0
 18 19  1  0  0  0  0
 18 14  2  0  0  0  0
 19 21  2  0  0  0  0
 21 22  1  0  0  0  0
 21 16  1  0  0  0  0
 22 17  1  0  0  0  0
 23 24  1  6  0  0  0
 25 23  1  0  0  0  0
 26 25  1  0  0  0  0
 28 26  1  0  0  0  0
 28 27  1  1  0  0  0
 29 33  1  0  0  0  0
 29 28  1  0  0  0  0
 30 31  2  0  0  0  0
 31 32  1  0  0  0  0
 31 33  1  0  0  0  0
M  END
>  <MODEL>
5

>  <REMARK>
 VINA RESULT:      -8.7      5.210      9.219
  Name = 
  7 active torsions:
  status: ('A' for Active; 'I' for Inactive)
    1  A    between atoms: C_3  and  C_19
    2  A    between atoms: C_5  and  C_8
    3  A    between atoms: C_5  and  C_21
    4  A    between atoms: C_16  and  N_26
    5  A    between atoms: C_16  and  C_33
    6  A    between atoms: C_21  and  C_30
    7  A    between atoms: C_30  and  C_33
                            x       y       z     vdW  Elec       q    Type
                         _______ _______ _______ _____ _____    ______ ____

>  <TORSDO>
F 7

$$$$
=
 OpenBabel10222418523D

 33 36  0  0  1  0  0  0  0  0999 V2000
  189.0560  178.3240  138.5290 C   0  0  0  0  0  0  0  0  0  0  0  0
  188.9370  177.6310  140.9570 C   0  0  1  0  0  3  0  0  0  0  0  0
  190.1970  176.2480  142.4410 C   0  0  1  0  0  3  0  0  0  0  0  0
  190.2820  177.7650  138.0480 N   0  0  0  0  0  2  0  0  0  0  0  0
  191.2230  177.0150  138.8220 C   0  0  0  0  0  0  0  0  0  0  0  0
  188.6330  179.3870  137.9980 O   0  0  0  0  0  0  0  0  0  0  0  0
  191.3120  177.1590  140.3050 C   0  0  0  0  0  2  0  0  0  0  0  0
  188.2340  177.6250  139.5920 C   0  0  1  0  0  3  0  0  0  0  0  0
  188.0520  177.1420  142.0920 C   0  0  0  0  0  2  0  0  0  0  0  0
  192.0500  176.2710  138.2340 O   0  0  0  0  0  0  0  0  0  0  0  0
  188.8930  176.4540  143.0690 N   0  0  0  0  0  2  0  0  0  0  0  0
  190.0530  176.6260  140.9700 C   0  0  2  0  0  3  0  0  0  0  0  0
  181.2460  178.0420  138.4510 C   0  0  0  0  0  1  0  0  0  0  0  0
  186.8160  178.1310  139.6460 C   0  0  0  0  0  0  0  0  0  0  0  0
  185.9690  177.9040  138.5460 C   0  0  0  0  0  3  0  0  0  0  0  0
  184.6610  178.3820  138.6080 C   0  0  0  0  0  0  0  0  0  0  0  0
  182.4060  179.0000  138.2650 C   0  0  2  0  0  3  0  0  0  0  0  0
  186.3310  178.8340  140.7750 C   0  0  0  0  0  3  0  0  0  0  0  0
  185.0080  179.3040  140.8080 C   0  0  0  0  0  3  0  0  0  0  0  0
  183.5860  178.2640  137.5920 C   0  0  0  0  0  2  0  0  0  0  0  0
  184.2010  179.0560  139.7000 C   0  0  0  0  0  0  0  0  0  0  0  0
  182.8850  179.4290  139.5400 O   0  0  0  0  0  0  0  0  0  0  0  0
  191.2840  177.0310  143.1910 C   0  0  1  0  0  3  0  0  0  0  0  0
  190.8410  178.3180  143.5150 O   0  0  0  0  0  1  0  0  0  0  0  0
  191.6990  176.2860  144.4510 C   0  0  0  0  0  2  0  0  0  0  0  0
  191.6740  177.2010  145.6680 C   0  0  0  0  0  2  0  0  0  0  0  0
  192.2400  176.4190  147.9200 N   0  0  0  0  0  1  0  0  0  0  0  0
  191.1950  176.4570  146.9090 C   0  0  1  0  0  3  0  0  0  0  0  0
  189.9390  177.1050  147.4780 C   0  0  0  0  0  2  0  0  0  0  0  0
  187.3210  178.1160  147.9340 O   0  0  0  0  0  1  0  0  0  0  0  0
  187.5580  177.6000  146.8110 C   0  0  0  0  0  0  0  0  0  0  0  0
  186.5540  177.5430  145.8540 O   0  0  0  0  0  0  0  0  0  0  0  0
  188.8500  177.0730  146.5110 N   0  0  0  0  0  2  0  0  0  0  0  0
  1  8  1  0  0  0  0
  2 12  1  0  0  0  0
  2  9  1  1  0  0  0
  3 11  1  0  0  0  0
  3 23  1  1  0  0  0
  4  1  1  0  0  0  0
  4  5  1  0  0  0  0
  5  7  1  0  0  0  0
  6  1  2  0  0  0  0
  8 14  1  1  0  0  0
  8  2  1  0  0  0  0
  9 11  1  0  0  0  0
 10  5  2  0  0  0  0
 12  7  1  1  0  0  0
 12  3  1  0  0  0  0
 14 18  1  0  0  0  0
 15 16  1  0  0  0  0
 15 14  2  0  0  0  0
 16 21  2  0  0  0  0
 17 13  1  1  0  0  0
 17 22  1  0  0  0  0
 18 19  2  0  0  0  0
 20 17  1  0  0  0  0
 20 16  1  0  0  0  0
 21 19  1  0  0  0  0
 22 21  1  0  0  0  0
 23 24  1  1  0  0  0
 23 25  1  0  0  0  0
 25 26  1  0  0  0  0
 26 28  1  0  0  0  0
 28 29  1  0  0  0  0
 28 27  1  1  0  0  0
 31 30  1  0  0  0  0
 32 31  2  0  0  0  0
 33 31  1  0  0  0  0
 33 29  1  0  0  0  0
M  END
>  <MODEL>
6

>  <REMARK>
 VINA RESULT:      -8.6      2.938      7.786
  Name = 
  7 active torsions:
  status: ('A' for Active; 'I' for Inactive)
    1  A    between atoms: C_3  and  C_19
    2  A    between atoms: C_5  and  C_8
    3  A    between atoms: C_5  and  C_21
    4  A    between atoms: C_16  and  N_26
    5  A    between atoms: C_16  and  C_33
    6  A    between atoms: C_21  and  C_30
    7  A    between atoms: C_30  and  C_33
                            x       y       z     vdW  Elec       q    Type
                         _______ _______ _______ _____ _____    ______ ____

>  <TORSDO>
F 7

$$$$
=
 OpenBabel10222418523D

 33 36  0  0  1  0  0  0  0  0999 V2000
  185.9510  178.5410  142.0570 C   0  0  0  0  0  0  0  0  0  0  0  0
  185.1830  178.6880  144.4610 C   0  0  1  0  0  3  0  0  0  0  0  0
  185.9790  177.9660  146.5940 C   0  0  1  0  0  3  0  0  0  0  0  0
  187.2470  177.9380  142.1220 N   0  0  0  0  0  2  0  0  0  0  0  0
  187.9350  177.5540  143.3170 C   0  0  0  0  0  0  0  0  0  0  0  0
  185.7070  179.3360  141.1090 O   0  0  0  0  0  0  0  0  0  0  0  0
  187.6350  178.1890  144.6340 C   0  0  0  0  0  2  0  0  0  0  0  0
  184.8630  178.1820  143.0480 C   0  0  1  0  0  3  0  0  0  0  0  0
  184.0210  178.5460  145.4300 C   0  0  0  0  0  2  0  0  0  0  0  0
  188.8700  176.7150  143.2460 O   0  0  0  0  0  0  0  0  0  0  0  0
  184.5610  178.2800  146.7620 N   0  0  0  0  0  2  0  0  0  0  0  0
  186.2340  177.8230  145.0970 C   0  0  2  0  0  3  0  0  0  0  0  0
  178.9840  178.4000  139.0860 C   0  0  0  0  0  1  0  0  0  0  0  0
  183.4930  178.5790  142.5640 C   0  0  0  0  0  0  0  0  0  0  0  0
  183.2160  178.5320  141.1870 C   0  0  0  0  0  3  0  0  0  0  0  0
  181.9450  178.9080  140.7530 C   0  0  0  0  0  0  0  0  0  0  0  0
  179.9680  179.4450  139.5750 C   0  0  2  0  0  3  0  0  0  0  0  0
  182.4910  179.0020  143.4700 C   0  0  0  0  0  3  0  0  0  0  0  0
  181.2200  179.3750  143.0050 C   0  0  0  0  0  3  0  0  0  0  0  0
  181.4120  178.9370  139.3690 C   0  0  0  0  0  2  0  0  0  0  0  0
  180.9840  179.3120  141.6330 C   0  0  0  0  0  0  0  0  0  0  0  0
  179.8140  179.6300  140.9830 O   0  0  0  0  0  0  0  0  0  0  0  0
  186.8480  179.0260  147.2850 C   0  0  1  0  0  3  0  0  0  0  0  0
  186.0610  180.0590  147.8050 O   0  0  0  0  0  1  0  0  0  0  0  0
  187.6780  178.3920  148.3910 C   0  0  0  0  0  2  0  0  0  0  0  0
  189.1650  178.4570  148.0730 C   0  0  0  0  0  2  0  0  0  0  0  0
  189.0500  176.1810  147.1720 N   0  0  0  0  0  1  0  0  0  0  0  0
  189.7890  177.0660  148.0590 C   0  0  1  0  0  3  0  0  0  0  0  0
  191.2500  177.1320  147.6360 C   0  0  0  0  0  2  0  0  0  0  0  0
  191.5900  177.8540  144.9070 O   0  0  0  0  0  1  0  0  0  0  0  0
  191.6820  176.6330  145.2020 C   0  0  0  0  0  0  0  0  0  0  0  0
  191.9410  175.7020  144.2050 O   0  0  0  0  0  0  0  0  0  0  0  0
  191.5240  176.1980  146.5520 N   0  0  0  0  0  2  0  0  0  0  0  0
  1  4  1  0  0  0  0
  1  8  1  0  0  0  0
  2 12  1  0  0  0  0
  2  9  1  1  0  0  0
  3 11  1  0  0  0  0
  3 23  1  6  0  0  0
  4  5  1  0  0  0  0
  5  7  1  0  0  0  0
  6  1  2  0  0  0  0
  8 14  1  6  0  0  0
  8  2  1  0  0  0  0
  9 11  1  0  0  0  0
 10  5  2  0  0  0  0
 12  7  1  1  0  0  0
 12  3  1  0  0  0  0
 14 18  1  0  0  0  0
 15 14  2  0  0  0  0
 16 15  1  0  0  0  0
 16 21  2  0  0  0  0
 17 13  1  1  0  0  0
 17 22  1  0  0  0  0
 19 18  2  0  0  0  0
 20 17  1  0  0  0  0
 20 16  1  0  0  0  0
 21 19  1  0  0  0  0
 22 21  1  0  0  0  0
 23 24  1  1  0  0  0
 23 25  1  0  0  0  0
 26 25  1  0  0  0  0
 28 27  1  6  0  0  0
 28 26  1  0  0  0  0
 29 28  1  0  0  0  0
 30 31  1  0  0  0  0
 31 33  1  0  0  0  0
 32 31  2  0  0  0  0
 33 29  1  0  0  0  0
M  END
>  <MODEL>
7

>  <REMARK>
 VINA RESULT:      -8.6      4.849      8.246
  Name = 
  7 active torsions:
  status: ('A' for Active; 'I' for Inactive)
    1  A    between atoms: C_3  and  C_19
    2  A    between atoms: C_5  and  C_8
    3  A    between atoms: C_5  and  C_21
    4  A    between atoms: C_16  and  N_26
    5  A    between atoms: C_16  and  C_33
    6  A    between atoms: C_21  and  C_30
    7  A    between atoms: C_30  and  C_33
                            x       y       z     vdW  Elec       q    Type
                         _______ _______ _______ _____ _____    ______ ____

>  <TORSDO>
F 7

$$$$
=
 OpenBabel10222418523D

 33 36  0  0  1  0  0  0  0  0999 V2000
  185.6820  178.5450  141.9860 C   0  0  0  0  0  0  0  0  0  0  0  0
  183.3670  178.4190  142.9940 C   0  0  1  0  0  3  0  0  0  0  0  0
  181.1530  179.0580  142.3650 C   0  0  1  0  0  3  0  0  0  0  0  0
  185.4800  179.0570  140.6650 N   0  0  0  0  0  2  0  0  0  0  0  0
  184.2160  179.3780  140.0740 C   0  0  0  0  0  0  0  0  0  0  0  0
  186.6650  177.7810  142.1880 O   0  0  0  0  0  0  0  0  0  0  0  0
  182.9470  178.7480  140.5440 C   0  0  0  0  0  2  0  0  0  0  0  0
  184.7950  178.9650  143.1390 C   0  0  1  0  0  3  0  0  0  0  0  0
  182.5130  178.6280  144.2340 C   0  0  0  0  0  2  0  0  0  0  0  0
  184.1800  180.1510  139.0830 O   0  0  0  0  0  0  0  0  0  0  0  0
  181.1300  178.8380  143.8100 N   0  0  0  0  0  2  0  0  0  0  0  0
  182.6150  179.2020  141.9550 C   0  0  2  0  0  3  0  0  0  0  0  0
  189.7290  177.9270  148.1280 C   0  0  0  0  0  1  0  0  0  0  0  0
  185.4170  178.6680  144.4790 C   0  0  0  0  0  0  0  0  0  0  0  0
  186.6740  178.0410  144.5230 C   0  0  0  0  0  3  0  0  0  0  0  0
  187.2350  177.7680  145.7700 C   0  0  0  0  0  0  0  0  0  0  0  0
  188.5520  177.1180  147.6220 C   0  0  2  0  0  3  0  0  0  0  0  0
  184.7540  179.0030  145.6840 C   0  0  0  0  0  3  0  0  0  0  0  0
  185.3430  178.7150  146.9250 C   0  0  0  0  0  3  0  0  0  0  0  0
  188.5380  177.1280  146.0770 C   0  0  0  0  0  2  0  0  0  0  0  0
  186.5910  178.0960  146.9270 C   0  0  0  0  0  0  0  0  0  0  0  0
  187.3310  177.7360  148.0300 O   0  0  0  0  0  0  0  0  0  0  0  0
  180.4020  177.9320  141.6410 C   0  0  1  0  0  3  0  0  0  0  0  0
  179.7310  177.1090  142.5520 O   0  0  0  0  0  1  0  0  0  0  0  0
  179.4190  178.5120  140.6350 C   0  0  0  0  0  2  0  0  0  0  0  0
  179.4750  180.0330  140.6220 C   0  0  0  0  0  2  0  0  0  0  0  0
  180.9070  181.3050  139.0930 N   0  0  0  0  0  1  0  0  0  0  0  0
  179.6580  180.5670  139.2060 C   0  0  1  0  0  3  0  0  0  0  0  0
  179.6260  179.4320  138.1910 C   0  0  0  0  0  2  0  0  0  0  0  0
  180.9500  176.9450  137.8100 O   0  0  0  0  0  1  0  0  0  0  0  0
  181.5300  177.9820  137.3950 C   0  0  0  0  0  0  0  0  0  0  0  0
  182.7690  177.8780  136.7800 O   0  0  0  0  0  0  0  0  0  0  0  0
  180.9240  179.2650  137.5520 N   0  0  0  0  0  2  0  0  0  0  0  0
  1  6  2  0  0  0  0
  1  8  1  0  0  0  0
  2  8  1  0  0  0  0
  2  9  1  1  0  0  0
  3 23  1  6  0  0  0
  3 11  1  0  0  0  0
  4  1  1  0  0  0  0
  5  7  1  0  0  0  0
  5  4  1  0  0  0  0
  8 14  1  1  0  0  0
 10  5  2  0  0  0  0
 11  9  1  0  0  0  0
 12  7  1  6  0  0  0
 12  3  1  0  0  0  0
 12  2  1  0  0  0  0
 14 15  2  0  0  0  0
 14 18  1  0  0  0  0
 15 16  1  0  0  0  0
 16 20  1  0  0  0  0
 16 21  2  0  0  0  0
 17 22  1  0  0  0  0
 17 13  1  1  0  0  0
 18 19  2  0  0  0  0
 19 21  1  0  0  0  0
 20 17  1  0  0  0  0
 21 22  1  0  0  0  0
 23 24  1  1  0  0  0
 25 23  1  0  0  0  0
 26 25  1  0  0  0  0
 28 27  1  1  0  0  0
 28 26  1  0  0  0  0
 29 28  1  0  0  0  0
 31 33  1  0  0  0  0
 31 30  1  0  0  0  0
 32 31  2  0  0  0  0
 33 29  1  0  0  0  0
M  END
>  <MODEL>
8

>  <REMARK>
 VINA RESULT:      -8.5      6.011      9.037
  Name = 
  7 active torsions:
  status: ('A' for Active; 'I' for Inactive)
    1  A    between atoms: C_3  and  C_19
    2  A    between atoms: C_5  and  C_8
    3  A    between atoms: C_5  and  C_21
    4  A    between atoms: C_16  and  N_26
    5  A    between atoms: C_16  and  C_33
    6  A    between atoms: C_21  and  C_30
    7  A    between atoms: C_30  and  C_33
                            x       y       z     vdW  Elec       q    Type
                         _______ _______ _______ _____ _____    ______ ____

>  <TORSDO>
F 7

$$$$
=
 OpenBabel10222418523D

 33 36  0  0  1  0  0  0  0  0999 V2000
  190.9510  177.9180  143.8710 C   0  0  0  0  0  0  0  0  0  0  0  0
  188.4300  177.7360  143.8530 C   0  0  1  0  0  3  0  0  0  0  0  0
  186.7220  177.0060  145.3540 C   0  0  1  0  0  3  0  0  0  0  0  0
  191.3350  177.5580  145.2020 N   0  0  0  0  0  2  0  0  0  0  0  0
  190.4450  177.2130  146.2680 C   0  0  0  0  0  0  0  0  0  0  0  0
  191.6810  178.7270  143.2360 O   0  0  0  0  0  0  0  0  0  0  0  0
  189.0260  177.6780  146.2880 C   0  0  0  0  0  2  0  0  0  0  0  0
  189.7470  177.2910  143.2010 C   0  0  1  0  0  3  0  0  0  0  0  0
  187.1970  177.3090  143.0720 C   0  0  0  0  0  2  0  0  0  0  0  0
  190.8850  176.5660  147.2530 O   0  0  0  0  0  0  0  0  0  0  0  0
  186.1190  177.0430  144.0230 N   0  0  0  0  0  2  0  0  0  0  0  0
  188.2350  177.0290  145.1640 C   0  0  2  0  0  3  0  0  0  0  0  0
  190.2690  175.7450  136.2980 C   0  0  0  0  0  1  0  0  0  0  0  0
  189.7650  177.4690  141.7050 C   0  0  0  0  0  0  0  0  0  0  0  0
  190.5890  176.6340  140.9290 C   0  0  0  0  0  3  0  0  0  0  0  0
  190.6000  176.8140  139.5460 C   0  0  0  0  0  0  0  0  0  0  0  0
  190.9420  176.7530  137.2090 C   0  0  2  0  0  3  0  0  0  0  0  0
  188.9780  178.4640  141.0760 C   0  0  0  0  0  3  0  0  0  0  0  0
  189.0110  178.6220  139.6810 C   0  0  0  0  0  3  0  0  0  0  0  0
  191.3690  176.0630  138.5240 C   0  0  0  0  0  2  0  0  0  0  0  0
  189.8370  177.7730  138.9480 C   0  0  0  0  0  0  0  0  0  0  0  0
  190.0060  177.7650  137.5820 O   0  0  0  0  0  0  0  0  0  0  0  0
  186.1760  178.1490  146.2220 C   0  0  1  0  0  3  0  0  0  0  0  0
  186.5230  179.3940  145.6860 O   0  0  0  0  0  1  0  0  0  0  0  0
  184.6650  178.0370  146.3560 C   0  0  0  0  0  2  0  0  0  0  0  0
  183.9590  179.1530  145.5990 C   0  0  0  0  0  2  0  0  0  0  0  0
  181.8690  178.9020  144.3440 N   0  0  0  0  0  1  0  0  0  0  0  0
  183.2980  178.6280  144.3300 C   0  0  1  0  0  3  0  0  0  0  0  0
  183.9370  179.2430  143.0920 C   0  0  0  0  0  2  0  0  0  0  0  0
  185.3060  179.3860  140.6030 O   0  0  0  0  0  1  0  0  0  0  0  0
  184.3040  178.6270  140.6740 C   0  0  0  0  0  0  0  0  0  0  0  0
  183.9110  177.9010  139.5580 O   0  0  0  0  0  0  0  0  0  0  0  0
  183.5690  178.5040  141.8910 N   0  0  0  0  0  2  0  0  0  0  0  0
  1  4  1  0  0  0  0
  2  9  1  6  0  0  0
  2 12  1  0  0  0  0
  3 23  1  1  0  0  0
  4  5  1  0  0  0  0
  5  7  1  0  0  0  0
  5 10  2  0  0  0  0
  6  1  2  0  0  0  0
  8 14  1  6  0  0  0
  8  2  1  0  0  0  0
  8  1  1  0  0  0  0
  9 11  1  0  0  0  0
 11  3  1  0  0  0  0
 12  3  1  0  0  0  0
 12  7  1  1  0  0  0
 15 14  2  0  0  0  0
 16 15  1  0  0  0  0
 17 13  1  6  0  0  0
 17 22  1  0  0  0  0
 17 20  1  0  0  0  0
 18 14  1  0  0  0  0
 19 18  2  0  0  0  0
 20 16  1  0  0  0  0
 21 16  2  0  0  0  0
 21 19  1  0  0  0  0
 22 21  1  0  0  0  0
 23 24  1  6  0  0  0
 23 25  1  0  0  0  0
 26 25  1  0  0  0  0
 28 27  1  1  0  0  0
 28 26  1  0  0  0  0
 29 28  1  0  0  0  0
 30 31  1  0  0  0  0
 31 33  1  0  0  0  0
 32 31  2  0  0  0  0
 33 29  1  0  0  0  0
M  END
>  <MODEL>
9

>  <REMARK>
 VINA RESULT:      -8.5      3.693      9.228
  Name = 
  7 active torsions:
  status: ('A' for Active; 'I' for Inactive)
    1  A    between atoms: C_3  and  C_19
    2  A    between atoms: C_5  and  C_8
    3  A    between atoms: C_5  and  C_21
    4  A    between atoms: C_16  and  N_26
    5  A    between atoms: C_16  and  C_33
    6  A    between atoms: C_21  and  C_30
    7  A    between atoms: C_30  and  C_33
                            x       y       z     vdW  Elec       q    Type
                         _______ _______ _______ _____ _____    ______ ____

>  <TORSDO>
F 7

$$$$
