=
 OpenBabel10222418203D

 34 38  0  0  1  0  0  0  0  0999 V2000
  190.6260  177.8890  148.1570 N   0  0  0  0  0  0  0  0  0  0  0  0
  191.6950  176.7550  146.3820 N   0  0  0  0  0  2  0  0  0  0  0  0
  188.0720  177.1720  148.0710 S   0  0  0  0  0  0  0  0  0  0  0  0
  190.6170  177.3440  141.9310 C   0  0  0  0  0  0  0  0  0  0  0  0
  190.5330  177.1570  147.1020 C   0  0  0  0  0  0  0  0  0  0  0  0
  189.3690  178.2300  148.7920 C   0  0  0  0  0  2  0  0  0  0  0  0
  190.8610  176.5960  144.1080 C   0  0  0  0  0  0  0  0  0  0  0  0
  189.6160  177.2390  144.2140 C   0  0  0  0  0  0  0  0  0  0  0  0
  191.5730  175.8900  145.2180 C   0  0  0  0  0  2  0  0  0  0  0  0
  189.1730  176.7390  146.6740 C   0  0  2  0  0  3  0  0  0  0  0  0
  189.2300  177.8950  142.7070 S   0  0  0  0  0  0  0  0  0  0  0  0
  191.4190  176.6510  142.8230 C   0  0  0  0  0  3  0  0  0  0  0  0
  188.8070  177.3960  145.4050 N   0  0  0  0  0  0  0  0  0  0  0  0
  190.9500  177.5720  140.5620 N   0  0  0  0  0  2  0  0  0  0  0  0
  190.6440  176.5990  139.5270 C   0  0  0  0  0  2  0  0  0  0  0  0
  188.3950  177.0190  138.0270 C   0  0  1  0  0  3  0  0  0  0  0  0
  190.6430  177.2900  138.1580 C   0  0  2  0  0  3  0  0  0  0  0  0
  187.9210  175.6340  136.0470 C   0  0  0  0  0  1  0  0  0  0  0  0
  188.6570  175.7820  137.3010 N   0  0  0  0  0  0  0  0  0  0  0  0
  189.5730  176.9420  137.1050 C   0  0  1  0  0  0  0  0  0  0  0  0
  190.8410  176.3030  137.2330 O   0  0  0  0  0  0  0  0  0  0  0  0
  185.9400  177.4690  137.5710 N   0  0  0  0  0  1  0  0  0  0  0  0
  187.5620  179.0170  136.9700 O   0  0  0  0  0  0  0  0  0  0  0  0
  187.2970  177.8910  137.4700 C   0  0  0  0  0  0  0  0  0  0  0  0
  187.5970  178.2120  145.3150 C   0  0  0  0  0  2  0  0  0  0  0  0
  186.5370  177.4890  144.4980 C   0  0  0  0  0  2  0  0  0  0  0  0
  185.5000  178.4800  143.9910 C   0  0  0  0  0  2  0  0  0  0  0  0
  184.7040  177.8910  142.8330 C   0  0  0  0  0  2  0  0  0  0  0  0
  184.7030  178.8110  141.6600 C   0  0  0  0  0  0  0  0  0  0  0  0
  182.4690  179.2320  138.5290 C   0  0  0  0  0  1  0  0  0  0  0  0
  185.5830  179.7080  141.5650 O   0  0  0  0  0  0  0  0  0  0  0  0
  183.6940  178.6620  140.6560 N   0  0  0  0  0  2  0  0  0  0  0  0
  183.6300  179.4130  139.4390 C   0  0  0  0  0  0  0  0  0  0  0  0
  184.5490  180.2130  139.1190 O   0  0  0  0  0  0  0  0  0  0  0  0
  1  6  1  0  0  0  0
  2  5  1  0  0  0  0
  3  6  1  0  0  0  0
  4 11  1  0  0  0  0
  4 12  2  0  0  0  0
  5  1  2  0  0  0  0
  7  8  2  0  0  0  0
  7  9  1  0  0  0  0
  8 13  1  0  0  0  0
  9  2  1  0  0  0  0
 10  5  1  1  0  0  0
 10  3  1  0  0  0  0
 11  8  1  0  0  0  0
 12  7  1  0  0  0  0
 13 10  1  0  0  0  0
 14  4  1  0  0  0  0
 15 14  1  0  0  0  0
 16 24  1  6  0  0  0
 17 15  1  1  0  0  0
 18 19  1  0  0  0  0
 19 16  1  0  0  0  0
 20 21  1  6  0  0  0
 20 19  1  0  0  0  0
 20 16  1  0  0  0  0
 20 17  1  0  0  0  0
 21 17  1  0  0  0  0
 23 24  2  0  0  0  0
 24 22  1  0  0  0  0
 25 13  1  0  0  0  0
 26 25  1  0  0  0  0
 27 26  1  0  0  0  0
 28 27  1  0  0  0  0
 29 28  1  0  0  0  0
 30 33  1  0  0  0  0
 31 29  2  0  0  0  0
 32 29  1  0  0  0  0
 33 32  1  0  0  0  0
 34 33  2  0  0  0  0
M  END
>  <MODEL>
1

>  <REMARK>
 VINA RESULT:      -7.8      0.000      0.000
  Name = 
  9 active torsions:
  status: ('A' for Active; 'I' for Inactive)
    1  A    between atoms: C_1  and  C_9
    2  A    between atoms: C_1  and  N_13
    3  A    between atoms: C_2  and  C_10
    4  A    between atoms: C_5  and  C_12
    5  A    between atoms: C_5  and  C_30
    6  A    between atoms: C_7  and  N_13
    7  A    between atoms: C_8  and  C_34
    8  A    between atoms: C_10  and  C_12
    9  A    between atoms: C_30  and  N_32
                            x       y       z     vdW  Elec       q    Type
                         _______ _______ _______ _____ _____    ______ ____

>  <TORSDO>
F 9

$$$$
=
 OpenBabel10222418203D

 34 38  0  0  1  0  0  0  0  0999 V2000
  190.4620  178.0880  148.2990 N   0  0  0  0  0  0  0  0  0  0  0  0
  191.6990  176.9140  146.6650 N   0  0  0  0  0  2  0  0  0  0  0  0
  187.9570  177.2330  148.0980 S   0  0  0  0  0  0  0  0  0  0  0  0
  190.8850  177.1960  142.1290 C   0  0  0  0  0  0  0  0  0  0  0  0
  190.4740  177.2940  147.2860 C   0  0  0  0  0  0  0  0  0  0  0  0
  189.1510  178.3970  148.8340 C   0  0  0  0  0  2  0  0  0  0  0  0
  191.0240  176.5850  144.3570 C   0  0  0  0  0  0  0  0  0  0  0  0
  189.7440  177.1660  144.3470 C   0  0  0  0  0  0  0  0  0  0  0  0
  191.6950  175.9800  145.5490 C   0  0  0  0  0  2  0  0  0  0  0  0
  189.1670  176.7820  146.8000 C   0  0  2  0  0  3  0  0  0  0  0  0
  189.4260  177.7160  142.7830 S   0  0  0  0  0  0  0  0  0  0  0  0
  191.6600  176.5970  143.1080 C   0  0  0  0  0  3  0  0  0  0  0  0
  188.8520  177.3470  145.4740 N   0  0  0  0  0  0  0  0  0  0  0  0
  191.2950  177.3640  140.7710 N   0  0  0  0  0  2  0  0  0  0  0  0
  190.6290  176.6760  139.6800 C   0  0  0  0  0  2  0  0  0  0  0  0
  188.4380  177.2160  138.1340 C   0  0  1  0  0  3  0  0  0  0  0  0
  190.6610  177.5560  138.4230 C   0  0  2  0  0  3  0  0  0  0  0  0
  188.1240  176.1110  135.9560 C   0  0  0  0  0  1  0  0  0  0  0  0
  188.7920  176.1060  137.2560 N   0  0  0  0  0  0  0  0  0  0  0  0
  189.6600  177.3190  137.2760 C   0  0  1  0  0  0  0  0  0  0  0  0
  190.9490  176.7210  137.3800 O   0  0  0  0  0  0  0  0  0  0  0  0
  185.9710  177.7780  137.9330 N   0  0  0  0  0  1  0  0  0  0  0  0
  187.5870  179.1870  137.0420 O   0  0  0  0  0  0  0  0  0  0  0  0
  187.3260  178.1130  137.6470 C   0  0  0  0  0  0  0  0  0  0  0  0
  187.6120  178.0910  145.2610 C   0  0  0  0  0  2  0  0  0  0  0  0
  186.5610  177.1890  144.6340 C   0  0  0  0  0  2  0  0  0  0  0  0
  185.7120  177.9800  143.6490 C   0  0  0  0  0  2  0  0  0  0  0  0
  184.6040  178.7370  144.3690 C   0  0  0  0  0  2  0  0  0  0  0  0
  183.3700  178.8070  143.5350 C   0  0  0  0  0  0  0  0  0  0  0  0
  179.5730  178.7970  144.2780 C   0  0  0  0  0  1  0  0  0  0  0  0
  183.4650  178.9030  142.2820 O   0  0  0  0  0  0  0  0  0  0  0  0
  182.0910  178.7660  144.1750 N   0  0  0  0  0  2  0  0  0  0  0  0
  180.8330  178.7320  143.4920 C   0  0  0  0  0  0  0  0  0  0  0  0
  180.7760  178.6330  142.2380 O   0  0  0  0  0  0  0  0  0  0  0  0
  1  6  1  0  0  0  0
  2  5  1  0  0  0  0
  3  6  1  0  0  0  0
  4 11  1  0  0  0  0
  4 12  2  0  0  0  0
  5  1  2  0  0  0  0
  7  9  1  0  0  0  0
  8  7  2  0  0  0  0
  8 13  1  0  0  0  0
  9  2  1  0  0  0  0
 10  5  1  1  0  0  0
 10  3  1  0  0  0  0
 11  8  1  0  0  0  0
 12  7  1  0  0  0  0
 13 10  1  0  0  0  0
 14  4  1  0  0  0  0
 15 14  1  0  0  0  0
 16 24  1  6  0  0  0
 17 15  1  1  0  0  0
 18 19  1  0  0  0  0
 19 20  1  0  0  0  0
 19 16  1  0  0  0  0
 20 21  1  6  0  0  0
 20 16  1  0  0  0  0
 20 17  1  0  0  0  0
 21 17  1  0  0  0  0
 23 24  2  0  0  0  0
 24 22  1  0  0  0  0
 25 13  1  0  0  0  0
 26 25  1  0  0  0  0
 27 28  1  0  0  0  0
 27 26  1  0  0  0  0
 29 32  1  0  0  0  0
 29 28  1  0  0  0  0
 31 29  2  0  0  0  0
 33 32  1  0  0  0  0
 33 30  1  0  0  0  0
 34 33  2  0  0  0  0
M  END
>  <MODEL>
2

>  <REMARK>
 VINA RESULT:      -7.7      1.697      1.916
  Name = 
  9 active torsions:
  status: ('A' for Active; 'I' for Inactive)
    1  A    between atoms: C_1  and  C_9
    2  A    between atoms: C_1  and  N_13
    3  A    between atoms: C_2  and  C_10
    4  A    between atoms: C_5  and  C_12
    5  A    between atoms: C_5  and  C_30
    6  A    between atoms: C_7  and  N_13
    7  A    between atoms: C_8  and  C_34
    8  A    between atoms: C_10  and  C_12
    9  A    between atoms: C_30  and  N_32
                            x       y       z     vdW  Elec       q    Type
                         _______ _______ _______ _____ _____    ______ ____

>  <TORSDO>
F 9

$$$$
=
 OpenBabel10222418203D

 34 38  0  0  1  0  0  0  0  0999 V2000
  190.4840  177.9270  148.3380 N   0  0  0  0  0  0  0  0  0  0  0  0
  191.7030  176.8030  146.6550 N   0  0  0  0  0  2  0  0  0  0  0  0
  187.9460  177.2150  148.0250 S   0  0  0  0  0  0  0  0  0  0  0  0
  191.0180  177.4250  142.1320 C   0  0  0  0  0  0  0  0  0  0  0  0
  190.4820  177.2020  147.2750 C   0  0  0  0  0  0  0  0  0  0  0  0
  189.1760  178.2660  148.8630 C   0  0  0  0  0  2  0  0  0  0  0  0
  191.0710  176.6620  144.3170 C   0  0  0  0  0  0  0  0  0  0  0  0
  189.8210  177.3060  144.3180 C   0  0  0  0  0  0  0  0  0  0  0  0
  191.6820  175.9470  145.4800 C   0  0  0  0  0  2  0  0  0  0  0  0
  189.1650  176.7900  146.7260 C   0  0  2  0  0  3  0  0  0  0  0  0
  189.5700  177.9730  142.7880 S   0  0  0  0  0  0  0  0  0  0  0  0
  191.7390  176.7250  143.0850 C   0  0  0  0  0  3  0  0  0  0  0  0
  188.9120  177.4560  145.4340 N   0  0  0  0  0  0  0  0  0  0  0  0
  191.4700  177.6620  140.7980 N   0  0  0  0  0  2  0  0  0  0  0  0
  190.9420  176.9180  139.6680 C   0  0  0  0  0  2  0  0  0  0  0  0
  189.4430  176.1000  137.5320 C   0  0  1  0  0  3  0  0  0  0  0  0
  189.4530  177.2430  139.4910 C   0  0  2  0  0  3  0  0  0  0  0  0
  188.8210  177.6770  135.7470 C   0  0  0  0  0  1  0  0  0  0  0  0
  189.7060  177.3720  136.8690 N   0  0  0  0  0  0  0  0  0  0  0  0
  188.8390  177.3540  138.0820 C   0  0  1  0  0  0  0  0  0  0  0  0
  189.3990  178.4350  138.8240 O   0  0  0  0  0  0  0  0  0  0  0  0
  188.8010  174.3330  135.8280 N   0  0  0  0  0  1  0  0  0  0  0  0
  187.2200  175.2050  137.2870 O   0  0  0  0  0  0  0  0  0  0  0  0
  188.4110  175.2150  136.8760 C   0  0  0  0  0  0  0  0  0  0  0  0
  187.7150  178.2750  145.2450 C   0  0  0  0  0  2  0  0  0  0  0  0
  186.6820  177.5120  144.4310 C   0  0  0  0  0  2  0  0  0  0  0  0
  185.6530  178.4730  143.8550 C   0  0  0  0  0  2  0  0  0  0  0  0
  184.9250  177.8500  142.6720 C   0  0  0  0  0  2  0  0  0  0  0  0
  184.8560  178.7970  141.5230 C   0  0  0  0  0  0  0  0  0  0  0  0
  182.4280  179.3140  138.5560 C   0  0  0  0  0  1  0  0  0  0  0  0
  185.7380  179.6890  141.3920 O   0  0  0  0  0  0  0  0  0  0  0  0
  183.7830  178.6810  140.5840 N   0  0  0  0  0  2  0  0  0  0  0  0
  183.6480  179.4620  139.3920 C   0  0  0  0  0  0  0  0  0  0  0  0
  184.5520  180.2620  139.0320 O   0  0  0  0  0  0  0  0  0  0  0  0
  1  6  1  0  0  0  0
  2  5  1  0  0  0  0
  3  6  1  0  0  0  0
  4 11  1  0  0  0  0
  4 12  2  0  0  0  0
  5  1  2  0  0  0  0
  7  8  2  0  0  0  0
  7  9  1  0  0  0  0
  8 13  1  0  0  0  0
  9  2  1  0  0  0  0
 10  5  1  1  0  0  0
 10  3  1  0  0  0  0
 11  8  1  0  0  0  0
 12  7  1  0  0  0  0
 13 10  1  0  0  0  0
 14  4  1  0  0  0  0
 15 14  1  0  0  0  0
 16 24  1  6  0  0  0
 16 20  1  0  0  0  0
 17 15  1  6  0  0  0
 18 19  1  0  0  0  0
 19 16  1  0  0  0  0
 19 20  1  0  0  0  0
 20 21  1  6  0  0  0
 20 17  1  0  0  0  0
 21 17  1  0  0  0  0
 22 24  1  0  0  0  0
 24 23  2  0  0  0  0
 25 13  1  0  0  0  0
 26 25  1  0  0  0  0
 27 26  1  0  0  0  0
 28 27  1  0  0  0  0
 29 28  1  0  0  0  0
 30 33  1  0  0  0  0
 31 29  2  0  0  0  0
 32 29  1  0  0  0  0
 33 32  1  0  0  0  0
 34 33  2  0  0  0  0
M  END
>  <MODEL>
3

>  <REMARK>
 VINA RESULT:      -7.7      1.144      1.450
  Name = 
  9 active torsions:
  status: ('A' for Active; 'I' for Inactive)
    1  A    between atoms: C_1  and  C_9
    2  A    between atoms: C_1  and  N_13
    3  A    between atoms: C_2  and  C_10
    4  A    between atoms: C_5  and  C_12
    5  A    between atoms: C_5  and  C_30
    6  A    between atoms: C_7  and  N_13
    7  A    between atoms: C_8  and  C_34
    8  A    between atoms: C_10  and  C_12
    9  A    between atoms: C_30  and  N_32
                            x       y       z     vdW  Elec       q    Type
                         _______ _______ _______ _____ _____    ______ ____

>  <TORSDO>
F 9

$$$$
=
 OpenBabel10222418203D

 34 38  0  0  1  0  0  0  0  0999 V2000
  189.9930  176.2730  147.0810 N   0  0  0  0  0  0  0  0  0  0  0  0
  188.0470  177.3980  147.8050 N   0  0  0  0  0  2  0  0  0  0  0  0
  191.1230  177.8330  145.2550 S   0  0  0  0  0  0  0  0  0  0  0  0
  184.5080  178.4590  145.0360 C   0  0  0  0  0  0  0  0  0  0  0  0
  189.1670  177.2490  146.9360 C   0  0  0  0  0  0  0  0  0  0  0  0
  191.0850  176.2350  146.1290 C   0  0  0  0  0  2  0  0  0  0  0  0
  186.4090  178.4510  146.3570 C   0  0  0  0  0  0  0  0  0  0  0  0
  186.9960  178.2830  145.0900 C   0  0  0  0  0  0  0  0  0  0  0  0
  187.1490  178.5330  147.6540 C   0  0  0  0  0  2  0  0  0  0  0  0
  189.4310  178.2160  145.8400 C   0  0  2  0  0  3  0  0  0  0  0  0
  185.7620  178.2400  143.9380 S   0  0  0  0  0  0  0  0  0  0  0  0
  185.0110  178.5570  146.3230 C   0  0  0  0  0  3  0  0  0  0  0  0
  188.4010  178.1010  144.7900 N   0  0  0  0  0  0  0  0  0  0  0  0
  183.1180  178.5120  144.7120 N   0  0  0  0  0  2  0  0  0  0  0  0
  182.6520  178.9450  143.4060 C   0  0  0  0  0  2  0  0  0  0  0  0
  181.1550  178.1520  141.2590 C   0  0  1  0  0  3  0  0  0  0  0  0
  181.1190  178.9450  143.3840 C   0  0  2  0  0  3  0  0  0  0  0  0
  180.0330  179.8060  139.8210 C   0  0  0  0  0  1  0  0  0  0  0  0
  181.0720  179.5380  140.8140 N   0  0  0  0  0  0  0  0  0  0  0  0
  180.3550  179.1340  142.0580 C   0  0  1  0  0  0  0  0  0  0  0  0
  180.7440  180.1830  142.9410 O   0  0  0  0  0  0  0  0  0  0  0  0
  179.1760  176.5650  141.2010 N   0  0  0  0  0  1  0  0  0  0  0  0
  180.4670  176.9230  139.3050 O   0  0  0  0  0  0  0  0  0  0  0  0
  180.2750  177.1690  140.5260 C   0  0  0  0  0  0  0  0  0  0  0  0
  188.7810  177.8180  143.4070 C   0  0  0  0  0  2  0  0  0  0  0  0
  188.7860  176.3180  143.1620 C   0  0  0  0  0  2  0  0  0  0  0  0
  190.0700  175.9070  142.4560 C   0  0  0  0  0  2  0  0  0  0  0  0
  190.5460  177.0000  141.5080 C   0  0  0  0  0  2  0  0  0  0  0  0
  190.0690  176.7510  140.1180 C   0  0  0  0  0  0  0  0  0  0  0  0
  187.1090  178.0280  137.9790 C   0  0  0  0  0  1  0  0  0  0  0  0
  190.7090  175.9650  139.3670 O   0  0  0  0  0  0  0  0  0  0  0  0
  188.8890  177.4140  139.6530 N   0  0  0  0  0  2  0  0  0  0  0  0
  188.2730  177.1960  138.3790 C   0  0  0  0  0  0  0  0  0  0  0  0
  188.6930  176.3010  137.5980 O   0  0  0  0  0  0  0  0  0  0  0  0
  3  6  1  0  0  0  0
  4 12  2  0  0  0  0
  5  1  2  0  0  0  0
  5  2  1  0  0  0  0
  6  1  1  0  0  0  0
  7  9  1  0  0  0  0
  8  7  2  0  0  0  0
  9  2  1  0  0  0  0
 10  3  1  6  0  0  0
 10  5  1  0  0  0  0
 11  4  1  0  0  0  0
 11  8  1  0  0  0  0
 12  7  1  0  0  0  0
 13  8  1  0  0  0  0
 13 10  1  0  0  0  0
 14  4  1  0  0  0  0
 15 14  1  0  0  0  0
 16 24  1  6  0  0  0
 16 20  1  0  0  0  0
 17 15  1  6  0  0  0
 18 19  1  0  0  0  0
 19 16  1  0  0  0  0
 19 20  1  0  0  0  0
 20 21  1  6  0  0  0
 20 17  1  0  0  0  0
 21 17  1  0  0  0  0
 23 24  2  0  0  0  0
 24 22  1  0  0  0  0
 25 13  1  0  0  0  0
 26 25  1  0  0  0  0
 27 26  1  0  0  0  0
 28 27  1  0  0  0  0
 29 28  1  0  0  0  0
 30 33  1  0  0  0  0
 31 29  2  0  0  0  0
 32 29  1  0  0  0  0
 33 32  1  0  0  0  0
 34 33  2  0  0  0  0
M  END
>  <MODEL>
4

>  <REMARK>
 VINA RESULT:      -7.5      2.708      6.622
  Name = 
  9 active torsions:
  status: ('A' for Active; 'I' for Inactive)
    1  A    between atoms: C_1  and  C_9
    2  A    between atoms: C_1  and  N_13
    3  A    between atoms: C_2  and  C_10
    4  A    between atoms: C_5  and  C_12
    5  A    between atoms: C_5  and  C_30
    6  A    between atoms: C_7  and  N_13
    7  A    between atoms: C_8  and  C_34
    8  A    between atoms: C_10  and  C_12
    9  A    between atoms: C_30  and  N_32
                            x       y       z     vdW  Elec       q    Type
                         _______ _______ _______ _____ _____    ______ ____

>  <TORSDO>
F 9

$$$$
=
 OpenBabel10222418203D

 34 38  0  0  1  0  0  0  0  0999 V2000
  179.7840  180.7510  141.3260 N   0  0  0  0  0  0  0  0  0  0  0  0
  180.4360  179.7690  143.3730 N   0  0  0  0  0  2  0  0  0  0  0  0
  180.4130  179.0070  139.4270 S   0  0  0  0  0  0  0  0  0  0  0  0
  184.7910  178.6460  144.4180 C   0  0  0  0  0  0  0  0  0  0  0  0
  180.3920  179.8030  141.9490 C   0  0  0  0  0  0  0  0  0  0  0  0
  179.8180  180.6690  139.8800 C   0  0  0  0  0  2  0  0  0  0  0  0
  182.5610  178.6760  143.7960 C   0  0  0  0  0  0  0  0  0  0  0  0
  183.1640  178.7210  142.5270 C   0  0  0  0  0  0  0  0  0  0  0  0
  181.0880  178.6650  144.0600 C   0  0  0  0  0  2  0  0  0  0  0  0
  181.0330  178.7430  141.1290 C   0  0  2  0  0  3  0  0  0  0  0  0
  184.8390  178.7260  142.7390 S   0  0  0  0  0  0  0  0  0  0  0  0
  183.4770  178.6280  144.8570 C   0  0  0  0  0  3  0  0  0  0  0  0
  182.5020  178.8190  141.2430 N   0  0  0  0  0  0  0  0  0  0  0  0
  185.9260  178.6270  145.2820 N   0  0  0  0  0  2  0  0  0  0  0  0
  187.0270  177.7010  145.0810 C   0  0  0  0  0  2  0  0  0  0  0  0
  189.5510  177.8090  144.0320 C   0  0  1  0  0  3  0  0  0  0  0  0
  188.2570  178.1920  145.8560 C   0  0  2  0  0  3  0  0  0  0  0  0
  191.2500  176.1390  144.6550 C   0  0  0  0  0  1  0  0  0  0  0  0
  189.8330  176.4930  144.5950 N   0  0  0  0  0  0  0  0  0  0  0  0
  189.6610  177.6530  145.5170 C   0  0  1  0  0  0  0  0  0  0  0  0
  188.7750  177.0930  146.4840 O   0  0  0  0  0  0  0  0  0  0  0  0
  191.3350  178.0780  142.2480 N   0  0  0  0  0  1  0  0  0  0  0  0
  191.1550  179.6050  143.9870 O   0  0  0  0  0  0  0  0  0  0  0  0
  190.7330  178.5460  143.4510 C   0  0  0  0  0  0  0  0  0  0  0  0
  183.3310  178.9770  140.0490 C   0  0  0  0  0  2  0  0  0  0  0  0
  183.6600  177.6160  139.4570 C   0  0  0  0  0  2  0  0  0  0  0  0
  183.8800  177.7360  137.9560 C   0  0  0  0  0  2  0  0  0  0  0  0
  185.1280  176.9770  137.5250 C   0  0  0  0  0  2  0  0  0  0  0  0
  186.3560  177.7920  137.7430 C   0  0  0  0  0  0  0  0  0  0  0  0
  190.1230  176.9980  138.1300 C   0  0  0  0  0  1  0  0  0  0  0  0
  186.2690  179.0470  137.8270 O   0  0  0  0  0  0  0  0  0  0  0  0
  187.6220  177.1340  137.8510 N   0  0  0  0  0  2  0  0  0  0  0  0
  188.8620  177.7840  138.1510 C   0  0  0  0  0  0  0  0  0  0  0  0
  188.9000  179.0080  138.4460 O   0  0  0  0  0  0  0  0  0  0  0  0
  1  5  2  0  0  0  0
  2  9  1  0  0  0  0
  3  6  1  0  0  0  0
  4 12  2  0  0  0  0
  4 14  1  0  0  0  0
  5  2  1  0  0  0  0
  6  1  1  0  0  0  0
  7  9  1  0  0  0  0
  7 12  1  0  0  0  0
  8 11  1  0  0  0  0
  8  7  2  0  0  0  0
 10  3  1  6  0  0  0
 10 13  1  0  0  0  0
 10  5  1  0  0  0  0
 11  4  1  0  0  0  0
 13  8  1  0  0  0  0
 15 14  1  0  0  0  0
 16 24  1  6  0  0  0
 16 19  1  0  0  0  0
 16 20  1  0  0  0  0
 17 15  1  6  0  0  0
 17 21  1  0  0  0  0
 19 18  1  0  0  0  0
 19 20  1  0  0  0  0
 20 17  1  0  0  0  0
 20 21  1  1  0  0  0
 22 24  1  0  0  0  0
 24 23  2  0  0  0  0
 25 13  1  0  0  0  0
 26 25  1  0  0  0  0
 27 26  1  0  0  0  0
 28 29  1  0  0  0  0
 28 27  1  0  0  0  0
 29 31  2  0  0  0  0
 29 32  1  0  0  0  0
 30 33  1  0  0  0  0
 32 33  1  0  0  0  0
 33 34  2  0  0  0  0
M  END
>  <MODEL>
5

>  <REMARK>
 VINA RESULT:      -7.3      3.181      8.199
  Name = 
  9 active torsions:
  status: ('A' for Active; 'I' for Inactive)
    1  A    between atoms: C_1  and  C_9
    2  A    between atoms: C_1  and  N_13
    3  A    between atoms: C_2  and  C_10
    4  A    between atoms: C_5  and  C_12
    5  A    between atoms: C_5  and  C_30
    6  A    between atoms: C_7  and  N_13
    7  A    between atoms: C_8  and  C_34
    8  A    between atoms: C_10  and  C_12
    9  A    between atoms: C_30  and  N_32
                            x       y       z     vdW  Elec       q    Type
                         _______ _______ _______ _____ _____    ______ ____

>  <TORSDO>
F 9

$$$$
=
 OpenBabel10222418203D

 34 38  0  0  1  0  0  0  0  0999 V2000
  188.5500  176.7560  147.7240 N   0  0  0  0  0  0  0  0  0  0  0  0
  186.7030  178.2200  147.5640 N   0  0  0  0  0  2  0  0  0  0  0  0
  190.2550  177.4950  145.8280 S   0  0  0  0  0  0  0  0  0  0  0  0
  184.0020  178.5560  143.8350 C   0  0  0  0  0  0  0  0  0  0  0  0
  187.9350  177.6880  147.0830 C   0  0  0  0  0  0  0  0  0  0  0  0
  189.7900  176.3030  147.1250 C   0  0  0  0  0  2  0  0  0  0  0  0
  185.5760  178.8440  145.5070 C   0  0  0  0  0  0  0  0  0  0  0  0
  186.3690  178.2020  144.5400 C   0  0  0  0  0  0  0  0  0  0  0  0
  186.0450  179.3040  146.8510 C   0  0  0  0  0  2  0  0  0  0  0  0
  188.5630  178.1950  145.8360 C   0  0  2  0  0  3  0  0  0  0  0  0
  185.3990  177.8690  143.1990 S   0  0  0  0  0  0  0  0  0  0  0  0
  184.2480  179.0470  145.1060 C   0  0  0  0  0  3  0  0  0  0  0  0
  187.7580  177.8120  144.6600 N   0  0  0  0  0  0  0  0  0  0  0  0
  182.7310  178.6090  143.1850 N   0  0  0  0  0  2  0  0  0  0  0  0
  182.6010  178.9680  141.7840 C   0  0  0  0  0  2  0  0  0  0  0  0
  182.4500  177.2170  139.6890 C   0  0  1  0  0  3  0  0  0  0  0  0
  181.2860  178.4060  141.2310 C   0  0  2  0  0  3  0  0  0  0  0  0
  181.7320  177.9740  137.4590 C   0  0  0  0  0  1  0  0  0  0  0  0
  182.2500  178.3370  138.7760 N   0  0  0  0  0  0  0  0  0  0  0  0
  181.1730  177.9950  139.7490 C   0  0  1  0  0  0  0  0  0  0  0  0
  180.8680  179.2860  140.2720 O   0  0  0  0  0  0  0  0  0  0  0  0
  183.2900  175.2400  138.3380 N   0  0  0  0  0  1  0  0  0  0  0  0
  181.1900  175.1970  139.3260 O   0  0  0  0  0  0  0  0  0  0  0  0
  182.2480  175.8420  139.1000 C   0  0  0  0  0  0  0  0  0  0  0  0
  188.3560  177.0410  143.5710 C   0  0  0  0  0  2  0  0  0  0  0  0
  188.9560  177.9770  142.5350 C   0  0  0  0  0  2  0  0  0  0  0  0
  189.0620  177.2720  141.1910 C   0  0  0  0  0  2  0  0  0  0  0  0
  188.9570  178.2670  140.0430 C   0  0  0  0  0  2  0  0  0  0  0  0
  187.6510  178.1350  139.3340 C   0  0  0  0  0  0  0  0  0  0  0  0
  186.4850  176.4250  136.0660 C   0  0  0  0  0  1  0  0  0  0  0  0
  186.6140  178.6520  139.8290 O   0  0  0  0  0  0  0  0  0  0  0  0
  187.5960  177.4140  138.0990 N   0  0  0  0  0  2  0  0  0  0  0  0
  186.4340  177.2890  137.2730 C   0  0  0  0  0  0  0  0  0  0  0  0
  185.3730  177.9120  137.5450 O   0  0  0  0  0  0  0  0  0  0  0  0
  3  6  1  0  0  0  0
  4 12  2  0  0  0  0
  5  2  1  0  0  0  0
  5  1  2  0  0  0  0
  6  1  1  0  0  0  0
  7  9  1  0  0  0  0
  8 13  1  0  0  0  0
  8  7  2  0  0  0  0
  9  2  1  0  0  0  0
 10  3  1  6  0  0  0
 10  5  1  0  0  0  0
 11  4  1  0  0  0  0
 11  8  1  0  0  0  0
 12  7  1  0  0  0  0
 13 10  1  0  0  0  0
 14  4  1  0  0  0  0
 15 14  1  0  0  0  0
 16 24  1  6  0  0  0
 16 20  1  0  0  0  0
 17 15  1  6  0  0  0
 18 19  1  0  0  0  0
 19 16  1  0  0  0  0
 19 20  1  0  0  0  0
 20 21  1  6  0  0  0
 20 17  1  0  0  0  0
 21 17  1  0  0  0  0
 22 24  1  0  0  0  0
 24 23  2  0  0  0  0
 25 13  1  0  0  0  0
 26 25  1  0  0  0  0
 27 26  1  0  0  0  0
 28 27  1  0  0  0  0
 29 31  2  0  0  0  0
 29 28  1  0  0  0  0
 30 33  1  0  0  0  0
 32 29  1  0  0  0  0
 33 34  2  0  0  0  0
 33 32  1  0  0  0  0
M  END
>  <MODEL>
6

>  <REMARK>
 VINA RESULT:      -7.2      2.509      5.757
  Name = 
  9 active torsions:
  status: ('A' for Active; 'I' for Inactive)
    1  A    between atoms: C_1  and  C_9
    2  A    between atoms: C_1  and  N_13
    3  A    between atoms: C_2  and  C_10
    4  A    between atoms: C_5  and  C_12
    5  A    between atoms: C_5  and  C_30
    6  A    between atoms: C_7  and  N_13
    7  A    between atoms: C_8  and  C_34
    8  A    between atoms: C_10  and  C_12
    9  A    between atoms: C_30  and  N_32
                            x       y       z     vdW  Elec       q    Type
                         _______ _______ _______ _____ _____    ______ ____

>  <TORSDO>
F 9

$$$$
=
 OpenBabel10222418203D

 34 38  0  0  1  0  0  0  0  0999 V2000
  179.6780  177.6560  142.1850 N   0  0  0  0  0  0  0  0  0  0  0  0
  180.4660  178.5830  140.1600 N   0  0  0  0  0  2  0  0  0  0  0  0
  180.7220  179.1240  144.1350 S   0  0  0  0  0  0  0  0  0  0  0  0
  184.9280  178.8040  138.9960 C   0  0  0  0  0  0  0  0  0  0  0  0
  180.4570  178.4840  141.5820 C   0  0  0  0  0  0  0  0  0  0  0  0
  179.7710  177.6530  143.6310 C   0  0  0  0  0  2  0  0  0  0  0  0
  182.7630  179.2180  139.7030 C   0  0  0  0  0  0  0  0  0  0  0  0
  183.3790  178.9790  140.9440 C   0  0  0  0  0  0  0  0  0  0  0  0
  181.3210  179.5570  139.4980 C   0  0  0  0  0  2  0  0  0  0  0  0
  181.3350  179.3390  142.4220 C   0  0  2  0  0  3  0  0  0  0  0  0
  185.0070  178.6280  140.6660 S   0  0  0  0  0  0  0  0  0  0  0  0
  183.6370  179.1250  138.6100 C   0  0  0  0  0  3  0  0  0  0  0  0
  182.7490  178.9570  142.2470 N   0  0  0  0  0  0  0  0  0  0  0  0
  186.0160  178.6250  138.0880 N   0  0  0  0  0  2  0  0  0  0  0  0
  187.1410  177.7610  138.4020 C   0  0  0  0  0  2  0  0  0  0  0  0
  189.6100  176.6010  138.5980 C   0  0  1  0  0  3  0  0  0  0  0  0
  188.4470  178.4520  137.9910 C   0  0  2  0  0  3  0  0  0  0  0  0
  191.1720  177.2510  140.3880 C   0  0  0  0  0  1  0  0  0  0  0  0
  189.7940  177.2290  139.9020 N   0  0  0  0  0  0  0  0  0  0  0  0
  189.7760  178.0870  138.6820 C   0  0  1  0  0  0  0  0  0  0  0  0
  188.8890  179.1220  139.0970 O   0  0  0  0  0  0  0  0  0  0  0  0
  190.8920  174.5050  137.9660 N   0  0  0  0  0  1  0  0  0  0  0  0
  191.7600  176.6100  137.5130 O   0  0  0  0  0  0  0  0  0  0  0  0
  190.8270  175.9270  138.0130 C   0  0  0  0  0  0  0  0  0  0  0  0
  183.5590  178.5630  143.3990 C   0  0  0  0  0  2  0  0  0  0  0  0
  184.3540  179.7540  143.9110 C   0  0  0  0  0  2  0  0  0  0  0  0
  185.1800  179.3500  145.1240 C   0  0  0  0  0  2  0  0  0  0  0  0
  185.8740  178.0140  144.8910 C   0  0  0  0  0  2  0  0  0  0  0  0
  187.0220  177.8350  145.8250 C   0  0  0  0  0  0  0  0  0  0  0  0
  190.8000  177.1230  145.3940 C   0  0  0  0  0  1  0  0  0  0  0  0
  186.8390  177.9270  147.0680 O   0  0  0  0  0  0  0  0  0  0  0  0
  188.3220  177.5650  145.2900 N   0  0  0  0  0  2  0  0  0  0  0  0
  189.4880  177.2830  146.0720 C   0  0  0  0  0  0  0  0  0  0  0  0
  189.4170  177.1540  147.3230 O   0  0  0  0  0  0  0  0  0  0  0  0
  1  6  1  0  0  0  0
  2  5  1  0  0  0  0
  4 11  1  0  0  0  0
  5  1  2  0  0  0  0
  6  3  1  0  0  0  0
  7  8  2  0  0  0  0
  8 13  1  0  0  0  0
  9  7  1  0  0  0  0
  9  2  1  0  0  0  0
 10  5  1  6  0  0  0
 10  3  1  0  0  0  0
 11  8  1  0  0  0  0
 12  4  2  0  0  0  0
 12  7  1  0  0  0  0
 13 10  1  0  0  0  0
 13 25  1  0  0  0  0
 14 15  1  0  0  0  0
 14  4  1  0  0  0  0
 16 24  1  6  0  0  0
 16 20  1  0  0  0  0
 16 19  1  0  0  0  0
 17 15  1  1  0  0  0
 17 20  1  0  0  0  0
 17 21  1  0  0  0  0
 19 18  1  0  0  0  0
 20 21  1  6  0  0  0
 20 19  1  0  0  0  0
 22 24  1  0  0  0  0
 23 24  2  0  0  0  0
 25 26  1  0  0  0  0
 26 27  1  0  0  0  0
 28 27  1  0  0  0  0
 28 29  1  0  0  0  0
 29 31  2  0  0  0  0
 30 33  1  0  0  0  0
 32 29  1  0  0  0  0
 32 33  1  0  0  0  0
 33 34  2  0  0  0  0
M  END
>  <MODEL>
7

>  <REMARK>
 VINA RESULT:      -7.2      3.057      7.408
  Name = 
  9 active torsions:
  status: ('A' for Active; 'I' for Inactive)
    1  A    between atoms: C_1  and  C_9
    2  A    between atoms: C_1  and  N_13
    3  A    between atoms: C_2  and  C_10
    4  A    between atoms: C_5  and  C_12
    5  A    between atoms: C_5  and  C_30
    6  A    between atoms: C_7  and  N_13
    7  A    between atoms: C_8  and  C_34
    8  A    between atoms: C_10  and  C_12
    9  A    between atoms: C_30  and  N_32
                            x       y       z     vdW  Elec       q    Type
                         _______ _______ _______ _____ _____    ______ ____

>  <TORSDO>
F 9

$$$$
=
 OpenBabel10222418203D

 34 38  0  0  1  0  0  0  0  0999 V2000
  180.6840  175.2690  139.1620 N   0  0  0  0  0  0  0  0  0  0  0  0
  182.0050  175.3320  137.2040 N   0  0  0  0  0  2  0  0  0  0  0  0
  180.0500  177.7870  139.7160 S   0  0  0  0  0  0  0  0  0  0  0  0
  186.0710  177.4990  136.9110 C   0  0  0  0  0  0  0  0  0  0  0  0
  181.3240  175.9630  138.2870 C   0  0  0  0  0  0  0  0  0  0  0  0
  180.0410  176.0330  140.2120 C   0  0  0  0  0  2  0  0  0  0  0  0
  183.8500  176.8550  136.8000 C   0  0  0  0  0  0  0  0  0  0  0  0
  183.8060  177.6690  137.9450 C   0  0  0  0  0  0  0  0  0  0  0  0
  182.6850  176.1350  136.1990 C   0  0  0  0  0  2  0  0  0  0  0  0
  181.3170  177.4400  138.4410 C   0  0  2  0  0  3  0  0  0  0  0  0
  185.3630  178.2520  138.2370 S   0  0  0  0  0  0  0  0  0  0  0  0
  185.1220  176.7660  136.2160 C   0  0  0  0  0  3  0  0  0  0  0  0
  182.6630  177.9290  138.7940 N   0  0  0  0  0  0  0  0  0  0  0  0
  187.4510  177.5700  136.5520 N   0  0  0  0  0  2  0  0  0  0  0  0
  188.4850  176.9480  137.3600 C   0  0  0  0  0  2  0  0  0  0  0  0
  189.3940  177.0400  139.9380 C   0  0  1  0  0  3  0  0  0  0  0  0
  189.4350  178.0260  137.8960 C   0  0  2  0  0  3  0  0  0  0  0  0
  188.4830  178.6730  141.5410 C   0  0  0  0  0  1  0  0  0  0  0  0
  188.3100  177.9540  140.2800 N   0  0  0  0  0  0  0  0  0  0  0  0
  189.4010  178.4310  139.3830 C   0  0  1  0  0  0  0  0  0  0  0  0
  188.6420  179.0450  138.3440 O   0  0  0  0  0  0  0  0  0  0  0  0
  190.1910  176.0010  142.1110 N   0  0  0  0  0  1  0  0  0  0  0  0
  191.5870  177.3810  140.8730 O   0  0  0  0  0  0  0  0  0  0  0  0
  190.4530  176.8480  140.9960 C   0  0  0  0  0  0  0  0  0  0  0  0
  182.8710  178.7130  140.0120 C   0  0  0  0  0  2  0  0  0  0  0  0
  183.3970  177.8200  141.1250 C   0  0  0  0  0  2  0  0  0  0  0  0
  183.5810  178.6280  142.4010 C   0  0  0  0  0  2  0  0  0  0  0  0
  184.9920  178.4650  142.9510 C   0  0  0  0  0  2  0  0  0  0  0  0
  185.0280  178.7120  144.4210 C   0  0  0  0  0  0  0  0  0  0  0  0
  187.5110  177.8780  147.2670 C   0  0  0  0  0  1  0  0  0  0  0  0
  184.0850  179.3410  144.9740 O   0  0  0  0  0  0  0  0  0  0  0  0
  186.1390  178.2330  145.1840 N   0  0  0  0  0  2  0  0  0  0  0  0
  186.2560  178.3210  146.6080 C   0  0  0  0  0  0  0  0  0  0  0  0
  185.3060  178.7540  147.3130 O   0  0  0  0  0  0  0  0  0  0  0  0
  1  6  1  0  0  0  0
  2  5  1  0  0  0  0
  3  6  1  0  0  0  0
  4 11  1  0  0  0  0
  5  1  2  0  0  0  0
  7  8  2  0  0  0  0
  8 11  1  0  0  0  0
  8 13  1  0  0  0  0
  9  7  1  0  0  0  0
  9  2  1  0  0  0  0
 10  5  1  1  0  0  0
 10 13  1  0  0  0  0
 10  3  1  0  0  0  0
 12  7  1  0  0  0  0
 12  4  2  0  0  0  0
 13 25  1  0  0  0  0
 14  4  1  0  0  0  0
 14 15  1  0  0  0  0
 16 19  1  0  0  0  0
 16 24  1  1  0  0  0
 17 15  1  1  0  0  0
 17 21  1  0  0  0  0
 17 20  1  0  0  0  0
 19 18  1  0  0  0  0
 20 21  1  1  0  0  0
 20 16  1  0  0  0  0
 20 19  1  0  0  0  0
 23 24  2  0  0  0  0
 24 22  1  0  0  0  0
 25 26  1  0  0  0  0
 26 27  1  0  0  0  0
 27 28  1  0  0  0  0
 28 29  1  0  0  0  0
 29 31  2  0  0  0  0
 29 32  1  0  0  0  0
 32 33  1  0  0  0  0
 33 30  1  0  0  0  0
 33 34  2  0  0  0  0
M  END
>  <MODEL>
8

>  <REMARK>
 VINA RESULT:      -7.1      3.309      7.897
  Name = 
  9 active torsions:
  status: ('A' for Active; 'I' for Inactive)
    1  A    between atoms: C_1  and  C_9
    2  A    between atoms: C_1  and  N_13
    3  A    between atoms: C_2  and  C_10
    4  A    between atoms: C_5  and  C_12
    5  A    between atoms: C_5  and  C_30
    6  A    between atoms: C_7  and  N_13
    7  A    between atoms: C_8  and  C_34
    8  A    between atoms: C_10  and  C_12
    9  A    between atoms: C_30  and  N_32
                            x       y       z     vdW  Elec       q    Type
                         _______ _______ _______ _____ _____    ______ ____

>  <TORSDO>
F 9

$$$$
=
 OpenBabel10222418203D

 34 38  0  0  1  0  0  0  0  0999 V2000
  187.3900  178.8380  137.3290 N   0  0  0  0  0  0  0  0  0  0  0  0
  187.2240  178.6240  139.6760 N   0  0  0  0  0  2  0  0  0  0  0  0
  188.3770  176.5400  136.4370 S   0  0  0  0  0  0  0  0  0  0  0  0
  190.8390  177.9160  142.4580 C   0  0  0  0  0  0  0  0  0  0  0  0
  187.6440  178.1620  138.3940 C   0  0  0  0  0  0  0  0  0  0  0  0
  187.8770  178.2590  136.0930 C   0  0  0  0  0  2  0  0  0  0  0  0
  188.9490  177.7380  141.1340 C   0  0  0  0  0  0  0  0  0  0  0  0
  189.9280  177.3370  140.2090 C   0  0  0  0  0  0  0  0  0  0  0  0
  187.4800  177.8240  140.8640 C   0  0  0  0  0  2  0  0  0  0  0  0
  188.3800  176.8810  138.2370 C   0  0  2  0  0  3  0  0  0  0  0  0
  191.4340  177.4090  140.9700 S   0  0  0  0  0  0  0  0  0  0  0  0
  189.4620  178.0570  142.3990 C   0  0  0  0  0  3  0  0  0  0  0  0
  189.7320  176.9870  138.8180 N   0  0  0  0  0  0  0  0  0  0  0  0
  191.6260  178.1950  143.6170 N   0  0  0  0  0  2  0  0  0  0  0  0
  191.0310  178.3110  144.9370 C   0  0  0  0  0  2  0  0  0  0  0  0
  188.5070  178.1330  145.9750 C   0  0  1  0  0  3  0  0  0  0  0  0
  190.3480  176.9890  145.3090 C   0  0  2  0  0  3  0  0  0  0  0  0
  188.1540  177.6620  148.3660 C   0  0  0  0  0  1  0  0  0  0  0  0
  189.0690  178.1180  147.3210 N   0  0  0  0  0  0  0  0  0  0  0  0
  189.2910  176.9420  146.4300 C   0  0  1  0  0  0  0  0  0  0  0  0
  190.6900  176.7360  146.6080 O   0  0  0  0  0  0  0  0  0  0  0  0
  186.0840  178.7570  146.4030 N   0  0  0  0  0  1  0  0  0  0  0  0
  186.6250  176.8030  145.2710 O   0  0  0  0  0  0  0  0  0  0  0  0
  187.0310  177.8330  145.8730 C   0  0  0  0  0  0  0  0  0  0  0  0
  190.9140  176.7170  137.9990 C   0  0  0  0  0  2  0  0  0  0  0  0
  191.1490  175.2190  137.8970 C   0  0  0  0  0  2  0  0  0  0  0  0
  191.8170  174.8820  136.5720 C   0  0  0  0  0  2  0  0  0  0  0  0
  193.2580  175.3740  136.5470 C   0  0  0  0  0  2  0  0  0  0  0  0
  194.1260  174.5410  137.4280 C   0  0  0  0  0  0  0  0  0  0  0  0
  196.6630  175.2890  140.2520 C   0  0  0  0  0  1  0  0  0  0  0  0
  194.1020  173.2850  137.3250 O   0  0  0  0  0  0  0  0  0  0  0  0
  194.9730  175.1840  138.3850 N   0  0  0  0  0  2  0  0  0  0  0  0
  195.9190  174.5130  139.2260 C   0  0  0  0  0  0  0  0  0  0  0  0
  196.1410  173.2800  139.1000 O   0  0  0  0  0  0  0  0  0  0  0  0
  1  5  2  0  0  0  0
  2  9  1  0  0  0  0
  4 14  1  0  0  0  0
  5  2  1  0  0  0  0
  6  3  1  0  0  0  0
  6  1  1  0  0  0  0
  7 12  1  0  0  0  0
  8 11  1  0  0  0  0
  8  7  2  0  0  0  0
  9  7  1  0  0  0  0
 10  3  1  6  0  0  0
 10  5  1  0  0  0  0
 10 13  1  0  0  0  0
 11  4  1  0  0  0  0
 12  4  2  0  0  0  0
 13  8  1  0  0  0  0
 14 15  1  0  0  0  0
 16 24  1  1  0  0  0
 16 20  1  0  0  0  0
 16 19  1  0  0  0  0
 17 15  1  1  0  0  0
 17 20  1  0  0  0  0
 17 21  1  0  0  0  0
 19 18  1  0  0  0  0
 20 21  1  1  0  0  0
 20 19  1  0  0  0  0
 23 24  2  0  0  0  0
 24 22  1  0  0  0  0
 25 13  1  0  0  0  0
 26 25  1  0  0  0  0
 27 26  1  0  0  0  0
 28 27  1  0  0  0  0
 28 29  1  0  0  0  0
 29 32  1  0  0  0  0
 31 29  2  0  0  0  0
 32 33  1  0  0  0  0
 33 30  1  0  0  0  0
 34 33  2  0  0  0  0
M  END
>  <MODEL>
9

>  <REMARK>
 VINA RESULT:      -7.0      3.458      9.306
  Name = 
  9 active torsions:
  status: ('A' for Active; 'I' for Inactive)
    1  A    between atoms: C_1  and  C_9
    2  A    between atoms: C_1  and  N_13
    3  A    between atoms: C_2  and  C_10
    4  A    between atoms: C_5  and  C_12
    5  A    between atoms: C_5  and  C_30
    6  A    between atoms: C_7  and  N_13
    7  A    between atoms: C_8  and  C_34
    8  A    between atoms: C_10  and  C_12
    9  A    between atoms: C_30  and  N_32
                            x       y       z     vdW  Elec       q    Type
                         _______ _______ _______ _____ _____    ______ ____

>  <TORSDO>
F 9

$$$$
