=
 OpenBabel10222416383D

 30 34  0  0  1  0  0  0  0  0999 V2000
  187.0750  178.0960  141.5170 N   0  0  0  0  0  0  0  0  0  0  0  0
  189.1260  176.8250  144.3150 C   0  0  0  0  0  0  0  0  0  0  0  0
  184.9110  178.4410  144.9980 C   0  0  0  0  0  0  0  0  0  0  0  0
  189.1240  177.0320  145.7280 N   0  0  0  0  0  2  0  0  0  0  0  0
  184.9250  178.6750  142.5570 C   0  0  0  0  0  0  0  0  0  0  0  0
  189.9040  175.9590  143.8380 O   0  0  0  0  0  0  0  0  0  0  0  0
  184.2120  178.5320  146.1960 O   0  0  0  0  0  1  0  0  0  0  0  0
  188.3880  178.0980  146.3860 C   0  0  1  0  0  3  0  0  0  0  0  0
  186.9560  177.8900  146.2370 N   0  0  0  0  0  2  0  0  0  0  0  0
  186.9220  177.9880  143.7570 C   0  0  0  0  0  0  0  0  0  0  0  0
  188.1880  177.5440  143.4210 C   0  0  0  0  0  0  0  0  0  0  0  0
  186.2710  178.0770  144.9970 C   0  0  0  0  0  0  0  0  0  0  0  0
  188.8090  178.1130  148.1490 S   0  0  0  0  0  1  0  0  0  0  0  0
  184.2510  178.7380  143.7910 C   0  0  0  0  0  3  0  0  0  0  0  0
  188.2500  177.6520  142.0230 C   0  0  0  0  0  0  0  0  0  0  0  0
  186.2750  178.2860  142.5800 C   0  0  1  0  0  3  0  0  0  0  0  0
  191.5890  176.9140  139.4300 C   0  0  0  0  0  0  0  0  0  0  0  0
  189.4100  177.3700  141.1540 C   0  0  0  0  0  0  0  0  0  0  0  0
  191.7950  177.4710  140.6980 C   0  0  0  0  0  3  0  0  0  0  0  0
  189.2040  176.8320  139.8770 C   0  0  0  0  0  3  0  0  0  0  0  0
  190.2850  176.5990  139.0220 C   0  0  0  0  0  3  0  0  0  0  0  0
  190.7130  177.7030  141.5520 C   0  0  0  0  0  3  0  0  0  0  0  0
  192.5190  176.3820  137.1920 O   0  0  0  0  0  0  0  0  0  0  0  0
  193.9110  176.7210  138.9750 O   0  0  0  0  0  1  0  0  0  0  0  0
  192.7310  176.6710  138.5350 C   0  0  0  0  0  0  0  0  0  0  0  0
  182.3700  179.0080  139.9460 C   0  0  0  0  0  3  0  0  0  0  0  0
  184.2000  178.9920  141.3070 C   0  0  0  0  0  0  0  0  0  0  0  0
  184.7980  179.6390  140.2710 N   0  0  0  0  0  0  0  0  0  0  0  0
  182.8820  178.6450  141.1440 N   0  0  0  0  0  0  0  0  0  0  0  0
  183.6050  179.7610  139.1270 S   0  0  0  0  0  0  0  0  0  0  0  0
  1 15  2  0  0  0  0
  2  4  1  0  0  0  0
  3  7  1  0  0  0  0
  4  8  1  0  0  0  0
  5 16  1  0  0  0  0
  5 14  2  0  0  0  0
  6  2  2  0  0  0  0
  8 13  1  1  0  0  0
  9  8  1  0  0  0  0
 10 12  1  0  0  0  0
 11 10  2  0  0  0  0
 11  2  1  0  0  0  0
 12  3  2  0  0  0  0
 12  9  1  0  0  0  0
 14  3  1  0  0  0  0
 15 11  1  0  0  0  0
 16  1  1  6  0  0  0
 16 10  1  0  0  0  0
 17 19  1  0  0  0  0
 18 22  1  0  0  0  0
 18 15  1  0  0  0  0
 19 22  2  0  0  0  0
 20 18  2  0  0  0  0
 21 17  2  0  0  0  0
 21 20  1  0  0  0  0
 23 25  2  0  0  0  0
 25 24  1  0  0  0  0
 25 17  1  0  0  0  0
 26 29  2  0  0  0  0
 27  5  1  0  0  0  0
 28 27  2  0  0  0  0
 29 27  1  0  0  0  0
 30 26  1  0  0  0  0
 30 28  1  0  0  0  0
M  END
>  <MODEL>
1

>  <REMARK>
 VINA RESULT:      -9.7      0.000      0.000
  Name = 
  3 active torsions:
  status: ('A' for Active; 'I' for Inactive)
    1  A    between atoms: C_6  and  C_30
    2  A    between atoms: C_7  and  C_26
    3  A    between atoms: C_8  and  C_9
                            x       y       z     vdW  Elec       q    Type
                         _______ _______ _______ _____ _____    ______ ____

>  <TORSDO>
F 3

$$$$
=
 OpenBabel10222416383D

 30 34  0  0  1  0  0  0  0  0999 V2000
  183.6940  178.6380  143.1410 N   0  0  0  0  0  0  0  0  0  0  0  0
  186.7480  178.7630  141.0660 C   0  0  0  0  0  0  0  0  0  0  0  0
  182.6030  179.3120  139.2320 C   0  0  0  0  0  0  0  0  0  0  0  0
  187.0210  178.5650  139.6780 N   0  0  0  0  0  2  0  0  0  0  0  0
  181.8720  179.1270  141.5660 C   0  0  0  0  0  0  0  0  0  0  0  0
  187.6820  179.1670  141.8070 O   0  0  0  0  0  0  0  0  0  0  0  0
  182.2800  179.5470  137.9010 O   0  0  0  0  0  1  0  0  0  0  0  0
  186.0790  177.9640  138.7490 C   0  0  1  0  0  3  0  0  0  0  0  0
  184.9170  178.8230  138.5790 N   0  0  0  0  0  2  0  0  0  0  0  0
  184.1970  178.7800  140.9540 C   0  0  0  0  0  0  0  0  0  0  0  0
  185.3890  178.5800  141.6270 C   0  0  0  0  0  0  0  0  0  0  0  0
  183.9260  178.9940  139.5950 C   0  0  0  0  0  0  0  0  0  0  0  0
  186.8900  177.7320  137.1440 S   0  0  0  0  0  1  0  0  0  0  0  0
  181.5920  179.3740  140.2090 C   0  0  0  0  0  3  0  0  0  0  0  0
  185.0280  178.4710  142.9780 C   0  0  2  0  0  3  0  0  0  0  0  0
  183.2040  178.8350  141.9050 C   0  0  0  0  0  0  0  0  0  0  0  0
  187.5300  177.5790  146.3500 C   0  0  0  0  0  0  0  0  0  0  0  0
  185.9170  178.1830  144.1220 C   0  0  0  0  0  0  0  0  0  0  0  0
  187.7920  176.9900  145.1070 C   0  0  0  0  0  3  0  0  0  0  0  0
  185.6450  178.7570  145.3720 C   0  0  0  0  0  3  0  0  0  0  0  0
  186.4480  178.4620  146.4770 C   0  0  0  0  0  3  0  0  0  0  0  0
  186.9870  177.2850  144.0020 C   0  0  0  0  0  3  0  0  0  0  0  0
  188.0390  177.7340  148.7740 O   0  0  0  0  0  1  0  0  0  0  0  0
  189.4220  176.5730  147.3700 O   0  0  0  0  0  0  0  0  0  0  0  0
  188.3800  177.2660  147.5090 C   0  0  0  0  0  0  0  0  0  0  0  0
  179.5000  178.3830  144.2620 C   0  0  0  0  0  3  0  0  0  0  0  0
  180.7840  179.2020  142.5660 C   0  0  0  0  0  0  0  0  0  0  0  0
  180.0010  180.3070  142.6980 N   0  0  0  0  0  0  0  0  0  0  0  0
  180.5230  178.1520  143.4090 N   0  0  0  0  0  0  0  0  0  0  0  0
  178.9550  179.9160  143.9220 S   0  0  0  0  0  0  0  0  0  0  0  0
  2 11  1  0  0  0  0
  2  6  2  0  0  0  0
  3 12  2  0  0  0  0
  3 14  1  0  0  0  0
  4  2  1  0  0  0  0
  5 16  1  0  0  0  0
  5 27  1  0  0  0  0
  7  3  1  0  0  0  0
  8 13  1  6  0  0  0
  8  4  1  0  0  0  0
  9  8  1  0  0  0  0
  9 12  1  0  0  0  0
 10 11  2  0  0  0  0
 10 16  1  0  0  0  0
 11 15  1  0  0  0  0
 12 10  1  0  0  0  0
 14  5  2  0  0  0  0
 15  1  1  0  0  0  0
 15 18  1  6  0  0  0
 16  1  2  0  0  0  0
 17 21  1  0  0  0  0
 17 25  1  0  0  0  0
 18 20  1  0  0  0  0
 19 17  2  0  0  0  0
 20 21  2  0  0  0  0
 22 18  2  0  0  0  0
 22 19  1  0  0  0  0
 24 25  2  0  0  0  0
 25 23  1  0  0  0  0
 27 28  2  0  0  0  0
 27 29  1  0  0  0  0
 28 30  1  0  0  0  0
 29 26  2  0  0  0  0
 30 26  1  0  0  0  0
M  END
>  <MODEL>
2

>  <REMARK>
 VINA RESULT:      -9.4      4.181      6.616
  Name = 
  3 active torsions:
  status: ('A' for Active; 'I' for Inactive)
    1  A    between atoms: C_6  and  C_30
    2  A    between atoms: C_7  and  C_26
    3  A    between atoms: C_8  and  C_9
                            x       y       z     vdW  Elec       q    Type
                         _______ _______ _______ _____ _____    ______ ____

>  <TORSDO>
F 3

$$$$
=
 OpenBabel10222416383D

 30 34  0  0  1  0  0  0  0  0999 V2000
  188.4950  177.5800  143.2250 N   0  0  0  0  0  0  0  0  0  0  0  0
  191.4390  175.9330  144.7320 C   0  0  0  0  0  0  0  0  0  0  0  0
  187.9110  177.2990  147.2880 C   0  0  0  0  0  0  0  0  0  0  0  0
  192.0080  175.9090  146.0420 N   0  0  0  0  0  2  0  0  0  0  0  0
  186.9610  177.9230  145.1150 C   0  0  0  0  0  0  0  0  0  0  0  0
  191.9280  175.1760  143.8530 O   0  0  0  0  0  0  0  0  0  0  0  0
  187.7500  177.1750  148.6630 O   0  0  0  0  0  1  0  0  0  0  0  0
  191.6370  176.8330  147.0990 C   0  0  1  0  0  3  0  0  0  0  0  0
  190.2560  176.6120  147.5030 N   0  0  0  0  0  2  0  0  0  0  0  0
  189.2420  177.1080  145.2920 C   0  0  0  0  0  0  0  0  0  0  0  0
  190.2510  176.7600  144.4130 C   0  0  0  0  0  0  0  0  0  0  0  0
  189.1420  176.9780  146.6860 C   0  0  0  0  0  0  0  0  0  0  0  0
  192.7250  176.5760  148.5260 S   0  0  0  0  0  1  0  0  0  0  0  0
  186.8370  177.7680  146.5080 C   0  0  0  0  0  3  0  0  0  0  0  0
  189.7560  177.0930  143.1430 C   0  0  0  0  0  0  0  0  0  0  0  0
  188.1920  177.5730  144.5350 C   0  0  1  0  0  3  0  0  0  0  0  0
  191.7430  176.8650  139.3460 C   0  0  0  0  0  0  0  0  0  0  0  0
  190.4630  176.9880  141.8500 C   0  0  0  0  0  0  0  0  0  0  0  0
  192.4090  177.4020  140.4550 C   0  0  0  0  0  3  0  0  0  0  0  0
  189.7910  176.4700  140.7340 C   0  0  0  0  0  3  0  0  0  0  0  0
  190.4270  176.4030  139.4920 C   0  0  0  0  0  3  0  0  0  0  0  0
  191.7710  177.4680  141.6970 C   0  0  0  0  0  3  0  0  0  0  0  0
  191.6900  176.5260  136.8880 O   0  0  0  0  0  0  0  0  0  0  0  0
  193.6620  176.9820  137.9530 O   0  0  0  0  0  1  0  0  0  0  0  0
  192.4190  176.7960  138.0410 C   0  0  0  0  0  0  0  0  0  0  0  0
  183.8600  179.5620  144.0420 C   0  0  0  0  0  3  0  0  0  0  0  0
  185.8110  178.4170  144.3250 C   0  0  0  0  0  0  0  0  0  0  0  0
  185.6670  178.1300  143.0030 N   0  0  0  0  0  0  0  0  0  0  0  0
  184.8370  179.1940  144.9010 N   0  0  0  0  0  0  0  0  0  0  0  0
  184.2590  178.8910  142.5750 S   0  0  0  0  0  0  0  0  0  0  0  0
  2  4  1  0  0  0  0
  3  7  1  0  0  0  0
  4  8  1  0  0  0  0
  5 14  2  0  0  0  0
  6  2  2  0  0  0  0
  8  9  1  0  0  0  0
  8 13  1  1  0  0  0
 10 12  1  0  0  0  0
 11  2  1  0  0  0  0
 11 10  2  0  0  0  0
 12  3  2  0  0  0  0
 12  9  1  0  0  0  0
 14  3  1  0  0  0  0
 15  1  2  0  0  0  0
 15 11  1  0  0  0  0
 16  1  1  6  0  0  0
 16  5  1  0  0  0  0
 16 10  1  0  0  0  0
 17 21  2  0  0  0  0
 17 19  1  0  0  0  0
 18 15  1  0  0  0  0
 19 22  2  0  0  0  0
 20 18  2  0  0  0  0
 21 20  1  0  0  0  0
 22 18  1  0  0  0  0
 23 25  2  0  0  0  0
 24 25  1  0  0  0  0
 25 17  1  0  0  0  0
 26 29  2  0  0  0  0
 27 29  1  0  0  0  0
 27  5  1  0  0  0  0
 28 27  2  0  0  0  0
 30 28  1  0  0  0  0
 30 26  1  0  0  0  0
M  END
>  <MODEL>
3

>  <REMARK>
 VINA RESULT:      -9.3      2.218      2.896
  Name = 
  3 active torsions:
  status: ('A' for Active; 'I' for Inactive)
    1  A    between atoms: C_6  and  C_30
    2  A    between atoms: C_7  and  C_26
    3  A    between atoms: C_8  and  C_9
                            x       y       z     vdW  Elec       q    Type
                         _______ _______ _______ _____ _____    ______ ____

>  <TORSDO>
F 3

$$$$
=
 OpenBabel10222416383D

 30 34  0  0  1  0  0  0  0  0999 V2000
  187.9450  177.7790  143.7080 N   0  0  0  0  0  0  0  0  0  0  0  0
  191.0120  177.5050  141.6660 C   0  0  0  0  0  0  0  0  0  0  0  0
  186.9610  178.4110  139.7640 C   0  0  0  0  0  0  0  0  0  0  0  0
  191.2730  177.2270  140.2900 N   0  0  0  0  0  2  0  0  0  0  0  0
  186.1960  178.3940  142.0940 C   0  0  0  0  0  0  0  0  0  0  0  0
  191.9770  177.8380  142.4030 O   0  0  0  0  0  0  0  0  0  0  0  0
  186.6750  178.6280  138.4210 O   0  0  0  0  0  1  0  0  0  0  0  0
  190.2820  176.6920  139.3730 C   0  0  1  0  0  3  0  0  0  0  0  0
  189.2170  177.6590  139.1580 N   0  0  0  0  0  2  0  0  0  0  0  0
  188.4770  177.7830  141.5240 C   0  0  0  0  0  0  0  0  0  0  0  0
  189.6370  177.4860  142.2180 C   0  0  0  0  0  0  0  0  0  0  0  0
  188.2400  177.9720  140.1540 C   0  0  0  0  0  0  0  0  0  0  0  0
  191.0760  176.3160  137.7880 S   0  0  0  0  0  1  0  0  0  0  0  0
  185.9540  178.6160  140.7260 C   0  0  0  0  0  3  0  0  0  0  0  0
  189.2560  177.4680  143.5680 C   0  0  2  0  0  3  0  0  0  0  0  0
  187.4880  177.9780  142.4590 C   0  0  0  0  0  0  0  0  0  0  0  0
  191.6310  176.4330  146.9890 C   0  0  0  0  0  0  0  0  0  0  0  0
  190.1010  177.1340  144.7320 C   0  0  0  0  0  0  0  0  0  0  0  0
  191.9890  175.9640  145.7190 C   0  0  0  0  0  3  0  0  0  0  0  0
  189.7330  177.5850  146.0070 C   0  0  0  0  0  3  0  0  0  0  0  0
  190.4950  177.2420  147.1270 C   0  0  0  0  0  3  0  0  0  0  0  0
  191.2260  176.3080  144.5990 C   0  0  0  0  0  3  0  0  0  0  0  0
  192.8050  177.0410  149.0890 O   0  0  0  0  0  1  0  0  0  0  0  0
  192.8030  174.8780  148.3470 O   0  0  0  0  0  0  0  0  0  0  0  0
  192.4380  176.0700  148.1650 C   0  0  0  0  0  0  0  0  0  0  0  0
  184.2840  178.8920  145.1840 C   0  0  0  0  0  3  0  0  0  0  0  0
  185.1150  178.6200  143.0780 C   0  0  0  0  0  0  0  0  0  0  0  0
  183.8180  178.7820  142.7000 N   0  0  0  0  0  0  0  0  0  0  0  0
  185.3810  178.6780  144.4230 N   0  0  0  0  0  0  0  0  0  0  0  0
  183.0060  179.0020  144.1270 S   0  0  0  0  0  0  0  0  0  0  0  0
  2 11  1  0  0  0  0
  2  6  2  0  0  0  0
  3 12  2  0  0  0  0
  3 14  1  0  0  0  0
  4  2  1  0  0  0  0
  5 16  1  0  0  0  0
  5 27  1  0  0  0  0
  7  3  1  0  0  0  0
  8 13  1  6  0  0  0
  8  4  1  0  0  0  0
  9  8  1  0  0  0  0
  9 12  1  0  0  0  0
 10 11  2  0  0  0  0
 10 16  1  0  0  0  0
 11 15  1  0  0  0  0
 12 10  1  0  0  0  0
 14  5  2  0  0  0  0
 15  1  1  0  0  0  0
 15 18  1  6  0  0  0
 16  1  2  0  0  0  0
 17 21  1  0  0  0  0
 17 25  1  0  0  0  0
 18 20  1  0  0  0  0
 19 17  2  0  0  0  0
 20 21  2  0  0  0  0
 22 18  2  0  0  0  0
 22 19  1  0  0  0  0
 25 24  2  0  0  0  0
 25 23  1  0  0  0  0
 27 29  1  0  0  0  0
 28 27  2  0  0  0  0
 28 30  1  0  0  0  0
 29 26  2  0  0  0  0
 30 26  1  0  0  0  0
M  END
>  <MODEL>
4

>  <REMARK>
 VINA RESULT:      -9.1      3.361      5.972
  Name = 
  3 active torsions:
  status: ('A' for Active; 'I' for Inactive)
    1  A    between atoms: C_6  and  C_30
    2  A    between atoms: C_7  and  C_26
    3  A    between atoms: C_8  and  C_9
                            x       y       z     vdW  Elec       q    Type
                         _______ _______ _______ _____ _____    ______ ____

>  <TORSDO>
F 3

$$$$
=
 OpenBabel10222416383D

 30 34  0  0  1  0  0  0  0  0999 V2000
  188.2490  177.6140  140.3310 N   0  0  0  0  0  0  0  0  0  0  0  0
  191.8620  177.1220  139.7340 C   0  0  0  0  0  0  0  0  0  0  0  0
  188.9130  177.5290  136.2720 C   0  0  0  0  0  0  0  0  0  0  0  0
  192.6340  176.6250  138.6400 N   0  0  0  0  0  2  0  0  0  0  0  0
  187.2940  177.8750  138.0810 C   0  0  0  0  0  0  0  0  0  0  0  0
  192.4690  177.6140  140.7210 O   0  0  0  0  0  0  0  0  0  0  0  0
  189.1840  177.5030  134.9090 O   0  0  0  0  0  1  0  0  0  0  0  0
  192.0670  175.9030  137.5150 C   0  0  1  0  0  3  0  0  0  0  0  0
  191.2020  176.7760  136.7370 N   0  0  0  0  0  2  0  0  0  0  0  0
  189.5960  177.2700  138.5640 C   0  0  0  0  0  0  0  0  0  0  0  0
  190.3800  177.1410  139.6970 C   0  0  0  0  0  0  0  0  0  0  0  0
  189.9220  177.2130  137.2010 C   0  0  0  0  0  0  0  0  0  0  0  0
  193.4090  175.2960  136.4580 S   0  0  0  0  0  1  0  0  0  0  0  0
  187.6160  177.8520  136.7110 C   0  0  0  0  0  3  0  0  0  0  0  0
  189.5000  177.3370  140.7710 C   0  0  2  0  0  3  0  0  0  0  0  0
  188.3250  177.5800  138.9890 C   0  0  0  0  0  0  0  0  0  0  0  0
  190.5030  177.0340  144.9330 C   0  0  0  0  0  0  0  0  0  0  0  0
  189.8090  177.2390  142.2120 C   0  0  0  0  0  0  0  0  0  0  0  0
  190.1510  178.2730  144.3840 C   0  0  0  0  0  3  0  0  0  0  0  0
  190.1810  176.0030  142.7580 C   0  0  0  0  0  3  0  0  0  0  0  0
  190.5200  175.8990  144.1090 C   0  0  0  0  0  3  0  0  0  0  0  0
  189.8120  178.3760  143.0320 C   0  0  0  0  0  3  0  0  0  0  0  0
  189.8730  177.0240  147.3330 O   0  0  0  0  0  1  0  0  0  0  0  0
  192.0550  176.7530  146.7060 O   0  0  0  0  0  0  0  0  0  0  0  0
  190.8580  176.9290  146.3570 C   0  0  0  0  0  0  0  0  0  0  0  0
  183.6470  178.1670  138.3400 C   0  0  0  0  0  3  0  0  0  0  0  0
  185.9200  178.2210  138.5080 C   0  0  0  0  0  0  0  0  0  0  0  0
  185.6780  179.0030  139.5950 N   0  0  0  0  0  0  0  0  0  0  0  0
  184.8270  177.7600  137.8190 N   0  0  0  0  0  0  0  0  0  0  0  0
  184.0260  179.1000  139.6630 S   0  0  0  0  0  0  0  0  0  0  0  0
  1 15  1  0  0  0  0
  2  6  2  0  0  0  0
  3 14  1  0  0  0  0
  3 12  2  0  0  0  0
  4  2  1  0  0  0  0
  5 27  1  0  0  0  0
  5 16  1  0  0  0  0
  7  3  1  0  0  0  0
  8 13  1  6  0  0  0
  8  4  1  0  0  0  0
  9 12  1  0  0  0  0
  9  8  1  0  0  0  0
 10 16  1  0  0  0  0
 10 11  2  0  0  0  0
 11  2  1  0  0  0  0
 11 15  1  0  0  0  0
 12 10  1  0  0  0  0
 14  5  2  0  0  0  0
 15 18  1  1  0  0  0
 16  1  2  0  0  0  0
 17 25  1  0  0  0  0
 18 20  2  0  0  0  0
 18 22  1  0  0  0  0
 19 17  1  0  0  0  0
 20 21  1  0  0  0  0
 21 17  2  0  0  0  0
 22 19  2  0  0  0  0
 25 24  2  0  0  0  0
 25 23  1  0  0  0  0
 26 30  1  0  0  0  0
 27 28  2  0  0  0  0
 28 30  1  0  0  0  0
 29 26  2  0  0  0  0
 29 27  1  0  0  0  0
M  END
>  <MODEL>
5

>  <REMARK>
 VINA RESULT:      -9.1      3.641      6.663
  Name = 
  3 active torsions:
  status: ('A' for Active; 'I' for Inactive)
    1  A    between atoms: C_6  and  C_30
    2  A    between atoms: C_7  and  C_26
    3  A    between atoms: C_8  and  C_9
                            x       y       z     vdW  Elec       q    Type
                         _______ _______ _______ _____ _____    ______ ____

>  <TORSDO>
F 3

$$$$
=
 OpenBabel10222416383D

 30 34  0  0  1  0  0  0  0  0999 V2000
  190.1450  177.0370  143.4520 N   0  0  0  0  0  0  0  0  0  0  0  0
  187.5280  178.5310  141.3150 C   0  0  0  0  0  0  0  0  0  0  0  0
  186.9580  178.1050  145.8250 C   0  0  0  0  0  0  0  0  0  0  0  0
  186.1170  178.7120  141.4440 N   0  0  0  0  0  2  0  0  0  0  0  0
  189.2490  177.2340  145.7330 C   0  0  0  0  0  0  0  0  0  0  0  0
  188.1100  179.0500  140.3280 O   0  0  0  0  0  0  0  0  0  0  0  0
  185.8640  178.4890  146.5900 O   0  0  0  0  0  1  0  0  0  0  0  0
  185.3070  178.0450  142.4480 C   0  0  1  0  0  3  0  0  0  0  0  0
  185.6660  178.5100  143.7790 N   0  0  0  0  0  2  0  0  0  0  0  0
  188.0330  177.7670  143.6990 C   0  0  0  0  0  0  0  0  0  0  0  0
  188.3200  177.8210  142.3460 C   0  0  0  0  0  0  0  0  0  0  0  0
  186.8930  178.1530  144.4200 C   0  0  0  0  0  0  0  0  0  0  0  0
  183.5570  178.4080  142.1410 S   0  0  0  0  0  1  0  0  0  0  0  0
  188.1230  177.6470  146.4690 C   0  0  0  0  0  3  0  0  0  0  0  0
  189.6310  177.3350  142.2350 C   0  0  0  0  0  0  0  0  0  0  0  0
  189.1670  177.3140  144.3320 C   0  0  1  0  0  3  0  0  0  0  0  0
  191.9350  176.6290  138.6840 C   0  0  0  0  0  0  0  0  0  0  0  0
  190.4030  177.1180  140.9950 C   0  0  0  0  0  0  0  0  0  0  0  0
  190.5950  176.2250  138.7430 C   0  0  0  0  0  3  0  0  0  0  0  0
  191.7500  177.5030  140.9410 C   0  0  0  0  0  3  0  0  0  0  0  0
  192.5090  177.2660  139.7930 C   0  0  0  0  0  3  0  0  0  0  0  0
  189.8370  176.4630  139.8930 C   0  0  0  0  0  3  0  0  0  0  0  0
  192.1620  175.7230  136.3850 O   0  0  0  0  0  0  0  0  0  0  0  0
  193.9300  176.7530  137.4040 O   0  0  0  0  0  1  0  0  0  0  0  0
  192.7300  176.3780  137.4710 C   0  0  0  0  0  0  0  0  0  0  0  0
  192.4300  175.6270  146.5990 C   0  0  0  0  0  3  0  0  0  0  0  0
  190.4580  176.7600  146.4420 C   0  0  0  0  0  0  0  0  0  0  0  0
  190.7060  177.0840  147.7400 N   0  0  0  0  0  0  0  0  0  0  0  0
  191.3870  175.9710  145.8120 N   0  0  0  0  0  0  0  0  0  0  0  0
  192.1450  176.3360  148.0760 S   0  0  0  0  0  0  0  0  0  0  0  0
  2  4  1  0  0  0  0
  2 11  1  0  0  0  0
  3 14  1  0  0  0  0
  3  7  1  0  0  0  0
  4  8  1  0  0  0  0
  5 27  1  0  0  0  0
  5 14  2  0  0  0  0
  6  2  2  0  0  0  0
  8 13  1  6  0  0  0
  8  9  1  0  0  0  0
  9 12  1  0  0  0  0
 10 16  1  0  0  0  0
 10 12  1  0  0  0  0
 11 10  2  0  0  0  0
 12  3  2  0  0  0  0
 15 11  1  0  0  0  0
 15  1  2  0  0  0  0
 16  1  1  1  0  0  0
 16  5  1  0  0  0  0
 17 19  2  0  0  0  0
 17 21  1  0  0  0  0
 18 15  1  0  0  0  0
 19 22  1  0  0  0  0
 20 18  1  0  0  0  0
 21 20  2  0  0  0  0
 22 18  2  0  0  0  0
 23 25  2  0  0  0  0
 24 25  1  0  0  0  0
 25 17  1  0  0  0  0
 26 30  1  0  0  0  0
 27 28  2  0  0  0  0
 28 30  1  0  0  0  0
 29 27  1  0  0  0  0
 29 26  2  0  0  0  0
M  END
>  <MODEL>
6

>  <REMARK>
 VINA RESULT:      -9.1      2.014      5.428
  Name = 
  3 active torsions:
  status: ('A' for Active; 'I' for Inactive)
    1  A    between atoms: C_6  and  C_30
    2  A    between atoms: C_7  and  C_26
    3  A    between atoms: C_8  and  C_9
                            x       y       z     vdW  Elec       q    Type
                         _______ _______ _______ _____ _____    ______ ____

>  <TORSDO>
F 3

$$$$
=
 OpenBabel10222416383D

 30 34  0  0  1  0  0  0  0  0999 V2000
  188.3220  177.6880  143.5150 N   0  0  0  0  0  0  0  0  0  0  0  0
  186.1480  178.6120  140.6740 C   0  0  0  0  0  0  0  0  0  0  0  0
  184.5980  178.6580  144.9680 C   0  0  0  0  0  0  0  0  0  0  0  0
  184.7350  178.6450  140.4680 N   0  0  0  0  0  2  0  0  0  0  0  0
  186.9140  178.0490  145.4970 C   0  0  0  0  0  0  0  0  0  0  0  0
  186.8950  179.0740  139.7730 O   0  0  0  0  0  0  0  0  0  0  0  0
  183.3280  179.0030  145.4170 O   0  0  0  0  0  1  0  0  0  0  0  0
  183.7750  178.0130  141.3570 C   0  0  1  0  0  3  0  0  0  0  0  0
  183.7790  178.6700  142.6550 N   0  0  0  0  0  2  0  0  0  0  0  0
  186.1550  178.1960  143.1940 C   0  0  0  0  0  0  0  0  0  0  0  0
  186.7390  178.1230  141.9410 C   0  0  0  0  0  0  0  0  0  0  0  0
  184.8520  178.5330  143.5890 C   0  0  2  0  0  3  0  0  0  0  0  0
  182.1190  178.1360  140.6310 S   0  0  0  0  0  1  0  0  0  0  0  0
  185.6180  178.4160  145.9060 C   0  0  0  0  0  3  0  0  0  0  0  0
  188.0770  177.7800  142.1850 C   0  0  0  0  0  0  0  0  0  0  0  0
  187.1480  177.9530  144.1140 C   0  0  0  0  0  0  0  0  0  0  0  0
  191.1590  176.8960  139.3320 C   0  0  0  0  0  0  0  0  0  0  0  0
  189.1290  177.5070  141.1850 C   0  0  0  0  0  0  0  0  0  0  0  0
  189.8120  176.7990  138.9620 C   0  0  0  0  0  3  0  0  0  0  0  0
  190.4770  177.5840  141.5590 C   0  0  0  0  0  3  0  0  0  0  0  0
  191.4860  177.2860  140.6390 C   0  0  0  0  0  3  0  0  0  0  0  0
  188.8040  177.0970  139.8840 C   0  0  0  0  0  3  0  0  0  0  0  0
  193.5550  176.7130  138.7130 O   0  0  0  0  0  1  0  0  0  0  0  0
  191.9230  176.1950  137.1970 O   0  0  0  0  0  0  0  0  0  0  0  0
  192.2170  176.5840  138.3590 C   0  0  0  0  0  0  0  0  0  0  0  0
  188.8700  177.9440  148.5970 C   0  0  0  0  0  3  0  0  0  0  0  0
  187.9630  177.8030  146.5100 C   0  0  0  0  0  0  0  0  0  0  0  0
  189.1040  177.1230  146.2160 N   0  0  0  0  0  0  0  0  0  0  0  0
  187.8240  178.2530  147.7990 N   0  0  0  0  0  0  0  0  0  0  0  0
  189.9440  177.1070  147.6440 S   0  0  0  0  0  0  0  0  0  0  0  0
  1 16  1  0  0  0  0
  2 11  1  0  0  0  0
  3  7  1  0  0  0  0
  3 14  2  0  0  0  0
  4  2  1  0  0  0  0
  4  8  1  0  0  0  0
  5 14  1  0  0  0  0
  5 27  1  0  0  0  0
  6  2  2  0  0  0  0
  8 13  1  6  0  0  0
  8  9  1  0  0  0  0
 10 12  1  0  0  0  0
 10 16  1  0  0  0  0
 11 15  1  0  0  0  0
 11 10  2  0  0  0  0
 12  9  1  1  0  0  0
 12  3  1  0  0  0  0
 15  1  2  0  0  0  0
 16  5  2  0  0  0  0
 17 21  1  0  0  0  0
 18 20  1  0  0  0  0
 18 15  1  0  0  0  0
 19 17  2  0  0  0  0
 19 22  1  0  0  0  0
 21 20  2  0  0  0  0
 22 18  2  0  0  0  0
 24 25  2  0  0  0  0
 25 23  1  0  0  0  0
 25 17  1  0  0  0  0
 27 29  1  0  0  0  0
 28 27  2  0  0  0  0
 28 30  1  0  0  0  0
 29 26  2  0  0  0  0
 30 26  1  0  0  0  0
M  END
>  <MODEL>
7

>  <REMARK>
 VINA RESULT:      -9.1      1.613      5.054
  Name = 
  3 active torsions:
  status: ('A' for Active; 'I' for Inactive)
    1  A    between atoms: C_6  and  C_30
    2  A    between atoms: C_7  and  C_26
    3  A    between atoms: C_8  and  C_9
                            x       y       z     vdW  Elec       q    Type
                         _______ _______ _______ _____ _____    ______ ____

>  <TORSDO>
F 3

$$$$
=
 OpenBabel10222416383D

 30 34  0  0  1  0  0  0  0  0999 V2000
  188.5440  177.5640  143.2340 N   0  0  0  0  0  0  0  0  0  0  0  0
  185.4850  179.0160  141.7550 C   0  0  0  0  0  0  0  0  0  0  0  0
  185.8620  178.3410  146.2550 C   0  0  0  0  0  0  0  0  0  0  0  0
  184.1240  179.1150  142.1750 N   0  0  0  0  0  2  0  0  0  0  0  0
  188.1220  177.6010  145.6550 C   0  0  0  0  0  0  0  0  0  0  0  0
  185.8320  179.6140  140.7030 O   0  0  0  0  0  0  0  0  0  0  0  0
  184.9300  178.6280  147.2450 O   0  0  0  0  0  1  0  0  0  0  0  0
  183.5640  178.3560  143.2800 C   0  0  1  0  0  3  0  0  0  0  0  0
  184.1650  178.7750  144.5370 N   0  0  0  0  0  2  0  0  0  0  0  0
  186.4960  178.1650  143.9410 C   0  0  0  0  0  0  0  0  0  0  0  0
  186.5000  178.3010  142.5640 C   0  0  0  0  0  0  0  0  0  0  0  0
  185.5110  178.4540  144.8970 C   0  0  0  0  0  0  0  0  0  0  0  0
  181.7740  178.6390  143.3520 S   0  0  0  0  0  1  0  0  0  0  0  0
  187.1520  177.9170  146.6250 C   0  0  0  0  0  3  0  0  0  0  0  0
  187.7810  177.8920  142.1640 C   0  0  0  0  0  0  0  0  0  0  0  0
  187.7540  177.7440  144.3060 C   0  0  1  0  0  3  0  0  0  0  0  0
  189.2890  177.4530  138.1690 C   0  0  0  0  0  0  0  0  0  0  0  0
  188.2940  177.7780  140.7830 C   0  0  0  0  0  0  0  0  0  0  0  0
  187.9290  177.7100  138.3820 C   0  0  0  0  0  3  0  0  0  0  0  0
  189.6510  177.5000  140.5700 C   0  0  0  0  0  3  0  0  0  0  0  0
  190.1470  177.3450  139.2730 C   0  0  0  0  0  3  0  0  0  0  0  0
  187.4340  177.8660  139.6800 C   0  0  0  0  0  3  0  0  0  0  0  0
  190.8810  176.4460  136.5550 O   0  0  0  0  0  1  0  0  0  0  0  0
  189.2800  177.9150  135.8410 O   0  0  0  0  0  0  0  0  0  0  0  0
  189.8060  177.2910  136.8020 C   0  0  0  0  0  0  0  0  0  0  0  0
  191.6810  176.7170  145.7440 C   0  0  0  0  0  3  0  0  0  0  0  0
  189.4690  177.1600  146.0790 C   0  0  0  0  0  0  0  0  0  0  0  0
  189.7270  176.7530  147.3510 N   0  0  0  0  0  0  0  0  0  0  0  0
  190.5210  177.1460  145.1980 N   0  0  0  0  0  0  0  0  0  0  0  0
  191.3390  176.3680  147.3330 S   0  0  0  0  0  0  0  0  0  0  0  0
  2  4  1  0  0  0  0
  2 11  1  0  0  0  0
  3 14  1  0  0  0  0
  3  7  1  0  0  0  0
  4  8  1  0  0  0  0
  5 27  1  0  0  0  0
  5 14  2  0  0  0  0
  6  2  2  0  0  0  0
  8 13  1  1  0  0  0
  8  9  1  0  0  0  0
  9 12  1  0  0  0  0
 10 16  1  0  0  0  0
 10 12  1  0  0  0  0
 11 10  2  0  0  0  0
 12  3  2  0  0  0  0
 15 11  1  0  0  0  0
 15  1  2  0  0  0  0
 16  1  1  1  0  0  0
 16  5  1  0  0  0  0
 17 19  2  0  0  0  0
 17 21  1  0  0  0  0
 18 15  1  0  0  0  0
 19 22  1  0  0  0  0
 20 18  1  0  0  0  0
 21 20  2  0  0  0  0
 22 18  2  0  0  0  0
 23 25  1  0  0  0  0
 24 25  2  0  0  0  0
 25 17  1  0  0  0  0
 26 30  1  0  0  0  0
 27 28  2  0  0  0  0
 29 26  2  0  0  0  0
 29 27  1  0  0  0  0
 30 28  1  0  0  0  0
M  END
>  <MODEL>
8

>  <REMARK>
 VINA RESULT:      -9.0      2.303      5.332
  Name = 
  3 active torsions:
  status: ('A' for Active; 'I' for Inactive)
    1  A    between atoms: C_6  and  C_30
    2  A    between atoms: C_7  and  C_26
    3  A    between atoms: C_8  and  C_9
                            x       y       z     vdW  Elec       q    Type
                         _______ _______ _______ _____ _____    ______ ____

>  <TORSDO>
F 3

$$$$
=
 OpenBabel10222416383D

 30 34  0  0  1  0  0  0  0  0999 V2000
  189.3650  177.3140  142.6050 N   0  0  0  0  0  0  0  0  0  0  0  0
  187.7450  178.5190  139.5110 C   0  0  0  0  0  0  0  0  0  0  0  0
  185.5740  178.6210  143.5260 C   0  0  0  0  0  0  0  0  0  0  0  0
  186.3900  178.7000  139.0990 N   0  0  0  0  0  2  0  0  0  0  0  0
  187.7140  177.7690  144.3690 C   0  0  0  0  0  0  0  0  0  0  0  0
  188.6610  178.9250  138.7490 O   0  0  0  0  0  0  0  0  0  0  0  0
  184.2910  179.0820  143.7950 O   0  0  0  0  0  1  0  0  0  0  0  0
  185.2500  178.1470  139.8110 C   0  0  1  0  0  3  0  0  0  0  0  0
  185.1210  178.7700  141.1200 N   0  0  0  0  0  2  0  0  0  0  0  0
  187.3310  178.0460  141.9860 C   0  0  0  0  0  0  0  0  0  0  0  0
  188.0880  177.9430  140.8330 C   0  0  0  0  0  0  0  0  0  0  0  0
  186.0220  178.5030  142.1970 C   0  0  2  0  0  3  0  0  0  0  0  0
  183.7420  178.4540  138.8530 S   0  0  0  0  0  1  0  0  0  0  0  0
  186.4130  178.2550  144.5960 C   0  0  0  0  0  3  0  0  0  0  0  0
  189.3340  177.4610  141.2590 C   0  0  0  0  0  0  0  0  0  0  0  0
  188.1450  177.6820  143.0340 C   0  0  0  0  0  0  0  0  0  0  0  0
  192.6670  176.5020  138.7310 C   0  0  0  0  0  0  0  0  0  0  0  0
  190.4940  177.1070  140.4160 C   0  0  0  0  0  0  0  0  0  0  0  0
  192.8670  177.2390  139.9050 C   0  0  0  0  0  3  0  0  0  0  0  0
  190.2940  176.3870  139.2300 C   0  0  0  0  0  3  0  0  0  0  0  0
  191.3730  176.0810  138.3960 C   0  0  0  0  0  3  0  0  0  0  0  0
  191.7860  177.5440  140.7380 C   0  0  0  0  0  3  0  0  0  0  0  0
  194.7440  175.2320  138.2480 O   0  0  0  0  0  1  0  0  0  0  0  0
  193.9460  176.7630  136.7480 O   0  0  0  0  0  0  0  0  0  0  0  0
  193.8070  176.1820  137.8570 C   0  0  0  0  0  0  0  0  0  0  0  0
  188.9710  176.9660  147.7200 C   0  0  0  0  0  3  0  0  0  0  0  0
  188.5700  177.3940  145.5170 C   0  0  0  0  0  0  0  0  0  0  0  0
  189.8900  177.1020  145.3670 N   0  0  0  0  0  0  0  0  0  0  0  0
  188.0590  177.3230  146.7880 N   0  0  0  0  0  0  0  0  0  0  0  0
  190.4030  176.7500  146.9020 S   0  0  0  0  0  0  0  0  0  0  0  0
  1 16  1  0  0  0  0
  2 11  1  0  0  0  0
  3  7  1  0  0  0  0
  3 14  2  0  0  0  0
  4  2  1  0  0  0  0
  4  8  1  0  0  0  0
  5 14  1  0  0  0  0
  5 27  1  0  0  0  0
  6  2  2  0  0  0  0
  8 13  1  6  0  0  0
  8  9  1  0  0  0  0
 10 12  1  0  0  0  0
 10 16  1  0  0  0  0
 11 15  1  0  0  0  0
 11 10  2  0  0  0  0
 12  9  1  6  0  0  0
 12  3  1  0  0  0  0
 15  1  2  0  0  0  0
 16  5  2  0  0  0  0
 17 19  1  0  0  0  0
 18 22  1  0  0  0  0
 18 15  1  0  0  0  0
 19 22  2  0  0  0  0
 20 18  2  0  0  0  0
 21 17  2  0  0  0  0
 21 20  1  0  0  0  0
 24 25  2  0  0  0  0
 25 23  1  0  0  0  0
 25 17  1  0  0  0  0
 27 29  1  0  0  0  0
 28 27  2  0  0  0  0
 28 30  1  0  0  0  0
 29 26  2  0  0  0  0
 30 26  1  0  0  0  0
M  END
>  <MODEL>
9

>  <REMARK>
 VINA RESULT:      -8.9      1.824      5.094
  Name = 
  3 active torsions:
  status: ('A' for Active; 'I' for Inactive)
    1  A    between atoms: C_6  and  C_30
    2  A    between atoms: C_7  and  C_26
    3  A    between atoms: C_8  and  C_9
                            x       y       z     vdW  Elec       q    Type
                         _______ _______ _______ _____ _____    ______ ____

>  <TORSDO>
F 3

$$$$
