=
 OpenBabel10222420173D

 27 30  0  0  1  0  0  0  0  0999 V2000
  190.5550  176.6010  140.0550 C   0  0  0  0  0  3  0  0  0  0  0  0
  188.6950  177.7960  141.1770 C   0  0  0  0  0  0  0  0  0  0  0  0
  186.7170  178.2590  142.6450 C   0  0  0  0  0  0  0  0  0  0  0  0
  182.5900  178.8750  143.1120 C   0  0  0  0  0  0  0  0  0  0  0  0
  188.7020  177.8890  144.2060 C   0  0  2  0  0  3  0  0  0  0  0  0
  185.9870  177.9540  145.0400 S   0  0  0  0  0  0  0  0  0  0  0  0
  187.2400  177.9210  143.8920 C   0  0  0  0  0  0  0  0  0  0  0  0
  183.4260  178.5350  144.1930 C   0  0  0  0  0  3  0  0  0  0  0  0
  185.3330  178.4880  142.6820 C   0  0  0  0  0  0  0  0  0  0  0  0
  189.4540  177.0000  143.3240 N   0  0  0  0  0  0  0  0  0  0  0  0
  189.5120  177.0280  142.0240 C   0  0  0  0  0  0  0  0  0  0  0  0
  183.1430  179.0180  141.8210 C   0  0  0  0  0  3  0  0  0  0  0  0
  184.7820  178.3460  143.9450 C   0  0  0  0  0  0  0  0  0  0  0  0
  189.3250  177.6620  139.6290 S   0  0  0  0  0  0  0  0  0  0  0  0
  187.4940  178.3360  141.3990 C   0  0  0  0  0  3  0  0  0  0  0  0
  190.5080  176.3560  141.3840 N   0  0  0  0  0  0  0  0  0  0  0  0
  184.5160  178.8260  141.6000 C   0  0  0  0  0  3  0  0  0  0  0  0
  180.4430  180.0650  142.5620 N   0  0  0  0  0  2  0  0  0  0  0  0
  181.1470  179.0830  143.3270 C   0  0  0  0  0  0  0  0  0  0  0  0
  180.5320  178.3940  144.1860 O   0  0  0  0  0  0  0  0  0  0  0  0
  179.0220  180.3050  142.7380 C   0  0  0  0  0  1  0  0  0  0  0  0
  188.9720  177.5070  145.6550 C   0  0  0  0  0  2  0  0  0  0  0  0
  190.4340  177.1430  145.8430 C   0  0  0  0  0  2  0  0  0  0  0  0
  190.6900  176.6930  147.2720 C   0  0  0  0  0  2  0  0  0  0  0  0
  192.0150  176.0190  147.3850 C   0  0  0  0  0  0  0  0  0  0  0  0
  192.8480  176.3010  148.4600 O   0  0  0  0  0  1  0  0  0  0  0  0
  192.3940  175.2180  146.4910 O   0  0  0  0  0  0  0  0  0  0  0  0
  1 16  2  0  0  0  0
  2 15  2  0  0  0  0
  2 11  1  0  0  0  0
  3  9  1  0  0  0  0
  3  7  2  0  0  0  0
  4 19  1  0  0  0  0
  4  8  1  0  0  0  0
  5 22  1  1  0  0  0
  7  5  1  0  0  0  0
  7  6  1  0  0  0  0
  9 13  1  0  0  0  0
 10  5  1  0  0  0  0
 11 10  2  0  0  0  0
 12  4  2  0  0  0  0
 13  8  2  0  0  0  0
 13  6  1  0  0  0  0
 14  1  1  0  0  0  0
 14  2  1  0  0  0  0
 15  3  1  0  0  0  0
 16 11  1  0  0  0  0
 17 12  1  0  0  0  0
 17  9  2  0  0  0  0
 18 21  1  0  0  0  0
 18 19  1  0  0  0  0
 19 20  2  0  0  0  0
 22 23  1  0  0  0  0
 23 24  1  0  0  0  0
 24 25  1  0  0  0  0
 25 26  1  0  0  0  0
 27 25  2  0  0  0  0
M  END
>  <MODEL>
1

>  <REMARK>
 VINA RESULT:      -8.9      0.000      0.000
  Name = 
  5 active torsions:
  status: ('A' for Active; 'I' for Inactive)
    1  A    between atoms: C_1  and  C_14
    2  A    between atoms: C_1  and  C_18
    3  A    between atoms: C_6  and  C_7
    4  A    between atoms: C_8  and  C_11
    5  A    between atoms: C_11  and  C_14
                            x       y       z     vdW  Elec       q    Type
                         _______ _______ _______ _____ _____    ______ ____

>  <TORSDO>
F 5

$$$$
=
 OpenBabel10222420173D

 27 30  0  0  1  0  0  0  0  0999 V2000
  189.5460  178.0820  148.4100 C   0  0  0  0  0  3  0  0  0  0  0  0
  187.6740  177.6450  146.8450 C   0  0  0  0  0  0  0  0  0  0  0  0
  186.1690  177.7930  144.8460 C   0  0  0  0  0  0  0  0  0  0  0  0
  182.5850  179.0650  143.0690 C   0  0  0  0  0  0  0  0  0  0  0  0
  188.3660  176.7870  144.0220 C   0  0  2  0  0  3  0  0  0  0  0  0
  186.3120  177.7770  142.3270 S   0  0  0  0  0  0  0  0  0  0  0  0
  187.0760  177.5180  143.8230 C   0  0  0  0  0  0  0  0  0  0  0  0
  183.7080  178.6900  142.3070 C   0  0  0  0  0  3  0  0  0  0  0  0
  184.9260  178.2320  144.3630 C   0  0  0  0  0  0  0  0  0  0  0  0
  189.2300  177.4180  145.0160 N   0  0  0  0  0  0  0  0  0  0  0  0
  188.9470  177.7010  146.2550 C   0  0  0  0  0  0  0  0  0  0  0  0
  182.6490  179.0180  144.4780 C   0  0  0  0  0  3  0  0  0  0  0  0
  184.8560  178.2840  142.9810 C   0  0  0  0  0  0  0  0  0  0  0  0
  187.8830  177.8610  148.4940 S   0  0  0  0  0  0  0  0  0  0  0  0
  186.4630  177.6870  146.2830 C   0  0  0  0  0  3  0  0  0  0  0  0
  189.9570  177.9720  147.1270 N   0  0  0  0  0  0  0  0  0  0  0  0
  183.8190  178.6010  145.1320 C   0  0  0  0  0  3  0  0  0  0  0  0
  181.0580  179.0610  141.0690 N   0  0  0  0  0  2  0  0  0  0  0  0
  181.3470  179.5030  142.3980 C   0  0  0  0  0  0  0  0  0  0  0  0
  180.5430  180.2690  142.9960 O   0  0  0  0  0  0  0  0  0  0  0  0
  179.8510  179.4660  140.3680 C   0  0  0  0  0  1  0  0  0  0  0  0
  189.1370  176.6150  142.7200 C   0  0  0  0  0  2  0  0  0  0  0  0
  190.1430  177.7390  142.5490 C   0  0  0  0  0  2  0  0  0  0  0  0
  191.1420  177.3960  141.4570 C   0  0  0  0  0  2  0  0  0  0  0  0
  190.4490  177.1830  140.1540 C   0  0  0  0  0  0  0  0  0  0  0  0
  190.5790  175.9700  139.4890 O   0  0  0  0  0  0  0  0  0  0  0  0
  189.7730  178.1110  139.6410 O   0  0  0  0  0  1  0  0  0  0  0  0
  1 14  1  0  0  0  0
  2 14  1  0  0  0  0
  3 15  1  0  0  0  0
  4 12  1  0  0  0  0
  5 22  1  6  0  0  0
  5 10  1  0  0  0  0
  6 13  1  0  0  0  0
  6  7  1  0  0  0  0
  7  5  1  0  0  0  0
  7  3  2  0  0  0  0
  8 13  1  0  0  0  0
  8  4  2  0  0  0  0
  9  3  1  0  0  0  0
  9 17  1  0  0  0  0
 10 11  2  0  0  0  0
 11  2  1  0  0  0  0
 11 16  1  0  0  0  0
 12 17  2  0  0  0  0
 13  9  2  0  0  0  0
 15  2  2  0  0  0  0
 16  1  2  0  0  0  0
 18 19  1  0  0  0  0
 19 20  2  0  0  0  0
 19  4  1  0  0  0  0
 21 18  1  0  0  0  0
 23 22  1  0  0  0  0
 24 23  1  0  0  0  0
 25 24  1  0  0  0  0
 26 25  2  0  0  0  0
 27 25  1  0  0  0  0
M  END
>  <MODEL>
2

>  <REMARK>
 VINA RESULT:      -8.5      2.951      4.668
  Name = 
  5 active torsions:
  status: ('A' for Active; 'I' for Inactive)
    1  A    between atoms: C_1  and  C_14
    2  A    between atoms: C_1  and  C_18
    3  A    between atoms: C_6  and  C_7
    4  A    between atoms: C_8  and  C_11
    5  A    between atoms: C_11  and  C_14
                            x       y       z     vdW  Elec       q    Type
                         _______ _______ _______ _____ _____    ______ ____

>  <TORSDO>
F 5

$$$$
=
 OpenBabel10222420173D

 27 30  0  0  1  0  0  0  0  0999 V2000
  179.9840  178.4750  142.1510 C   0  0  0  0  0  3  0  0  0  0  0  0
  182.2640  178.9120  143.0240 C   0  0  0  0  0  0  0  0  0  0  0  0
  184.6960  178.6240  143.5530 C   0  0  0  0  0  0  0  0  0  0  0  0
  187.7470  177.7030  146.2870 C   0  0  0  0  0  0  0  0  0  0  0  0
  184.5460  178.9910  141.0320 C   0  0  2  0  0  3  0  0  0  0  0  0
  186.8640  178.0670  142.3900 S   0  0  0  0  0  0  0  0  0  0  0  0
  185.2230  178.4940  142.2690 C   0  0  0  0  0  0  0  0  0  0  0  0
  187.9560  177.6840  144.8950 C   0  0  0  0  0  3  0  0  0  0  0  0
  185.6360  178.3350  144.5560 C   0  0  0  0  0  0  0  0  0  0  0  0
  183.2060  178.4380  140.8550 N   0  0  0  0  0  0  0  0  0  0  0  0
  182.2050  178.4890  141.6860 C   0  0  0  0  0  0  0  0  0  0  0  0
  186.4750  178.0410  146.7980 C   0  0  0  0  0  3  0  0  0  0  0  0
  186.8860  178.0000  144.0620 C   0  0  0  0  0  0  0  0  0  0  0  0
  180.6840  179.0220  143.5770 S   0  0  0  0  0  0  0  0  0  0  0  0
  183.3030  178.9800  143.8600 C   0  0  0  0  0  3  0  0  0  0  0  0
  180.9470  178.2250  141.2360 N   0  0  0  0  0  0  0  0  0  0  0  0
  185.4140  178.3590  145.9350 C   0  0  0  0  0  3  0  0  0  0  0  0
  190.1100  176.9370  146.6870 N   0  0  0  0  0  2  0  0  0  0  0  0
  188.8510  177.3740  147.2060 C   0  0  0  0  0  0  0  0  0  0  0  0
  188.6860  177.4780  148.4520 O   0  0  0  0  0  0  0  0  0  0  0  0
  191.2260  176.6020  147.5540 C   0  0  0  0  0  1  0  0  0  0  0  0
  185.3690  178.7280  139.7790 C   0  0  0  0  0  2  0  0  0  0  0  0
  184.4680  178.6590  138.5580 C   0  0  0  0  0  2  0  0  0  0  0  0
  185.0160  177.6640  137.5490 C   0  0  0  0  0  2  0  0  0  0  0  0
  186.4950  177.8040  137.4170 C   0  0  0  0  0  0  0  0  0  0  0  0
  187.0440  179.0100  137.0000 O   0  0  0  0  0  0  0  0  0  0  0  0
  187.2450  176.8210  137.6540 O   0  0  0  0  0  1  0  0  0  0  0  0
  1 14  1  0  0  0  0
  2 14  1  0  0  0  0
  2 15  2  0  0  0  0
  3 15  1  0  0  0  0
  3  9  1  0  0  0  0
  4 12  1  0  0  0  0
  4 19  1  0  0  0  0
  5 22  1  6  0  0  0
  5  7  1  0  0  0  0
  6 13  1  0  0  0  0
  7  6  1  0  0  0  0
  7  3  2  0  0  0  0
  8  4  2  0  0  0  0
  9 17  1  0  0  0  0
 10  5  1  0  0  0  0
 10 11  2  0  0  0  0
 11  2  1  0  0  0  0
 13  9  2  0  0  0  0
 13  8  1  0  0  0  0
 16 11  1  0  0  0  0
 16  1  2  0  0  0  0
 17 12  2  0  0  0  0
 18 19  1  0  0  0  0
 18 21  1  0  0  0  0
 19 20  2  0  0  0  0
 23 22  1  0  0  0  0
 24 23  1  0  0  0  0
 25 24  1  0  0  0  0
 25 27  1  0  0  0  0
 26 25  2  0  0  0  0
M  END
>  <MODEL>
3

>  <REMARK>
 VINA RESULT:      -8.5      3.580      8.169
  Name = 
  5 active torsions:
  status: ('A' for Active; 'I' for Inactive)
    1  A    between atoms: C_1  and  C_14
    2  A    between atoms: C_1  and  C_18
    3  A    between atoms: C_6  and  C_7
    4  A    between atoms: C_8  and  C_11
    5  A    between atoms: C_11  and  C_14
                            x       y       z     vdW  Elec       q    Type
                         _______ _______ _______ _____ _____    ______ ____

>  <TORSDO>
F 5

$$$$
=
 OpenBabel10222420173D

 27 30  0  0  1  0  0  0  0  0999 V2000
  179.6120  178.4830  142.2400 C   0  0  0  0  0  3  0  0  0  0  0  0
  181.9060  178.9340  143.0650 C   0  0  0  0  0  0  0  0  0  0  0  0
  184.3510  178.6600  143.5450 C   0  0  0  0  0  0  0  0  0  0  0  0
  187.4620  177.7610  146.2170 C   0  0  0  0  0  0  0  0  0  0  0  0
  184.1470  179.0220  141.0260 C   0  0  2  0  0  3  0  0  0  0  0  0
  186.4970  178.1120  142.3380 S   0  0  0  0  0  0  0  0  0  0  0  0
  184.8520  178.5300  142.2500 C   0  0  0  0  0  0  0  0  0  0  0  0
  187.6420  177.7400  144.8210 C   0  0  0  0  0  3  0  0  0  0  0  0
  185.3120  178.3780  144.5280 C   0  0  0  0  0  0  0  0  0  0  0  0
  182.8060  178.4610  140.8780 N   0  0  0  0  0  0  0  0  0  0  0  0
  181.8230  178.5080  141.7290 C   0  0  0  0  0  0  0  0  0  0  0  0
  186.1990  178.0920  146.7530 C   0  0  0  0  0  3  0  0  0  0  0  0
  186.5540  178.0490  144.0100 C   0  0  0  0  0  0  0  0  0  0  0  0
  180.3380  179.0360  143.6500 S   0  0  0  0  0  0  0  0  0  0  0  0
  182.9620  179.0090  143.8790 C   0  0  0  0  0  3  0  0  0  0  0  0
  180.5580  178.2370  141.3050 N   0  0  0  0  0  0  0  0  0  0  0  0
  185.1180  178.4030  145.9120 C   0  0  0  0  0  3  0  0  0  0  0  0
  189.8400  177.0200  146.5700 N   0  0  0  0  0  2  0  0  0  0  0  0
  188.5860  177.4390  147.1140 C   0  0  0  0  0  0  0  0  0  0  0  0
  188.4420  177.5330  148.3640 O   0  0  0  0  0  0  0  0  0  0  0  0
  190.9760  176.6930  147.4140 C   0  0  0  0  0  1  0  0  0  0  0  0
  184.9460  178.7610  139.7570 C   0  0  0  0  0  2  0  0  0  0  0  0
  184.0140  178.4500  138.5990 C   0  0  0  0  0  2  0  0  0  0  0  0
  184.6700  177.4760  137.6350 C   0  0  0  0  0  2  0  0  0  0  0  0
  183.9700  176.1600  137.6530 C   0  0  0  0  0  0  0  0  0  0  0  0
  183.1450  175.8270  138.7190 O   0  0  0  0  0  1  0  0  0  0  0  0
  184.1490  175.3380  136.7170 O   0  0  0  0  0  0  0  0  0  0  0  0
  1 14  1  0  0  0  0
  2 14  1  0  0  0  0
  2 15  2  0  0  0  0
  3 15  1  0  0  0  0
  3  9  1  0  0  0  0
  4 12  1  0  0  0  0
  4 19  1  0  0  0  0
  5 22  1  6  0  0  0
  5  7  1  0  0  0  0
  6 13  1  0  0  0  0
  7  6  1  0  0  0  0
  7  3  2  0  0  0  0
  8  4  2  0  0  0  0
  9 17  1  0  0  0  0
 10  5  1  0  0  0  0
 10 11  2  0  0  0  0
 11  2  1  0  0  0  0
 13  9  2  0  0  0  0
 13  8  1  0  0  0  0
 16 11  1  0  0  0  0
 16  1  2  0  0  0  0
 17 12  2  0  0  0  0
 18 19  1  0  0  0  0
 18 21  1  0  0  0  0
 19 20  2  0  0  0  0
 23 22  1  0  0  0  0
 24 25  1  0  0  0  0
 24 23  1  0  0  0  0
 25 26  1  0  0  0  0
 27 25  2  0  0  0  0
M  END
>  <MODEL>
4

>  <REMARK>
 VINA RESULT:      -8.3      3.299      8.443
  Name = 
  5 active torsions:
  status: ('A' for Active; 'I' for Inactive)
    1  A    between atoms: C_1  and  C_14
    2  A    between atoms: C_1  and  C_18
    3  A    between atoms: C_6  and  C_7
    4  A    between atoms: C_8  and  C_11
    5  A    between atoms: C_11  and  C_14
                            x       y       z     vdW  Elec       q    Type
                         _______ _______ _______ _____ _____    ______ ____

>  <TORSDO>
F 5

$$$$
=
 OpenBabel10222420173D

 27 30  0  0  1  0  0  0  0  0999 V2000
  188.8000  178.3160  138.7780 C   0  0  0  0  0  3  0  0  0  0  0  0
  189.0650  177.2750  141.0120 C   0  0  0  0  0  0  0  0  0  0  0  0
  189.2550  177.0090  143.4970 C   0  0  0  0  0  0  0  0  0  0  0  0
  191.5940  176.3830  146.9270 C   0  0  0  0  0  0  0  0  0  0  0  0
  186.8350  177.6700  143.0260 C   0  0  2  0  0  3  0  0  0  0  0  0
  188.0360  177.6780  145.6010 S   0  0  0  0  0  0  0  0  0  0  0  0
  188.0390  177.5550  143.9060 C   0  0  0  0  0  0  0  0  0  0  0  0
  190.2910  176.9110  146.9930 C   0  0  0  0  0  3  0  0  0  0  0  0
  190.1240  176.7580  144.5700 C   0  0  0  0  0  0  0  0  0  0  0  0
  187.0960  178.4230  141.8020 N   0  0  0  0  0  0  0  0  0  0  0  0
  188.0030  178.1880  140.8980 C   0  0  0  0  0  0  0  0  0  0  0  0
  192.1480  176.0460  145.6730 C   0  0  0  0  0  3  0  0  0  0  0  0
  189.5890  177.0890  145.8050 C   0  0  0  0  0  0  0  0  0  0  0  0
  189.7910  177.1720  139.5050 S   0  0  0  0  0  0  0  0  0  0  0  0
  189.6350  176.7510  142.1000 C   0  0  0  0  0  3  0  0  0  0  0  0
  187.8940  178.7700  139.6730 N   0  0  0  0  0  0  0  0  0  0  0  0
  191.4160  176.2310  144.4890 C   0  0  0  0  0  3  0  0  0  0  0  0
  192.7470  177.3010  148.9660 N   0  0  0  0  0  2  0  0  0  0  0  0
  192.3760  176.1790  148.1600 C   0  0  0  0  0  0  0  0  0  0  0  0
  192.7180  175.0160  148.5050 O   0  0  0  0  0  0  0  0  0  0  0  0
  193.5160  177.1510  150.1890 C   0  0  0  0  0  1  0  0  0  0  0  0
  185.6480  178.2860  143.7530 C   0  0  0  0  0  2  0  0  0  0  0  0
  184.9130  179.2540  142.8410 C   0  0  0  0  0  2  0  0  0  0  0  0
  183.6730  178.5970  142.2600 C   0  0  0  0  0  2  0  0  0  0  0  0
  183.7730  178.4990  140.7750 C   0  0  0  0  0  0  0  0  0  0  0  0
  184.3380  179.5370  140.0470 O   0  0  0  0  0  0  0  0  0  0  0  0
  183.3170  177.4890  140.1780 O   0  0  0  0  0  1  0  0  0  0  0  0
  1 14  1  0  0  0  0
  1 16  2  0  0  0  0
  2 15  2  0  0  0  0
  3  7  2  0  0  0  0
  3  9  1  0  0  0  0
  4  8  1  0  0  0  0
  4 19  1  0  0  0  0
  5 22  1  1  0  0  0
  5  7  1  0  0  0  0
  6 13  1  0  0  0  0
  7  6  1  0  0  0  0
  9 13  1  0  0  0  0
 10  5  1  0  0  0  0
 11  2  1  0  0  0  0
 11 10  2  0  0  0  0
 12  4  2  0  0  0  0
 13  8  2  0  0  0  0
 14  2  1  0  0  0  0
 15  3  1  0  0  0  0
 16 11  1  0  0  0  0
 17  9  2  0  0  0  0
 17 12  1  0  0  0  0
 18 21  1  0  0  0  0
 19 20  2  0  0  0  0
 19 18  1  0  0  0  0
 23 22  1  0  0  0  0
 24 23  1  0  0  0  0
 25 24  1  0  0  0  0
 26 25  2  0  0  0  0
 27 25  1  0  0  0  0
M  END
>  <MODEL>
5

>  <REMARK>
 VINA RESULT:      -8.3      2.494      8.161
  Name = 
  5 active torsions:
  status: ('A' for Active; 'I' for Inactive)
    1  A    between atoms: C_1  and  C_14
    2  A    between atoms: C_1  and  C_18
    3  A    between atoms: C_6  and  C_7
    4  A    between atoms: C_8  and  C_11
    5  A    between atoms: C_11  and  C_14
                            x       y       z     vdW  Elec       q    Type
                         _______ _______ _______ _____ _____    ______ ____

>  <TORSDO>
F 5

$$$$
=
 OpenBabel10222420173D

 27 30  0  0  1  0  0  0  0  0999 V2000
  190.7670  177.8750  145.9660 C   0  0  0  0  0  3  0  0  0  0  0  0
  188.5200  177.5400  144.9730 C   0  0  0  0  0  0  0  0  0  0  0  0
  186.4320  177.9320  143.6450 C   0  0  0  0  0  0  0  0  0  0  0  0
  182.3760  179.0040  143.4600 C   0  0  0  0  0  0  0  0  0  0  0  0
  188.2990  177.5320  141.9510 C   0  0  2  0  0  3  0  0  0  0  0  0
  185.7320  178.5640  141.3050 S   0  0  0  0  0  0  0  0  0  0  0  0
  186.9660  178.0700  142.3640 C   0  0  0  0  0  0  0  0  0  0  0  0
  183.2080  179.0170  142.3250 C   0  0  0  0  0  3  0  0  0  0  0  0
  185.0700  178.2690  143.7020 C   0  0  0  0  0  0  0  0  0  0  0  0
  189.3950  178.0300  142.7800 N   0  0  0  0  0  0  0  0  0  0  0  0
  189.5180  177.9470  144.0730 C   0  0  0  0  0  0  0  0  0  0  0  0
  182.9070  178.6200  144.7110 C   0  0  0  0  0  3  0  0  0  0  0  0
  184.5420  178.6490  142.4790 C   0  0  0  0  0  0  0  0  0  0  0  0
  189.2470  177.3720  146.4750 S   0  0  0  0  0  0  0  0  0  0  0  0
  187.1920  177.5220  144.8350 C   0  0  0  0  0  3  0  0  0  0  0  0
  190.7370  178.1540  144.6440 N   0  0  0  0  0  0  0  0  0  0  0  0
  184.2560  178.2500  144.8380 C   0  0  0  0  0  3  0  0  0  0  0  0
  180.5190  180.1860  142.2420 N   0  0  0  0  0  2  0  0  0  0  0  0
  180.9580  179.3870  143.3450 C   0  0  0  0  0  0  0  0  0  0  0  0
  180.1290  179.0100  144.2180 O   0  0  0  0  0  0  0  0  0  0  0  0
  179.1330  180.5880  142.0850 C   0  0  0  0  0  1  0  0  0  0  0  0
  188.6060  177.8160  140.4870 C   0  0  0  0  0  2  0  0  0  0  0  0
  190.0350  177.4190  140.1590 C   0  0  0  0  0  2  0  0  0  0  0  0
  190.2090  177.2530  138.6590 C   0  0  0  0  0  2  0  0  0  0  0  0
  191.2420  176.2210  138.3570 C   0  0  0  0  0  0  0  0  0  0  0  0
  192.5420  176.6070  138.0570 O   0  0  0  0  0  0  0  0  0  0  0  0
  190.9300  175.0020  138.3430 O   0  0  0  0  0  1  0  0  0  0  0  0
  1 14  1  0  0  0  0
  2 14  1  0  0  0  0
  3  9  1  0  0  0  0
  3 15  1  0  0  0  0
  4 12  1  0  0  0  0
  5 22  1  6  0  0  0
  5  7  1  0  0  0  0
  5 10  1  0  0  0  0
  6  7  1  0  0  0  0
  6 13  1  0  0  0  0
  7  3  2  0  0  0  0
  8 13  1  0  0  0  0
  8  4  2  0  0  0  0
  9 17  1  0  0  0  0
 10 11  2  0  0  0  0
 11 16  1  0  0  0  0
 11  2  1  0  0  0  0
 12 17  2  0  0  0  0
 13  9  2  0  0  0  0
 15  2  2  0  0  0  0
 16  1  2  0  0  0  0
 18 19  1  0  0  0  0
 19  4  1  0  0  0  0
 19 20  2  0  0  0  0
 21 18  1  0  0  0  0
 23 22  1  0  0  0  0
 24 23  1  0  0  0  0
 25 24  1  0  0  0  0
 26 25  2  0  0  0  0
 27 25  1  0  0  0  0
M  END
>  <MODEL>
6

>  <REMARK>
 VINA RESULT:      -8.0      2.948      4.618
  Name = 
  5 active torsions:
  status: ('A' for Active; 'I' for Inactive)
    1  A    between atoms: C_1  and  C_14
    2  A    between atoms: C_1  and  C_18
    3  A    between atoms: C_6  and  C_7
    4  A    between atoms: C_8  and  C_11
    5  A    between atoms: C_11  and  C_14
                            x       y       z     vdW  Elec       q    Type
                         _______ _______ _______ _____ _____    ______ ____

>  <TORSDO>
F 5

$$$$
=
 OpenBabel10222420173D

 27 30  0  0  1  0  0  0  0  0999 V2000
  189.9550  176.9910  146.5300 C   0  0  0  0  0  3  0  0  0  0  0  0
  190.4340  177.6010  144.1750 C   0  0  0  0  0  0  0  0  0  0  0  0
  190.4030  177.5900  141.6690 C   0  0  0  0  0  0  0  0  0  0  0  0
  192.2340  176.6630  138.0060 C   0  0  0  0  0  0  0  0  0  0  0  0
  188.0920  178.3770  142.4150 C   0  0  2  0  0  3  0  0  0  0  0  0
  188.7470  177.5820  139.7660 S   0  0  0  0  0  0  0  0  0  0  0  0
  189.0420  177.7730  141.4290 C   0  0  0  0  0  0  0  0  0  0  0  0
  190.8550  176.9250  138.1110 C   0  0  0  0  0  3  0  0  0  0  0  0
  191.1200  177.2710  140.5050 C   0  0  0  0  0  0  0  0  0  0  0  0
  188.0710  177.6690  143.6920 N   0  0  0  0  0  0  0  0  0  0  0  0
  189.0750  177.4200  144.4830 C   0  0  0  0  0  0  0  0  0  0  0  0
  193.0430  176.7090  139.1620 C   0  0  0  0  0  3  0  0  0  0  0  0
  190.3320  177.2210  139.3670 C   0  0  0  0  0  0  0  0  0  0  0  0
  191.2970  177.3720  145.5940 S   0  0  0  0  0  0  0  0  0  0  0  0
  191.0450  177.6730  142.9900 C   0  0  0  0  0  3  0  0  0  0  0  0
  188.8370  177.0560  145.7730 N   0  0  0  0  0  0  0  0  0  0  0  0
  192.4910  177.0140  140.4160 C   0  0  0  0  0  3  0  0  0  0  0  0
  194.2010  176.6600  136.4380 N   0  0  0  0  0  2  0  0  0  0  0  0
  192.8300  176.3430  136.6970 C   0  0  0  0  0  0  0  0  0  0  0  0
  192.1330  175.7900  135.8040 O   0  0  0  0  0  0  0  0  0  0  0  0
  194.8330  176.3640  135.1640 C   0  0  0  0  0  1  0  0  0  0  0  0
  186.6750  178.4690  141.8660 C   0  0  0  0  0  2  0  0  0  0  0  0
  185.6730  178.0090  142.9110 C   0  0  0  0  0  2  0  0  0  0  0  0
  184.9050  179.1960  143.4680 C   0  0  0  0  0  2  0  0  0  0  0  0
  184.7980  179.1080  144.9530 C   0  0  0  0  0  0  0  0  0  0  0  0
  183.5480  179.0820  145.5580 O   0  0  0  0  0  0  0  0  0  0  0  0
  185.8380  179.0880  145.6600 O   0  0  0  0  0  1  0  0  0  0  0  0
  2 11  1  0  0  0  0
  2 14  1  0  0  0  0
  3 15  1  0  0  0  0
  4  8  2  0  0  0  0
  4 12  1  0  0  0  0
  5 22  1  6  0  0  0
  5 10  1  0  0  0  0
  6  7  1  0  0  0  0
  7  3  2  0  0  0  0
  7  5  1  0  0  0  0
  8 13  1  0  0  0  0
  9  3  1  0  0  0  0
 10 11  2  0  0  0  0
 11 16  1  0  0  0  0
 12 17  2  0  0  0  0
 13  6  1  0  0  0  0
 13  9  2  0  0  0  0
 14  1  1  0  0  0  0
 15  2  2  0  0  0  0
 16  1  2  0  0  0  0
 17  9  1  0  0  0  0
 18 19  1  0  0  0  0
 19  4  1  0  0  0  0
 20 19  2  0  0  0  0
 21 18  1  0  0  0  0
 22 23  1  0  0  0  0
 23 24  1  0  0  0  0
 24 25  1  0  0  0  0
 25 26  2  0  0  0  0
 25 27  1  0  0  0  0
M  END
>  <MODEL>
7

>  <REMARK>
 VINA RESULT:      -7.7      3.502      8.588
  Name = 
  5 active torsions:
  status: ('A' for Active; 'I' for Inactive)
    1  A    between atoms: C_1  and  C_14
    2  A    between atoms: C_1  and  C_18
    3  A    between atoms: C_6  and  C_7
    4  A    between atoms: C_8  and  C_11
    5  A    between atoms: C_11  and  C_14
                            x       y       z     vdW  Elec       q    Type
                         _______ _______ _______ _____ _____    ______ ____

>  <TORSDO>
F 5

$$$$
=
 OpenBabel10222420173D

 27 30  0  0  1  0  0  0  0  0999 V2000
  183.3870  178.5780  143.6450 C   0  0  0  0  0  3  0  0  0  0  0  0
  185.7860  178.6530  144.2660 C   0  0  0  0  0  0  0  0  0  0  0  0
  188.1680  177.9570  144.6170 C   0  0  0  0  0  0  0  0  0  0  0  0
  191.2700  176.7380  147.1710 C   0  0  0  0  0  0  0  0  0  0  0  0
  187.8240  178.1020  142.0920 C   0  0  2  0  0  3  0  0  0  0  0  0
  190.0660  176.8860  143.3460 S   0  0  0  0  0  0  0  0  0  0  0  0
  188.5260  177.6050  143.3170 C   0  0  0  0  0  0  0  0  0  0  0  0
  191.3260  176.5460  145.7770 C   0  0  0  0  0  3  0  0  0  0  0  0
  189.1390  177.5930  145.5630 C   0  0  0  0  0  0  0  0  0  0  0  0
  186.3950  177.8000  142.0940 N   0  0  0  0  0  0  0  0  0  0  0  0
  185.5130  178.1220  142.9950 C   0  0  0  0  0  0  0  0  0  0  0  0
  190.1410  177.3610  147.7450 C   0  0  0  0  0  3  0  0  0  0  0  0
  190.2490  176.9780  145.0080 C   0  0  0  0  0  0  0  0  0  0  0  0
  184.3200  179.1160  144.9340 S   0  0  0  0  0  0  0  0  0  0  0  0
  186.9020  178.6020  144.9980 C   0  0  0  0  0  3  0  0  0  0  0  0
  184.1880  178.0620  142.6860 N   0  0  0  0  0  0  0  0  0  0  0  0
  189.0710  177.7920  146.9450 C   0  0  0  0  0  3  0  0  0  0  0  0
  192.8020  177.0970  149.1340 N   0  0  0  0  0  2  0  0  0  0  0  0
  192.3850  176.2940  148.0260 C   0  0  0  0  0  0  0  0  0  0  0  0
  192.9730  175.2060  147.7810 O   0  0  0  0  0  0  0  0  0  0  0  0
  193.8950  176.7010  150.0050 C   0  0  0  0  0  1  0  0  0  0  0  0
  188.4510  177.5650  140.8120 C   0  0  0  0  0  2  0  0  0  0  0  0
  188.5620  178.6690  139.7750 C   0  0  0  0  0  2  0  0  0  0  0  0
  188.4050  178.1000  138.3750 C   0  0  0  0  0  2  0  0  0  0  0  0
  186.9640  177.9150  138.0380 C   0  0  0  0  0  0  0  0  0  0  0  0
  186.5720  176.8700  137.2110 O   0  0  0  0  0  0  0  0  0  0  0  0
  186.1050  178.7230  138.4770 O   0  0  0  0  0  1  0  0  0  0  0  0
  1 14  1  0  0  0  0
  2 14  1  0  0  0  0
  2 15  2  0  0  0  0
  3 15  1  0  0  0  0
  3  9  1  0  0  0  0
  4 12  1  0  0  0  0
  4 19  1  0  0  0  0
  5 22  1  6  0  0  0
  5 10  1  0  0  0  0
  5  7  1  0  0  0  0
  6 13  1  0  0  0  0
  7  6  1  0  0  0  0
  7  3  2  0  0  0  0
  8  4  2  0  0  0  0
  9 17  1  0  0  0  0
 10 11  2  0  0  0  0
 11  2  1  0  0  0  0
 13  9  2  0  0  0  0
 13  8  1  0  0  0  0
 16 11  1  0  0  0  0
 16  1  2  0  0  0  0
 17 12  2  0  0  0  0
 18 21  1  0  0  0  0
 19 18  1  0  0  0  0
 20 19  2  0  0  0  0
 23 22  1  0  0  0  0
 24 23  1  0  0  0  0
 25 24  1  0  0  0  0
 25 27  1  0  0  0  0
 26 25  2  0  0  0  0
M  END
>  <MODEL>
8

>  <REMARK>
 VINA RESULT:      -7.6      3.285      8.607
  Name = 
  5 active torsions:
  status: ('A' for Active; 'I' for Inactive)
    1  A    between atoms: C_1  and  C_14
    2  A    between atoms: C_1  and  C_18
    3  A    between atoms: C_6  and  C_7
    4  A    between atoms: C_8  and  C_11
    5  A    between atoms: C_11  and  C_14
                            x       y       z     vdW  Elec       q    Type
                         _______ _______ _______ _____ _____    ______ ____

>  <TORSDO>
F 5

$$$$
=
 OpenBabel10222420173D

 27 30  0  0  1  0  0  0  0  0999 V2000
  182.8650  178.6830  144.0990 C   0  0  0  0  0  3  0  0  0  0  0  0
  185.2970  178.7550  144.5760 C   0  0  0  0  0  0  0  0  0  0  0  0
  187.6970  178.0610  144.7720 C   0  0  0  0  0  0  0  0  0  0  0  0
  190.9500  176.8080  147.1130 C   0  0  0  0  0  0  0  0  0  0  0  0
  187.2020  178.2470  142.2750 C   0  0  2  0  0  3  0  0  0  0  0  0
  189.5170  177.0180  143.3700 S   0  0  0  0  0  0  0  0  0  0  0  0
  187.9770  177.7320  143.4460 C   0  0  0  0  0  0  0  0  0  0  0  0
  190.9220  176.6390  145.7150 C   0  0  0  0  0  3  0  0  0  0  0  0
  188.7240  177.6830  145.6510 C   0  0  0  0  0  0  0  0  0  0  0  0
  185.7760  177.9410  142.3570 N   0  0  0  0  0  0  0  0  0  0  0  0
  184.9490  178.2440  143.3150 C   0  0  0  0  0  0  0  0  0  0  0  0
  189.8560  177.4170  147.7640 C   0  0  0  0  0  3  0  0  0  0  0  0
  189.8000  177.0810  145.0190 C   0  0  0  0  0  0  0  0  0  0  0  0
  183.8720  179.2010  145.3390 S   0  0  0  0  0  0  0  0  0  0  0  0
  186.4550  178.6940  145.2380 C   0  0  0  0  0  3  0  0  0  0  0  0
  183.6080  178.1850  143.0850 N   0  0  0  0  0  0  0  0  0  0  0  0
  188.7380  177.8580  147.0370 C   0  0  0  0  0  3  0  0  0  0  0  0
  192.5580  177.1050  149.0240 N   0  0  0  0  0  2  0  0  0  0  0  0
  192.1150  176.3530  147.8910 C   0  0  0  0  0  0  0  0  0  0  0  0
  192.7240  175.2990  147.5590 O   0  0  0  0  0  0  0  0  0  0  0  0
  193.7000  176.6960  149.8220 C   0  0  0  0  0  1  0  0  0  0  0  0
  187.7520  177.7350  140.9500 C   0  0  0  0  0  2  0  0  0  0  0  0
  188.7910  178.6970  140.4020 C   0  0  0  0  0  2  0  0  0  0  0  0
  189.4830  178.0970  139.1890 C   0  0  0  0  0  2  0  0  0  0  0  0
  190.5940  177.1950  139.6070 C   0  0  0  0  0  0  0  0  0  0  0  0
  191.7880  177.7320  140.0700 O   0  0  0  0  0  1  0  0  0  0  0  0
  190.4630  175.9470  139.5100 O   0  0  0  0  0  0  0  0  0  0  0  0
  1 14  1  0  0  0  0
  2 15  2  0  0  0  0
  2 14  1  0  0  0  0
  3 15  1  0  0  0  0
  3  9  1  0  0  0  0
  4 12  1  0  0  0  0
  4 19  1  0  0  0  0
  5 22  1  6  0  0  0
  5 10  1  0  0  0  0
  5  7  1  0  0  0  0
  6  7  1  0  0  0  0
  6 13  1  0  0  0  0
  7  3  2  0  0  0  0
  8  4  2  0  0  0  0
  9 17  1  0  0  0  0
 10 11  2  0  0  0  0
 11  2  1  0  0  0  0
 13  9  2  0  0  0  0
 13  8  1  0  0  0  0
 16 11  1  0  0  0  0
 16  1  2  0  0  0  0
 17 12  2  0  0  0  0
 18 21  1  0  0  0  0
 19 18  1  0  0  0  0
 20 19  2  0  0  0  0
 23 22  1  0  0  0  0
 24 25  1  0  0  0  0
 24 23  1  0  0  0  0
 25 26  1  0  0  0  0
 27 25  2  0  0  0  0
M  END
>  <MODEL>
9

>  <REMARK>
 VINA RESULT:      -7.5      3.041      8.052
  Name = 
  5 active torsions:
  status: ('A' for Active; 'I' for Inactive)
    1  A    between atoms: C_1  and  C_14
    2  A    between atoms: C_1  and  C_18
    3  A    between atoms: C_6  and  C_7
    4  A    between atoms: C_8  and  C_11
    5  A    between atoms: C_11  and  C_14
                            x       y       z     vdW  Elec       q    Type
                         _______ _______ _______ _____ _____    ______ ____

>  <TORSDO>
F 5

$$$$
