=
 OpenBabel10222416013D

 25 28  0  0  1  0  0  0  0  0999 V2000
  188.8360  177.5010  144.4650 C   0  0  0  0  0  0  0  0  0  0  0  0
  189.7320  178.7180  142.5730 C   0  0  0  0  0  3  0  0  0  0  0  0
  187.8720  177.1970  142.2650 C   0  0  0  0  0  3  0  0  0  0  0  0
  189.7550  178.4140  143.9370 C   0  0  0  0  0  3  0  0  0  0  0  0
  188.7920  178.1120  141.7320 C   0  0  0  0  0  0  0  0  0  0  0  0
  187.8960  176.8930  143.6290 C   0  0  0  0  0  3  0  0  0  0  0  0
  187.4190  178.7360  139.8150 N   0  0  0  0  0  0  0  0  0  0  0  0
  188.7940  178.4460  140.2720 C   0  0  2  0  0  3  0  0  0  0  0  0
  189.5330  175.7470  137.7840 N   0  0  0  0  0  0  0  0  0  0  0  0
  187.4550  177.0550  138.0470 C   0  0  0  0  0  3  0  0  0  0  0  0
  186.8010  178.1330  138.8280 C   0  0  0  0  0  0  0  0  0  0  0  0
  189.3960  177.3400  139.4560 C   0  0  0  0  0  0  0  0  0  0  0  0
  185.4730  178.5200  138.4940 N   0  0  0  0  0  1  0  0  0  0  0  0
  190.5900  176.7700  139.4430 C   0  0  0  0  0  0  0  0  0  0  0  0
  188.6870  176.7090  138.3910 C   0  0  0  0  0  0  0  0  0  0  0  0
  190.6470  175.7840  138.4030 N   0  0  0  0  0  0  0  0  0  0  0  0
  192.6110  177.3570  141.0430 C   0  0  0  0  0  3  0  0  0  0  0  0
  191.6890  177.0890  140.3140 C   0  0  0  0  0  0  0  0  0  0  0  0
  188.3420  177.3200  147.2470 C   0  0  0  0  0  2  0  0  0  0  0  0
  189.4430  176.5140  147.0490 C   0  0  1  0  0  3  0  0  0  0  0  0
  188.8600  177.1920  145.8540 N   0  0  0  0  0  0  0  0  0  0  0  0
  190.7110  177.2400  147.4510 C   0  0  0  0  0  2  0  0  0  0  0  0
  191.7230  176.9570  146.5330 O   0  0  0  0  0  0  0  0  0  0  0  0
  192.1740  175.6870  146.8890 C   0  0  0  0  0  2  0  0  0  0  0  0
  192.7620  175.7320  148.2840 C   0  0  0  0  0  1  0  0  0  0  0  0
  1 21  1  0  0  0  0
  2  4  2  0  0  0  0
  3  6  1  0  0  0  0
  4  1  1  0  0  0  0
  5  3  2  0  0  0  0
  5  2  1  0  0  0  0
  6  1  2  0  0  0  0
  7  8  1  0  0  0  0
  8  5  1  1  0  0  0
  9 15  1  0  0  0  0
  9 16  2  0  0  0  0
 10 15  2  0  0  0  0
 10 11  1  0  0  0  0
 11  7  2  0  0  0  0
 12  8  1  0  0  0  0
 13 11  1  0  0  0  0
 14 12  2  0  0  0  0
 14 18  1  0  0  0  0
 15 12  1  0  0  0  0
 16 14  1  0  0  0  0
 18 17  3  0  0  0  0
 20 19  1  0  0  0  0
 20 22  1  1  0  0  0
 21 20  1  0  0  0  0
 21 19  1  0  0  0  0
 23 24  1  0  0  0  0
 23 22  1  0  0  0  0
 24 25  1  0  0  0  0
M  END
>  <MODEL>
1

>  <REMARK>
 VINA RESULT:      -6.9      0.000      0.000
  Name = 
  6 active torsions:
  status: ('A' for Active; 'I' for Inactive)
    1  A    between atoms: C_3  and  N_21
    2  A    between atoms: C_4  and  C_22
    3  A    between atoms: O_7  and  C_11
    4  A    between atoms: O_7  and  C_12
    5  A    between atoms: C_11  and  C_20
    6  A    between atoms: C_17  and  C_19
                            x       y       z     vdW  Elec       q    Type
                         _______ _______ _______ _____ _____    ______ ____

>  <TORSDO>
F 6

$$$$
=
 OpenBabel10222416013D

 25 28  0  0  1  0  0  0  0  0999 V2000
  190.7390  176.9890  142.6440 C   0  0  0  0  0  0  0  0  0  0  0  0
  188.9180  177.0390  141.0480 C   0  0  0  0  0  3  0  0  0  0  0  0
  191.1620  177.6230  140.3450 C   0  0  0  0  0  3  0  0  0  0  0  0
  189.3840  176.8110  142.3460 C   0  0  0  0  0  3  0  0  0  0  0  0
  189.8030  177.4460  140.0440 C   0  0  0  0  0  0  0  0  0  0  0  0
  191.6270  177.3950  141.6430 C   0  0  0  0  0  3  0  0  0  0  0  0
  188.0100  178.4510  138.7290 N   0  0  0  0  0  0  0  0  0  0  0  0
  189.2780  177.6950  138.6630 C   0  0  2  0  0  3  0  0  0  0  0  0
  187.9780  174.8130  136.6560 N   0  0  0  0  0  0  0  0  0  0  0  0
  186.7480  176.8030  137.4480 C   0  0  0  0  0  3  0  0  0  0  0  0
  186.8720  178.0770  138.1960 C   0  0  0  0  0  0  0  0  0  0  0  0
  189.0860  176.4130  137.9080 C   0  0  0  0  0  0  0  0  0  0  0  0
  185.7270  178.9110  138.3360 N   0  0  0  0  0  1  0  0  0  0  0  0
  189.9100  175.4440  137.5420 C   0  0  0  0  0  0  0  0  0  0  0  0
  187.8280  176.0440  137.3460 C   0  0  0  0  0  0  0  0  0  0  0  0
  189.1990  174.4640  136.7740 N   0  0  0  0  0  0  0  0  0  0  0  0
  192.4940  175.3120  138.0870 C   0  0  0  0  0  3  0  0  0  0  0  0
  191.3160  175.3730  137.8390 C   0  0  0  0  0  0  0  0  0  0  0  0
  191.8560  175.9070  145.0090 C   0  0  0  0  0  2  0  0  0  0  0  0
  191.4230  177.1610  145.3850 C   0  0  1  0  0  3  0  0  0  0  0  0
  191.2130  176.7570  143.9650 N   0  0  0  0  0  0  0  0  0  0  0  0
  190.1000  177.0680  146.1190 C   0  0  0  0  0  2  0  0  0  0  0  0
  189.2370  178.0620  145.6570 O   0  0  0  0  0  0  0  0  0  0  0  0
  187.9960  177.7260  146.1960 C   0  0  0  0  0  2  0  0  0  0  0  0
  187.0120  177.4680  145.0740 C   0  0  0  0  0  1  0  0  0  0  0  0
  1 21  1  0  0  0  0
  2  4  2  0  0  0  0
  3  6  1  0  0  0  0
  4  1  1  0  0  0  0
  5  3  2  0  0  0  0
  5  2  1  0  0  0  0
  6  1  2  0  0  0  0
  8  7  1  0  0  0  0
  8  5  1  1  0  0  0
  9 16  2  0  0  0  0
  9 15  1  0  0  0  0
 10 11  1  0  0  0  0
 11 13  1  0  0  0  0
 11  7  2  0  0  0  0
 12  8  1  0  0  0  0
 14 18  1  0  0  0  0
 14 12  2  0  0  0  0
 15 10  2  0  0  0  0
 15 12  1  0  0  0  0
 16 14  1  0  0  0  0
 18 17  3  0  0  0  0
 19 20  1  0  0  0  0
 20 22  1  1  0  0  0
 21 19  1  0  0  0  0
 21 20  1  0  0  0  0
 23 22  1  0  0  0  0
 23 24  1  0  0  0  0
 25 24  1  0  0  0  0
M  END
>  <MODEL>
2

>  <REMARK>
 VINA RESULT:      -6.6      1.746      2.974
  Name = 
  6 active torsions:
  status: ('A' for Active; 'I' for Inactive)
    1  A    between atoms: C_3  and  N_21
    2  A    between atoms: C_4  and  C_22
    3  A    between atoms: O_7  and  C_11
    4  A    between atoms: O_7  and  C_12
    5  A    between atoms: C_11  and  C_20
    6  A    between atoms: C_17  and  C_19
                            x       y       z     vdW  Elec       q    Type
                         _______ _______ _______ _____ _____    ______ ____

>  <TORSDO>
F 6

$$$$
=
 OpenBabel10222416013D

 25 28  0  0  1  0  0  0  0  0999 V2000
  190.2330  177.1660  142.2820 C   0  0  0  0  0  0  0  0  0  0  0  0
  188.5060  175.9870  143.5030 C   0  0  0  0  0  3  0  0  0  0  0  0
  189.3490  178.1010  144.3330 C   0  0  0  0  0  3  0  0  0  0  0  0
  189.3760  176.0680  142.4130 C   0  0  0  0  0  3  0  0  0  0  0  0
  188.4890  177.0000  144.4670 C   0  0  0  0  0  0  0  0  0  0  0  0
  190.2190  178.1820  143.2420 C   0  0  0  0  0  3  0  0  0  0  0  0
  186.2320  177.4430  145.2830 N   0  0  0  0  0  0  0  0  0  0  0  0
  187.5560  176.8860  145.6330 C   0  0  0  0  0  0  0  0  0  0  0  0
  188.1480  179.0080  148.6600 N   0  0  0  0  0  0  0  0  0  0  0  0
  186.1990  179.0200  147.1440 C   0  0  0  0  0  3  0  0  0  0  0  0
  185.6070  178.3910  145.9390 C   0  0  0  0  0  0  0  0  0  0  0  0
  188.1080  177.5710  146.8490 C   0  0  0  0  0  0  0  0  0  0  0  0
  184.3300  178.8280  145.4870 N   0  0  0  0  0  1  0  0  0  0  0  0
  189.2070  177.3970  147.5660 C   0  0  0  0  0  0  0  0  0  0  0  0
  187.3940  178.6000  147.5310 C   0  0  0  0  0  0  0  0  0  0  0  0
  189.2100  178.3030  148.6780 N   0  0  0  0  0  2  0  0  0  0  0  0
  191.1130  175.6300  147.0840 C   0  0  0  0  0  3  0  0  0  0  0  0
  190.2450  176.4360  147.3030 C   0  0  0  0  0  0  0  0  0  0  0  0
  192.3010  177.8180  140.4610 C   0  0  0  0  0  2  0  0  0  0  0  0
  191.5640  176.8570  139.8020 C   0  0  1  0  0  3  0  0  0  0  0  0
  191.1180  177.2490  141.1710 N   0  0  0  0  0  0  0  0  0  0  0  0
  190.6410  177.4990  138.7860 C   0  0  0  0  0  2  0  0  0  0  0  0
  189.4740  176.7430  138.6700 O   0  0  0  0  0  0  0  0  0  0  0  0
  188.4760  177.6790  138.4020 C   0  0  0  0  0  2  0  0  0  0  0  0
  187.9810  178.2760  139.7030 C   0  0  0  0  0  1  0  0  0  0  0  0
  1  4  2  0  0  0  0
  1  6  1  0  0  0  0
  2  5  2  0  0  0  0
  3  5  1  0  0  0  0
  4  2  1  0  0  0  0
  5  8  1  0  0  0  0
  6  3  2  0  0  0  0
  7  8  2  0  0  0  0
  7 11  1  0  0  0  0
  8 12  1  0  0  0  0
  9 16  1  0  0  0  0
 10 15  1  0  0  0  0
 11 10  2  0  0  0  0
 12 15  1  0  0  0  0
 12 14  2  0  0  0  0
 13 11  1  0  0  0  0
 14 16  1  0  0  0  0
 15  9  2  0  0  0  0
 17 18  3  0  0  0  0
 18 14  1  0  0  0  0
 19 21  1  0  0  0  0
 20 22  1  6  0  0  0
 20 19  1  0  0  0  0
 20 21  1  0  0  0  0
 21  1  1  0  0  0  0
 23 22  1  0  0  0  0
 24 23  1  0  0  0  0
 24 25  1  0  0  0  0
M  END
>  <MODEL>
3

>  <REMARK>
 VINA RESULT:      -6.5      2.722      7.311
  Name = 
  6 active torsions:
  status: ('A' for Active; 'I' for Inactive)
    1  A    between atoms: C_3  and  N_21
    2  A    between atoms: C_4  and  C_22
    3  A    between atoms: O_7  and  C_11
    4  A    between atoms: O_7  and  C_12
    5  A    between atoms: C_11  and  C_20
    6  A    between atoms: C_17  and  C_19
                            x       y       z     vdW  Elec       q    Type
                         _______ _______ _______ _____ _____    ______ ____

>  <TORSDO>
F 6

$$$$
=
 OpenBabel10222416013D

 25 28  0  0  1  0  0  0  0  0999 V2000
  182.6260  178.8250  143.0540 C   0  0  0  0  0  0  0  0  0  0  0  0
  184.8170  179.6520  143.6760 C   0  0  0  0  0  3  0  0  0  0  0  0
  184.5650  178.2230  141.7350 C   0  0  0  0  0  3  0  0  0  0  0  0
  183.4410  179.5770  143.9080 C   0  0  0  0  0  3  0  0  0  0  0  0
  185.3840  178.9770  142.5900 C   0  0  0  0  0  0  0  0  0  0  0  0
  183.1890  178.1490  141.9690 C   0  0  0  0  0  3  0  0  0  0  0  0
  187.1530  179.1890  140.9230 N   0  0  0  0  0  0  0  0  0  0  0  0
  186.8630  179.0620  142.3670 C   0  0  2  0  0  3  0  0  0  0  0  0
  188.9810  176.0380  142.9870 N   0  0  0  0  0  0  0  0  0  0  0  0
  188.6230  177.2430  140.8610 C   0  0  0  0  0  3  0  0  0  0  0  0
  187.9330  178.3950  140.2310 C   0  0  0  0  0  0  0  0  0  0  0  0
  187.5760  177.8750  142.9430 C   0  0  0  0  0  0  0  0  0  0  0  0
  188.1250  178.6400  138.8430 N   0  0  0  0  0  1  0  0  0  0  0  0
  187.6750  177.3840  144.1690 C   0  0  0  0  0  0  0  0  0  0  0  0
  188.4140  177.0350  142.1530 C   0  0  0  0  0  0  0  0  0  0  0  0
  188.5460  176.2450  144.1670 N   0  0  0  0  0  0  0  0  0  0  0  0
  186.4960  178.3500  146.3280 C   0  0  0  0  0  3  0  0  0  0  0  0
  187.0350  177.9100  145.3450 C   0  0  0  0  0  0  0  0  0  0  0  0
  180.0340  178.2280  144.0230 C   0  0  0  0  0  2  0  0  0  0  0  0
  179.8100  179.1050  142.9830 C   0  0  1  0  0  3  0  0  0  0  0  0
  181.2250  178.7500  143.2920 N   0  0  0  0  0  0  0  0  0  0  0  0
  179.3790  178.3540  141.7390 C   0  0  0  0  0  2  0  0  0  0  0  0
  179.3940  176.9820  141.9910 O   0  0  0  0  0  0  0  0  0  0  0  0
  179.4480  176.3940  140.7290 C   0  0  0  0  0  2  0  0  0  0  0  0
  180.3360  177.2210  139.8240 C   0  0  0  0  0  1  0  0  0  0  0  0
  1 21  1  0  0  0  0
  1  4  1  0  0  0  0
  2  4  2  0  0  0  0
  3  6  1  0  0  0  0
  3  5  2  0  0  0  0
  5  2  1  0  0  0  0
  6  1  2  0  0  0  0
  7  8  1  0  0  0  0
  8  5  1  6  0  0  0
  8 12  1  0  0  0  0
  9 16  2  0  0  0  0
 10 15  2  0  0  0  0
 11 10  1  0  0  0  0
 11  7  2  0  0  0  0
 12 14  2  0  0  0  0
 13 11  1  0  0  0  0
 14 18  1  0  0  0  0
 15 12  1  0  0  0  0
 15  9  1  0  0  0  0
 16 14  1  0  0  0  0
 18 17  3  0  0  0  0
 20 22  1  6  0  0  0
 20 21  1  0  0  0  0
 20 19  1  0  0  0  0
 21 19  1  0  0  0  0
 22 23  1  0  0  0  0
 24 23  1  0  0  0  0
 25 24  1  0  0  0  0
M  END
>  <MODEL>
4

>  <REMARK>
 VINA RESULT:      -6.4      5.164      7.639
  Name = 
  6 active torsions:
  status: ('A' for Active; 'I' for Inactive)
    1  A    between atoms: C_3  and  N_21
    2  A    between atoms: C_4  and  C_22
    3  A    between atoms: O_7  and  C_11
    4  A    between atoms: O_7  and  C_12
    5  A    between atoms: C_11  and  C_20
    6  A    between atoms: C_17  and  C_19
                            x       y       z     vdW  Elec       q    Type
                         _______ _______ _______ _____ _____    ______ ____

>  <TORSDO>
F 6

$$$$
=
 OpenBabel10222416013D

 25 28  0  0  1  0  0  0  0  0999 V2000
  188.8930  177.6660  141.3390 C   0  0  0  0  0  0  0  0  0  0  0  0
  187.6880  178.2790  143.3490 C   0  0  0  0  0  3  0  0  0  0  0  0
  188.8640  176.1630  143.2370 C   0  0  0  0  0  3  0  0  0  0  0  0
  188.1000  178.5760  142.0470 C   0  0  0  0  0  3  0  0  0  0  0  0
  188.0670  177.0740  143.9490 C   0  0  0  0  0  0  0  0  0  0  0  0
  189.2740  176.4600  141.9350 C   0  0  0  0  0  3  0  0  0  0  0  0
  186.2040  177.2080  145.5190 N   0  0  0  0  0  0  0  0  0  0  0  0
  187.6060  176.7730  145.3420 C   0  0  0  0  0  0  0  0  0  0  0  0
  189.0430  178.7140  148.2020 N   0  0  0  0  0  0  0  0  0  0  0  0
  186.6960  178.6290  147.4400 C   0  0  0  0  0  3  0  0  0  0  0  0
  185.7730  178.0320  146.4440 C   0  0  0  0  0  0  0  0  0  0  0  0
  188.4890  177.4200  146.3670 C   0  0  0  0  0  0  0  0  0  0  0  0
  184.3900  178.3610  146.4980 N   0  0  0  0  0  1  0  0  0  0  0  0
  189.7780  177.3130  146.6500 C   0  0  0  0  0  0  0  0  0  0  0  0
  187.9790  178.3120  147.3550 C   0  0  0  0  0  0  0  0  0  0  0  0
  190.0960  178.1280  147.7860 N   0  0  0  0  0  2  0  0  0  0  0  0
  191.5300  175.8030  145.3700 C   0  0  0  0  0  3  0  0  0  0  0  0
  190.7310  176.4920  145.9520 C   0  0  0  0  0  0  0  0  0  0  0  0
  189.1400  178.6450  138.6940 C   0  0  0  0  0  2  0  0  0  0  0  0
  190.2420  177.8310  138.8560 C   0  0  1  0  0  3  0  0  0  0  0  0
  189.3110  177.9690  140.0130 N   0  0  0  0  0  0  0  0  0  0  0  0
  190.0080  176.4850  138.2000 C   0  0  0  0  0  2  0  0  0  0  0  0
  190.8280  175.5250  138.7940 O   0  0  0  0  0  0  0  0  0  0  0  0
  191.5300  174.9580  137.7320 C   0  0  0  0  0  2  0  0  0  0  0  0
  192.8560  175.6700  137.5650 C   0  0  0  0  0  1  0  0  0  0  0  0
  1  6  2  0  0  0  0
  1  4  1  0  0  0  0
  2  5  1  0  0  0  0
  3  5  2  0  0  0  0
  4  2  2  0  0  0  0
  5  8  1  0  0  0  0
  6  3  1  0  0  0  0
  7 11  1  0  0  0  0
  8  7  2  0  0  0  0
  8 12  1  0  0  0  0
 11 13  1  0  0  0  0
 11 10  2  0  0  0  0
 12 14  2  0  0  0  0
 12 15  1  0  0  0  0
 14 16  1  0  0  0  0
 15 10  1  0  0  0  0
 15  9  2  0  0  0  0
 16  9  1  0  0  0  0
 17 18  3  0  0  0  0
 18 14  1  0  0  0  0
 19 20  1  0  0  0  0
 19 21  1  0  0  0  0
 20 22  1  6  0  0  0
 20 21  1  0  0  0  0
 21  1  1  0  0  0  0
 22 23  1  0  0  0  0
 24 23  1  0  0  0  0
 25 24  1  0  0  0  0
M  END
>  <MODEL>
5

>  <REMARK>
 VINA RESULT:      -6.1      2.609      7.206
  Name = 
  6 active torsions:
  status: ('A' for Active; 'I' for Inactive)
    1  A    between atoms: C_3  and  N_21
    2  A    between atoms: C_4  and  C_22
    3  A    between atoms: O_7  and  C_11
    4  A    between atoms: O_7  and  C_12
    5  A    between atoms: C_11  and  C_20
    6  A    between atoms: C_17  and  C_19
                            x       y       z     vdW  Elec       q    Type
                         _______ _______ _______ _____ _____    ______ ____

>  <TORSDO>
F 6

$$$$
=
 OpenBabel10222416013D

 25 28  0  0  1  0  0  0  0  0999 V2000
  191.0620  177.1880  141.9860 C   0  0  0  0  0  0  0  0  0  0  0  0
  189.4640  177.1550  140.1670 C   0  0  0  0  0  3  0  0  0  0  0  0
  191.8170  177.5060  139.7080 C   0  0  0  0  0  3  0  0  0  0  0  0
  189.7450  177.0600  141.5330 C   0  0  0  0  0  3  0  0  0  0  0  0
  190.4960  177.3780  139.2500 C   0  0  0  0  0  0  0  0  0  0  0  0
  192.0970  177.4110  141.0740 C   0  0  0  0  0  3  0  0  0  0  0  0
  189.0570  178.4400  137.5900 N   0  0  0  0  0  0  0  0  0  0  0  0
  190.1700  177.4880  137.7930 C   0  0  2  0  0  3  0  0  0  0  0  0
  188.5880  174.5750  136.0520 N   0  0  0  0  0  0  0  0  0  0  0  0
  187.6580  176.8360  136.3970 C   0  0  0  0  0  3  0  0  0  0  0  0
  187.9310  178.1760  136.9720 C   0  0  0  0  0  0  0  0  0  0  0  0
  189.8290  176.1510  137.2020 C   0  0  0  0  0  0  0  0  0  0  0  0
  186.9460  179.1950  136.8480 N   0  0  0  0  0  1  0  0  0  0  0  0
  190.5000  175.0160  137.0830 C   0  0  0  0  0  0  0  0  0  0  0  0
  188.5910  175.9060  136.5400 C   0  0  0  0  0  0  0  0  0  0  0  0
  189.7080  174.0560  136.3720 N   0  0  0  0  0  0  0  0  0  0  0  0
  192.9490  174.5610  137.9680 C   0  0  0  0  0  3  0  0  0  0  0  0
  191.8330  174.7670  137.5640 C   0  0  0  0  0  0  0  0  0  0  0  0
  191.6640  176.3140  144.6110 C   0  0  0  0  0  2  0  0  0  0  0  0
  191.5300  177.6810  144.7340 C   0  0  1  0  0  3  0  0  0  0  0  0
  191.3480  177.0910  143.3770 N   0  0  0  0  0  0  0  0  0  0  0  0
  190.1680  178.0320  145.3000 C   0  0  0  0  0  2  0  0  0  0  0  0
  189.5910  176.8960  145.8680 O   0  0  0  0  0  0  0  0  0  0  0  0
  188.2350  177.2050  145.9670 C   0  0  0  0  0  2  0  0  0  0  0  0
  187.6840  177.5030  144.5880 C   0  0  0  0  0  1  0  0  0  0  0  0
  1 21  1  0  0  0  0
  2  4  2  0  0  0  0
  3  6  1  0  0  0  0
  4  1  1  0  0  0  0
  5  3  2  0  0  0  0
  5  2  1  0  0  0  0
  6  1  2  0  0  0  0
  7  8  1  0  0  0  0
  8  5  1  1  0  0  0
  9 16  2  0  0  0  0
  9 15  1  0  0  0  0
 10 15  2  0  0  0  0
 10 11  1  0  0  0  0
 11  7  2  0  0  0  0
 12  8  1  0  0  0  0
 13 11  1  0  0  0  0
 14 12  2  0  0  0  0
 14 18  1  0  0  0  0
 15 12  1  0  0  0  0
 16 14  1  0  0  0  0
 18 17  3  0  0  0  0
 19 20  1  0  0  0  0
 20 22  1  1  0  0  0
 21 19  1  0  0  0  0
 21 20  1  0  0  0  0
 22 23  1  0  0  0  0
 23 24  1  0  0  0  0
 25 24  1  0  0  0  0
M  END
>  <MODEL>
6

>  <REMARK>
 VINA RESULT:      -5.9      2.079      3.407
  Name = 
  6 active torsions:
  status: ('A' for Active; 'I' for Inactive)
    1  A    between atoms: C_3  and  N_21
    2  A    between atoms: C_4  and  C_22
    3  A    between atoms: O_7  and  C_11
    4  A    between atoms: O_7  and  C_12
    5  A    between atoms: C_11  and  C_20
    6  A    between atoms: C_17  and  C_19
                            x       y       z     vdW  Elec       q    Type
                         _______ _______ _______ _____ _____    ______ ____

>  <TORSDO>
F 6

$$$$
=
 OpenBabel10222416013D

 25 28  0  0  1  0  0  0  0  0999 V2000
  185.8140  178.4360  141.3460 C   0  0  0  0  0  0  0  0  0  0  0  0
  183.4650  178.4420  141.9380 C   0  0  0  0  0  3  0  0  0  0  0  0
  184.1350  178.7520  139.6300 C   0  0  0  0  0  3  0  0  0  0  0  0
  184.8070  178.3350  142.3120 C   0  0  0  0  0  3  0  0  0  0  0  0
  183.1230  178.6510  140.5980 C   0  0  0  0  0  0  0  0  0  0  0  0
  185.4770  178.6450  140.0060 C   0  0  0  0  0  3  0  0  0  0  0  0
  181.0390  179.8520  141.0040 N   0  0  0  0  0  0  0  0  0  0  0  0
  181.6790  178.7730  140.2210 C   0  0  0  0  0  0  0  0  0  0  0  0
  179.3020  176.0460  141.1880 N   0  0  0  0  0  0  0  0  0  0  0  0
  179.2840  178.4110  141.8980 C   0  0  0  0  0  3  0  0  0  0  0  0
  179.9730  179.7170  141.7560 C   0  0  0  0  0  0  0  0  0  0  0  0
  180.9470  177.4780  140.4170 C   0  0  0  0  0  0  0  0  0  0  0  0
  179.4620  180.8480  142.4530 N   0  0  0  0  0  1  0  0  0  0  0  0
  181.0950  176.2670  139.9030 C   0  0  0  0  0  0  0  0  0  0  0  0
  179.7920  177.3760  141.2470 C   0  0  2  0  0  3  0  0  0  0  0  0
  180.0680  175.3990  140.4000 N   0  0  0  0  0  0  0  0  0  0  0  0
  182.9620  175.5260  138.1850 C   0  0  0  0  0  3  0  0  0  0  0  0
  182.1110  175.8640  138.9670 C   0  0  0  0  0  0  0  0  0  0  0  0
  188.6320  178.1770  141.4200 C   0  0  0  0  0  2  0  0  0  0  0  0
  188.2650  178.2410  142.7480 C   0  0  1  0  0  3  0  0  0  0  0  0
  187.1800  178.3270  141.7280 N   0  0  0  0  0  0  0  0  0  0  0  0
  188.2500  176.8550  143.3610 C   0  0  0  0  0  2  0  0  0  0  0  0
  187.1820  176.7500  144.2520 O   0  0  0  0  0  0  0  0  0  0  0  0
  187.5470  177.5490  145.3340 C   0  0  0  0  0  2  0  0  0  0  0  0
  186.3150  178.2180  145.9060 C   0  0  0  0  0  1  0  0  0  0  0  0
  1 21  1  0  0  0  0
  1  4  1  0  0  0  0
  2  4  2  0  0  0  0
  3  6  1  0  0  0  0
  3  5  2  0  0  0  0
  5  2  1  0  0  0  0
  6  1  2  0  0  0  0
  7 11  1  0  0  0  0
  8 12  1  0  0  0  0
  8  5  1  0  0  0  0
  8  7  2  0  0  0  0
  9 15  1  0  0  0  0
 11 10  2  0  0  0  0
 11 13  1  0  0  0  0
 12 15  1  0  0  0  0
 14 16  1  0  0  0  0
 14 12  2  0  0  0  0
 15 10  1  6  0  0  0
 16  9  2  0  0  0  0
 17 18  3  0  0  0  0
 18 14  1  0  0  0  0
 19 21  1  0  0  0  0
 19 20  1  0  0  0  0
 20 22  1  1  0  0  0
 21 20  1  0  0  0  0
 22 23  1  0  0  0  0
 23 24  1  0  0  0  0
 24 25  1  0  0  0  0
M  END
>  <MODEL>
7

>  <REMARK>
 VINA RESULT:      -5.9      4.970      7.346
  Name = 
  6 active torsions:
  status: ('A' for Active; 'I' for Inactive)
    1  A    between atoms: C_3  and  N_21
    2  A    between atoms: C_4  and  C_22
    3  A    between atoms: O_7  and  C_11
    4  A    between atoms: O_7  and  C_12
    5  A    between atoms: C_11  and  C_20
    6  A    between atoms: C_17  and  C_19
                            x       y       z     vdW  Elec       q    Type
                         _______ _______ _______ _____ _____    ______ ____

>  <TORSDO>
F 6

$$$$
=
 OpenBabel10222416013D

 25 28  0  0  1  0  0  0  0  0999 V2000
  188.1130  177.9470  143.8850 C   0  0  0  0  0  0  0  0  0  0  0  0
  187.2380  177.9640  141.6260 C   0  0  0  0  0  3  0  0  0  0  0  0
  189.6110  178.2690  142.0110 C   0  0  0  0  0  3  0  0  0  0  0  0
  187.0310  177.8510  143.0040 C   0  0  0  0  0  3  0  0  0  0  0  0
  188.5270  178.1730  141.1240 C   0  0  0  0  0  0  0  0  0  0  0  0
  189.4020  178.1560  143.3880 C   0  0  0  0  0  3  0  0  0  0  0  0
  187.4190  178.4600  138.9700 N   0  0  0  0  0  0  0  0  0  0  0  0
  188.7240  178.3020  139.6450 C   0  0  2  0  0  3  0  0  0  0  0  0
  189.8830  175.3260  137.6910 N   0  0  0  0  0  0  0  0  0  0  0  0
  187.7510  176.5560  137.4810 C   0  0  0  0  0  3  0  0  0  0  0  0
  186.9640  177.6980  138.0040 C   0  0  0  0  0  0  0  0  0  0  0  0
  189.4660  177.1250  139.0840 C   0  0  0  0  0  0  0  0  0  0  0  0
  185.6850  177.9710  137.4430 N   0  0  0  0  0  1  0  0  0  0  0  0
  190.6670  176.6170  139.3140 C   0  0  0  0  0  0  0  0  0  0  0  0
  188.9320  176.3210  138.0340 C   0  0  0  0  0  0  0  0  0  0  0  0
  190.8970  175.5010  138.4430 N   0  0  0  0  0  0  0  0  0  0  0  0
  192.4240  177.5140  141.0730 C   0  0  0  0  0  3  0  0  0  0  0  0
  191.6220  177.1060  140.2710 C   0  0  0  0  0  0  0  0  0  0  0  0
  188.1110  177.1680  146.6070 C   0  0  0  0  0  2  0  0  0  0  0  0
  187.2700  178.2600  146.5690 C   0  0  1  0  0  3  0  0  0  0  0  0
  187.9000  177.8320  145.2870 N   0  0  0  0  0  0  0  0  0  0  0  0
  185.8210  177.8150  146.5730 C   0  0  0  0  0  2  0  0  0  0  0  0
  184.9870  178.9330  146.5500 O   0  0  0  0  0  0  0  0  0  0  0  0
  184.1210  178.7030  145.4820 C   0  0  0  0  0  2  0  0  0  0  0  0
  184.3680  179.7340  144.4010 C   0  0  0  0  0  1  0  0  0  0  0  0
  1 21  1  0  0  0  0
  2  4  1  0  0  0  0
  3  6  2  0  0  0  0
  4  1  2  0  0  0  0
  5  2  2  0  0  0  0
  5  3  1  0  0  0  0
  6  1  1  0  0  0  0
  7  8  1  0  0  0  0
  8  5  1  1  0  0  0
  9 15  1  0  0  0  0
  9 16  2  0  0  0  0
 10 11  1  0  0  0  0
 10 15  2  0  0  0  0
 11  7  2  0  0  0  0
 12 14  2  0  0  0  0
 12  8  1  0  0  0  0
 13 11  1  0  0  0  0
 14 18  1  0  0  0  0
 15 12  1  0  0  0  0
 16 14  1  0  0  0  0
 18 17  3  0  0  0  0
 20 22  1  6  0  0  0
 20 19  1  0  0  0  0
 21 20  1  0  0  0  0
 21 19  1  0  0  0  0
 23 22  1  0  0  0  0
 24 23  1  0  0  0  0
 25 24  1  0  0  0  0
M  END
>  <MODEL>
8

>  <REMARK>
 VINA RESULT:      -5.8      2.164      3.424
  Name = 
  6 active torsions:
  status: ('A' for Active; 'I' for Inactive)
    1  A    between atoms: C_3  and  N_21
    2  A    between atoms: C_4  and  C_22
    3  A    between atoms: O_7  and  C_11
    4  A    between atoms: O_7  and  C_12
    5  A    between atoms: C_11  and  C_20
    6  A    between atoms: C_17  and  C_19
                            x       y       z     vdW  Elec       q    Type
                         _______ _______ _______ _____ _____    ______ ____

>  <TORSDO>
F 6

$$$$
=
 OpenBabel10222416013D

 25 28  0  0  1  0  0  0  0  0999 V2000
  188.8860  177.5900  141.3020 C   0  0  0  0  0  0  0  0  0  0  0  0
  187.7110  178.2040  143.3290 C   0  0  0  0  0  3  0  0  0  0  0  0
  188.9280  176.1120  143.2190 C   0  0  0  0  0  3  0  0  0  0  0  0
  188.0890  178.4920  142.0140 C   0  0  0  0  0  3  0  0  0  0  0  0
  188.1280  177.0150  143.9360 C   0  0  0  0  0  0  0  0  0  0  0  0
  189.3050  176.4010  141.9040 C   0  0  0  0  0  3  0  0  0  0  0  0
  186.3150  177.1860  145.5600 N   0  0  0  0  0  0  0  0  0  0  0  0
  187.7020  176.7230  145.3420 C   0  0  0  0  0  0  0  0  0  0  0  0
  189.2630  178.6330  148.1580 N   0  0  0  0  0  0  0  0  0  0  0  0
  186.8930  178.5960  147.4660 C   0  0  0  0  0  3  0  0  0  0  0  0
  185.9290  178.0170  146.4980 C   0  0  0  0  0  0  0  0  0  0  0  0
  188.6290  177.3510  146.3400 C   0  0  0  0  0  0  0  0  0  0  0  0
  184.5550  178.3750  146.5930 N   0  0  0  0  0  1  0  0  0  0  0  0
  189.9230  177.2180  146.5840 C   0  0  0  0  0  0  0  0  0  0  0  0
  188.1660  178.2530  147.3430 C   0  0  0  0  0  0  0  0  0  0  0  0
  190.2910  178.0260  147.7100 N   0  0  0  0  0  2  0  0  0  0  0  0
  191.6070  175.6760  145.2520 C   0  0  0  0  0  3  0  0  0  0  0  0
  190.8380  176.3790  145.8590 C   0  0  0  0  0  0  0  0  0  0  0  0
  189.2950  178.7620  138.7570 C   0  0  0  0  0  2  0  0  0  0  0  0
  189.9300  177.5410  138.6710 C   0  0  1  0  0  3  0  0  0  0  0  0
  189.2700  177.8850  139.9630 N   0  0  0  0  0  0  0  0  0  0  0  0
  189.0630  176.5430  137.9300 C   0  0  0  0  0  2  0  0  0  0  0  0
  188.4010  177.1840  136.8830 O   0  0  0  0  0  0  0  0  0  0  0  0
  187.1540  176.5630  136.8240 C   0  0  0  0  0  2  0  0  0  0  0  0
  186.1020  177.4880  137.4000 C   0  0  0  0  0  1  0  0  0  0  0  0
  1  6  2  0  0  0  0
  1  4  1  0  0  0  0
  2  5  1  0  0  0  0
  3  5  2  0  0  0  0
  4  2  2  0  0  0  0
  5  8  1  0  0  0  0
  6  3  1  0  0  0  0
  7 11  1  0  0  0  0
  8  7  2  0  0  0  0
  8 12  1  0  0  0  0
 11 13  1  0  0  0  0
 11 10  2  0  0  0  0
 12 14  2  0  0  0  0
 12 15  1  0  0  0  0
 14 16  1  0  0  0  0
 15 10  1  0  0  0  0
 15  9  2  0  0  0  0
 16  9  1  0  0  0  0
 17 18  3  0  0  0  0
 18 14  1  0  0  0  0
 19 21  1  0  0  0  0
 20 22  1  6  0  0  0
 20 19  1  0  0  0  0
 20 21  1  0  0  0  0
 21  1  1  0  0  0  0
 23 22  1  0  0  0  0
 24 23  1  0  0  0  0
 24 25  1  0  0  0  0
M  END
>  <MODEL>
9

>  <REMARK>
 VINA RESULT:      -5.7      2.864      7.582
  Name = 
  6 active torsions:
  status: ('A' for Active; 'I' for Inactive)
    1  A    between atoms: C_3  and  N_21
    2  A    between atoms: C_4  and  C_22
    3  A    between atoms: O_7  and  C_11
    4  A    between atoms: O_7  and  C_12
    5  A    between atoms: C_11  and  C_20
    6  A    between atoms: C_17  and  C_19
                            x       y       z     vdW  Elec       q    Type
                         _______ _______ _______ _____ _____    ______ ____

>  <TORSDO>
F 6

$$$$
