=
 OpenBabel10222418083D

 25 29  0  0  0  0  0  0  0  0999 V2000
  188.0370  177.0090  143.0400 C   0  0  0  0  0  3  0  0  0  0  0  0
  188.7910  177.4190  144.0250 C   0  0  0  0  0  0  0  0  0  0  0  0
  189.5430  177.8330  145.0100 C   0  0  0  0  0  0  0  0  0  0  0  0
  190.5230  177.3880  138.5380 N   0  0  0  0  0  0  0  0  0  0  0  0
  190.9010  176.6760  139.6490 C   0  0  0  0  0  3  0  0  0  0  0  0
  188.6120  178.1530  139.6800 C   0  0  0  0  0  0  0  0  0  0  0  0
  187.4600  178.8000  139.9300 N   0  0  0  0  0  0  0  0  0  0  0  0
  190.1310  176.6960  140.7780 N   0  0  0  0  0  0  0  0  0  0  0  0
  187.1680  178.4340  141.2090 C   0  0  0  0  0  3  0  0  0  0  0  0
  188.0950  177.5970  141.7360 N   0  0  0  0  0  0  0  0  0  0  0  0
  189.3800  178.1390  138.5290 C   0  0  0  0  0  0  0  0  0  0  0  0
  188.9920  178.8640  137.3650 N   0  0  0  0  0  1  0  0  0  0  0  0
  188.9950  177.4350  140.7580 C   0  0  0  0  0  0  0  0  0  0  0  0
  191.3940  176.3660  144.3080 C   0  0  0  0  0  2  0  0  0  0  0  0
  191.6380  176.6990  145.7630 C   0  0  0  0  0  2  0  0  0  0  0  0
  191.0290  177.7390  144.8400 C   0  0  0  0  0  3  0  0  0  0  0  0
  188.9850  178.3660  146.1850 O   0  0  0  0  0  0  0  0  0  0  0  0
  188.0450  177.6810  147.0150 C   0  0  0  0  0  0  0  0  0  0  0  0
  188.5420  176.7210  148.0730 C   0  0  0  0  0  2  0  0  0  0  0  0
  188.1050  178.1330  148.4530 C   0  0  0  0  0  2  0  0  0  0  0  0
  186.6780  177.5370  146.5280 N   0  0  0  0  0  2  0  0  0  0  0  0
  185.9420  178.7470  146.8590 C   0  0  0  0  0  2  0  0  0  0  0  0
  185.3200  179.3350  145.6150 C   0  0  0  0  0  3  0  0  0  0  0  0
  183.9720  179.0540  145.6110 O   0  0  0  0  0  0  0  0  0  0  0  0
  184.7950  178.3300  144.8380 O   0  0  0  0  0  0  0  0  0  0  0  0
  1  2  2  0  0  0  0
  2  3  2  0  0  0  0
  3 17  1  0  0  0  0
  4  5  1  0  0  0  0
  5  8  2  0  0  0  0
  6  7  1  0  0  0  0
  6 13  2  0  0  0  0
  7  9  2  0  0  0  0
  9 10  1  0  0  0  0
 10  1  1  0  0  0  0
 11  4  2  0  0  0  0
 11  6  1  0  0  0  0
 12 11  1  0  0  0  0
 13  8  1  0  0  0  0
 13 10  1  0  0  0  0
 14 16  1  0  0  0  0
 14 15  1  0  0  0  0
 16  3  1  0  0  0  0
 16 15  1  0  0  0  0
 17 18  1  0  0  0  0
 18 19  1  0  0  0  0
 18 20  1  0  0  0  0
 19 20  1  0  0  0  0
 21 22  1  0  0  0  0
 21 18  1  0  0  0  0
 23 22  1  0  0  0  0
 24 23  1  0  0  0  0
 25 24  1  0  0  0  0
 25 23  1  0  0  0  0
M  END
>  <MODEL>
1

>  <REMARK>
 VINA RESULT:      -7.9      0.000      0.000
  Name = 
  7 active torsions:
  status: ('A' for Active; 'I' for Inactive)
    1  A    between atoms: C_3  and  C_7
    2  A    between atoms: C_4  and  O_18
    3  A    between atoms: C_4  and  N_22
    4  A    between atoms: C_7  and  N_22
    5  A    between atoms: C_10  and  N_20
    6  A    between atoms: C_12  and  C_13
    7  A    between atoms: C_12  and  O_18
                            x       y       z     vdW  Elec       q    Type
                         _______ _______ _______ _____ _____    ______ ____

>  <TORSDO>
F 7

$$$$
=
 OpenBabel10222418083D

 25 29  0  0  0  0  0  0  0  0999 V2000
  186.7830  177.0430  143.5430 C   0  0  0  0  0  3  0  0  0  0  0  0
  186.0630  178.0790  143.2030 C   0  0  0  0  0  0  0  0  0  0  0  0
  185.3460  179.1170  142.8620 C   0  0  0  0  0  0  0  0  0  0  0  0
  191.7430  176.3160  144.7500 N   0  0  0  0  0  0  0  0  0  0  0  0
  191.1150  176.0190  143.5670 C   0  0  0  0  0  3  0  0  0  0  0  0
  189.7030  177.0850  145.6390 C   0  0  0  0  0  0  0  0  0  0  0  0
  188.8130  177.5950  146.5080 N   0  0  0  0  0  0  0  0  0  0  0  0
  189.7770  176.2600  143.4150 N   0  0  0  0  0  0  0  0  0  0  0  0
  187.6520  177.6020  145.7950 C   0  0  0  0  0  3  0  0  0  0  0  0
  187.8090  177.1180  144.5380 N   0  0  0  0  0  0  0  0  0  0  0  0
  191.0570  176.8490  145.8060 C   0  0  0  0  0  0  0  0  0  0  0  0
  191.7240  177.1650  147.0250 N   0  0  0  0  0  1  0  0  0  0  0  0
  189.1060  176.7970  144.4630 C   0  0  0  0  0  0  0  0  0  0  0  0
  184.1290  178.7410  144.9700 C   0  0  0  0  0  2  0  0  0  0  0  0
  183.1040  179.2080  143.9610 C   0  0  0  0  0  2  0  0  0  0  0  0
  184.5150  179.7700  143.9250 C   0  0  0  0  0  3  0  0  0  0  0  0
  185.3640  179.6210  141.5500 O   0  0  0  0  0  0  0  0  0  0  0  0
  184.9380  178.8900  140.3990 C   0  0  0  0  0  0  0  0  0  0  0  0
  183.8000  177.9000  140.5200 C   0  0  0  0  0  2  0  0  0  0  0  0
  183.5580  179.2900  139.9370 C   0  0  0  0  0  2  0  0  0  0  0  0
  185.8780  178.7400  139.2950 N   0  0  0  0  0  2  0  0  0  0  0  0
  187.1750  178.3710  139.8410 C   0  0  0  0  0  2  0  0  0  0  0  0
  188.1430  178.0660  138.7240 C   0  0  0  0  0  3  0  0  0  0  0  0
  189.0560  179.0930  138.6280 O   0  0  0  0  0  0  0  0  0  0  0  0
  188.0450  179.0290  137.7490 O   0  0  0  0  0  0  0  0  0  0  0  0
  1 10  1  0  0  0  0
  2  1  2  0  0  0  0
  3  2  2  0  0  0  0
  3 16  1  0  0  0  0
  4 11  1  0  0  0  0
  5  4  2  0  0  0  0
  6 11  2  0  0  0  0
  6  7  1  0  0  0  0
  8  5  1  0  0  0  0
  8 13  2  0  0  0  0
  9  7  2  0  0  0  0
 10  9  1  0  0  0  0
 11 12  1  0  0  0  0
 13 10  1  0  0  0  0
 13  6  1  0  0  0  0
 15 14  1  0  0  0  0
 16 15  1  0  0  0  0
 16 14  1  0  0  0  0
 17  3  1  0  0  0  0
 18 19  1  0  0  0  0
 18 17  1  0  0  0  0
 20 18  1  0  0  0  0
 20 19  1  0  0  0  0
 21 22  1  0  0  0  0
 21 18  1  0  0  0  0
 23 22  1  0  0  0  0
 24 23  1  0  0  0  0
 25 24  1  0  0  0  0
 25 23  1  0  0  0  0
M  END
>  <MODEL>
2

>  <REMARK>
 VINA RESULT:      -7.8      3.247      6.758
  Name = 
  7 active torsions:
  status: ('A' for Active; 'I' for Inactive)
    1  A    between atoms: C_3  and  C_7
    2  A    between atoms: C_4  and  O_18
    3  A    between atoms: C_4  and  N_22
    4  A    between atoms: C_7  and  N_22
    5  A    between atoms: C_10  and  N_20
    6  A    between atoms: C_12  and  C_13
    7  A    between atoms: C_12  and  O_18
                            x       y       z     vdW  Elec       q    Type
                         _______ _______ _______ _____ _____    ______ ____

>  <TORSDO>
F 7

$$$$
=
 OpenBabel10222418083D

 25 29  0  0  0  0  0  0  0  0999 V2000
  187.5230  176.8330  143.3260 C   0  0  0  0  0  3  0  0  0  0  0  0
  187.3140  177.7180  142.3890 C   0  0  0  0  0  0  0  0  0  0  0  0
  187.1090  178.6060  141.4520 C   0  0  0  0  0  0  0  0  0  0  0  0
  190.1470  177.3870  147.7300 N   0  0  0  0  0  0  0  0  0  0  0  0
  190.6180  176.9330  146.5240 C   0  0  0  0  0  3  0  0  0  0  0  0
  187.9960  177.6220  146.8020 C   0  0  0  0  0  0  0  0  0  0  0  0
  186.6840  177.8960  146.7000 N   0  0  0  0  0  0  0  0  0  0  0  0
  189.7780  176.8290  145.4490 N   0  0  0  0  0  0  0  0  0  0  0  0
  186.4060  177.6070  145.3980 C   0  0  0  0  0  3  0  0  0  0  0  0
  187.4940  177.1700  144.7170 N   0  0  0  0  0  0  0  0  0  0  0  0
  188.8350  177.7360  147.8970 C   0  0  0  0  0  0  0  0  0  0  0  0
  188.3610  178.2180  149.1510 N   0  0  0  0  0  1  0  0  0  0  0  0
  188.4820  177.1850  145.6200 C   0  0  0  0  0  0  0  0  0  0  0  0
  184.6890  178.3350  141.8200 C   0  0  0  0  0  2  0  0  0  0  0  0
  184.8590  178.7430  140.3740 C   0  0  0  0  0  2  0  0  0  0  0  0
  185.7850  179.3090  141.4360 C   0  0  0  0  0  3  0  0  0  0  0  0
  188.0980  178.9100  140.5000 O   0  0  0  0  0  0  0  0  0  0  0  0
  188.4900  178.0380  139.4380 C   0  0  0  0  0  0  0  0  0  0  0  0
  187.6850  178.0080  138.1580 C   0  0  0  0  0  2  0  0  0  0  0  0
  188.9950  178.7880  138.2300 C   0  0  0  0  0  2  0  0  0  0  0  0
  189.3180  176.8840  139.7690 N   0  0  0  0  0  2  0  0  0  0  0  0
  190.5910  177.3640  140.2840 C   0  0  0  0  0  2  0  0  0  0  0  0
  190.7970  176.8780  141.6990 C   0  0  0  0  0  3  0  0  0  0  0  0
  190.9380  177.9660  142.5320 O   0  0  0  0  0  0  0  0  0  0  0  0
  192.0280  177.2820  142.1550 O   0  0  0  0  0  0  0  0  0  0  0  0
  1 10  1  0  0  0  0
  2  1  2  0  0  0  0
  3  2  2  0  0  0  0
  4 11  1  0  0  0  0
  5  4  2  0  0  0  0
  6 11  2  0  0  0  0
  7  6  1  0  0  0  0
  8 13  2  0  0  0  0
  8  5  1  0  0  0  0
  9  7  2  0  0  0  0
 10  9  1  0  0  0  0
 10 13  1  0  0  0  0
 11 12  1  0  0  0  0
 13  6  1  0  0  0  0
 15 16  1  0  0  0  0
 15 14  1  0  0  0  0
 16  3  1  0  0  0  0
 16 14  1  0  0  0  0
 17  3  1  0  0  0  0
 18 21  1  0  0  0  0
 18 17  1  0  0  0  0
 19 20  1  0  0  0  0
 19 18  1  0  0  0  0
 20 18  1  0  0  0  0
 21 22  1  0  0  0  0
 22 23  1  0  0  0  0
 23 25  1  0  0  0  0
 23 24  1  0  0  0  0
 25 24  1  0  0  0  0
M  END
>  <MODEL>
3

>  <REMARK>
 VINA RESULT:      -7.4      2.446      7.271
  Name = 
  7 active torsions:
  status: ('A' for Active; 'I' for Inactive)
    1  A    between atoms: C_3  and  C_7
    2  A    between atoms: C_4  and  O_18
    3  A    between atoms: C_4  and  N_22
    4  A    between atoms: C_7  and  N_22
    5  A    between atoms: C_10  and  N_20
    6  A    between atoms: C_12  and  C_13
    7  A    between atoms: C_12  and  O_18
                            x       y       z     vdW  Elec       q    Type
                         _______ _______ _______ _____ _____    ______ ____

>  <TORSDO>
F 7

$$$$
=
 OpenBabel10222418083D

 25 29  0  0  0  0  0  0  0  0999 V2000
  186.5390  178.7240  141.8850 C   0  0  0  0  0  3  0  0  0  0  0  0
  187.0730  177.8410  142.6860 C   0  0  0  0  0  0  0  0  0  0  0  0
  187.6060  176.9550  143.4850 C   0  0  0  0  0  0  0  0  0  0  0  0
  181.6550  178.8620  143.5340 N   0  0  0  0  0  0  0  0  0  0  0  0
  182.7970  178.8330  144.2940 C   0  0  0  0  0  3  0  0  0  0  0  0
  182.9570  178.7700  141.5740 C   0  0  0  0  0  0  0  0  0  0  0  0
  183.2810  178.7290  140.2700 N   0  0  0  0  0  0  0  0  0  0  0  0
  184.0250  178.7790  143.6950 N   0  0  0  0  0  0  0  0  0  0  0  0
  184.6430  178.6920  140.2900 C   0  0  0  0  0  3  0  0  0  0  0  0
  185.1470  178.7080  141.5480 N   0  0  0  0  0  0  0  0  0  0  0  0
  181.7080  178.8290  142.1680 C   0  0  0  0  0  0  0  0  0  0  0  0
  180.5150  178.8710  141.3890 N   0  0  0  0  0  1  0  0  0  0  0  0
  184.0690  178.7550  142.3400 C   0  0  0  0  0  0  0  0  0  0  0  0
  186.9400  178.2780  145.4530 C   0  0  0  0  0  2  0  0  0  0  0  0
  188.0930  177.4050  145.8940 C   0  0  0  0  0  2  0  0  0  0  0  0
  187.0850  176.8780  144.8880 C   0  0  0  0  0  3  0  0  0  0  0  0
  188.6210  176.0870  143.0450 O   0  0  0  0  0  0  0  0  0  0  0  0
  189.8970  176.5160  142.5660 C   0  0  0  0  0  0  0  0  0  0  0  0
  190.6470  177.6030  143.3040 C   0  0  0  0  0  2  0  0  0  0  0  0
  191.0230  176.1350  143.4960 C   0  0  0  0  0  2  0  0  0  0  0  0
  190.2190  176.2740  141.1650 N   0  0  0  0  0  2  0  0  0  0  0  0
  190.2180  177.5500  140.4650 C   0  0  0  0  0  2  0  0  0  0  0  0
  189.0830  177.5980  139.4710 C   0  0  0  0  0  3  0  0  0  0  0  0
  189.5380  178.1520  138.2960 O   0  0  0  0  0  0  0  0  0  0  0  0
  188.8130  178.9030  139.1370 O   0  0  0  0  0  0  0  0  0  0  0  0
  1  2  2  0  0  0  0
  2  3  2  0  0  0  0
  3 16  1  0  0  0  0
  4  5  1  0  0  0  0
  6 11  1  0  0  0  0
  6 13  2  0  0  0  0
  7  9  2  0  0  0  0
  7  6  1  0  0  0  0
  8  5  2  0  0  0  0
  9 10  1  0  0  0  0
 10  1  1  0  0  0  0
 10 13  1  0  0  0  0
 11  4  2  0  0  0  0
 12 11  1  0  0  0  0
 13  8  1  0  0  0  0
 14 15  1  0  0  0  0
 16 14  1  0  0  0  0
 16 15  1  0  0  0  0
 17  3  1  0  0  0  0
 18 17  1  0  0  0  0
 18 19  1  0  0  0  0
 18 20  1  0  0  0  0
 19 20  1  0  0  0  0
 21 18  1  0  0  0  0
 22 21  1  0  0  0  0
 23 22  1  0  0  0  0
 24 25  1  0  0  0  0
 24 23  1  0  0  0  0
 25 23  1  0  0  0  0
M  END
>  <MODEL>
4

>  <REMARK>
 VINA RESULT:      -7.2      3.722      6.254
  Name = 
  7 active torsions:
  status: ('A' for Active; 'I' for Inactive)
    1  A    between atoms: C_3  and  C_7
    2  A    between atoms: C_4  and  O_18
    3  A    between atoms: C_4  and  N_22
    4  A    between atoms: C_7  and  N_22
    5  A    between atoms: C_10  and  N_20
    6  A    between atoms: C_12  and  C_13
    7  A    between atoms: C_12  and  O_18
                            x       y       z     vdW  Elec       q    Type
                         _______ _______ _______ _____ _____    ______ ____

>  <TORSDO>
F 7

$$$$
=
 OpenBabel10222418083D

 25 29  0  0  0  0  0  0  0  0999 V2000
  187.1740  177.0350  143.2120 C   0  0  0  0  0  3  0  0  0  0  0  0
  186.4110  178.0770  143.0180 C   0  0  0  0  0  0  0  0  0  0  0  0
  185.6500  179.1210  142.8230 C   0  0  0  0  0  0  0  0  0  0  0  0
  188.9330  177.5540  148.0320 N   0  0  0  0  0  0  0  0  0  0  0  0
  187.6370  177.6680  147.5930 C   0  0  0  0  0  3  0  0  0  0  0  0
  189.6430  177.1510  145.8230 C   0  0  0  0  0  0  0  0  0  0  0  0
  190.4520  176.8990  144.7790 N   0  0  0  0  0  0  0  0  0  0  0  0
  187.3400  177.5180  146.2670 N   0  0  0  0  0  0  0  0  0  0  0  0
  189.5920  176.8530  143.7240 C   0  0  0  0  0  3  0  0  0  0  0  0
  188.3040  177.0680  144.0900 N   0  0  0  0  0  0  0  0  0  0  0  0
  189.9570  177.2970  147.1640 C   0  0  0  0  0  0  0  0  0  0  0  0
  191.2970  177.1680  147.6320 N   0  0  0  0  0  1  0  0  0  0  0  0
  188.3600  177.2550  145.4150 C   0  0  0  0  0  0  0  0  0  0  0  0
  184.3790  178.5710  144.8590 C   0  0  0  0  0  2  0  0  0  0  0  0
  183.4510  179.3790  143.9800 C   0  0  0  0  0  2  0  0  0  0  0  0
  184.9360  179.6960  144.0090 C   0  0  0  0  0  3  0  0  0  0  0  0
  185.5160  179.7030  141.5500 O   0  0  0  0  0  0  0  0  0  0  0  0
  185.1420  178.9870  140.3710 C   0  0  0  0  0  0  0  0  0  0  0  0
  183.8500  178.2010  140.3510 C   0  0  0  0  0  2  0  0  0  0  0  0
  183.9280  179.5770  139.6960 C   0  0  0  0  0  2  0  0  0  0  0  0
  186.1920  178.6280  139.4250 N   0  0  0  0  0  2  0  0  0  0  0  0
  185.5700  178.0400  138.2490 C   0  0  0  0  0  2  0  0  0  0  0  0
  186.6270  177.6090  137.2610 C   0  0  0  0  0  3  0  0  0  0  0  0
  186.6600  176.2340  137.2090 O   0  0  0  0  0  0  0  0  0  0  0  0
  187.6000  176.8860  137.9080 O   0  0  0  0  0  0  0  0  0  0  0  0
  1 10  1  0  0  0  0
  2  1  2  0  0  0  0
  3  2  2  0  0  0  0
  3 16  1  0  0  0  0
  5  4  1  0  0  0  0
  6 11  1  0  0  0  0
  7  6  1  0  0  0  0
  8  5  2  0  0  0  0
  9 10  1  0  0  0  0
  9  7  2  0  0  0  0
 10 13  1  0  0  0  0
 11 12  1  0  0  0  0
 11  4  2  0  0  0  0
 13  6  2  0  0  0  0
 13  8  1  0  0  0  0
 15 16  1  0  0  0  0
 15 14  1  0  0  0  0
 16 14  1  0  0  0  0
 17  3  1  0  0  0  0
 18 17  1  0  0  0  0
 19 18  1  0  0  0  0
 20 19  1  0  0  0  0
 20 18  1  0  0  0  0
 21 18  1  0  0  0  0
 22 21  1  0  0  0  0
 23 25  1  0  0  0  0
 23 22  1  0  0  0  0
 24 23  1  0  0  0  0
 24 25  1  0  0  0  0
M  END
>  <MODEL>
5

>  <REMARK>
 VINA RESULT:      -7.2      3.295      7.297
  Name = 
  7 active torsions:
  status: ('A' for Active; 'I' for Inactive)
    1  A    between atoms: C_3  and  C_7
    2  A    between atoms: C_4  and  O_18
    3  A    between atoms: C_4  and  N_22
    4  A    between atoms: C_7  and  N_22
    5  A    between atoms: C_10  and  N_20
    6  A    between atoms: C_12  and  C_13
    7  A    between atoms: C_12  and  O_18
                            x       y       z     vdW  Elec       q    Type
                         _______ _______ _______ _____ _____    ______ ____

>  <TORSDO>
F 7

$$$$
=
 OpenBabel10222418083D

 25 29  0  0  0  0  0  0  0  0999 V2000
  187.2220  177.1380  143.4700 C   0  0  0  0  0  3  0  0  0  0  0  0
  188.3580  177.4520  144.0330 C   0  0  0  0  0  0  0  0  0  0  0  0
  189.4940  177.7700  144.5960 C   0  0  0  0  0  0  0  0  0  0  0  0
  183.1760  179.2180  141.0430 N   0  0  0  0  0  0  0  0  0  0  0  0
  183.1820  178.5370  142.2350 C   0  0  0  0  0  3  0  0  0  0  0  0
  185.4970  178.8780  140.8390 C   0  0  0  0  0  0  0  0  0  0  0  0
  186.7430  178.9170  140.3360 N   0  0  0  0  0  0  0  0  0  0  0  0
  184.3480  178.0290  142.7360 N   0  0  0  0  0  0  0  0  0  0  0  0
  187.4770  178.2560  141.2740 C   0  0  0  0  0  3  0  0  0  0  0  0
  186.7250  177.8220  142.3150 N   0  0  0  0  0  0  0  0  0  0  0  0
  184.3240  179.4000  140.3220 C   0  0  0  0  0  0  0  0  0  0  0  0
  184.3070  180.1190  139.0920 N   0  0  0  0  0  1  0  0  0  0  0  0
  185.4830  178.2220  142.0200 C   0  0  0  0  0  0  0  0  0  0  0  0
  190.6080  176.4770  142.8200 C   0  0  0  0  0  2  0  0  0  0  0  0
  191.4790  176.3540  144.0500 C   0  0  0  0  0  2  0  0  0  0  0  0
  190.7390  177.6510  143.7710 C   0  0  0  0  0  3  0  0  0  0  0  0
  189.5510  178.2270  145.9250 O   0  0  0  0  0  0  0  0  0  0  0  0
  189.4680  177.3800  147.0720 C   0  0  0  0  0  0  0  0  0  0  0  0
  190.5870  176.4060  147.3660 C   0  0  0  0  0  2  0  0  0  0  0  0
  190.4940  177.7280  148.1240 C   0  0  0  0  0  2  0  0  0  0  0  0
  188.1500  177.1200  147.6390 N   0  0  0  0  0  2  0  0  0  0  0  0
  187.4170  178.3750  147.6940 C   0  0  0  0  0  2  0  0  0  0  0  0
  186.1130  178.2500  146.9420 C   0  0  0  0  0  3  0  0  0  0  0  0
  186.0380  179.2540  146.0030 O   0  0  0  0  0  0  0  0  0  0  0  0
  185.3490  179.3740  147.1470 O   0  0  0  0  0  0  0  0  0  0  0  0
  1  2  2  0  0  0  0
  2  3  2  0  0  0  0
  3 17  1  0  0  0  0
  4  5  1  0  0  0  0
  5  8  2  0  0  0  0
  6 13  2  0  0  0  0
  7  6  1  0  0  0  0
  7  9  2  0  0  0  0
  9 10  1  0  0  0  0
 10  1  1  0  0  0  0
 11  6  1  0  0  0  0
 11  4  2  0  0  0  0
 12 11  1  0  0  0  0
 13 10  1  0  0  0  0
 13  8  1  0  0  0  0
 14 16  1  0  0  0  0
 14 15  1  0  0  0  0
 16 15  1  0  0  0  0
 16  3  1  0  0  0  0
 17 18  1  0  0  0  0
 18 19  1  0  0  0  0
 18 21  1  0  0  0  0
 18 20  1  0  0  0  0
 19 20  1  0  0  0  0
 21 22  1  0  0  0  0
 23 25  1  0  0  0  0
 23 22  1  0  0  0  0
 24 23  1  0  0  0  0
 24 25  1  0  0  0  0
M  END
>  <MODEL>
6

>  <REMARK>
 VINA RESULT:      -7.1      2.127      3.473
  Name = 
  7 active torsions:
  status: ('A' for Active; 'I' for Inactive)
    1  A    between atoms: C_3  and  C_7
    2  A    between atoms: C_4  and  O_18
    3  A    between atoms: C_4  and  N_22
    4  A    between atoms: C_7  and  N_22
    5  A    between atoms: C_10  and  N_20
    6  A    between atoms: C_12  and  C_13
    7  A    between atoms: C_12  and  O_18
                            x       y       z     vdW  Elec       q    Type
                         _______ _______ _______ _____ _____    ______ ____

>  <TORSDO>
F 7

$$$$
=
 OpenBabel10222418083D

 25 29  0  0  0  0  0  0  0  0999 V2000
  187.0700  178.5320  142.1610 C   0  0  0  0  0  3  0  0  0  0  0  0
  187.7690  178.0340  143.1450 C   0  0  0  0  0  0  0  0  0  0  0  0
  188.4660  177.5310  144.1290 C   0  0  0  0  0  0  0  0  0  0  0  0
  182.6940  179.3630  139.5620 N   0  0  0  0  0  0  0  0  0  0  0  0
  183.9810  179.5120  139.1090 C   0  0  0  0  0  3  0  0  0  0  0  0
  183.5120  178.7330  141.6780 C   0  0  0  0  0  0  0  0  0  0  0  0
  183.5290  178.3470  142.9660 N   0  0  0  0  0  0  0  0  0  0  0  0
  185.0390  179.2660  139.9400 N   0  0  0  0  0  0  0  0  0  0  0  0
  184.8590  178.2590  143.2460 C   0  0  0  0  0  3  0  0  0  0  0  0
  185.6390  178.5770  142.1840 N   0  0  0  0  0  0  0  0  0  0  0  0
  182.4320  178.9760  140.8470 C   0  0  0  0  0  0  0  0  0  0  0  0
  181.0910  178.8130  141.3020 N   0  0  0  0  0  1  0  0  0  0  0  0
  184.7710  178.8740  141.2090 C   0  0  0  0  0  0  0  0  0  0  0  0
  188.7370  177.1790  146.5510 C   0  0  0  0  0  2  0  0  0  0  0  0
  187.2730  177.4820  146.3230 C   0  0  0  0  0  2  0  0  0  0  0  0
  188.3310  178.1700  145.4780 C   0  0  0  0  0  3  0  0  0  0  0  0
  189.3030  176.4170  143.9400 O   0  0  0  0  0  0  0  0  0  0  0  0
  190.5240  176.4410  143.1980 C   0  0  0  0  0  0  0  0  0  0  0  0
  191.6540  177.3420  143.6450 C   0  0  0  0  0  2  0  0  0  0  0  0
  191.6800  175.8490  143.9660 C   0  0  0  0  0  2  0  0  0  0  0  0
  190.4890  176.0030  141.8080 N   0  0  0  0  0  2  0  0  0  0  0  0
  190.8060  177.1410  140.9590 C   0  0  0  0  0  2  0  0  0  0  0  0
  190.2920  176.9050  139.5590 C   0  0  0  0  0  3  0  0  0  0  0  0
  189.7660  178.0800  139.0700 O   0  0  0  0  0  0  0  0  0  0  0  0
  188.9360  177.1270  139.5190 O   0  0  0  0  0  0  0  0  0  0  0  0
  1 10  1  0  0  0  0
  1  2  2  0  0  0  0
  2  3  2  0  0  0  0
  3 16  1  0  0  0  0
  4 11  1  0  0  0  0
  5  4  2  0  0  0  0
  5  8  1  0  0  0  0
  6  7  1  0  0  0  0
  7  9  2  0  0  0  0
  8 13  2  0  0  0  0
 10  9  1  0  0  0  0
 11 12  1  0  0  0  0
 11  6  2  0  0  0  0
 13  6  1  0  0  0  0
 13 10  1  0  0  0  0
 15 14  1  0  0  0  0
 16 15  1  0  0  0  0
 16 14  1  0  0  0  0
 17  3  1  0  0  0  0
 18 19  1  0  0  0  0
 18 17  1  0  0  0  0
 18 20  1  0  0  0  0
 19 20  1  0  0  0  0
 21 18  1  0  0  0  0
 22 21  1  0  0  0  0
 23 22  1  0  0  0  0
 24 25  1  0  0  0  0
 24 23  1  0  0  0  0
 25 23  1  0  0  0  0
M  END
>  <MODEL>
7

>  <REMARK>
 VINA RESULT:      -7.0      3.390      5.726
  Name = 
  7 active torsions:
  status: ('A' for Active; 'I' for Inactive)
    1  A    between atoms: C_3  and  C_7
    2  A    between atoms: C_4  and  O_18
    3  A    between atoms: C_4  and  N_22
    4  A    between atoms: C_7  and  N_22
    5  A    between atoms: C_10  and  N_20
    6  A    between atoms: C_12  and  C_13
    7  A    between atoms: C_12  and  O_18
                            x       y       z     vdW  Elec       q    Type
                         _______ _______ _______ _____ _____    ______ ____

>  <TORSDO>
F 7

$$$$
=
 OpenBabel10222418083D

 25 29  0  0  0  0  0  0  0  0999 V2000
  188.3290  176.7670  142.9550 C   0  0  0  0  0  3  0  0  0  0  0  0
  187.8990  177.6730  142.1180 C   0  0  0  0  0  0  0  0  0  0  0  0
  187.4720  178.5810  141.2820 C   0  0  0  0  0  0  0  0  0  0  0  0
  186.3940  178.3750  147.4560 N   0  0  0  0  0  0  0  0  0  0  0  0
  185.7560  178.3120  146.2420 C   0  0  0  0  0  3  0  0  0  0  0  0
  188.3710  177.5760  146.4580 C   0  0  0  0  0  0  0  0  0  0  0  0
  189.6450  177.1690  146.3200 N   0  0  0  0  0  0  0  0  0  0  0  0
  186.4240  177.8750  145.1320 N   0  0  0  0  0  0  0  0  0  0  0  0
  189.7280  176.8510  144.9980 C   0  0  0  0  0  3  0  0  0  0  0  0
  188.5610  177.0520  144.3390 N   0  0  0  0  0  0  0  0  0  0  0  0
  187.7060  178.0130  147.5900 C   0  0  0  0  0  0  0  0  0  0  0  0
  188.3530  178.0710  148.8590 N   0  0  0  0  0  1  0  0  0  0  0  0
  187.7220  177.5100  145.2760 C   0  0  0  0  0  0  0  0  0  0  0  0
  185.1040  178.1320  141.7880 C   0  0  0  0  0  2  0  0  0  0  0  0
  185.1260  178.8850  140.4770 C   0  0  0  0  0  2  0  0  0  0  0  0
  186.1410  179.2140  141.5580 C   0  0  0  0  0  3  0  0  0  0  0  0
  188.2380  178.9710  140.1690 O   0  0  0  0  0  0  0  0  0  0  0  0
  188.8230  178.0630  139.2340 C   0  0  0  0  0  0  0  0  0  0  0  0
  187.9310  177.1730  138.3960 C   0  0  0  0  0  2  0  0  0  0  0  0
  188.5370  178.4420  137.8010 C   0  0  0  0  0  2  0  0  0  0  0  0
  190.2090  177.6630  139.4440 N   0  0  0  0  0  2  0  0  0  0  0  0
  190.4250  176.3880  138.7780 C   0  0  0  0  0  2  0  0  0  0  0  0
  191.6060  176.4830  137.8410 C   0  0  0  0  0  3  0  0  0  0  0  0
  192.3950  175.3650  137.9980 O   0  0  0  0  0  0  0  0  0  0  0  0
  192.7720  176.5200  138.5660 O   0  0  0  0  0  0  0  0  0  0  0  0
  1 10  1  0  0  0  0
  2  1  2  0  0  0  0
  3 16  1  0  0  0  0
  3  2  2  0  0  0  0
  4 11  1  0  0  0  0
  5  4  2  0  0  0  0
  6 11  2  0  0  0  0
  7  6  1  0  0  0  0
  8 13  2  0  0  0  0
  8  5  1  0  0  0  0
  9  7  2  0  0  0  0
 10  9  1  0  0  0  0
 10 13  1  0  0  0  0
 11 12  1  0  0  0  0
 13  6  1  0  0  0  0
 15 16  1  0  0  0  0
 15 14  1  0  0  0  0
 16 14  1  0  0  0  0
 17  3  1  0  0  0  0
 18 21  1  0  0  0  0
 18 17  1  0  0  0  0
 19 18  1  0  0  0  0
 20 19  1  0  0  0  0
 20 18  1  0  0  0  0
 22 21  1  0  0  0  0
 23 24  1  0  0  0  0
 23 25  1  0  0  0  0
 23 22  1  0  0  0  0
 24 25  1  0  0  0  0
M  END
>  <MODEL>
8

>  <REMARK>
 VINA RESULT:      -7.0      3.193      7.927
  Name = 
  7 active torsions:
  status: ('A' for Active; 'I' for Inactive)
    1  A    between atoms: C_3  and  C_7
    2  A    between atoms: C_4  and  O_18
    3  A    between atoms: C_4  and  N_22
    4  A    between atoms: C_7  and  N_22
    5  A    between atoms: C_10  and  N_20
    6  A    between atoms: C_12  and  C_13
    7  A    between atoms: C_12  and  O_18
                            x       y       z     vdW  Elec       q    Type
                         _______ _______ _______ _____ _____    ______ ____

>  <TORSDO>
F 7

$$$$
=
 OpenBabel10222418083D

 25 29  0  0  0  0  0  0  0  0999 V2000
  189.1960  178.3190  143.6000 C   0  0  0  0  0  3  0  0  0  0  0  0
  188.2700  178.0900  144.4930 C   0  0  0  0  0  0  0  0  0  0  0  0
  187.3440  177.8570  145.3850 C   0  0  0  0  0  0  0  0  0  0  0  0
  186.1530  178.5810  139.4460 N   0  0  0  0  0  0  0  0  0  0  0  0
  185.8660  178.9910  140.7240 C   0  0  0  0  0  3  0  0  0  0  0  0
  188.2710  177.8410  140.1590 C   0  0  0  0  0  0  0  0  0  0  0  0
  189.5040  177.3060  140.1220 N   0  0  0  0  0  0  0  0  0  0  0  0
  186.7860  178.8320  141.7230 N   0  0  0  0  0  0  0  0  0  0  0  0
  189.9350  177.4300  141.4080 C   0  0  0  0  0  3  0  0  0  0  0  0
  189.0140  178.0140  142.2130 N   0  0  0  0  0  0  0  0  0  0  0  0
  187.3510  177.9990  139.1370 C   0  0  0  0  0  0  0  0  0  0  0  0
  187.6420  177.5890  137.8030 N   0  0  0  0  0  1  0  0  0  0  0  0
  187.9740  178.2620  141.4070 C   0  0  0  0  0  0  0  0  0  0  0  0
  185.6770  179.2830  146.5060 C   0  0  0  0  0  2  0  0  0  0  0  0
  184.9720  177.9920  146.1570 C   0  0  0  0  0  2  0  0  0  0  0  0
  186.0280  178.5550  145.2220 C   0  0  0  0  0  3  0  0  0  0  0  0
  187.5610  176.9690  146.4530 O   0  0  0  0  0  0  0  0  0  0  0  0
  188.5640  177.1430  147.4550 C   0  0  0  0  0  0  0  0  0  0  0  0
  188.7550  178.5000  148.0950 C   0  0  0  0  0  2  0  0  0  0  0  0
  187.9780  177.4050  148.8210 C   0  0  0  0  0  2  0  0  0  0  0  0
  189.6700  176.1930  147.4910 N   0  0  0  0  0  2  0  0  0  0  0  0
  190.9180  176.9400  147.5070 C   0  0  0  0  0  2  0  0  0  0  0  0
  191.8460  176.4260  146.4330 C   0  0  0  0  0  3  0  0  0  0  0  0
  191.9720  177.3830  145.4510 O   0  0  0  0  0  0  0  0  0  0  0  0
  191.1690  176.3300  145.2400 O   0  0  0  0  0  0  0  0  0  0  0  0
  1  2  2  0  0  0  0
  2  3  2  0  0  0  0
  3 17  1  0  0  0  0
  4  5  1  0  0  0  0
  5  8  2  0  0  0  0
  6 13  2  0  0  0  0
  7  6  1  0  0  0  0
  7  9  2  0  0  0  0
  9 10  1  0  0  0  0
 10  1  1  0  0  0  0
 11  4  2  0  0  0  0
 11  6  1  0  0  0  0
 12 11  1  0  0  0  0
 13  8  1  0  0  0  0
 13 10  1  0  0  0  0
 15 14  1  0  0  0  0
 16  3  1  0  0  0  0
 16 15  1  0  0  0  0
 16 14  1  0  0  0  0
 17 18  1  0  0  0  0
 18 21  1  0  0  0  0
 18 19  1  0  0  0  0
 18 20  1  0  0  0  0
 19 20  1  0  0  0  0
 21 22  1  0  0  0  0
 23 22  1  0  0  0  0
 24 23  1  0  0  0  0
 25 24  1  0  0  0  0
 25 23  1  0  0  0  0
M  END
>  <MODEL>
9

>  <REMARK>
 VINA RESULT:      -6.9      1.876      4.179
  Name = 
  7 active torsions:
  status: ('A' for Active; 'I' for Inactive)
    1  A    between atoms: C_3  and  C_7
    2  A    between atoms: C_4  and  O_18
    3  A    between atoms: C_4  and  N_22
    4  A    between atoms: C_7  and  N_22
    5  A    between atoms: C_10  and  N_20
    6  A    between atoms: C_12  and  C_13
    7  A    between atoms: C_12  and  O_18
                            x       y       z     vdW  Elec       q    Type
                         _______ _______ _______ _____ _____    ______ ____

>  <TORSDO>
F 7

$$$$
