=
 OpenBabel10222420273D

 31 34  0  0  1  0  0  0  0  0999 V2000
  191.2460  178.0550  143.7280 C   0  0  0  0  0  2  0  0  0  0  0  0
  189.4620  176.1820  142.5290 C   0  0  0  0  0  2  0  0  0  0  0  0
  191.3190  177.3980  141.2610 C   0  0  0  0  0  0  0  0  0  0  0  0
  189.9400  176.9750  141.3890 N   0  0  0  0  0  0  0  0  0  0  0  0
  192.1260  176.3290  137.6710 C   0  0  2  0  0  3  0  0  0  0  0  0
  191.3330  176.8890  138.8060 C   0  0  0  0  0  0  0  0  0  0  0  0
  189.9160  176.7040  136.9990 C   0  0  0  0  0  3  0  0  0  0  0  0
  188.9380  177.5720  140.5570 C   0  0  0  0  0  0  0  0  0  0  0  0
  186.9330  178.5930  139.8790 N   0  0  0  0  0  0  0  0  0  0  0  0
  191.2460  176.3580  136.5020 N   0  0  0  0  0  0  0  0  0  0  0  0
  187.6470  178.0960  141.0560 C   0  0  0  0  0  3  0  0  0  0  0  0
  193.3860  177.8130  139.9760 C   0  0  0  0  0  1  0  0  0  0  0  0
  190.7030  176.7390  144.3090 C   0  0  1  0  0  3  0  0  0  0  0  0
  191.9550  177.3700  140.0680 C   0  0  0  0  0  0  0  0  0  0  0  0
  188.9840  177.6080  139.2480 C   0  0  0  0  0  0  0  0  0  0  0  0
  192.1060  177.8200  142.4890 C   0  0  0  0  0  2  0  0  0  0  0  0
  190.5270  175.7470  143.3270 O   0  0  0  0  0  0  0  0  0  0  0  0
  190.0800  177.0640  138.4260 C   0  0  0  0  0  0  0  0  0  0  0  0
  187.7100  178.1600  138.7120 C   0  0  1  0  0  3  0  0  0  0  0  0
  192.5200  174.8840  137.9490 C   0  0  0  0  0  2  0  0  0  0  0  0
  195.1270  174.6100  138.0240 N   0  0  0  0  0  0  0  0  0  0  0  0
  193.9770  174.7310  137.9930 C   0  0  0  0  0  0  0  0  0  0  0  0
  186.9360  177.0840  137.9580 C   0  0  0  0  0  2  0  0  0  0  0  0
  185.9610  177.7040  136.9670 C   0  0  2  0  0  3  0  0  0  0  0  0
  184.5270  177.4050  137.3660 C   0  0  0  0  0  1  0  0  0  0  0  0
  187.0800  177.9970  134.6600 C   0  0  0  0  0  1  0  0  0  0  0  0
  185.7670  176.1290  135.2090 O   0  0  0  0  0  0  0  0  0  0  0  0
  186.2320  177.1950  135.5850 C   0  0  0  0  0  0  0  0  0  0  0  0
  191.5850  176.2200  145.4410 C   0  0  0  0  0  2  0  0  0  0  0  0
  189.7010  176.9500  146.8730 C   0  0  0  0  0  1  0  0  0  0  0  0
  191.2070  176.8220  146.7850 C   0  0  0  0  0  2  0  0  0  0  0  0
  1 13  1  0  0  0  0
  2 17  1  0  0  0  0
  3  4  1  0  0  0  0
  3 16  1  0  0  0  0
  4  2  1  0  0  0  0
  5 20  1  1  0  0  0
  5  6  1  0  0  0  0
  6 14  1  0  0  0  0
  7 18  1  0  0  0  0
  8 11  1  0  0  0  0
  8  4  1  0  0  0  0
  9 11  2  0  0  0  0
 10  7  2  0  0  0  0
 10  5  1  0  0  0  0
 12 14  1  0  0  0  0
 13 29  1  1  0  0  0
 14  3  2  0  0  0  0
 15  8  2  0  0  0  0
 16  1  1  0  0  0  0
 17 13  1  0  0  0  0
 18  6  2  0  0  0  0
 18 15  1  0  0  0  0
 19 23  1  1  0  0  0
 19 15  1  0  0  0  0
 19  9  1  0  0  0  0
 20 22  1  0  0  0  0
 22 21  3  0  0  0  0
 24 25  1  1  0  0  0
 24 23  1  0  0  0  0
 26 28  1  0  0  0  0
 27 28  2  0  0  0  0
 28 24  1  0  0  0  0
 29 31  1  0  0  0  0
 31 30  1  0  0  0  0
M  END
>  <MODEL>
1

>  <REMARK>
 VINA RESULT:      -6.8      0.000      0.000
  Name = 
  7 active torsions:
  status: ('A' for Active; 'I' for Inactive)
    1  A    between atoms: C_2  and  C_13
    2  A    between atoms: C_7  and  C_21
    3  A    between atoms: C_7  and  C_22
    4  A    between atoms: C_9  and  C_13
    5  A    between atoms: C_16  and  C_30
    6  A    between atoms: C_21  and  C_31
    7  A    between atoms: C_24  and  C_30
                            x       y       z     vdW  Elec       q    Type
                         _______ _______ _______ _____ _____    ______ ____

>  <TORSDO>
F 7

$$$$
=
 OpenBabel10222420273D

 31 34  0  0  1  0  0  0  0  0999 V2000
  191.1140  177.9050  143.1660 C   0  0  0  0  0  2  0  0  0  0  0  0
  188.7200  176.4500  142.6360 C   0  0  0  0  0  2  0  0  0  0  0  0
  190.3350  177.2500  140.8240 C   0  0  0  0  0  0  0  0  0  0  0  0
  188.9960  177.1270  141.3620 N   0  0  0  0  0  0  0  0  0  0  0  0
  189.8350  176.0400  137.2230 C   0  0  2  0  0  3  0  0  0  0  0  0
  189.5340  176.7520  138.5010 C   0  0  0  0  0  0  0  0  0  0  0  0
  187.6480  176.8720  137.1840 C   0  0  0  0  0  3  0  0  0  0  0  0
  187.9380  177.9220  140.8140 C   0  0  0  0  0  0  0  0  0  0  0  0
  186.0710  179.3420  140.6730 N   0  0  0  0  0  0  0  0  0  0  0  0
  188.6790  176.2540  136.3520 N   0  0  0  0  0  0  0  0  0  0  0  0
  186.9810  178.7050  141.6270 C   0  0  0  0  0  3  0  0  0  0  0  0
  191.9800  177.2230  138.9830 C   0  0  0  0  0  1  0  0  0  0  0  0
  190.5100  176.7320  143.9560 C   0  0  1  0  0  3  0  0  0  0  0  0
  190.5790  177.0910  139.5030 C   0  0  0  0  0  0  0  0  0  0  0  0
  187.6090  177.9480  139.5470 C   0  0  0  0  0  0  0  0  0  0  0  0
  191.5120  177.4970  141.7510 C   0  0  0  0  0  2  0  0  0  0  0  0
  189.8610  175.8000  143.1250 O   0  0  0  0  0  0  0  0  0  0  0  0
  188.2880  177.1880  138.4820 C   0  0  0  0  0  0  0  0  0  0  0  0
  186.3730  178.7560  139.3620 C   0  0  1  0  0  3  0  0  0  0  0  0
  189.9940  174.5440  137.4640 C   0  0  0  0  0  2  0  0  0  0  0  0
  192.3150  173.6850  136.5990 N   0  0  0  0  0  0  0  0  0  0  0  0
  191.2920  174.0640  136.9820 C   0  0  0  0  0  0  0  0  0  0  0  0
  185.2140  177.8680  138.9240 C   0  0  0  0  0  2  0  0  0  0  0  0
  183.9230  178.2670  139.6240 C   0  0  2  0  0  3  0  0  0  0  0  0
  183.0650  177.0450  139.9050 C   0  0  0  0  0  1  0  0  0  0  0  0
  182.1610  178.7650  137.8070 C   0  0  0  0  0  1  0  0  0  0  0  0
  183.3560  180.4540  138.9160 O   0  0  0  0  0  0  0  0  0  0  0  0
  183.1640  179.2530  138.7930 C   0  0  0  0  0  0  0  0  0  0  0  0
  191.5590  176.0390  144.8200 C   0  0  0  0  0  2  0  0  0  0  0  0
  192.2820  175.6120  147.1500 C   0  0  0  0  0  1  0  0  0  0  0  0
  191.6070  176.6070  146.2290 C   0  0  0  0  0  2  0  0  0  0  0  0
  1 13  1  0  0  0  0
  2 17  1  0  0  0  0
  3  4  1  0  0  0  0
  3 16  1  0  0  0  0
  4  2  1  0  0  0  0
  5 20  1  1  0  0  0
  5  6  1  0  0  0  0
  6 14  1  0  0  0  0
  7 18  1  0  0  0  0
  8  4  1  0  0  0  0
  8 11  1  0  0  0  0
  9 11  2  0  0  0  0
 10  7  2  0  0  0  0
 10  5  1  0  0  0  0
 12 14  1  0  0  0  0
 13 29  1  6  0  0  0
 14  3  2  0  0  0  0
 15  8  2  0  0  0  0
 16  1  1  0  0  0  0
 17 13  1  0  0  0  0
 18  6  2  0  0  0  0
 18 15  1  0  0  0  0
 19 23  1  1  0  0  0
 19 15  1  0  0  0  0
 19  9  1  0  0  0  0
 21 22  3  0  0  0  0
 22 20  1  0  0  0  0
 23 24  1  0  0  0  0
 24 25  1  6  0  0  0
 26 28  1  0  0  0  0
 28 27  2  0  0  0  0
 28 24  1  0  0  0  0
 29 31  1  0  0  0  0
 31 30  1  0  0  0  0
M  END
>  <MODEL>
2

>  <REMARK>
 VINA RESULT:      -6.5      1.913      2.543
  Name = 
  7 active torsions:
  status: ('A' for Active; 'I' for Inactive)
    1  A    between atoms: C_2  and  C_13
    2  A    between atoms: C_7  and  C_21
    3  A    between atoms: C_7  and  C_22
    4  A    between atoms: C_9  and  C_13
    5  A    between atoms: C_16  and  C_30
    6  A    between atoms: C_21  and  C_31
    7  A    between atoms: C_24  and  C_30
                            x       y       z     vdW  Elec       q    Type
                         _______ _______ _______ _____ _____    ______ ____

>  <TORSDO>
F 7

$$$$
=
 OpenBabel10222420273D

 31 34  0  0  1  0  0  0  0  0999 V2000
  189.8290  178.2840  143.7360 C   0  0  0  0  0  2  0  0  0  0  0  0
  187.5440  176.6000  143.4620 C   0  0  0  0  0  2  0  0  0  0  0  0
  188.4230  178.1280  141.6110 C   0  0  0  0  0  0  0  0  0  0  0  0
  187.3390  177.6240  142.4290 N   0  0  0  0  0  0  0  0  0  0  0  0
  186.9380  177.8250  138.0910 C   0  0  2  0  0  3  0  0  0  0  0  0
  186.9850  178.1120  139.5560 C   0  0  0  0  0  0  0  0  0  0  0  0
  184.7790  178.2200  138.9030 C   0  0  0  0  0  3  0  0  0  0  0  0
  186.0900  178.3250  142.4580 C   0  0  0  0  0  0  0  0  0  0  0  0
  184.1440  179.3630  143.2680 N   0  0  0  0  0  0  0  0  0  0  0  0
  185.5510  178.0410  137.6750 N   0  0  0  0  0  0  0  0  0  0  0  0
  185.3650  178.6790  143.6980 C   0  0  0  0  0  3  0  0  0  0  0  0
  189.4010  178.8840  139.4740 C   0  0  0  0  0  1  0  0  0  0  0  0
  189.6210  176.8550  144.2660 C   0  0  1  0  0  3  0  0  0  0  0  0
  188.2540  178.3650  140.2900 C   0  0  0  0  0  0  0  0  0  0  0  0
  185.3790  178.6190  141.3980 C   0  0  0  0  0  0  0  0  0  0  0  0
  189.8010  178.3370  142.2120 C   0  0  0  0  0  2  0  0  0  0  0  0
  188.8380  176.0680  143.4010 O   0  0  0  0  0  0  0  0  0  0  0  0
  185.7600  178.3000  140.0100 C   0  0  0  0  0  0  0  0  0  0  0  0
  184.0750  179.2050  141.8110 C   0  0  1  0  0  3  0  0  0  0  0  0
  187.3090  176.3730  137.8150 C   0  0  0  0  0  2  0  0  0  0  0  0
  189.6260  176.1990  136.5980 N   0  0  0  0  0  0  0  0  0  0  0  0
  188.6040  176.2780  137.1350 C   0  0  0  0  0  0  0  0  0  0  0  0
  182.9290  178.2630  141.4570 C   0  0  0  0  0  2  0  0  0  0  0  0
  181.6520  179.0390  141.1660 C   0  0  2  0  0  3  0  0  0  0  0  0
  180.5140  178.5470  142.0440 C   0  0  0  0  0  1  0  0  0  0  0  0
  181.4150  180.0930  138.8230 C   0  0  0  0  0  1  0  0  0  0  0  0
  180.8830  177.8500  139.2690 O   0  0  0  0  0  0  0  0  0  0  0  0
  181.2850  178.9120  139.7210 C   0  0  0  0  0  0  0  0  0  0  0  0
  190.9510  176.1660  144.5590 C   0  0  0  0  0  2  0  0  0  0  0  0
  192.0740  175.7540  146.7280 C   0  0  0  0  0  1  0  0  0  0  0  0
  191.6890  176.8150  145.7190 C   0  0  0  0  0  2  0  0  0  0  0  0
  1 13  1  0  0  0  0
  3 16  1  0  0  0  0
  3  4  1  0  0  0  0
  4  8  1  0  0  0  0
  4  2  1  0  0  0  0
  5 20  1  1  0  0  0
  5  6  1  0  0  0  0
  6 18  2  0  0  0  0
  6 14  1  0  0  0  0
  7 18  1  0  0  0  0
  8 11  1  0  0  0  0
  9 11  2  0  0  0  0
 10  5  1  0  0  0  0
 10  7  2  0  0  0  0
 12 14  1  0  0  0  0
 13 29  1  6  0  0  0
 14  3  2  0  0  0  0
 15 19  1  0  0  0  0
 15  8  2  0  0  0  0
 16  1  1  0  0  0  0
 17  2  1  0  0  0  0
 17 13  1  0  0  0  0
 18 15  1  0  0  0  0
 19 23  1  1  0  0  0
 19  9  1  0  0  0  0
 21 22  3  0  0  0  0
 22 20  1  0  0  0  0
 24 23  1  0  0  0  0
 24 25  1  1  0  0  0
 26 28  1  0  0  0  0
 27 28  2  0  0  0  0
 28 24  1  0  0  0  0
 29 31  1  0  0  0  0
 31 30  1  0  0  0  0
M  END
>  <MODEL>
3

>  <REMARK>
 VINA RESULT:      -6.0      2.970      4.577
  Name = 
  7 active torsions:
  status: ('A' for Active; 'I' for Inactive)
    1  A    between atoms: C_2  and  C_13
    2  A    between atoms: C_7  and  C_21
    3  A    between atoms: C_7  and  C_22
    4  A    between atoms: C_9  and  C_13
    5  A    between atoms: C_16  and  C_30
    6  A    between atoms: C_21  and  C_31
    7  A    between atoms: C_24  and  C_30
                            x       y       z     vdW  Elec       q    Type
                         _______ _______ _______ _____ _____    ______ ____

>  <TORSDO>
F 7

$$$$
=
 OpenBabel10222420273D

 31 34  0  0  1  0  0  0  0  0999 V2000
  187.1310  175.8310  135.8700 C   0  0  0  0  0  2  0  0  0  0  0  0
  189.1220  174.0510  136.8690 C   0  0  0  0  0  2  0  0  0  0  0  0
  188.6790  176.3800  137.8250 C   0  0  0  0  0  0  0  0  0  0  0  0
  189.5860  175.3690  137.3210 N   0  0  0  0  0  0  0  0  0  0  0  0
  190.4050  177.4090  141.0870 C   0  0  2  0  0  3  0  0  0  0  0  0
  190.2740  177.0140  139.6520 C   0  0  0  0  0  0  0  0  0  0  0  0
  192.5180  176.9850  140.1730 C   0  0  0  0  0  3  0  0  0  0  0  0
  190.9260  175.7330  136.9690 C   0  0  0  0  0  0  0  0  0  0  0  0
  192.9360  175.9120  135.7640 N   0  0  0  0  0  0  0  0  0  0  0  0
  191.8410  177.5230  141.3510 N   0  0  0  0  0  0  0  0  0  0  0  0
  191.5850  175.3520  135.7000 C   0  0  0  0  0  3  0  0  0  0  0  0
  188.0370  178.1820  139.3860 C   0  0  0  0  0  1  0  0  0  0  0  0
  187.0520  174.3050  136.0490 C   0  0  1  0  0  3  0  0  0  0  0  0
  189.0040  177.1470  138.8900 C   0  0  0  0  0  0  0  0  0  0  0  0
  191.7690  176.3310  137.7740 C   0  0  0  0  0  0  0  0  0  0  0  0
  187.3060  176.5540  137.2010 C   0  0  0  0  0  2  0  0  0  0  0  0
  187.7680  173.8570  137.1740 O   0  0  0  0  0  0  0  0  0  0  0  0
  191.4680  176.7440  139.1570 C   0  0  0  0  0  0  0  0  0  0  0  0
  193.1090  176.4120  137.1330 C   0  0  1  0  0  3  0  0  0  0  0  0
  189.8260  176.3340  141.9980 C   0  0  0  0  0  2  0  0  0  0  0  0
  187.6230  177.1570  143.1570 N   0  0  0  0  0  0  0  0  0  0  0  0
  188.5950  176.7960  142.6450 C   0  0  0  0  0  0  0  0  0  0  0  0
  194.1110  175.5310  137.8720 C   0  0  0  0  0  2  0  0  0  0  0  0
  194.7780  174.5460  136.9230 C   0  0  2  0  0  3  0  0  0  0  0  0
  194.5190  173.1160  137.3640 C   0  0  0  0  0  1  0  0  0  0  0  0
  197.1910  173.9180  137.5900 C   0  0  0  0  0  1  0  0  0  0  0  0
  196.6890  175.7420  136.1990 O   0  0  0  0  0  0  0  0  0  0  0  0
  196.2510  174.8080  136.8540 C   0  0  0  0  0  0  0  0  0  0  0  0
  185.6050  173.8230  136.1090 C   0  0  0  0  0  2  0  0  0  0  0  0
  184.1010  172.1690  137.1760 C   0  0  0  0  0  1  0  0  0  0  0  0
  185.3090  173.0580  137.3890 C   0  0  0  0  0  2  0  0  0  0  0  0
  1 13  1  0  0  0  0
  1 16  1  0  0  0  0
  2 17  1  0  0  0  0
  2  4  1  0  0  0  0
  3 14  2  0  0  0  0
  4  3  1  0  0  0  0
  5 10  1  0  0  0  0
  5 20  1  1  0  0  0
  6  5  1  0  0  0  0
  7 10  2  0  0  0  0
  8  4  1  0  0  0  0
  8 15  2  0  0  0  0
  9 19  1  0  0  0  0
 11  9  2  0  0  0  0
 11  8  1  0  0  0  0
 13 29  1  1  0  0  0
 13 17  1  0  0  0  0
 14 12  1  0  0  0  0
 14  6  1  0  0  0  0
 15 18  1  0  0  0  0
 16  3  1  0  0  0  0
 18  6  2  0  0  0  0
 18  7  1  0  0  0  0
 19 15  1  0  0  0  0
 19 23  1  1  0  0  0
 20 22  1  0  0  0  0
 22 21  3  0  0  0  0
 24 25  1  1  0  0  0
 24 23  1  0  0  0  0
 27 28  2  0  0  0  0
 28 24  1  0  0  0  0
 28 26  1  0  0  0  0
 29 31  1  0  0  0  0
 30 31  1  0  0  0  0
M  END
>  <MODEL>
4

>  <REMARK>
 VINA RESULT:      -5.7      2.791      7.678
  Name = 
  7 active torsions:
  status: ('A' for Active; 'I' for Inactive)
    1  A    between atoms: C_2  and  C_13
    2  A    between atoms: C_7  and  C_21
    3  A    between atoms: C_7  and  C_22
    4  A    between atoms: C_9  and  C_13
    5  A    between atoms: C_16  and  C_30
    6  A    between atoms: C_21  and  C_31
    7  A    between atoms: C_24  and  C_30
                            x       y       z     vdW  Elec       q    Type
                         _______ _______ _______ _____ _____    ______ ____

>  <TORSDO>
F 7

$$$$
=
 OpenBabel10222420273D

 31 34  0  0  1  0  0  0  0  0999 V2000
  189.9260  178.3130  143.4750 C   0  0  0  0  0  2  0  0  0  0  0  0
  187.6620  176.6090  143.1550 C   0  0  0  0  0  2  0  0  0  0  0  0
  188.6690  178.0140  141.2720 C   0  0  0  0  0  0  0  0  0  0  0  0
  187.5310  177.5620  142.0450 N   0  0  0  0  0  0  0  0  0  0  0  0
  187.4310  177.4780  137.6860 C   0  0  2  0  0  3  0  0  0  0  0  0
  187.3770  177.8600  139.1290 C   0  0  0  0  0  0  0  0  0  0  0  0
  185.2210  177.9190  138.3200 C   0  0  0  0  0  3  0  0  0  0  0  0
  186.2840  178.2600  141.9420 C   0  0  0  0  0  0  0  0  0  0  0  0
  184.2890  179.3440  142.5460 N   0  0  0  0  0  0  0  0  0  0  0  0
  186.0760  177.6620  137.1620 N   0  0  0  0  0  0  0  0  0  0  0  0
  185.4760  178.6930  143.1030 C   0  0  0  0  0  3  0  0  0  0  0  0
  189.7940  178.6320  139.1630 C   0  0  0  0  0  1  0  0  0  0  0  0
  189.6790  176.9210  144.0810 C   0  0  1  0  0  3  0  0  0  0  0  0
  188.5920  178.1650  139.9300 C   0  0  0  0  0  0  0  0  0  0  0  0
  185.6480  178.4820  140.8190 C   0  0  0  0  0  0  0  0  0  0  0  0
  190.0030  178.2670  141.9520 C   0  0  0  0  0  2  0  0  0  0  0  0
  188.9570  176.0770  143.2180 O   0  0  0  0  0  0  0  0  0  0  0  0
  186.1240  178.0740  139.4840 C   0  0  0  0  0  0  0  0  0  0  0  0
  184.3200  179.0900  141.1010 C   0  0  1  0  0  3  0  0  0  0  0  0
  187.8170  176.0120  137.5310 C   0  0  0  0  0  2  0  0  0  0  0  0
  187.7580  175.2780  135.0150 N   0  0  0  0  0  0  0  0  0  0  0  0
  187.7820  175.6010  136.1250 C   0  0  0  0  0  0  0  0  0  0  0  0
  183.1990  178.1240  140.7310 C   0  0  0  0  0  2  0  0  0  0  0  0
  182.0960  178.8340  139.9600 C   0  0  2  0  0  3  0  0  0  0  0  0
  182.6680  179.9690  139.1270 C   0  0  0  0  0  1  0  0  0  0  0  0
  180.1260  180.4270  140.4500 C   0  0  0  0  0  1  0  0  0  0  0  0
  180.9630  178.9130  142.0380 O   0  0  0  0  0  0  0  0  0  0  0  0
  181.0570  179.3570  140.9030 C   0  0  0  0  0  0  0  0  0  0  0  0
  190.9840  176.2570  144.5100 C   0  0  0  0  0  2  0  0  0  0  0  0
  191.3560  176.4320  146.9530 C   0  0  0  0  0  1  0  0  0  0  0  0
  191.6920  177.0370  145.6060 C   0  0  0  0  0  2  0  0  0  0  0  0
  1 13  1  0  0  0  0
  2 17  1  0  0  0  0
  3 16  1  0  0  0  0
  3  4  1  0  0  0  0
  4  2  1  0  0  0  0
  5 20  1  1  0  0  0
  5  6  1  0  0  0  0
  6 18  2  0  0  0  0
  6 14  1  0  0  0  0
  7 18  1  0  0  0  0
  8  4  1  0  0  0  0
  8 11  1  0  0  0  0
  9 11  2  0  0  0  0
 10  5  1  0  0  0  0
 10  7  2  0  0  0  0
 12 14  1  0  0  0  0
 13 29  1  6  0  0  0
 14  3  2  0  0  0  0
 15 19  1  0  0  0  0
 15  8  2  0  0  0  0
 16  1  1  0  0  0  0
 17 13  1  0  0  0  0
 18 15  1  0  0  0  0
 19 23  1  1  0  0  0
 19  9  1  0  0  0  0
 21 22  3  0  0  0  0
 22 20  1  0  0  0  0
 24 25  1  1  0  0  0
 24 23  1  0  0  0  0
 24 28  1  0  0  0  0
 26 28  1  0  0  0  0
 28 27  2  0  0  0  0
 29 31  1  0  0  0  0
 31 30  1  0  0  0  0
M  END
>  <MODEL>
5

>  <REMARK>
 VINA RESULT:      -5.6      3.175      4.594
  Name = 
  7 active torsions:
  status: ('A' for Active; 'I' for Inactive)
    1  A    between atoms: C_2  and  C_13
    2  A    between atoms: C_7  and  C_21
    3  A    between atoms: C_7  and  C_22
    4  A    between atoms: C_9  and  C_13
    5  A    between atoms: C_16  and  C_30
    6  A    between atoms: C_21  and  C_31
    7  A    between atoms: C_24  and  C_30
                            x       y       z     vdW  Elec       q    Type
                         _______ _______ _______ _____ _____    ______ ____

>  <TORSDO>
F 7

$$$$
=
 OpenBabel10222420273D

 31 34  0  0  1  0  0  0  0  0999 V2000
  183.2470  179.3410  138.7420 C   0  0  0  0  0  2  0  0  0  0  0  0
  184.8230  177.0160  138.2480 C   0  0  0  0  0  2  0  0  0  0  0  0
  185.3520  178.7420  140.0580 C   0  0  0  0  0  0  0  0  0  0  0  0
  185.7540  177.9200  138.9350 N   0  0  0  0  0  0  0  0  0  0  0  0
  188.1100  177.9790  142.6050 C   0  0  2  0  0  3  0  0  0  0  0  0
  187.4900  178.2670  141.2770 C   0  0  0  0  0  0  0  0  0  0  0  0
  189.6810  177.6650  140.8990 C   0  0  0  0  0  3  0  0  0  0  0  0
  186.9970  178.1860  138.2740 C   0  0  0  0  0  0  0  0  0  0  0  0
  188.5730  178.5500  136.5690 N   0  0  0  0  0  0  0  0  0  0  0  0
  189.5310  177.7410  142.3520 N   0  0  0  0  0  0  0  0  0  0  0  0
  187.1520  178.2920  136.8070 C   0  0  0  0  0  3  0  0  0  0  0  0
  185.7050  179.7690  142.2750 C   0  0  0  0  0  1  0  0  0  0  0  0
  182.7770  177.9210  138.3840 C   0  0  1  0  0  3  0  0  0  0  0  0
  186.1580  178.9130  141.1290 C   0  0  0  0  0  0  0  0  0  0  0  0
  188.1610  178.2370  138.8730 C   0  0  0  0  0  0  0  0  0  0  0  0
  183.9740  179.3810  140.0820 C   0  0  0  0  0  2  0  0  0  0  0  0
  183.6050  176.9240  138.9330 O   0  0  0  0  0  0  0  0  0  0  0  0
  188.3750  178.0550  140.3210 C   0  0  0  0  0  0  0  0  0  0  0  0
  189.2440  178.3770  137.8630 C   0  0  1  0  0  3  0  0  0  0  0  0
  187.5070  176.7210  143.2190 C   0  0  0  0  0  2  0  0  0  0  0  0
  186.4550  177.2200  145.5680 N   0  0  0  0  0  0  0  0  0  0  0  0
  186.9200  177.0010  144.5320 C   0  0  0  0  0  0  0  0  0  0  0  0
  190.1050  177.1180  137.8230 C   0  0  0  0  0  2  0  0  0  0  0  0
  189.9520  176.3930  136.4940 C   0  0  2  0  0  3  0  0  0  0  0  0
  189.1000  175.1460  136.6580 C   0  0  0  0  0  1  0  0  0  0  0  0
  192.4840  176.0330  136.8400 C   0  0  0  0  0  1  0  0  0  0  0  0
  191.4290  175.7360  134.7640 O   0  0  0  0  0  0  0  0  0  0  0  0
  191.2960  176.0330  135.9410 C   0  0  0  0  0  0  0  0  0  0  0  0
  181.3240  177.6920  138.7910 C   0  0  0  0  0  2  0  0  0  0  0  0
  180.4380  177.9270  141.0920 C   0  0  0  0  0  1  0  0  0  0  0  0
  181.2070  177.0230  140.1510 C   0  0  0  0  0  2  0  0  0  0  0  0
  1 16  1  0  0  0  0
  2 17  1  0  0  0  0
  2  4  1  0  0  0  0
  3 16  1  0  0  0  0
  3 14  2  0  0  0  0
  4  3  1  0  0  0  0
  5 20  1  6  0  0  0
  6  5  1  0  0  0  0
  7 10  2  0  0  0  0
  8 15  2  0  0  0  0
  8  4  1  0  0  0  0
  9 11  2  0  0  0  0
  9 19  1  0  0  0  0
 10  5  1  0  0  0  0
 11  8  1  0  0  0  0
 13  1  1  0  0  0  0
 13 29  1  1  0  0  0
 13 17  1  0  0  0  0
 14  6  1  0  0  0  0
 14 12  1  0  0  0  0
 15 18  1  0  0  0  0
 18  7  1  0  0  0  0
 18  6  2  0  0  0  0
 19 23  1  6  0  0  0
 19 15  1  0  0  0  0
 20 22  1  0  0  0  0
 22 21  3  0  0  0  0
 24 25  1  1  0  0  0
 24 23  1  0  0  0  0
 27 28  2  0  0  0  0
 28 24  1  0  0  0  0
 28 26  1  0  0  0  0
 29 31  1  0  0  0  0
 31 30  1  0  0  0  0
M  END
>  <MODEL>
6

>  <REMARK>
 VINA RESULT:      -5.5      3.144      7.132
  Name = 
  7 active torsions:
  status: ('A' for Active; 'I' for Inactive)
    1  A    between atoms: C_2  and  C_13
    2  A    between atoms: C_7  and  C_21
    3  A    between atoms: C_7  and  C_22
    4  A    between atoms: C_9  and  C_13
    5  A    between atoms: C_16  and  C_30
    6  A    between atoms: C_21  and  C_31
    7  A    between atoms: C_24  and  C_30
                            x       y       z     vdW  Elec       q    Type
                         _______ _______ _______ _____ _____    ______ ____

>  <TORSDO>
F 7

$$$$
=
 OpenBabel10222420273D

 31 34  0  0  1  0  0  0  0  0999 V2000
  190.9410  176.7110  135.9730 C   0  0  0  0  0  2  0  0  0  0  0  0
  189.7900  175.1980  138.0990 C   0  0  0  0  0  2  0  0  0  0  0  0
  188.9330  177.4860  137.3470 C   0  0  0  0  0  0  0  0  0  0  0  0
  189.3600  176.5720  138.3870 N   0  0  0  0  0  0  0  0  0  0  0  0
  185.6280  178.7930  138.7770 C   0  0  2  0  0  3  0  0  0  0  0  0
  187.0530  178.3470  138.7650 C   0  0  0  0  0  0  0  0  0  0  0  0
  186.4250  178.5880  140.9680 C   0  0  0  0  0  3  0  0  0  0  0  0
  189.6600  177.0780  139.6930 C   0  0  0  0  0  0  0  0  0  0  0  0
  190.7720  177.4540  141.7290 N   0  0  0  0  0  0  0  0  0  0  0  0
  185.2990  179.0770  140.1750 N   0  0  0  0  0  0  0  0  0  0  0  0
  190.8820  176.7410  140.4550 C   0  0  0  0  0  3  0  0  0  0  0  0
  187.4630  179.2430  136.4270 C   0  0  0  0  0  1  0  0  0  0  0  0
  190.7160  175.1920  136.0570 C   0  0  1  0  0  3  0  0  0  0  0  0
  187.8790  178.3130  137.5280 C   0  0  0  0  0  0  0  0  0  0  0  0
  188.8350  177.7890  140.4210 C   0  0  0  0  0  0  0  0  0  0  0  0
  189.6270  177.4850  135.9970 C   0  0  0  0  0  2  0  0  0  0  0  0
  189.5450  174.8580  136.7620 O   0  0  0  0  0  0  0  0  0  0  0  0
  187.4820  178.2020  140.0050 C   0  0  0  0  0  0  0  0  0  0  0  0
  189.4140  178.0070  141.7750 C   0  0  1  0  0  3  0  0  0  0  0  0
  184.7110  177.6830  138.2770 C   0  0  0  0  0  2  0  0  0  0  0  0
  182.1880  178.3020  138.6320 N   0  0  0  0  0  0  0  0  0  0  0  0
  183.3010  178.0290  138.4770 C   0  0  0  0  0  0  0  0  0  0  0  0
  188.6000  177.2660  142.8310 C   0  0  0  0  0  2  0  0  0  0  0  0
  188.7960  177.8850  144.2070 C   0  0  2  0  0  3  0  0  0  0  0  0
  189.8880  177.1570  144.9720 C   0  0  0  0  0  1  0  0  0  0  0  0
  187.5530  177.7950  146.4660 C   0  0  0  0  0  1  0  0  0  0  0  0
  186.4370  177.8770  144.4020 O   0  0  0  0  0  0  0  0  0  0  0  0
  187.5140  177.8530  144.9780 C   0  0  0  0  0  0  0  0  0  0  0  0
  190.7100  174.5490  134.6740 C   0  0  0  0  0  2  0  0  0  0  0  0
  192.3880  173.2050  135.9040 C   0  0  0  0  0  1  0  0  0  0  0  0
  191.6430  173.3510  134.5940 C   0  0  0  0  0  2  0  0  0  0  0  0
  1 16  1  0  0  0  0
  1 13  1  0  0  0  0
  2  4  1  0  0  0  0
  3 14  2  0  0  0  0
  3  4  1  0  0  0  0
  4  8  1  0  0  0  0
  5 20  1  1  0  0  0
  5 10  1  0  0  0  0
  6  5  1  0  0  0  0
  6 18  2  0  0  0  0
  8 15  2  0  0  0  0
  8 11  1  0  0  0  0
  9 19  1  0  0  0  0
 10  7  2  0  0  0  0
 11  9  2  0  0  0  0
 12 14  1  0  0  0  0
 13 29  1  6  0  0  0
 13 17  1  0  0  0  0
 14  6  1  0  0  0  0
 15 19  1  0  0  0  0
 16  3  1  0  0  0  0
 17  2  1  0  0  0  0
 18 15  1  0  0  0  0
 18  7  1  0  0  0  0
 19 23  1  1  0  0  0
 20 22  1  0  0  0  0
 22 21  3  0  0  0  0
 23 24  1  0  0  0  0
 24 25  1  1  0  0  0
 24 28  1  0  0  0  0
 27 28  2  0  0  0  0
 28 26  1  0  0  0  0
 31 29  1  0  0  0  0
 31 30  1  0  0  0  0
M  END
>  <MODEL>
7

>  <REMARK>
 VINA RESULT:      -5.5      2.371      7.736
  Name = 
  7 active torsions:
  status: ('A' for Active; 'I' for Inactive)
    1  A    between atoms: C_2  and  C_13
    2  A    between atoms: C_7  and  C_21
    3  A    between atoms: C_7  and  C_22
    4  A    between atoms: C_9  and  C_13
    5  A    between atoms: C_16  and  C_30
    6  A    between atoms: C_21  and  C_31
    7  A    between atoms: C_24  and  C_30
                            x       y       z     vdW  Elec       q    Type
                         _______ _______ _______ _____ _____    ______ ____

>  <TORSDO>
F 7

$$$$
=
 OpenBabel10222420273D

 31 34  0  0  1  0  0  0  0  0999 V2000
  182.5170  177.4060  135.5870 C   0  0  0  0  0  2  0  0  0  0  0  0
  184.1790  175.6190  137.0610 C   0  0  0  0  0  2  0  0  0  0  0  0
  183.6720  178.0180  137.7810 C   0  0  0  0  0  0  0  0  0  0  0  0
  184.6090  176.9440  137.5240 N   0  0  0  0  0  0  0  0  0  0  0  0
  184.7650  179.1850  141.2620 C   0  0  2  0  0  3  0  0  0  0  0  0
  184.9010  178.7060  139.8540 C   0  0  0  0  0  0  0  0  0  0  0  0
  186.9930  178.6250  140.8160 C   0  0  0  0  0  3  0  0  0  0  0  0
  186.0090  177.2350  137.4300 C   0  0  0  0  0  0  0  0  0  0  0  0
  188.2240  177.2620  136.6460 N   0  0  0  0  0  0  0  0  0  0  0  0
  186.1220  179.2610  141.8040 N   0  0  0  0  0  0  0  0  0  0  0  0
  186.8870  176.7500  136.3420 C   0  0  0  0  0  3  0  0  0  0  0  0
  182.8220  179.9370  139.0810 C   0  0  0  0  0  1  0  0  0  0  0  0
  182.3280  175.8990  135.8290 C   0  0  1  0  0  3  0  0  0  0  0  0
  183.8160  178.8380  138.8470 C   0  0  0  0  0  0  0  0  0  0  0  0
  186.7040  177.8500  138.3550 C   0  0  0  0  0  0  0  0  0  0  0  0
  182.4600  178.2050  136.8850 C   0  0  0  0  0  2  0  0  0  0  0  0
  182.7840  175.4950  137.0970 O   0  0  0  0  0  0  0  0  0  0  0  0
  186.1550  178.3610  139.6240 C   0  0  0  0  0  0  0  0  0  0  0  0
  188.1470  177.8410  137.9930 C   0  0  1  0  0  3  0  0  0  0  0  0
  183.9630  178.1920  142.0950 C   0  0  0  0  0  2  0  0  0  0  0  0
  183.7850  178.9720  144.5920 N   0  0  0  0  0  0  0  0  0  0  0  0
  183.8630  178.6290  143.4900 C   0  0  0  0  0  0  0  0  0  0  0  0
  188.9370  176.9710  138.9650 C   0  0  0  0  0  2  0  0  0  0  0  0
  190.4180  177.3190  138.9310 C   0  0  2  0  0  3  0  0  0  0  0  0
  191.1640  176.4010  137.9780 C   0  0  0  0  0  1  0  0  0  0  0  0
  190.1460  176.7920  141.4420 C   0  0  0  0  0  1  0  0  0  0  0  0
  192.1790  177.5000  140.5040 O   0  0  0  0  0  0  0  0  0  0  0  0
  191.0040  177.2260  140.3060 C   0  0  0  0  0  0  0  0  0  0  0  0
  180.8770  175.4760  135.6230 C   0  0  0  0  0  2  0  0  0  0  0  0
  180.5140  173.0360  135.3930 C   0  0  0  0  0  1  0  0  0  0  0  0
  180.5420  174.1940  136.3690 C   0  0  0  0  0  2  0  0  0  0  0  0
  1 13  1  0  0  0  0
  1 16  1  0  0  0  0
  2 17  1  0  0  0  0
  2  4  1  0  0  0  0
  3 14  2  0  0  0  0
  4  3  1  0  0  0  0
  5 10  1  0  0  0  0
  5 20  1  1  0  0  0
  6  5  1  0  0  0  0
  7 10  2  0  0  0  0
  8  4  1  0  0  0  0
  8 15  2  0  0  0  0
  9 19  1  0  0  0  0
 11  9  2  0  0  0  0
 11  8  1  0  0  0  0
 13 29  1  1  0  0  0
 13 17  1  0  0  0  0
 14 12  1  0  0  0  0
 14  6  1  0  0  0  0
 15 18  1  0  0  0  0
 16  3  1  0  0  0  0
 18  6  2  0  0  0  0
 18  7  1  0  0  0  0
 19 15  1  0  0  0  0
 19 23  1  1  0  0  0
 20 22  1  0  0  0  0
 22 21  3  0  0  0  0
 24 25  1  6  0  0  0
 24 23  1  0  0  0  0
 24 28  1  0  0  0  0
 28 27  2  0  0  0  0
 28 26  1  0  0  0  0
 29 31  1  0  0  0  0
 30 31  1  0  0  0  0
M  END
>  <MODEL>
8

>  <REMARK>
 VINA RESULT:      -5.4      3.015      9.017
  Name = 
  7 active torsions:
  status: ('A' for Active; 'I' for Inactive)
    1  A    between atoms: C_2  and  C_13
    2  A    between atoms: C_7  and  C_21
    3  A    between atoms: C_7  and  C_22
    4  A    between atoms: C_9  and  C_13
    5  A    between atoms: C_16  and  C_30
    6  A    between atoms: C_21  and  C_31
    7  A    between atoms: C_24  and  C_30
                            x       y       z     vdW  Elec       q    Type
                         _______ _______ _______ _____ _____    ______ ____

>  <TORSDO>
F 7

$$$$
=
 OpenBabel10222420273D

 31 34  0  0  1  0  0  0  0  0999 V2000
  189.8260  176.4130  142.1110 C   0  0  0  0  0  2  0  0  0  0  0  0
  188.8900  178.9770  141.2850 C   0  0  0  0  0  2  0  0  0  0  0  0
  187.5460  177.3700  142.7490 C   0  0  0  0  0  0  0  0  0  0  0  0
  187.6550  178.2500  141.6040 N   0  0  0  0  0  0  0  0  0  0  0  0
  184.2990  178.6030  144.3670 C   0  0  2  0  0  3  0  0  0  0  0  0
  185.2450  178.2110  143.2790 C   0  0  0  0  0  0  0  0  0  0  0  0
  183.4120  179.1870  142.2810 C   0  0  0  0  0  3  0  0  0  0  0  0
  186.6540  178.2060  140.5810 C   0  0  0  0  0  0  0  0  0  0  0  0
  185.6490  178.1220  138.4580 N   0  0  0  0  0  0  0  0  0  0  0  0
  183.0870  179.0860  143.7030 N   0  0  0  0  0  0  0  0  0  0  0  0
  186.9480  178.1290  139.1330 C   0  0  0  0  0  3  0  0  0  0  0  0
  186.3550  176.4200  144.6920 C   0  0  0  0  0  1  0  0  0  0  0  0
  190.6130  177.7300  141.9920 C   0  0  1  0  0  3  0  0  0  0  0  0
  186.4290  177.3430  143.5110 C   0  0  0  0  0  0  0  0  0  0  0  0
  185.3700  178.3580  140.7900 C   0  0  0  0  0  0  0  0  0  0  0  0
  188.7210  176.5000  143.1590 C   0  0  0  0  0  2  0  0  0  0  0  0
  189.8320  178.8550  142.3150 O   0  0  0  0  0  0  0  0  0  0  0  0
  184.7500  178.5750  142.1100 C   0  0  0  0  0  0  0  0  0  0  0  0
  184.6470  178.4100  139.4900 C   0  0  1  0  0  3  0  0  0  0  0  0
  184.8810  179.7370  145.2030 C   0  0  0  0  0  2  0  0  0  0  0  0
  186.0790  178.8170  147.3460 N   0  0  0  0  0  0  0  0  0  0  0  0
  185.5490  179.2210  146.4010 C   0  0  0  0  0  0  0  0  0  0  0  0
  184.0630  179.8000  139.2570 C   0  0  0  0  0  2  0  0  0  0  0  0
  182.5740  179.7240  138.9560 C   0  0  2  0  0  3  0  0  0  0  0  0
  182.2870  178.6340  137.9370 C   0  0  0  0  0  1  0  0  0  0  0  0
  180.8420  181.0990  137.6250 C   0  0  0  0  0  1  0  0  0  0  0  0
  182.6720  182.0780  138.7230 O   0  0  0  0  0  0  0  0  0  0  0  0
  182.0780  181.0450  138.4550 C   0  0  0  0  0  0  0  0  0  0  0  0
  191.8840  177.7000  142.8360 C   0  0  0  0  0  2  0  0  0  0  0  0
  191.5460  177.3390  145.2630 C   0  0  0  0  0  1  0  0  0  0  0  0
  191.6960  178.3860  144.1800 C   0  0  0  0  0  2  0  0  0  0  0  0
  1 16  1  0  0  0  0
  2  4  1  0  0  0  0
  2 17  1  0  0  0  0
  3 16  1  0  0  0  0
  3 14  2  0  0  0  0
  4  3  1  0  0  0  0
  5 20  1  6  0  0  0
  6 14  1  0  0  0  0
  6  5  1  0  0  0  0
  7 10  2  0  0  0  0
  8 15  2  0  0  0  0
  8  4  1  0  0  0  0
  9 11  2  0  0  0  0
  9 19  1  0  0  0  0
 10  5  1  0  0  0  0
 11  8  1  0  0  0  0
 13  1  1  0  0  0  0
 13 17  1  0  0  0  0
 13 29  1  1  0  0  0
 14 12  1  0  0  0  0
 15 18  1  0  0  0  0
 18  7  1  0  0  0  0
 18  6  2  0  0  0  0
 19 23  1  6  0  0  0
 19 15  1  0  0  0  0
 20 22  1  0  0  0  0
 22 21  3  0  0  0  0
 24 25  1  6  0  0  0
 24 23  1  0  0  0  0
 26 28  1  0  0  0  0
 28 27  2  0  0  0  0
 28 24  1  0  0  0  0
 29 31  1  0  0  0  0
 31 30  1  0  0  0  0
M  END
>  <MODEL>
9

>  <REMARK>
 VINA RESULT:      -5.4      3.640      6.599
  Name = 
  7 active torsions:
  status: ('A' for Active; 'I' for Inactive)
    1  A    between atoms: C_2  and  C_13
    2  A    between atoms: C_7  and  C_21
    3  A    between atoms: C_7  and  C_22
    4  A    between atoms: C_9  and  C_13
    5  A    between atoms: C_16  and  C_30
    6  A    between atoms: C_21  and  C_31
    7  A    between atoms: C_24  and  C_30
                            x       y       z     vdW  Elec       q    Type
                         _______ _______ _______ _____ _____    ______ ____

>  <TORSDO>
F 7

$$$$
