=
 OpenBabel10222420273D

 31 34  0  0  1  0  0  0  0  0999 V2000
  187.8170  177.8440  145.4350 C   0  0  0  0  0  0  0  0  0  0  0  0
  185.5150  178.3360  144.9530 N   0  0  0  0  0  0  0  0  0  0  0  0
  188.6100  178.7720  147.6770 C   0  0  0  0  0  2  0  0  0  0  0  0
  186.5050  178.1520  145.8580 C   0  0  0  0  0  0  0  0  0  0  0  0
  188.7240  175.9740  148.0440 O   0  0  0  0  0  1  0  0  0  0  0  0
  191.3720  177.2070  144.9010 N   0  0  0  0  0  2  0  0  0  0  0  0
  185.7340  178.2880  143.6140 C   0  0  0  0  0  0  0  0  0  0  0  0
  190.2580  176.5850  144.3280 N   0  0  0  0  0  2  0  0  0  0  0  0
  187.0210  177.9950  143.1260 C   0  0  0  0  0  0  0  0  0  0  0  0
  188.5180  177.6540  141.2490 C   0  0  0  0  0  3  0  0  0  0  0  0
  191.7690  176.8570  146.2330 C   0  0  0  0  0  3  0  0  0  0  0  0
  189.5480  177.2880  142.1170 C   0  0  0  0  0  0  0  0  0  0  0  0
  189.3270  177.2810  143.5040 C   0  0  0  0  0  0  0  0  0  0  0  0
  190.8800  176.4760  147.1630 C   0  0  0  0  0  3  0  0  0  0  0  0
  186.2100  178.3640  147.2840 C   0  0  0  0  0  3  0  0  0  0  0  0
  189.3960  176.4440  146.9140 C   0  0  2  0  0  3  0  0  0  0  0  0
  187.1930  178.6120  148.1510 C   0  0  0  0  0  3  0  0  0  0  0  0
  187.2650  177.9870  141.7470 C   0  0  0  0  0  3  0  0  0  0  0  0
  188.0730  177.7010  144.0360 C   0  0  0  0  0  0  0  0  0  0  0  0
  188.9120  177.8410  146.4910 C   0  0  1  0  0  3  0  0  0  0  0  0
  184.8410  179.5980  141.8230 O   0  0  0  0  0  1  0  0  0  0  0  0
  184.5800  178.5240  142.6770 C   0  0  2  0  0  3  0  0  0  0  0  0
  183.2560  178.7160  143.4210 C   0  0  0  0  0  2  0  0  0  0  0  0
  182.0470  178.8240  142.4940 C   0  0  0  0  0  2  0  0  0  0  0  0
  180.0750  180.0080  142.1000 C   0  0  0  0  0  1  0  0  0  0  0  0
  180.9680  179.5470  143.1470 N   0  0  0  0  0  0  0  0  0  0  0  0
  180.2260  178.5740  143.9280 C   0  0  0  0  0  1  0  0  0  0  0  0
  190.8110  176.8660  141.5950 N   0  0  0  0  0  2  0  0  0  0  0  0
  191.2140  177.1870  140.2910 N   0  0  0  0  0  2  0  0  0  0  0  0
  190.9320  176.1110  139.5200 O   0  0  0  0  0  0  0  0  0  0  0  0
  191.5180  176.4010  138.2900 C   0  0  0  0  0  1  0  0  0  0  0  0
  1  4  1  0  0  0  0
  1 20  1  0  0  0  0
  2  4  2  0  0  0  0
  3 17  1  0  0  0  0
  4 15  1  0  0  0  0
  6 11  1  0  0  0  0
  7  2  1  0  0  0  0
  8  6  1  0  0  0  0
  9  7  2  0  0  0  0
  9 19  1  0  0  0  0
 10 18  2  0  0  0  0
 10 12  1  0  0  0  0
 11 14  2  0  0  0  0
 12 13  2  0  0  0  0
 13 19  1  0  0  0  0
 13  8  1  0  0  0  0
 15 17  2  0  0  0  0
 16 14  1  0  0  0  0
 16  5  1  1  0  0  0
 18  9  1  0  0  0  0
 19  1  2  0  0  0  0
 20 16  1  0  0  0  0
 20  3  1  1  0  0  0
 22 21  1  1  0  0  0
 22 23  1  0  0  0  0
 22  7  1  0  0  0  0
 24 26  1  0  0  0  0
 24 23  1  0  0  0  0
 25 26  1  0  0  0  0
 26 27  1  0  0  0  0
 28 12  1  0  0  0  0
 29 28  1  0  0  0  0
 30 29  1  0  0  0  0
 31 30  1  0  0  0  0
M  END
>  <MODEL>
1

>  <REMARK>
 VINA RESULT:      -8.2      0.000      0.000
  Name = 
  7 active torsions:
  status: ('A' for Active; 'I' for Inactive)
    1  A    between atoms: C_7  and  C_10
    2  A    between atoms: C_7  and  C_11
    3  A    between atoms: N_9  and  N_15
    4  A    between atoms: N_9  and  O_25
    5  A    between atoms: C_11  and  C_13
    6  A    between atoms: C_13  and  N_18
    7  A    between atoms: N_15  and  C_20
                            x       y       z     vdW  Elec       q    Type
                         _______ _______ _______ _____ _____    ______ ____

>  <TORSDO>
F 7

$$$$
=
 OpenBabel10222420273D

 31 34  0  0  1  0  0  0  0  0999 V2000
  182.6870  178.8040  142.3080 C   0  0  0  0  0  0  0  0  0  0  0  0
  182.9750  178.7470  144.6930 N   0  0  0  0  0  0  0  0  0  0  0  0
  180.3990  177.9760  141.5360 C   0  0  0  0  0  2  0  0  0  0  0  0
  182.1560  178.8190  143.6160 C   0  0  0  0  0  0  0  0  0  0  0  0
  180.3780  180.7130  140.8430 O   0  0  0  0  0  1  0  0  0  0  0  0
  183.4970  178.6360  138.7510 N   0  0  0  0  0  2  0  0  0  0  0  0
  184.3200  178.6070  144.5770 C   0  0  0  0  0  0  0  0  0  0  0  0
  184.0750  179.4100  139.7630 N   0  0  0  0  0  2  0  0  0  0  0  0
  184.9120  178.5760  143.3000 C   0  0  0  0  0  0  0  0  0  0  0  0
  186.8990  178.4010  141.9220 C   0  0  0  0  0  3  0  0  0  0  0  0
  182.2420  179.0370  138.1880 C   0  0  0  0  0  3  0  0  0  0  0  0
  186.1420  178.6370  140.7740 C   0  0  0  0  0  0  0  0  0  0  0  0
  184.7550  178.8370  140.8760 C   0  0  0  0  0  0  0  0  0  0  0  0
  181.3140  179.6890  138.9060 C   0  0  0  0  0  3  0  0  0  0  0  0
  180.7000  178.8240  143.8310 C   0  0  0  0  0  3  0  0  0  0  0  0
  181.4800  179.9980  140.3690 C   0  0  2  0  0  3  0  0  0  0  0  0
  179.8670  178.4730  142.8500 C   0  0  0  0  0  3  0  0  0  0  0  0
  186.2940  178.3870  143.1720 C   0  0  0  0  0  3  0  0  0  0  0  0
  184.1050  178.7420  142.1420 C   0  0  0  0  0  0  0  0  0  0  0  0
  181.7040  178.6940  141.1520 C   0  0  1  0  0  3  0  0  0  0  0  0
  185.6200  179.7740  146.2100 O   0  0  0  0  0  1  0  0  0  0  0  0
  185.1540  178.5150  145.8260 C   0  0  2  0  0  3  0  0  0  0  0  0
  186.3060  177.5170  145.6850 C   0  0  0  0  0  2  0  0  0  0  0  0
  187.4970  177.8310  146.5870 C   0  0  0  0  0  2  0  0  0  0  0  0
  189.3880  178.0000  145.2280 C   0  0  0  0  0  1  0  0  0  0  0  0
  188.6800  177.1160  146.1360 N   0  0  0  0  0  0  0  0  0  0  0  0
  189.5320  176.9450  147.2980 C   0  0  0  0  0  1  0  0  0  0  0  0
  186.7820  178.7320  139.4980 N   0  0  0  0  0  2  0  0  0  0  0  0
  188.0350  178.1520  139.2560 N   0  0  0  0  0  2  0  0  0  0  0  0
  188.8250  179.1270  138.7510 O   0  0  0  0  0  0  0  0  0  0  0  0
  188.9800  178.7870  137.4080 C   0  0  0  0  0  1  0  0  0  0  0  0
  1  4  1  0  0  0  0
  3 17  1  0  0  0  0
  4 15  1  0  0  0  0
  4  2  2  0  0  0  0
  6  8  1  0  0  0  0
  7  2  1  0  0  0  0
  7 22  1  0  0  0  0
  8 13  1  0  0  0  0
  9  7  2  0  0  0  0
 10 18  2  0  0  0  0
 11  6  1  0  0  0  0
 11 14  2  0  0  0  0
 12 13  2  0  0  0  0
 12 10  1  0  0  0  0
 13 19  1  0  0  0  0
 14 16  1  0  0  0  0
 16  5  1  1  0  0  0
 16 20  1  0  0  0  0
 17 15  2  0  0  0  0
 18  9  1  0  0  0  0
 19  1  2  0  0  0  0
 19  9  1  0  0  0  0
 20  3  1  1  0  0  0
 20  1  1  0  0  0  0
 22 21  1  6  0  0  0
 23 22  1  0  0  0  0
 23 24  1  0  0  0  0
 25 26  1  0  0  0  0
 26 24  1  0  0  0  0
 26 27  1  0  0  0  0
 28 12  1  0  0  0  0
 29 28  1  0  0  0  0
 30 29  1  0  0  0  0
 31 30  1  0  0  0  0
M  END
>  <MODEL>
2

>  <REMARK>
 VINA RESULT:      -8.0      2.699      7.303
  Name = 
  7 active torsions:
  status: ('A' for Active; 'I' for Inactive)
    1  A    between atoms: C_7  and  C_10
    2  A    between atoms: C_7  and  C_11
    3  A    between atoms: N_9  and  N_15
    4  A    between atoms: N_9  and  O_25
    5  A    between atoms: C_11  and  C_13
    6  A    between atoms: C_13  and  N_18
    7  A    between atoms: N_15  and  C_20
                            x       y       z     vdW  Elec       q    Type
                         _______ _______ _______ _____ _____    ______ ____

>  <TORSDO>
F 7

$$$$
=
 OpenBabel10222420273D

 31 34  0  0  1  0  0  0  0  0999 V2000
  187.8170  178.0180  143.1450 C   0  0  0  0  0  0  0  0  0  0  0  0
  186.1920  178.3290  144.8870 N   0  0  0  0  0  0  0  0  0  0  0  0
  190.2260  178.3250  143.9300 C   0  0  0  0  0  2  0  0  0  0  0  0
  187.4530  178.0120  144.5090 C   0  0  0  0  0  0  0  0  0  0  0  0
  190.0960  175.5860  143.2570 O   0  0  0  0  0  1  0  0  0  0  0  0
  189.3260  178.0370  139.8200 N   0  0  0  0  0  2  0  0  0  0  0  0
  185.2400  178.7140  143.9980 C   0  0  0  0  0  0  0  0  0  0  0  0
  188.1180  177.4760  140.2490 N   0  0  0  0  0  2  0  0  0  0  0  0
  185.5410  178.7500  142.6240 C   0  0  0  0  0  0  0  0  0  0  0  0
  184.8440  179.1850  140.3430 C   0  0  0  0  0  3  0  0  0  0  0  0
  190.5570  177.3580  140.0980 C   0  0  0  0  0  3  0  0  0  0  0  0
  186.0660  178.7120  139.8630 C   0  0  0  0  0  0  0  0  0  0  0  0
  187.0460  178.2610  140.7630 C   0  0  0  0  0  0  0  0  0  0  0  0
  190.7220  176.6040  141.1950 C   0  0  0  0  0  3  0  0  0  0  0  0
  188.4600  177.7460  145.5500 C   0  0  0  0  0  3  0  0  0  0  0  0
  189.6630  176.4560  142.2540 C   0  0  2  0  0  3  0  0  0  0  0  0
  189.7610  177.8470  145.2770 C   0  0  0  0  0  3  0  0  0  0  0  0
  184.5780  179.1880  141.7060 C   0  0  0  0  0  3  0  0  0  0  0  0
  186.8220  178.3360  142.1690 C   0  0  0  0  0  0  0  0  0  0  0  0
  189.2910  177.8400  142.8100 C   0  0  1  0  0  3  0  0  0  0  0  0
  183.7900  178.9040  145.8910 O   0  0  0  0  0  1  0  0  0  0  0  0
  183.8690  179.0680  144.5070 C   0  0  2  0  0  3  0  0  0  0  0  0
  182.7630  178.2870  143.7930 C   0  0  0  0  0  2  0  0  0  0  0  0
  181.3830  178.9290  143.9220 C   0  0  0  0  0  2  0  0  0  0  0  0
  180.9380  178.7530  141.6380 C   0  0  0  0  0  1  0  0  0  0  0  0
  181.0660  179.6990  142.7310 N   0  0  0  0  0  0  0  0  0  0  0  0
  179.7480  180.2690  142.9420 C   0  0  0  0  0  1  0  0  0  0  0  0
  186.3030  178.6340  138.4540 N   0  0  0  0  0  2  0  0  0  0  0  0
  185.5600  177.7800  137.6280 N   0  0  0  0  0  2  0  0  0  0  0  0
  186.3790  176.7580  137.2890 O   0  0  0  0  0  0  0  0  0  0  0  0
  187.4500  177.3700  136.6420 C   0  0  0  0  0  1  0  0  0  0  0  0
  1  4  1  0  0  0  0
  3 17  1  0  0  0  0
  4  2  2  0  0  0  0
  4 15  1  0  0  0  0
  6 11  1  0  0  0  0
  6  8  1  0  0  0  0
  7 22  1  0  0  0  0
  7  2  1  0  0  0  0
  8 13  1  0  0  0  0
  9  7  2  0  0  0  0
 10 18  2  0  0  0  0
 11 14  2  0  0  0  0
 12 10  1  0  0  0  0
 12 13  2  0  0  0  0
 13 19  1  0  0  0  0
 14 16  1  0  0  0  0
 16 20  1  0  0  0  0
 16  5  1  1  0  0  0
 17 15  2  0  0  0  0
 18  9  1  0  0  0  0
 19  9  1  0  0  0  0
 19  1  2  0  0  0  0
 20  1  1  0  0  0  0
 20  3  1  1  0  0  0
 22 21  1  1  0  0  0
 23 24  1  0  0  0  0
 23 22  1  0  0  0  0
 25 26  1  0  0  0  0
 26 27  1  0  0  0  0
 26 24  1  0  0  0  0
 28 12  1  0  0  0  0
 29 28  1  0  0  0  0
 30 29  1  0  0  0  0
 31 30  1  0  0  0  0
M  END
>  <MODEL>
3

>  <REMARK>
 VINA RESULT:      -7.9      2.546      3.835
  Name = 
  7 active torsions:
  status: ('A' for Active; 'I' for Inactive)
    1  A    between atoms: C_7  and  C_10
    2  A    between atoms: C_7  and  C_11
    3  A    between atoms: N_9  and  N_15
    4  A    between atoms: N_9  and  O_25
    5  A    between atoms: C_11  and  C_13
    6  A    between atoms: C_13  and  N_18
    7  A    between atoms: N_15  and  C_20
                            x       y       z     vdW  Elec       q    Type
                         _______ _______ _______ _____ _____    ______ ____

>  <TORSDO>
F 7

$$$$
=
 OpenBabel10222420273D

 31 34  0  0  1  0  0  0  0  0999 V2000
  188.4020  177.8210  142.3150 C   0  0  0  0  0  0  0  0  0  0  0  0
  186.9840  178.5030  140.4990 N   0  0  0  0  0  0  0  0  0  0  0  0
  190.3590  176.3530  141.5860 C   0  0  0  0  0  2  0  0  0  0  0  0
  188.1960  178.0960  140.9450 C   0  0  0  0  0  0  0  0  0  0  0  0
  191.6100  178.7150  142.4940 O   0  0  0  0  0  1  0  0  0  0  0  0
  189.4340  176.8250  145.6730 N   0  0  0  0  0  2  0  0  0  0  0  0
  185.9080  178.6180  141.3180 C   0  0  0  0  0  0  0  0  0  0  0  0
  188.7240  177.9560  145.2560 N   0  0  0  0  0  2  0  0  0  0  0  0
  186.0440  178.3500  142.6930 C   0  0  0  0  0  0  0  0  0  0  0  0
  185.0550  178.2080  144.9030 C   0  0  0  0  0  3  0  0  0  0  0  0
  190.8560  176.7810  145.4970 C   0  0  0  0  0  3  0  0  0  0  0  0
  186.3060  177.9480  145.4620 C   0  0  0  0  0  0  0  0  0  0  0  0
  187.4430  177.8760  144.6390 C   0  0  0  0  0  0  0  0  0  0  0  0
  191.4670  177.4020  144.4770 C   0  0  0  0  0  3  0  0  0  0  0  0
  189.2700  177.8590  139.9660 C   0  0  0  0  0  3  0  0  0  0  0  0
  190.7180  178.1400  143.4010 C   0  0  2  0  0  3  0  0  0  0  0  0
  190.3080  177.0800  140.2720 C   0  0  0  0  0  3  0  0  0  0  0  0
  184.9280  178.4240  143.5360 C   0  0  0  0  0  3  0  0  0  0  0  0
  187.3170  178.0100  143.2250 C   0  0  0  0  0  0  0  0  0  0  0  0
  189.7270  177.1870  142.7120 C   0  0  1  0  0  3  0  0  0  0  0  0
  183.5750  178.1580  141.0580 O   0  0  0  0  0  1  0  0  0  0  0  0
  184.5920  179.0590  140.7350 C   0  0  2  0  0  3  0  0  0  0  0  0
  184.6720  179.2860  139.2240 C   0  0  0  0  0  2  0  0  0  0  0  0
  183.7840  178.3400  138.4180 C   0  0  0  0  0  2  0  0  0  0  0  0
  183.8000  176.6570  136.8010 C   0  0  0  0  0  1  0  0  0  0  0  0
  184.5640  177.2320  137.8940 N   0  0  0  0  0  0  0  0  0  0  0  0
  185.7610  177.8050  137.3070 C   0  0  0  0  0  1  0  0  0  0  0  0
  186.4440  177.8080  146.8800 N   0  0  0  0  0  2  0  0  0  0  0  0
  186.5010  178.9230  147.7280 N   0  0  0  0  0  2  0  0  0  0  0  0
  187.7170  178.9000  148.3200 O   0  0  0  0  0  0  0  0  0  0  0  0
  187.8760  177.5800  148.7360 C   0  0  0  0  0  1  0  0  0  0  0  0
  1 20  1  0  0  0  0
  1 19  1  0  0  0  0
  2  4  1  0  0  0  0
  2  7  2  0  0  0  0
  4  1  2  0  0  0  0
  7  9  1  0  0  0  0
  8  6  1  0  0  0  0
  9 19  2  0  0  0  0
  9 18  1  0  0  0  0
 10 12  1  0  0  0  0
 11  6  1  0  0  0  0
 12 28  1  0  0  0  0
 13  8  1  0  0  0  0
 13 12  2  0  0  0  0
 14 11  2  0  0  0  0
 15 17  2  0  0  0  0
 15  4  1  0  0  0  0
 16  5  1  6  0  0  0
 16 14  1  0  0  0  0
 17  3  1  0  0  0  0
 18 10  2  0  0  0  0
 19 13  1  0  0  0  0
 20  3  1  6  0  0  0
 20 16  1  0  0  0  0
 22 21  1  6  0  0  0
 22  7  1  0  0  0  0
 23 22  1  0  0  0  0
 24 23  1  0  0  0  0
 25 26  1  0  0  0  0
 26 24  1  0  0  0  0
 27 26  1  0  0  0  0
 28 29  1  0  0  0  0
 29 30  1  0  0  0  0
 30 31  1  0  0  0  0
M  END
>  <MODEL>
4

>  <REMARK>
 VINA RESULT:      -7.9      2.772      5.624
  Name = 
  7 active torsions:
  status: ('A' for Active; 'I' for Inactive)
    1  A    between atoms: C_7  and  C_10
    2  A    between atoms: C_7  and  C_11
    3  A    between atoms: N_9  and  N_15
    4  A    between atoms: N_9  and  O_25
    5  A    between atoms: C_11  and  C_13
    6  A    between atoms: C_13  and  N_18
    7  A    between atoms: N_15  and  C_20
                            x       y       z     vdW  Elec       q    Type
                         _______ _______ _______ _____ _____    ______ ____

>  <TORSDO>
F 7

$$$$
=
 OpenBabel10222420273D

 31 34  0  0  1  0  0  0  0  0999 V2000
  188.3110  177.8280  141.8530 C   0  0  0  0  0  0  0  0  0  0  0  0
  187.4080  178.3730  139.6940 N   0  0  0  0  0  0  0  0  0  0  0  0
  190.4130  176.3840  141.7440 C   0  0  0  0  0  2  0  0  0  0  0  0
  188.4670  178.0250  140.4630 C   0  0  0  0  0  0  0  0  0  0  0  0
  191.3460  178.8260  142.8110 O   0  0  0  0  0  1  0  0  0  0  0  0
  188.4420  177.0370  145.4160 N   0  0  0  0  0  2  0  0  0  0  0  0
  186.1530  178.4980  140.1960 C   0  0  0  0  0  0  0  0  0  0  0  0
  187.8490  178.1230  144.7630 N   0  0  0  0  0  2  0  0  0  0  0  0
  185.9280  178.3050  141.5720 C   0  0  0  0  0  0  0  0  0  0  0  0
  184.3970  178.2470  143.4520 C   0  0  0  0  0  3  0  0  0  0  0  0
  189.8600  177.0260  145.6190 C   0  0  0  0  0  3  0  0  0  0  0  0
  185.4620  178.0530  144.3320 C   0  0  0  0  0  0  0  0  0  0  0  0
  186.7750  177.9730  143.8390 C   0  0  0  0  0  0  0  0  0  0  0  0
  190.7080  177.6120  144.7600 C   0  0  0  0  0  3  0  0  0  0  0  0
  189.7630  177.7720  139.8130 C   0  0  0  0  0  3  0  0  0  0  0  0
  190.2560  178.2710  143.4850 C   0  0  2  0  0  3  0  0  0  0  0  0
  190.6970  177.0410  140.4240 C   0  0  0  0  0  3  0  0  0  0  0  0
  184.6290  178.3880  142.0890 C   0  0  0  0  0  3  0  0  0  0  0  0
  187.0230  178.0310  142.4360 C   0  0  0  0  0  0  0  0  0  0  0  0
  189.4950  177.2550  142.6180 C   0  0  1  0  0  3  0  0  0  0  0  0
  184.5100  180.1250  139.5840 O   0  0  0  0  0  1  0  0  0  0  0  0
  185.0290  178.8680  139.2660 C   0  0  2  0  0  3  0  0  0  0  0  0
  183.9270  177.8060  139.2320 C   0  0  0  0  0  2  0  0  0  0  0  0
  182.5440  178.3730  138.9220 C   0  0  0  0  0  2  0  0  0  0  0  0
  182.1500  176.1650  139.5670 C   0  0  0  0  0  1  0  0  0  0  0  0
  181.5070  177.4470  139.3460 N   0  0  0  0  0  0  0  0  0  0  0  0
  181.0410  177.9070  140.6410 C   0  0  0  0  0  1  0  0  0  0  0  0
  185.2260  177.9900  145.7420 N   0  0  0  0  0  2  0  0  0  0  0  0
  184.6870  179.0750  146.4480 N   0  0  0  0  0  2  0  0  0  0  0  0
  185.7280  179.7200  147.0240 O   0  0  0  0  0  0  0  0  0  0  0  0
  186.3470  178.7490  147.8090 C   0  0  0  0  0  1  0  0  0  0  0  0
  1 19  1  0  0  0  0
  1 20  1  0  0  0  0
  2  7  2  0  0  0  0
  2  4  1  0  0  0  0
  4  1  2  0  0  0  0
  6 11  1  0  0  0  0
  7  9  1  0  0  0  0
  8  6  1  0  0  0  0
  9 18  2  0  0  0  0
  9 19  1  0  0  0  0
 10 12  2  0  0  0  0
 12 28  1  0  0  0  0
 13 12  1  0  0  0  0
 13  8  1  0  0  0  0
 14 11  2  0  0  0  0
 15 17  2  0  0  0  0
 15  4  1  0  0  0  0
 16  5  1  6  0  0  0
 16 14  1  0  0  0  0
 17  3  1  0  0  0  0
 18 10  1  0  0  0  0
 19 13  2  0  0  0  0
 20  3  1  6  0  0  0
 20 16  1  0  0  0  0
 22 21  1  1  0  0  0
 22  7  1  0  0  0  0
 23 22  1  0  0  0  0
 24 23  1  0  0  0  0
 24 26  1  0  0  0  0
 26 25  1  0  0  0  0
 26 27  1  0  0  0  0
 28 29  1  0  0  0  0
 29 30  1  0  0  0  0
 30 31  1  0  0  0  0
M  END
>  <MODEL>
5

>  <REMARK>
 VINA RESULT:      -7.8      2.438      5.400
  Name = 
  7 active torsions:
  status: ('A' for Active; 'I' for Inactive)
    1  A    between atoms: C_7  and  C_10
    2  A    between atoms: C_7  and  C_11
    3  A    between atoms: N_9  and  N_15
    4  A    between atoms: N_9  and  O_25
    5  A    between atoms: C_11  and  C_13
    6  A    between atoms: C_13  and  N_18
    7  A    between atoms: N_15  and  C_20
                            x       y       z     vdW  Elec       q    Type
                         _______ _______ _______ _____ _____    ______ ____

>  <TORSDO>
F 7

$$$$
=
 OpenBabel10222420273D

 31 34  0  0  1  0  0  0  0  0999 V2000
  185.9770  178.3840  143.3830 C   0  0  0  0  0  0  0  0  0  0  0  0
  184.0850  178.7300  141.9420 N   0  0  0  0  0  0  0  0  0  0  0  0
  185.6790  179.3790  145.7140 C   0  0  0  0  0  2  0  0  0  0  0  0
  184.5970  178.6150  143.1910 C   0  0  0  0  0  0  0  0  0  0  0  0
  185.7670  176.5970  146.1910 O   0  0  0  0  0  1  0  0  0  0  0  0
  189.4440  177.9600  144.4490 N   0  0  0  0  0  2  0  0  0  0  0  0
  184.8610  178.6820  140.8300 C   0  0  0  0  0  0  0  0  0  0  0  0
  188.7170  177.2660  143.4750 N   0  0  0  0  0  2  0  0  0  0  0  0
  186.2460  178.4640  140.9520 C   0  0  0  0  0  0  0  0  0  0  0  0
  188.4200  178.1980  139.9120 C   0  0  0  0  0  3  0  0  0  0  0  0
  189.2450  177.6470  145.8330 C   0  0  0  0  0  3  0  0  0  0  0  0
  188.9930  177.9040  141.1500 C   0  0  0  0  0  0  0  0  0  0  0  0
  188.1980  177.8960  142.3080 C   0  0  0  0  0  0  0  0  0  0  0  0
  188.0630  177.2220  146.3050 C   0  0  0  0  0  3  0  0  0  0  0  0
  183.7060  178.8220  144.3450 C   0  0  0  0  0  3  0  0  0  0  0  0
  186.8350  177.0970  145.4440 C   0  0  2  0  0  3  0  0  0  0  0  0
  184.2060  179.1370  145.5400 C   0  0  0  0  0  3  0  0  0  0  0  0
  187.0590  178.4580  139.8120 C   0  0  0  0  0  3  0  0  0  0  0  0
  186.8170  178.2440  142.2350 C   0  0  0  0  0  0  0  0  0  0  0  0
  186.5100  178.4570  144.8060 C   0  0  1  0  0  3  0  0  0  0  0  0
  184.1790  180.1800  139.0950 O   0  0  0  0  0  1  0  0  0  0  0  0
  184.2120  178.8390  139.4810 C   0  0  2  0  0  3  0  0  0  0  0  0
  182.8170  178.2120  139.4300 C   0  0  0  0  0  2  0  0  0  0  0  0
  181.7030  179.2260  139.1790 C   0  0  0  0  0  2  0  0  0  0  0  0
  179.8310  180.2990  140.0680 C   0  0  0  0  0  1  0  0  0  0  0  0
  181.0290  179.5600  140.4220 N   0  0  0  0  0  0  0  0  0  0  0  0
  180.5860  178.3080  141.0060 C   0  0  0  0  0  1  0  0  0  0  0  0
  190.3780  177.5550  141.2350 N   0  0  0  0  0  2  0  0  0  0  0  0
  191.1450  177.2920  140.0920 N   0  0  0  0  0  2  0  0  0  0  0  0
  190.8730  176.0180  139.7260 O   0  0  0  0  0  0  0  0  0  0  0  0
  191.0650  176.0040  138.3450 C   0  0  0  0  0  1  0  0  0  0  0  0
  1 20  1  0  0  0  0
  2  4  2  0  0  0  0
  4  1  1  0  0  0  0
  4 15  1  0  0  0  0
  6 11  1  0  0  0  0
  7  9  2  0  0  0  0
  7  2  1  0  0  0  0
  8  6  1  0  0  0  0
  9 19  1  0  0  0  0
 10 12  1  0  0  0  0
 11 14  2  0  0  0  0
 12 28  1  0  0  0  0
 12 13  2  0  0  0  0
 13  8  1  0  0  0  0
 15 17  2  0  0  0  0
 16  5  1  1  0  0  0
 16 14  1  0  0  0  0
 17  3  1  0  0  0  0
 18 10  2  0  0  0  0
 18  9  1  0  0  0  0
 19 13  1  0  0  0  0
 19  1  2  0  0  0  0
 20 16  1  0  0  0  0
 20  3  1  1  0  0  0
 22 21  1  1  0  0  0
 22  7  1  0  0  0  0
 23 22  1  0  0  0  0
 24 23  1  0  0  0  0
 24 26  1  0  0  0  0
 25 26  1  0  0  0  0
 26 27  1  0  0  0  0
 29 28  1  0  0  0  0
 30 29  1  0  0  0  0
 31 30  1  0  0  0  0
M  END
>  <MODEL>
6

>  <REMARK>
 VINA RESULT:      -7.7      1.923      2.708
  Name = 
  7 active torsions:
  status: ('A' for Active; 'I' for Inactive)
    1  A    between atoms: C_7  and  C_10
    2  A    between atoms: C_7  and  C_11
    3  A    between atoms: N_9  and  N_15
    4  A    between atoms: N_9  and  O_25
    5  A    between atoms: C_11  and  C_13
    6  A    between atoms: C_13  and  N_18
    7  A    between atoms: N_15  and  C_20
                            x       y       z     vdW  Elec       q    Type
                         _______ _______ _______ _____ _____    ______ ____

>  <TORSDO>
F 7

$$$$
=
 OpenBabel10222420273D

 31 34  0  0  1  0  0  0  0  0999 V2000
  188.8250  177.5610  141.5200 C   0  0  0  0  0  0  0  0  0  0  0  0
  188.5350  177.0120  143.8410 N   0  0  0  0  0  0  0  0  0  0  0  0
  191.2570  177.9740  140.8660 C   0  0  0  0  0  2  0  0  0  0  0  0
  189.3200  177.0450  142.7380 C   0  0  0  0  0  0  0  0  0  0  0  0
  190.5810  175.6300  139.4440 O   0  0  0  0  0  1  0  0  0  0  0  0
  188.1260  178.9230  138.2050 N   0  0  0  0  0  2  0  0  0  0  0  0
  187.2730  177.5100  143.8520 C   0  0  0  0  0  0  0  0  0  0  0  0
  187.3570  178.0650  138.9980 N   0  0  0  0  0  2  0  0  0  0  0  0
  186.7230  178.0480  142.6730 C   0  0  0  0  0  0  0  0  0  0  0  0
  184.8630  179.0960  141.5230 C   0  0  0  0  0  3  0  0  0  0  0  0
  189.2420  178.3970  137.4760 C   0  0  0  0  0  3  0  0  0  0  0  0
  185.5470  179.0120  140.3090 C   0  0  0  0  0  0  0  0  0  0  0  0
  186.8350  178.4510  140.2660 C   0  0  0  0  0  0  0  0  0  0  0  0
  189.9620  177.3590  137.9270 C   0  0  0  0  0  3  0  0  0  0  0  0
  190.7230  176.6150  142.8520 C   0  0  0  0  0  3  0  0  0  0  0  0
  189.7060  176.7010  139.2560 C   0  0  2  0  0  3  0  0  0  0  0  0
  191.6290  177.0090  141.9560 C   0  0  0  0  0  3  0  0  0  0  0  0
  185.4380  178.6040  142.6880 C   0  0  0  0  0  3  0  0  0  0  0  0
  187.4730  178.0200  141.4660 C   0  0  0  0  0  0  0  0  0  0  0  0
  189.8170  177.7440  140.3800 C   0  0  1  0  0  3  0  0  0  0  0  0
  185.9730  178.7100  145.4620 O   0  0  0  0  0  1  0  0  0  0  0  0
  186.4770  177.4510  145.1280 C   0  0  2  0  0  3  0  0  0  0  0  0
  187.2770  176.8490  146.2860 C   0  0  0  0  0  2  0  0  0  0  0  0
  187.6750  177.8720  147.3470 C   0  0  0  0  0  2  0  0  0  0  0  0
  189.8130  176.9470  147.1970 C   0  0  0  0  0  1  0  0  0  0  0  0
  188.7930  177.3800  148.1350 N   0  0  0  0  0  0  0  0  0  0  0  0
  189.3390  178.5230  148.8430 C   0  0  0  0  0  1  0  0  0  0  0  0
  184.9180  179.4440  139.0990 N   0  0  0  0  0  2  0  0  0  0  0  0
  183.9610  180.4680  139.0910 N   0  0  0  0  0  2  0  0  0  0  0  0
  182.7620  179.8790  138.8800 O   0  0  0  0  0  0  0  0  0  0  0  0
  181.9010  180.9360  138.5910 C   0  0  0  0  0  1  0  0  0  0  0  0
  1  4  1  0  0  0  0
  2  7  1  0  0  0  0
  3 17  1  0  0  0  0
  4 15  1  0  0  0  0
  4  2  2  0  0  0  0
  6  8  1  0  0  0  0
  7 22  1  0  0  0  0
  8 13  1  0  0  0  0
  9 18  1  0  0  0  0
  9  7  2  0  0  0  0
 10 18  2  0  0  0  0
 11 14  2  0  0  0  0
 11  6  1  0  0  0  0
 12 10  1  0  0  0  0
 13 12  2  0  0  0  0
 13 19  1  0  0  0  0
 14 16  1  0  0  0  0
 16  5  1  1  0  0  0
 16 20  1  0  0  0  0
 17 15  2  0  0  0  0
 19  1  2  0  0  0  0
 19  9  1  0  0  0  0
 20  3  1  1  0  0  0
 20  1  1  0  0  0  0
 22 21  1  1  0  0  0
 22 23  1  0  0  0  0
 23 24  1  0  0  0  0
 24 26  1  0  0  0  0
 25 26  1  0  0  0  0
 26 27  1  0  0  0  0
 28 12  1  0  0  0  0
 29 28  1  0  0  0  0
 30 29  1  0  0  0  0
 31 30  1  0  0  0  0
M  END
>  <MODEL>
7

>  <REMARK>
 VINA RESULT:      -7.6      2.602      6.875
  Name = 
  7 active torsions:
  status: ('A' for Active; 'I' for Inactive)
    1  A    between atoms: C_7  and  C_10
    2  A    between atoms: C_7  and  C_11
    3  A    between atoms: N_9  and  N_15
    4  A    between atoms: N_9  and  O_25
    5  A    between atoms: C_11  and  C_13
    6  A    between atoms: C_13  and  N_18
    7  A    between atoms: N_15  and  C_20
                            x       y       z     vdW  Elec       q    Type
                         _______ _______ _______ _____ _____    ______ ____

>  <TORSDO>
F 7

$$$$
=
 OpenBabel10222420273D

 31 34  0  0  1  0  0  0  0  0999 V2000
  185.8330  178.4480  143.4710 C   0  0  0  0  0  0  0  0  0  0  0  0
  184.1330  178.7630  141.8020 N   0  0  0  0  0  0  0  0  0  0  0  0
  185.2590  179.5020  145.7230 C   0  0  0  0  0  2  0  0  0  0  0  0
  184.4880  178.6780  143.1060 C   0  0  0  0  0  0  0  0  0  0  0  0
  185.2710  176.7330  146.2760 O   0  0  0  0  0  1  0  0  0  0  0  0
  189.1410  178.0410  144.9620 N   0  0  0  0  0  2  0  0  0  0  0  0
  185.0390  178.6850  140.7940 C   0  0  0  0  0  0  0  0  0  0  0  0
  188.5350  177.3240  143.9250 N   0  0  0  0  0  2  0  0  0  0  0  0
  186.3970  178.4660  141.0900 C   0  0  0  0  0  0  0  0  0  0  0  0
  188.6810  178.1670  140.3300 C   0  0  0  0  0  3  0  0  0  0  0  0
  188.7730  177.7630  146.3190 C   0  0  0  0  0  3  0  0  0  0  0  0
  189.0960  177.9020  141.6360 C   0  0  0  0  0  0  0  0  0  0  0  0
  188.1650  177.9260  142.6880 C   0  0  0  0  0  0  0  0  0  0  0  0
  187.5400  177.3530  146.6540 C   0  0  0  0  0  3  0  0  0  0  0  0
  183.4650  178.9160  144.1370 C   0  0  0  0  0  3  0  0  0  0  0  0
  186.4250  177.2100  145.6530 C   0  0  2  0  0  3  0  0  0  0  0  0
  183.8170  179.2600  145.3770 C   0  0  0  0  0  3  0  0  0  0  0  0
  187.3430  178.4290  140.0590 C   0  0  0  0  0  3  0  0  0  0  0  0
  186.8060  178.2760  142.4390 C   0  0  0  0  0  0  0  0  0  0  0  0
  186.1880  178.5550  144.9470 C   0  0  1  0  0  3  0  0  0  0  0  0
  184.3710  180.1480  139.0240 O   0  0  0  0  0  1  0  0  0  0  0  0
  184.5610  178.8100  139.3730 C   0  0  2  0  0  3  0  0  0  0  0  0
  183.2980  177.9840  139.1090 C   0  0  0  0  0  2  0  0  0  0  0  0
  183.5600  176.7130  138.3030 C   0  0  0  0  0  2  0  0  0  0  0  0
  181.7060  176.1570  139.6080 C   0  0  0  0  0  1  0  0  0  0  0  0
  182.8160  175.5960  138.8600 N   0  0  0  0  0  0  0  0  0  0  0  0
  182.2400  174.8780  137.7380 C   0  0  0  0  0  1  0  0  0  0  0  0
  190.4580  177.5520  141.8980 N   0  0  0  0  0  2  0  0  0  0  0  0
  190.9640  176.2800  141.5960 N   0  0  0  0  0  2  0  0  0  0  0  0
  190.6420  175.4760  142.6340 O   0  0  0  0  0  0  0  0  0  0  0  0
  191.5930  175.7700  143.6100 C   0  0  0  0  0  1  0  0  0  0  0  0
  1 20  1  0  0  0  0
  2  4  2  0  0  0  0
  4  1  1  0  0  0  0
  4 15  1  0  0  0  0
  6 11  1  0  0  0  0
  7  9  2  0  0  0  0
  7  2  1  0  0  0  0
  8  6  1  0  0  0  0
  9 19  1  0  0  0  0
 10 12  1  0  0  0  0
 11 14  2  0  0  0  0
 12 28  1  0  0  0  0
 12 13  2  0  0  0  0
 13  8  1  0  0  0  0
 15 17  2  0  0  0  0
 16  5  1  1  0  0  0
 16 14  1  0  0  0  0
 17  3  1  0  0  0  0
 18 10  2  0  0  0  0
 18  9  1  0  0  0  0
 19 13  1  0  0  0  0
 19  1  2  0  0  0  0
 20 16  1  0  0  0  0
 20  3  1  1  0  0  0
 22 21  1  1  0  0  0
 22  7  1  0  0  0  0
 23 22  1  0  0  0  0
 24 26  1  0  0  0  0
 24 23  1  0  0  0  0
 26 25  1  0  0  0  0
 27 26  1  0  0  0  0
 29 28  1  0  0  0  0
 29 30  1  0  0  0  0
 30 31  1  0  0  0  0
M  END
>  <MODEL>
8

>  <REMARK>
 VINA RESULT:      -7.5      2.701      3.595
  Name = 
  7 active torsions:
  status: ('A' for Active; 'I' for Inactive)
    1  A    between atoms: C_7  and  C_10
    2  A    between atoms: C_7  and  C_11
    3  A    between atoms: N_9  and  N_15
    4  A    between atoms: N_9  and  O_25
    5  A    between atoms: C_11  and  C_13
    6  A    between atoms: C_13  and  N_18
    7  A    between atoms: N_15  and  C_20
                            x       y       z     vdW  Elec       q    Type
                         _______ _______ _______ _____ _____    ______ ____

>  <TORSDO>
F 7

$$$$
=
 OpenBabel10222420273D

 31 34  0  0  1  0  0  0  0  0999 V2000
  188.2970  177.6670  142.2700 C   0  0  0  0  0  0  0  0  0  0  0  0
  188.9240  177.8320  139.9570 N   0  0  0  0  0  0  0  0  0  0  0  0
  189.7090  176.0030  143.5940 C   0  0  0  0  0  2  0  0  0  0  0  0
  189.2520  177.5400  141.2380 C   0  0  0  0  0  0  0  0  0  0  0  0
  190.3830  178.4940  144.7380 O   0  0  0  0  0  1  0  0  0  0  0  0
  186.2080  177.6560  145.2650 N   0  0  0  0  0  2  0  0  0  0  0  0
  187.6710  178.2050  139.5930 C   0  0  0  0  0  0  0  0  0  0  0  0
  186.3460  178.6360  144.2760 N   0  0  0  0  0  2  0  0  0  0  0  0
  186.6700  178.3410  140.5730 C   0  0  0  0  0  0  0  0  0  0  0  0
  184.3760  178.8670  141.1590 C   0  0  0  0  0  3  0  0  0  0  0  0
  187.2160  177.5270  146.2750 C   0  0  0  0  0  3  0  0  0  0  0  0
  184.6800  178.7470  142.5160 C   0  0  0  0  0  0  0  0  0  0  0  0
  185.9840  178.4130  142.9170 C   0  0  0  0  0  0  0  0  0  0  0  0
  188.5050  177.8120  146.0360 C   0  0  0  0  0  3  0  0  0  0  0  0
  190.5940  177.0050  141.5230 C   0  0  0  0  0  3  0  0  0  0  0  0
  189.0140  178.2270  144.6820 C   0  0  2  0  0  3  0  0  0  0  0  0
  190.8280  176.3220  142.6430 C   0  0  0  0  0  3  0  0  0  0  0  0
  185.3640  178.6830  140.2000 C   0  0  0  0  0  3  0  0  0  0  0  0
  186.9880  178.1380  141.9430 C   0  0  0  0  0  0  0  0  0  0  0  0
  188.6780  177.1410  143.6470 C   0  0  1  0  0  3  0  0  0  0  0  0
  186.5160  177.5410  137.6060 O   0  0  0  0  0  1  0  0  0  0  0  0
  187.3870  178.4920  138.1430 C   0  0  2  0  0  3  0  0  0  0  0  0
  188.6670  178.6030  137.3100 C   0  0  0  0  0  2  0  0  0  0  0  0
  188.8430  177.4640  136.3090 C   0  0  0  0  0  2  0  0  0  0  0  0
  189.5710  175.5500  137.4290 C   0  0  0  0  0  1  0  0  0  0  0  0
  190.0210  176.6770  136.6340 N   0  0  0  0  0  0  0  0  0  0  0  0
  190.5170  176.1320  135.3840 C   0  0  0  0  0  1  0  0  0  0  0  0
  183.6790  179.0190  143.5020 N   0  0  0  0  0  2  0  0  0  0  0  0
  182.3130  179.0000  143.1910 N   0  0  0  0  0  2  0  0  0  0  0  0
  181.6630  178.6170  144.3140 O   0  0  0  0  0  0  0  0  0  0  0  0
  180.3150  178.6470  143.9630 C   0  0  0  0  0  1  0  0  0  0  0  0
  1 20  1  0  0  0  0
  2  4  1  0  0  0  0
  4 15  1  0  0  0  0
  4  1  2  0  0  0  0
  6 11  1  0  0  0  0
  7  2  2  0  0  0  0
  7  9  1  0  0  0  0
  8  6  1  0  0  0  0
  9 19  1  0  0  0  0
 10 12  2  0  0  0  0
 12 13  1  0  0  0  0
 12 28  1  0  0  0  0
 13  8  1  0  0  0  0
 14 11  2  0  0  0  0
 15 17  2  0  0  0  0
 16  5  1  1  0  0  0
 16 14  1  0  0  0  0
 17  3  1  0  0  0  0
 18  9  2  0  0  0  0
 18 10  1  0  0  0  0
 19  1  1  0  0  0  0
 19 13  2  0  0  0  0
 20  3  1  6  0  0  0
 20 16  1  0  0  0  0
 22 21  1  6  0  0  0
 22  7  1  0  0  0  0
 23 22  1  0  0  0  0
 24 26  1  0  0  0  0
 24 23  1  0  0  0  0
 26 25  1  0  0  0  0
 27 26  1  0  0  0  0
 29 28  1  0  0  0  0
 29 30  1  0  0  0  0
 31 30  1  0  0  0  0
M  END
>  <MODEL>
9

>  <REMARK>
 VINA RESULT:      -7.5      2.440      6.952
  Name = 
  7 active torsions:
  status: ('A' for Active; 'I' for Inactive)
    1  A    between atoms: C_7  and  C_10
    2  A    between atoms: C_7  and  C_11
    3  A    between atoms: N_9  and  N_15
    4  A    between atoms: N_9  and  O_25
    5  A    between atoms: C_11  and  C_13
    6  A    between atoms: C_13  and  N_18
    7  A    between atoms: N_15  and  C_20
                            x       y       z     vdW  Elec       q    Type
                         _______ _______ _______ _____ _____    ______ ____

>  <TORSDO>
F 7

$$$$
