=
 OpenBabel10222415533D

 29 33  0  0  1  0  0  0  0  0999 V2000
  192.0230  176.9070  147.9370 N   0  0  0  0  0  1  0  0  0  0  0  0
  189.6570  177.2210  147.6100 N   0  0  0  0  0  0  0  0  0  0  0  0
  189.9160  176.8310  144.8830 C   0  0  0  0  0  0  0  0  0  0  0  0
  184.9050  179.4370  143.1260 C   0  0  0  0  0  1  0  0  0  0  0  0
  187.7470  177.1520  143.1640 C   0  0  2  0  0  3  0  0  0  0  0  0
  189.2170  177.3030  141.3180 N   0  0  0  0  0  0  0  0  0  0  0  0
  191.0370  176.7630  145.7100 C   0  0  0  0  0  3  0  0  0  0  0  0
  187.4050  176.9910  144.5940 C   0  0  1  0  0  3  0  0  0  0  0  0
  188.5440  177.2790  146.8310 C   0  0  0  0  0  3  0  0  0  0  0  0
  188.2300  177.8930  140.5690 C   0  0  1  0  0  3  0  0  0  0  0  0
  189.0110  176.9860  142.6280 C   0  0  0  0  0  0  0  0  0  0  0  0
  187.0110  178.2670  141.1820 C   0  0  0  0  0  3  0  0  0  0  0  0
  188.6440  177.1070  145.4490 C   0  0  0  0  0  0  0  0  0  0  0  0
  185.8520  178.3780  143.4230 N   0  0  0  0  0  0  0  0  0  0  0  0
  190.0660  176.6680  143.4900 O   0  0  0  0  0  0  0  0  0  0  0  0
  186.8070  177.8730  142.5060 C   0  0  0  0  0  0  0  0  0  0  0  0
  186.3050  178.0580  144.7820 C   0  0  0  0  0  2  0  0  0  0  0  0
  190.8870  176.9670  147.0840 C   0  0  0  0  0  0  0  0  0  0  0  0
  188.1100  177.3160  138.1330 N   0  0  0  0  0  2  0  0  0  0  0  0
  189.0480  179.3230  138.8630 O   0  0  0  0  0  0  0  0  0  0  0  0
  188.4890  178.2330  139.1620 C   0  0  0  0  0  0  0  0  0  0  0  0
  187.4580  176.8030  135.7740 C   0  0  1  0  0  3  0  0  0  0  0  0
  187.2010  178.2640  136.1110 C   0  0  0  0  0  2  0  0  0  0  0  0
  188.3930  177.5700  136.7270 C   0  0  1  0  0  3  0  0  0  0  0  0
  185.3560  176.5160  137.1150 C   0  0  0  0  0  1  0  0  0  0  0  0
  186.5200  175.9160  136.4740 N   0  0  0  0  0  0  0  0  0  0  0  0
  186.8710  174.5540  136.7780 C   0  0  0  0  0  0  0  0  0  0  0  0
  185.9010  173.6470  137.4600 C   0  0  0  0  0  1  0  0  0  0  0  0
  188.0060  174.1030  136.4720 O   0  0  0  0  0  0  0  0  0  0  0  0
  3 13  2  0  0  0  0
  3  7  1  0  0  0  0
  4 14  1  0  0  0  0
  5 16  1  1  0  0  0
  5  8  1  0  0  0  0
  6 11  2  0  0  0  0
  7 18  2  0  0  0  0
  8 17  1  1  0  0  0
  8 13  1  0  0  0  0
  9  2  2  0  0  0  0
 10 21  1  1  0  0  0
 10 12  1  0  0  0  0
 10  6  1  0  0  0  0
 11  5  1  0  0  0  0
 11 15  1  0  0  0  0
 12 16  2  0  0  0  0
 13  9  1  0  0  0  0
 14 17  1  0  0  0  0
 15  3  1  0  0  0  0
 16 14  1  0  0  0  0
 18  2  1  0  0  0  0
 18  1  1  0  0  0  0
 19 21  1  0  0  0  0
 20 21  2  0  0  0  0
 22 23  1  0  0  0  0
 22 26  1  1  0  0  0
 22 24  1  0  0  0  0
 23 24  1  0  0  0  0
 24 19  1  1  0  0  0
 26 27  1  0  0  0  0
 26 25  1  0  0  0  0
 27 28  1  0  0  0  0
 29 27  2  0  0  0  0
M  END
>  <MODEL>
1

>  <REMARK>
 VINA RESULT:      -9.1      0.000      0.000
  Name = 
  3 active torsions:
  status: ('A' for Active; 'I' for Inactive)
    1  A    between atoms: N_2  and  C_25
    2  A    between atoms: N_6  and  C_11
    3  A    between atoms: C_14  and  C_18
                            x       y       z     vdW  Elec       q    Type
                         _______ _______ _______ _____ _____    ______ ____

>  <TORSDO>
F 3

$$$$
=
 OpenBabel10222415533D

 29 33  0  0  1  0  0  0  0  0999 V2000
  191.9830  177.1160  146.6130 N   0  0  0  0  0  1  0  0  0  0  0  0
  189.6470  177.3470  147.1540 N   0  0  0  0  0  0  0  0  0  0  0  0
  188.9430  177.1570  144.4850 C   0  0  0  0  0  0  0  0  0  0  0  0
  183.5890  179.6540  144.7890 C   0  0  0  0  0  1  0  0  0  0  0  0
  186.3040  177.4980  143.6570 C   0  0  2  0  0  3  0  0  0  0  0  0
  187.0340  177.8380  141.4340 N   0  0  0  0  0  0  0  0  0  0  0  0
  190.2830  177.0810  144.8630 C   0  0  0  0  0  3  0  0  0  0  0  0
  186.4870  177.2260  145.0990 C   0  0  1  0  0  3  0  0  0  0  0  0
  188.3300  177.4100  146.8170 C   0  0  0  0  0  3  0  0  0  0  0  0
  185.8370  178.4350  141.1230 C   0  0  1  0  0  3  0  0  0  0  0  0
  187.3040  177.4250  142.7050 C   0  0  0  0  0  0  0  0  0  0  0  0
  184.9030  178.7130  142.1490 C   0  0  0  0  0  3  0  0  0  0  0  0
  187.9440  177.3370  145.4770 C   0  0  0  0  0  0  0  0  0  0  0  0
  184.5990  178.6190  144.6540 N   0  0  0  0  0  0  0  0  0  0  0  0
  188.5990  177.0950  143.1180 O   0  0  0  0  0  0  0  0  0  0  0  0
  185.1820  178.2200  143.4250 C   0  0  0  0  0  0  0  0  0  0  0  0
  185.5040  178.2280  145.7410 C   0  0  0  0  0  2  0  0  0  0  0  0
  190.6190  177.1840  146.2160 C   0  0  0  0  0  0  0  0  0  0  0  0
  186.1640  178.1660  138.6520 N   0  0  0  0  0  2  0  0  0  0  0  0
  184.8590  179.8910  139.5270 O   0  0  0  0  0  0  0  0  0  0  0  0
  185.5820  178.8800  139.7450 C   0  0  0  0  0  0  0  0  0  0  0  0
  187.1600  178.1630  136.3600 C   0  0  1  0  0  3  0  0  0  0  0  0
  185.8650  177.3680  136.3980 C   0  0  0  0  0  2  0  0  0  0  0  0
  185.9970  178.5930  137.2700 C   0  0  1  0  0  3  0  0  0  0  0  0
  188.1420  176.0290  137.2410 C   0  0  0  0  0  1  0  0  0  0  0  0
  188.2370  177.4750  137.0820 N   0  0  0  0  0  0  0  0  0  0  0  0
  189.1980  178.2100  137.8620 C   0  0  0  0  0  0  0  0  0  0  0  0
  190.3090  177.5080  138.5680 C   0  0  0  0  0  1  0  0  0  0  0  0
  189.1160  179.4620  137.9610 O   0  0  0  0  0  0  0  0  0  0  0  0
  3  7  2  0  0  0  0
  3 13  1  0  0  0  0
  5 11  1  1  0  0  0
  5  8  1  0  0  0  0
  6 11  2  0  0  0  0
  7 18  1  0  0  0  0
  8 13  1  0  0  0  0
  8 17  1  1  0  0  0
  9  2  1  0  0  0  0
 10 21  1  1  0  0  0
 10  6  1  0  0  0  0
 10 12  1  0  0  0  0
 11 15  1  0  0  0  0
 12 16  2  0  0  0  0
 13  9  2  0  0  0  0
 14  4  1  0  0  0  0
 14 17  1  0  0  0  0
 15  3  1  0  0  0  0
 16  5  1  0  0  0  0
 16 14  1  0  0  0  0
 18  1  1  0  0  0  0
 18  2  2  0  0  0  0
 19 21  1  0  0  0  0
 20 21  2  0  0  0  0
 22 23  1  0  0  0  0
 22 26  1  1  0  0  0
 22 24  1  0  0  0  0
 23 24  1  0  0  0  0
 24 19  1  1  0  0  0
 26 25  1  0  0  0  0
 26 27  1  0  0  0  0
 27 29  2  0  0  0  0
 27 28  1  0  0  0  0
M  END
>  <MODEL>
2

>  <REMARK>
 VINA RESULT:      -8.6      1.784      2.566
  Name = 
  3 active torsions:
  status: ('A' for Active; 'I' for Inactive)
    1  A    between atoms: N_2  and  C_25
    2  A    between atoms: N_6  and  C_11
    3  A    between atoms: C_14  and  C_18
                            x       y       z     vdW  Elec       q    Type
                         _______ _______ _______ _____ _____    ______ ____

>  <TORSDO>
F 3

$$$$
=
 OpenBabel10222415533D

 29 33  0  0  1  0  0  0  0  0999 V2000
  189.4700  178.2530  149.2540 N   0  0  0  0  0  1  0  0  0  0  0  0
  187.4620  178.3580  147.9280 N   0  0  0  0  0  0  0  0  0  0  0  0
  188.7950  177.3760  145.7120 C   0  0  0  0  0  0  0  0  0  0  0  0
  185.0640  179.2450  141.5190 C   0  0  0  0  0  1  0  0  0  0  0  0
  187.5360  177.1820  143.2340 C   0  0  2  0  0  3  0  0  0  0  0  0
  189.6370  176.9900  142.1680 N   0  0  0  0  0  0  0  0  0  0  0  0
  189.4750  177.5560  146.9160 C   0  0  0  0  0  3  0  0  0  0  0  0
  186.6330  177.3320  144.3950 C   0  0  1  0  0  3  0  0  0  0  0  0
  186.7680  178.1790  146.7720 C   0  0  0  0  0  3  0  0  0  0  0  0
  189.0710  177.3420  140.9670 C   0  0  1  0  0  3  0  0  0  0  0  0
  188.8990  176.9680  143.3140 C   0  0  0  0  0  0  0  0  0  0  0  0
  187.7260  177.7800  140.9270 C   0  0  0  0  0  3  0  0  0  0  0  0
  187.4170  177.7040  145.6300 C   0  0  0  0  0  0  0  0  0  0  0  0
  185.7580  178.3330  142.4100 N   0  0  0  0  0  0  0  0  0  0  0  0
  189.4940  176.9090  144.5790 O   0  0  0  0  0  0  0  0  0  0  0  0
  186.9810  177.6850  142.1040 C   0  0  0  0  0  0  0  0  0  0  0  0
  185.6010  178.3540  143.8690 C   0  0  0  0  0  2  0  0  0  0  0  0
  188.7860  178.0580  148.0230 C   0  0  0  0  0  0  0  0  0  0  0  0
  189.2720  177.2760  138.4700 N   0  0  0  0  0  2  0  0  0  0  0  0
  191.1530  177.4630  139.8380 O   0  0  0  0  0  0  0  0  0  0  0  0
  189.8970  177.3670  139.7520 C   0  0  0  0  0  0  0  0  0  0  0  0
  189.2790  176.5830  136.0680 C   0  0  1  0  0  3  0  0  0  0  0  0
  189.3460  178.0960  136.2040 C   0  0  0  0  0  2  0  0  0  0  0  0
  190.0410  177.2370  137.2340 C   0  0  1  0  0  3  0  0  0  0  0  0
  186.8880  177.0240  136.6870 C   0  0  0  0  0  1  0  0  0  0  0  0
  187.9610  176.0640  136.4570 N   0  0  0  0  0  0  0  0  0  0  0  0
  187.7950  174.7010  136.8860 C   0  0  0  0  0  0  0  0  0  0  0  0
  186.4480  174.1710  137.2480 C   0  0  0  0  0  1  0  0  0  0  0  0
  188.7870  173.9300  136.9610 O   0  0  0  0  0  0  0  0  0  0  0  0
  2 18  1  0  0  0  0
  3  7  1  0  0  0  0
  4 14  1  0  0  0  0
  5 16  1  6  0  0  0
  5 11  1  0  0  0  0
  5  8  1  0  0  0  0
  6 11  2  0  0  0  0
  7 18  2  0  0  0  0
  8 17  1  6  0  0  0
  8 13  1  0  0  0  0
  9  2  2  0  0  0  0
 10 21  1  1  0  0  0
 10  6  1  0  0  0  0
 11 15  1  0  0  0  0
 12 10  1  0  0  0  0
 12 16  2  0  0  0  0
 13  3  2  0  0  0  0
 13  9  1  0  0  0  0
 14 17  1  0  0  0  0
 15  3  1  0  0  0  0
 16 14  1  0  0  0  0
 18  1  1  0  0  0  0
 19 21  1  0  0  0  0
 21 20  2  0  0  0  0
 22 23  1  0  0  0  0
 22 26  1  1  0  0  0
 22 24  1  0  0  0  0
 23 24  1  0  0  0  0
 24 19  1  1  0  0  0
 26 25  1  0  0  0  0
 26 27  1  0  0  0  0
 27 29  2  0  0  0  0
 27 28  1  0  0  0  0
M  END
>  <MODEL>
3

>  <REMARK>
 VINA RESULT:      -8.1      1.419      1.644
  Name = 
  3 active torsions:
  status: ('A' for Active; 'I' for Inactive)
    1  A    between atoms: N_2  and  C_25
    2  A    between atoms: N_6  and  C_11
    3  A    between atoms: C_14  and  C_18
                            x       y       z     vdW  Elec       q    Type
                         _______ _______ _______ _____ _____    ______ ____

>  <TORSDO>
F 3

$$$$
=
 OpenBabel10222415533D

 29 33  0  0  1  0  0  0  0  0999 V2000
  183.9340  178.5840  146.1420 N   0  0  0  0  0  1  0  0  0  0  0  0
  186.2490  178.1310  146.6290 N   0  0  0  0  0  0  0  0  0  0  0  0
  186.9110  178.2830  143.9460 C   0  0  0  0  0  0  0  0  0  0  0  0
  192.0130  175.2940  144.1110 C   0  0  0  0  0  1  0  0  0  0  0  0
  189.4880  177.7060  143.0580 C   0  0  2  0  0  3  0  0  0  0  0  0
  188.6830  177.4580  140.8490 N   0  0  0  0  0  0  0  0  0  0  0  0
  185.5920  178.4790  144.3550 C   0  0  0  0  0  3  0  0  0  0  0  0
  189.3620  177.9790  144.5050 C   0  0  1  0  0  3  0  0  0  0  0  0
  187.5460  177.9490  146.2630 C   0  0  0  0  0  3  0  0  0  0  0  0
  189.8110  176.7560  140.5060 C   0  0  1  0  0  3  0  0  0  0  0  0
  188.4790  177.8820  142.1280 C   0  0  0  0  0  0  0  0  0  0  0  0
  190.7370  176.3820  141.5080 C   0  0  0  0  0  3  0  0  0  0  0  0
  187.9090  178.0000  144.9150 C   0  0  0  0  0  0  0  0  0  0  0  0
  191.1020  176.4200  144.0070 N   0  0  0  0  0  0  0  0  0  0  0  0
  187.2290  178.3270  142.5740 O   0  0  0  0  0  0  0  0  0  0  0  0
  190.5330  176.8850  142.7950 C   0  0  0  0  0  0  0  0  0  0  0  0
  190.2610  176.8820  145.1170 C   0  0  0  0  0  2  0  0  0  0  0  0
  185.2770  178.3940  145.7140 C   0  0  0  0  0  0  0  0  0  0  0  0
  188.9780  176.5680  138.1500 N   0  0  0  0  0  2  0  0  0  0  0  0
  191.0380  175.6780  138.7860 O   0  0  0  0  0  0  0  0  0  0  0  0
  189.9940  176.3030  139.1190 C   0  0  0  0  0  0  0  0  0  0  0  0
  188.0010  176.6940  135.8520 C   0  0  1  0  0  3  0  0  0  0  0  0
  189.4090  177.2650  135.8830 C   0  0  0  0  0  2  0  0  0  0  0  0
  189.0750  176.0940  136.7760 C   0  0  1  0  0  3  0  0  0  0  0  0
  187.4620  178.9320  136.8540 C   0  0  0  0  0  1  0  0  0  0  0  0
  187.0510  177.5640  136.5580 N   0  0  0  0  0  0  0  0  0  0  0  0
  185.8820  177.0240  137.1990 C   0  0  0  0  0  0  0  0  0  0  0  0
  184.9030  177.9170  137.8870 C   0  0  0  0  0  1  0  0  0  0  0  0
  185.6630  175.7840  137.1890 O   0  0  0  0  0  0  0  0  0  0  0  0
  3  7  2  0  0  0  0
  3 13  1  0  0  0  0
  5 11  1  1  0  0  0
  5  8  1  0  0  0  0
  6 11  2  0  0  0  0
  7 18  1  0  0  0  0
  8 13  1  0  0  0  0
  8 17  1  1  0  0  0
  9  2  1  0  0  0  0
 10 21  1  1  0  0  0
 10  6  1  0  0  0  0
 10 12  1  0  0  0  0
 11 15  1  0  0  0  0
 12 16  2  0  0  0  0
 13  9  2  0  0  0  0
 14  4  1  0  0  0  0
 14 17  1  0  0  0  0
 15  3  1  0  0  0  0
 16  5  1  0  0  0  0
 16 14  1  0  0  0  0
 18  1  1  0  0  0  0
 18  2  2  0  0  0  0
 19 21  1  0  0  0  0
 20 21  2  0  0  0  0
 22 23  1  0  0  0  0
 22 26  1  1  0  0  0
 22 24  1  0  0  0  0
 23 24  1  0  0  0  0
 24 19  1  1  0  0  0
 26 25  1  0  0  0  0
 26 27  1  0  0  0  0
 27 28  1  0  0  0  0
 29 27  2  0  0  0  0
M  END
>  <MODEL>
4

>  <REMARK>
 VINA RESULT:      -8.0      2.162      3.841
  Name = 
  3 active torsions:
  status: ('A' for Active; 'I' for Inactive)
    1  A    between atoms: N_2  and  C_25
    2  A    between atoms: N_6  and  C_11
    3  A    between atoms: C_14  and  C_18
                            x       y       z     vdW  Elec       q    Type
                         _______ _______ _______ _____ _____    ______ ____

>  <TORSDO>
F 3

$$$$
=
 OpenBabel10222415533D

 29 33  0  0  1  0  0  0  0  0999 V2000
  178.9310  177.8920  140.5870 N   0  0  0  0  0  1  0  0  0  0  0  0
  179.8640  178.4860  142.7260 N   0  0  0  0  0  0  0  0  0  0  0  0
  182.4050  178.6560  141.6440 C   0  0  0  0  0  0  0  0  0  0  0  0
  185.5420  178.0810  146.6260 C   0  0  0  0  0  1  0  0  0  0  0  0
  184.6340  179.1220  143.2510 C   0  0  2  0  0  3  0  0  0  0  0  0
  186.0540  178.3640  141.5200 N   0  0  0  0  0  0  0  0  0  0  0  0
  181.3190  178.3230  140.8350 C   0  0  0  0  0  3  0  0  0  0  0  0
  183.3290  179.4480  143.8650 C   0  0  1  0  0  3  0  0  0  0  0  0
  180.9010  178.8270  143.5380 C   0  0  0  0  0  3  0  0  0  0  0  0
  187.0670  178.1650  142.4250 C   0  0  1  0  0  3  0  0  0  0  0  0
  184.8200  178.7790  141.9250 C   0  0  0  0  0  0  0  0  0  0  0  0
  186.8080  178.3010  143.8100 C   0  0  0  0  0  3  0  0  0  0  0  0
  182.1990  178.9020  143.0270 C   0  0  0  0  0  0  0  0  0  0  0  0
  184.9450  178.7130  145.4640 N   0  0  0  0  0  0  0  0  0  0  0  0
  183.7010  178.7040  141.0890 O   0  0  0  0  0  0  0  0  0  0  0  0
  185.5550  178.7880  144.1860 C   0  0  0  0  0  0  0  0  0  0  0  0
  183.4970  178.8830  145.2930 C   0  0  0  0  0  2  0  0  0  0  0  0
  180.0450  178.2380  141.4010 C   0  0  0  0  0  0  0  0  0  0  0  0
  189.4840  177.6710  142.8670 N   0  0  0  0  0  2  0  0  0  0  0  0
  188.5420  177.3490  140.7570 O   0  0  0  0  0  0  0  0  0  0  0  0
  188.3820  177.7060  141.9570 C   0  0  0  0  0  0  0  0  0  0  0  0
  191.7940  177.0900  143.6270 C   0  0  1  0  0  3  0  0  0  0  0  0
  191.1120  175.8970  142.9760 C   0  0  0  0  0  2  0  0  0  0  0  0
  190.8240  177.2820  142.4480 C   0  0  1  0  0  3  0  0  0  0  0  0
  190.5980  178.7300  145.1030 C   0  0  0  0  0  1  0  0  0  0  0  0
  191.1940  177.4110  144.9280 N   0  0  0  0  0  0  0  0  0  0  0  0
  191.4350  176.5860  146.0820 C   0  0  0  0  0  0  0  0  0  0  0  0
  190.7960  176.8980  147.3940 C   0  0  0  0  0  1  0  0  0  0  0  0
  192.1920  175.5830  146.0030 O   0  0  0  0  0  0  0  0  0  0  0  0
  1 18  1  0  0  0  0
  2  9  1  0  0  0  0
  3 13  1  0  0  0  0
  5 11  1  6  0  0  0
  5  8  1  0  0  0  0
  5 16  1  0  0  0  0
  6 11  2  0  0  0  0
  6 10  1  0  0  0  0
  7 18  1  0  0  0  0
  7  3  2  0  0  0  0
  8 17  1  1  0  0  0
 10 21  1  1  0  0  0
 10 12  1  0  0  0  0
 12 16  2  0  0  0  0
 13  9  2  0  0  0  0
 13  8  1  0  0  0  0
 14  4  1  0  0  0  0
 15  3  1  0  0  0  0
 15 11  1  0  0  0  0
 16 14  1  0  0  0  0
 17 14  1  0  0  0  0
 18  2  2  0  0  0  0
 20 21  2  0  0  0  0
 21 19  1  0  0  0  0
 22 26  1  1  0  0  0
 23 22  1  0  0  0  0
 24 19  1  1  0  0  0
 24 23  1  0  0  0  0
 24 22  1  0  0  0  0
 26 25  1  0  0  0  0
 26 27  1  0  0  0  0
 27 28  1  0  0  0  0
 29 27  2  0  0  0  0
M  END
>  <MODEL>
5

>  <REMARK>
 VINA RESULT:      -7.9      3.576      7.773
  Name = 
  3 active torsions:
  status: ('A' for Active; 'I' for Inactive)
    1  A    between atoms: N_2  and  C_25
    2  A    between atoms: N_6  and  C_11
    3  A    between atoms: C_14  and  C_18
                            x       y       z     vdW  Elec       q    Type
                         _______ _______ _______ _____ _____    ______ ____

>  <TORSDO>
F 3

$$$$
=
 OpenBabel10222415533D

 29 33  0  0  1  0  0  0  0  0999 V2000
  192.3240  178.6110  144.3200 N   0  0  0  0  0  1  0  0  0  0  0  0
  190.2460  178.1280  145.4380 N   0  0  0  0  0  0  0  0  0  0  0  0
  188.8810  178.1100  143.0310 C   0  0  0  0  0  0  0  0  0  0  0  0
  183.4100  179.0060  145.0970 C   0  0  0  0  0  1  0  0  0  0  0  0
  186.1090  177.8330  142.9420 C   0  0  2  0  0  3  0  0  0  0  0  0
  186.0870  178.6490  140.7240 N   0  0  0  0  0  0  0  0  0  0  0  0
  190.2540  178.3500  143.0560 C   0  0  0  0  0  3  0  0  0  0  0  0
  186.7470  177.4320  144.2140 C   0  0  1  0  0  3  0  0  0  0  0  0
  188.9090  177.8770  145.4440 C   0  0  0  0  0  3  0  0  0  0  0  0
  184.7490  178.9370  140.8320 C   0  0  1  0  0  3  0  0  0  0  0  0
  186.7900  178.1600  141.7840 C   0  0  0  0  0  0  0  0  0  0  0  0
  184.1040  178.8130  142.0860 C   0  0  0  0  0  3  0  0  0  0  0  0
  188.1880  177.8810  144.2480 C   0  0  0  0  0  0  0  0  0  0  0  0
  184.5470  178.3100  144.5210 N   0  0  0  0  0  0  0  0  0  0  0  0
  188.1890  178.1400  141.8020 O   0  0  0  0  0  0  0  0  0  0  0  0
  184.8350  178.2490  143.1340 C   0  0  0  0  0  0  0  0  0  0  0  0
  185.7850  178.0370  145.2600 C   0  0  0  0  0  2  0  0  0  0  0  0
  190.9250  178.3600  144.2810 C   0  0  0  0  0  0  0  0  0  0  0  0
  182.8000  178.8640  139.2590 N   0  0  0  0  0  2  0  0  0  0  0  0
  184.4800  180.4680  139.0410 O   0  0  0  0  0  0  0  0  0  0  0  0
  184.0240  179.4750  139.6730 C   0  0  0  0  0  0  0  0  0  0  0  0
  181.7220  178.1740  137.1110 C   0  0  1  0  0  3  0  0  0  0  0  0
  180.6920  178.6900  138.1020 C   0  0  0  0  0  2  0  0  0  0  0  0
  182.0670  179.3150  138.0840 C   0  0  1  0  0  3  0  0  0  0  0  0
  181.5340  176.1150  138.5340 C   0  0  0  0  0  1  0  0  0  0  0  0
  182.2670  176.8750  137.5270 N   0  0  0  0  0  0  0  0  0  0  0  0
  183.6110  176.4880  137.1900 C   0  0  0  0  0  0  0  0  0  0  0  0
  184.1470  175.1530  137.5870 C   0  0  0  0  0  1  0  0  0  0  0  0
  184.3590  177.2730  136.5500 O   0  0  0  0  0  0  0  0  0  0  0  0
  2  9  1  0  0  0  0
  3  7  2  0  0  0  0
  3 13  1  0  0  0  0
  5 11  1  1  0  0  0
  5 16  1  0  0  0  0
  5  8  1  0  0  0  0
  6 10  1  0  0  0  0
  6 11  2  0  0  0  0
  7 18  1  0  0  0  0
  8 13  1  0  0  0  0
  8 17  1  1  0  0  0
 10 21  1  1  0  0  0
 10 12  1  0  0  0  0
 11 15  1  0  0  0  0
 12 16  2  0  0  0  0
 13  9  2  0  0  0  0
 14  4  1  0  0  0  0
 14 17  1  0  0  0  0
 15  3  1  0  0  0  0
 16 14  1  0  0  0  0
 18  1  1  0  0  0  0
 18  2  2  0  0  0  0
 19 21  1  0  0  0  0
 20 21  2  0  0  0  0
 22 26  1  1  0  0  0
 22 24  1  0  0  0  0
 22 23  1  0  0  0  0
 24 23  1  0  0  0  0
 24 19  1  1  0  0  0
 26 25  1  0  0  0  0
 27 26  1  0  0  0  0
 27 28  1  0  0  0  0
 29 27  2  0  0  0  0
M  END
>  <MODEL>
6

>  <REMARK>
 VINA RESULT:      -7.7      3.001      3.738
  Name = 
  3 active torsions:
  status: ('A' for Active; 'I' for Inactive)
    1  A    between atoms: N_2  and  C_25
    2  A    between atoms: N_6  and  C_11
    3  A    between atoms: C_14  and  C_18
                            x       y       z     vdW  Elec       q    Type
                         _______ _______ _______ _____ _____    ______ ____

>  <TORSDO>
F 3

$$$$
=
 OpenBabel10222415533D

 29 33  0  0  1  0  0  0  0  0999 V2000
  192.1010  174.4310  135.7580 N   0  0  0  0  0  1  0  0  0  0  0  0
  190.2560  175.9340  136.1310 N   0  0  0  0  0  0  0  0  0  0  0  0
  191.1840  176.5490  138.6640 C   0  0  0  0  0  0  0  0  0  0  0  0
  186.1480  178.6040  140.9900 C   0  0  0  0  0  1  0  0  0  0  0  0
  189.7200  178.1800  140.3850 C   0  0  2  0  0  3  0  0  0  0  0  0
  190.9920  177.4050  142.2200 N   0  0  0  0  0  0  0  0  0  0  0  0
  191.8860  175.6520  137.8590 C   0  0  0  0  0  3  0  0  0  0  0  0
  189.3340  178.2520  138.9590 C   0  0  1  0  0  3  0  0  0  0  0  0
  189.5580  176.8250  136.8860 C   0  0  0  0  0  3  0  0  0  0  0  0
  190.0190  177.8340  143.0880 C   0  0  1  0  0  3  0  0  0  0  0  0
  190.8290  177.5130  140.8710 C   0  0  0  0  0  0  0  0  0  0  0  0
  188.7870  178.3110  142.5820 C   0  0  0  0  0  3  0  0  0  0  0  0
  189.9900  177.1400  138.1770 C   0  0  0  0  0  0  0  0  0  0  0  0
  187.4900  178.6120  140.4360 N   0  0  0  0  0  0  0  0  0  0  0  0
  191.6470  176.8260  139.9670 O   0  0  0  0  0  0  0  0  0  0  0  0
  188.6770  178.4690  141.1990 C   0  0  0  0  0  0  0  0  0  0  0  0
  187.7920  178.2520  139.0450 C   0  0  0  0  0  2  0  0  0  0  0  0
  191.3990  175.3500  136.5850 C   0  0  0  0  0  0  0  0  0  0  0  0
  189.1690  178.0490  145.4370 N   0  0  0  0  0  2  0  0  0  0  0  0
  191.3200  177.2630  144.9870 O   0  0  0  0  0  0  0  0  0  0  0  0
  190.2220  177.6920  144.5370 C   0  0  0  0  0  0  0  0  0  0  0  0
  188.0040  177.7660  147.6300 C   0  0  1  0  0  3  0  0  0  0  0  0
  188.9430  176.6040  147.3520 C   0  0  0  0  0  2  0  0  0  0  0  0
  189.3310  177.9860  146.8830 C   0  0  1  0  0  3  0  0  0  0  0  0
  186.8140  176.7530  145.6660 C   0  0  0  0  0  1  0  0  0  0  0  0
  186.8360  177.7400  146.7400 N   0  0  0  0  0  0  0  0  0  0  0  0
  185.8860  178.8200  146.7260 C   0  0  0  0  0  0  0  0  0  0  0  0
  184.6840  178.7730  145.8430 C   0  0  0  0  0  1  0  0  0  0  0  0
  186.0540  179.8270  147.4630 O   0  0  0  0  0  0  0  0  0  0  0  0
  1 18  1  0  0  0  0
  2 18  2  0  0  0  0
  2  9  1  0  0  0  0
  3 15  1  0  0  0  0
  5 11  1  1  0  0  0
  5 16  1  0  0  0  0
  6 10  1  0  0  0  0
  7  3  2  0  0  0  0
  8 17  1  1  0  0  0
  8  5  1  0  0  0  0
  9 13  2  0  0  0  0
 10 21  1  1  0  0  0
 11  6  2  0  0  0  0
 12 10  1  0  0  0  0
 13  3  1  0  0  0  0
 13  8  1  0  0  0  0
 14  4  1  0  0  0  0
 14 16  1  0  0  0  0
 15 11  1  0  0  0  0
 16 12  2  0  0  0  0
 17 14  1  0  0  0  0
 18  7  1  0  0  0  0
 21 20  2  0  0  0  0
 21 19  1  0  0  0  0
 22 26  1  6  0  0  0
 23 22  1  0  0  0  0
 24 19  1  6  0  0  0
 24 23  1  0  0  0  0
 24 22  1  0  0  0  0
 25 26  1  0  0  0  0
 27 26  1  0  0  0  0
 27 29  2  0  0  0  0
 28 27  1  0  0  0  0
M  END
>  <MODEL>
7

>  <REMARK>
 VINA RESULT:      -7.6      2.673      8.050
  Name = 
  3 active torsions:
  status: ('A' for Active; 'I' for Inactive)
    1  A    between atoms: N_2  and  C_25
    2  A    between atoms: N_6  and  C_11
    3  A    between atoms: C_14  and  C_18
                            x       y       z     vdW  Elec       q    Type
                         _______ _______ _______ _____ _____    ______ ____

>  <TORSDO>
F 3

$$$$
=
 OpenBabel10222415533D

 29 33  0  0  1  0  0  0  0  0999 V2000
  192.4180  178.6280  144.4230 N   0  0  0  0  0  1  0  0  0  0  0  0
  190.2980  178.1460  145.4600 N   0  0  0  0  0  0  0  0  0  0  0  0
  189.0300  178.1100  143.0010 C   0  0  0  0  0  0  0  0  0  0  0  0
  183.4790  179.0030  144.8410 C   0  0  0  0  0  1  0  0  0  0  0  0
  186.2650  177.8240  142.8030 C   0  0  2  0  0  3  0  0  0  0  0  0
  186.3300  178.6270  140.5800 N   0  0  0  0  0  0  0  0  0  0  0  0
  190.4010  178.3530  143.0790 C   0  0  0  0  0  3  0  0  0  0  0  0
  186.8530  177.4320  144.1020 C   0  0  1  0  0  3  0  0  0  0  0  0
  188.9620  177.8910  145.4150 C   0  0  0  0  0  3  0  0  0  0  0  0
  184.9870  178.9110  140.6340 C   0  0  1  0  0  3  0  0  0  0  0  0
  186.9910  178.1460  141.6710 C   0  0  0  0  0  0  0  0  0  0  0  0
  184.2930  178.7930  141.8610 C   0  0  0  0  0  3  0  0  0  0  0  0
  188.2890  177.8860  144.1910 C   0  0  0  0  0  0  0  0  0  0  0  0
  184.6390  178.3060  144.3150 N   0  0  0  0  0  0  0  0  0  0  0  0
  188.3880  178.1300  141.7450 O   0  0  0  0  0  0  0  0  0  0  0  0
  184.9830  178.2380  142.9410 C   0  0  0  0  0  0  0  0  0  0  0  0
  185.8480  178.0410  145.1050 C   0  0  0  0  0  2  0  0  0  0  0  0
  191.0220  178.3720  144.3300 C   0  0  0  0  0  0  0  0  0  0  0  0
  182.9440  179.8590  139.5360 N   0  0  0  0  0  2  0  0  0  0  0  0
  184.9200  179.5190  138.3430 O   0  0  0  0  0  0  0  0  0  0  0  0
  184.3070  179.4400  139.4440 C   0  0  0  0  0  0  0  0  0  0  0  0
  180.6750  180.2530  138.5640 C   0  0  1  0  0  3  0  0  0  0  0  0
  181.4150  181.5630  138.7810 C   0  0  0  0  0  2  0  0  0  0  0  0
  182.1990  180.3370  138.3790 C   0  0  1  0  0  3  0  0  0  0  0  0
  180.2870  178.1850  139.9320 C   0  0  0  0  0  1  0  0  0  0  0  0
  180.2800  179.6400  139.8390 N   0  0  0  0  0  0  0  0  0  0  0  0
  179.6280  180.4100  140.8650 C   0  0  0  0  0  0  0  0  0  0  0  0
  179.2580  179.7900  142.1710 C   0  0  0  0  0  1  0  0  0  0  0  0
  179.3590  181.6260  140.6770 O   0  0  0  0  0  0  0  0  0  0  0  0
  3  7  2  0  0  0  0
  3 13  1  0  0  0  0
  5 11  1  1  0  0  0
  5 16  1  0  0  0  0
  5  8  1  0  0  0  0
  6 10  1  0  0  0  0
  6 11  2  0  0  0  0
  7 18  1  0  0  0  0
  8 13  1  0  0  0  0
  8 17  1  1  0  0  0
  9  2  1  0  0  0  0
 10 21  1  1  0  0  0
 10 12  1  0  0  0  0
 11 15  1  0  0  0  0
 12 16  2  0  0  0  0
 13  9  2  0  0  0  0
 14  4  1  0  0  0  0
 14 17  1  0  0  0  0
 15  3  1  0  0  0  0
 16 14  1  0  0  0  0
 18  1  1  0  0  0  0
 18  2  2  0  0  0  0
 20 21  2  0  0  0  0
 21 19  1  0  0  0  0
 22 23  1  0  0  0  0
 22 26  1  1  0  0  0
 24 22  1  0  0  0  0
 24 23  1  0  0  0  0
 24 19  1  1  0  0  0
 26 25  1  0  0  0  0
 26 27  1  0  0  0  0
 27 28  1  0  0  0  0
 29 27  2  0  0  0  0
M  END
>  <MODEL>
8

>  <REMARK>
 VINA RESULT:      -7.6      4.025      5.271
  Name = 
  3 active torsions:
  status: ('A' for Active; 'I' for Inactive)
    1  A    between atoms: N_2  and  C_25
    2  A    between atoms: N_6  and  C_11
    3  A    between atoms: C_14  and  C_18
                            x       y       z     vdW  Elec       q    Type
                         _______ _______ _______ _____ _____    ______ ____

>  <TORSDO>
F 3

$$$$
=
 OpenBabel10222415533D

 29 33  0  0  1  0  0  0  0  0999 V2000
  191.6890  175.2710  143.9590 N   0  0  0  0  0  1  0  0  0  0  0  0
  190.9030  176.2480  141.9020 N   0  0  0  0  0  0  0  0  0  0  0  0
  188.7300  177.3750  143.1920 C   0  0  0  0  0  0  0  0  0  0  0  0
  185.2420  178.2300  138.4910 C   0  0  0  0  0  1  0  0  0  0  0  0
  186.7490  178.7290  141.7750 C   0  0  2  0  0  3  0  0  0  0  0  0
  185.2850  178.5430  143.6210 N   0  0  0  0  0  0  0  0  0  0  0  0
  189.6550  176.6170  143.9090 C   0  0  0  0  0  3  0  0  0  0  0  0
  188.0240  178.5310  141.0520 C   0  0  1  0  0  3  0  0  0  0  0  0
  190.0260  176.9940  141.1780 C   0  0  0  0  0  3  0  0  0  0  0  0
  184.2080  178.7860  142.8040 C   0  0  1  0  0  3  0  0  0  0  0  0
  186.5460  178.4480  143.1130 C   0  0  0  0  0  0  0  0  0  0  0  0
  184.3910  178.8490  141.4020 C   0  0  0  0  0  3  0  0  0  0  0  0
  188.9080  177.5590  141.7960 C   0  0  0  0  0  0  0  0  0  0  0  0
  186.1300  178.5410  139.5970 N   0  0  0  0  0  0  0  0  0  0  0  0
  187.6070  177.9130  143.8530 O   0  0  0  0  0  0  0  0  0  0  0  0
  185.7010  178.8130  140.9200 C   0  0  0  0  0  0  0  0  0  0  0  0
  187.5350  178.1210  139.6460 C   0  0  0  0  0  2  0  0  0  0  0  0
  190.7430  176.0520  143.2390 C   0  0  0  0  0  0  0  0  0  0  0  0
  181.7540  179.2240  142.5480 N   0  0  0  0  0  2  0  0  0  0  0  0
  182.6770  178.6370  144.6090 O   0  0  0  0  0  0  0  0  0  0  0  0
  182.8600  178.8690  143.3820 C   0  0  0  0  0  0  0  0  0  0  0  0
  179.3160  179.2400  141.9970 C   0  0  1  0  0  3  0  0  0  0  0  0
  179.6660  178.0730  142.9070 C   0  0  0  0  0  2  0  0  0  0  0  0
  180.4050  179.3790  143.0750 C   0  0  1  0  0  3  0  0  0  0  0  0
  180.2710  177.7100  140.2520 C   0  0  0  0  0  1  0  0  0  0  0  0
  179.8590  179.0530  140.6460 N   0  0  0  0  0  0  0  0  0  0  0  0
  180.2520  180.1770  139.8390 C   0  0  0  0  0  0  0  0  0  0  0  0
  180.7730  179.9820  138.4540 C   0  0  0  0  0  1  0  0  0  0  0  0
  180.1600  181.3490  140.2900 O   0  0  0  0  0  0  0  0  0  0  0  0
  2 18  1  0  0  0  0
  3 15  1  0  0  0  0
  3  7  1  0  0  0  0
  4 14  1  0  0  0  0
  5 16  1  6  0  0  0
  5 11  1  0  0  0  0
  8 17  1  6  0  0  0
  8  5  1  0  0  0  0
  8 13  1  0  0  0  0
  9 13  1  0  0  0  0
  9  2  2  0  0  0  0
 10 21  1  6  0  0  0
 10  6  1  0  0  0  0
 11  6  2  0  0  0  0
 11 15  1  0  0  0  0
 12 10  1  0  0  0  0
 13  3  2  0  0  0  0
 14 17  1  0  0  0  0
 14 16  1  0  0  0  0
 16 12  2  0  0  0  0
 18  7  2  0  0  0  0
 18  1  1  0  0  0  0
 19 21  1  0  0  0  0
 21 20  2  0  0  0  0
 22 26  1  6  0  0  0
 22 23  1  0  0  0  0
 22 24  1  0  0  0  0
 23 24  1  0  0  0  0
 24 19  1  6  0  0  0
 25 26  1  0  0  0  0
 27 29  2  0  0  0  0
 27 26  1  0  0  0  0
 28 27  1  0  0  0  0
M  END
>  <MODEL>
9

>  <REMARK>
 VINA RESULT:      -7.5      3.966      6.390
  Name = 
  3 active torsions:
  status: ('A' for Active; 'I' for Inactive)
    1  A    between atoms: N_2  and  C_25
    2  A    between atoms: N_6  and  C_11
    3  A    between atoms: C_14  and  C_18
                            x       y       z     vdW  Elec       q    Type
                         _______ _______ _______ _____ _____    ______ ____

>  <TORSDO>
F 3

$$$$
