=
 OpenBabel10222417233D

 57 61  0  0  1  0  0  0  0  0999 V2000
  190.1160  176.1640  141.6790 C   0  0  0  0  0  2  0  0  0  0  0  0
  194.7640  175.8150  137.0210 C   0  0  0  0  0  3  0  0  0  0  0  0
  187.5520  177.1490  136.0980 C   0  0  0  0  0  3  0  0  0  0  0  0
  192.5380  175.9390  137.9960 C   0  0  0  0  0  3  0  0  0  0  0  0
  183.1520  177.8300  138.1270 C   0  0  0  0  0  3  0  0  0  0  0  0
  194.2570  176.0350  134.8010 N   0  0  0  0  0  0  0  0  0  0  0  0
  185.7300  177.5400  137.7390 C   0  0  0  0  0  0  0  0  0  0  0  0
  191.8870  176.3620  134.8880 C   0  0  0  0  0  3  0  0  0  0  0  0
  190.3740  176.3890  136.8740 C   0  0  0  0  0  3  0  0  0  0  0  0
  186.2800  178.5100  139.9640 C   0  0  0  0  0  2  0  0  0  0  0  0
  186.1930  176.7190  136.5710 C   0  0  2  0  0  3  0  0  0  0  0  0
  189.5180  176.9490  134.5940 C   0  0  0  0  0  2  0  0  0  0  0  0
  188.1390  176.5550  135.0530 C   0  0  0  0  0  3  0  0  0  0  0  0
  191.1550  176.1000  137.9820 C   0  0  0  0  0  0  0  0  0  0  0  0
  190.9810  176.1110  140.4580 C   0  0  0  0  0  3  0  0  0  0  0  0
  189.3360  177.4370  141.7140 C   0  0  0  0  0  0  0  0  0  0  0  0
  195.2350  175.8710  135.7160 C   0  0  0  0  0  0  0  0  0  0  0  0
  186.6600  178.0150  138.6770 O   0  0  0  0  0  0  0  0  0  0  0  0
  186.2080  175.2510  136.9900 C   0  0  0  0  0  1  0  0  0  0  0  0
  188.2670  177.5270  140.9870 N   0  0  0  0  0  0  0  0  0  0  0  0
  193.3940  175.9560  136.9150 C   0  0  0  0  0  0  0  0  0  0  0  0
  187.5130  178.7570  140.8230 C   0  0  0  0  0  2  0  0  0  0  0  0
  190.6400  176.5170  135.5020 C   0  0  0  0  0  0  0  0  0  0  0  0
  190.4160  176.0760  139.2440 C   0  0  0  0  0  3  0  0  0  0  0  0
  193.1060  176.0930  135.4970 C   0  0  0  0  0  0  0  0  0  0  0  0
  184.4410  177.6980  137.9160 C   0  0  0  0  0  0  0  0  0  0  0  0
  180.4250  181.1650  137.6370 C   0  0  2  0  0  3  0  0  0  0  0  0
  182.3840  179.0120  137.6170 C   0  0  2  0  0  3  0  0  0  0  0  0
  182.4450  180.1630  138.5970 C   0  0  0  0  0  0  0  0  0  0  0  0
  179.5560  179.5780  137.8350 S   0  0  0  0  0  0  0  0  0  0  0  0
  181.5130  181.1950  138.5480 O   0  0  0  0  0  0  0  0  0  0  0  0
  183.3930  180.2430  139.4280 O   0  0  0  0  0  0  0  0  0  0  0  0
  180.9610  178.5840  137.1950 C   0  0  1  0  0  3  0  0  0  0  0  0
  181.5400  179.3180  134.9620 O   0  0  0  0  0  1  0  0  0  0  0  0
  179.5340  178.2660  135.2900 O   0  0  0  0  0  1  0  0  0  0  0  0
  180.8740  178.3310  135.6900 C   0  0  0  0  0  3  0  0  0  0  0  0
  179.4760  182.3510  137.8680 C   0  0  1  0  0  3  0  0  0  0  0  0
  179.6080  182.8680  139.1570 O   0  0  0  0  0  1  0  0  0  0  0  0
  180.0890  182.9580  135.6190 O   0  0  0  0  0  1  0  0  0  0  0  0
  179.6270  183.4700  136.8350 C   0  0  2  0  0  3  0  0  0  0  0  0
  181.9180  184.4490  137.3090 N   0  0  0  0  0  1  0  0  0  0  0  0
  179.9850  185.6920  137.6810 O   0  0  0  0  0  0  0  0  0  0  0  0
  180.4970  184.6000  137.3020 C   0  0  0  0  0  0  0  0  0  0  0  0
  196.6720  175.7630  135.3530 C   0  0  0  0  0  2  0  0  0  0  0  0
  197.3150  173.4160  135.8100 C   0  0  0  0  0  1  0  0  0  0  0  0
  197.3960  174.8420  136.3210 C   0  0  0  0  0  2  0  0  0  0  0  0
  189.9400  178.6250  142.4110 C   0  0  0  0  0  2  0  0  0  0  0  0
  189.2070  178.9510  143.5620 O   0  0  0  0  0  0  0  0  0  0  0  0
  189.9510  176.6060  146.2180 O   0  0  0  0  0  0  0  0  0  0  0  0
  189.0460  177.2920  145.3720 C   0  0  2  0  0  3  0  0  0  0  0  0
  189.8440  178.4160  144.7090 C   0  0  1  0  0  3  0  0  0  0  0  0
  191.2830  176.8040  145.9000 C   0  0  0  0  0  0  0  0  0  0  0  0
  192.2270  176.2890  146.6170 N   0  0  0  0  0  2  0  0  0  0  0  0
  191.6130  177.9330  144.5620 S   0  0  0  0  0  0  0  0  0  0  0  0
  187.9740  177.8720  147.4270 O   0  0  0  0  0  1  0  0  0  0  0  0
  186.7510  178.2580  145.5230 O   0  0  0  0  0  0  0  0  0  0  0  0
  187.9190  177.8740  146.1670 C   0  0  0  0  0  0  0  0  0  0  0  0
  1 16  1  0  0  0  0
  3 11  1  0  0  0  0
  6 25  2  0  0  0  0
  6 17  1  0  0  0  0
  7 26  2  0  0  0  0
  7 18  1  0  0  0  0
  8 25  1  0  0  0  0
  8 23  2  0  0  0  0
  9 14  2  0  0  0  0
 10 22  1  0  0  0  0
 11 19  1  1  0  0  0
 11  7  1  0  0  0  0
 12 13  1  0  0  0  0
 12 23  1  0  0  0  0
 13  3  2  0  0  0  0
 14  4  1  0  0  0  0
 14 24  1  0  0  0  0
 15  1  1  0  0  0  0
 16 47  1  0  0  0  0
 17  2  2  0  0  0  0
 18 10  1  0  0  0  0
 20 16  2  0  0  0  0
 21  2  1  0  0  0  0
 21  4  2  0  0  0  0
 22 20  1  0  0  0  0
 23  9  1  0  0  0  0
 24 15  2  0  0  0  0
 25 21  1  0  0  0  0
 26  5  2  0  0  0  0
 27 30  1  0  0  0  0
 27 37  1  1  0  0  0
 27 31  1  0  0  0  0
 28  5  1  1  0  0  0
 28 29  1  0  0  0  0
 29 32  2  0  0  0  0
 31 29  1  0  0  0  0
 33 36  1  6  0  0  0
 33 28  1  0  0  0  0
 33 30  1  0  0  0  0
 34 36  1  0  0  0  0
 35 36  1  0  0  0  0
 37 38  1  1  0  0  0
 40 39  1  6  0  0  0
 40 43  1  0  0  0  0
 40 37  1  0  0  0  0
 43 41  1  0  0  0  0
 43 42  2  0  0  0  0
 44 17  1  0  0  0  0
 44 46  1  0  0  0  0
 45 46  1  0  0  0  0
 47 48  1  0  0  0  0
 50 57  1  1  0  0  0
 50 49  1  0  0  0  0
 51 48  1  6  0  0  0
 51 50  1  0  0  0  0
 52 49  1  0  0  0  0
 52 53  2  0  0  0  0
 54 51  1  0  0  0  0
 54 52  1  0  0  0  0
 56 57  2  0  0  0  0
 57 55  1  0  0  0  0
M  END
>  <MODEL>
1

>  <REMARK>
 VINA RESULT:      -7.1      0.000      0.000
  Name = 
  11 active torsions:
  status: ('A' for Active; 'I' for Inactive)
    1  A    between atoms: C_4  and  C_22
    2  A    between atoms: C_5  and  C_51
    3  A    between atoms: C_12  and  C_16
    4  A    between atoms: C_17  and  C_39
    5  A    between atoms: C_17  and  C_46
    6  A    between atoms: C_22  and  C_56
    7  A    between atoms: C_27  and  O_36
    8  A    between atoms: C_30  and  C_54
    9  A    between atoms: C_31  and  C_56
   10  A    between atoms: C_35  and  C_40
   11  A    between atoms: O_36  and  C_40
                            x       y       z     vdW  Elec       q    Type
                         _______ _______ _______ _____ _____    ______ ____

>  <TORSDO>
F 11

$$$$
=
 OpenBabel10222417233D

 57 61  0  0  1  0  0  0  0  0999 V2000
  187.4390  179.3650  141.6640 C   0  0  0  0  0  2  0  0  0  0  0  0
  181.6760  177.6870  138.9450 C   0  0  0  0  0  3  0  0  0  0  0  0
  188.4550  175.8900  136.6060 C   0  0  0  0  0  3  0  0  0  0  0  0
  184.0840  177.9590  139.1640 C   0  0  0  0  0  3  0  0  0  0  0  0
  193.2920  176.0870  137.3180 C   0  0  0  0  0  3  0  0  0  0  0  0
  181.5720  176.4710  137.0100 N   0  0  0  0  0  0  0  0  0  0  0  0
  190.6910  176.2370  137.6280 C   0  0  0  0  0  0  0  0  0  0  0  0
  183.8940  176.1570  136.5230 C   0  0  0  0  0  3  0  0  0  0  0  0
  185.8900  176.9920  137.7680 C   0  0  0  0  0  3  0  0  0  0  0  0
  190.8900  176.3950  140.1030 C   0  0  0  0  0  2  0  0  0  0  0  0
  189.8350  176.4520  136.4140 C   0  0  2  0  0  3  0  0  0  0  0  0
  186.1400  175.4380  135.8280 C   0  0  0  0  0  2  0  0  0  0  0  0
  187.5390  175.9610  135.6340 C   0  0  0  0  0  3  0  0  0  0  0  0
  185.4190  177.7730  138.8120 C   0  0  0  0  0  0  0  0  0  0  0  0
  186.2700  178.8810  140.8630 C   0  0  0  0  0  3  0  0  0  0  0  0
  188.3360  178.2260  142.0220 C   0  0  0  0  0  0  0  0  0  0  0  0
  180.8720  177.0580  138.0030 C   0  0  0  0  0  0  0  0  0  0  0  0
  190.1160  176.2640  138.9070 O   0  0  0  0  0  0  0  0  0  0  0  0
  189.7710  177.9500  136.1270 C   0  0  0  0  0  1  0  0  0  0  0  0
  189.1660  177.7880  141.1280 N   0  0  0  0  0  0  0  0  0  0  0  0
  182.9700  177.4760  138.5100 C   0  0  0  0  0  0  0  0  0  0  0  0
  189.9780  176.5980  141.3060 C   0  0  0  0  0  2  0  0  0  0  0  0
  185.2720  176.2640  136.7410 C   0  0  0  0  0  0  0  0  0  0  0  0
  186.4700  178.3470  139.6520 C   0  0  0  0  0  3  0  0  0  0  0  0
  182.8690  176.7050  137.2830 C   0  0  0  0  0  0  0  0  0  0  0  0
  191.9880  176.1430  137.4640 C   0  0  0  0  0  0  0  0  0  0  0  0
  196.2610  172.9800  136.7480 C   0  0  2  0  0  3  0  0  0  0  0  0
  194.0160  174.7820  137.1770 C   0  0  2  0  0  3  0  0  0  0  0  0
  195.2020  174.7150  138.1150 C   0  0  0  0  0  0  0  0  0  0  0  0
  196.0630  174.0320  135.2760 S   0  0  0  0  0  0  0  0  0  0  0  0
  196.2360  173.8110  137.8980 O   0  0  0  0  0  0  0  0  0  0  0  0
  195.2310  175.4300  139.1560 O   0  0  0  0  0  0  0  0  0  0  0  0
  194.3390  174.5060  135.6920 C   0  0  1  0  0  3  0  0  0  0  0  0
  192.1910  174.3010  134.5940 O   0  0  0  0  0  1  0  0  0  0  0  0
  192.8910  172.6120  135.9700 O   0  0  0  0  0  1  0  0  0  0  0  0
  193.2990  173.5870  135.0530 C   0  0  0  0  0  3  0  0  0  0  0  0
  197.5640  172.1680  136.6800 C   0  0  1  0  0  3  0  0  0  0  0  0
  198.5830  172.7730  137.4150 O   0  0  0  0  0  1  0  0  0  0  0  0
  198.0400  169.8550  136.2020 O   0  0  0  0  0  1  0  0  0  0  0  0
  197.4020  170.7080  137.1090 C   0  0  2  0  0  3  0  0  0  0  0  0
  195.2010  169.8380  136.1970 N   0  0  0  0  0  1  0  0  0  0  0  0
  195.4430  170.3490  138.4550 O   0  0  0  0  0  0  0  0  0  0  0  0
  195.9720  170.2990  137.3080 C   0  0  0  0  0  0  0  0  0  0  0  0
  179.3880  177.0270  138.0750 C   0  0  0  0  0  2  0  0  0  0  0  0
  179.1050  175.3260  139.8510 C   0  0  0  0  0  1  0  0  0  0  0  0
  178.9310  176.7920  139.5040 C   0  0  0  0  0  2  0  0  0  0  0  0
  188.0860  177.4990  143.3150 C   0  0  0  0  0  2  0  0  0  0  0  0
  189.2970  177.1520  143.9320 O   0  0  0  0  0  0  0  0  0  0  0  0
  189.7520  177.8140  147.4620 O   0  0  0  0  0  0  0  0  0  0  0  0
  190.2490  177.6480  146.1460 C   0  0  2  0  0  3  0  0  0  0  0  0
  189.1110  177.0320  145.3320 C   0  0  1  0  0  3  0  0  0  0  0  0
  188.3710  177.8210  147.5490 C   0  0  0  0  0  0  0  0  0  0  0  0
  187.7720  177.9080  148.6910 N   0  0  0  0  0  2  0  0  0  0  0  0
  187.4860  177.5410  146.0280 S   0  0  0  0  0  0  0  0  0  0  0  0
  191.7220  176.0870  145.0960 O   0  0  0  0  0  0  0  0  0  0  0  0
  192.0950  176.4610  147.3310 O   0  0  0  0  0  1  0  0  0  0  0  0
  191.4300  176.7290  146.1410 C   0  0  0  0  0  0  0  0  0  0  0  0
  1 16  1  0  0  0  0
  5 26  2  0  0  0  0
  6 25  2  0  0  0  0
  6 17  1  0  0  0  0
  7 18  1  0  0  0  0
  8 23  2  0  0  0  0
  8 25  1  0  0  0  0
  9 14  2  0  0  0  0
 10 22  1  0  0  0  0
 11 19  1  1  0  0  0
 11  3  1  0  0  0  0
 11  7  1  0  0  0  0
 12 23  1  0  0  0  0
 13 12  1  0  0  0  0
 13  3  2  0  0  0  0
 14  4  1  0  0  0  0
 14 24  1  0  0  0  0
 15  1  1  0  0  0  0
 16 47  1  0  0  0  0
 17 44  1  0  0  0  0
 17  2  2  0  0  0  0
 18 10  1  0  0  0  0
 20 22  1  0  0  0  0
 20 16  2  0  0  0  0
 21  2  1  0  0  0  0
 21  4  2  0  0  0  0
 23  9  1  0  0  0  0
 24 15  2  0  0  0  0
 25 21  1  0  0  0  0
 26  7  2  0  0  0  0
 27 37  1  6  0  0  0
 27 31  1  0  0  0  0
 28  5  1  6  0  0  0
 28 29  1  0  0  0  0
 29 32  2  0  0  0  0
 30 33  1  0  0  0  0
 30 27  1  0  0  0  0
 31 29  1  0  0  0  0
 33 36  1  1  0  0  0
 33 28  1  0  0  0  0
 34 36  1  0  0  0  0
 36 35  1  0  0  0  0
 37 40  1  0  0  0  0
 37 38  1  1  0  0  0
 40 39  1  6  0  0  0
 40 43  1  0  0  0  0
 41 43  1  0  0  0  0
 43 42  2  0  0  0  0
 44 46  1  0  0  0  0
 46 45  1  0  0  0  0
 47 48  1  0  0  0  0
 49 52  1  0  0  0  0
 50 57  1  1  0  0  0
 50 49  1  0  0  0  0
 51 48  1  6  0  0  0
 51 54  1  0  0  0  0
 51 50  1  0  0  0  0
 52 53  2  0  0  0  0
 54 52  1  0  0  0  0
 55 57  2  0  0  0  0
 57 56  1  0  0  0  0
M  END
>  <MODEL>
2

>  <REMARK>
 VINA RESULT:      -6.9      4.990     11.739
  Name = 
  11 active torsions:
  status: ('A' for Active; 'I' for Inactive)
    1  A    between atoms: C_4  and  C_22
    2  A    between atoms: C_5  and  C_51
    3  A    between atoms: C_12  and  C_16
    4  A    between atoms: C_17  and  C_39
    5  A    between atoms: C_17  and  C_46
    6  A    between atoms: C_22  and  C_56
    7  A    between atoms: C_27  and  O_36
    8  A    between atoms: C_30  and  C_54
    9  A    between atoms: C_31  and  C_56
   10  A    between atoms: C_35  and  C_40
   11  A    between atoms: O_36  and  C_40
                            x       y       z     vdW  Elec       q    Type
                         _______ _______ _______ _____ _____    ______ ____

>  <TORSDO>
F 11

$$$$
=
 OpenBabel10222417233D

 57 61  0  0  1  0  0  0  0  0999 V2000
  191.5830  178.0970  140.2150 C   0  0  0  0  0  2  0  0  0  0  0  0
  192.3070  176.1900  146.4800 C   0  0  0  0  0  3  0  0  0  0  0  0
  186.0470  178.1120  143.0510 C   0  0  0  0  0  3  0  0  0  0  0  0
  191.2240  177.0920  144.4970 C   0  0  0  0  0  3  0  0  0  0  0  0
  183.8220  179.5070  138.9220 C   0  0  0  0  0  3  0  0  0  0  0  0
  190.5360  176.1260  147.9270 N   0  0  0  0  0  0  0  0  0  0  0  0
  185.5690  178.6230  140.6680 C   0  0  0  0  0  0  0  0  0  0  0  0
  188.7500  176.8730  146.5200 C   0  0  0  0  0  3  0  0  0  0  0  0
  188.8230  177.5890  144.1300 C   0  0  0  0  0  3  0  0  0  0  0  0
  186.9820  177.6000  138.8940 C   0  0  0  0  0  2  0  0  0  0  0  0
  185.4790  179.1120  142.0840 C   0  0  2  0  0  3  0  0  0  0  0  0
  186.6500  177.3700  145.3430 C   0  0  0  0  0  2  0  0  0  0  0  0
  186.0470  178.3470  144.3670 C   0  0  0  0  0  3  0  0  0  0  0  0
  190.1520  177.5520  143.7360 C   0  0  0  0  0  0  0  0  0  0  0  0
  191.5020  177.7170  141.6610 C   0  0  0  0  0  3  0  0  0  0  0  0
  190.6140  177.2960  139.4070 C   0  0  0  0  0  0  0  0  0  0  0  0
  191.8520  175.8810  147.7550 C   0  0  0  0  0  0  0  0  0  0  0  0
  186.6530  177.8270  140.2670 O   0  0  0  0  0  0  0  0  0  0  0  0
  186.2240  180.4410  142.1850 C   0  0  0  0  0  1  0  0  0  0  0  0
  189.3690  177.6540  139.4020 N   0  0  0  0  0  0  0  0  0  0  0  0
  191.1960  176.6580  145.8060 C   0  0  0  0  0  0  0  0  0  0  0  0
  188.3160  176.8730  138.7800 C   0  0  0  0  0  2  0  0  0  0  0  0
  188.1540  177.3040  145.3300 C   0  0  0  0  0  0  0  0  0  0  0  0
  190.3750  177.9470  142.3460 C   0  0  0  0  0  3  0  0  0  0  0  0
  190.0930  176.6050  146.7500 C   0  0  0  0  0  0  0  0  0  0  0  0
  184.6810  179.0530  139.8050 C   0  0  0  0  0  0  0  0  0  0  0  0
  180.5300  177.5380  136.9020 C   0  0  2  0  0  3  0  0  0  0  0  0
  182.5670  178.7610  138.5840 C   0  0  2  0  0  3  0  0  0  0  0  0
  182.8590  177.5960  137.6630 C   0  0  0  0  0  0  0  0  0  0  0  0
  180.6220  179.3140  136.5150 S   0  0  0  0  0  0  0  0  0  0  0  0
  181.8480  177.0120  136.9060 O   0  0  0  0  0  0  0  0  0  0  0  0
  184.0140  177.0860  137.6280 O   0  0  0  0  0  0  0  0  0  0  0  0
  181.4820  179.7390  138.0810 C   0  0  1  0  0  3  0  0  0  0  0  0
  179.2080  179.7550  138.9100 O   0  0  0  0  0  1  0  0  0  0  0  0
  180.5790  181.5140  139.4210 O   0  0  0  0  0  1  0  0  0  0  0  0
  180.5200  180.1340  139.2000 C   0  0  0  0  0  3  0  0  0  0  0  0
  179.6400  176.7940  135.8950 C   0  0  1  0  0  3  0  0  0  0  0  0
  180.3270  176.5180  134.7120 O   0  0  0  0  0  1  0  0  0  0  0  0
  178.9930  175.5440  137.8490 O   0  0  0  0  0  1  0  0  0  0  0  0
  179.0170  175.5120  136.4520 C   0  0  2  0  0  3  0  0  0  0  0  0
  180.9160  173.8330  136.5430 N   0  0  0  0  0  1  0  0  0  0  0  0
  179.1610  173.5750  135.0360 O   0  0  0  0  0  0  0  0  0  0  0  0
  179.6840  174.2610  135.9590 C   0  0  0  0  0  0  0  0  0  0  0  0
  192.7200  175.3350  148.8300 C   0  0  0  0  0  2  0  0  0  0  0  0
  193.1510  177.4110  150.1090 C   0  0  0  0  0  1  0  0  0  0  0  0
  193.7790  176.3500  149.2250 C   0  0  0  0  0  2  0  0  0  0  0  0
  191.0810  175.9920  138.8200 C   0  0  0  0  0  2  0  0  0  0  0  0
  192.4130  176.0900  138.3900 O   0  0  0  0  0  0  0  0  0  0  0  0
  193.6830  173.1330  136.7320 O   0  0  0  0  0  0  0  0  0  0  0  0
  193.8160  174.2160  137.6360 C   0  0  2  0  0  3  0  0  0  0  0  0
  192.6540  175.1650  137.3430 C   0  0  1  0  0  3  0  0  0  0  0  0
  192.4120  172.9900  136.2050 C   0  0  0  0  0  0  0  0  0  0  0  0
  192.1500  172.0810  135.3240 N   0  0  0  0  0  2  0  0  0  0  0  0
  191.2180  174.2220  136.6840 S   0  0  0  0  0  0  0  0  0  0  0  0
  195.3330  175.5150  136.3240 O   0  0  0  0  0  0  0  0  0  0  0  0
  196.1360  174.7900  138.3500 O   0  0  0  0  0  1  0  0  0  0  0  0
  195.1160  174.9260  137.4170 C   0  0  0  0  0  0  0  0  0  0  0  0
  1 15  1  0  0  0  0
  2 17  1  0  0  0  0
  3 13  2  0  0  0  0
  4 21  1  0  0  0  0
  5 26  2  0  0  0  0
  7 11  1  0  0  0  0
  8 25  2  0  0  0  0
  9 23  2  0  0  0  0
 10 18  1  0  0  0  0
 11 19  1  6  0  0  0
 11  3  1  0  0  0  0
 13 12  1  0  0  0  0
 14  9  1  0  0  0  0
 14  4  2  0  0  0  0
 15 24  2  0  0  0  0
 16  1  1  0  0  0  0
 17  6  2  0  0  0  0
 17 44  1  0  0  0  0
 18  7  1  0  0  0  0
 20 16  2  0  0  0  0
 21  2  2  0  0  0  0
 21 25  1  0  0  0  0
 22 10  1  0  0  0  0
 22 20  1  0  0  0  0
 23 12  1  0  0  0  0
 23  8  1  0  0  0  0
 24 14  1  0  0  0  0
 25  6  1  0  0  0  0
 26  7  2  0  0  0  0
 27 37  1  6  0  0  0
 27 31  1  0  0  0  0
 28  5  1  6  0  0  0
 29 28  1  0  0  0  0
 30 27  1  0  0  0  0
 30 33  1  0  0  0  0
 31 29  1  0  0  0  0
 32 29  2  0  0  0  0
 33 28  1  0  0  0  0
 33 36  1  1  0  0  0
 34 36  1  0  0  0  0
 36 35  1  0  0  0  0
 37 38  1  6  0  0  0
 37 40  1  0  0  0  0
 40 39  1  1  0  0  0
 42 43  2  0  0  0  0
 43 40  1  0  0  0  0
 43 41  1  0  0  0  0
 44 46  1  0  0  0  0
 46 45  1  0  0  0  0
 47 16  1  0  0  0  0
 48 47  1  0  0  0  0
 49 50  1  0  0  0  0
 50 57  1  6  0  0  0
 51 50  1  0  0  0  0
 51 48  1  1  0  0  0
 52 54  1  0  0  0  0
 52 49  1  0  0  0  0
 53 52  2  0  0  0  0
 54 51  1  0  0  0  0
 55 57  2  0  0  0  0
 57 56  1  0  0  0  0
M  END
>  <MODEL>
3

>  <REMARK>
 VINA RESULT:      -5.2      3.600      8.342
  Name = 
  11 active torsions:
  status: ('A' for Active; 'I' for Inactive)
    1  A    between atoms: C_4  and  C_22
    2  A    between atoms: C_5  and  C_51
    3  A    between atoms: C_12  and  C_16
    4  A    between atoms: C_17  and  C_39
    5  A    between atoms: C_17  and  C_46
    6  A    between atoms: C_22  and  C_56
    7  A    between atoms: C_27  and  O_36
    8  A    between atoms: C_30  and  C_54
    9  A    between atoms: C_31  and  C_56
   10  A    between atoms: C_35  and  C_40
   11  A    between atoms: O_36  and  C_40
                            x       y       z     vdW  Elec       q    Type
                         _______ _______ _______ _____ _____    ______ ____

>  <TORSDO>
F 11

$$$$
=
 OpenBabel10222417233D

 57 61  0  0  1  0  0  0  0  0999 V2000
  190.1220  177.9110  138.1430 C   0  0  0  0  0  2  0  0  0  0  0  0
  191.3600  177.3380  144.5890 C   0  0  0  0  0  3  0  0  0  0  0  0
  184.7590  177.7690  141.2900 C   0  0  0  0  0  3  0  0  0  0  0  0
  190.0820  177.7020  142.5510 C   0  0  0  0  0  3  0  0  0  0  0  0
  182.1950  178.0620  137.1330 C   0  0  0  0  0  3  0  0  0  0  0  0
  189.6770  177.3280  146.1380 N   0  0  0  0  0  0  0  0  0  0  0  0
  184.1170  177.7530  138.8920 C   0  0  0  0  0  0  0  0  0  0  0  0
  187.7480  177.5630  144.7410 C   0  0  0  0  0  3  0  0  0  0  0  0
  187.6230  177.8150  142.2600 C   0  0  0  0  0  3  0  0  0  0  0  0
  185.5810  176.5970  137.2450 C   0  0  0  0  0  2  0  0  0  0  0  0
  184.0210  178.4870  140.1970 C   0  0  2  0  0  3  0  0  0  0  0  0
  185.5520  177.5590  143.6350 C   0  0  0  0  0  2  0  0  0  0  0  0
  184.7820  178.2480  142.5390 C   0  0  0  0  0  3  0  0  0  0  0  0
  188.9270  177.8700  141.7920 C   0  0  0  0  0  0  0  0  0  0  0  0
  190.1550  177.8060  139.6370 C   0  0  0  0  0  3  0  0  0  0  0  0
  189.2390  176.8560  137.5620 C   0  0  0  0  0  0  0  0  0  0  0  0
  191.0050  177.2230  145.9270 C   0  0  0  0  0  0  0  0  0  0  0  0
  185.2810  177.0380  138.5720 O   0  0  0  0  0  0  0  0  0  0  0  0
  184.5810  179.8940  140.0030 C   0  0  0  0  0  1  0  0  0  0  0  0
  187.9580  177.0470  137.5750 N   0  0  0  0  0  0  0  0  0  0  0  0
  190.1690  177.5260  143.9170 C   0  0  0  0  0  0  0  0  0  0  0  0
  186.9950  176.0350  137.1780 C   0  0  0  0  0  2  0  0  0  0  0  0
  187.0500  177.6810  143.5340 C   0  0  0  0  0  0  0  0  0  0  0  0
  189.0360  178.0190  140.3410 C   0  0  0  0  0  3  0  0  0  0  0  0
  189.1240  177.5150  144.9250 C   0  0  0  0  0  0  0  0  0  0  0  0
  183.1440  177.8960  138.0260 C   0  0  0  0  0  0  0  0  0  0  0  0
  179.5930  174.7090  136.2460 C   0  0  2  0  0  3  0  0  0  0  0  0
  181.0400  177.1130  137.0220 C   0  0  2  0  0  3  0  0  0  0  0  0
  181.4190  175.7350  137.5190 C   0  0  0  0  0  0  0  0  0  0  0  0
  180.1790  175.5520  134.7440 S   0  0  0  0  0  0  0  0  0  0  0  0
  180.6770  174.6150  137.1570 O   0  0  0  0  0  0  0  0  0  0  0  0
  182.3730  175.5920  138.3340 O   0  0  0  0  0  0  0  0  0  0  0  0
  180.4470  177.1560  135.5960 C   0  0  1  0  0  3  0  0  0  0  0  0
  179.4390  179.1330  134.6300 O   0  0  0  0  0  1  0  0  0  0  0  0
  178.9310  178.5820  136.7920 O   0  0  0  0  0  1  0  0  0  0  0  0
  179.2320  178.0800  135.5210 C   0  0  0  0  0  3  0  0  0  0  0  0
  179.0230  173.3200  135.9190 C   0  0  1  0  0  3  0  0  0  0  0  0
  179.2790  172.9620  134.5950 O   0  0  0  0  0  1  0  0  0  0  0  0
  179.9020  172.7600  138.0900 O   0  0  0  0  0  1  0  0  0  0  0  0
  179.5040  172.2180  136.8640 C   0  0  2  0  0  3  0  0  0  0  0  0
  180.2870  170.0550  135.7960 N   0  0  0  0  0  1  0  0  0  0  0  0
  181.7770  171.7940  136.2090 O   0  0  0  0  0  0  0  0  0  0  0  0
  180.5920  171.3630  136.2820 C   0  0  0  0  0  0  0  0  0  0  0  0
  191.9830  177.0050  147.0240 C   0  0  0  0  0  2  0  0  0  0  0  0
  192.5920  175.4800  148.8780 C   0  0  0  0  0  1  0  0  0  0  0  0
  191.9050  175.5740  147.5280 C   0  0  0  0  0  2  0  0  0  0  0  0
  189.8540  175.5330  137.1940 C   0  0  0  0  0  2  0  0  0  0  0  0
  191.1570  175.4330  137.7040 O   0  0  0  0  0  0  0  0  0  0  0  0
  193.6090  172.9930  136.6350 O   0  0  0  0  0  0  0  0  0  0  0  0
  193.1490  174.0020  137.5170 C   0  0  2  0  0  3  0  0  0  0  0  0
  191.9660  174.6750  136.8210 C   0  0  1  0  0  3  0  0  0  0  0  0
  192.6770  172.6020  135.6890 C   0  0  0  0  0  0  0  0  0  0  0  0
  192.9700  171.7310  134.7800 N   0  0  0  0  0  2  0  0  0  0  0  0
  191.1280  173.4810  135.7000 S   0  0  0  0  0  0  0  0  0  0  0  0
  195.0220  174.8480  138.7360 O   0  0  0  0  0  1  0  0  0  0  0  0
  194.2410  176.1960  137.0490 O   0  0  0  0  0  0  0  0  0  0  0  0
  194.2270  175.0090  137.7710 C   0  0  0  0  0  0  0  0  0  0  0  0
  1 15  1  0  0  0  0
  2 17  1  0  0  0  0
  3 13  2  0  0  0  0
  4 21  1  0  0  0  0
  5 26  2  0  0  0  0
  7 11  1  0  0  0  0
  8 25  2  0  0  0  0
  9 23  2  0  0  0  0
 10 18  1  0  0  0  0
 11 19  1  6  0  0  0
 11  3  1  0  0  0  0
 13 12  1  0  0  0  0
 14  9  1  0  0  0  0
 14  4  2  0  0  0  0
 15 24  2  0  0  0  0
 16 20  2  0  0  0  0
 16  1  1  0  0  0  0
 17  6  2  0  0  0  0
 17 44  1  0  0  0  0
 18  7  1  0  0  0  0
 21  2  2  0  0  0  0
 21 25  1  0  0  0  0
 22 10  1  0  0  0  0
 22 20  1  0  0  0  0
 23 12  1  0  0  0  0
 23  8  1  0  0  0  0
 24 14  1  0  0  0  0
 25  6  1  0  0  0  0
 26  7  2  0  0  0  0
 27 37  1  6  0  0  0
 27 31  1  0  0  0  0
 28  5  1  6  0  0  0
 28 29  1  0  0  0  0
 29 32  2  0  0  0  0
 30 33  1  0  0  0  0
 30 27  1  0  0  0  0
 31 29  1  0  0  0  0
 33 36  1  1  0  0  0
 33 28  1  0  0  0  0
 34 36  1  0  0  0  0
 36 35  1  0  0  0  0
 37 38  1  6  0  0  0
 37 40  1  0  0  0  0
 40 39  1  1  0  0  0
 41 43  1  0  0  0  0
 42 43  2  0  0  0  0
 43 40  1  0  0  0  0
 44 46  1  0  0  0  0
 46 45  1  0  0  0  0
 47 16  1  0  0  0  0
 47 48  1  0  0  0  0
 49 50  1  0  0  0  0
 50 57  1  6  0  0  0
 51 50  1  0  0  0  0
 51 48  1  1  0  0  0
 52 54  1  0  0  0  0
 52 49  1  0  0  0  0
 53 52  2  0  0  0  0
 54 51  1  0  0  0  0
 56 57  2  0  0  0  0
 57 55  1  0  0  0  0
M  END
>  <MODEL>
4

>  <REMARK>
 VINA RESULT:      -5.1      4.134      8.404
  Name = 
  11 active torsions:
  status: ('A' for Active; 'I' for Inactive)
    1  A    between atoms: C_4  and  C_22
    2  A    between atoms: C_5  and  C_51
    3  A    between atoms: C_12  and  C_16
    4  A    between atoms: C_17  and  C_39
    5  A    between atoms: C_17  and  C_46
    6  A    between atoms: C_22  and  C_56
    7  A    between atoms: C_27  and  O_36
    8  A    between atoms: C_30  and  C_54
    9  A    between atoms: C_31  and  C_56
   10  A    between atoms: C_35  and  C_40
   11  A    between atoms: O_36  and  C_40
                            x       y       z     vdW  Elec       q    Type
                         _______ _______ _______ _____ _____    ______ ____

>  <TORSDO>
F 11

$$$$
=
 OpenBabel10222417233D

 57 61  0  0  1  0  0  0  0  0999 V2000
  188.5320  179.4350  143.0400 C   0  0  0  0  0  2  0  0  0  0  0  0
  182.2350  179.0800  141.1360 C   0  0  0  0  0  3  0  0  0  0  0  0
  188.1920  176.7000  137.4640 C   0  0  0  0  0  3  0  0  0  0  0  0
  184.6590  178.9570  140.9790 C   0  0  0  0  0  3  0  0  0  0  0  0
  193.0430  176.0670  137.3660 C   0  0  0  0  0  3  0  0  0  0  0  0
  181.6430  178.2180  139.1010 N   0  0  0  0  0  0  0  0  0  0  0  0
  190.5790  176.5470  138.1300 C   0  0  0  0  0  0  0  0  0  0  0  0
  183.7810  177.6470  138.1910 C   0  0  0  0  0  3  0  0  0  0  0  0
  186.0510  177.9690  139.1810 C   0  0  0  0  0  3  0  0  0  0  0  0
  191.1610  176.2770  140.5340 C   0  0  0  0  0  2  0  0  0  0  0  0
  189.6050  177.0770  137.1180 C   0  0  2  0  0  3  0  0  0  0  0  0
  185.7460  176.7250  137.0350 C   0  0  0  0  0  2  0  0  0  0  0  0
  187.1710  177.0600  136.6790 C   0  0  0  0  0  3  0  0  0  0  0  0
  185.8770  178.6340  140.3850 C   0  0  0  0  0  0  0  0  0  0  0  0
  187.1940  179.2640  142.3910 C   0  0  0  0  0  3  0  0  0  0  0  0
  189.2650  178.1340  143.0850 C   0  0  0  0  0  0  0  0  0  0  0  0
  181.2060  178.7350  140.2690 C   0  0  0  0  0  0  0  0  0  0  0  0
  190.2100  176.4530  139.4800 O   0  0  0  0  0  0  0  0  0  0  0  0
  189.7570  178.5940  137.0500 C   0  0  0  0  0  1  0  0  0  0  0  0
  189.8680  177.7270  142.0130 N   0  0  0  0  0  0  0  0  0  0  0  0
  183.3960  178.7540  140.4640 C   0  0  0  0  0  0  0  0  0  0  0  0
  190.4820  176.4180  141.8900 C   0  0  0  0  0  2  0  0  0  0  0  0
  185.1740  177.5130  138.1840 C   0  0  0  0  0  0  0  0  0  0  0  0
  187.1210  178.9060  141.1030 C   0  0  0  0  0  3  0  0  0  0  0  0
  182.9870  178.2110  139.1800 C   0  0  0  0  0  0  0  0  0  0  0  0
  191.8030  176.2900  137.7370 C   0  0  0  0  0  0  0  0  0  0  0  0
  195.3480  172.6700  135.9700 C   0  0  2  0  0  3  0  0  0  0  0  0
  193.5060  174.7090  136.9320 C   0  0  2  0  0  3  0  0  0  0  0  0
  194.7250  174.2740  137.7150 C   0  0  0  0  0  0  0  0  0  0  0  0
  195.2360  173.9950  134.7260 S   0  0  0  0  0  0  0  0  0  0  0  0
  195.5590  173.2660  137.2400 O   0  0  0  0  0  0  0  0  0  0  0  0
  194.9610  174.7680  138.8530 O   0  0  0  0  0  0  0  0  0  0  0  0
  193.6620  174.6630  135.3950 C   0  0  1  0  0  3  0  0  0  0  0  0
  191.3470  174.9450  134.7510 O   0  0  0  0  0  1  0  0  0  0  0  0
  192.0790  172.8600  135.3450 O   0  0  0  0  0  1  0  0  0  0  0  0
  192.4280  174.0640  134.7230 C   0  0  0  0  0  3  0  0  0  0  0  0
  196.4720  171.6800  135.6290 C   0  0  1  0  0  3  0  0  0  0  0  0
  197.7050  172.1220  136.1070 O   0  0  0  0  0  1  0  0  0  0  0  0
  194.8990  169.8620  135.7860 O   0  0  0  0  0  1  0  0  0  0  0  0
  196.2020  170.2520  136.1090 C   0  0  2  0  0  3  0  0  0  0  0  0
  195.4140  169.6350  138.4390 N   0  0  0  0  0  1  0  0  0  0  0  0
  197.6250  170.2470  138.0470 O   0  0  0  0  0  0  0  0  0  0  0  0
  196.4700  170.0550  137.5730 C   0  0  0  0  0  0  0  0  0  0  0  0
  179.7660  178.9130  140.5860 C   0  0  0  0  0  2  0  0  0  0  0  0
  179.1100  181.2920  140.3830 C   0  0  0  0  0  1  0  0  0  0  0  0
  179.5460  180.2070  141.3500 C   0  0  0  0  0  2  0  0  0  0  0  0
  189.0840  177.2550  144.2920 C   0  0  0  0  0  2  0  0  0  0  0  0
  187.8930  176.5200  144.1980 O   0  0  0  0  0  0  0  0  0  0  0  0
  186.3950  178.7800  146.5960 O   0  0  0  0  0  0  0  0  0  0  0  0
  187.5050  178.0880  146.0530 C   0  0  2  0  0  3  0  0  0  0  0  0
  186.9330  177.0350  145.1040 C   0  0  1  0  0  3  0  0  0  0  0  0
  185.2340  178.6610  145.8510 C   0  0  0  0  0  0  0  0  0  0  0  0
  184.1250  179.1900  146.2500 N   0  0  0  0  0  2  0  0  0  0  0  0
  185.3260  177.6090  144.4160 S   0  0  0  0  0  0  0  0  0  0  0  0
  187.7110  176.6360  147.9390 O   0  0  0  0  0  1  0  0  0  0  0  0
  189.6090  177.7900  147.3590 O   0  0  0  0  0  0  0  0  0  0  0  0
  188.2890  177.4190  147.1380 C   0  0  0  0  0  0  0  0  0  0  0  0
  1 16  1  0  0  0  0
  5 26  2  0  0  0  0
  6 25  2  0  0  0  0
  6 17  1  0  0  0  0
  7 18  1  0  0  0  0
  8 25  1  0  0  0  0
  9 14  2  0  0  0  0
 10 22  1  0  0  0  0
 11 19  1  1  0  0  0
 11  3  1  0  0  0  0
 11  7  1  0  0  0  0
 12 23  1  0  0  0  0
 13 12  1  0  0  0  0
 13  3  2  0  0  0  0
 14  4  1  0  0  0  0
 14 24  1  0  0  0  0
 15  1  1  0  0  0  0
 16 47  1  0  0  0  0
 17 44  1  0  0  0  0
 17  2  2  0  0  0  0
 18 10  1  0  0  0  0
 20 16  2  0  0  0  0
 21  4  2  0  0  0  0
 21  2  1  0  0  0  0
 22 20  1  0  0  0  0
 23  8  2  0  0  0  0
 23  9  1  0  0  0  0
 24 15  2  0  0  0  0
 25 21  1  0  0  0  0
 26  7  2  0  0  0  0
 27 37  1  6  0  0  0
 27 31  1  0  0  0  0
 28  5  1  1  0  0  0
 28 29  1  0  0  0  0
 29 32  2  0  0  0  0
 30 33  1  0  0  0  0
 30 27  1  0  0  0  0
 31 29  1  0  0  0  0
 33 36  1  6  0  0  0
 33 28  1  0  0  0  0
 36 34  1  0  0  0  0
 36 35  1  0  0  0  0
 37 38  1  1  0  0  0
 37 40  1  0  0  0  0
 40 39  1  1  0  0  0
 40 43  1  0  0  0  0
 43 42  2  0  0  0  0
 43 41  1  0  0  0  0
 44 46  1  0  0  0  0
 45 46  1  0  0  0  0
 48 47  1  0  0  0  0
 50 49  1  0  0  0  0
 50 57  1  1  0  0  0
 51 48  1  6  0  0  0
 51 50  1  0  0  0  0
 52 53  2  0  0  0  0
 52 49  1  0  0  0  0
 54 51  1  0  0  0  0
 54 52  1  0  0  0  0
 57 56  2  0  0  0  0
 57 55  1  0  0  0  0
M  END
>  <MODEL>
5

>  <REMARK>
 VINA RESULT:      -4.1      4.740     11.767
  Name = 
  11 active torsions:
  status: ('A' for Active; 'I' for Inactive)
    1  A    between atoms: C_4  and  C_22
    2  A    between atoms: C_5  and  C_51
    3  A    between atoms: C_12  and  C_16
    4  A    between atoms: C_17  and  C_39
    5  A    between atoms: C_17  and  C_46
    6  A    between atoms: C_22  and  C_56
    7  A    between atoms: C_27  and  O_36
    8  A    between atoms: C_30  and  C_54
    9  A    between atoms: C_31  and  C_56
   10  A    between atoms: C_35  and  C_40
   11  A    between atoms: O_36  and  C_40
                            x       y       z     vdW  Elec       q    Type
                         _______ _______ _______ _____ _____    ______ ____

>  <TORSDO>
F 11

$$$$
