=
 OpenBabel10222417193D

 46 48  0  0  1  0  0  0  0  0999 V2000
  182.0010  179.8200  143.3190 O   0  0  0  0  0  1  0  0  0  0  0  0
  183.1890  178.5440  141.5960 C   0  0  0  0  0  3  0  0  0  0  0  0
  185.5130  179.3570  141.3270 C   0  0  0  0  0  2  0  0  0  0  0  0
  186.3070  178.3770  143.3170 C   0  0  2  0  0  3  0  0  0  0  0  0
  183.9240  178.6290  143.9710 C   0  0  0  0  0  0  0  0  0  0  0  0
  185.0360  177.6530  143.7500 C   0  0  0  0  0  2  0  0  0  0  0  0
  184.2730  178.6710  140.8250 C   0  0  0  0  0  0  0  0  0  0  0  0
  183.0740  178.9970  142.9990 C   0  0  0  0  0  0  0  0  0  0  0  0
  183.7680  179.1570  145.2480 O   0  0  0  0  0  1  0  0  0  0  0  0
  186.4330  178.3670  141.8640 N   0  0  0  0  0  2  0  0  0  0  0  0
  187.1740  177.1140  146.2070 O   0  0  0  0  0  1  0  0  0  0  0  0
  190.1000  177.1540  144.9450 C   0  0  0  0  0  0  0  0  0  0  0  0
  187.5140  177.7440  143.9420 C   0  0  0  0  0  0  0  0  0  0  0  0
  189.5090  176.2700  143.8770 C   0  0  0  0  0  2  0  0  0  0  0  0
  189.3100  177.9830  145.6510 C   0  0  0  0  0  3  0  0  0  0  0  0
  188.3130  176.9240  143.2340 C   0  0  0  0  0  3  0  0  0  0  0  0
  187.8240  178.0400  145.3910 C   0  0  2  0  0  3  0  0  0  0  0  0
  192.2380  178.1060  144.6240 F   0  0  0  0  0  0  0  0  0  0  0  0
  191.5650  177.0630  145.2350 C   0  0  1  0  0  3  0  0  0  0  0  0
  191.7880  177.1020  146.6220 O   0  0  0  0  0  0  0  0  0  0  0  0
  193.1040  175.7800  147.9730 F   0  0  0  0  0  0  0  0  0  0  0  0
  192.4340  175.0320  145.9640 F   0  0  0  0  0  0  0  0  0  0  0  0
  192.0600  175.7900  147.0580 C   0  0  0  0  0  0  0  0  0  0  0  0
  190.9320  175.2130  147.6250 F   0  0  0  0  0  0  0  0  0  0  0  0
  184.2280  178.1470  139.5290 O   0  0  0  0  0  0  0  0  0  0  0  0
  183.0080  177.8170  138.8720 C   0  0  0  0  0  2  0  0  0  0  0  0
  183.2420  176.9510  137.6360 C   0  0  1  0  0  3  0  0  0  0  0  0
  185.7570  177.6450  136.2880 O   0  0  0  0  0  0  0  0  0  0  0  0
  186.8600  175.7550  137.0980 N   0  0  0  0  0  2  0  0  0  0  0  0
  184.5210  176.2420  137.7040 N   0  0  0  0  0  2  0  0  0  0  0  0
  185.7130  176.5970  136.9900 C   0  0  0  0  0  0  0  0  0  0  0  0
  188.0780  176.0110  136.3450 C   0  0  0  0  0  2  0  0  0  0  0  0
  192.0550  176.0630  138.3820 C   0  0  0  0  0  0  0  0  0  0  0  0
  190.7420  176.2600  139.0840 C   0  0  2  0  0  3  0  0  0  0  0  0
  192.2440  175.0380  137.5470 C   0  0  0  0  0  3  0  0  0  0  0  0
  189.8860  174.3070  136.9890 C   0  0  0  0  0  0  0  0  0  0  0  0
  189.6480  176.5220  138.1040 C   0  0  0  0  0  3  0  0  0  0  0  0
  191.2070  174.0740  137.1340 C   0  0  0  0  0  3  0  0  0  0  0  0
  193.1200  176.9260  138.6220 O   0  0  0  0  0  1  0  0  0  0  0  0
  189.2670  175.6480  137.1710 C   0  0  0  0  0  0  0  0  0  0  0  0
  190.7990  177.3920  140.0940 C   0  0  0  0  0  1  0  0  0  0  0  0
  189.2560  172.4920  135.4080 C   0  0  0  0  0  1  0  0  0  0  0  0
  189.0420  173.2640  136.5830 O   0  0  0  0  0  0  0  0  0  0  0  0
  182.0730  176.0170  137.3390 C   0  0  0  0  0  2  0  0  0  0  0  0
  182.5490  174.5840  137.1660 C   0  0  0  0  0  2  0  0  0  0  0  0
  182.0780  174.0680  135.9730 F   0  0  0  0  0  0  0  0  0  0  0  0
  2  8  1  0  0  0  0
  3 10  1  0  0  0  0
  4  6  1  0  0  0  0
  4 13  1  1  0  0  0
  5  9  1  0  0  0  0
  6  5  1  0  0  0  0
  7  3  1  0  0  0  0
  7  2  2  0  0  0  0
  8  1  1  0  0  0  0
  8  5  2  0  0  0  0
 10  4  1  0  0  0  0
 12 19  1  0  0  0  0
 12 15  2  0  0  0  0
 13 17  1  0  0  0  0
 14 12  1  0  0  0  0
 16 14  1  0  0  0  0
 16 13  2  0  0  0  0
 17 15  1  0  0  0  0
 17 11  1  1  0  0  0
 19 18  1  6  0  0  0
 19 20  1  0  0  0  0
 20 23  1  0  0  0  0
 22 23  1  0  0  0  0
 23 24  1  0  0  0  0
 23 21  1  0  0  0  0
 25  7  1  0  0  0  0
 26 25  1  0  0  0  0
 27 44  1  1  0  0  0
 27 30  1  0  0  0  0
 27 26  1  0  0  0  0
 28 31  2  0  0  0  0
 31 29  1  0  0  0  0
 31 30  1  0  0  0  0
 32 29  1  0  0  0  0
 32 40  1  0  0  0  0
 33 39  1  0  0  0  0
 33 34  1  0  0  0  0
 34 41  1  1  0  0  0
 35 33  2  0  0  0  0
 36 38  2  0  0  0  0
 36 40  1  0  0  0  0
 37 34  1  0  0  0  0
 38 35  1  0  0  0  0
 40 37  2  0  0  0  0
 42 43  1  0  0  0  0
 43 36  1  0  0  0  0
 45 44  1  0  0  0  0
 46 45  1  0  0  0  0
M  END
>  <MODEL>
1

>  <REMARK>
 VINA RESULT:      -8.3      0.000      0.000
  Name = 
  13 active torsions:
  status: ('A' for Active; 'I' for Inactive)
    1  A    between atoms: C_2  and  C_5
    2  A    between atoms: C_2  and  C_8
    3  A    between atoms: C_5  and  N_31
    4  A    between atoms: C_5  and  C_37
    5  A    between atoms: C_6  and  C_17
    6  A    between atoms: O_11  and  C_28
    7  A    between atoms: C_16  and  C_45
    8  A    between atoms: C_18  and  O_43
    9  A    between atoms: O_21  and  C_36
   10  A    between atoms: O_21  and  C_37
   11  A    between atoms: C_25  and  N_27
   12  A    between atoms: C_25  and  C_40
   13  A    between atoms: O_43  and  C_45
                            x       y       z     vdW  Elec       q    Type
                         _______ _______ _______ _____ _____    ______ ____

>  <TORSDO>
F 13

$$$$
=
 OpenBabel10222417193D

 46 48  0  0  1  0  0  0  0  0999 V2000
  190.8010  176.4910  146.9400 O   0  0  0  0  0  1  0  0  0  0  0  0
  190.6430  176.8960  144.5280 C   0  0  0  0  0  3  0  0  0  0  0  0
  188.6360  175.8070  143.5700 C   0  0  0  0  0  2  0  0  0  0  0  0
  187.1110  177.3750  144.4460 C   0  0  2  0  0  3  0  0  0  0  0  0
  188.9030  177.6340  146.1460 C   0  0  0  0  0  0  0  0  0  0  0  0
  188.1030  178.3350  145.0950 C   0  0  0  0  0  2  0  0  0  0  0  0
  190.0210  176.3770  143.4650 C   0  0  0  0  0  0  0  0  0  0  0  0
  190.0670  177.0180  145.8850 C   0  0  0  0  0  0  0  0  0  0  0  0
  188.4150  177.6440  147.4470 O   0  0  0  0  0  1  0  0  0  0  0  0
  187.6610  176.8250  143.2120 N   0  0  0  0  0  2  0  0  0  0  0  0
  185.3930  179.8980  145.6200 O   0  0  0  0  0  1  0  0  0  0  0  0
  183.0880  178.7400  143.7490 C   0  0  0  0  0  0  0  0  0  0  0  0
  185.8110  178.0680  144.1660 C   0  0  0  0  0  0  0  0  0  0  0  0
  184.0740  178.9480  142.6280 C   0  0  0  0  0  2  0  0  0  0  0  0
  183.5240  178.5710  145.0110 C   0  0  0  0  0  3  0  0  0  0  0  0
  185.3670  178.2260  142.9040 C   0  0  0  0  0  3  0  0  0  0  0  0
  184.9990  178.5930  145.3270 C   0  0  2  0  0  3  0  0  0  0  0  0
  180.8900  178.6320  144.6100 F   0  0  0  0  0  0  0  0  0  0  0  0
  181.6230  178.7660  143.4440 C   0  0  1  0  0  3  0  0  0  0  0  0
  181.2810  179.9680  142.8030 O   0  0  0  0  0  0  0  0  0  0  0  0
  179.6120  180.5710  141.3370 F   0  0  0  0  0  0  0  0  0  0  0  0
  180.0380  178.4030  141.7370 F   0  0  0  0  0  0  0  0  0  0  0  0
  180.6160  179.6510  141.6020 C   0  0  0  0  0  0  0  0  0  0  0  0
  181.5080  179.6080  140.5400 F   0  0  0  0  0  0  0  0  0  0  0  0
  190.6960  176.3770  142.2390 O   0  0  0  0  0  0  0  0  0  0  0  0
  190.8380  177.5450  141.4360 C   0  0  0  0  0  2  0  0  0  0  0  0
  190.2080  177.3680  140.0560 C   0  0  1  0  0  3  0  0  0  0  0  0
  191.5500  176.8300  137.4990 O   0  0  0  0  0  0  0  0  0  0  0  0
  191.3370  174.5180  137.7290 N   0  0  0  0  0  2  0  0  0  0  0  0
  190.5370  176.0660  139.4720 N   0  0  0  0  0  2  0  0  0  0  0  0
  191.1570  175.8540  138.1960 C   0  0  0  0  0  0  0  0  0  0  0  0
  191.8880  174.2270  136.4140 C   0  0  0  0  0  2  0  0  0  0  0  0
  195.2320  171.5490  137.6830 C   0  0  0  0  0  0  0  0  0  0  0  0
  194.5570  171.4840  136.3420 C   0  0  2  0  0  3  0  0  0  0  0  0
  195.6740  172.7080  138.1760 C   0  0  0  0  0  3  0  0  0  0  0  0
  194.4150  174.4320  136.8160 C   0  0  0  0  0  0  0  0  0  0  0  0
  193.2840  172.2610  136.3480 C   0  0  0  0  0  3  0  0  0  0  0  0
  195.4690  174.0310  137.5560 C   0  0  0  0  0  3  0  0  0  0  0  0
  195.4500  170.3900  138.4210 O   0  0  0  0  0  1  0  0  0  0  0  0
  193.2240  173.5780  136.5590 C   0  0  0  0  0  0  0  0  0  0  0  0
  194.2760  170.0540  135.9150 C   0  0  0  0  0  1  0  0  0  0  0  0
  195.2910  176.2120  135.3150 C   0  0  0  0  0  1  0  0  0  0  0  0
  194.3860  175.7370  136.3040 O   0  0  0  0  0  0  0  0  0  0  0  0
  188.7080  177.6470  140.0500 C   0  0  0  0  0  2  0  0  0  0  0  0
  188.2940  178.3740  138.7810 C   0  0  0  0  0  2  0  0  0  0  0  0
  189.3510  179.1200  138.2950 F   0  0  0  0  0  0  0  0  0  0  0  0
  2  8  1  0  0  0  0
  4 13  1  6  0  0  0
  4  6  1  0  0  0  0
  5  9  1  0  0  0  0
  6  5  1  0  0  0  0
  7  3  1  0  0  0  0
  7  2  2  0  0  0  0
  8  5  2  0  0  0  0
  8  1  1  0  0  0  0
 10  3  1  0  0  0  0
 10  4  1  0  0  0  0
 12 15  2  0  0  0  0
 13 17  1  0  0  0  0
 14 16  1  0  0  0  0
 14 12  1  0  0  0  0
 15 17  1  0  0  0  0
 16 13  2  0  0  0  0
 17 11  1  6  0  0  0
 19 12  1  0  0  0  0
 19 18  1  1  0  0  0
 20 19  1  0  0  0  0
 21 23  1  0  0  0  0
 23 22  1  0  0  0  0
 23 20  1  0  0  0  0
 24 23  1  0  0  0  0
 25  7  1  0  0  0  0
 26 25  1  0  0  0  0
 27 44  1  1  0  0  0
 27 26  1  0  0  0  0
 28 31  2  0  0  0  0
 29 31  1  0  0  0  0
 30 27  1  0  0  0  0
 31 30  1  0  0  0  0
 32 40  1  0  0  0  0
 32 29  1  0  0  0  0
 33 35  2  0  0  0  0
 33 39  1  0  0  0  0
 34 41  1  1  0  0  0
 34 37  1  0  0  0  0
 34 33  1  0  0  0  0
 36 38  2  0  0  0  0
 37 40  2  0  0  0  0
 38 35  1  0  0  0  0
 40 36  1  0  0  0  0
 42 43  1  0  0  0  0
 43 36  1  0  0  0  0
 45 44  1  0  0  0  0
 46 45  1  0  0  0  0
M  END
>  <MODEL>
2

>  <REMARK>
 VINA RESULT:      -8.3      4.093      7.498
  Name = 
  13 active torsions:
  status: ('A' for Active; 'I' for Inactive)
    1  A    between atoms: C_2  and  C_5
    2  A    between atoms: C_2  and  C_8
    3  A    between atoms: C_5  and  N_31
    4  A    between atoms: C_5  and  C_37
    5  A    between atoms: C_6  and  C_17
    6  A    between atoms: O_11  and  C_28
    7  A    between atoms: C_16  and  C_45
    8  A    between atoms: C_18  and  O_43
    9  A    between atoms: O_21  and  C_36
   10  A    between atoms: O_21  and  C_37
   11  A    between atoms: C_25  and  N_27
   12  A    between atoms: C_25  and  C_40
   13  A    between atoms: O_43  and  C_45
                            x       y       z     vdW  Elec       q    Type
                         _______ _______ _______ _____ _____    ______ ____

>  <TORSDO>
F 13

$$$$
=
 OpenBabel10222417193D

 46 48  0  0  1  0  0  0  0  0999 V2000
  189.0260  176.7750  147.3440 O   0  0  0  0  0  1  0  0  0  0  0  0
  189.4350  177.5010  145.0390 C   0  0  0  0  0  3  0  0  0  0  0  0
  187.8630  176.4080  143.4680 C   0  0  0  0  0  2  0  0  0  0  0  0
  186.0060  177.7190  144.0870 C   0  0  2  0  0  3  0  0  0  0  0  0
  187.2760  177.8720  146.2160 C   0  0  0  0  0  0  0  0  0  0  0  0
  186.6930  178.6510  145.0800 C   0  0  0  0  0  2  0  0  0  0  0  0
  189.1600  177.0900  143.7970 C   0  0  0  0  0  0  0  0  0  0  0  0
  188.5280  177.3870  146.2010 C   0  0  0  0  0  0  0  0  0  0  0  0
  186.4780  177.6640  147.3360 O   0  0  0  0  0  1  0  0  0  0  0  0
  186.9040  177.3900  142.9860 N   0  0  0  0  0  2  0  0  0  0  0  0
  184.3420  180.5130  144.4370 O   0  0  0  0  0  1  0  0  0  0  0  0
  182.0810  178.9540  142.8210 C   0  0  0  0  0  0  0  0  0  0  0  0
  184.7510  178.3460  143.5570 C   0  0  0  0  0  0  0  0  0  0  0  0
  183.1260  178.8220  141.7440 C   0  0  0  0  0  2  0  0  0  0  0  0
  182.4490  179.1230  144.1040 C   0  0  0  0  0  3  0  0  0  0  0  0
  184.3740  178.1670  142.2770 C   0  0  0  0  0  3  0  0  0  0  0  0
  183.9080  179.1890  144.4850 C   0  0  2  0  0  3  0  0  0  0  0  0
  179.9010  178.2270  143.3740 F   0  0  0  0  0  0  0  0  0  0  0  0
  180.6340  178.9360  142.4390 C   0  0  1  0  0  3  0  0  0  0  0  0
  180.1410  180.2480  142.3430 O   0  0  0  0  0  0  0  0  0  0  0  0
  178.9310  179.3660  140.5940 F   0  0  0  0  0  0  0  0  0  0  0  0
  180.7810  180.5760  140.1950 F   0  0  0  0  0  0  0  0  0  0  0  0
  179.6840  180.4490  141.0260 C   0  0  0  0  0  0  0  0  0  0  0  0
  178.9310  181.6110  140.9360 F   0  0  0  0  0  0  0  0  0  0  0  0
  190.1170  177.3110  142.8000 O   0  0  0  0  0  0  0  0  0  0  0  0
  190.5680  176.2850  141.9220 C   0  0  0  0  0  2  0  0  0  0  0  0
  190.6100  176.7550  140.4690 C   0  0  1  0  0  3  0  0  0  0  0  0
  189.2300  176.7460  137.8760 O   0  0  0  0  0  0  0  0  0  0  0  0
  187.6400  178.3050  138.5740 N   0  0  0  0  0  2  0  0  0  0  0  0
  189.3940  177.4810  140.0980 N   0  0  0  0  0  2  0  0  0  0  0  0
  188.7800  177.4770  138.8020 C   0  0  0  0  0  0  0  0  0  0  0  0
  187.0120  178.4100  137.2660 C   0  0  0  0  0  2  0  0  0  0  0  0
  183.3950  176.0520  138.4170 C   0  0  0  0  0  0  0  0  0  0  0  0
  183.3520  177.3870  137.7290 C   0  0  2  0  0  3  0  0  0  0  0  0
  184.1700  175.0650  137.9610 C   0  0  0  0  0  3  0  0  0  0  0  0
  185.8290  176.2740  136.4790 C   0  0  0  0  0  0  0  0  0  0  0  0
  184.6820  178.0590  137.7850 C   0  0  0  0  0  3  0  0  0  0  0  0
  185.1260  175.1810  136.8430 C   0  0  0  0  0  3  0  0  0  0  0  0
  182.5920  175.8030  139.5250 O   0  0  0  0  0  1  0  0  0  0  0  0
  185.7870  177.5600  137.2250 C   0  0  0  0  0  0  0  0  0  0  0  0
  182.2970  178.3010  138.3240 C   0  0  0  0  0  1  0  0  0  0  0  0
  187.6120  175.1290  135.1750 C   0  0  0  0  0  1  0  0  0  0  0  0
  186.7000  176.2010  135.3830 O   0  0  0  0  0  0  0  0  0  0  0  0
  191.8790  177.5350  140.1360 C   0  0  0  0  0  2  0  0  0  0  0  0
  192.8100  176.7140  139.2600 C   0  0  0  0  0  2  0  0  0  0  0  0
  192.2840  176.5970  137.9870 F   0  0  0  0  0  0  0  0  0  0  0  0
  2  8  1  0  0  0  0
  3  7  1  0  0  0  0
  4 13  1  6  0  0  0
  4  6  1  0  0  0  0
  5  9  1  0  0  0  0
  6  5  1  0  0  0  0
  7  2  2  0  0  0  0
  8  5  2  0  0  0  0
  8  1  1  0  0  0  0
 10  3  1  0  0  0  0
 10  4  1  0  0  0  0
 12 15  2  0  0  0  0
 13 17  1  0  0  0  0
 14 16  1  0  0  0  0
 14 12  1  0  0  0  0
 15 17  1  0  0  0  0
 16 13  2  0  0  0  0
 17 11  1  6  0  0  0
 19 12  1  0  0  0  0
 19 18  1  1  0  0  0
 20 19  1  0  0  0  0
 21 23  1  0  0  0  0
 22 23  1  0  0  0  0
 23 20  1  0  0  0  0
 24 23  1  0  0  0  0
 25  7  1  0  0  0  0
 26 25  1  0  0  0  0
 27 44  1  1  0  0  0
 27 26  1  0  0  0  0
 28 31  2  0  0  0  0
 29 31  1  0  0  0  0
 30 27  1  0  0  0  0
 31 30  1  0  0  0  0
 32 29  1  0  0  0  0
 33 39  1  0  0  0  0
 34 37  1  0  0  0  0
 34 41  1  1  0  0  0
 34 33  1  0  0  0  0
 35 33  2  0  0  0  0
 36 38  2  0  0  0  0
 36 40  1  0  0  0  0
 38 35  1  0  0  0  0
 40 32  1  0  0  0  0
 40 37  2  0  0  0  0
 42 43  1  0  0  0  0
 43 36  1  0  0  0  0
 45 44  1  0  0  0  0
 46 45  1  0  0  0  0
M  END
>  <MODEL>
3

>  <REMARK>
 VINA RESULT:      -8.1      3.461      8.029
  Name = 
  13 active torsions:
  status: ('A' for Active; 'I' for Inactive)
    1  A    between atoms: C_2  and  C_5
    2  A    between atoms: C_2  and  C_8
    3  A    between atoms: C_5  and  N_31
    4  A    between atoms: C_5  and  C_37
    5  A    between atoms: C_6  and  C_17
    6  A    between atoms: O_11  and  C_28
    7  A    between atoms: C_16  and  C_45
    8  A    between atoms: C_18  and  O_43
    9  A    between atoms: O_21  and  C_36
   10  A    between atoms: O_21  and  C_37
   11  A    between atoms: C_25  and  N_27
   12  A    between atoms: C_25  and  C_40
   13  A    between atoms: O_43  and  C_45
                            x       y       z     vdW  Elec       q    Type
                         _______ _______ _______ _____ _____    ______ ____

>  <TORSDO>
F 13

$$$$
=
 OpenBabel10222417193D

 46 48  0  0  1  0  0  0  0  0999 V2000
  191.4790  176.3220  146.3140 O   0  0  0  0  0  1  0  0  0  0  0  0
  191.0610  176.6110  143.9160 C   0  0  0  0  0  3  0  0  0  0  0  0
  188.8850  175.6230  143.2640 C   0  0  0  0  0  2  0  0  0  0  0  0
  187.5840  177.3430  144.2140 C   0  0  2  0  0  3  0  0  0  0  0  0
  189.5800  177.5580  145.6760 C   0  0  0  0  0  0  0  0  0  0  0  0
  188.7080  178.2600  144.6840 C   0  0  0  0  0  2  0  0  0  0  0  0
  190.2830  176.0840  142.9650 C   0  0  0  0  0  0  0  0  0  0  0  0
  190.6600  176.8450  145.3200 C   0  0  0  0  0  0  0  0  0  0  0  0
  189.2520  177.6720  147.0230 O   0  0  0  0  0  1  0  0  0  0  0  0
  187.9450  176.6900  142.9600 N   0  0  0  0  0  2  0  0  0  0  0  0
  185.7600  179.4430  145.9340 O   0  0  0  0  0  1  0  0  0  0  0  0
  183.6280  178.9340  143.6210 C   0  0  0  0  0  0  0  0  0  0  0  0
  186.3090  178.1140  144.0440 C   0  0  0  0  0  0  0  0  0  0  0  0
  184.7040  179.4430  142.6970 C   0  0  0  0  0  2  0  0  0  0  0  0
  183.9560  178.3920  144.8080 C   0  0  0  0  0  3  0  0  0  0  0  0
  185.9740  178.6450  142.8530 C   0  0  0  0  0  3  0  0  0  0  0  0
  185.3990  178.2900  145.2370 C   0  0  2  0  0  3  0  0  0  0  0  0
  182.0190  178.6440  141.9150 F   0  0  0  0  0  0  0  0  0  0  0  0
  182.1940  179.0770  143.2170 C   0  0  1  0  0  3  0  0  0  0  0  0
  181.3700  178.3360  144.0800 O   0  0  0  0  0  0  0  0  0  0  0  0
  179.5590  177.8890  142.7290 F   0  0  0  0  0  0  0  0  0  0  0  0
  179.9650  179.9870  143.4220 F   0  0  0  0  0  0  0  0  0  0  0  0
  180.0290  178.6550  143.7870 C   0  0  0  0  0  0  0  0  0  0  0  0
  179.2220  178.4680  144.9000 F   0  0  0  0  0  0  0  0  0  0  0  0
  190.8060  175.9700  141.6720 O   0  0  0  0  0  0  0  0  0  0  0  0
  190.8150  177.0520  140.7460 C   0  0  0  0  0  2  0  0  0  0  0  0
  190.3330  176.6220  139.3620 C   0  0  1  0  0  3  0  0  0  0  0  0
  188.2770  175.7850  137.4380 O   0  0  0  0  0  0  0  0  0  0  0  0
  187.1080  177.7960  137.6200 N   0  0  0  0  0  2  0  0  0  0  0  0
  189.1360  177.3590  138.9510 N   0  0  0  0  0  2  0  0  0  0  0  0
  188.1810  176.9250  137.9720 C   0  0  0  0  0  0  0  0  0  0  0  0
  186.1460  177.4560  136.5820 C   0  0  0  0  0  2  0  0  0  0  0  0
  182.5540  174.8690  137.1870 C   0  0  0  0  0  0  0  0  0  0  0  0
  183.9280  174.5430  137.7000 C   0  0  2  0  0  3  0  0  0  0  0  0
  182.0050  176.0670  137.3980 C   0  0  0  0  0  3  0  0  0  0  0  0
  183.9950  177.5190  137.9800 C   0  0  0  0  0  0  0  0  0  0  0  0
  184.9560  175.4120  137.0590 C   0  0  0  0  0  3  0  0  0  0  0  0
  182.6820  177.2140  138.0320 C   0  0  0  0  0  3  0  0  0  0  0  0
  181.8060  173.9070  136.5150 O   0  0  0  0  0  1  0  0  0  0  0  0
  184.9850  176.7410  137.1870 C   0  0  0  0  0  0  0  0  0  0  0  0
  184.2880  173.0850  137.4810 C   0  0  0  0  0  1  0  0  0  0  0  0
  183.6220  179.7090  139.0990 C   0  0  0  0  0  1  0  0  0  0  0  0
  184.4670  178.6580  138.6470 O   0  0  0  0  0  0  0  0  0  0  0  0
  191.4370  176.6710  138.3100 C   0  0  0  0  0  2  0  0  0  0  0  0
  191.7980  175.2740  137.8340 C   0  0  0  0  0  2  0  0  0  0  0  0
  193.1470  175.0410  138.0260 F   0  0  0  0  0  0  0  0  0  0  0  0
  2  8  1  0  0  0  0
  4 13  1  6  0  0  0
  4  6  1  0  0  0  0
  5  9  1  0  0  0  0
  6  5  1  0  0  0  0
  7  3  1  0  0  0  0
  7  2  2  0  0  0  0
  8  5  2  0  0  0  0
  8  1  1  0  0  0  0
 10  3  1  0  0  0  0
 10  4  1  0  0  0  0
 12 15  2  0  0  0  0
 13 17  1  0  0  0  0
 14 16  1  0  0  0  0
 14 12  1  0  0  0  0
 15 17  1  0  0  0  0
 16 13  2  0  0  0  0
 17 11  1  6  0  0  0
 19 18  1  6  0  0  0
 19 12  1  0  0  0  0
 19 20  1  0  0  0  0
 21 23  1  0  0  0  0
 22 23  1  0  0  0  0
 23 20  1  0  0  0  0
 23 24  1  0  0  0  0
 25  7  1  0  0  0  0
 26 25  1  0  0  0  0
 27 44  1  6  0  0  0
 27 26  1  0  0  0  0
 28 31  2  0  0  0  0
 29 31  1  0  0  0  0
 30 27  1  0  0  0  0
 31 30  1  0  0  0  0
 32 40  1  0  0  0  0
 32 29  1  0  0  0  0
 33 35  2  0  0  0  0
 33 34  1  0  0  0  0
 34 41  1  6  0  0  0
 35 38  1  0  0  0  0
 36 38  2  0  0  0  0
 36 43  1  0  0  0  0
 37 40  2  0  0  0  0
 37 34  1  0  0  0  0
 39 33  1  0  0  0  0
 40 36  1  0  0  0  0
 43 42  1  0  0  0  0
 45 46  1  0  0  0  0
 45 44  1  0  0  0  0
M  END
>  <MODEL>
4

>  <REMARK>
 VINA RESULT:      -8.1      3.346      7.959
  Name = 
  13 active torsions:
  status: ('A' for Active; 'I' for Inactive)
    1  A    between atoms: C_2  and  C_5
    2  A    between atoms: C_2  and  C_8
    3  A    between atoms: C_5  and  N_31
    4  A    between atoms: C_5  and  C_37
    5  A    between atoms: C_6  and  C_17
    6  A    between atoms: O_11  and  C_28
    7  A    between atoms: C_16  and  C_45
    8  A    between atoms: C_18  and  O_43
    9  A    between atoms: O_21  and  C_36
   10  A    between atoms: O_21  and  C_37
   11  A    between atoms: C_25  and  N_27
   12  A    between atoms: C_25  and  C_40
   13  A    between atoms: O_43  and  C_45
                            x       y       z     vdW  Elec       q    Type
                         _______ _______ _______ _____ _____    ______ ____

>  <TORSDO>
F 13

$$$$
=
 OpenBabel10222417193D

 46 48  0  0  1  0  0  0  0  0999 V2000
  180.8020  180.1330  141.4160 O   0  0  0  0  0  1  0  0  0  0  0  0
  182.3240  178.3360  140.7360 C   0  0  0  0  0  3  0  0  0  0  0  0
  184.6860  178.9740  141.1210 C   0  0  0  0  0  2  0  0  0  0  0  0
  184.5950  178.7000  143.4600 C   0  0  2  0  0  3  0  0  0  0  0  0
  182.1940  179.1960  143.0660 C   0  0  0  0  0  0  0  0  0  0  0  0
  183.1660  178.1830  143.5840 C   0  0  0  0  0  2  0  0  0  0  0  0
  183.6150  178.1810  140.4260 C   0  0  0  0  0  0  0  0  0  0  0  0
  181.7940  179.2330  141.7850 C   0  0  0  0  0  0  0  0  0  0  0  0
  181.6800  180.1210  143.9680 O   0  0  0  0  0  1  0  0  0  0  0  0
  185.2150  178.2040  142.2360 N   0  0  0  0  0  2  0  0  0  0  0  0
  184.1840  178.3370  146.6840 O   0  0  0  0  0  1  0  0  0  0  0  0
  187.3580  178.0510  146.6970 C   0  0  0  0  0  0  0  0  0  0  0  0
  185.4100  178.2910  144.6500 C   0  0  0  0  0  0  0  0  0  0  0  0
  187.1260  176.8890  145.7660 C   0  0  0  0  0  2  0  0  0  0  0  0
  186.4480  179.0380  146.7870 C   0  0  0  0  0  3  0  0  0  0  0  0
  186.3300  177.3120  144.5590 C   0  0  0  0  0  3  0  0  0  0  0  0
  185.1820  178.9970  145.9670 C   0  0  2  0  0  3  0  0  0  0  0  0
  188.3060  178.6070  148.7890 F   0  0  0  0  0  0  0  0  0  0  0  0
  188.5900  178.0690  147.5460 C   0  0  1  0  0  3  0  0  0  0  0  0
  189.0960  176.7670  147.6960 O   0  0  0  0  0  0  0  0  0  0  0  0
  191.1810  177.6150  148.1800 F   0  0  0  0  0  0  0  0  0  0  0  0
  190.5680  177.2670  146.0480 F   0  0  0  0  0  0  0  0  0  0  0  0
  190.4580  176.7820  147.3370 C   0  0  0  0  0  0  0  0  0  0  0  0
  190.9920  175.5020  147.3690 F   0  0  0  0  0  0  0  0  0  0  0  0
  183.9500  177.2560  139.4320 O   0  0  0  0  0  0  0  0  0  0  0  0
  183.1880  177.0970  138.2390 C   0  0  0  0  0  2  0  0  0  0  0  0
  184.0490  177.2580  136.9870 C   0  0  1  0  0  3  0  0  0  0  0  0
  186.2850  179.0140  137.7220 O   0  0  0  0  0  0  0  0  0  0  0  0
  187.8340  177.2700  137.6800 N   0  0  0  0  0  2  0  0  0  0  0  0
  185.4420  176.8800  137.2340 N   0  0  0  0  0  2  0  0  0  0  0  0
  186.5100  177.7840  137.5490 C   0  0  0  0  0  0  0  0  0  0  0  0
  188.9780  178.1350  137.9240 C   0  0  0  0  0  2  0  0  0  0  0  0
  191.3900  177.4710  141.6260 C   0  0  0  0  0  0  0  0  0  0  0  0
  190.0660  176.8170  141.3490 C   0  0  2  0  0  3  0  0  0  0  0  0
  192.3670  177.4620  140.7180 C   0  0  0  0  0  3  0  0  0  0  0  0
  191.1490  176.9260  138.5650 C   0  0  0  0  0  0  0  0  0  0  0  0
  189.3680  177.4860  140.2150 C   0  0  0  0  0  3  0  0  0  0  0  0
  192.2490  176.9340  139.3450 C   0  0  0  0  0  3  0  0  0  0  0  0
  191.6380  178.0660  142.8600 O   0  0  0  0  0  1  0  0  0  0  0  0
  189.8530  177.5330  138.9720 C   0  0  0  0  0  0  0  0  0  0  0  0
  189.1640  176.8150  142.5700 C   0  0  0  0  0  1  0  0  0  0  0  0
  191.0940  174.9900  137.0030 C   0  0  0  0  0  1  0  0  0  0  0  0
  191.2200  176.3810  137.2750 O   0  0  0  0  0  0  0  0  0  0  0  0
  183.4600  176.5510  135.7690 C   0  0  0  0  0  2  0  0  0  0  0  0
  182.7670  175.2600  136.1710 C   0  0  0  0  0  2  0  0  0  0  0  0
  183.7020  174.2590  136.3610 F   0  0  0  0  0  0  0  0  0  0  0  0
  1  8  1  0  0  0  0
  2  8  1  0  0  0  0
  3 10  1  0  0  0  0
  4  6  1  0  0  0  0
  4 13  1  1  0  0  0
  5  6  1  0  0  0  0
  5  9  1  0  0  0  0
  7  2  2  0  0  0  0
  7  3  1  0  0  0  0
  8  5  2  0  0  0  0
 10  4  1  0  0  0  0
 12 15  2  0  0  0  0
 12 19  1  0  0  0  0
 13 17  1  0  0  0  0
 14 12  1  0  0  0  0
 16 13  2  0  0  0  0
 16 14  1  0  0  0  0
 17 11  1  1  0  0  0
 17 15  1  0  0  0  0
 19 20  1  0  0  0  0
 19 18  1  1  0  0  0
 22 23  1  0  0  0  0
 23 24  1  0  0  0  0
 23 20  1  0  0  0  0
 23 21  1  0  0  0  0
 25  7  1  0  0  0  0
 26 25  1  0  0  0  0
 27 44  1  6  0  0  0
 27 30  1  0  0  0  0
 27 26  1  0  0  0  0
 29 32  1  0  0  0  0
 30 31  1  0  0  0  0
 31 29  1  0  0  0  0
 31 28  2  0  0  0  0
 32 40  1  0  0  0  0
 33 39  1  0  0  0  0
 34 33  1  0  0  0  0
 34 41  1  1  0  0  0
 35 33  2  0  0  0  0
 36 40  1  0  0  0  0
 36 38  2  0  0  0  0
 37 34  1  0  0  0  0
 38 35  1  0  0  0  0
 40 37  2  0  0  0  0
 42 43  1  0  0  0  0
 43 36  1  0  0  0  0
 44 45  1  0  0  0  0
 45 46  1  0  0  0  0
M  END
>  <MODEL>
5

>  <REMARK>
 VINA RESULT:      -8.1      1.771      2.680
  Name = 
  13 active torsions:
  status: ('A' for Active; 'I' for Inactive)
    1  A    between atoms: C_2  and  C_5
    2  A    between atoms: C_2  and  C_8
    3  A    between atoms: C_5  and  N_31
    4  A    between atoms: C_5  and  C_37
    5  A    between atoms: C_6  and  C_17
    6  A    between atoms: O_11  and  C_28
    7  A    between atoms: C_16  and  C_45
    8  A    between atoms: C_18  and  O_43
    9  A    between atoms: O_21  and  C_36
   10  A    between atoms: O_21  and  C_37
   11  A    between atoms: C_25  and  N_27
   12  A    between atoms: C_25  and  C_40
   13  A    between atoms: O_43  and  C_45
                            x       y       z     vdW  Elec       q    Type
                         _______ _______ _______ _____ _____    ______ ____

>  <TORSDO>
F 13

$$$$
=
 OpenBabel10222417193D

 46 48  0  0  1  0  0  0  0  0999 V2000
  187.6430  177.9440  146.5790 O   0  0  0  0  0  1  0  0  0  0  0  0
  186.1060  177.5160  144.7180 C   0  0  0  0  0  3  0  0  0  0  0  0
  186.5280  179.0700  142.8370 C   0  0  0  0  0  2  0  0  0  0  0  0
  188.4990  177.9970  142.1190 C   0  0  2  0  0  3  0  0  0  0  0  0
  188.5770  177.3250  144.5090 C   0  0  0  0  0  0  0  0  0  0  0  0
  188.5040  176.8280  143.1000 C   0  0  0  0  0  2  0  0  0  0  0  0
  185.6490  178.1470  143.6320 C   0  0  0  0  0  0  0  0  0  0  0  0
  187.4860  177.5990  145.2420 C   0  0  0  0  0  0  0  0  0  0  0  0
  189.8360  177.4890  145.0740 O   0  0  0  0  0  1  0  0  0  0  0  0
  187.1330  178.3380  141.7350 N   0  0  0  0  0  2  0  0  0  0  0  0
  188.8250  179.0730  139.0480 O   0  0  0  0  0  1  0  0  0  0  0  0
  190.5420  176.4140  138.6770 C   0  0  0  0  0  0  0  0  0  0  0  0
  189.3080  177.6670  140.9010 C   0  0  0  0  0  0  0  0  0  0  0  0
  191.4080  176.9770  139.7740 C   0  0  0  0  0  2  0  0  0  0  0  0
  189.2550  176.7890  138.5710 C   0  0  0  0  0  3  0  0  0  0  0  0
  190.5930  177.2790  141.0050 C   0  0  0  0  0  3  0  0  0  0  0  0
  188.6580  177.7790  139.5420 C   0  0  2  0  0  3  0  0  0  0  0  0
  192.5270  175.5000  137.7750 F   0  0  0  0  0  0  0  0  0  0  0  0
  191.1460  175.4690  137.6860 C   0  0  1  0  0  3  0  0  0  0  0  0
  190.6840  174.1620  137.9170 O   0  0  0  0  0  0  0  0  0  0  0  0
  189.7530  174.6740  135.8750 F   0  0  0  0  0  0  0  0  0  0  0  0
  189.1230  172.8190  136.9730 F   0  0  0  0  0  0  0  0  0  0  0  0
  190.1940  173.6490  136.7000 C   0  0  0  0  0  0  0  0  0  0  0  0
  191.1680  172.9060  136.0490 F   0  0  0  0  0  0  0  0  0  0  0  0
  184.3220  177.9260  143.2480 O   0  0  0  0  0  0  0  0  0  0  0  0
  183.2450  178.7490  143.6860 C   0  0  0  0  0  2  0  0  0  0  0  0
  182.4000  179.2520  142.5180 C   0  0  1  0  0  3  0  0  0  0  0  0
  184.2450  179.6340  140.2650 O   0  0  0  0  0  0  0  0  0  0  0  0
  183.4170  177.7840  139.1090 N   0  0  0  0  0  2  0  0  0  0  0  0
  182.5540  178.4070  141.3320 N   0  0  0  0  0  2  0  0  0  0  0  0
  183.4420  178.6600  140.2350 C   0  0  0  0  0  0  0  0  0  0  0  0
  184.2340  178.0190  137.9290 C   0  0  0  0  0  2  0  0  0  0  0  0
  185.0520  173.6930  137.1670 C   0  0  0  0  0  0  0  0  0  0  0  0
  183.8000  174.4060  136.7400 C   0  0  2  0  0  3  0  0  0  0  0  0
  186.2580  174.1990  136.9020 C   0  0  0  0  0  3  0  0  0  0  0  0
  185.7670  176.6330  136.4080 C   0  0  0  0  0  0  0  0  0  0  0  0
  183.6800  175.7260  137.4230 C   0  0  0  0  0  3  0  0  0  0  0  0
  186.5130  175.5160  136.2860 C   0  0  0  0  0  3  0  0  0  0  0  0
  184.9780  172.4630  137.8130 O   0  0  0  0  0  1  0  0  0  0  0  0
  184.5590  176.7200  137.2720 C   0  0  0  0  0  0  0  0  0  0  0  0
  182.5550  173.5810  137.0080 C   0  0  0  0  0  1  0  0  0  0  0  0
  187.3850  178.4830  136.0200 C   0  0  0  0  0  1  0  0  0  0  0  0
  186.1640  177.8040  135.7480 O   0  0  0  0  0  0  0  0  0  0  0  0
  180.9370  179.4660  142.8950 C   0  0  0  0  0  2  0  0  0  0  0  0
  180.5240  178.5380  144.0250 C   0  0  0  0  0  2  0  0  0  0  0  0
  179.4840  179.0990  144.7440 F   0  0  0  0  0  0  0  0  0  0  0  0
  2  8  1  0  0  0  0
  3  7  1  0  0  0  0
  4 13  1  6  0  0  0
  4  6  1  0  0  0  0
  5  9  1  0  0  0  0
  5  8  2  0  0  0  0
  6  5  1  0  0  0  0
  7  2  2  0  0  0  0
  8  1  1  0  0  0  0
 10  4  1  0  0  0  0
 10  3  1  0  0  0  0
 12 14  1  0  0  0  0
 13 16  2  0  0  0  0
 14 16  1  0  0  0  0
 15 12  2  0  0  0  0
 15 17  1  0  0  0  0
 17 11  1  6  0  0  0
 17 13  1  0  0  0  0
 19 18  1  1  0  0  0
 19 20  1  0  0  0  0
 19 12  1  0  0  0  0
 21 23  1  0  0  0  0
 23 22  1  0  0  0  0
 23 20  1  0  0  0  0
 24 23  1  0  0  0  0
 25  7  1  0  0  0  0
 25 26  1  0  0  0  0
 27 44  1  1  0  0  0
 27 26  1  0  0  0  0
 29 31  1  0  0  0  0
 30 27  1  0  0  0  0
 31 28  2  0  0  0  0
 31 30  1  0  0  0  0
 32 29  1  0  0  0  0
 33 39  1  0  0  0  0
 34 41  1  1  0  0  0
 34 33  1  0  0  0  0
 34 37  1  0  0  0  0
 35 33  2  0  0  0  0
 36 40  1  0  0  0  0
 38 36  2  0  0  0  0
 38 35  1  0  0  0  0
 40 37  2  0  0  0  0
 40 32  1  0  0  0  0
 43 42  1  0  0  0  0
 43 36  1  0  0  0  0
 44 45  1  0  0  0  0
 45 46  1  0  0  0  0
M  END
>  <MODEL>
6

>  <REMARK>
 VINA RESULT:      -8.0      3.364      6.634
  Name = 
  13 active torsions:
  status: ('A' for Active; 'I' for Inactive)
    1  A    between atoms: C_2  and  C_5
    2  A    between atoms: C_2  and  C_8
    3  A    between atoms: C_5  and  N_31
    4  A    between atoms: C_5  and  C_37
    5  A    between atoms: C_6  and  C_17
    6  A    between atoms: O_11  and  C_28
    7  A    between atoms: C_16  and  C_45
    8  A    between atoms: C_18  and  O_43
    9  A    between atoms: O_21  and  C_36
   10  A    between atoms: O_21  and  C_37
   11  A    between atoms: C_25  and  N_27
   12  A    between atoms: C_25  and  C_40
   13  A    between atoms: O_43  and  C_45
                            x       y       z     vdW  Elec       q    Type
                         _______ _______ _______ _____ _____    ______ ____

>  <TORSDO>
F 13

$$$$
=
 OpenBabel10222417193D

 46 48  0  0  1  0  0  0  0  0999 V2000
  179.2830  177.8360  139.2120 O   0  0  0  0  0  1  0  0  0  0  0  0
  181.5540  177.7310  138.2970 C   0  0  0  0  0  3  0  0  0  0  0  0
  182.8920  179.6920  139.0040 C   0  0  0  0  0  2  0  0  0  0  0  0
  183.2050  178.9420  141.2160 C   0  0  2  0  0  3  0  0  0  0  0  0
  181.0740  177.7590  140.7370 C   0  0  0  0  0  0  0  0  0  0  0  0
  182.5130  177.5870  141.1080 C   0  0  0  0  0  2  0  0  0  0  0  0
  182.5810  178.5570  138.0710 C   0  0  0  0  0  0  0  0  0  0  0  0
  180.6490  177.7880  139.4640 C   0  0  0  0  0  0  0  0  0  0  0  0
  180.1480  177.8780  141.7680 O   0  0  0  0  0  1  0  0  0  0  0  0
  183.8930  179.2670  139.9710 N   0  0  0  0  0  2  0  0  0  0  0  0
  186.3810  179.5490  141.7050 O   0  0  0  0  0  1  0  0  0  0  0  0
  185.8140  178.2950  144.5790 C   0  0  0  0  0  0  0  0  0  0  0  0
  184.1780  178.9490  142.3580 C   0  0  0  0  0  0  0  0  0  0  0  0
  184.7990  179.4000  144.7170 C   0  0  0  0  0  2  0  0  0  0  0  0
  186.1810  177.8610  143.3600 C   0  0  0  0  0  3  0  0  0  0  0  0
  183.8080  179.3700  143.5820 C   0  0  0  0  0  3  0  0  0  0  0  0
  185.5910  178.4740  142.1130 C   0  0  2  0  0  3  0  0  0  0  0  0
  186.1450  176.3680  145.9070 F   0  0  0  0  0  0  0  0  0  0  0  0
  186.4340  177.7180  145.8130 C   0  0  1  0  0  3  0  0  0  0  0  0
  187.8260  177.9060  145.7900 O   0  0  0  0  0  0  0  0  0  0  0  0
  187.3000  177.5060  147.9960 F   0  0  0  0  0  0  0  0  0  0  0  0
  189.1730  178.6260  147.4640 F   0  0  0  0  0  0  0  0  0  0  0  0
  188.3300  177.6040  147.0710 C   0  0  0  0  0  0  0  0  0  0  0  0
  189.0570  176.4220  147.0490 F   0  0  0  0  0  0  0  0  0  0  0  0
  183.3680  178.3370  136.9350 O   0  0  0  0  0  0  0  0  0  0  0  0
  183.6250  177.0370  136.4130 C   0  0  0  0  0  2  0  0  0  0  0  0
  185.0710  176.8850  135.9460 C   0  0  1  0  0  3  0  0  0  0  0  0
  186.7290  178.9260  137.2560 O   0  0  0  0  0  0  0  0  0  0  0  0
  187.7200  177.3790  138.6940 N   0  0  0  0  0  2  0  0  0  0  0  0
  185.9890  176.7070  137.0720 N   0  0  0  0  0  2  0  0  0  0  0  0
  186.8120  177.7300  137.6510 C   0  0  0  0  0  0  0  0  0  0  0  0
  188.6380  178.3460  139.2760 C   0  0  0  0  0  2  0  0  0  0  0  0
  191.3860  177.1640  142.5950 C   0  0  0  0  0  0  0  0  0  0  0  0
  190.1360  176.4180  142.2240 C   0  0  2  0  0  3  0  0  0  0  0  0
  192.2860  177.5030  141.6690 C   0  0  0  0  0  3  0  0  0  0  0  0
  190.9830  177.3290  139.5060 C   0  0  0  0  0  0  0  0  0  0  0  0
  189.2760  177.2340  141.3190 C   0  0  0  0  0  3  0  0  0  0  0  0
  192.1300  177.3040  140.2150 C   0  0  0  0  0  3  0  0  0  0  0  0
  191.6530  177.4790  143.9230 O   0  0  0  0  0  1  0  0  0  0  0  0
  189.6570  177.6390  140.1060 C   0  0  0  0  0  0  0  0  0  0  0  0
  189.3360  176.0040  143.4460 C   0  0  0  0  0  1  0  0  0  0  0  0
  191.3910  175.8800  137.5250 C   0  0  0  0  0  1  0  0  0  0  0  0
  191.0230  177.1180  138.1210 O   0  0  0  0  0  0  0  0  0  0  0  0
  185.2380  175.8060  134.8810 C   0  0  0  0  0  2  0  0  0  0  0  0
  184.4750  174.5460  135.2560 C   0  0  0  0  0  2  0  0  0  0  0  0
  185.2910  173.4380  135.1180 F   0  0  0  0  0  0  0  0  0  0  0  0
  1  8  1  0  0  0  0
  2  8  1  0  0  0  0
  3 10  1  0  0  0  0
  4 13  1  1  0  0  0
  5  6  1  0  0  0  0
  5  9  1  0  0  0  0
  6  4  1  0  0  0  0
  7  2  2  0  0  0  0
  7  3  1  0  0  0  0
  8  5  2  0  0  0  0
 10  4  1  0  0  0  0
 12 14  1  0  0  0  0
 12 19  1  0  0  0  0
 13 16  2  0  0  0  0
 15 12  2  0  0  0  0
 16 14  1  0  0  0  0
 17 11  1  1  0  0  0
 17 13  1  0  0  0  0
 17 15  1  0  0  0  0
 19 18  1  6  0  0  0
 20 19  1  0  0  0  0
 20 23  1  0  0  0  0
 23 22  1  0  0  0  0
 23 21  1  0  0  0  0
 24 23  1  0  0  0  0
 25  7  1  0  0  0  0
 26 25  1  0  0  0  0
 27 44  1  6  0  0  0
 27 26  1  0  0  0  0
 27 30  1  0  0  0  0
 28 31  2  0  0  0  0
 29 32  1  0  0  0  0
 30 31  1  0  0  0  0
 31 29  1  0  0  0  0
 32 40  1  0  0  0  0
 33 39  1  0  0  0  0
 34 33  1  0  0  0  0
 34 41  1  1  0  0  0
 35 33  2  0  0  0  0
 36 40  1  0  0  0  0
 36 38  2  0  0  0  0
 37 34  1  0  0  0  0
 38 35  1  0  0  0  0
 40 37  2  0  0  0  0
 42 43  1  0  0  0  0
 43 36  1  0  0  0  0
 44 45  1  0  0  0  0
 46 45  1  0  0  0  0
M  END
>  <MODEL>
7

>  <REMARK>
 VINA RESULT:      -7.9      2.397      4.115
  Name = 
  13 active torsions:
  status: ('A' for Active; 'I' for Inactive)
    1  A    between atoms: C_2  and  C_5
    2  A    between atoms: C_2  and  C_8
    3  A    between atoms: C_5  and  N_31
    4  A    between atoms: C_5  and  C_37
    5  A    between atoms: C_6  and  C_17
    6  A    between atoms: O_11  and  C_28
    7  A    between atoms: C_16  and  C_45
    8  A    between atoms: C_18  and  O_43
    9  A    between atoms: O_21  and  C_36
   10  A    between atoms: O_21  and  C_37
   11  A    between atoms: C_25  and  N_27
   12  A    between atoms: C_25  and  C_40
   13  A    between atoms: O_43  and  C_45
                            x       y       z     vdW  Elec       q    Type
                         _______ _______ _______ _____ _____    ______ ____

>  <TORSDO>
F 13

$$$$
=
 OpenBabel10222417193D

 46 48  0  0  1  0  0  0  0  0999 V2000
  185.5980  179.1390  147.6520 O   0  0  0  0  0  1  0  0  0  0  0  0
  184.2790  178.7930  145.6150 C   0  0  0  0  0  3  0  0  0  0  0  0
  185.2830  179.9840  143.6890 C   0  0  0  0  0  2  0  0  0  0  0  0
  187.0570  178.4600  143.4060 C   0  0  2  0  0  3  0  0  0  0  0  0
  186.6560  178.0920  145.8290 C   0  0  0  0  0  0  0  0  0  0  0  0
  186.6750  177.4470  144.4790 C   0  0  0  0  0  2  0  0  0  0  0  0
  184.1250  179.3610  144.4150 C   0  0  0  0  0  0  0  0  0  0  0  0
  185.5580  178.6660  146.3460 C   0  0  0  0  0  0  0  0  0  0  0  0
  187.8300  178.0730  146.5730 O   0  0  0  0  0  1  0  0  0  0  0  0
  185.8640  179.0140  142.7750 N   0  0  0  0  0  2  0  0  0  0  0  0
  188.4820  175.5670  142.8610 O   0  0  0  0  0  1  0  0  0  0  0  0
  190.0310  177.1600  140.5770 C   0  0  0  0  0  0  0  0  0  0  0  0
  187.9390  177.8260  142.3710 C   0  0  0  0  0  0  0  0  0  0  0  0
  188.6570  177.4460  140.0270 C   0  0  0  0  0  2  0  0  0  0  0  0
  190.1930  176.8880  141.8840 C   0  0  0  0  0  3  0  0  0  0  0  0
  187.7860  178.1080  141.0630 C   0  0  0  0  0  3  0  0  0  0  0  0
  189.0080  176.8580  142.8190 C   0  0  2  0  0  3  0  0  0  0  0  0
  192.3270  177.6350  140.2780 F   0  0  0  0  0  0  0  0  0  0  0  0
  191.2000  177.1430  139.6430 C   0  0  1  0  0  3  0  0  0  0  0  0
  191.4420  175.8350  139.1920 O   0  0  0  0  0  0  0  0  0  0  0  0
  191.5180  174.8480  137.1130 F   0  0  0  0  0  0  0  0  0  0  0  0
  193.3430  175.8490  137.9580 F   0  0  0  0  0  0  0  0  0  0  0  0
  191.9640  175.9110  137.8850 C   0  0  0  0  0  0  0  0  0  0  0  0
  191.6120  177.1110  137.2820 F   0  0  0  0  0  0  0  0  0  0  0  0
  182.8480  179.3600  143.8430 O   0  0  0  0  0  0  0  0  0  0  0  0
  182.3740  178.3050  143.0120 C   0  0  0  0  0  2  0  0  0  0  0  0
  182.1200  178.7750  141.5810 C   0  0  1  0  0  3  0  0  0  0  0  0
  184.2610  179.8070  139.8570 O   0  0  0  0  0  0  0  0  0  0  0  0
  184.5830  177.7480  138.8090 N   0  0  0  0  0  2  0  0  0  0  0  0
  182.9290  178.0310  140.6140 N   0  0  0  0  0  2  0  0  0  0  0  0
  183.9370  178.5910  139.7610 C   0  0  0  0  0  0  0  0  0  0  0  0
  185.5600  178.2610  137.8610 C   0  0  0  0  0  2  0  0  0  0  0  0
  187.0200  174.2030  136.6920 C   0  0  0  0  0  0  0  0  0  0  0  0
  185.8890  174.9230  136.0150 C   0  0  2  0  0  3  0  0  0  0  0  0
  188.1900  174.8070  136.9120 C   0  0  0  0  0  3  0  0  0  0  0  0
  187.6190  177.2640  136.6980 C   0  0  0  0  0  0  0  0  0  0  0  0
  185.4290  176.0820  136.8330 C   0  0  0  0  0  3  0  0  0  0  0  0
  188.4800  176.2270  136.6350 C   0  0  0  0  0  3  0  0  0  0  0  0
  186.8830  172.8700  137.0680 O   0  0  0  0  0  1  0  0  0  0  0  0
  186.2040  177.1270  137.1350 C   0  0  0  0  0  0  0  0  0  0  0  0
  184.7150  174.0040  135.7330 C   0  0  0  0  0  1  0  0  0  0  0  0
  189.0560  179.2390  137.1710 C   0  0  0  0  0  1  0  0  0  0  0  0
  188.0730  178.5570  136.4020 O   0  0  0  0  0  0  0  0  0  0  0  0
  180.6380  178.7850  141.2170 C   0  0  0  0  0  2  0  0  0  0  0  0
  180.1610  180.1950  140.9140 C   0  0  0  0  0  2  0  0  0  0  0  0
  179.6800  180.7910  142.0650 F   0  0  0  0  0  0  0  0  0  0  0  0
  2  8  1  0  0  0  0
  3  7  1  0  0  0  0
  4 13  1  6  0  0  0
  4  6  1  0  0  0  0
  5  8  2  0  0  0  0
  5  9  1  0  0  0  0
  6  5  1  0  0  0  0
  7  2  2  0  0  0  0
  8  1  1  0  0  0  0
 10  4  1  0  0  0  0
 10  3  1  0  0  0  0
 12 15  2  0  0  0  0
 13 17  1  0  0  0  0
 14 12  1  0  0  0  0
 14 16  1  0  0  0  0
 15 17  1  0  0  0  0
 16 13  2  0  0  0  0
 17 11  1  6  0  0  0
 19 18  1  1  0  0  0
 19 12  1  0  0  0  0
 20 19  1  0  0  0  0
 21 23  1  0  0  0  0
 23 22  1  0  0  0  0
 23 20  1  0  0  0  0
 24 23  1  0  0  0  0
 25  7  1  0  0  0  0
 26 25  1  0  0  0  0
 27 44  1  6  0  0  0
 27 26  1  0  0  0  0
 29 31  1  0  0  0  0
 30 27  1  0  0  0  0
 31 28  2  0  0  0  0
 31 30  1  0  0  0  0
 32 29  1  0  0  0  0
 33 35  2  0  0  0  0
 33 39  1  0  0  0  0
 34 41  1  1  0  0  0
 34 33  1  0  0  0  0
 34 37  1  0  0  0  0
 36 40  1  0  0  0  0
 37 40  2  0  0  0  0
 38 36  2  0  0  0  0
 38 35  1  0  0  0  0
 40 32  1  0  0  0  0
 43 36  1  0  0  0  0
 43 42  1  0  0  0  0
 45 44  1  0  0  0  0
 45 46  1  0  0  0  0
M  END
>  <MODEL>
8

>  <REMARK>
 VINA RESULT:      -7.8      3.139      5.398
  Name = 
  13 active torsions:
  status: ('A' for Active; 'I' for Inactive)
    1  A    between atoms: C_2  and  C_5
    2  A    between atoms: C_2  and  C_8
    3  A    between atoms: C_5  and  N_31
    4  A    between atoms: C_5  and  C_37
    5  A    between atoms: C_6  and  C_17
    6  A    between atoms: O_11  and  C_28
    7  A    between atoms: C_16  and  C_45
    8  A    between atoms: C_18  and  O_43
    9  A    between atoms: O_21  and  C_36
   10  A    between atoms: O_21  and  C_37
   11  A    between atoms: C_25  and  N_27
   12  A    between atoms: C_25  and  C_40
   13  A    between atoms: O_43  and  C_45
                            x       y       z     vdW  Elec       q    Type
                         _______ _______ _______ _____ _____    ______ ____

>  <TORSDO>
F 13

$$$$
=
 OpenBabel10222417193D

 46 48  0  0  1  0  0  0  0  0999 V2000
  179.0160  178.1180  138.9400 O   0  0  0  0  0  1  0  0  0  0  0  0
  180.9650  176.6840  138.5500 C   0  0  0  0  0  3  0  0  0  0  0  0
  183.0480  178.0190  138.4360 C   0  0  0  0  0  2  0  0  0  0  0  0
  183.1680  178.4130  140.7560 C   0  0  2  0  0  3  0  0  0  0  0  0
  180.7100  178.1060  140.5740 C   0  0  0  0  0  0  0  0  0  0  0  0
  181.9650  177.5870  141.2000 C   0  0  0  0  0  2  0  0  0  0  0  0
  182.2260  176.8020  138.1200 C   0  0  0  0  0  0  0  0  0  0  0  0
  180.2490  177.6650  139.3930 C   0  0  0  0  0  0  0  0  0  0  0  0
  179.9930  179.0760  141.2660 O   0  0  0  0  0  1  0  0  0  0  0  0
  183.8410  177.7750  139.6300 N   0  0  0  0  0  2  0  0  0  0  0  0
  186.1440  179.6780  141.2440 O   0  0  0  0  0  1  0  0  0  0  0  0
  185.8940  178.2550  144.0840 C   0  0  0  0  0  0  0  0  0  0  0  0
  184.1300  178.6000  141.8910 C   0  0  0  0  0  0  0  0  0  0  0  0
  184.6670  179.1120  144.2590 C   0  0  0  0  0  2  0  0  0  0  0  0
  186.3320  177.9440  142.8510 C   0  0  0  0  0  3  0  0  0  0  0  0
  183.6920  178.8990  143.1290 C   0  0  0  0  0  3  0  0  0  0  0  0
  185.6090  178.4480  141.6260 C   0  0  2  0  0  3  0  0  0  0  0  0
  185.8190  177.0120  146.0930 F   0  0  0  0  0  0  0  0  0  0  0  0
  186.6380  177.7930  145.2980 C   0  0  1  0  0  3  0  0  0  0  0  0
  187.7750  177.0580  144.9200 O   0  0  0  0  0  0  0  0  0  0  0  0
  188.4930  178.2810  146.7340 F   0  0  0  0  0  0  0  0  0  0  0  0
  189.5200  178.4940  144.7480 F   0  0  0  0  0  0  0  0  0  0  0  0
  188.8890  177.5990  145.5920 C   0  0  0  0  0  0  0  0  0  0  0  0
  189.7950  176.6030  145.9280 F   0  0  0  0  0  0  0  0  0  0  0  0
  182.7670  175.7580  137.3630 O   0  0  0  0  0  0  0  0  0  0  0  0
  182.4170  174.3930  137.5700 C   0  0  0  0  0  2  0  0  0  0  0  0
  183.4250  173.4420  136.9280 C   0  0  1  0  0  3  0  0  0  0  0  0
  185.6440  174.8200  135.5860 O   0  0  0  0  0  0  0  0  0  0  0  0
  187.1380  174.3730  137.3220 N   0  0  0  0  0  2  0  0  0  0  0  0
  184.7800  173.6640  137.4350 N   0  0  0  0  0  2  0  0  0  0  0  0
  185.8450  174.3070  136.7210 C   0  0  0  0  0  0  0  0  0  0  0  0
  188.2830  174.9430  136.6270 C   0  0  0  0  0  2  0  0  0  0  0  0
  190.3750  177.2220  139.8510 C   0  0  0  0  0  0  0  0  0  0  0  0
  190.9420  176.9790  138.4820 C   0  0  2  0  0  3  0  0  0  0  0  0
  189.1360  177.6930  140.0120 C   0  0  0  0  0  3  0  0  0  0  0  0
  188.0480  177.2260  137.7740 C   0  0  0  0  0  0  0  0  0  0  0  0
  190.1710  175.9220  137.7650 C   0  0  0  0  0  3  0  0  0  0  0  0
  188.1650  177.9210  138.9250 C   0  0  0  0  0  3  0  0  0  0  0  0
  191.1490  176.9990  140.9860 O   0  0  0  0  0  1  0  0  0  0  0  0
  188.8790  176.0360  137.4500 C   0  0  0  0  0  0  0  0  0  0  0  0
  192.4080  176.5900  138.5320 C   0  0  0  0  0  1  0  0  0  0  0  0
  187.3400  177.9850  135.5130 C   0  0  0  0  0  1  0  0  0  0  0  0
  187.0580  177.5840  136.8480 O   0  0  0  0  0  0  0  0  0  0  0  0
  183.0000  171.9790  137.0200 C   0  0  0  0  0  2  0  0  0  0  0  0
  181.4880  171.8550  137.1120 C   0  0  0  0  0  2  0  0  0  0  0  0
  180.9820  171.3370  135.9350 F   0  0  0  0  0  0  0  0  0  0  0  0
  1  8  1  0  0  0  0
  2  8  1  0  0  0  0
  3 10  1  0  0  0  0
  4  6  1  0  0  0  0
  4 13  1  1  0  0  0
  5  6  1  0  0  0  0
  5  9  1  0  0  0  0
  7  3  1  0  0  0  0
  7  2  2  0  0  0  0
  8  5  2  0  0  0  0
 10  4  1  0  0  0  0
 12 14  1  0  0  0  0
 12 19  1  0  0  0  0
 13 16  2  0  0  0  0
 15 12  2  0  0  0  0
 16 14  1  0  0  0  0
 17 11  1  1  0  0  0
 17 13  1  0  0  0  0
 17 15  1  0  0  0  0
 19 18  1  1  0  0  0
 20 19  1  0  0  0  0
 20 23  1  0  0  0  0
 22 23  1  0  0  0  0
 23 24  1  0  0  0  0
 23 21  1  0  0  0  0
 25 26  1  0  0  0  0
 25  7  1  0  0  0  0
 27 44  1  1  0  0  0
 27 30  1  0  0  0  0
 27 26  1  0  0  0  0
 28 31  2  0  0  0  0
 31 29  1  0  0  0  0
 31 30  1  0  0  0  0
 32 29  1  0  0  0  0
 32 40  1  0  0  0  0
 33 35  2  0  0  0  0
 33 39  1  0  0  0  0
 34 41  1  1  0  0  0
 34 33  1  0  0  0  0
 36 38  2  0  0  0  0
 37 34  1  0  0  0  0
 38 35  1  0  0  0  0
 40 37  2  0  0  0  0
 40 36  1  0  0  0  0
 42 43  1  0  0  0  0
 43 36  1  0  0  0  0
 44 45  1  0  0  0  0
 46 45  1  0  0  0  0
M  END
>  <MODEL>
9

>  <REMARK>
 VINA RESULT:      -7.7      2.274      4.069
  Name = 
  13 active torsions:
  status: ('A' for Active; 'I' for Inactive)
    1  A    between atoms: C_2  and  C_5
    2  A    between atoms: C_2  and  C_8
    3  A    between atoms: C_5  and  N_31
    4  A    between atoms: C_5  and  C_37
    5  A    between atoms: C_6  and  C_17
    6  A    between atoms: O_11  and  C_28
    7  A    between atoms: C_16  and  C_45
    8  A    between atoms: C_18  and  O_43
    9  A    between atoms: O_21  and  C_36
   10  A    between atoms: O_21  and  C_37
   11  A    between atoms: C_25  and  N_27
   12  A    between atoms: C_25  and  C_40
   13  A    between atoms: O_43  and  C_45
                            x       y       z     vdW  Elec       q    Type
                         _______ _______ _______ _____ _____    ______ ____

>  <TORSDO>
F 13

$$$$
