=
 OpenBabel10222415183D

 43 47  0  0  1  0  0  0  0  0999 V2000
  190.1770  175.6560  138.3440 C   0  0  0  0  0  2  0  0  0  0  0  0
  191.2670  174.6620  134.7150 C   0  0  0  0  0  0  0  0  0  0  0  0
  189.9750  175.1660  134.8940 C   0  0  0  0  0  3  0  0  0  0  0  0
  190.3760  172.4110  134.6500 C   0  0  0  0  0  3  0  0  0  0  0  0
  187.5020  176.9650  136.4880 C   0  0  1  0  0  3  0  0  0  0  0  0
  187.3610  178.5400  140.1070 C   0  0  2  0  0  3  0  0  0  0  0  0
  186.6000  174.0230  135.5600 O   0  0  0  0  0  0  0  0  0  0  0  0
  186.3870  178.2300  143.5610 C   0  0  0  0  0  2  0  0  0  0  0  0
  185.9470  177.3720  138.4060 C   0  0  0  0  0  2  0  0  0  0  0  0
  192.3670  176.1270  137.2250 C   0  0  1  0  0  3  0  0  0  0  0  0
  183.8590  178.9130  139.8990 O   0  0  0  0  0  0  0  0  0  0  0  0
  189.0860  172.9150  134.8440 C   0  0  0  0  0  3  0  0  0  0  0  0
  193.1830  176.6100  138.2370 F   0  0  0  0  0  0  0  0  0  0  0  0
  185.6100  179.0340  141.4750 N   0  0  0  0  0  0  0  0  0  0  0  0
  185.1110  176.9460  136.1030 C   0  0  0  0  0  2  0  0  0  0  0  0
  188.5580  178.0400  136.3170 C   0  0  0  0  0  1  0  0  0  0  0  0
  193.1890  175.5360  136.0700 C   0  0  1  0  0  3  0  0  0  0  0  0
  185.7830  176.5800  134.7970 C   0  0  0  0  0  2  0  0  0  0  0  0
  191.4620  175.0540  137.8060 C   0  0  0  0  0  2  0  0  0  0  0  0
  192.4310  175.5940  134.7390 C   0  0  0  0  0  2  0  0  0  0  0  0
  186.1820  178.6690  139.1670 C   0  0  1  0  0  3  0  0  0  0  0  0
  188.8750  174.2970  134.9690 C   0  0  0  0  0  0  0  0  0  0  0  0
  187.5180  174.8190  135.2220 C   0  0  0  0  0  0  0  0  0  0  0  0
  186.1950  177.6040  136.9270 C   0  0  2  0  0  3  0  0  0  0  0  0
  190.3890  176.2370  139.7280 C   0  0  0  0  0  2  0  0  0  0  0  0
  191.4670  173.2830  134.5940 C   0  0  0  0  0  3  0  0  0  0  0  0
  188.7340  178.1070  139.6960 C   0  0  0  0  0  2  0  0  0  0  0  0
  186.9750  178.7890  141.3580 C   0  0  1  0  0  3  0  0  0  0  0  0
  185.0890  178.8750  140.1680 C   0  0  0  0  0  0  0  0  0  0  0  0
  189.0690  176.7410  140.2790 C   0  0  0  0  0  2  0  0  0  0  0  0
  187.2370  176.2980  135.1450 C   0  0  2  0  0  3  0  0  0  0  0  0
  187.6040  178.3720  142.6260 C   0  0  0  0  0  2  0  0  0  0  0  0
  185.1170  178.5000  142.7240 C   0  0  0  0  0  2  0  0  0  0  0  0
  194.5150  176.2120  135.9100 C   0  0  0  0  0  0  0  0  0  0  0  0
  195.6390  175.4370  135.4800 N   0  0  0  0  0  2  0  0  0  0  0  0
  194.6210  177.4560  136.1000 O   0  0  0  0  0  0  0  0  0  0  0  0
  197.0090  175.8610  135.5210 C   0  0  0  0  0  0  0  0  0  0  0  0
  197.4180  176.7160  134.5950 C   0  0  0  0  0  2  0  0  0  0  0  0
  197.9900  175.2450  136.4510 C   0  0  0  0  0  0  0  0  0  0  0  0
  199.1800  175.0760  136.0770 O   0  0  0  0  0  0  0  0  0  0  0  0
  197.6310  174.8500  137.8530 C   0  0  0  0  0  3  0  0  0  0  0  0
  198.5800  175.3380  138.7540 O   0  0  0  0  0  1  0  0  0  0  0  0
  197.5410  173.4610  137.9650 O   0  0  0  0  0  1  0  0  0  0  0  0
  1 25  1  0  0  0  0
  2 20  1  0  0  0  0
  2  3  1  0  0  0  0
  3 22  2  0  0  0  0
  4 12  2  0  0  0  0
  5 16  1  6  0  0  0
  5 24  1  0  0  0  0
  6 27  1  1  0  0  0
  6 28  1  0  0  0  0
 10 19  1  0  0  0  0
 10 13  1  1  0  0  0
 11 29  2  0  0  0  0
 12 22  1  0  0  0  0
 14 33  1  0  0  0  0
 17 34  1  6  0  0  0
 17 10  1  0  0  0  0
 18 15  1  0  0  0  0
 19  1  1  0  0  0  0
 20 17  1  0  0  0  0
 21  9  1  1  0  0  0
 21  6  1  0  0  0  0
 21 29  1  0  0  0  0
 22 23  1  0  0  0  0
 23  7  2  0  0  0  0
 24 15  1  6  0  0  0
 24  9  1  0  0  0  0
 25 30  1  0  0  0  0
 26  4  1  0  0  0  0
 26  2  2  0  0  0  0
 27 30  1  0  0  0  0
 28 14  1  0  0  0  0
 28 32  1  1  0  0  0
 29 14  1  0  0  0  0
 31 18  1  1  0  0  0
 31 23  1  0  0  0  0
 31  5  1  0  0  0  0
 32  8  1  0  0  0  0
 33  8  1  0  0  0  0
 34 36  2  0  0  0  0
 35 37  1  0  0  0  0
 35 34  1  0  0  0  0
 37 39  1  0  0  0  0
 38 37  2  0  0  0  0
 39 41  1  0  0  0  0
 40 39  2  0  0  0  0
 41 43  1  0  0  0  0
 41 42  1  0  0  0  0
M  END
>  <MODEL>
1

>  <REMARK>
 VINA RESULT:      -7.0      0.000      0.000
  Name = 
  4 active torsions:
  status: ('A' for Active; 'I' for Inactive)
    1  A    between atoms: C_5  and  C_20
    2  A    between atoms: C_6  and  C_24
    3  A    between atoms: N_13  and  C_37
    4  A    between atoms: C_24  and  C_37
                            x       y       z     vdW  Elec       q    Type
                         _______ _______ _______ _____ _____    ______ ____

>  <TORSDO>
F 4

$$$$
=
 OpenBabel10222415183D

 43 47  0  0  1  0  0  0  0  0999 V2000
  184.4350  176.0060  138.0440 C   0  0  0  0  0  2  0  0  0  0  0  0
  183.8340  179.4070  139.8920 C   0  0  0  0  0  0  0  0  0  0  0  0
  185.1480  179.0720  139.5520 C   0  0  0  0  0  3  0  0  0  0  0  0
  184.2420  178.6840  142.1670 C   0  0  0  0  0  3  0  0  0  0  0  0
  187.6100  177.4700  137.7450 C   0  0  1  0  0  3  0  0  0  0  0  0
  187.4190  174.4460  135.2130 C   0  0  2  0  0  3  0  0  0  0  0  0
  188.0420  177.3780  140.9290 O   0  0  0  0  0  0  0  0  0  0  0  0
  187.6730  170.9000  134.6310 C   0  0  0  0  0  2  0  0  0  0  0  0
  188.8450  175.4170  137.0230 C   0  0  0  0  0  2  0  0  0  0  0  0
  182.6250  177.6800  137.6090 C   0  0  1  0  0  3  0  0  0  0  0  0
  190.9020  173.9320  135.4330 O   0  0  0  0  0  0  0  0  0  0  0  0
  185.5520  178.3360  141.8220 C   0  0  0  0  0  3  0  0  0  0  0  0
  181.7570  177.0420  136.7360 F   0  0  0  0  0  0  0  0  0  0  0  0
  188.9600  172.8860  134.5990 N   0  0  0  0  0  0  0  0  0  0  0  0
  189.9760  177.2770  138.2250 C   0  0  0  0  0  2  0  0  0  0  0  0
  186.8440  178.1490  136.6250 C   0  0  0  0  0  1  0  0  0  0  0  0
  181.9200  178.8010  138.3870 C   0  0  1  0  0  3  0  0  0  0  0  0
  189.4890  178.5640  138.8570 C   0  0  0  0  0  2  0  0  0  0  0  0
  183.1720  176.6500  138.5840 C   0  0  0  0  0  2  0  0  0  0  0  0
  182.9000  179.8920  138.8340 C   0  0  0  0  0  2  0  0  0  0  0  0
  188.7480  175.0900  135.5400 C   0  0  1  0  0  3  0  0  0  0  0  0
  186.0150  178.5260  140.5120 C   0  0  0  0  0  0  0  0  0  0  0  0
  187.3820  178.1110  140.1420 C   0  0  0  0  0  0  0  0  0  0  0  0
  188.9200  176.9230  137.2030 C   0  0  2  0  0  3  0  0  0  0  0  0
  184.1020  174.9040  137.0570 C   0  0  0  0  0  2  0  0  0  0  0  0
  183.3810  179.2120  141.2000 C   0  0  0  0  0  3  0  0  0  0  0  0
  186.0830  175.0360  135.5420 C   0  0  0  0  0  2  0  0  0  0  0  0
  187.6180  173.2470  134.6650 C   0  0  1  0  0  3  0  0  0  0  0  0
  189.6630  173.9530  135.2100 C   0  0  0  0  0  0  0  0  0  0  0  0
  185.3770  174.2140  136.6120 C   0  0  0  0  0  2  0  0  0  0  0  0
  187.9690  178.4990  138.8080 C   0  0  2  0  0  3  0  0  0  0  0  0
  186.6990  172.0930  134.5940 C   0  0  0  0  0  2  0  0  0  0  0  0
  189.1010  171.4630  134.8080 C   0  0  0  0  0  2  0  0  0  0  0  0
  180.8110  179.4290  137.6020 C   0  0  0  0  0  0  0  0  0  0  0  0
  181.1410  180.3390  136.5460 N   0  0  0  0  0  2  0  0  0  0  0  0
  179.6110  179.1170  137.8340 O   0  0  0  0  0  0  0  0  0  0  0  0
  180.2190  181.2090  135.8750 C   0  0  0  0  0  0  0  0  0  0  0  0
  179.5820  180.7330  134.8150 C   0  0  0  0  0  2  0  0  0  0  0  0
  180.0960  182.6450  136.2360 C   0  0  0  0  0  0  0  0  0  0  0  0
  179.4370  182.9760  137.2550 O   0  0  0  0  0  0  0  0  0  0  0  0
  180.7730  183.7320  135.4520 C   0  0  0  0  0  3  0  0  0  0  0  0
  181.5330  184.5410  136.2980 O   0  0  0  0  0  1  0  0  0  0  0  0
  179.8300  184.5080  134.7740 O   0  0  0  0  0  1  0  0  0  0  0  0
  1 19  1  0  0  0  0
  2 26  1  0  0  0  0
  3  2  2  0  0  0  0
  3 22  1  0  0  0  0
  5 16  1  6  0  0  0
  5 31  1  0  0  0  0
  6 21  1  0  0  0  0
  6 27  1  1  0  0  0
  8 33  1  0  0  0  0
 10 13  1  6  0  0  0
 10 17  1  0  0  0  0
 10 19  1  0  0  0  0
 12  4  1  0  0  0  0
 14 28  1  0  0  0  0
 14 33  1  0  0  0  0
 14 29  1  0  0  0  0
 15 18  1  0  0  0  0
 17 34  1  6  0  0  0
 17 20  1  0  0  0  0
 20  2  1  0  0  0  0
 21  9  1  1  0  0  0
 22 12  2  0  0  0  0
 23 22  1  0  0  0  0
 23  7  2  0  0  0  0
 24  9  1  1  0  0  0
 24  5  1  0  0  0  0
 24 15  1  0  0  0  0
 25  1  1  0  0  0  0
 26  4  2  0  0  0  0
 27 30  1  0  0  0  0
 28 32  1  1  0  0  0
 28  6  1  0  0  0  0
 29 11  2  0  0  0  0
 29 21  1  0  0  0  0
 30 25  1  0  0  0  0
 31 18  1  1  0  0  0
 31 23  1  0  0  0  0
 32  8  1  0  0  0  0
 34 36  2  0  0  0  0
 35 34  1  0  0  0  0
 37 39  1  0  0  0  0
 37 35  1  0  0  0  0
 38 37  2  0  0  0  0
 39 40  2  0  0  0  0
 41 39  1  0  0  0  0
 41 42  1  0  0  0  0
 43 41  1  0  0  0  0
M  END
>  <MODEL>
2

>  <REMARK>
 VINA RESULT:      -6.7      4.522     11.422
  Name = 
  4 active torsions:
  status: ('A' for Active; 'I' for Inactive)
    1  A    between atoms: C_5  and  C_20
    2  A    between atoms: C_6  and  C_24
    3  A    between atoms: N_13  and  C_37
    4  A    between atoms: C_24  and  C_37
                            x       y       z     vdW  Elec       q    Type
                         _______ _______ _______ _____ _____    ______ ____

>  <TORSDO>
F 4

$$$$
=
 OpenBabel10222415183D

 43 47  0  0  1  0  0  0  0  0999 V2000
  184.6200  176.6960  136.5080 C   0  0  0  0  0  2  0  0  0  0  0  0
  180.9180  176.1610  137.6710 C   0  0  0  0  0  0  0  0  0  0  0  0
  181.6800  175.0270  137.3750 C   0  0  0  0  0  3  0  0  0  0  0  0
  179.8530  176.0060  135.5010 C   0  0  0  0  0  3  0  0  0  0  0  0
  184.5890  173.2180  136.9750 C   0  0  1  0  0  3  0  0  0  0  0  0
  188.3550  174.3810  136.7280 C   0  0  2  0  0  3  0  0  0  0  0  0
  182.4630  172.8360  134.5950 O   0  0  0  0  0  0  0  0  0  0  0  0
  191.1660  175.2900  134.6660 C   0  0  0  0  0  2  0  0  0  0  0  0
  186.7390  172.7150  135.7970 C   0  0  0  0  0  2  0  0  0  0  0  0
  183.4210  177.8660  138.3680 C   0  0  1  0  0  3  0  0  0  0  0  0
  189.3230  171.2520  135.4180 O   0  0  0  0  0  0  0  0  0  0  0  0
  180.6270  174.8810  135.2010 C   0  0  0  0  0  3  0  0  0  0  0  0
  184.2710  178.8950  138.7430 F   0  0  0  0  0  0  0  0  0  0  0  0
  190.1720  173.4290  135.7390 N   0  0  0  0  0  0  0  0  0  0  0  0
  184.9070  171.0420  135.9610 C   0  0  0  0  0  2  0  0  0  0  0  0
  184.7720  173.7230  138.3930 C   0  0  0  0  0  1  0  0  0  0  0  0
  181.9640  178.1690  138.7510 C   0  0  1  0  0  3  0  0  0  0  0  0
  183.4960  171.0850  136.5080 C   0  0  0  0  0  2  0  0  0  0  0  0
  183.5230  177.6810  136.8630 C   0  0  0  0  0  2  0  0  0  0  0  0
  181.1470  176.8880  138.9530 C   0  0  0  0  0  2  0  0  0  0  0  0
  187.9970  172.9140  136.6300 C   0  0  1  0  0  3  0  0  0  0  0  0
  181.5480  174.3830  136.1350 C   0  0  0  0  0  0  0  0  0  0  0  0
  182.3950  173.2240  135.7940 C   0  0  0  0  0  0  0  0  0  0  0  0
  185.6350  172.1570  136.6760 C   0  0  2  0  0  3  0  0  0  0  0  0
  185.9790  177.3690  136.5250 C   0  0  0  0  0  2  0  0  0  0  0  0
  180.0050  176.6510  136.7320 C   0  0  0  0  0  3  0  0  0  0  0  0
  187.4280  175.4540  137.2100 C   0  0  0  0  0  2  0  0  0  0  0  0
  189.5830  174.5820  136.2490 C   0  0  1  0  0  3  0  0  0  0  0  0
  189.1890  172.4180  135.8740 C   0  0  0  0  0  0  0  0  0  0  0  0
  187.0420  176.3870  136.0700 C   0  0  0  0  0  2  0  0  0  0  0  0
  183.2300  172.5440  136.8490 C   0  0  2  0  0  3  0  0  0  0  0  0
  190.1850  175.8250  135.7280 C   0  0  0  0  0  2  0  0  0  0  0  0
  190.9910  173.7560  134.5950 C   0  0  0  0  0  2  0  0  0  0  0  0
  181.8630  179.0150  139.9820 C   0  0  0  0  0  0  0  0  0  0  0  0
  182.2150  178.4410  141.2460 N   0  0  0  0  0  2  0  0  0  0  0  0
  181.5260  180.2280  139.8940 O   0  0  0  0  0  0  0  0  0  0  0  0
  181.9380  179.0180  142.5300 C   0  0  0  0  0  0  0  0  0  0  0  0
  182.9190  179.0380  143.4210 C   0  0  0  0  0  2  0  0  0  0  0  0
  180.5650  179.4250  142.9240 C   0  0  0  0  0  0  0  0  0  0  0  0
  180.3020  180.6440  143.0910 O   0  0  0  0  0  0  0  0  0  0  0  0
  179.4490  178.4350  143.0900 C   0  0  0  0  0  3  0  0  0  0  0  0
  179.6990  177.5970  144.1780 O   0  0  0  0  0  1  0  0  0  0  0  0
  179.2930  177.6720  141.9290 O   0  0  0  0  0  1  0  0  0  0  0  0
  1 25  1  0  0  0  0
  1 19  1  0  0  0  0
  2 20  1  0  0  0  0
  3  2  1  0  0  0  0
  4 26  1  0  0  0  0
  5 16  1  1  0  0  0
  6 27  1  6  0  0  0
  7 23  2  0  0  0  0
  8 32  1  0  0  0  0
 10 13  1  6  0  0  0
 10 17  1  0  0  0  0
 11 29  2  0  0  0  0
 12  4  2  0  0  0  0
 12 22  1  0  0  0  0
 14 29  1  0  0  0  0
 14 28  1  0  0  0  0
 15 18  1  0  0  0  0
 15 24  1  0  0  0  0
 17 20  1  0  0  0  0
 17 34  1  1  0  0  0
 19 10  1  0  0  0  0
 21  9  1  6  0  0  0
 21  6  1  0  0  0  0
 22  3  2  0  0  0  0
 23 22  1  0  0  0  0
 23 31  1  0  0  0  0
 24  9  1  6  0  0  0
 24  5  1  0  0  0  0
 26  2  2  0  0  0  0
 28 32  1  6  0  0  0
 28  6  1  0  0  0  0
 29 21  1  0  0  0  0
 30 25  1  0  0  0  0
 30 27  1  0  0  0  0
 31 18  1  6  0  0  0
 31  5  1  0  0  0  0
 33  8  1  0  0  0  0
 33 14  1  0  0  0  0
 34 35  1  0  0  0  0
 35 37  1  0  0  0  0
 36 34  2  0  0  0  0
 37 39  1  0  0  0  0
 37 38  2  0  0  0  0
 39 41  1  0  0  0  0
 39 40  2  0  0  0  0
 41 42  1  0  0  0  0
 43 41  1  0  0  0  0
M  END
>  <MODEL>
3

>  <REMARK>
 VINA RESULT:      -6.0      4.593     11.098
  Name = 
  4 active torsions:
  status: ('A' for Active; 'I' for Inactive)
    1  A    between atoms: C_5  and  C_20
    2  A    between atoms: C_6  and  C_24
    3  A    between atoms: N_13  and  C_37
    4  A    between atoms: C_24  and  C_37
                            x       y       z     vdW  Elec       q    Type
                         _______ _______ _______ _____ _____    ______ ____

>  <TORSDO>
F 4

$$$$
=
 OpenBabel10222415183D

 43 47  0  0  1  0  0  0  0  0999 V2000
  184.8620  176.9310  137.1000 C   0  0  0  0  0  2  0  0  0  0  0  0
  181.1760  176.2010  138.2080 C   0  0  0  0  0  0  0  0  0  0  0  0
  181.9340  175.1340  137.7140 C   0  0  0  0  0  3  0  0  0  0  0  0
  180.0810  176.4120  136.0570 C   0  0  0  0  0  3  0  0  0  0  0  0
  184.8360  173.4250  136.9750 C   0  0  1  0  0  3  0  0  0  0  0  0
  188.5980  174.6200  136.8750 C   0  0  2  0  0  3  0  0  0  0  0  0
  182.6760  173.4440  134.5940 O   0  0  0  0  0  0  0  0  0  0  0  0
  191.3800  175.8680  134.9570 C   0  0  0  0  0  2  0  0  0  0  0  0
  186.9680  173.1310  135.6990 C   0  0  0  0  0  2  0  0  0  0  0  0
  183.6890  177.7690  139.1470 C   0  0  1  0  0  3  0  0  0  0  0  0
  189.5470  171.7570  135.0440 O   0  0  0  0  0  0  0  0  0  0  0  0
  180.8500  175.3540  135.5610 C   0  0  0  0  0  3  0  0  0  0  0  0
  184.5450  178.7210  139.6780 F   0  0  0  0  0  0  0  0  0  0  0  0
  190.4000  173.8510  135.7150 N   0  0  0  0  0  0  0  0  0  0  0  0
  185.1380  171.4510  135.6040 C   0  0  0  0  0  2  0  0  0  0  0  0
  185.0390  173.6840  138.4560 C   0  0  0  0  0  1  0  0  0  0  0  0
  182.2380  178.0010  139.5960 C   0  0  1  0  0  3  0  0  0  0  0  0
  183.7350  171.3980  136.1700 C   0  0  0  0  0  2  0  0  0  0  0  0
  183.7700  177.8410  137.6310 C   0  0  0  0  0  2  0  0  0  0  0  0
  181.4230  176.7020  139.5900 C   0  0  0  0  0  2  0  0  0  0  0  0
  188.2380  173.1890  136.5360 C   0  0  1  0  0  3  0  0  0  0  0  0
  181.7830  174.7080  136.3850 C   0  0  0  0  0  0  0  0  0  0  0  0
  182.6250  173.6250  135.8420 C   0  0  0  0  0  0  0  0  0  0  0  0
  185.8770  172.4310  136.4880 C   0  0  2  0  0  3  0  0  0  0  0  0
  186.2210  177.5940  137.2110 C   0  0  0  0  0  2  0  0  0  0  0  0
  180.2500  176.8400  137.3770 C   0  0  0  0  0  3  0  0  0  0  0  0
  187.6790  175.5940  137.5430 C   0  0  0  0  0  2  0  0  0  0  0  0
  189.8190  174.9000  136.4200 C   0  0  1  0  0  3  0  0  0  0  0  0
  189.4200  172.8290  135.6920 C   0  0  0  0  0  0  0  0  0  0  0  0
  187.2770  176.7050  136.5830 C   0  0  0  0  0  2  0  0  0  0  0  0
  183.4740  172.7780  136.7570 C   0  0  2  0  0  3  0  0  0  0  0  0
  190.4150  176.2150  136.1080 C   0  0  0  0  0  2  0  0  0  0  0  0
  191.2030  174.3680  134.6310 C   0  0  0  0  0  2  0  0  0  0  0  0
  182.1550  178.6270  140.9530 C   0  0  0  0  0  0  0  0  0  0  0  0
  183.1640  178.3160  141.9210 N   0  0  0  0  0  2  0  0  0  0  0  0
  181.2390  179.4560  141.2160 O   0  0  0  0  0  0  0  0  0  0  0  0
  183.0980  178.6200  143.3210 C   0  0  0  0  0  0  0  0  0  0  0  0
  181.9010  178.6440  143.8910 C   0  0  0  0  0  2  0  0  0  0  0  0
  184.2940  179.0620  144.0820 C   0  0  0  0  0  0  0  0  0  0  0  0
  184.8300  180.1680  143.8110 O   0  0  0  0  0  0  0  0  0  0  0  0
  184.8740  178.2580  145.2080 C   0  0  0  0  0  3  0  0  0  0  0  0
  184.5890  178.8610  146.4350 O   0  0  0  0  0  1  0  0  0  0  0  0
  186.2570  178.1230  145.0550 O   0  0  0  0  0  1  0  0  0  0  0  0
  1 25  1  0  0  0  0
  1 19  1  0  0  0  0
  2 20  1  0  0  0  0
  3  2  1  0  0  0  0
  4 26  1  0  0  0  0
  5 16  1  1  0  0  0
  6 27  1  6  0  0  0
  7 23  2  0  0  0  0
  8 32  1  0  0  0  0
  9 24  1  0  0  0  0
 10 17  1  0  0  0  0
 10 13  1  1  0  0  0
 11 29  2  0  0  0  0
 12  4  2  0  0  0  0
 12 22  1  0  0  0  0
 14 28  1  0  0  0  0
 15 18  1  0  0  0  0
 17 34  1  1  0  0  0
 19 10  1  0  0  0  0
 20 17  1  0  0  0  0
 21  9  1  6  0  0  0
 21  6  1  0  0  0  0
 22  3  2  0  0  0  0
 23 22  1  0  0  0  0
 23 31  1  0  0  0  0
 24 15  1  6  0  0  0
 24  5  1  0  0  0  0
 26  2  2  0  0  0  0
 28 32  1  6  0  0  0
 28  6  1  0  0  0  0
 29 14  1  0  0  0  0
 29 21  1  0  0  0  0
 30 25  1  0  0  0  0
 30 27  1  0  0  0  0
 31 18  1  6  0  0  0
 31  5  1  0  0  0  0
 33  8  1  0  0  0  0
 33 14  1  0  0  0  0
 34 36  2  0  0  0  0
 34 35  1  0  0  0  0
 35 37  1  0  0  0  0
 37 38  2  0  0  0  0
 37 39  1  0  0  0  0
 39 41  1  0  0  0  0
 40 39  2  0  0  0  0
 41 42  1  0  0  0  0
 43 41  1  0  0  0  0
M  END
>  <MODEL>
4

>  <REMARK>
 VINA RESULT:      -5.7      4.318     10.263
  Name = 
  4 active torsions:
  status: ('A' for Active; 'I' for Inactive)
    1  A    between atoms: C_5  and  C_20
    2  A    between atoms: C_6  and  C_24
    3  A    between atoms: N_13  and  C_37
    4  A    between atoms: C_24  and  C_37
                            x       y       z     vdW  Elec       q    Type
                         _______ _______ _______ _____ _____    ______ ____

>  <TORSDO>
F 4

$$$$
=
 OpenBabel10222415183D

 43 47  0  0  1  0  0  0  0  0999 V2000
  192.6300  176.9910  139.5130 C   0  0  0  0  0  2  0  0  0  0  0  0
  188.7550  177.3400  139.0650 C   0  0  0  0  0  0  0  0  0  0  0  0
  189.4620  176.6190  138.0980 C   0  0  0  0  0  3  0  0  0  0  0  0
  188.7110  179.2630  137.5930 C   0  0  0  0  0  3  0  0  0  0  0  0
  192.0810  174.7350  136.8830 C   0  0  1  0  0  3  0  0  0  0  0  0
  195.6800  174.0410  138.3520 C   0  0  2  0  0  3  0  0  0  0  0  0
  191.1520  177.1120  134.9290 O   0  0  0  0  0  0  0  0  0  0  0  0
  199.1740  174.9130  138.4750 C   0  0  0  0  0  2  0  0  0  0  0  0
  194.4710  174.4460  136.2010 C   0  0  0  0  0  2  0  0  0  0  0  0
  190.8640  176.7700  141.2740 C   0  0  1  0  0  3  0  0  0  0  0  0
  196.8220  172.8680  135.2270 O   0  0  0  0  0  0  0  0  0  0  0  0
  189.4310  178.5450  136.6330 C   0  0  0  0  0  3  0  0  0  0  0  0
  191.5640  176.7250  142.4700 F   0  0  0  0  0  0  0  0  0  0  0  0
  197.6490  173.5000  137.3440 N   0  0  0  0  0  0  0  0  0  0  0  0
  192.5990  174.1370  134.5940 C   0  0  0  0  0  2  0  0  0  0  0  0
  191.6860  173.9080  138.0920 C   0  0  0  0  0  1  0  0  0  0  0  0
  189.4190  177.2470  141.4830 C   0  0  1  0  0  3  0  0  0  0  0  0
  191.1000  174.3320  134.6830 C   0  0  0  0  0  2  0  0  0  0  0  0
  191.5830  177.7220  140.3320 C   0  0  0  0  0  2  0  0  0  0  0  0
  188.4790  176.7190  140.3930 C   0  0  0  0  0  2  0  0  0  0  0  0
  195.2640  173.4430  137.0260 C   0  0  1  0  0  3  0  0  0  0  0  0
  189.8130  177.2180  136.8780 C   0  0  0  0  0  0  0  0  0  0  0  0
  190.6140  176.4820  135.8810 C   0  0  0  0  0  0  0  0  0  0  0  0
  193.0510  173.9410  136.0230 C   0  0  2  0  0  3  0  0  0  0  0  0
  193.9070  176.8050  140.3100 C   0  0  0  0  0  2  0  0  0  0  0  0
  188.3800  178.6640  138.8120 C   0  0  0  0  0  3  0  0  0  0  0  0
  194.7400  174.6590  139.3390 C   0  0  0  0  0  2  0  0  0  0  0  0
  197.0080  174.0060  138.4700 C   0  0  1  0  0  3  0  0  0  0  0  0
  196.6140  173.2360  136.4130 C   0  0  0  0  0  0  0  0  0  0  0  0
  194.9660  176.1620  139.4340 C   0  0  0  0  0  2  0  0  0  0  0  0
  190.8500  175.0000  136.0270 C   0  0  2  0  0  3  0  0  0  0  0  0
  197.8870  174.8320  139.3210 C   0  0  0  0  0  2  0  0  0  0  0  0
  198.9050  174.1840  137.1400 C   0  0  0  0  0  2  0  0  0  0  0  0
  188.8800  176.8610  142.8250 C   0  0  0  0  0  0  0  0  0  0  0  0
  188.6860  177.8810  143.8110 N   0  0  0  0  0  2  0  0  0  0  0  0
  188.5530  175.6650  143.0590 O   0  0  0  0  0  0  0  0  0  0  0  0
  188.4270  177.6560  145.2040 C   0  0  0  0  0  0  0  0  0  0  0  0
  187.1620  177.6480  145.6020 C   0  0  0  0  0  2  0  0  0  0  0  0
  189.5230  177.6040  146.2050 C   0  0  0  0  0  0  0  0  0  0  0  0
  189.4050  178.2300  147.2900 O   0  0  0  0  0  0  0  0  0  0  0  0
  190.7640  176.7860  145.9960 C   0  0  0  0  0  3  0  0  0  0  0  0
  191.2400  176.3040  147.2170 O   0  0  0  0  0  1  0  0  0  0  0  0
  191.7540  177.5470  145.3680 O   0  0  0  0  0  1  0  0  0  0  0  0
  1 25  1  0  0  0  0
  1 19  1  0  0  0  0
  2 20  1  0  0  0  0
  3  2  2  0  0  0  0
  4 26  2  0  0  0  0
  5 16  1  1  0  0  0
  6 28  1  0  0  0  0
  6 27  1  6  0  0  0
  7 23  2  0  0  0  0
  8 32  1  0  0  0  0
 10 17  1  0  0  0  0
 10 13  1  1  0  0  0
 11 29  2  0  0  0  0
 12 22  2  0  0  0  0
 12  4  1  0  0  0  0
 14 28  1  0  0  0  0
 15 18  1  0  0  0  0
 17 34  1  1  0  0  0
 19 10  1  0  0  0  0
 20 17  1  0  0  0  0
 21  9  1  6  0  0  0
 21  6  1  0  0  0  0
 22  3  1  0  0  0  0
 23 31  1  0  0  0  0
 23 22  1  0  0  0  0
 24 15  1  6  0  0  0
 24  9  1  0  0  0  0
 24  5  1  0  0  0  0
 26  2  1  0  0  0  0
 27 30  1  0  0  0  0
 28 32  1  6  0  0  0
 29 21  1  0  0  0  0
 29 14  1  0  0  0  0
 30 25  1  0  0  0  0
 31 18  1  6  0  0  0
 31  5  1  0  0  0  0
 33 14  1  0  0  0  0
 33  8  1  0  0  0  0
 34 36  2  0  0  0  0
 34 35  1  0  0  0  0
 35 37  1  0  0  0  0
 37 38  2  0  0  0  0
 37 39  1  0  0  0  0
 39 40  2  0  0  0  0
 41 39  1  0  0  0  0
 41 42  1  0  0  0  0
 43 41  1  0  0  0  0
M  END
>  <MODEL>
5

>  <REMARK>
 VINA RESULT:      -4.8      3.631      9.367
  Name = 
  4 active torsions:
  status: ('A' for Active; 'I' for Inactive)
    1  A    between atoms: C_5  and  C_20
    2  A    between atoms: C_6  and  C_24
    3  A    between atoms: N_13  and  C_37
    4  A    between atoms: C_24  and  C_37
                            x       y       z     vdW  Elec       q    Type
                         _______ _______ _______ _____ _____    ______ ____

>  <TORSDO>
F 4

$$$$
=
 OpenBabel10222415183D

 43 47  0  0  1  0  0  0  0  0999 V2000
  183.5610  176.5720  137.6080 C   0  0  0  0  0  2  0  0  0  0  0  0
  180.2150  178.3180  138.6580 C   0  0  0  0  0  0  0  0  0  0  0  0
  180.1300  177.1020  137.9730 C   0  0  0  0  0  3  0  0  0  0  0  0
  179.7410  179.5050  136.6010 C   0  0  0  0  0  3  0  0  0  0  0  0
  181.2550  174.0280  136.8870 C   0  0  1  0  0  3  0  0  0  0  0  0
  184.8650  172.4290  136.9080 C   0  0  2  0  0  3  0  0  0  0  0  0
  179.8800  175.8120  134.5940 O   0  0  0  0  0  0  0  0  0  0  0  0
  187.9530  171.7790  135.1690 C   0  0  0  0  0  2  0  0  0  0  0  0
  182.7830  172.5820  135.5320 C   0  0  0  0  0  2  0  0  0  0  0  0
  183.0340  177.6730  139.7950 C   0  0  1  0  0  3  0  0  0  0  0  0
  183.8760  169.9570  134.5940 O   0  0  0  0  0  0  0  0  0  0  0  0
  179.6710  178.2890  135.9140 C   0  0  0  0  0  3  0  0  0  0  0  0
  184.2480  177.7310  140.4610 F   0  0  0  0  0  0  0  0  0  0  0  0
  185.8240  170.8370  135.5930 N   0  0  0  0  0  0  0  0  0  0  0  0
  180.3190  172.5710  135.1930 C   0  0  0  0  0  2  0  0  0  0  0  0
  181.4340  173.8730  138.3850 C   0  0  0  0  0  1  0  0  0  0  0  0
  182.0560  178.7400  140.3090 C   0  0  1  0  0  3  0  0  0  0  0  0
  179.1790  173.3810  135.7730 C   0  0  0  0  0  2  0  0  0  0  0  0
  183.2880  177.8880  138.3120 C   0  0  0  0  0  2  0  0  0  0  0  0
  180.5950  178.3250  140.1000 C   0  0  0  0  0  2  0  0  0  0  0  0
  183.6910  171.6640  136.3380 C   0  0  1  0  0  3  0  0  0  0  0  0
  179.8660  177.0770  136.5940 C   0  0  0  0  0  0  0  0  0  0  0  0
  179.8400  175.8000  135.8550 C   0  0  0  0  0  0  0  0  0  0  0  0
  181.4300  172.6770  136.2130 C   0  0  2  0  0  3  0  0  0  0  0  0
  185.0030  176.1440  137.8010 C   0  0  0  0  0  2  0  0  0  0  0  0
  180.0210  179.5200  137.9700 C   0  0  0  0  0  3  0  0  0  0  0  0
  184.7510  173.6600  137.7530 C   0  0  0  0  0  2  0  0  0  0  0  0
  186.0080  171.8920  136.4800 C   0  0  1  0  0  3  0  0  0  0  0  0
  184.4210  170.7380  135.4180 C   0  0  0  0  0  0  0  0  0  0  0  0
  185.2710  174.8800  137.0060 C   0  0  0  0  0  2  0  0  0  0  0  0
  179.8320  174.4850  136.5920 C   0  0  2  0  0  3  0  0  0  0  0  0
  187.3460  172.5090  136.3830 C   0  0  0  0  0  2  0  0  0  0  0  0
  186.8680  170.8400  134.5950 C   0  0  0  0  0  2  0  0  0  0  0  0
  182.2730  179.0620  141.7540 C   0  0  0  0  0  0  0  0  0  0  0  0
  183.5370  178.7480  142.3510 N   0  0  0  0  0  0  0  0  0  0  0  0
  181.3740  179.6500  142.4170 O   0  0  0  0  0  0  0  0  0  0  0  0
  183.8200  178.7530  143.7570 C   0  0  0  0  0  0  0  0  0  0  0  0
  182.8640  179.1660  144.5770 C   0  0  0  0  0  1  0  0  0  0  0  0
  185.1820  178.4750  144.2800 C   0  0  0  0  0  0  0  0  0  0  0  0
  186.1840  178.6820  143.5490 O   0  0  0  0  0  0  0  0  0  0  0  0
  185.4220  177.9940  145.6820 C   0  0  0  0  0  3  0  0  0  0  0  0
  185.3410  179.0570  146.5820 O   0  0  0  0  0  1  0  0  0  0  0  0
  186.6740  177.3810  145.7830 O   0  0  0  0  0  1  0  0  0  0  0  0
  1 25  1  0  0  0  0
  1 19  1  0  0  0  0
  2 20  1  0  0  0  0
  3  2  1  0  0  0  0
  4 26  1  0  0  0  0
  5 16  1  1  0  0  0
  6 27  1  6  0  0  0
  7 23  2  0  0  0  0
  8 32  1  0  0  0  0
  9 24  1  0  0  0  0
 10 17  1  0  0  0  0
 10 13  1  1  0  0  0
 11 29  2  0  0  0  0
 12 22  1  0  0  0  0
 12  4  2  0  0  0  0
 14 28  1  0  0  0  0
 15 18  1  0  0  0  0
 17 34  1  1  0  0  0
 19 10  1  0  0  0  0
 20 17  1  0  0  0  0
 21  9  1  6  0  0  0
 21  6  1  0  0  0  0
 22  3  2  0  0  0  0
 23 31  1  0  0  0  0
 23 22  1  0  0  0  0
 24 15  1  6  0  0  0
 24  5  1  0  0  0  0
 26  2  2  0  0  0  0
 28 32  1  6  0  0  0
 28  6  1  0  0  0  0
 29 14  1  0  0  0  0
 29 21  1  0  0  0  0
 30 27  1  0  0  0  0
 30 25  1  0  0  0  0
 31 18  1  6  0  0  0
 31  5  1  0  0  0  0
 33  8  1  0  0  0  0
 33 14  1  0  0  0  0
 34 35  1  0  0  0  0
 34 36  2  0  0  0  0
 35 37  2  0  0  0  0
 37 39  1  0  0  0  0
 37 38  1  0  0  0  0
 39 41  1  0  0  0  0
 40 39  2  0  0  0  0
 41 43  1  0  0  0  0
 41 42  1  0  0  0  0
M  END
>  <MODEL>
6

>  <REMARK>
 VINA RESULT:      -4.5      6.673     10.950
  Name = 
  4 active torsions:
  status: ('A' for Active; 'I' for Inactive)
    1  A    between atoms: C_5  and  C_20
    2  A    between atoms: C_6  and  C_24
    3  A    between atoms: N_13  and  C_37
    4  A    between atoms: C_24  and  C_37
                            x       y       z     vdW  Elec       q    Type
                         _______ _______ _______ _____ _____    ______ ____

>  <TORSDO>
F 4

$$$$
=
 OpenBabel10222415183D

 43 47  0  0  1  0  0  0  0  0999 V2000
  192.8470  176.6830  138.6730 C   0  0  0  0  0  2  0  0  0  0  0  0
  189.0820  177.7150  138.9960 C   0  0  0  0  0  0  0  0  0  0  0  0
  189.4080  176.7090  138.0810 C   0  0  0  0  0  3  0  0  0  0  0  0
  188.9680  179.3190  137.1830 C   0  0  0  0  0  3  0  0  0  0  0  0
  191.3230  174.1550  136.7760 C   0  0  1  0  0  3  0  0  0  0  0  0
  195.0250  173.0260  137.5610 C   0  0  2  0  0  3  0  0  0  0  0  0
  190.3110  176.2880  134.5950 O   0  0  0  0  0  0  0  0  0  0  0  0
  198.5300  173.1900  136.7440 C   0  0  0  0  0  2  0  0  0  0  0  0
  193.3950  173.2790  135.6810 C   0  0  0  0  0  2  0  0  0  0  0  0
  191.5620  177.1330  140.7740 C   0  0  1  0  0  3  0  0  0  0  0  0
  195.1600  171.1170  134.5970 O   0  0  0  0  0  0  0  0  0  0  0  0
  189.3080  178.3130  136.2720 C   0  0  0  0  0  3  0  0  0  0  0  0
  192.5220  177.1600  141.7750 F   0  0  0  0  0  0  0  0  0  0  0  0
  196.5740  171.9340  136.2990 N   0  0  0  0  0  0  0  0  0  0  0  0
  191.1570  173.0730  134.6160 C   0  0  0  0  0  2  0  0  0  0  0  0
  191.1190  173.6500  138.1930 C   0  0  0  0  0  1  0  0  0  0  0  0
  190.3050  177.9180  141.1770 C   0  0  1  0  0  3  0  0  0  0  0  0
  189.7760  173.5760  134.9780 C   0  0  0  0  0  2  0  0  0  0  0  0
  192.1610  177.7410  139.5170 C   0  0  0  0  0  2  0  0  0  0  0  0
  189.0540  177.4050  140.4540 C   0  0  0  0  0  2  0  0  0  0  0  0
  194.2050  172.2990  136.5160 C   0  0  1  0  0  3  0  0  0  0  0  0
  189.5310  177.0010  136.7140 C   0  0  0  0  0  0  0  0  0  0  0  0
  189.9370  175.9560  135.7540 C   0  0  0  0  0  0  0  0  0  0  0  0
  191.9150  173.0450  135.9240 C   0  0  2  0  0  3  0  0  0  0  0  0
  194.2380  176.3890  139.2000 C   0  0  0  0  0  2  0  0  0  0  0  0
  188.8630  179.0210  138.5450 C   0  0  0  0  0  3  0  0  0  0  0  0
  194.4660  173.9830  138.5670 C   0  0  0  0  0  2  0  0  0  0  0  0
  196.3180  172.7480  137.3980 C   0  0  1  0  0  3  0  0  0  0  0  0
  195.3120  171.7230  135.6900 C   0  0  0  0  0  0  0  0  0  0  0  0
  194.9350  175.4030  138.2810 C   0  0  0  0  0  2  0  0  0  0  0  0
  189.9730  174.5060  136.1660 C   0  0  2  0  0  3  0  0  0  0  0  0
  197.4970  173.5180  137.8410 C   0  0  0  0  0  2  0  0  0  0  0  0
  197.8290  172.3070  135.6880 C   0  0  0  0  0  2  0  0  0  0  0  0
  190.0640  177.8900  142.6540 C   0  0  0  0  0  0  0  0  0  0  0  0
  189.1500  176.9250  143.1870 N   0  0  0  0  0  2  0  0  0  0  0  0
  190.7010  178.6690  143.4170 O   0  0  0  0  0  0  0  0  0  0  0  0
  188.6190  176.9270  144.5200 C   0  0  0  0  0  0  0  0  0  0  0  0
  187.3170  177.1320  144.6650 C   0  0  0  0  0  2  0  0  0  0  0  0
  189.5020  176.8760  145.7130 C   0  0  0  0  0  0  0  0  0  0  0  0
  190.6010  176.2670  145.6480 O   0  0  0  0  0  0  0  0  0  0  0  0
  189.1570  177.5680  147.0000 C   0  0  0  0  0  3  0  0  0  0  0  0
  190.2930  177.7010  147.8000 O   0  0  0  0  0  1  0  0  0  0  0  0
  188.1710  176.8590  147.6900 O   0  0  0  0  0  1  0  0  0  0  0  0
  1 25  1  0  0  0  0
  1 19  1  0  0  0  0
  2 20  1  0  0  0  0
  3  2  2  0  0  0  0
  4 26  2  0  0  0  0
  5 16  1  1  0  0  0
  6 27  1  6  0  0  0
  7 23  2  0  0  0  0
  8 32  1  0  0  0  0
  9 24  1  0  0  0  0
 10 17  1  0  0  0  0
 10 13  1  1  0  0  0
 11 29  2  0  0  0  0
 12 22  2  0  0  0  0
 12  4  1  0  0  0  0
 14 28  1  0  0  0  0
 15 18  1  0  0  0  0
 17 34  1  1  0  0  0
 19 10  1  0  0  0  0
 20 17  1  0  0  0  0
 21  9  1  6  0  0  0
 21  6  1  0  0  0  0
 22  3  1  0  0  0  0
 23 31  1  0  0  0  0
 23 22  1  0  0  0  0
 24 15  1  6  0  0  0
 24  5  1  0  0  0  0
 26  2  1  0  0  0  0
 28  6  1  0  0  0  0
 28 32  1  6  0  0  0
 29 14  1  0  0  0  0
 29 21  1  0  0  0  0
 30 27  1  0  0  0  0
 30 25  1  0  0  0  0
 31 18  1  6  0  0  0
 31  5  1  0  0  0  0
 33 14  1  0  0  0  0
 33  8  1  0  0  0  0
 34 35  1  0  0  0  0
 34 36  2  0  0  0  0
 35 37  1  0  0  0  0
 37 38  2  0  0  0  0
 37 39  1  0  0  0  0
 39 41  1  0  0  0  0
 40 39  2  0  0  0  0
 41 43  1  0  0  0  0
 41 42  1  0  0  0  0
M  END
>  <MODEL>
7

>  <REMARK>
 VINA RESULT:      -4.4      3.742      9.315
  Name = 
  4 active torsions:
  status: ('A' for Active; 'I' for Inactive)
    1  A    between atoms: C_5  and  C_20
    2  A    between atoms: C_6  and  C_24
    3  A    between atoms: N_13  and  C_37
    4  A    between atoms: C_24  and  C_37
                            x       y       z     vdW  Elec       q    Type
                         _______ _______ _______ _____ _____    ______ ____

>  <TORSDO>
F 4

$$$$
=
 OpenBabel10222415183D

 43 47  0  0  1  0  0  0  0  0999 V2000
  187.3140  177.4900  137.5680 C   0  0  0  0  0  2  0  0  0  0  0  0
  183.5460  177.3410  138.6250 C   0  0  0  0  0  0  0  0  0  0  0  0
  184.0800  176.2360  137.9550 C   0  0  0  0  0  3  0  0  0  0  0  0
  182.5380  178.1020  136.5590 C   0  0  0  0  0  3  0  0  0  0  0  0
  186.5910  174.1230  136.8950 C   0  0  1  0  0  3  0  0  0  0  0  0
  190.5170  174.5470  136.9050 C   0  0  2  0  0  3  0  0  0  0  0  0
  184.5040  174.9460  134.5940 O   0  0  0  0  0  0  0  0  0  0  0  0
  193.5120  175.5040  135.1470 C   0  0  0  0  0  2  0  0  0  0  0  0
  188.6350  173.6160  135.5450 C   0  0  0  0  0  2  0  0  0  0  0  0
  186.3110  178.2100  139.7450 C   0  0  1  0  0  3  0  0  0  0  0  0
  190.8940  171.8790  134.6280 O   0  0  0  0  0  0  0  0  0  0  0  0
  183.0850  177.0040  135.8870 C   0  0  0  0  0  3  0  0  0  0  0  0
  187.3340  178.8780  140.4010 F   0  0  0  0  0  0  0  0  0  0  0  0
  192.1420  173.6290  135.6000 N   0  0  0  0  0  0  0  0  0  0  0  0
  186.5070  172.3700  135.2270 C   0  0  0  0  0  2  0  0  0  0  0  0
  186.8260  174.0990  138.3940 C   0  0  0  0  0  1  0  0  0  0  0  0
  184.9300  178.6520  140.2560 C   0  0  1  0  0  3  0  0  0  0  0  0
  185.1160  172.5080  135.8070 C   0  0  0  0  0  2  0  0  0  0  0  0
  186.4200  178.5030  138.2580 C   0  0  0  0  0  2  0  0  0  0  0  0
  183.8730  177.5590  140.0640 C   0  0  0  0  0  2  0  0  0  0  0  0
  189.8820  173.2880  136.3540 C   0  0  1  0  0  3  0  0  0  0  0  0
  183.8620  176.0630  136.5790 C   0  0  0  0  0  0  0  0  0  0  0  0
  184.4770  174.9340  135.8550 C   0  0  0  0  0  0  0  0  0  0  0  0
  187.4170  173.0310  136.2370 C   0  0  2  0  0  3  0  0  0  0  0  0
  188.7770  177.8440  137.7530 C   0  0  0  0  0  2  0  0  0  0  0  0
  182.7750  178.2740  137.9260 C   0  0  0  0  0  3  0  0  0  0  0  0
  189.8030  175.5670  137.7360 C   0  0  0  0  0  2  0  0  0  0  0  0
  191.7740  174.6480  136.4730 C   0  0  1  0  0  3  0  0  0  0  0  0
  190.9770  172.8390  135.4380 C   0  0  0  0  0  0  0  0  0  0  0  0
  189.6410  176.8730  136.9710 C   0  0  0  0  0  2  0  0  0  0  0  0
  185.1300  173.8030  136.6080 C   0  0  2  0  0  3  0  0  0  0  0  0
  192.6230  175.8500  136.3580 C   0  0  0  0  0  2  0  0  0  0  0  0
  193.0430  174.1400  134.5940 C   0  0  0  0  0  2  0  0  0  0  0  0
  184.9600  179.0600  141.6950 C   0  0  0  0  0  0  0  0  0  0  0  0
  184.3190  178.2230  142.6650 N   0  0  0  0  0  2  0  0  0  0  0  0
  185.5860  180.0970  142.0500 O   0  0  0  0  0  0  0  0  0  0  0  0
  184.0360  178.5850  144.0230 C   0  0  0  0  0  0  0  0  0  0  0  0
  182.7760  178.8490  144.3410 C   0  0  0  0  0  2  0  0  0  0  0  0
  185.1190  178.8300  145.0090 C   0  0  0  0  0  0  0  0  0  0  0  0
  185.3350  179.9990  145.4200 O   0  0  0  0  0  0  0  0  0  0  0  0
  185.9510  177.7190  145.5820 C   0  0  0  0  0  3  0  0  0  0  0  0
  186.1750  177.9300  146.9440 O   0  0  0  0  0  1  0  0  0  0  0  0
  187.1730  177.6240  144.9100 O   0  0  0  0  0  1  0  0  0  0  0  0
  1 25  1  0  0  0  0
  1 19  1  0  0  0  0
  2 20  1  0  0  0  0
  3  2  1  0  0  0  0
  4 26  1  0  0  0  0
  5 16  1  1  0  0  0
  6 27  1  6  0  0  0
  7 23  2  0  0  0  0
  8 32  1  0  0  0  0
  9 24  1  0  0  0  0
 10 17  1  0  0  0  0
 10 13  1  1  0  0  0
 11 29  2  0  0  0  0
 12  4  2  0  0  0  0
 12 22  1  0  0  0  0
 14 28  1  0  0  0  0
 15 18  1  0  0  0  0
 17 34  1  1  0  0  0
 19 10  1  0  0  0  0
 20 17  1  0  0  0  0
 21  9  1  6  0  0  0
 21  6  1  0  0  0  0
 22  3  2  0  0  0  0
 23 22  1  0  0  0  0
 23 31  1  0  0  0  0
 24 15  1  6  0  0  0
 24  5  1  0  0  0  0
 26  2  2  0  0  0  0
 28 32  1  6  0  0  0
 28  6  1  0  0  0  0
 29 14  1  0  0  0  0
 29 21  1  0  0  0  0
 30 27  1  0  0  0  0
 30 25  1  0  0  0  0
 31 18  1  6  0  0  0
 31  5  1  0  0  0  0
 33  8  1  0  0  0  0
 33 14  1  0  0  0  0
 34 36  2  0  0  0  0
 34 35  1  0  0  0  0
 35 37  1  0  0  0  0
 37 38  2  0  0  0  0
 37 39  1  0  0  0  0
 39 40  2  0  0  0  0
 39 41  1  0  0  0  0
 41 42  1  0  0  0  0
 43 41  1  0  0  0  0
M  END
>  <MODEL>
8

>  <REMARK>
 VINA RESULT:      -4.3      3.439      9.574
  Name = 
  4 active torsions:
  status: ('A' for Active; 'I' for Inactive)
    1  A    between atoms: C_5  and  C_20
    2  A    between atoms: C_6  and  C_24
    3  A    between atoms: N_13  and  C_37
    4  A    between atoms: C_24  and  C_37
                            x       y       z     vdW  Elec       q    Type
                         _______ _______ _______ _____ _____    ______ ____

>  <TORSDO>
F 4

$$$$
