=
 OpenBabel10222416413D

 30 32  0  0  1  0  0  0  0  0999 V2000
  188.1640  178.2920  147.3590 O   0  0  0  0  0  1  0  0  0  0  0  0
  187.4910  177.3730  145.2320 C   0  0  0  0  0  0  0  0  0  0  0  0
  186.2280  178.0320  145.3100 N   0  0  0  0  0  0  0  0  0  0  0  0
  187.7530  176.6610  144.2260 O   0  0  0  0  0  0  0  0  0  0  0  0
  184.8560  178.3660  144.7590 C   0  0  1  0  0  0  0  0  0  0  0  0
  184.6070  179.7580  144.1510 C   0  0  0  0  0  2  0  0  0  0  0  0
  185.2590  178.7450  143.3230 C   0  0  2  0  0  3  0  0  0  0  0  0
  188.4480  177.5160  146.2860 N   0  0  0  0  0  0  0  0  0  0  0  0
  185.2520  178.8830  145.9850 C   0  0  0  0  0  2  0  0  0  0  0  0
  184.2150  178.5750  141.0330 C   0  0  0  0  0  0  0  0  0  0  0  0
  184.3010  178.1620  142.3970 N   0  0  0  0  0  2  0  0  0  0  0  0
  184.6240  179.6860  139.1650 N   0  0  0  0  0  2  0  0  0  0  0  0
  183.6550  178.7040  138.8080 C   0  0  0  0  0  0  0  0  0  0  0  0
  184.9330  179.5250  140.5250 N   0  0  0  0  0  0  0  0  0  0  0  0
  182.7920  178.9360  137.8770 N   0  0  0  0  0  2  0  0  0  0  0  0
  182.6640  176.8740  140.2170 N   0  0  0  0  0  0  0  0  0  0  0  0
  183.3570  177.9620  140.0340 C   0  0  0  0  0  0  0  0  0  0  0  0
  181.9080  176.1140  139.2620 C   0  0  0  0  0  0  0  0  0  0  0  0
  182.4690  175.3040  138.4730 O   0  0  0  0  0  0  0  0  0  0  0  0
  180.4410  176.2620  139.2180 C   0  0  0  0  0  0  0  0  0  0  0  0
  179.9250  177.4030  139.0880 O   0  0  0  0  0  0  0  0  0  0  0  0
  180.0510  174.1660  140.1990 F   0  0  0  0  0  0  0  0  0  0  0  0
  179.5530  175.0650  139.2740 C   0  0  0  0  0  2  0  0  0  0  0  0
  189.7010  176.7710  146.2600 C   0  0  0  0  0  2  0  0  0  0  0  0
  190.7790  177.5710  145.5500 C   0  0  0  0  0  2  0  0  0  0  0  0
  191.5620  176.6940  144.6980 N   0  0  0  0  0  2  0  0  0  0  0  0
  190.2350  175.6580  142.4410 O   0  0  0  0  0  1  0  0  0  0  0  0
  192.3090  177.2380  142.1870 O   0  0  0  0  0  0  0  0  0  0  0  0
  191.0840  176.9930  143.0390 P   0  0  0  0  0  0  0  0  0  0  0  0
  190.0900  178.3580  142.9900 O   0  0  0  0  0  1  0  0  0  0  0  0
  2  3  1  0  0  0  0
  2  8  1  0  0  0  0
  3  9  1  0  0  0  0
  4  2  2  0  0  0  0
  5  6  1  6  0  0  0
  5  3  1  0  0  0  0
  5  9  1  0  0  0  0
  7 11  1  6  0  0  0
  7  6  1  0  0  0  0
  7  5  1  0  0  0  0
  8  1  1  0  0  0  0
 10 11  1  0  0  0  0
 12 14  1  0  0  0  0
 13 12  1  0  0  0  0
 13 17  1  0  0  0  0
 14 10  2  0  0  0  0
 15 13  2  0  0  0  0
 17 16  2  0  0  0  0
 17 10  1  0  0  0  0
 18 16  1  0  0  0  0
 19 18  2  0  0  0  0
 20 18  1  0  0  0  0
 20 23  1  0  0  0  0
 21 20  2  0  0  0  0
 23 22  1  0  0  0  0
 24  8  1  0  0  0  0
 25 24  1  0  0  0  0
 26 25  1  0  0  0  0
 27 29  1  0  0  0  0
 28 29  2  0  0  0  0
 29 26  1  0  0  0  0
 30 29  1  0  0  0  0
M  END
>  <MODEL>
1

>  <REMARK>
 VINA RESULT:      -7.2      0.000      0.000
  Name = 
  8 active torsions:
  status: ('A' for Active; 'I' for Inactive)
    1  A    between atoms: C_2  and  C_13
    2  A    between atoms: C_2  and  N_29
    3  A    between atoms: C_3  and  C_12
    4  A    between atoms: C_3  and  N_19
    5  A    between atoms: N_4  and  C_25
    6  A    between atoms: N_8  and  C_13
    7  A    between atoms: N_8  and  P_24
    8  A    between atoms: C_12  and  C_27
                            x       y       z     vdW  Elec       q    Type
                         _______ _______ _______ _____ _____    ______ ____

>  <TORSDO>
F 8

$$$$
=
 OpenBabel10222416413D

 30 32  0  0  1  0  0  0  0  0999 V2000
  189.9670  177.4080  145.1130 O   0  0  0  0  0  1  0  0  0  0  0  0
  188.4210  178.0140  143.3620 C   0  0  0  0  0  0  0  0  0  0  0  0
  187.3050  177.7020  144.1940 N   0  0  0  0  0  0  0  0  0  0  0  0
  188.2200  178.4330  142.1910 O   0  0  0  0  0  0  0  0  0  0  0  0
  185.8150  177.5850  144.4460 C   0  0  1  0  0  0  0  0  0  0  0  0
  185.1160  178.6380  145.3240 C   0  0  0  0  0  2  0  0  0  0  0  0
  185.3730  178.9630  143.9220 C   0  0  2  0  0  3  0  0  0  0  0  0
  189.7570  177.8480  143.8500 N   0  0  0  0  0  0  0  0  0  0  0  0
  186.7140  177.2320  145.4440 C   0  0  0  0  0  2  0  0  0  0  0  0
  184.1360  179.0070  141.7250 C   0  0  0  0  0  0  0  0  0  0  0  0
  184.1600  178.8000  143.1380 N   0  0  0  0  0  2  0  0  0  0  0  0
  184.8220  179.5050  139.6830 N   0  0  0  0  0  2  0  0  0  0  0  0
  183.4700  179.0830  139.5270 C   0  0  0  0  0  0  0  0  0  0  0  0
  185.1600  179.4040  141.0410 N   0  0  0  0  0  0  0  0  0  0  0  0
  182.7270  179.5750  138.5920 N   0  0  0  0  0  2  0  0  0  0  0  0
  181.8840  178.1880  141.2580 N   0  0  0  0  0  0  0  0  0  0  0  0
  182.9870  178.7610  140.8700 C   0  0  0  0  0  0  0  0  0  0  0  0
  180.7580  177.7690  140.4700 C   0  0  0  0  0  0  0  0  0  0  0  0
  179.8370  178.5740  140.1580 O   0  0  0  0  0  0  0  0  0  0  0  0
  180.6890  176.3760  139.9910 C   0  0  0  0  0  0  0  0  0  0  0  0
  179.7930  175.6030  140.4220 O   0  0  0  0  0  0  0  0  0  0  0  0
  182.8650  175.6160  139.5470 F   0  0  0  0  0  0  0  0  0  0  0  0
  181.6430  175.8780  138.9570 C   0  0  0  0  0  2  0  0  0  0  0  0
  190.9020  178.0720  142.9770 C   0  0  0  0  0  2  0  0  0  0  0  0
  191.3860  176.7570  142.3890 C   0  0  0  0  0  2  0  0  0  0  0  0
  190.4200  176.2660  141.4220 N   0  0  0  0  0  2  0  0  0  0  0  0
  190.8270  175.5320  138.7340 O   0  0  0  0  0  0  0  0  0  0  0  0
  192.3490  177.3200  139.8970 O   0  0  0  0  0  1  0  0  0  0  0  0
  190.9260  176.8120  139.8360 P   0  0  0  0  0  0  0  0  0  0  0  0
  189.9090  178.0640  139.3340 O   0  0  0  0  0  1  0  0  0  0  0  0
  2  8  1  0  0  0  0
  2  3  1  0  0  0  0
  3  5  1  0  0  0  0
  3  9  1  0  0  0  0
  4  2  2  0  0  0  0
  5  6  1  1  0  0  0
  5  9  1  0  0  0  0
  7 11  1  6  0  0  0
  7  5  1  0  0  0  0
  7  6  1  0  0  0  0
  8  1  1  0  0  0  0
 10 11  1  0  0  0  0
 12 14  1  0  0  0  0
 13 12  1  0  0  0  0
 13 17  1  0  0  0  0
 14 10  2  0  0  0  0
 15 13  2  0  0  0  0
 17 16  2  0  0  0  0
 17 10  1  0  0  0  0
 18 16  1  0  0  0  0
 19 18  2  0  0  0  0
 20 21  2  0  0  0  0
 20 18  1  0  0  0  0
 23 22  1  0  0  0  0
 23 20  1  0  0  0  0
 24  8  1  0  0  0  0
 25 24  1  0  0  0  0
 26 25  1  0  0  0  0
 27 29  2  0  0  0  0
 29 28  1  0  0  0  0
 29 26  1  0  0  0  0
 30 29  1  0  0  0  0
M  END
>  <MODEL>
2

>  <REMARK>
 VINA RESULT:      -6.9      2.084      2.437
  Name = 
  8 active torsions:
  status: ('A' for Active; 'I' for Inactive)
    1  A    between atoms: C_2  and  C_13
    2  A    between atoms: C_2  and  N_29
    3  A    between atoms: C_3  and  C_12
    4  A    between atoms: C_3  and  N_19
    5  A    between atoms: N_4  and  C_25
    6  A    between atoms: N_8  and  C_13
    7  A    between atoms: N_8  and  P_24
    8  A    between atoms: C_12  and  C_27
                            x       y       z     vdW  Elec       q    Type
                         _______ _______ _______ _____ _____    ______ ____

>  <TORSDO>
F 8

$$$$
=
 OpenBabel10222416413D

 30 32  0  0  1  0  0  0  0  0999 V2000
  188.7770  178.2710  147.5600 O   0  0  0  0  0  1  0  0  0  0  0  0
  188.2250  177.4410  145.3620 C   0  0  0  0  0  0  0  0  0  0  0  0
  189.5960  177.4740  144.9700 N   0  0  0  0  0  0  0  0  0  0  0  0
  187.3570  177.0450  144.5390 O   0  0  0  0  0  0  0  0  0  0  0  0
  190.7040  177.2680  143.9560 C   0  0  1  0  0  0  0  0  0  0  0  0
  191.6370  176.0520  144.0980 C   0  0  0  0  0  2  0  0  0  0  0  0
  190.3290  175.8550  143.4750 C   0  0  2  0  0  3  0  0  0  0  0  0
  187.8380  177.8570  146.6760 N   0  0  0  0  0  0  0  0  0  0  0  0
  191.0080  177.7510  145.2210 C   0  0  0  0  0  2  0  0  0  0  0  0
  189.8260  176.7460  141.1690 C   0  0  0  0  0  0  0  0  0  0  0  0
  190.4650  175.8000  142.0280 N   0  0  0  0  0  2  0  0  0  0  0  0
  188.5820  178.4500  140.5110 N   0  0  0  0  0  2  0  0  0  0  0  0
  189.1850  177.9510  139.3210 C   0  0  0  0  0  0  0  0  0  0  0  0
  189.0420  177.6840  141.5930 N   0  0  0  0  0  0  0  0  0  0  0  0
  188.5730  178.0310  138.1870 N   0  0  0  0  0  2  0  0  0  0  0  0
  190.8730  176.1080  139.0570 N   0  0  0  0  0  0  0  0  0  0  0  0
  190.0050  176.8090  139.7290 C   0  0  0  0  0  0  0  0  0  0  0  0
  191.2270  176.2010  137.6680 C   0  0  0  0  0  0  0  0  0  0  0  0
  192.2880  176.7750  137.2960 O   0  0  0  0  0  0  0  0  0  0  0  0
  190.3460  175.5890  136.6560 C   0  0  0  0  0  0  0  0  0  0  0  0
  189.9950  176.2480  135.6410 O   0  0  0  0  0  0  0  0  0  0  0  0
  190.9630  173.3960  137.2230 F   0  0  0  0  0  0  0  0  0  0  0  0
  189.9020  174.1710  136.7900 C   0  0  0  0  0  2  0  0  0  0  0  0
  186.4310  177.9180  147.0540 C   0  0  0  0  0  2  0  0  0  0  0  0
  185.7320  179.0450  146.3130 C   0  0  0  0  0  2  0  0  0  0  0  0
  184.3260  178.7220  146.1420 N   0  0  0  0  0  2  0  0  0  0  0  0
  184.7160  177.9420  143.4640 O   0  0  0  0  0  0  0  0  0  0  0  0
  184.2920  180.4470  144.0970 O   0  0  0  0  0  1  0  0  0  0  0  0
  183.9060  179.0340  144.4700 P   0  0  0  0  0  0  0  0  0  0  0  0
  182.2380  178.8430  144.2770 O   0  0  0  0  0  1  0  0  0  0  0  0
  2  8  1  0  0  0  0
  3  9  1  0  0  0  0
  3  2  1  0  0  0  0
  4  2  2  0  0  0  0
  5  6  1  1  0  0  0
  5  3  1  0  0  0  0
  5  9  1  0  0  0  0
  7 11  1  6  0  0  0
  7  5  1  0  0  0  0
  7  6  1  0  0  0  0
  8 24  1  0  0  0  0
  8  1  1  0  0  0  0
 10 14  2  0  0  0  0
 10 11  1  0  0  0  0
 12 14  1  0  0  0  0
 13 17  1  0  0  0  0
 13 12  1  0  0  0  0
 15 13  2  0  0  0  0
 16 17  2  0  0  0  0
 17 10  1  0  0  0  0
 18 16  1  0  0  0  0
 19 18  2  0  0  0  0
 20 23  1  0  0  0  0
 20 18  1  0  0  0  0
 21 20  2  0  0  0  0
 23 22  1  0  0  0  0
 25 24  1  0  0  0  0
 26 25  1  0  0  0  0
 27 29  2  0  0  0  0
 28 29  1  0  0  0  0
 29 26  1  0  0  0  0
 30 29  1  0  0  0  0
M  END
>  <MODEL>
3

>  <REMARK>
 VINA RESULT:      -6.8      5.140      6.998
  Name = 
  8 active torsions:
  status: ('A' for Active; 'I' for Inactive)
    1  A    between atoms: C_2  and  C_13
    2  A    between atoms: C_2  and  N_29
    3  A    between atoms: C_3  and  C_12
    4  A    between atoms: C_3  and  N_19
    5  A    between atoms: N_4  and  C_25
    6  A    between atoms: N_8  and  C_13
    7  A    between atoms: N_8  and  P_24
    8  A    between atoms: C_12  and  C_27
                            x       y       z     vdW  Elec       q    Type
                         _______ _______ _______ _____ _____    ______ ____

>  <TORSDO>
F 8

$$$$
=
 OpenBabel10222416413D

 30 32  0  0  1  0  0  0  0  0999 V2000
  190.7790  176.5080  142.4470 O   0  0  0  0  0  1  0  0  0  0  0  0
  188.8570  177.5030  141.3810 C   0  0  0  0  0  0  0  0  0  0  0  0
  188.0230  177.1550  142.4850 N   0  0  0  0  0  0  0  0  0  0  0  0
  188.3560  178.1160  140.4000 O   0  0  0  0  0  0  0  0  0  0  0  0
  186.6820  177.1190  143.1920 C   0  0  1  0  0  0  0  0  0  0  0  0
  186.4280  178.0740  144.3720 C   0  0  0  0  0  2  0  0  0  0  0  0
  186.2780  178.5930  143.0140 C   0  0  2  0  0  3  0  0  0  0  0  0
  190.2450  177.1560  141.3850 N   0  0  0  0  0  0  0  0  0  0  0  0
  187.7940  176.5430  143.7920 C   0  0  0  0  0  2  0  0  0  0  0  0
  184.4380  179.0210  141.3420 C   0  0  0  0  0  0  0  0  0  0  0  0
  184.8700  178.6530  142.6520 N   0  0  0  0  0  2  0  0  0  0  0  0
  184.5190  179.6700  139.2300 N   0  0  0  0  0  2  0  0  0  0  0  0
  183.1400  179.4180  139.4870 C   0  0  0  0  0  0  0  0  0  0  0  0
  185.2450  179.3800  140.3950 N   0  0  0  0  0  0  0  0  0  0  0  0
  182.2210  180.0910  138.8800 N   0  0  0  0  0  2  0  0  0  0  0  0
  182.0610  178.5100  141.5670 N   0  0  0  0  0  0  0  0  0  0  0  0
  183.0580  178.9990  140.8870 C   0  0  0  0  0  0  0  0  0  0  0  0
  180.7000  178.3080  141.1540 C   0  0  0  0  0  0  0  0  0  0  0  0
  179.8740  179.2620  141.1230 O   0  0  0  0  0  0  0  0  0  0  0  0
  180.2640  176.9630  140.7340 C   0  0  0  0  0  0  0  0  0  0  0  0
  179.3360  176.3770  141.3510 O   0  0  0  0  0  0  0  0  0  0  0  0
  182.0870  175.7380  139.9050 F   0  0  0  0  0  0  0  0  0  0  0  0
  180.8760  176.3020  139.5450 C   0  0  0  0  0  2  0  0  0  0  0  0
  191.0820  177.4220  140.2210 C   0  0  0  0  0  2  0  0  0  0  0  0
  190.9170  176.3210  139.1870 C   0  0  0  0  0  2  0  0  0  0  0  0
  191.2120  176.8420  137.8640 N   0  0  0  0  0  2  0  0  0  0  0  0
  189.8200  176.8200  135.4160 O   0  0  0  0  0  0  0  0  0  0  0  0
  189.3140  178.6230  137.2470 O   0  0  0  0  0  1  0  0  0  0  0  0
  189.6870  177.1690  137.0650 P   0  0  0  0  0  0  0  0  0  0  0  0
  188.4870  176.1970  137.7500 O   0  0  0  0  0  1  0  0  0  0  0  0
  2  8  1  0  0  0  0
  2  3  1  0  0  0  0
  3  5  1  0  0  0  0
  3  9  1  0  0  0  0
  4  2  2  0  0  0  0
  5  9  1  6  0  0  0
  5  6  1  0  0  0  0
  7 11  1  1  0  0  0
  7  5  1  0  0  0  0
  7  6  1  0  0  0  0
  8  1  1  0  0  0  0
 10 11  1  0  0  0  0
 12 13  1  0  0  0  0
 12 14  1  0  0  0  0
 13 17  1  0  0  0  0
 14 10  2  0  0  0  0
 15 13  2  0  0  0  0
 17 10  1  0  0  0  0
 17 16  2  0  0  0  0
 18 16  1  0  0  0  0
 19 18  2  0  0  0  0
 20 18  1  0  0  0  0
 20 21  2  0  0  0  0
 23 22  1  0  0  0  0
 23 20  1  0  0  0  0
 24  8  1  0  0  0  0
 25 24  1  0  0  0  0
 26 25  1  0  0  0  0
 27 29  2  0  0  0  0
 29 28  1  0  0  0  0
 29 30  1  0  0  0  0
 29 26  1  0  0  0  0
M  END
>  <MODEL>
4

>  <REMARK>
 VINA RESULT:      -6.7      3.520      4.064
  Name = 
  8 active torsions:
  status: ('A' for Active; 'I' for Inactive)
    1  A    between atoms: C_2  and  C_13
    2  A    between atoms: C_2  and  N_29
    3  A    between atoms: C_3  and  C_12
    4  A    between atoms: C_3  and  N_19
    5  A    between atoms: N_4  and  C_25
    6  A    between atoms: N_8  and  C_13
    7  A    between atoms: N_8  and  P_24
    8  A    between atoms: C_12  and  C_27
                            x       y       z     vdW  Elec       q    Type
                         _______ _______ _______ _____ _____    ______ ____

>  <TORSDO>
F 8

$$$$
=
 OpenBabel10222416413D

 30 32  0  0  1  0  0  0  0  0999 V2000
  190.9830  176.6370  142.4680 O   0  0  0  0  0  1  0  0  0  0  0  0
  189.0200  177.5130  141.3710 C   0  0  0  0  0  0  0  0  0  0  0  0
  188.2000  177.1580  142.4830 N   0  0  0  0  0  0  0  0  0  0  0  0
  188.4960  178.0750  140.3730 O   0  0  0  0  0  0  0  0  0  0  0  0
  186.8600  177.0800  143.1870 C   0  0  1  0  0  0  0  0  0  0  0  0
  186.5580  178.0540  144.3400 C   0  0  0  0  0  2  0  0  0  0  0  0
  186.3880  178.5280  142.9680 C   0  0  2  0  0  3  0  0  0  0  0  0
  190.4230  177.2310  141.3870 N   0  0  0  0  0  0  0  0  0  0  0  0
  187.9950  176.5720  143.8050 C   0  0  0  0  0  2  0  0  0  0  0  0
  184.5260  178.9430  141.3170 C   0  0  0  0  0  0  0  0  0  0  0  0
  184.9810  178.5130  142.6010 N   0  0  0  0  0  2  0  0  0  0  0  0
  184.5640  179.7450  139.2570 N   0  0  0  0  0  2  0  0  0  0  0  0
  183.2060  179.3770  139.4870 C   0  0  0  0  0  0  0  0  0  0  0  0
  185.3070  179.4240  140.4040 N   0  0  0  0  0  0  0  0  0  0  0  0
  182.2430  180.0250  138.9230 N   0  0  0  0  0  2  0  0  0  0  0  0
  182.1910  178.2480  141.4890 N   0  0  0  0  0  0  0  0  0  0  0  0
  183.1520  178.8550  140.8530 C   0  0  0  0  0  0  0  0  0  0  0  0
  180.8490  177.9800  141.0540 C   0  0  0  0  0  0  0  0  0  0  0  0
  180.6160  177.2890  140.0240 O   0  0  0  0  0  0  0  0  0  0  0  0
  179.7160  178.5030  141.8410 C   0  0  0  0  0  0  0  0  0  0  0  0
  179.3040  177.8740  142.8520 O   0  0  0  0  0  0  0  0  0  0  0  0
  180.0540  180.7050  141.1030 F   0  0  0  0  0  0  0  0  0  0  0  0
  179.0780  179.8040  141.4860 C   0  0  0  0  0  2  0  0  0  0  0  0
  191.2510  177.5020  140.2190 C   0  0  0  0  0  2  0  0  0  0  0  0
  191.2070  176.3290  139.2540 C   0  0  0  0  0  2  0  0  0  0  0  0
  191.6630  176.7550  137.9420 N   0  0  0  0  0  2  0  0  0  0  0  0
  192.8960  174.3350  137.1970 O   0  0  0  0  0  1  0  0  0  0  0  0
  194.0670  176.0030  138.8420 O   0  0  0  0  0  1  0  0  0  0  0  0
  193.1840  175.9480  137.6160 P   0  0  0  0  0  0  0  0  0  0  0  0
  193.9590  176.7320  136.3360 O   0  0  0  0  0  0  0  0  0  0  0  0
  2  8  1  0  0  0  0
  2  3  1  0  0  0  0
  3  5  1  0  0  0  0
  3  9  1  0  0  0  0
  4  2  2  0  0  0  0
  5  9  1  6  0  0  0
  5  6  1  0  0  0  0
  7 11  1  1  0  0  0
  7  5  1  0  0  0  0
  7  6  1  0  0  0  0
  8  1  1  0  0  0  0
 10 11  1  0  0  0  0
 12 13  1  0  0  0  0
 12 14  1  0  0  0  0
 13 17  1  0  0  0  0
 14 10  2  0  0  0  0
 15 13  2  0  0  0  0
 17 10  1  0  0  0  0
 17 16  2  0  0  0  0
 18 16  1  0  0  0  0
 18 20  1  0  0  0  0
 19 18  2  0  0  0  0
 20 21  2  0  0  0  0
 22 23  1  0  0  0  0
 23 20  1  0  0  0  0
 24  8  1  0  0  0  0
 25 24  1  0  0  0  0
 26 25  1  0  0  0  0
 27 29  1  0  0  0  0
 29 26  1  0  0  0  0
 29 28  1  0  0  0  0
 30 29  2  0  0  0  0
M  END
>  <MODEL>
5

>  <REMARK>
 VINA RESULT:      -6.5      3.696      4.263
  Name = 
  8 active torsions:
  status: ('A' for Active; 'I' for Inactive)
    1  A    between atoms: C_2  and  C_13
    2  A    between atoms: C_2  and  N_29
    3  A    between atoms: C_3  and  C_12
    4  A    between atoms: C_3  and  N_19
    5  A    between atoms: N_4  and  C_25
    6  A    between atoms: N_8  and  C_13
    7  A    between atoms: N_8  and  P_24
    8  A    between atoms: C_12  and  C_27
                            x       y       z     vdW  Elec       q    Type
                         _______ _______ _______ _____ _____    ______ ____

>  <TORSDO>
F 8

$$$$
=
 OpenBabel10222416413D

 30 32  0  0  1  0  0  0  0  0999 V2000
  191.0910  177.6510  146.9320 O   0  0  0  0  0  1  0  0  0  0  0  0
  189.5630  177.1740  145.1270 C   0  0  0  0  0  0  0  0  0  0  0  0
  190.4800  177.6980  144.1680 N   0  0  0  0  0  0  0  0  0  0  0  0
  188.4550  176.7190  144.7350 O   0  0  0  0  0  0  0  0  0  0  0  0
  190.8770  178.0510  142.7480 C   0  0  1  0  0  0  0  0  0  0  0  0
  191.9020  177.1690  142.0120 C   0  0  0  0  0  2  0  0  0  0  0  0
  190.5100  176.7240  142.0600 C   0  0  2  0  0  3  0  0  0  0  0  0
  189.8950  177.1700  146.5190 N   0  0  0  0  0  0  0  0  0  0  0  0
  191.7450  178.3270  143.7960 C   0  0  0  0  0  2  0  0  0  0  0  0
  188.5640  177.6450  140.7450 C   0  0  0  0  0  0  0  0  0  0  0  0
  189.8460  177.0170  140.8000 N   0  0  0  0  0  2  0  0  0  0  0  0
  186.6660  178.5620  141.4120 N   0  0  0  0  0  2  0  0  0  0  0  0
  186.6520  178.6730  139.9910 C   0  0  0  0  0  0  0  0  0  0  0  0
  187.8710  177.9530  141.7940 N   0  0  0  0  0  0  0  0  0  0  0  0
  185.5400  178.6390  139.3370 N   0  0  0  0  0  2  0  0  0  0  0  0
  188.4360  178.0380  138.3390 N   0  0  0  0  0  0  0  0  0  0  0  0
  187.8950  178.0580  139.5230 C   0  0  0  0  0  0  0  0  0  0  0  0
  187.9200  178.5560  137.1020 C   0  0  0  0  0  0  0  0  0  0  0  0
  187.8870  179.7960  136.8700 O   0  0  0  0  0  0  0  0  0  0  0  0
  187.4400  177.6180  136.0700 C   0  0  0  0  0  0  0  0  0  0  0  0
  186.2380  177.2440  136.0630 O   0  0  0  0  0  0  0  0  0  0  0  0
  188.8240  175.8780  135.3140 F   0  0  0  0  0  0  0  0  0  0  0  0
  188.3550  177.1390  134.9930 C   0  0  0  0  0  2  0  0  0  0  0  0
  188.9260  176.7260  147.5140 C   0  0  0  0  0  2  0  0  0  0  0  0
  187.8730  177.7960  147.7430 C   0  0  0  0  0  2  0  0  0  0  0  0
  186.5830  177.3250  147.2700 N   0  0  0  0  0  2  0  0  0  0  0  0
  186.0520  180.0700  147.6130 O   0  0  0  0  0  1  0  0  0  0  0  0
  184.2100  178.4340  146.7240 O   0  0  0  0  0  1  0  0  0  0  0  0
  185.6950  178.7120  146.6700 P   0  0  0  0  0  0  0  0  0  0  0  0
  186.1480  179.0050  145.0690 O   0  0  0  0  0  0  0  0  0  0  0  0
  2  8  1  0  0  0  0
  3  2  1  0  0  0  0
  4  2  2  0  0  0  0
  5  6  1  1  0  0  0
  5  9  1  0  0  0  0
  5  3  1  0  0  0  0
  6  7  1  0  0  0  0
  7 11  1  6  0  0  0
  7  5  1  0  0  0  0
  8  1  1  0  0  0  0
  8 24  1  0  0  0  0
  9  3  1  0  0  0  0
 10 11  1  0  0  0  0
 10 14  2  0  0  0  0
 12 14  1  0  0  0  0
 13 12  1  0  0  0  0
 15 13  2  0  0  0  0
 16 17  2  0  0  0  0
 17 13  1  0  0  0  0
 17 10  1  0  0  0  0
 18 16  1  0  0  0  0
 19 18  2  0  0  0  0
 20 18  1  0  0  0  0
 21 20  2  0  0  0  0
 23 22  1  0  0  0  0
 23 20  1  0  0  0  0
 24 25  1  0  0  0  0
 26 25  1  0  0  0  0
 29 28  1  0  0  0  0
 29 26  1  0  0  0  0
 29 27  1  0  0  0  0
 30 29  2  0  0  0  0
M  END
>  <MODEL>
6

>  <REMARK>
 VINA RESULT:      -6.4      4.290      5.930
  Name = 
  8 active torsions:
  status: ('A' for Active; 'I' for Inactive)
    1  A    between atoms: C_2  and  C_13
    2  A    between atoms: C_2  and  N_29
    3  A    between atoms: C_3  and  C_12
    4  A    between atoms: C_3  and  N_19
    5  A    between atoms: N_4  and  C_25
    6  A    between atoms: N_8  and  C_13
    7  A    between atoms: N_8  and  P_24
    8  A    between atoms: C_12  and  C_27
                            x       y       z     vdW  Elec       q    Type
                         _______ _______ _______ _____ _____    ______ ____

>  <TORSDO>
F 8

$$$$
=
 OpenBabel10222416413D

 30 32  0  0  1  0  0  0  0  0999 V2000
  185.4080  178.1900  146.5930 O   0  0  0  0  0  1  0  0  0  0  0  0
  187.0530  177.8440  144.8610 C   0  0  0  0  0  0  0  0  0  0  0  0
  186.0640  178.0000  143.8450 N   0  0  0  0  0  0  0  0  0  0  0  0
  188.2470  177.6190  144.5300 O   0  0  0  0  0  0  0  0  0  0  0  0
  185.6300  178.0350  142.3930 C   0  0  1  0  0  0  0  0  0  0  0  0
  185.3290  179.3920  141.7310 C   0  0  0  0  0  2  0  0  0  0  0  0
  186.7230  178.9670  141.8390 C   0  0  2  0  0  3  0  0  0  0  0  0
  186.6910  177.9370  146.2430 N   0  0  0  0  0  0  0  0  0  0  0  0
  184.6920  178.2260  143.3980 C   0  0  0  0  0  2  0  0  0  0  0  0
  188.4870  177.8670  140.4090 C   0  0  0  0  0  0  0  0  0  0  0  0
  187.1880  178.4390  140.5650 N   0  0  0  0  0  2  0  0  0  0  0  0
  190.5350  177.1920  140.8950 N   0  0  0  0  0  2  0  0  0  0  0  0
  190.3190  176.7820  139.5470 C   0  0  0  0  0  0  0  0  0  0  0  0
  189.3680  177.8190  141.3560 N   0  0  0  0  0  0  0  0  0  0  0  0
  191.3000  176.7200  138.7100 N   0  0  0  0  0  2  0  0  0  0  0  0
  188.2400  176.9750  138.1490 N   0  0  0  0  0  0  0  0  0  0  0  0
  188.9720  177.2310  139.1960 C   0  0  0  0  0  0  0  0  0  0  0  0
  188.5810  176.2280  136.9710 C   0  0  0  0  0  0  0  0  0  0  0  0
  189.2750  176.7350  136.0480 O   0  0  0  0  0  0  0  0  0  0  0  0
  188.1310  174.8290  136.8480 C   0  0  0  0  0  0  0  0  0  0  0  0
  186.9030  174.5650  136.7500 O   0  0  0  0  0  0  0  0  0  0  0  0
  190.2680  174.0790  137.4650 F   0  0  0  0  0  0  0  0  0  0  0  0
  189.1200  173.7140  136.7850 C   0  0  0  0  0  2  0  0  0  0  0  0
  187.6750  177.6840  147.2890 C   0  0  0  0  0  2  0  0  0  0  0  0
  189.0520  177.4770  146.6820 C   0  0  0  0  0  2  0  0  0  0  0  0
  189.7520  176.4240  147.3970 N   0  0  0  0  0  2  0  0  0  0  0  0
  191.6820  177.6890  145.7840 O   0  0  0  0  0  0  0  0  0  0  0  0
  192.0220  175.2340  146.6310 O   0  0  0  0  0  1  0  0  0  0  0  0
  191.4600  176.5770  147.0390 P   0  0  0  0  0  0  0  0  0  0  0  0
  192.2660  177.1210  148.4210 O   0  0  0  0  0  1  0  0  0  0  0  0
  2  8  1  0  0  0  0
  3  2  1  0  0  0  0
  4  2  2  0  0  0  0
  5  6  1  1  0  0  0
  5  9  1  0  0  0  0
  5  3  1  0  0  0  0
  6  7  1  0  0  0  0
  7 11  1  6  0  0  0
  7  5  1  0  0  0  0
  8  1  1  0  0  0  0
  8 24  1  0  0  0  0
  9  3  1  0  0  0  0
 10 11  1  0  0  0  0
 10 14  2  0  0  0  0
 12 14  1  0  0  0  0
 13 12  1  0  0  0  0
 15 13  2  0  0  0  0
 16 17  2  0  0  0  0
 17 13  1  0  0  0  0
 17 10  1  0  0  0  0
 18 16  1  0  0  0  0
 19 18  2  0  0  0  0
 20 18  1  0  0  0  0
 21 20  2  0  0  0  0
 23 20  1  0  0  0  0
 23 22  1  0  0  0  0
 25 24  1  0  0  0  0
 25 26  1  0  0  0  0
 27 29  2  0  0  0  0
 28 29  1  0  0  0  0
 29 26  1  0  0  0  0
 29 30  1  0  0  0  0
M  END
>  <MODEL>
7

>  <REMARK>
 VINA RESULT:      -6.4      4.431      5.452
  Name = 
  8 active torsions:
  status: ('A' for Active; 'I' for Inactive)
    1  A    between atoms: C_2  and  C_13
    2  A    between atoms: C_2  and  N_29
    3  A    between atoms: C_3  and  C_12
    4  A    between atoms: C_3  and  N_19
    5  A    between atoms: N_4  and  C_25
    6  A    between atoms: N_8  and  C_13
    7  A    between atoms: N_8  and  P_24
    8  A    between atoms: C_12  and  C_27
                            x       y       z     vdW  Elec       q    Type
                         _______ _______ _______ _____ _____    ______ ____

>  <TORSDO>
F 8

$$$$
=
 OpenBabel10222416413D

 30 32  0  0  1  0  0  0  0  0999 V2000
  191.2140  177.5110  147.0200 O   0  0  0  0  0  1  0  0  0  0  0  0
  189.6000  177.3090  145.2380 C   0  0  0  0  0  0  0  0  0  0  0  0
  190.5220  177.8540  144.2960 N   0  0  0  0  0  0  0  0  0  0  0  0
  188.4500  176.9690  144.8490 O   0  0  0  0  0  0  0  0  0  0  0  0
  190.8990  178.3070  142.9000 C   0  0  1  0  0  0  0  0  0  0  0  0
  191.8340  177.4270  142.0500 C   0  0  0  0  0  2  0  0  0  0  0  0
  190.4160  177.0770  142.1100 C   0  0  2  0  0  3  0  0  0  0  0  0
  189.9740  177.1540  146.6110 N   0  0  0  0  0  0  0  0  0  0  0  0
  191.8170  178.4250  143.9340 C   0  0  0  0  0  2  0  0  0  0  0  0
  189.8870  176.8630  139.6530 C   0  0  0  0  0  0  0  0  0  0  0  0
  189.7360  177.5300  140.9070 N   0  0  0  0  0  2  0  0  0  0  0  0
  190.5900  175.4150  138.1370 N   0  0  0  0  0  2  0  0  0  0  0  0
  189.6290  176.2220  137.4610 C   0  0  0  0  0  0  0  0  0  0  0  0
  190.6690  175.8490  139.4700 N   0  0  0  0  0  0  0  0  0  0  0  0
  189.7400  176.4620  136.1980 N   0  0  0  0  0  2  0  0  0  0  0  0
  188.1760  178.0540  138.3810 N   0  0  0  0  0  0  0  0  0  0  0  0
  189.1570  177.2000  138.4420 C   0  0  0  0  0  0  0  0  0  0  0  0
  187.3030  178.3480  137.2790 C   0  0  0  0  0  0  0  0  0  0  0  0
  187.5060  179.3390  136.5240 O   0  0  0  0  0  0  0  0  0  0  0  0
  186.1580  177.4580  137.0070 C   0  0  0  0  0  0  0  0  0  0  0  0
  186.3040  176.4470  136.2710 O   0  0  0  0  0  0  0  0  0  0  0  0
  184.9480  178.7340  138.5620 F   0  0  0  0  0  0  0  0  0  0  0  0
  184.8300  177.7130  137.6370 C   0  0  0  0  0  2  0  0  0  0  0  0
  189.0070  176.6890  147.5980 C   0  0  0  0  0  2  0  0  0  0  0  0
  187.9520  177.7520  147.8490 C   0  0  0  0  0  2  0  0  0  0  0  0
  186.6590  177.2800  147.3860 N   0  0  0  0  0  2  0  0  0  0  0  0
  186.1230  180.0220  147.7450 O   0  0  0  0  0  1  0  0  0  0  0  0
  184.2780  178.3840  146.8650 O   0  0  0  0  0  1  0  0  0  0  0  0
  185.7620  178.6670  146.8000 P   0  0  0  0  0  0  0  0  0  0  0  0
  186.2000  178.9670  145.1960 O   0  0  0  0  0  0  0  0  0  0  0  0
  2  8  1  0  0  0  0
  3  2  1  0  0  0  0
  4  2  2  0  0  0  0
  5  6  1  1  0  0  0
  5  9  1  0  0  0  0
  5  3  1  0  0  0  0
  6  7  1  0  0  0  0
  7 11  1  6  0  0  0
  7  5  1  0  0  0  0
  8  1  1  0  0  0  0
  8 24  1  0  0  0  0
  9  3  1  0  0  0  0
 10 11  1  0  0  0  0
 12 14  1  0  0  0  0
 13 12  1  0  0  0  0
 13 17  1  0  0  0  0
 14 10  2  0  0  0  0
 15 13  2  0  0  0  0
 16 17  2  0  0  0  0
 17 10  1  0  0  0  0
 18 16  1  0  0  0  0
 19 18  2  0  0  0  0
 20 18  1  0  0  0  0
 20 23  1  0  0  0  0
 21 20  2  0  0  0  0
 23 22  1  0  0  0  0
 24 25  1  0  0  0  0
 26 25  1  0  0  0  0
 29 28  1  0  0  0  0
 29 26  1  0  0  0  0
 29 27  1  0  0  0  0
 30 29  2  0  0  0  0
M  END
>  <MODEL>
8

>  <REMARK>
 VINA RESULT:      -6.4      4.305      6.011
  Name = 
  8 active torsions:
  status: ('A' for Active; 'I' for Inactive)
    1  A    between atoms: C_2  and  C_13
    2  A    between atoms: C_2  and  N_29
    3  A    between atoms: C_3  and  C_12
    4  A    between atoms: C_3  and  N_19
    5  A    between atoms: N_4  and  C_25
    6  A    between atoms: N_8  and  C_13
    7  A    between atoms: N_8  and  P_24
    8  A    between atoms: C_12  and  C_27
                            x       y       z     vdW  Elec       q    Type
                         _______ _______ _______ _____ _____    ______ ____

>  <TORSDO>
F 8

$$$$
=
 OpenBabel10222416413D

 30 32  0  0  1  0  0  0  0  0999 V2000
  180.5970  179.0290  142.1180 O   0  0  0  0  0  1  0  0  0  0  0  0
  182.8730  178.3440  141.7010 C   0  0  0  0  0  0  0  0  0  0  0  0
  183.3190  178.9810  142.8960 N   0  0  0  0  0  0  0  0  0  0  0  0
  183.7080  177.7420  140.9740 O   0  0  0  0  0  0  0  0  0  0  0  0
  184.4050  179.3770  143.8780 C   0  0  1  0  0  0  0  0  0  0  0  0
  184.5090  178.6370  145.2230 C   0  0  0  0  0  2  0  0  0  0  0  0
  185.0930  178.0100  144.0390 C   0  0  2  0  0  3  0  0  0  0  0  0
  181.4920  178.3900  141.3280 N   0  0  0  0  0  0  0  0  0  0  0  0
  183.0930  179.7720  144.1030 C   0  0  0  0  0  2  0  0  0  0  0  0
  187.3710  177.7530  145.0910 C   0  0  0  0  0  0  0  0  0  0  0  0
  186.5340  178.2060  144.0260 N   0  0  0  0  0  2  0  0  0  0  0  0
  187.9880  176.8530  147.0140 N   0  0  0  0  0  2  0  0  0  0  0  0
  189.2050  177.2110  146.3640 C   0  0  0  0  0  0  0  0  0  0  0  0
  186.9220  177.1890  146.1660 N   0  0  0  0  0  0  0  0  0  0  0  0
  190.2420  177.5590  147.0500 N   0  0  0  0  0  2  0  0  0  0  0  0
  189.5480  178.1750  144.0690 N   0  0  0  0  0  0  0  0  0  0  0  0
  188.8220  177.8240  145.0920 C   0  0  0  0  0  0  0  0  0  0  0  0
  190.9760  178.1380  143.9210 C   0  0  0  0  0  0  0  0  0  0  0  0
  191.7090  179.0590  144.3760 O   0  0  0  0  0  0  0  0  0  0  0  0
  191.6030  176.9860  143.2450 C   0  0  0  0  0  0  0  0  0  0  0  0
  192.1180  177.1250  142.1050 O   0  0  0  0  0  0  0  0  0  0  0  0
  192.0550  175.8340  145.2400 F   0  0  0  0  0  0  0  0  0  0  0  0
  191.6810  175.6580  143.9200 C   0  0  0  0  0  2  0  0  0  0  0  0
  181.0430  177.8250  140.0610 C   0  0  0  0  0  2  0  0  0  0  0  0
  180.0300  178.7440  139.4000 C   0  0  0  0  0  2  0  0  0  0  0  0
  180.5300  179.1800  138.1080 N   0  0  0  0  0  2  0  0  0  0  0  0
  180.3470  181.6030  139.5310 O   0  0  0  0  0  1  0  0  0  0  0  0
  181.0510  181.5620  137.0090 O   0  0  0  0  0  0  0  0  0  0  0  0
  181.1830  180.7940  138.3040 P   0  0  0  0  0  0  0  0  0  0  0  0
  182.8170  180.6800  138.7190 O   0  0  0  0  0  1  0  0  0  0  0  0
  2  3  1  0  0  0  0
  3  5  1  0  0  0  0
  3  9  1  0  0  0  0
  4  2  2  0  0  0  0
  5  7  1  0  0  0  0
  5  9  1  6  0  0  0
  5  6  1  0  0  0  0
  7 11  1  1  0  0  0
  7  6  1  0  0  0  0
  8  2  1  0  0  0  0
  8  1  1  0  0  0  0
 10 17  1  0  0  0  0
 10 14  2  0  0  0  0
 11 10  1  0  0  0  0
 13 12  1  0  0  0  0
 13 15  2  0  0  0  0
 14 12  1  0  0  0  0
 16 17  2  0  0  0  0
 17 13  1  0  0  0  0
 18 16  1  0  0  0  0
 18 19  2  0  0  0  0
 20 23  1  0  0  0  0
 20 18  1  0  0  0  0
 21 20  2  0  0  0  0
 23 22  1  0  0  0  0
 24  8  1  0  0  0  0
 25 24  1  0  0  0  0
 26 29  1  0  0  0  0
 26 25  1  0  0  0  0
 28 29  2  0  0  0  0
 29 30  1  0  0  0  0
 29 27  1  0  0  0  0
M  END
>  <MODEL>
9

>  <REMARK>
 VINA RESULT:      -6.3      3.972      9.324
  Name = 
  8 active torsions:
  status: ('A' for Active; 'I' for Inactive)
    1  A    between atoms: C_2  and  C_13
    2  A    between atoms: C_2  and  N_29
    3  A    between atoms: C_3  and  C_12
    4  A    between atoms: C_3  and  N_19
    5  A    between atoms: N_4  and  C_25
    6  A    between atoms: N_8  and  C_13
    7  A    between atoms: N_8  and  P_24
    8  A    between atoms: C_12  and  C_27
                            x       y       z     vdW  Elec       q    Type
                         _______ _______ _______ _____ _____    ______ ____

>  <TORSDO>
F 8

$$$$
