=
 OpenBabel10222418443D

 41 45  0  0  1  0  0  0  0  0999 V2000
  186.8840  178.6040  142.1830 C   0  0  2  0  0  3  0  0  0  0  0  0
  181.9890  178.5840  142.0770 O   0  0  0  0  0  1  0  0  0  0  0  0
  184.4400  179.0080  139.3570 C   0  0  0  0  0  3  0  0  0  0  0  0
  185.6030  178.7240  141.4100 C   0  0  0  0  0  0  0  0  0  0  0  0
  184.3910  178.6080  142.0940 C   0  0  0  0  0  3  0  0  0  0  0  0
  183.1920  178.6970  141.3920 C   0  0  0  0  0  0  0  0  0  0  0  0
  185.5990  178.9040  140.0590 N   0  0  0  0  0  0  0  0  0  0  0  0
  183.2020  178.9030  140.0070 C   0  0  0  0  0  0  0  0  0  0  0  0
  181.9540  179.0570  139.3110 N   0  0  0  0  0  2  0  0  0  0  0  0
  180.7890  182.0050  136.4820 C   0  0  0  0  0  0  0  0  0  0  0  0
  180.7170  180.6380  136.1750 C   0  0  0  0  0  3  0  0  0  0  0  0
  181.2680  182.3990  137.7360 C   0  0  0  0  0  3  0  0  0  0  0  0
  181.6570  181.4410  138.6780 C   0  0  0  0  0  3  0  0  0  0  0  0
  181.5790  180.0740  138.3710 C   0  0  0  0  0  0  0  0  0  0  0  0
  181.1150  179.6810  137.1130 C   0  0  0  0  0  3  0  0  0  0  0  0
  180.7390  184.3540  135.7150 C   0  0  0  0  0  1  0  0  0  0  0  0
  180.3730  182.9870  135.5810 O   0  0  0  0  0  0  0  0  0  0  0  0
  190.0060  176.9180  141.3230 C   0  0  0  0  0  3  0  0  0  0  0  0
  188.1220  178.7250  141.3340 C   0  0  0  0  0  3  0  0  0  0  0  0
  189.0580  177.8120  141.3200 C   0  0  0  0  0  0  0  0  0  0  0  0
  191.1790  177.1010  140.4790 C   0  0  0  0  0  3  0  0  0  0  0  0
  191.2440  176.5140  139.2930 C   0  0  0  0  0  3  0  0  0  0  0  0
  193.5090  177.1730  139.1600 O   0  0  0  0  0  1  0  0  0  0  0  0
  192.4320  176.7000  138.4040 C   0  0  1  0  0  3  0  0  0  0  0  0
  193.7790  175.6020  136.5690 C   0  0  0  0  0  0  0  0  0  0  0  0
  191.5860  174.5010  137.3780 C   0  0  0  0  0  2  0  0  0  0  0  0
  191.6110  174.3760  134.9220 C   0  0  0  0  0  2  0  0  0  0  0  0
  192.8140  175.3810  137.7200 C   0  0  2  0  0  3  0  0  0  0  0  0
  195.0100  175.5010  136.7980 O   0  0  0  0  0  0  0  0  0  0  0  0
  192.0210  175.8160  134.7830 C   0  0  1  0  0  3  0  0  0  0  0  0
  191.1250  176.2380  135.7760 O   0  0  0  0  0  0  0  0  0  0  0  0
  193.3620  175.9540  135.2670 O   0  0  0  0  0  0  0  0  0  0  0  0
  190.8350  174.9000  136.0980 C   0  0  2  0  0  3  0  0  0  0  0  0
  186.8820  177.3570  143.0720 C   0  0  0  0  0  2  0  0  0  0  0  0
  187.2100  178.2340  147.6190 C   0  0  0  0  0  3  0  0  0  0  0  0
  188.8880  177.0290  146.1840 C   0  0  0  0  0  2  0  0  0  0  0  0
  188.6340  177.7800  144.8950 C   0  0  0  0  0  2  0  0  0  0  0  0
  186.1680  177.9420  145.3110 C   0  0  0  0  0  3  0  0  0  0  0  0
  188.6600  178.0000  147.3190 C   0  0  0  0  0  2  0  0  0  0  0  0
  186.1800  178.2310  146.7620 C   0  0  0  0  0  3  0  0  0  0  0  0
  187.1960  177.7030  144.4900 C   0  0  0  0  0  0  0  0  0  0  0  0
  1 19  1  6  0  0  0
  1 34  1  0  0  0  0
  3  8  2  0  0  0  0
  3  7  1  0  0  0  0
  4  5  1  0  0  0  0
  4  1  1  0  0  0  0
  6  2  1  0  0  0  0
  6  5  2  0  0  0  0
  7  4  2  0  0  0  0
  8  6  1  0  0  0  0
  9  8  1  0  0  0  0
 10 12  1  0  0  0  0
 11 10  2  0  0  0  0
 11 15  1  0  0  0  0
 12 13  2  0  0  0  0
 14 13  1  0  0  0  0
 14  9  1  0  0  0  0
 15 14  2  0  0  0  0
 17 16  1  0  0  0  0
 17 10  1  0  0  0  0
 20 18  2  0  0  0  0
 20 19  2  0  0  0  0
 21 18  1  0  0  0  0
 22 21  2  0  0  0  0
 24 23  1  1  0  0  0
 24 22  1  0  0  0  0
 25 29  2  0  0  0  0
 25 28  1  0  0  0  0
 26 28  1  0  0  0  0
 28 24  1  6  0  0  0
 30 27  1  1  0  0  0
 30 32  1  0  0  0  0
 30 31  1  0  0  0  0
 31 33  1  0  0  0  0
 32 25  1  0  0  0  0
 33 27  1  6  0  0  0
 33 26  1  0  0  0  0
 34 41  1  0  0  0  0
 36 39  1  0  0  0  0
 37 36  1  0  0  0  0
 38 40  1  0  0  0  0
 39 35  1  0  0  0  0
 40 35  2  0  0  0  0
 41 37  1  0  0  0  0
 41 38  2  0  0  0  0
M  END
>  <MODEL>
1

>  <REMARK>
 VINA RESULT:      -9.3      0.000      0.000
  Name = 
  10 active torsions:
  status: ('A' for Active; 'I' for Inactive)
    1  A    between atoms: C_2  and  O_26
    2  A    between atoms: C_3  and  C_4
    3  A    between atoms: C_8  and  C_38
    4  A    between atoms: C_10  and  C_34
    5  A    between atoms: C_10  and  C_41
    6  A    between atoms: C_15  and  C_34
    7  A    between atoms: C_18  and  N_28
    8  A    between atoms: C_21  and  C_34
    9  A    between atoms: C_22  and  C_38
   10  A    between atoms: N_28  and  C_37
                            x       y       z     vdW  Elec       q    Type
                         _______ _______ _______ _____ _____    ______ ____

>  <TORSDO>
F 10

$$$$
=
 OpenBabel10222418443D

 41 45  0  0  1  0  0  0  0  0999 V2000
  186.8180  178.3300  142.9150 C   0  0  2  0  0  3  0  0  0  0  0  0
  182.0580  178.9120  143.9100 O   0  0  0  0  0  1  0  0  0  0  0  0
  183.7850  178.3770  140.6960 C   0  0  0  0  0  3  0  0  0  0  0  0
  185.3960  178.4310  142.4410 C   0  0  0  0  0  0  0  0  0  0  0  0
  184.3860  178.6320  143.3840 C   0  0  0  0  0  3  0  0  0  0  0  0
  183.0590  178.7080  142.9690 C   0  0  0  0  0  0  0  0  0  0  0  0
  185.0700  178.2910  141.1250 N   0  0  0  0  0  0  0  0  0  0  0  0
  182.7420  178.5850  141.6100 C   0  0  0  0  0  0  0  0  0  0  0  0
  181.3730  178.7310  141.1940 N   0  0  0  0  0  2  0  0  0  0  0  0
  179.5650  182.0370  139.2300 C   0  0  0  0  0  0  0  0  0  0  0  0
  180.6240  181.3320  138.6370 C   0  0  0  0  0  3  0  0  0  0  0  0
  179.1120  181.6510  140.4960 C   0  0  0  0  0  3  0  0  0  0  0  0
  179.6980  180.5660  141.1570 C   0  0  0  0  0  3  0  0  0  0  0  0
  180.7530  179.8590  140.5590 C   0  0  0  0  0  0  0  0  0  0  0  0
  181.2150  180.2540  139.3020 C   0  0  0  0  0  3  0  0  0  0  0  0
  179.3600  183.5900  137.3180 C   0  0  0  0  0  1  0  0  0  0  0  0
  178.9320  183.1000  138.5830 O   0  0  0  0  0  0  0  0  0  0  0  0
  189.9570  176.8740  141.7540 C   0  0  0  0  0  3  0  0  0  0  0  0
  187.8350  178.3920  141.8050 C   0  0  0  0  0  3  0  0  0  0  0  0
  188.8900  177.6200  141.7750 C   0  0  0  0  0  0  0  0  0  0  0  0
  190.9020  176.9890  140.6510 C   0  0  0  0  0  3  0  0  0  0  0  0
  190.6140  176.4620  139.4700 C   0  0  0  0  0  3  0  0  0  0  0  0
  192.8560  176.7970  138.8050 O   0  0  0  0  0  1  0  0  0  0  0  0
  191.5630  176.5820  138.3200 C   0  0  1  0  0  3  0  0  0  0  0  0
  192.3150  175.4950  136.1660 C   0  0  0  0  0  0  0  0  0  0  0  0
  190.1080  174.7390  137.2750 C   0  0  0  0  0  2  0  0  0  0  0  0
  189.6900  174.9330  134.8600 C   0  0  0  0  0  2  0  0  0  0  0  0
  191.5340  175.3150  137.4560 C   0  0  2  0  0  3  0  0  0  0  0  0
  193.5180  175.1310  136.1440 O   0  0  0  0  0  0  0  0  0  0  0  0
  190.3670  176.2740  134.7790 C   0  0  1  0  0  3  0  0  0  0  0  0
  189.7620  176.7260  135.9610 O   0  0  0  0  0  0  0  0  0  0  0  0
  191.7680  176.0880  135.0070 O   0  0  0  0  0  0  0  0  0  0  0  0
  189.2530  175.4390  136.2060 C   0  0  2  0  0  3  0  0  0  0  0  0
  187.0100  177.1280  143.8440 C   0  0  0  0  0  2  0  0  0  0  0  0
  187.8430  178.3290  148.2510 C   0  0  0  0  0  3  0  0  0  0  0  0
  189.2820  176.8860  146.7750 C   0  0  0  0  0  2  0  0  0  0  0  0
  188.9580  177.5520  145.4570 C   0  0  0  0  0  2  0  0  0  0  0  0
  186.5620  177.9410  146.0810 C   0  0  0  0  0  3  0  0  0  0  0  0
  189.2360  177.9580  147.8400 C   0  0  0  0  0  2  0  0  0  0  0  0
  186.7360  178.3400  147.4940 C   0  0  0  0  0  3  0  0  0  0  0  0
  187.4850  177.5580  145.1930 C   0  0  0  0  0  0  0  0  0  0  0  0
  1 19  1  6  0  0  0
  1 34  1  0  0  0  0
  3  7  2  0  0  0  0
  3  8  1  0  0  0  0
  4  1  1  0  0  0  0
  4  5  2  0  0  0  0
  6  5  1  0  0  0  0
  6  2  1  0  0  0  0
  7  4  1  0  0  0  0
  8  6  2  0  0  0  0
  9  8  1  0  0  0  0
 10 12  1  0  0  0  0
 11 10  2  0  0  0  0
 11 15  1  0  0  0  0
 12 13  2  0  0  0  0
 14 13  1  0  0  0  0
 14  9  1  0  0  0  0
 15 14  2  0  0  0  0
 16 17  1  0  0  0  0
 17 10  1  0  0  0  0
 18 20  2  0  0  0  0
 20 19  2  0  0  0  0
 21 18  1  0  0  0  0
 22 21  2  0  0  0  0
 24 23  1  1  0  0  0
 24 22  1  0  0  0  0
 25 28  1  0  0  0  0
 26 28  1  0  0  0  0
 28 24  1  6  0  0  0
 29 25  2  0  0  0  0
 30 27  1  1  0  0  0
 30 32  1  0  0  0  0
 30 31  1  0  0  0  0
 31 33  1  0  0  0  0
 32 25  1  0  0  0  0
 33 27  1  6  0  0  0
 33 26  1  0  0  0  0
 34 41  1  0  0  0  0
 36 39  1  0  0  0  0
 37 36  1  0  0  0  0
 38 40  1  0  0  0  0
 39 35  1  0  0  0  0
 40 35  2  0  0  0  0
 41 37  1  0  0  0  0
 41 38  2  0  0  0  0
M  END
>  <MODEL>
2

>  <REMARK>
 VINA RESULT:      -8.9      1.492      1.700
  Name = 
  10 active torsions:
  status: ('A' for Active; 'I' for Inactive)
    1  A    between atoms: C_2  and  O_26
    2  A    between atoms: C_3  and  C_4
    3  A    between atoms: C_8  and  C_38
    4  A    between atoms: C_10  and  C_34
    5  A    between atoms: C_10  and  C_41
    6  A    between atoms: C_15  and  C_34
    7  A    between atoms: C_18  and  N_28
    8  A    between atoms: C_21  and  C_34
    9  A    between atoms: C_22  and  C_38
   10  A    between atoms: N_28  and  C_37
                            x       y       z     vdW  Elec       q    Type
                         _______ _______ _______ _____ _____    ______ ____

>  <TORSDO>
F 10

$$$$
=
 OpenBabel10222418443D

 41 45  0  0  1  0  0  0  0  0999 V2000
  187.9650  177.6560  142.9710 C   0  0  2  0  0  3  0  0  0  0  0  0
  188.7810  178.9020  138.3060 O   0  0  0  0  0  1  0  0  0  0  0  0
  190.5060  176.4660  140.4710 C   0  0  0  0  0  3  0  0  0  0  0  0
  188.7630  177.5030  141.7080 C   0  0  0  0  0  0  0  0  0  0  0  0
  188.4140  178.2730  140.5960 C   0  0  0  0  0  3  0  0  0  0  0  0
  189.1290  178.1320  139.4090 C   0  0  0  0  0  0  0  0  0  0  0  0
  189.7870  176.6090  141.6140 N   0  0  0  0  0  0  0  0  0  0  0  0
  190.1930  177.2240  139.3330 C   0  0  0  0  0  0  0  0  0  0  0  0
  190.9590  177.1410  138.1190 N   0  0  0  0  0  2  0  0  0  0  0  0
  193.5060  173.9930  136.8340 C   0  0  0  0  0  0  0  0  0  0  0  0
  194.0330  175.2150  137.2810 C   0  0  0  0  0  3  0  0  0  0  0  0
  192.1180  173.8200  136.7980 C   0  0  0  0  0  3  0  0  0  0  0  0
  191.2660  174.8470  137.2160 C   0  0  0  0  0  3  0  0  0  0  0  0
  191.7950  176.0660  137.6680 C   0  0  0  0  0  0  0  0  0  0  0  0
  193.1800  176.2440  137.6900 C   0  0  0  0  0  3  0  0  0  0  0  0
  193.8470  171.6020  136.3080 C   0  0  0  0  0  1  0  0  0  0  0  0
  194.3280  172.9330  136.4470 O   0  0  0  0  0  0  0  0  0  0  0  0
  184.9160  178.8210  144.6070 C   0  0  0  0  0  3  0  0  0  0  0  0
  186.5000  177.9180  142.7390 C   0  0  0  0  0  3  0  0  0  0  0  0
  185.7120  178.3830  143.6720 C   0  0  0  0  0  0  0  0  0  0  0  0
  183.5080  179.0480  144.3130 C   0  0  0  0  0  3  0  0  0  0  0  0
  183.0250  178.7710  143.1110 C   0  0  0  0  0  3  0  0  0  0  0  0
  181.0490  179.9430  143.6570 O   0  0  0  0  0  1  0  0  0  0  0  0
  181.5790  178.9830  142.7920 C   0  0  1  0  0  3  0  0  0  0  0  0
  179.9830  179.8990  141.0610 C   0  0  0  0  0  0  0  0  0  0  0  0
  181.9640  178.4180  140.3140 C   0  0  0  0  0  2  0  0  0  0  0  0
  179.9820  177.6890  139.0540 C   0  0  0  0  0  2  0  0  0  0  0  0
  181.4020  179.4370  141.3370 C   0  0  2  0  0  3  0  0  0  0  0  0
  179.7260  181.1250  141.1670 O   0  0  0  0  0  0  0  0  0  0  0  0
  179.1190  177.6690  140.2860 C   0  0  1  0  0  3  0  0  0  0  0  0
  180.1190  177.0610  141.0580 O   0  0  0  0  0  0  0  0  0  0  0  0
  178.9320  179.0170  140.7300 O   0  0  0  0  0  0  0  0  0  0  0  0
  181.0430  177.2250  140.0110 C   0  0  2  0  0  3  0  0  0  0  0  0
  188.6160  178.6660  143.9210 C   0  0  0  0  0  2  0  0  0  0  0  0
  190.7050  176.2470  147.2880 C   0  0  0  0  0  3  0  0  0  0  0  0
  191.4580  176.4790  144.8980 C   0  0  0  0  0  2  0  0  0  0  0  0
  190.9440  177.8810  144.6560 C   0  0  0  0  0  2  0  0  0  0  0  0
  188.8830  177.5150  146.0350 C   0  0  0  0  0  3  0  0  0  0  0  0
  191.8670  176.3990  146.3520 C   0  0  0  0  0  2  0  0  0  0  0  0
  189.4670  176.7420  147.1530 C   0  0  0  0  0  3  0  0  0  0  0  0
  189.4760  177.9820  144.9310 C   0  0  0  0  0  0  0  0  0  0  0  0
  1 19  1  6  0  0  0
  1 34  1  0  0  0  0
  2  6  1  0  0  0  0
  3  7  1  0  0  0  0
  4  1  1  0  0  0  0
  5  4  1  0  0  0  0
  6  5  2  0  0  0  0
  7  4  2  0  0  0  0
  8  6  1  0  0  0  0
  8  3  2  0  0  0  0
  9  8  1  0  0  0  0
 10 11  1  0  0  0  0
 11 15  2  0  0  0  0
 12 10  2  0  0  0  0
 12 13  1  0  0  0  0
 13 14  2  0  0  0  0
 14 15  1  0  0  0  0
 14  9  1  0  0  0  0
 16 17  1  0  0  0  0
 17 10  1  0  0  0  0
 19 20  2  0  0  0  0
 20 18  2  0  0  0  0
 21 18  1  0  0  0  0
 22 21  2  0  0  0  0
 24 22  1  0  0  0  0
 24 23  1  1  0  0  0
 25 29  2  0  0  0  0
 25 28  1  0  0  0  0
 26 28  1  0  0  0  0
 28 24  1  1  0  0  0
 30 27  1  6  0  0  0
 30 32  1  0  0  0  0
 30 31  1  0  0  0  0
 32 25  1  0  0  0  0
 33 27  1  6  0  0  0
 33 26  1  0  0  0  0
 33 31  1  0  0  0  0
 34 41  1  0  0  0  0
 36 39  1  0  0  0  0
 37 36  1  0  0  0  0
 37 41  1  0  0  0  0
 38 40  1  0  0  0  0
 39 35  1  0  0  0  0
 40 35  2  0  0  0  0
 41 38  2  0  0  0  0
M  END
>  <MODEL>
3

>  <REMARK>
 VINA RESULT:      -8.8      3.129     10.254
  Name = 
  10 active torsions:
  status: ('A' for Active; 'I' for Inactive)
    1  A    between atoms: C_2  and  O_26
    2  A    between atoms: C_3  and  C_4
    3  A    between atoms: C_8  and  C_38
    4  A    between atoms: C_10  and  C_34
    5  A    between atoms: C_10  and  C_41
    6  A    between atoms: C_15  and  C_34
    7  A    between atoms: C_18  and  N_28
    8  A    between atoms: C_21  and  C_34
    9  A    between atoms: C_22  and  C_38
   10  A    between atoms: N_28  and  C_37
                            x       y       z     vdW  Elec       q    Type
                         _______ _______ _______ _____ _____    ______ ____

>  <TORSDO>
F 10

$$$$
=
 OpenBabel10222418443D

 41 45  0  0  1  0  0  0  0  0999 V2000
  187.3890  178.4450  142.9660 C   0  0  2  0  0  3  0  0  0  0  0  0
  184.6030  179.4010  139.0540 O   0  0  0  0  0  1  0  0  0  0  0  0
  183.6780  178.2080  142.4170 C   0  0  0  0  0  3  0  0  0  0  0  0
  186.0350  178.4890  142.3160 C   0  0  0  0  0  0  0  0  0  0  0  0
  185.9400  178.9140  140.9900 C   0  0  0  0  0  3  0  0  0  0  0  0
  184.6930  178.9810  140.3750 C   0  0  0  0  0  0  0  0  0  0  0  0
  184.9030  178.1640  143.0020 N   0  0  0  0  0  0  0  0  0  0  0  0
  183.5400  178.6230  141.0850 C   0  0  0  0  0  0  0  0  0  0  0  0
  182.2690  178.6370  140.4130 N   0  0  0  0  0  2  0  0  0  0  0  0
  179.7950  175.3840  139.2530 C   0  0  0  0  0  0  0  0  0  0  0  0
  179.2880  176.4390  140.0270 C   0  0  0  0  0  3  0  0  0  0  0  0
  181.1410  175.4000  138.8730 C   0  0  0  0  0  3  0  0  0  0  0  0
  181.9690  176.4630  139.2490 C   0  0  0  0  0  3  0  0  0  0  0  0
  181.4600  177.5200  140.0180 C   0  0  0  0  0  0  0  0  0  0  0  0
  180.1190  177.4960  140.4090 C   0  0  0  0  0  3  0  0  0  0  0  0
  179.5130  173.1700  138.1910 C   0  0  0  0  0  1  0  0  0  0  0  0
  178.9870  174.3270  138.8280 O   0  0  0  0  0  0  0  0  0  0  0  0
  190.2160  176.7730  141.3730 C   0  0  0  0  0  3  0  0  0  0  0  0
  188.5310  178.6630  142.0090 C   0  0  0  0  0  3  0  0  0  0  0  0
  189.3650  177.7110  141.6810 C   0  0  0  0  0  0  0  0  0  0  0  0
  191.3010  177.0550  140.4430 C   0  0  0  0  0  3  0  0  0  0  0  0
  191.4330  176.3370  139.3370 C   0  0  0  0  0  3  0  0  0  0  0  0
  193.6310  177.1470  139.0400 O   0  0  0  0  0  1  0  0  0  0  0  0
  192.5300  176.6180  138.3610 C   0  0  1  0  0  3  0  0  0  0  0  0
  193.8620  175.6390  136.4490 C   0  0  0  0  0  0  0  0  0  0  0  0
  191.7360  174.4270  137.2770 C   0  0  0  0  0  2  0  0  0  0  0  0
  191.6950  174.3920  134.8180 C   0  0  0  0  0  2  0  0  0  0  0  0
  192.9400  175.3400  137.6180 C   0  0  2  0  0  3  0  0  0  0  0  0
  195.1030  175.5760  136.6410 O   0  0  0  0  0  0  0  0  0  0  0  0
  192.0480  175.8510  134.7220 C   0  0  1  0  0  3  0  0  0  0  0  0
  191.1650  176.2030  135.7540 O   0  0  0  0  0  0  0  0  0  0  0  0
  193.3960  176.0220  135.1740 O   0  0  0  0  0  0  0  0  0  0  0  0
  190.9340  174.8440  136.0340 C   0  0  2  0  0  3  0  0  0  0  0  0
  187.5510  177.1880  143.8250 C   0  0  0  0  0  2  0  0  0  0  0  0
  187.9560  178.1250  148.3540 C   0  0  0  0  0  3  0  0  0  0  0  0
  189.5370  176.7720  146.9390 C   0  0  0  0  0  2  0  0  0  0  0  0
  189.3360  177.5150  145.6370 C   0  0  0  0  0  2  0  0  0  0  0  0
  186.8890  177.8670  146.0530 C   0  0  0  0  0  3  0  0  0  0  0  0
  189.3840  177.7790  148.0560 C   0  0  0  0  0  2  0  0  0  0  0  0
  186.9260  178.1820  147.4980 C   0  0  0  0  0  3  0  0  0  0  0  0
  187.8940  177.5370  145.2360 C   0  0  0  0  0  0  0  0  0  0  0  0
  1 19  1  6  0  0  0
  1 34  1  0  0  0  0
  2  6  1  0  0  0  0
  3  7  1  0  0  0  0
  4  1  1  0  0  0  0
  4  7  2  0  0  0  0
  5  4  1  0  0  0  0
  6  5  2  0  0  0  0
  6  8  1  0  0  0  0
  8  3  2  0  0  0  0
  9  8  1  0  0  0  0
 10 11  1  0  0  0  0
 11 15  2  0  0  0  0
 12 13  1  0  0  0  0
 12 10  2  0  0  0  0
 13 14  2  0  0  0  0
 14 15  1  0  0  0  0
 14  9  1  0  0  0  0
 16 17  1  0  0  0  0
 17 10  1  0  0  0  0
 18 20  2  0  0  0  0
 20 19  2  0  0  0  0
 21 18  1  0  0  0  0
 22 21  2  0  0  0  0
 24 23  1  1  0  0  0
 24 22  1  0  0  0  0
 25 29  2  0  0  0  0
 25 28  1  0  0  0  0
 26 28  1  0  0  0  0
 28 24  1  6  0  0  0
 30 27  1  1  0  0  0
 30 32  1  0  0  0  0
 30 31  1  0  0  0  0
 31 33  1  0  0  0  0
 32 25  1  0  0  0  0
 33 27  1  6  0  0  0
 33 26  1  0  0  0  0
 34 41  1  0  0  0  0
 36 39  1  0  0  0  0
 37 36  1  0  0  0  0
 38 40  1  0  0  0  0
 39 35  1  0  0  0  0
 40 35  2  0  0  0  0
 41 37  1  0  0  0  0
 41 38  2  0  0  0  0
M  END
>  <MODEL>
4

>  <REMARK>
 VINA RESULT:      -8.8      2.593      3.376
  Name = 
  10 active torsions:
  status: ('A' for Active; 'I' for Inactive)
    1  A    between atoms: C_2  and  O_26
    2  A    between atoms: C_3  and  C_4
    3  A    between atoms: C_8  and  C_38
    4  A    between atoms: C_10  and  C_34
    5  A    between atoms: C_10  and  C_41
    6  A    between atoms: C_15  and  C_34
    7  A    between atoms: C_18  and  N_28
    8  A    between atoms: C_21  and  C_34
    9  A    between atoms: C_22  and  C_38
   10  A    between atoms: N_28  and  C_37
                            x       y       z     vdW  Elec       q    Type
                         _______ _______ _______ _____ _____    ______ ____

>  <TORSDO>
F 10

$$$$
=
 OpenBabel10222418443D

 41 45  0  0  1  0  0  0  0  0999 V2000
  187.7260  178.3120  143.0380 C   0  0  2  0  0  3  0  0  0  0  0  0
  185.5030  178.9970  138.7290 O   0  0  0  0  0  1  0  0  0  0  0  0
  184.1050  178.1750  142.0400 C   0  0  0  0  0  3  0  0  0  0  0  0
  186.4680  178.3490  142.2180 C   0  0  0  0  0  0  0  0  0  0  0  0
  186.5620  178.6460  140.8570 C   0  0  0  0  0  3  0  0  0  0  0  0
  185.4050  178.7040  140.0830 C   0  0  0  0  0  0  0  0  0  0  0  0
  185.2440  178.1380  142.7790 N   0  0  0  0  0  0  0  0  0  0  0  0
  184.1560  178.4640  140.6690 C   0  0  0  0  0  0  0  0  0  0  0  0
  182.9810  178.4650  139.8400 N   0  0  0  0  0  2  0  0  0  0  0  0
  179.9550  181.4280  139.4990 C   0  0  0  0  0  0  0  0  0  0  0  0
  181.0170  181.3680  138.5830 C   0  0  0  0  0  3  0  0  0  0  0  0
  179.9060  180.5050  140.5490 C   0  0  0  0  0  3  0  0  0  0  0  0
  180.8950  179.5250  140.6760 C   0  0  0  0  0  3  0  0  0  0  0  0
  181.9530  179.4630  139.7560 C   0  0  0  0  0  0  0  0  0  0  0  0
  182.0100  180.3940  138.7160 C   0  0  0  0  0  3  0  0  0  0  0  0
  179.0730  183.5640  138.6210 C   0  0  0  0  0  1  0  0  0  0  0  0
  178.9310  182.3690  139.3790 O   0  0  0  0  0  0  0  0  0  0  0  0
  189.9680  176.4850  140.8090 C   0  0  0  0  0  3  0  0  0  0  0  0
  188.9870  178.4470  142.2250 C   0  0  0  0  0  3  0  0  0  0  0  0
  189.4680  177.4670  141.5060 C   0  0  0  0  0  0  0  0  0  0  0  0
  191.1940  176.6850  140.0490 C   0  0  0  0  0  3  0  0  0  0  0  0
  191.2650  176.2910  138.7860 C   0  0  0  0  0  3  0  0  0  0  0  0
  193.5460  176.9050  138.8270 O   0  0  0  0  0  1  0  0  0  0  0  0
  192.5090  176.5000  137.9820 C   0  0  1  0  0  3  0  0  0  0  0  0
  194.3450  174.8190  137.5420 C   0  0  0  0  0  0  0  0  0  0  0  0
  192.5340  175.2320  135.7460 C   0  0  0  0  0  2  0  0  0  0  0  0
  194.7030  175.1200  134.5940 C   0  0  0  0  0  2  0  0  0  0  0  0
  192.9070  175.2120  137.2490 C   0  0  2  0  0  3  0  0  0  0  0  0
  194.5590  174.0060  138.4770 O   0  0  0  0  0  0  0  0  0  0  0  0
  195.3590  176.0360  135.5900 C   0  0  1  0  0  3  0  0  0  0  0  0
  194.2600  176.9060  135.6160 O   0  0  0  0  0  0  0  0  0  0  0  0
  195.4500  175.3510  136.8440 O   0  0  0  0  0  0  0  0  0  0  0  0
  193.5120  176.0010  134.8430 C   0  0  2  0  0  3  0  0  0  0  0  0
  187.7410  177.1040  143.9780 C   0  0  0  0  0  2  0  0  0  0  0  0
  188.0630  178.2170  148.4740 C   0  0  0  0  0  3  0  0  0  0  0  0
  189.6950  176.8530  147.1300 C   0  0  0  0  0  2  0  0  0  0  0  0
  189.4930  177.5420  145.7990 C   0  0  0  0  0  2  0  0  0  0  0  0
  187.0330  177.8480  146.1720 C   0  0  0  0  0  3  0  0  0  0  0  0
  189.5030  177.8960  148.2070 C   0  0  0  0  0  2  0  0  0  0  0  0
  187.0430  178.2170  147.6040 C   0  0  0  0  0  3  0  0  0  0  0  0
  188.0560  177.5130  145.3800 C   0  0  0  0  0  0  0  0  0  0  0  0
  1 19  1  6  0  0  0
  1 34  1  0  0  0  0
  2  6  1  0  0  0  0
  3  7  1  0  0  0  0
  4  7  2  0  0  0  0
  4  1  1  0  0  0  0
  5  4  1  0  0  0  0
  6  8  1  0  0  0  0
  6  5  2  0  0  0  0
  8  3  2  0  0  0  0
  9  8  1  0  0  0  0
 10 12  1  0  0  0  0
 11 15  1  0  0  0  0
 11 10  2  0  0  0  0
 12 13  2  0  0  0  0
 14  9  1  0  0  0  0
 14 13  1  0  0  0  0
 15 14  2  0  0  0  0
 16 17  1  0  0  0  0
 17 10  1  0  0  0  0
 18 20  2  0  0  0  0
 20 19  2  0  0  0  0
 21 18  1  0  0  0  0
 22 21  2  0  0  0  0
 24 22  1  0  0  0  0
 24 23  1  1  0  0  0
 25 29  2  0  0  0  0
 26 28  1  0  0  0  0
 28 25  1  0  0  0  0
 28 24  1  6  0  0  0
 30 27  1  6  0  0  0
 30 31  1  0  0  0  0
 30 32  1  0  0  0  0
 32 25  1  0  0  0  0
 33 27  1  1  0  0  0
 33 31  1  0  0  0  0
 33 26  1  0  0  0  0
 34 41  1  0  0  0  0
 36 39  1  0  0  0  0
 37 36  1  0  0  0  0
 38 40  1  0  0  0  0
 39 35  1  0  0  0  0
 40 35  2  0  0  0  0
 41 37  1  0  0  0  0
 41 38  2  0  0  0  0
M  END
>  <MODEL>
5

>  <REMARK>
 VINA RESULT:      -8.6      1.713      2.258
  Name = 
  10 active torsions:
  status: ('A' for Active; 'I' for Inactive)
    1  A    between atoms: C_2  and  O_26
    2  A    between atoms: C_3  and  C_4
    3  A    between atoms: C_8  and  C_38
    4  A    between atoms: C_10  and  C_34
    5  A    between atoms: C_10  and  C_41
    6  A    between atoms: C_15  and  C_34
    7  A    between atoms: C_18  and  N_28
    8  A    between atoms: C_21  and  C_34
    9  A    between atoms: C_22  and  C_38
   10  A    between atoms: N_28  and  C_37
                            x       y       z     vdW  Elec       q    Type
                         _______ _______ _______ _____ _____    ______ ____

>  <TORSDO>
F 10

$$$$
=
 OpenBabel10222418443D

 41 45  0  0  1  0  0  0  0  0999 V2000
  184.2080  178.9750  139.7320 C   0  0  2  0  0  3  0  0  0  0  0  0
  184.7600  175.9430  135.9270 O   0  0  0  0  0  1  0  0  0  0  0  0
  187.2180  178.0630  137.6740 C   0  0  0  0  0  3  0  0  0  0  0  0
  185.0880  178.3540  138.6840 C   0  0  0  0  0  0  0  0  0  0  0  0
  184.5240  177.4450  137.7870 C   0  0  0  0  0  3  0  0  0  0  0  0
  185.3260  176.8440  136.8200 C   0  0  0  0  0  0  0  0  0  0  0  0
  186.4210  178.6280  138.6180 N   0  0  0  0  0  0  0  0  0  0  0  0
  186.6900  177.1500  136.7500 C   0  0  0  0  0  0  0  0  0  0  0  0
  187.4880  176.5680  135.7040 N   0  0  0  0  0  2  0  0  0  0  0  0
  191.2680  174.6510  136.0020 C   0  0  0  0  0  0  0  0  0  0  0  0
  191.0340  175.6490  135.0420 C   0  0  0  0  0  3  0  0  0  0  0  0
  190.2300  174.2750  136.8620 C   0  0  0  0  0  3  0  0  0  0  0  0
  188.9790  174.8950  136.7750 C   0  0  0  0  0  3  0  0  0  0  0  0
  188.7500  175.8950  135.8190 C   0  0  0  0  0  0  0  0  0  0  0  0
  189.7810  176.2610  134.9510 C   0  0  0  0  0  3  0  0  0  0  0  0
  193.2180  174.0090  137.3770 C   0  0  0  0  0  1  0  0  0  0  0  0
  192.5150  174.0390  136.1410 O   0  0  0  0  0  0  0  0  0  0  0  0
  183.3980  178.9760  143.2910 C   0  0  0  0  0  3  0  0  0  0  0  0
  184.8250  179.0020  141.1060 C   0  0  0  0  0  3  0  0  0  0  0  0
  184.1080  178.9750  142.1990 C   0  0  0  0  0  0  0  0  0  0  0  0
  184.0600  179.0080  144.5880 C   0  0  0  0  0  3  0  0  0  0  0  0
  185.3580  178.7580  144.6790 C   0  0  0  0  0  3  0  0  0  0  0  0
  185.1260  179.0030  147.0170 O   0  0  0  0  0  1  0  0  0  0  0  0
  186.0610  178.8000  145.9990 C   0  0  1  0  0  3  0  0  0  0  0  0
  187.9840  177.6990  147.2140 C   0  0  0  0  0  0  0  0  0  0  0  0
  187.2020  176.7540  144.9400 C   0  0  0  0  0  2  0  0  0  0  0  0
  189.6610  176.7790  144.9220 C   0  0  0  0  0  2  0  0  0  0  0  0
  186.8300  177.4960  146.2480 C   0  0  2  0  0  3  0  0  0  0  0  0
  187.7840  177.4720  148.4340 O   0  0  0  0  0  0  0  0  0  0  0  0
  189.7200  178.1820  145.4610 C   0  0  1  0  0  3  0  0  0  0  0  0
  188.6880  178.6220  144.6200 O   0  0  0  0  0  0  0  0  0  0  0  0
  189.2540  178.1670  146.8150 O   0  0  0  0  0  0  0  0  0  0  0  0
  188.4420  177.2990  144.2130 C   0  0  2  0  0  3  0  0  0  0  0  0
  182.8050  178.3640  139.7120 C   0  0  0  0  0  2  0  0  0  0  0  0
  179.5000  181.6240  139.6500 C   0  0  0  0  0  3  0  0  0  0  0  0
  181.6540  181.6260  138.3510 C   0  0  0  0  0  2  0  0  0  0  0  0
  181.7810  180.1310  138.1600 C   0  0  0  0  0  2  0  0  0  0  0  0
  180.8660  179.6210  140.4380 C   0  0  0  0  0  3  0  0  0  0  0  0
  180.1780  181.9520  138.3540 C   0  0  0  0  0  2  0  0  0  0  0  0
  179.7840  180.6280  140.5000 C   0  0  0  0  0  3  0  0  0  0  0  0
  181.7640  179.4080  139.4710 C   0  0  0  0  0  0  0  0  0  0  0  0
  1 34  1  1  0  0  0
  1 19  1  0  0  0  0
  2  6  1  0  0  0  0
  3  7  1  0  0  0  0
  4  1  1  0  0  0  0
  5  4  1  0  0  0  0
  6  5  2  0  0  0  0
  7  4  2  0  0  0  0
  8  6  1  0  0  0  0
  8  3  2  0  0  0  0
  9 14  1  0  0  0  0
  9  8  1  0  0  0  0
 10 17  1  0  0  0  0
 10 12  1  0  0  0  0
 11 10  2  0  0  0  0
 13 12  2  0  0  0  0
 14 13  1  0  0  0  0
 15 11  1  0  0  0  0
 15 14  2  0  0  0  0
 17 16  1  0  0  0  0
 18 21  1  0  0  0  0
 19 20  2  0  0  0  0
 20 18  2  0  0  0  0
 21 22  2  0  0  0  0
 22 24  1  0  0  0  0
 24 23  1  1  0  0  0
 25 29  2  0  0  0  0
 26 28  1  0  0  0  0
 28 24  1  6  0  0  0
 28 25  1  0  0  0  0
 30 27  1  6  0  0  0
 30 32  1  0  0  0  0
 31 30  1  0  0  0  0
 32 25  1  0  0  0  0
 33 31  1  0  0  0  0
 33 27  1  1  0  0  0
 33 26  1  0  0  0  0
 35 40  2  0  0  0  0
 36 39  1  0  0  0  0
 37 36  1  0  0  0  0
 37 41  1  0  0  0  0
 38 40  1  0  0  0  0
 39 35  1  0  0  0  0
 41 34  1  0  0  0  0
 41 38  2  0  0  0  0
M  END
>  <MODEL>
6

>  <REMARK>
 VINA RESULT:      -8.3      3.195      9.551
  Name = 
  10 active torsions:
  status: ('A' for Active; 'I' for Inactive)
    1  A    between atoms: C_2  and  O_26
    2  A    between atoms: C_3  and  C_4
    3  A    between atoms: C_8  and  C_38
    4  A    between atoms: C_10  and  C_34
    5  A    between atoms: C_10  and  C_41
    6  A    between atoms: C_15  and  C_34
    7  A    between atoms: C_18  and  N_28
    8  A    between atoms: C_21  and  C_34
    9  A    between atoms: C_22  and  C_38
   10  A    between atoms: N_28  and  C_37
                            x       y       z     vdW  Elec       q    Type
                         _______ _______ _______ _____ _____    ______ ____

>  <TORSDO>
F 10

$$$$
=
 OpenBabel10222418443D

 41 45  0  0  1  0  0  0  0  0999 V2000
  186.1840  178.0730  143.7290 C   0  0  2  0  0  3  0  0  0  0  0  0
  181.5060  179.5020  143.4980 O   0  0  0  0  0  1  0  0  0  0  0  0
  183.7130  178.1020  140.8970 C   0  0  0  0  0  3  0  0  0  0  0  0
  184.9270  178.2750  142.9320 C   0  0  0  0  0  0  0  0  0  0  0  0
  183.8030  178.8000  143.5730 C   0  0  0  0  0  3  0  0  0  0  0  0
  182.6210  178.9770  142.8570 C   0  0  0  0  0  0  0  0  0  0  0  0
  184.8510  177.9230  141.6180 N   0  0  0  0  0  0  0  0  0  0  0  0
  182.5630  178.6310  141.5010 C   0  0  0  0  0  0  0  0  0  0  0  0
  181.3540  178.8820  140.7640 N   0  0  0  0  0  2  0  0  0  0  0  0
  180.4400  182.1940  138.2660 C   0  0  0  0  0  0  0  0  0  0  0  0
  181.5060  181.3320  137.9650 C   0  0  0  0  0  3  0  0  0  0  0  0
  179.6790  181.9640  139.4170 C   0  0  0  0  0  3  0  0  0  0  0  0
  179.9690  180.8790  140.2510 C   0  0  0  0  0  3  0  0  0  0  0  0
  181.0310  180.0150  139.9450 C   0  0  0  0  0  0  0  0  0  0  0  0
  181.8000  180.2540  138.8040 C   0  0  0  0  0  3  0  0  0  0  0  0
  181.0260  184.2800  137.0770 C   0  0  0  0  0  1  0  0  0  0  0  0
  180.0990  183.2630  137.4350 O   0  0  0  0  0  0  0  0  0  0  0  0
  188.7970  178.0620  141.1800 C   0  0  0  0  0  3  0  0  0  0  0  0
  187.1990  177.1910  143.0500 C   0  0  0  0  0  3  0  0  0  0  0  0
  188.0080  177.6330  142.1230 C   0  0  0  0  0  0  0  0  0  0  0  0
  189.7530  177.1520  140.5630 C   0  0  0  0  0  3  0  0  0  0  0  0
  189.6230  176.8110  139.2900 C   0  0  0  0  0  3  0  0  0  0  0  0
  189.9080  174.8740  137.9680 O   0  0  0  0  0  1  0  0  0  0  0  0
  190.6010  175.8900  138.6330 C   0  0  1  0  0  3  0  0  0  0  0  0
  191.2970  176.1550  136.2180 C   0  0  0  0  0  0  0  0  0  0  0  0
  192.9620  176.7530  138.1010 C   0  0  0  0  0  2  0  0  0  0  0  0
  194.2070  175.5050  136.3860 C   0  0  0  0  0  2  0  0  0  0  0  0
  191.4870  176.6530  137.6400 C   0  0  2  0  0  3  0  0  0  0  0  0
  190.4680  176.7510  135.4860 O   0  0  0  0  0  0  0  0  0  0  0  0
  193.1420  174.4480  136.2830 C   0  0  1  0  0  3  0  0  0  0  0  0
  192.9760  174.3830  137.6740 O   0  0  0  0  0  0  0  0  0  0  0  0
  191.9760  175.0340  135.6940 O   0  0  0  0  0  0  0  0  0  0  0  0
  193.8140  175.5010  137.8370 C   0  0  2  0  0  3  0  0  0  0  0  0
  185.8690  177.6390  145.1630 C   0  0  0  0  0  2  0  0  0  0  0  0
  189.0540  178.2520  148.4840 C   0  0  0  0  0  3  0  0  0  0  0  0
  189.2670  176.8200  146.4270 C   0  0  0  0  0  2  0  0  0  0  0  0
  188.4110  177.6570  145.5030 C   0  0  0  0  0  2  0  0  0  0  0  0
  186.7870  178.2520  147.3190 C   0  0  0  0  0  3  0  0  0  0  0  0
  189.9510  177.7690  147.3850 C   0  0  0  0  0  2  0  0  0  0  0  0
  187.7340  178.4740  148.4340 C   0  0  0  0  0  3  0  0  0  0  0  0
  187.0390  177.8630  146.0650 C   0  0  0  0  0  0  0  0  0  0  0  0
  1 19  1  6  0  0  0
  1 34  1  0  0  0  0
  3  8  2  0  0  0  0
  3  7  1  0  0  0  0
  4  5  1  0  0  0  0
  4  1  1  0  0  0  0
  6  2  1  0  0  0  0
  6  5  2  0  0  0  0
  7  4  2  0  0  0  0
  8  6  1  0  0  0  0
  9  8  1  0  0  0  0
 10 12  1  0  0  0  0
 11 10  2  0  0  0  0
 11 15  1  0  0  0  0
 12 13  2  0  0  0  0
 14 13  1  0  0  0  0
 14  9  1  0  0  0  0
 15 14  2  0  0  0  0
 16 17  1  0  0  0  0
 17 10  1  0  0  0  0
 18 20  2  0  0  0  0
 20 19  2  0  0  0  0
 21 18  1  0  0  0  0
 22 21  2  0  0  0  0
 24 23  1  6  0  0  0
 24 22  1  0  0  0  0
 25 28  1  0  0  0  0
 28 26  1  0  0  0  0
 28 24  1  1  0  0  0
 29 25  2  0  0  0  0
 30 27  1  1  0  0  0
 30 31  1  0  0  0  0
 31 33  1  0  0  0  0
 32 25  1  0  0  0  0
 32 30  1  0  0  0  0
 33 27  1  6  0  0  0
 33 26  1  0  0  0  0
 34 41  1  0  0  0  0
 36 39  1  0  0  0  0
 37 41  1  0  0  0  0
 37 36  1  0  0  0  0
 38 40  1  0  0  0  0
 39 35  1  0  0  0  0
 40 35  2  0  0  0  0
 41 38  2  0  0  0  0
M  END
>  <MODEL>
7

>  <REMARK>
 VINA RESULT:      -8.1      1.436      2.232
  Name = 
  10 active torsions:
  status: ('A' for Active; 'I' for Inactive)
    1  A    between atoms: C_2  and  O_26
    2  A    between atoms: C_3  and  C_4
    3  A    between atoms: C_8  and  C_38
    4  A    between atoms: C_10  and  C_34
    5  A    between atoms: C_10  and  C_41
    6  A    between atoms: C_15  and  C_34
    7  A    between atoms: C_18  and  N_28
    8  A    between atoms: C_21  and  C_34
    9  A    between atoms: C_22  and  C_38
   10  A    between atoms: N_28  and  C_37
                            x       y       z     vdW  Elec       q    Type
                         _______ _______ _______ _____ _____    ______ ____

>  <TORSDO>
F 10

$$$$
=
 OpenBabel10222418443D

 41 45  0  0  1  0  0  0  0  0999 V2000
  186.5330  178.1750  142.9420 C   0  0  2  0  0  3  0  0  0  0  0  0
  181.8680  179.0060  144.1790 O   0  0  0  0  0  1  0  0  0  0  0  0
  183.4070  178.4620  140.8740 C   0  0  0  0  0  3  0  0  0  0  0  0
  185.0980  178.3720  142.5400 C   0  0  0  0  0  0  0  0  0  0  0  0
  184.1480  178.6050  143.5360 C   0  0  0  0  0  3  0  0  0  0  0  0
  182.8100  178.7710  143.1860 C   0  0  0  0  0  0  0  0  0  0  0  0
  184.7040  178.2890  141.2380 N   0  0  0  0  0  0  0  0  0  0  0  0
  182.4220  178.7050  141.8420 C   0  0  0  0  0  0  0  0  0  0  0  0
  181.0470  178.9430  141.4960 N   0  0  0  0  0  2  0  0  0  0  0  0
  179.4230  182.0360  139.0780 C   0  0  0  0  0  0  0  0  0  0  0  0
  178.9700  181.8280  140.3900 C   0  0  0  0  0  3  0  0  0  0  0  0
  180.4140  181.1980  138.5570 C   0  0  0  0  0  3  0  0  0  0  0  0
  180.9580  180.1730  139.3400 C   0  0  0  0  0  3  0  0  0  0  0  0
  180.5080  179.9710  140.6530 C   0  0  0  0  0  0  0  0  0  0  0  0
  179.5080  180.7990  141.1680 C   0  0  0  0  0  3  0  0  0  0  0  0
  179.6930  184.2340  137.9810 C   0  0  0  0  0  1  0  0  0  0  0  0
  178.9300  183.0720  138.2830 O   0  0  0  0  0  0  0  0  0  0  0  0
  189.6400  176.7570  141.6530 C   0  0  0  0  0  3  0  0  0  0  0  0
  187.5030  178.2490  141.7920 C   0  0  0  0  0  3  0  0  0  0  0  0
  188.5650  177.4910  141.7180 C   0  0  0  0  0  0  0  0  0  0  0  0
  190.5380  176.8840  140.5130 C   0  0  0  0  0  3  0  0  0  0  0  0
  190.0700  176.7590  139.2800 C   0  0  0  0  0  3  0  0  0  0  0  0
  191.5140  175.6530  137.7730 O   0  0  0  0  0  1  0  0  0  0  0  0
  190.9710  176.9000  138.0950 C   0  0  1  0  0  3  0  0  0  0  0  0
  188.9440  178.1940  137.3170 C   0  0  0  0  0  0  0  0  0  0  0  0
  189.9970  176.4160  135.7660 C   0  0  0  0  0  2  0  0  0  0  0  0
  187.5550  176.1400  135.6540 C   0  0  0  0  0  2  0  0  0  0  0  0
  190.2040  177.4610  136.8910 C   0  0  2  0  0  3  0  0  0  0  0  0
  189.0090  179.4380  137.4850 O   0  0  0  0  0  0  0  0  0  0  0  0
  187.4080  176.2100  137.1490 C   0  0  1  0  0  3  0  0  0  0  0  0
  188.5210  175.3840  137.3650 O   0  0  0  0  0  0  0  0  0  0  0  0
  187.7180  177.5420  137.5730 O   0  0  0  0  0  0  0  0  0  0  0  0
  188.8370  175.4330  135.9960 C   0  0  2  0  0  3  0  0  0  0  0  0
  186.7020  176.9140  143.7940 C   0  0  0  0  0  2  0  0  0  0  0  0
  188.9530  178.1180  147.6720 C   0  0  0  0  0  3  0  0  0  0  0  0
  186.6020  178.7410  147.0300 C   0  0  0  0  0  2  0  0  0  0  0  0
  186.2610  177.4880  146.2540 C   0  0  0  0  0  2  0  0  0  0  0  0
  188.5680  177.2860  145.2940 C   0  0  0  0  0  3  0  0  0  0  0  0
  187.5460  178.3370  148.1390 C   0  0  0  0  0  2  0  0  0  0  0  0
  189.3650  177.6520  146.4850 C   0  0  0  0  0  3  0  0  0  0  0  0
  187.2390  177.2450  145.1480 C   0  0  0  0  0  0  0  0  0  0  0  0
  1 19  1  6  0  0  0
  1 34  1  0  0  0  0
  3  7  2  0  0  0  0
  3  8  1  0  0  0  0
  4  1  1  0  0  0  0
  4  5  2  0  0  0  0
  6  5  1  0  0  0  0
  6  2  1  0  0  0  0
  7  4  1  0  0  0  0
  8  6  2  0  0  0  0
  9  8  1  0  0  0  0
 10 11  1  0  0  0  0
 11 15  2  0  0  0  0
 12 10  2  0  0  0  0
 12 13  1  0  0  0  0
 13 14  2  0  0  0  0
 14 15  1  0  0  0  0
 14  9  1  0  0  0  0
 16 17  1  0  0  0  0
 17 10  1  0  0  0  0
 18 20  2  0  0  0  0
 20 19  2  0  0  0  0
 21 18  1  0  0  0  0
 22 21  2  0  0  0  0
 24 23  1  6  0  0  0
 24 22  1  0  0  0  0
 25 29  2  0  0  0  0
 25 32  1  0  0  0  0
 26 33  1  0  0  0  0
 26 28  1  0  0  0  0
 28 25  1  0  0  0  0
 28 24  1  1  0  0  0
 30 27  1  6  0  0  0
 30 31  1  0  0  0  0
 30 32  1  0  0  0  0
 33 27  1  6  0  0  0
 33 31  1  0  0  0  0
 34 41  1  0  0  0  0
 35 39  1  0  0  0  0
 36 39  1  0  0  0  0
 37 36  1  0  0  0  0
 38 40  1  0  0  0  0
 40 35  2  0  0  0  0
 41 38  2  0  0  0  0
 41 37  1  0  0  0  0
M  END
>  <MODEL>
8

>  <REMARK>
 VINA RESULT:      -8.1      2.123      2.984
  Name = 
  10 active torsions:
  status: ('A' for Active; 'I' for Inactive)
    1  A    between atoms: C_2  and  O_26
    2  A    between atoms: C_3  and  C_4
    3  A    between atoms: C_8  and  C_38
    4  A    between atoms: C_10  and  C_34
    5  A    between atoms: C_10  and  C_41
    6  A    between atoms: C_15  and  C_34
    7  A    between atoms: C_18  and  N_28
    8  A    between atoms: C_21  and  C_34
    9  A    between atoms: C_22  and  C_38
   10  A    between atoms: N_28  and  C_37
                            x       y       z     vdW  Elec       q    Type
                         _______ _______ _______ _____ _____    ______ ____

>  <TORSDO>
F 10

$$$$
=
 OpenBabel10222418443D

 41 45  0  0  1  0  0  0  0  0999 V2000
  186.9930  178.4740  142.4120 C   0  0  2  0  0  3  0  0  0  0  0  0
  182.1140  178.6080  142.8170 O   0  0  0  0  0  1  0  0  0  0  0  0
  184.2810  178.9580  139.8550 C   0  0  0  0  0  3  0  0  0  0  0  0
  185.6410  178.6350  141.7760 C   0  0  0  0  0  0  0  0  0  0  0  0
  184.5050  178.5570  142.5830 C   0  0  0  0  0  3  0  0  0  0  0  0
  183.2420  178.6840  142.0100 C   0  0  0  0  0  0  0  0  0  0  0  0
  185.5030  178.8160  140.4320 N   0  0  0  0  0  0  0  0  0  0  0  0
  183.1150  178.8910  140.6310 C   0  0  0  0  0  0  0  0  0  0  0  0
  181.8060  179.0850  140.0680 N   0  0  0  0  0  2  0  0  0  0  0  0
  180.7580  181.4790  136.7180 C   0  0  0  0  0  0  0  0  0  0  0  0
  181.0360  182.0600  137.9650 C   0  0  0  0  0  3  0  0  0  0  0  0
  180.8120  180.0870  136.5850 C   0  0  0  0  0  3  0  0  0  0  0  0
  181.1530  179.2850  137.6790 C   0  0  0  0  0  3  0  0  0  0  0  0
  181.4370  179.8680  138.9240 C   0  0  0  0  0  0  0  0  0  0  0  0
  181.3680  181.2560  139.0600 C   0  0  0  0  0  3  0  0  0  0  0  0
  180.8050  183.6250  135.4940 C   0  0  0  0  0  1  0  0  0  0  0  0
  180.4510  182.2520  135.5970 O   0  0  0  0  0  0  0  0  0  0  0  0
  189.8680  176.9210  140.7860 C   0  0  0  0  0  3  0  0  0  0  0  0
  188.1420  178.7520  141.4790 C   0  0  0  0  0  3  0  0  0  0  0  0
  188.9970  177.8290  141.1230 C   0  0  0  0  0  0  0  0  0  0  0  0
  190.9590  177.2600  139.8820 C   0  0  0  0  0  3  0  0  0  0  0  0
  191.4610  176.3420  139.0700 C   0  0  0  0  0  3  0  0  0  0  0  0
  193.7980  176.4950  138.7660 O   0  0  0  0  0  1  0  0  0  0  0  0
  192.5700  176.6720  138.1230 C   0  0  1  0  0  3  0  0  0  0  0  0
  192.4620  174.3090  137.2330 C   0  0  0  0  0  0  0  0  0  0  0  0
  193.5610  176.1620  135.8070 C   0  0  0  0  0  2  0  0  0  0  0  0
  194.9980  174.1710  135.6630 C   0  0  0  0  0  2  0  0  0  0  0  0
  192.5040  175.7830  136.8740 C   0  0  2  0  0  3  0  0  0  0  0  0
  191.3390  173.7530  137.3300 O   0  0  0  0  0  0  0  0  0  0  0  0
  194.9480  173.9410  137.1490 C   0  0  1  0  0  3  0  0  0  0  0  0
  195.1170  175.3040  137.4330 O   0  0  0  0  0  0  0  0  0  0  0  0
  193.6180  173.5450  137.5020 O   0  0  0  0  0  0  0  0  0  0  0  0
  194.9750  175.6170  136.0700 C   0  0  2  0  0  3  0  0  0  0  0  0
  187.1100  177.1270  143.1310 C   0  0  0  0  0  2  0  0  0  0  0  0
  188.8770  177.8780  147.3580 C   0  0  0  0  0  3  0  0  0  0  0  0
  186.6490  178.6570  146.4870 C   0  0  0  0  0  2  0  0  0  0  0  0
  186.3730  177.4940  145.5590 C   0  0  0  0  0  2  0  0  0  0  0  0
  188.7770  177.2820  144.8820 C   0  0  0  0  0  3  0  0  0  0  0  0
  187.4280  178.1140  147.6630 C   0  0  0  0  0  2  0  0  0  0  0  0
  189.4240  177.5050  146.1930 C   0  0  0  0  0  3  0  0  0  0  0  0
  187.4780  177.3110  144.5670 C   0  0  0  0  0  0  0  0  0  0  0  0
  1 19  1  6  0  0  0
  1 34  1  0  0  0  0
  3  7  2  0  0  0  0
  3  8  1  0  0  0  0
  4  1  1  0  0  0  0
  4  5  2  0  0  0  0
  6  5  1  0  0  0  0
  6  2  1  0  0  0  0
  7  4  1  0  0  0  0
  8  6  2  0  0  0  0
  9  8  1  0  0  0  0
 10 11  1  0  0  0  0
 11 15  2  0  0  0  0
 12 10  2  0  0  0  0
 12 13  1  0  0  0  0
 13 14  2  0  0  0  0
 14 15  1  0  0  0  0
 14  9  1  0  0  0  0
 16 17  1  0  0  0  0
 17 10  1  0  0  0  0
 18 20  2  0  0  0  0
 20 19  2  0  0  0  0
 21 18  1  0  0  0  0
 22 21  2  0  0  0  0
 24 23  1  1  0  0  0
 24 22  1  0  0  0  0
 25 29  2  0  0  0  0
 25 32  1  0  0  0  0
 26 33  1  0  0  0  0
 26 28  1  0  0  0  0
 28 25  1  0  0  0  0
 28 24  1  1  0  0  0
 30 27  1  6  0  0  0
 30 31  1  0  0  0  0
 30 32  1  0  0  0  0
 33 27  1  6  0  0  0
 33 31  1  0  0  0  0
 34 41  1  0  0  0  0
 35 39  1  0  0  0  0
 36 39  1  0  0  0  0
 37 36  1  0  0  0  0
 38 40  1  0  0  0  0
 40 35  2  0  0  0  0
 41 38  2  0  0  0  0
 41 37  1  0  0  0  0
M  END
>  <MODEL>
9

>  <REMARK>
 VINA RESULT:      -8.0      1.032      2.075
  Name = 
  10 active torsions:
  status: ('A' for Active; 'I' for Inactive)
    1  A    between atoms: C_2  and  O_26
    2  A    between atoms: C_3  and  C_4
    3  A    between atoms: C_8  and  C_38
    4  A    between atoms: C_10  and  C_34
    5  A    between atoms: C_10  and  C_41
    6  A    between atoms: C_15  and  C_34
    7  A    between atoms: C_18  and  N_28
    8  A    between atoms: C_21  and  C_34
    9  A    between atoms: C_22  and  C_38
   10  A    between atoms: N_28  and  C_37
                            x       y       z     vdW  Elec       q    Type
                         _______ _______ _______ _____ _____    ______ ____

>  <TORSDO>
F 10

$$$$
