=
 OpenBabel10222421223D

 39 46  0  0  1  0  0  0  0  0999 V2000
  186.9200  176.2900  135.3220 C   0  0  1  0  0  3  0  0  0  0  0  0
  189.7730  176.6310  140.7250 C   0  0  1  0  0  3  0  0  0  0  0  0
  188.4250  178.6470  139.6870 C   0  0  0  0  0  2  0  0  0  0  0  0
  187.5550  177.8680  138.6880 C   0  0  0  0  0  2  0  0  0  0  0  0
  190.4890  176.4650  138.3370 C   0  0  1  0  0  0  0  0  0  0  0  0
  189.7740  178.0230  140.1530 C   0  0  2  0  0  3  0  0  0  0  0  0
  188.4310  177.4320  137.5440 C   0  0  2  0  0  3  0  0  0  0  0  0
  187.8130  176.6460  136.4350 C   0  0  0  0  0  0  0  0  0  0  0  0
  188.6220  175.6330  136.6760 C   0  0  0  0  0  0  0  0  0  0  0  0
  187.3210  174.8660  135.0040 N   0  0  0  0  0  2  0  0  0  0  0  0
  190.7610  177.7180  139.1020 N   0  0  1  0  0  0  0  0  0  0  0  0
  190.9070  176.3790  139.7340 C   0  0  1  0  0  3  0  0  0  0  0  0
  189.0180  176.2190  137.9850 C   0  0  1  0  0  3  0  0  0  0  0  0
  188.3730  174.5040  135.9010 N   0  0  0  0  0  0  0  0  0  0  0  0
  188.4740  173.1650  136.4490 C   0  0  0  0  0  1  0  0  0  0  0  0
  181.5220  176.6880  136.8660 F   0  0  0  0  0  0  0  0  0  0  0  0
  185.0560  175.7910  136.9610 C   0  0  0  0  0  3  0  0  0  0  0  0
  182.8240  176.5750  136.5100 C   0  0  0  0  0  0  0  0  0  0  0  0
  183.2600  177.1240  135.3440 N   0  0  0  0  0  0  0  0  0  0  0  0
  183.7170  175.8980  137.3430 C   0  0  0  0  0  3  0  0  0  0  0  0
  185.4860  176.3550  135.7530 C   0  0  0  0  0  0  0  0  0  0  0  0
  184.5600  177.0300  134.9540 C   0  0  0  0  0  3  0  0  0  0  0  0
  190.3050  176.6580  142.1180 C   0  0  0  0  0  3  0  0  0  0  0  0
  190.2900  175.5970  142.8370 N   0  0  0  0  0  2  0  0  0  0  0  0
  191.4760  176.2600  137.3550 O   0  0  0  0  0  0  0  0  0  0  0  0
  193.6740  174.5500  135.2260 C   0  0  1  0  0  3  0  0  0  0  0  0
  192.2400  175.1480  137.7480 C   0  0  1  0  0  3  0  0  0  0  0  0
  192.2040  174.1630  135.4220 C   0  0  0  0  0  2  0  0  0  0  0  0
  191.8720  173.9310  136.8980 C   0  0  0  0  0  2  0  0  0  0  0  0
  193.7300  175.4520  137.5960 C   0  0  0  0  0  2  0  0  0  0  0  0
  194.0740  175.5790  136.1840 N   0  0  0  0  0  0  0  0  0  0  0  0
  196.2220  171.1540  135.3390 N   0  0  0  0  0  0  0  0  0  0  0  0
  194.9650  171.0200  134.8380 C   0  0  0  0  0  3  0  0  0  0  0  0
  194.5890  173.3600  135.2540 C   0  0  0  0  0  0  0  0  0  0  0  0
  196.6710  172.3270  135.7890 N   0  0  0  0  0  0  0  0  0  0  0  0
  194.1240  172.1310  134.7910 C   0  0  0  0  0  3  0  0  0  0  0  0
  195.8890  173.4390  135.7650 C   0  0  0  0  0  3  0  0  0  0  0  0
  195.1860  177.7250  135.3450 N   0  0  0  0  0  0  0  0  0  0  0  0
  194.6830  176.7540  135.7250 C   0  0  0  0  0  0  0  0  0  0  0  0
  1 21  1  1  0  0  0
  1  8  1  0  0  0  0
  2 23  1  1  0  0  0
  4  3  1  0  0  0  0
  5 25  1  6  0  0  0
  5 11  1  0  0  0  0
  5 12  1  0  0  0  0
  6  3  1  6  0  0  0
  6  2  1  0  0  0  0
  7 13  1  0  0  0  0
  7  4  1  1  0  0  0
  8  9  2  0  0  0  0
  8  7  1  0  0  0  0
  9 13  1  0  0  0  0
 10  1  1  0  0  0  0
 10 14  1  0  0  0  0
 11 12  1  0  0  0  0
 11  6  1  0  0  0  0
 12  2  1  0  0  0  0
 13  5  1  0  0  0  0
 14 15  1  0  0  0  0
 14  9  1  0  0  0  0
 17 20  1  0  0  0  0
 18 16  1  0  0  0  0
 18 20  2  0  0  0  0
 19 18  1  0  0  0  0
 21 17  2  0  0  0  0
 22 19  2  0  0  0  0
 22 21  1  0  0  0  0
 23 24  2  0  0  0  0
 25 27  1  0  0  0  0
 26 34  1  0  0  0  0
 26 28  1  0  0  0  0
 26 31  1  0  0  0  0
 28 29  1  0  0  0  0
 29 27  1  0  0  0  0
 30 27  1  0  0  0  0
 31 30  1  0  0  0  0
 32 35  1  0  0  0  0
 33 32  2  0  0  0  0
 34 37  1  0  0  0  0
 36 33  1  0  0  0  0
 36 34  2  0  0  0  0
 37 35  2  0  0  0  0
 38 39  3  0  0  0  0
 39 31  1  0  0  0  0
M  END
>  <MODEL>
1

>  <REMARK>
 VINA RESULT:      -5.7      0.000      0.000
  Name = 
  6 active torsions:
  status: ('A' for Active; 'I' for Inactive)
    1  A    between atoms: C_4  and  C_6
    2  A    between atoms: C_5  and  C_35
    3  A    between atoms: C_7  and  C_11
    4  A    between atoms: C_14  and  O_36
    5  A    between atoms: C_19  and  O_36
    6  A    between atoms: C_26  and  N_34
                            x       y       z     vdW  Elec       q    Type
                         _______ _______ _______ _____ _____    ______ ____

>  <TORSDO>
F 6

$$$$
=
 OpenBabel10222421223D

 39 46  0  0  1  0  0  0  0  0999 V2000
  188.0560  178.2830  136.4090 C   0  0  1  0  0  3  0  0  0  0  0  0
  183.9000  173.8260  136.9610 C   0  0  1  0  0  3  0  0  0  0  0  0
  185.4270  174.1040  134.8280 C   0  0  0  0  0  2  0  0  0  0  0  0
  186.5410  174.9670  135.4400 C   0  0  0  0  0  2  0  0  0  0  0  0
  183.8270  176.3070  136.6800 C   0  0  1  0  0  0  0  0  0  0  0  0
  184.0170  174.1200  135.4890 C   0  0  2  0  0  3  0  0  0  0  0  0
  185.9990  176.3570  135.6410 C   0  0  2  0  0  3  0  0  0  0  0  0
  186.8980  177.3920  136.2330 C   0  0  0  0  0  0  0  0  0  0  0  0
  186.0760  177.5530  137.2520 C   0  0  0  0  0  0  0  0  0  0  0  0
  187.7800  178.9440  137.7420 N   0  0  0  0  0  2  0  0  0  0  0  0
  183.3410  175.4260  135.5760 N   0  0  1  0  0  0  0  0  0  0  0  0
  183.0650  175.1030  137.0020 C   0  0  1  0  0  3  0  0  0  0  0  0
  185.3440  176.3070  136.8980 C   0  0  1  0  0  3  0  0  0  0  0  0
  186.5390  178.4270  138.2300 N   0  0  0  0  0  0  0  0  0  0  0  0
  186.3290  178.1720  139.6420 C   0  0  0  0  0  1  0  0  0  0  0  0
  192.7720  175.2120  136.4810 F   0  0  0  0  0  0  0  0  0  0  0  0
  190.0450  177.3320  137.6530 C   0  0  0  0  0  3  0  0  0  0  0  0
  191.6430  175.9610  136.4850 C   0  0  0  0  0  0  0  0  0  0  0  0
  190.9310  176.1210  135.3370 N   0  0  0  0  0  0  0  0  0  0  0  0
  191.2100  176.5640  137.6670 C   0  0  0  0  0  3  0  0  0  0  0  0
  189.3280  177.4940  136.4600 C   0  0  0  0  0  0  0  0  0  0  0  0
  189.7930  176.8660  135.3010 C   0  0  0  0  0  3  0  0  0  0  0  0
  183.0260  172.6350  137.1690 C   0  0  0  0  0  3  0  0  0  0  0  0
  183.4760  171.4560  136.9500 N   0  0  0  0  0  2  0  0  0  0  0  0
  183.1310  177.5300  136.6800 O   0  0  0  0  0  0  0  0  0  0  0  0
  181.7360  180.3640  138.2000 C   0  0  1  0  0  3  0  0  0  0  0  0
  182.1810  177.4760  137.7130 C   0  0  1  0  0  3  0  0  0  0  0  0
  182.9880  179.6490  138.7190 C   0  0  0  0  0  2  0  0  0  0  0  0
  182.7270  178.1610  138.9670 C   0  0  0  0  0  2  0  0  0  0  0  0
  180.8850  178.1600  137.2750 C   0  0  0  0  0  2  0  0  0  0  0  0
  181.1020  179.5950  137.1300 N   0  0  0  0  0  0  0  0  0  0  0  0
  179.0300  181.3920  141.3090 N   0  0  0  0  0  0  0  0  0  0  0  0
  178.9500  182.0460  140.1200 C   0  0  0  0  0  3  0  0  0  0  0  0
  180.7730  180.7070  139.3000 C   0  0  0  0  0  0  0  0  0  0  0  0
  179.9350  180.4330  141.5150 N   0  0  0  0  0  0  0  0  0  0  0  0
  179.8300  181.7110  139.0920 C   0  0  0  0  0  3  0  0  0  0  0  0
  180.8150  180.0700  140.5450 C   0  0  0  0  0  3  0  0  0  0  0  0
  180.5760  180.7300  134.8980 N   0  0  0  0  0  0  0  0  0  0  0  0
  180.8130  180.2170  135.9070 C   0  0  0  0  0  0  0  0  0  0  0  0
  1 21  1  1  0  0  0
  1 10  1  0  0  0  0
  2 12  1  0  0  0  0
  2 23  1  6  0  0  0
  3  4  1  0  0  0  0
  5 25  1  1  0  0  0
  5 13  1  0  0  0  0
  5 12  1  0  0  0  0
  6  3  1  1  0  0  0
  6 11  1  0  0  0  0
  6  2  1  0  0  0  0
  7  4  1  1  0  0  0
  7  8  1  0  0  0  0
  7 13  1  0  0  0  0
  8  1  1  0  0  0  0
  8  9  2  0  0  0  0
  9 14  1  0  0  0  0
 10 14  1  0  0  0  0
 11  5  1  0  0  0  0
 11 12  1  0  0  0  0
 13  9  1  0  0  0  0
 14 15  1  0  0  0  0
 16 18  1  0  0  0  0
 17 20  1  0  0  0  0
 18 20  2  0  0  0  0
 19 18  1  0  0  0  0
 21 17  2  0  0  0  0
 22 19  2  0  0  0  0
 22 21  1  0  0  0  0
 24 23  2  0  0  0  0
 25 27  1  0  0  0  0
 26 28  1  0  0  0  0
 26 34  1  0  0  0  0
 27 29  1  0  0  0  0
 28 29  1  0  0  0  0
 30 27  1  0  0  0  0
 31 30  1  0  0  0  0
 31 26  1  0  0  0  0
 32 35  1  0  0  0  0
 33 32  2  0  0  0  0
 34 37  1  0  0  0  0
 36 34  2  0  0  0  0
 36 33  1  0  0  0  0
 37 35  2  0  0  0  0
 38 39  3  0  0  0  0
 39 31  1  0  0  0  0
M  END
>  <MODEL>
2

>  <REMARK>
 VINA RESULT:      -5.4      4.310     10.837
  Name = 
  6 active torsions:
  status: ('A' for Active; 'I' for Inactive)
    1  A    between atoms: C_4  and  C_6
    2  A    between atoms: C_5  and  C_35
    3  A    between atoms: C_7  and  C_11
    4  A    between atoms: C_14  and  O_36
    5  A    between atoms: C_19  and  O_36
    6  A    between atoms: C_26  and  N_34
                            x       y       z     vdW  Elec       q    Type
                         _______ _______ _______ _____ _____    ______ ____

>  <TORSDO>
F 6

$$$$
=
 OpenBabel10222421223D

 39 46  0  0  1  0  0  0  0  0999 V2000
  188.6850  178.1820  136.6710 C   0  0  1  0  0  3  0  0  0  0  0  0
  184.3820  173.8740  137.2820 C   0  0  1  0  0  3  0  0  0  0  0  0
  185.7210  174.2530  135.0410 C   0  0  0  0  0  2  0  0  0  0  0  0
  186.9270  175.0190  135.6070 C   0  0  0  0  0  2  0  0  0  0  0  0
  184.4060  176.3710  137.1930 C   0  0  1  0  0  0  0  0  0  0  0  0
  184.3790  174.2770  135.8310 C   0  0  2  0  0  3  0  0  0  0  0  0
  186.4750  176.4100  135.9610 C   0  0  2  0  0  3  0  0  0  0  0  0
  187.4740  177.3570  136.5400 C   0  0  0  0  0  0  0  0  0  0  0  0
  186.7570  177.4720  137.6400 C   0  0  0  0  0  0  0  0  0  0  0  0
  188.5640  178.7470  138.0690 N   0  0  0  0  0  2  0  0  0  0  0  0
  183.7800  175.6000  136.0780 N   0  0  1  0  0  0  0  0  0  0  0  0
  183.6180  175.1790  137.4960 C   0  0  1  0  0  3  0  0  0  0  0  0
  185.9340  176.2900  137.2660 C   0  0  1  0  0  3  0  0  0  0  0  0
  187.3490  178.2470  138.6330 N   0  0  0  0  0  0  0  0  0  0  0  0
  187.2550  177.8920  140.0360 C   0  0  0  0  0  1  0  0  0  0  0  0
  193.2320  174.9190  136.0710 F   0  0  0  0  0  0  0  0  0  0  0  0
  190.7240  177.0450  137.6500 C   0  0  0  0  0  3  0  0  0  0  0  0
  192.1460  175.7120  136.2360 C   0  0  0  0  0  0  0  0  0  0  0  0
  191.3470  175.9990  135.1740 N   0  0  0  0  0  0  0  0  0  0  0  0
  191.8470  176.2300  137.4980 C   0  0  0  0  0  3  0  0  0  0  0  0
  189.9170  177.3380  136.5430 C   0  0  0  0  0  0  0  0  0  0  0  0
  190.2480  176.7920  135.3010 C   0  0  0  0  0  3  0  0  0  0  0  0
  183.4730  172.7090  137.4820 C   0  0  0  0  0  3  0  0  0  0  0  0
  183.6060  171.6540  136.7670 N   0  0  0  0  0  2  0  0  0  0  0  0
  183.7740  177.6180  137.3480 O   0  0  0  0  0  0  0  0  0  0  0  0
  181.0760  179.1420  138.9890 C   0  0  1  0  0  3  0  0  0  0  0  0
  183.7600  177.9170  138.7210 C   0  0  1  0  0  3  0  0  0  0  0  0
  182.2520  179.9160  138.3840 C   0  0  0  0  0  2  0  0  0  0  0  0
  183.5950  179.4230  138.9310 C   0  0  0  0  0  2  0  0  0  0  0  0
  182.6180  177.1720  139.4120 C   0  0  0  0  0  2  0  0  0  0  0  0
  181.3340  177.7030  138.9680 N   0  0  0  0  0  0  0  0  0  0  0  0
  180.0130  180.4770  142.8780 N   0  0  0  0  0  0  0  0  0  0  0  0
  180.7800  179.3620  142.7490 C   0  0  0  0  0  3  0  0  0  0  0  0
  180.7090  179.6330  140.3600 C   0  0  0  0  0  0  0  0  0  0  0  0
  179.5940  181.1610  141.8110 N   0  0  0  0  0  0  0  0  0  0  0  0
  181.1390  178.9200  141.4770 C   0  0  0  0  0  3  0  0  0  0  0  0
  179.9170  180.7700  140.5500 C   0  0  0  0  0  3  0  0  0  0  0  0
  179.6070  176.1240  137.9340 N   0  0  0  0  0  0  0  0  0  0  0  0
  180.3880  176.8380  138.4020 C   0  0  0  0  0  0  0  0  0  0  0  0
  1 21  1  1  0  0  0
  1 10  1  0  0  0  0
  2 23  1  6  0  0  0
  2 12  1  0  0  0  0
  3  4  1  0  0  0  0
  5 13  1  0  0  0  0
  5 25  1  1  0  0  0
  5 12  1  0  0  0  0
  6  3  1  1  0  0  0
  6 11  1  0  0  0  0
  6  2  1  0  0  0  0
  7  4  1  1  0  0  0
  7  8  1  0  0  0  0
  7 13  1  0  0  0  0
  8  1  1  0  0  0  0
  8  9  2  0  0  0  0
  9 14  1  0  0  0  0
 10 14  1  0  0  0  0
 11  5  1  0  0  0  0
 11 12  1  0  0  0  0
 13  9  1  0  0  0  0
 14 15  1  0  0  0  0
 16 18  1  0  0  0  0
 18 20  2  0  0  0  0
 19 22  2  0  0  0  0
 19 18  1  0  0  0  0
 20 17  1  0  0  0  0
 21 17  2  0  0  0  0
 22 21  1  0  0  0  0
 24 23  2  0  0  0  0
 25 27  1  0  0  0  0
 26 34  1  0  0  0  0
 27 29  1  0  0  0  0
 27 30  1  0  0  0  0
 28 29  1  0  0  0  0
 28 26  1  0  0  0  0
 31 26  1  0  0  0  0
 31 30  1  0  0  0  0
 33 32  1  0  0  0  0
 34 37  2  0  0  0  0
 34 36  1  0  0  0  0
 35 32  2  0  0  0  0
 36 33  2  0  0  0  0
 37 35  1  0  0  0  0
 38 39  3  0  0  0  0
 39 31  1  0  0  0  0
M  END
>  <MODEL>
3

>  <REMARK>
 VINA RESULT:      -5.3      4.291     10.656
  Name = 
  6 active torsions:
  status: ('A' for Active; 'I' for Inactive)
    1  A    between atoms: C_4  and  C_6
    2  A    between atoms: C_5  and  C_35
    3  A    between atoms: C_7  and  C_11
    4  A    between atoms: C_14  and  O_36
    5  A    between atoms: C_19  and  O_36
    6  A    between atoms: C_26  and  N_34
                            x       y       z     vdW  Elec       q    Type
                         _______ _______ _______ _____ _____    ______ ____

>  <TORSDO>
F 6

$$$$
=
 OpenBabel10222421223D

 39 46  0  0  1  0  0  0  0  0999 V2000
  186.0180  178.6810  138.4350 C   0  0  1  0  0  3  0  0  0  0  0  0
  181.7060  174.4220  137.5930 C   0  0  1  0  0  3  0  0  0  0  0  0
  183.4060  175.1320  135.7050 C   0  0  0  0  0  2  0  0  0  0  0  0
  184.4910  175.7710  136.5850 C   0  0  0  0  0  2  0  0  0  0  0  0
  181.7260  176.8990  137.9190 C   0  0  1  0  0  0  0  0  0  0  0  0
  181.9480  175.0550  136.2490 C   0  0  2  0  0  3  0  0  0  0  0  0
  183.9750  177.0950  137.0800 C   0  0  2  0  0  3  0  0  0  0  0  0
  184.8530  177.9140  137.9670 C   0  0  0  0  0  0  0  0  0  0  0  0
  183.9580  177.8640  138.9340 C   0  0  0  0  0  0  0  0  0  0  0  0
  185.6560  179.0140  139.8670 N   0  0  0  0  0  2  0  0  0  0  0  0
  181.3050  176.3320  136.6030 N   0  0  1  0  0  0  0  0  0  0  0  0
  180.9070  175.6900  137.8850 C   0  0  1  0  0  3  0  0  0  0  0  0
  183.2200  176.7750  138.2370 C   0  0  1  0  0  3  0  0  0  0  0  0
  184.3660  178.4540  140.1260 N   0  0  0  0  0  0  0  0  0  0  0  0
  184.0360  177.8780  141.4150 C   0  0  0  0  0  1  0  0  0  0  0  0
  190.7600  175.6520  138.3370 F   0  0  0  0  0  0  0  0  0  0  0  0
  187.6150  177.1300  137.2300 C   0  0  0  0  0  3  0  0  0  0  0  0
  189.6110  176.3690  138.3420 C   0  0  0  0  0  0  0  0  0  0  0  0
  189.2550  177.0750  139.4490 N   0  0  0  0  0  0  0  0  0  0  0  0
  188.7960  176.3860  137.2090 C   0  0  0  0  0  3  0  0  0  0  0  0
  187.2590  177.8440  138.3820 C   0  0  0  0  0  0  0  0  0  0  0  0
  188.1090  177.8060  139.4910 C   0  0  0  0  0  3  0  0  0  0  0  0
  180.7840  173.2580  137.4430 C   0  0  0  0  0  3  0  0  0  0  0  0
  179.8100  173.0960  138.2590 N   0  0  0  0  0  2  0  0  0  0  0  0
  181.0680  178.1170  138.1680 O   0  0  0  0  0  0  0  0  0  0  0  0
  179.8370  181.3270  137.4800 C   0  0  1  0  0  3  0  0  0  0  0  0
  181.8310  179.1380  137.5760 C   0  0  1  0  0  3  0  0  0  0  0  0
  179.8020  180.1690  136.4770 C   0  0  0  0  0  2  0  0  0  0  0  0
  181.1940  179.5720  136.2540 C   0  0  0  0  0  2  0  0  0  0  0  0
  181.9290  180.3370  138.5190 C   0  0  0  0  0  2  0  0  0  0  0  0
  180.6230  180.9710  138.6610 N   0  0  0  0  0  0  0  0  0  0  0  0
  181.1660  184.9320  135.6700 N   0  0  0  0  0  0  0  0  0  0  0  0
  180.3470  184.1040  134.9690 C   0  0  0  0  0  3  0  0  0  0  0  0
  180.2990  182.6130  136.8570 C   0  0  0  0  0  0  0  0  0  0  0  0
  181.5550  184.6380  136.9120 N   0  0  0  0  0  0  0  0  0  0  0  0
  179.9010  182.9220  135.5580 C   0  0  0  0  0  3  0  0  0  0  0  0
  181.1480  183.4980  137.5290 C   0  0  0  0  0  3  0  0  0  0  0  0
  179.6050  181.2530  140.9910 N   0  0  0  0  0  0  0  0  0  0  0  0
  180.0660  181.1260  139.9370 C   0  0  0  0  0  0  0  0  0  0  0  0
  1 21  1  1  0  0  0
  1 10  1  0  0  0  0
  2 23  1  6  0  0  0
  2 12  1  0  0  0  0
  3  4  1  0  0  0  0
  5 25  1  1  0  0  0
  5 13  1  0  0  0  0
  6  3  1  1  0  0  0
  6 11  1  0  0  0  0
  6  2  1  0  0  0  0
  7  4  1  1  0  0  0
  7  8  1  0  0  0  0
  7 13  1  0  0  0  0
  8  1  1  0  0  0  0
  8  9  2  0  0  0  0
  9 14  1  0  0  0  0
 10 14  1  0  0  0  0
 11 12  1  0  0  0  0
 11  5  1  0  0  0  0
 12  5  1  0  0  0  0
 13  9  1  0  0  0  0
 14 15  1  0  0  0  0
 16 18  1  0  0  0  0
 17 21  1  0  0  0  0
 18 19  2  0  0  0  0
 19 22  1  0  0  0  0
 20 17  2  0  0  0  0
 20 18  1  0  0  0  0
 21 22  2  0  0  0  0
 23 24  2  0  0  0  0
 26 31  1  0  0  0  0
 27 25  1  0  0  0  0
 27 30  1  0  0  0  0
 28 26  1  0  0  0  0
 29 28  1  0  0  0  0
 29 27  1  0  0  0  0
 30 31  1  0  0  0  0
 31 39  1  0  0  0  0
 32 35  1  0  0  0  0
 33 36  1  0  0  0  0
 33 32  2  0  0  0  0
 34 26  1  0  0  0  0
 34 37  1  0  0  0  0
 35 37  2  0  0  0  0
 36 34  2  0  0  0  0
 39 38  3  0  0  0  0
M  END
>  <MODEL>
4

>  <REMARK>
 VINA RESULT:      -5.0      4.935     11.517
  Name = 
  6 active torsions:
  status: ('A' for Active; 'I' for Inactive)
    1  A    between atoms: C_4  and  C_6
    2  A    between atoms: C_5  and  C_35
    3  A    between atoms: C_7  and  C_11
    4  A    between atoms: C_14  and  O_36
    5  A    between atoms: C_19  and  O_36
    6  A    between atoms: C_26  and  N_34
                            x       y       z     vdW  Elec       q    Type
                         _______ _______ _______ _____ _____    ______ ____

>  <TORSDO>
F 6

$$$$
=
 OpenBabel10222421223D

 39 46  0  0  1  0  0  0  0  0999 V2000
  185.7730  179.2050  139.9770 C   0  0  1  0  0  3  0  0  0  0  0  0
  182.4660  174.6410  137.5930 C   0  0  1  0  0  3  0  0  0  0  0  0
  184.5700  175.6710  136.3800 C   0  0  0  0  0  2  0  0  0  0  0  0
  185.2470  176.3320  137.5910 C   0  0  0  0  0  2  0  0  0  0  0  0
  182.0920  177.0720  138.0370 C   0  0  1  0  0  0  0  0  0  0  0  0
  183.0360  175.4080  136.4300 C   0  0  2  0  0  3  0  0  0  0  0  0
  184.4510  177.5530  137.9640 C   0  0  2  0  0  3  0  0  0  0  0  0
  184.9090  178.3730  139.1250 C   0  0  0  0  0  0  0  0  0  0  0  0
  183.7700  178.1540  139.7540 C   0  0  0  0  0  0  0  0  0  0  0  0
  184.9490  179.3780  141.2350 N   0  0  0  0  0  2  0  0  0  0  0  0
  182.1690  176.5830  136.6280 N   0  0  1  0  0  0  0  0  0  0  0  0
  181.4730  175.7970  137.6820 C   0  0  1  0  0  3  0  0  0  0  0  0
  183.4190  177.0640  138.8040 C   0  0  1  0  0  3  0  0  0  0  0  0
  183.7170  178.6770  141.0430 N   0  0  0  0  0  0  0  0  0  0  0  0
  183.0750  177.9630  142.1300 C   0  0  0  0  0  1  0  0  0  0  0  0
  190.5850  176.4570  140.9620 F   0  0  0  0  0  0  0  0  0  0  0  0
  187.4560  178.2220  141.5930 C   0  0  0  0  0  3  0  0  0  0  0  0
  189.4260  177.1250  140.7470 C   0  0  0  0  0  0  0  0  0  0  0  0
  189.0220  177.3940  139.4770 N   0  0  0  0  0  0  0  0  0  0  0  0
  188.6470  177.5340  141.8310 C   0  0  0  0  0  3  0  0  0  0  0  0
  187.0590  178.4980  140.2770 C   0  0  0  0  0  0  0  0  0  0  0  0
  187.8650  178.0640  139.2220 C   0  0  0  0  0  3  0  0  0  0  0  0
  181.7800  173.4130  137.0990 C   0  0  0  0  0  3  0  0  0  0  0  0
  180.7030  173.5060  136.4100 N   0  0  0  0  0  2  0  0  0  0  0  0
  181.2510  178.1960  138.1260 O   0  0  0  0  0  0  0  0  0  0  0  0
  179.7300  181.2770  137.4300 C   0  0  1  0  0  3  0  0  0  0  0  0
  181.9020  179.2630  137.4850 C   0  0  1  0  0  3  0  0  0  0  0  0
  179.7540  180.0990  136.4510 C   0  0  0  0  0  2  0  0  0  0  0  0
  181.1810  179.6150  136.1830 C   0  0  0  0  0  2  0  0  0  0  0  0
  181.9370  180.4870  138.4010 C   0  0  0  0  0  2  0  0  0  0  0  0
  180.5880  181.0130  138.5840 N   0  0  0  0  0  0  0  0  0  0  0  0
  180.6380  185.0000  135.5990 N   0  0  0  0  0  0  0  0  0  0  0  0
  181.1810  184.7110  136.8110 C   0  0  0  0  0  3  0  0  0  0  0  0
  180.0580  182.5830  136.7650 C   0  0  0  0  0  0  0  0  0  0  0  0
  179.8320  184.1390  134.9730 N   0  0  0  0  0  0  0  0  0  0  0  0
  180.8930  183.4880  137.4160 C   0  0  0  0  0  3  0  0  0  0  0  0
  179.5220  182.9350  135.5220 C   0  0  0  0  0  3  0  0  0  0  0  0
  179.6410  181.2600  140.9480 N   0  0  0  0  0  0  0  0  0  0  0  0
  180.0700  181.1480  139.8790 C   0  0  0  0  0  0  0  0  0  0  0  0
  1 21  1  1  0  0  0
  1 10  1  0  0  0  0
  2 23  1  6  0  0  0
  2 12  1  0  0  0  0
  3  4  1  0  0  0  0
  5 25  1  1  0  0  0
  5 13  1  0  0  0  0
  6  3  1  1  0  0  0
  6 11  1  0  0  0  0
  6  2  1  0  0  0  0
  7  4  1  1  0  0  0
  7 13  1  0  0  0  0
  7  8  1  0  0  0  0
  8  9  2  0  0  0  0
  8  1  1  0  0  0  0
  9 14  1  0  0  0  0
 11 12  1  0  0  0  0
 11  5  1  0  0  0  0
 12  5  1  0  0  0  0
 13  9  1  0  0  0  0
 14 10  1  0  0  0  0
 14 15  1  0  0  0  0
 17 20  1  0  0  0  0
 18 16  1  0  0  0  0
 18 20  2  0  0  0  0
 19 18  1  0  0  0  0
 21 17  2  0  0  0  0
 22 19  2  0  0  0  0
 22 21  1  0  0  0  0
 24 23  2  0  0  0  0
 26 31  1  0  0  0  0
 27 25  1  0  0  0  0
 27 30  1  0  0  0  0
 28 26  1  0  0  0  0
 29 28  1  0  0  0  0
 29 27  1  0  0  0  0
 30 31  1  0  0  0  0
 31 39  1  0  0  0  0
 32 33  1  0  0  0  0
 33 36  2  0  0  0  0
 34 36  1  0  0  0  0
 34 26  1  0  0  0  0
 35 37  1  0  0  0  0
 35 32  2  0  0  0  0
 37 34  2  0  0  0  0
 39 38  3  0  0  0  0
M  END
>  <MODEL>
5

>  <REMARK>
 VINA RESULT:      -4.5      5.638     11.670
  Name = 
  6 active torsions:
  status: ('A' for Active; 'I' for Inactive)
    1  A    between atoms: C_4  and  C_6
    2  A    between atoms: C_5  and  C_35
    3  A    between atoms: C_7  and  C_11
    4  A    between atoms: C_14  and  O_36
    5  A    between atoms: C_19  and  O_36
    6  A    between atoms: C_26  and  N_34
                            x       y       z     vdW  Elec       q    Type
                         _______ _______ _______ _____ _____    ______ ____

>  <TORSDO>
F 6

$$$$
=
 OpenBabel10222421223D

 39 46  0  0  1  0  0  0  0  0999 V2000
  184.0880  178.3940  141.0200 C   0  0  1  0  0  3  0  0  0  0  0  0
  180.9730  176.3830  136.1530 C   0  0  1  0  0  3  0  0  0  0  0  0
  181.3500  174.9210  138.3160 C   0  0  0  0  0  2  0  0  0  0  0  0
  181.6850  176.0430  139.3110 C   0  0  0  0  0  2  0  0  0  0  0  0
  183.3630  176.9180  136.6430 C   0  0  1  0  0  0  0  0  0  0  0  0
  181.5880  175.1690  136.7970 C   0  0  2  0  0  3  0  0  0  0  0  0
  183.0710  176.5430  139.0040 C   0  0  2  0  0  3  0  0  0  0  0  0
  183.6290  177.6480  139.8380 C   0  0  0  0  0  0  0  0  0  0  0  0
  183.7470  178.4190  138.7740 C   0  0  0  0  0  0  0  0  0  0  0  0
  184.4380  179.7530  140.4530 N   0  0  0  0  0  2  0  0  0  0  0  0
  182.9630  175.5030  136.3880 N   0  0  1  0  0  0  0  0  0  0  0  0
  182.3770  176.6250  135.6060 C   0  0  1  0  0  3  0  0  0  0  0  0
  182.8860  177.5030  137.9770 C   0  0  1  0  0  3  0  0  0  0  0  0
  184.1790  179.7130  139.0470 N   0  0  0  0  0  0  0  0  0  0  0  0
  183.6420  180.8610  138.3430 C   0  0  0  0  0  1  0  0  0  0  0  0
  179.8780  178.9150  144.7190 F   0  0  0  0  0  0  0  0  0  0  0  0
  183.2630  178.5600  143.4080 C   0  0  0  0  0  3  0  0  0  0  0  0
  180.9060  178.7830  143.8460 C   0  0  0  0  0  0  0  0  0  0  0  0
  180.6600  178.7370  142.5090 N   0  0  0  0  0  0  0  0  0  0  0  0
  182.2160  178.6970  144.3200 C   0  0  0  0  0  3  0  0  0  0  0  0
  182.9910  178.5070  142.0340 C   0  0  0  0  0  0  0  0  0  0  0  0
  181.6660  178.6040  141.6020 C   0  0  0  0  0  3  0  0  0  0  0  0
  180.0590  175.9600  135.0510 C   0  0  0  0  0  3  0  0  0  0  0  0
  179.0420  175.2230  135.3020 N   0  0  0  0  0  2  0  0  0  0  0  0
  184.6890  177.1400  136.2280 O   0  0  0  0  0  0  0  0  0  0  0  0
  188.1820  176.8510  136.3300 C   0  0  1  0  0  3  0  0  0  0  0  0
  185.3710  175.9150  136.3180 C   0  0  1  0  0  3  0  0  0  0  0  0
  187.3610  176.8020  135.0370 C   0  0  0  0  0  2  0  0  0  0  0  0
  186.2750  175.7250  135.0990 C   0  0  0  0  0  2  0  0  0  0  0  0
  186.2120  175.8720  137.5940 C   0  0  0  0  0  2  0  0  0  0  0  0
  187.3090  176.8290  137.5030 N   0  0  0  0  0  0  0  0  0  0  0  0
  191.1180  173.7850  136.4540 N   0  0  0  0  0  0  0  0  0  0  0  0
  190.5990  174.1550  135.2530 C   0  0  0  0  0  3  0  0  0  0  0  0
  189.2330  175.7810  136.3840 C   0  0  0  0  0  0  0  0  0  0  0  0
  190.7280  174.3680  137.5900 N   0  0  0  0  0  0  0  0  0  0  0  0
  189.6400  175.1650  135.2020 C   0  0  0  0  0  3  0  0  0  0  0  0
  189.7950  175.3560  137.5930 C   0  0  0  0  0  3  0  0  0  0  0  0
  187.5650  178.6280  139.3050 N   0  0  0  0  0  0  0  0  0  0  0  0
  187.4490  177.8140  138.4900 C   0  0  0  0  0  0  0  0  0  0  0  0
  1 21  1  1  0  0  0
  2 23  1  6  0  0  0
  2  6  1  0  0  0  0
  3  4  1  0  0  0  0
  5 25  1  6  0  0  0
  5 13  1  0  0  0  0
  6  3  1  1  0  0  0
  7  4  1  1  0  0  0
  7  8  1  0  0  0  0
  8  1  1  0  0  0  0
  9 14  1  0  0  0  0
  9  8  2  0  0  0  0
 10  1  1  0  0  0  0
 11  5  1  0  0  0  0
 11  6  1  0  0  0  0
 12  2  1  0  0  0  0
 12 11  1  0  0  0  0
 12  5  1  0  0  0  0
 13  9  1  0  0  0  0
 13  7  1  0  0  0  0
 14 10  1  0  0  0  0
 15 14  1  0  0  0  0
 17 20  1  0  0  0  0
 18 20  2  0  0  0  0
 18 16  1  0  0  0  0
 19 18  1  0  0  0  0
 21 17  2  0  0  0  0
 22 21  1  0  0  0  0
 22 19  2  0  0  0  0
 23 24  2  0  0  0  0
 25 27  1  0  0  0  0
 26 34  1  0  0  0  0
 26 31  1  0  0  0  0
 27 30  1  0  0  0  0
 28 29  1  0  0  0  0
 28 26  1  0  0  0  0
 29 27  1  0  0  0  0
 31 30  1  0  0  0  0
 31 39  1  0  0  0  0
 32 35  1  0  0  0  0
 33 32  2  0  0  0  0
 34 37  1  0  0  0  0
 35 37  2  0  0  0  0
 36 33  1  0  0  0  0
 36 34  2  0  0  0  0
 39 38  3  0  0  0  0
M  END
>  <MODEL>
6

>  <REMARK>
 VINA RESULT:      -4.3      3.998      7.676
  Name = 
  6 active torsions:
  status: ('A' for Active; 'I' for Inactive)
    1  A    between atoms: C_4  and  C_6
    2  A    between atoms: C_5  and  C_35
    3  A    between atoms: C_7  and  C_11
    4  A    between atoms: C_14  and  O_36
    5  A    between atoms: C_19  and  O_36
    6  A    between atoms: C_26  and  N_34
                            x       y       z     vdW  Elec       q    Type
                         _______ _______ _______ _____ _____    ______ ____

>  <TORSDO>
F 6

$$$$
=
 OpenBabel10222421223D

 39 46  0  0  1  0  0  0  0  0999 V2000
  189.6350  176.1180  143.6520 C   0  0  1  0  0  3  0  0  0  0  0  0
  188.9140  179.0020  138.3040 C   0  0  1  0  0  3  0  0  0  0  0  0
  187.0330  177.5030  139.3880 C   0  0  0  0  0  2  0  0  0  0  0  0
  187.5350  177.4990  140.8400 C   0  0  0  0  0  2  0  0  0  0  0  0
  190.2890  177.0830  139.1240 C   0  0  1  0  0  0  0  0  0  0  0  0
  188.0550  177.7670  138.2420 C   0  0  2  0  0  3  0  0  0  0  0  0
  188.7480  176.6110  140.9140 C   0  0  2  0  0  3  0  0  0  0  0  0
  189.4280  176.4450  142.2330 C   0  0  0  0  0  0  0  0  0  0  0  0
  190.5450  176.9460  141.7420 C   0  0  0  0  0  0  0  0  0  0  0  0
  191.0550  176.5740  143.9050 N   0  0  0  0  0  2  0  0  0  0  0  0
  189.1920  176.8370  138.1420 N   0  0  1  0  0  0  0  0  0  0  0  0
  190.0670  178.0360  138.0390 C   0  0  1  0  0  3  0  0  0  0  0  0
  189.8290  177.4500  140.5390 C   0  0  1  0  0  3  0  0  0  0  0  0
  191.5620  177.1050  142.6790 N   0  0  0  0  0  0  0  0  0  0  0  0
  192.4430  178.2570  142.6590 C   0  0  0  0  0  1  0  0  0  0  0  0
  186.0950  178.8940  147.0350 F   0  0  0  0  0  0  0  0  0  0  0  0
  187.3380  177.0670  144.1330 C   0  0  0  0  0  3  0  0  0  0  0  0
  186.9320  178.2290  146.2020 C   0  0  0  0  0  0  0  0  0  0  0  0
  188.2280  178.0250  146.5630 N   0  0  0  0  0  0  0  0  0  0  0  0
  186.4620  177.7500  144.9780 C   0  0  0  0  0  3  0  0  0  0  0  0
  188.6720  176.8740  144.5160 C   0  0  0  0  0  0  0  0  0  0  0  0
  189.0980  177.3630  145.7530 C   0  0  0  0  0  3  0  0  0  0  0  0
  188.6680  179.8480  137.1000 C   0  0  0  0  0  3  0  0  0  0  0  0
  187.5570  179.7640  136.4670 N   0  0  0  0  0  2  0  0  0  0  0  0
  191.3230  176.1450  138.9580 O   0  0  0  0  0  0  0  0  0  0  0  0
  194.2830  174.5450  137.9710 C   0  0  1  0  0  3  0  0  0  0  0  0
  192.3680  176.7860  138.2700 C   0  0  1  0  0  3  0  0  0  0  0  0
  194.1180  175.2830  139.3030 C   0  0  0  0  0  2  0  0  0  0  0  0
  193.6550  176.7270  139.0960 C   0  0  0  0  0  2  0  0  0  0  0  0
  192.5950  176.1170  136.9140 C   0  0  0  0  0  2  0  0  0  0  0  0
  193.1290  174.7720  137.1020 N   0  0  0  0  0  0  0  0  0  0  0  0
  197.9420  175.4250  136.0040 N   0  0  0  0  0  0  0  0  0  0  0  0
  196.7880  175.4330  135.2860 C   0  0  0  0  0  3  0  0  0  0  0  0
  195.5800  174.8720  137.2900 C   0  0  0  0  0  0  0  0  0  0  0  0
  197.9470  175.1530  137.3110 N   0  0  0  0  0  0  0  0  0  0  0  0
  195.5820  175.1510  135.9240 C   0  0  0  0  0  3  0  0  0  0  0  0
  196.7980  174.8720  137.9780 C   0  0  0  0  0  3  0  0  0  0  0  0
  191.8970  172.7750  136.0850 N   0  0  0  0  0  0  0  0  0  0  0  0
  192.4540  173.6780  136.5450 C   0  0  0  0  0  0  0  0  0  0  0  0
  1 10  1  0  0  0  0
  1 21  1  1  0  0  0
  2 23  1  6  0  0  0
  3  4  1  0  0  0  0
  5 25  1  6  0  0  0
  5 13  1  0  0  0  0
  6  2  1  0  0  0  0
  6  3  1  1  0  0  0
  7  4  1  1  0  0  0
  7  8  1  0  0  0  0
  8  1  1  0  0  0  0
  9  8  2  0  0  0  0
  9 14  1  0  0  0  0
 11  6  1  0  0  0  0
 11  5  1  0  0  0  0
 12 11  1  0  0  0  0
 12  2  1  0  0  0  0
 12  5  1  0  0  0  0
 13  7  1  0  0  0  0
 13  9  1  0  0  0  0
 14 10  1  0  0  0  0
 15 14  1  0  0  0  0
 17 21  2  0  0  0  0
 17 20  1  0  0  0  0
 18 19  1  0  0  0  0
 18 16  1  0  0  0  0
 20 18  2  0  0  0  0
 21 22  1  0  0  0  0
 22 19  2  0  0  0  0
 24 23  2  0  0  0  0
 26 28  1  0  0  0  0
 27 25  1  0  0  0  0
 27 29  1  0  0  0  0
 29 28  1  0  0  0  0
 30 31  1  0  0  0  0
 30 27  1  0  0  0  0
 31 26  1  0  0  0  0
 32 35  1  0  0  0  0
 33 36  1  0  0  0  0
 33 32  2  0  0  0  0
 34 26  1  0  0  0  0
 34 37  1  0  0  0  0
 35 37  2  0  0  0  0
 36 34  2  0  0  0  0
 38 39  3  0  0  0  0
 39 31  1  0  0  0  0
M  END
>  <MODEL>
7

>  <REMARK>
 VINA RESULT:      -4.2      3.334      6.163
  Name = 
  6 active torsions:
  status: ('A' for Active; 'I' for Inactive)
    1  A    between atoms: C_4  and  C_6
    2  A    between atoms: C_5  and  C_35
    3  A    between atoms: C_7  and  C_11
    4  A    between atoms: C_14  and  O_36
    5  A    between atoms: C_19  and  O_36
    6  A    between atoms: C_26  and  N_34
                            x       y       z     vdW  Elec       q    Type
                         _______ _______ _______ _____ _____    ______ ____

>  <TORSDO>
F 6

$$$$
=
 OpenBabel10222421223D

 39 46  0  0  1  0  0  0  0  0999 V2000
  189.3180  178.2480  144.9580 C   0  0  1  0  0  3  0  0  0  0  0  0
  190.1840  176.1590  139.2720 C   0  0  1  0  0  3  0  0  0  0  0  0
  191.9690  177.6230  140.5480 C   0  0  0  0  0  2  0  0  0  0  0  0
  191.4810  177.4000  141.9870 C   0  0  0  0  0  2  0  0  0  0  0  0
  188.6910  177.8530  140.3420 C   0  0  1  0  0  0  0  0  0  0  0  0
  190.9580  177.4460  139.3760 C   0  0  2  0  0  3  0  0  0  0  0  0
  190.2120  178.1860  142.1790 C   0  0  2  0  0  3  0  0  0  0  0  0
  189.5330  178.1280  143.5080 C   0  0  0  0  0  0  0  0  0  0  0  0
  188.4480  177.6230  142.9540 C   0  0  0  0  0  0  0  0  0  0  0  0
  187.9330  177.6670  145.1480 N   0  0  0  0  0  2  0  0  0  0  0  0
  189.7600  178.3030  139.4010 N   0  0  1  0  0  0  0  0  0  0  0  0
  188.9670  177.0710  139.1390 C   0  0  1  0  0  3  0  0  0  0  0  0
  189.1870  177.3340  141.6950 C   0  0  1  0  0  3  0  0  0  0  0  0
  187.4530  177.2710  143.8610 N   0  0  0  0  0  0  0  0  0  0  0  0
  186.6510  176.0760  143.6870 C   0  0  0  0  0  1  0  0  0  0  0  0
  193.1700  175.3860  147.8980 F   0  0  0  0  0  0  0  0  0  0  0  0
  191.1810  176.5380  145.0660 C   0  0  0  0  0  3  0  0  0  0  0  0
  192.2450  176.0600  147.1730 C   0  0  0  0  0  0  0  0  0  0  0  0
  191.4240  176.9550  147.7830 N   0  0  0  0  0  0  0  0  0  0  0  0
  192.1400  175.8360  145.7990 C   0  0  0  0  0  3  0  0  0  0  0  0
  190.3370  177.4510  145.7130 C   0  0  0  0  0  0  0  0  0  0  0  0
  190.4830  177.6490  147.0880 C   0  0  0  0  0  3  0  0  0  0  0  0
  190.4760  175.5000  137.9660 C   0  0  0  0  0  3  0  0  0  0  0  0
  191.2550  174.4840  137.9150 N   0  0  0  0  0  2  0  0  0  0  0  0
  187.5940  178.7330  140.3020 O   0  0  0  0  0  0  0  0  0  0  0  0
  184.6700  179.2060  138.4250 C   0  0  1  0  0  3  0  0  0  0  0  0
  186.4280  177.9640  140.4600 C   0  0  1  0  0  3  0  0  0  0  0  0
  184.9350  179.8830  139.7740 C   0  0  0  0  0  2  0  0  0  0  0  0
  185.2570  178.8600  140.8660 C   0  0  0  0  0  2  0  0  0  0  0  0
  186.0940  177.2380  139.1570 C   0  0  0  0  0  2  0  0  0  0  0  0
  185.6920  178.2000  138.1370 N   0  0  0  0  0  0  0  0  0  0  0  0
  180.7320  177.6320  138.2050 N   0  0  0  0  0  0  0  0  0  0  0  0
  180.9310  178.8290  138.8170 C   0  0  0  0  0  3  0  0  0  0  0  0
  183.2800  178.6480  138.3260 C   0  0  0  0  0  0  0  0  0  0  0  0
  181.7440  176.9460  137.6700 N   0  0  0  0  0  0  0  0  0  0  0  0
  182.2200  179.3560  138.8890 C   0  0  0  0  0  3  0  0  0  0  0  0
  183.0180  177.4180  137.7140 C   0  0  0  0  0  3  0  0  0  0  0  0
  186.9440  178.2710  135.9070 N   0  0  0  0  0  0  0  0  0  0  0  0
  186.3780  178.2390  136.9160 C   0  0  0  0  0  0  0  0  0  0  0  0
  1 10  1  0  0  0  0
  1 21  1  1  0  0  0
  2 23  1  6  0  0  0
  2  6  1  0  0  0  0
  3  4  1  0  0  0  0
  5 25  1  1  0  0  0
  5 13  1  0  0  0  0
  6 11  1  0  0  0  0
  6  3  1  1  0  0  0
  7  4  1  1  0  0  0
  7  8  1  0  0  0  0
  8  1  1  0  0  0  0
  9  8  2  0  0  0  0
  9 14  1  0  0  0  0
 11  5  1  0  0  0  0
 12  2  1  0  0  0  0
 12 11  1  0  0  0  0
 12  5  1  0  0  0  0
 13  7  1  0  0  0  0
 13  9  1  0  0  0  0
 14 10  1  0  0  0  0
 15 14  1  0  0  0  0
 17 21  2  0  0  0  0
 17 20  1  0  0  0  0
 18 19  1  0  0  0  0
 18 16  1  0  0  0  0
 20 18  2  0  0  0  0
 21 22  1  0  0  0  0
 22 19  2  0  0  0  0
 24 23  2  0  0  0  0
 25 27  1  0  0  0  0
 26 28  1  0  0  0  0
 27 29  1  0  0  0  0
 28 29  1  0  0  0  0
 30 27  1  0  0  0  0
 31 26  1  0  0  0  0
 31 30  1  0  0  0  0
 32 33  1  0  0  0  0
 33 36  2  0  0  0  0
 34 26  1  0  0  0  0
 34 36  1  0  0  0  0
 35 37  1  0  0  0  0
 35 32  2  0  0  0  0
 37 34  2  0  0  0  0
 38 39  3  0  0  0  0
 39 31  1  0  0  0  0
M  END
>  <MODEL>
8

>  <REMARK>
 VINA RESULT:      -4.0      4.406      9.961
  Name = 
  6 active torsions:
  status: ('A' for Active; 'I' for Inactive)
    1  A    between atoms: C_4  and  C_6
    2  A    between atoms: C_5  and  C_35
    3  A    between atoms: C_7  and  C_11
    4  A    between atoms: C_14  and  O_36
    5  A    between atoms: C_19  and  O_36
    6  A    between atoms: C_26  and  N_34
                            x       y       z     vdW  Elec       q    Type
                         _______ _______ _______ _____ _____    ______ ____

>  <TORSDO>
F 6

$$$$
=
 OpenBabel10222421223D

 39 46  0  0  1  0  0  0  0  0999 V2000
  181.0400  175.5240  138.9010 C   0  0  1  0  0  3  0  0  0  0  0  0
  186.0290  177.7250  136.1260 C   0  0  1  0  0  3  0  0  0  0  0  0
  185.8250  175.2210  136.9310 C   0  0  0  0  0  2  0  0  0  0  0  0
  184.2950  175.1260  137.0390 C   0  0  0  0  0  2  0  0  0  0  0  0
  184.9300  178.0570  138.3450 C   0  0  1  0  0  0  0  0  0  0  0  0
  186.4990  176.6210  137.0360 C   0  0  2  0  0  3  0  0  0  0  0  0
  183.8620  175.9000  138.2550 C   0  0  2  0  0  3  0  0  0  0  0  0
  182.4060  175.9630  138.5770 C   0  0  0  0  0  0  0  0  0  0  0  0
  182.4170  177.2770  138.4630 C   0  0  0  0  0  0  0  0  0  0  0  0
  180.2540  176.8170  138.8970 N   0  0  0  0  0  2  0  0  0  0  0  0
  186.2590  177.3800  138.2750 N   0  0  1  0  0  0  0  0  0  0  0  0
  185.9390  178.5470  137.4090 C   0  0  1  0  0  3  0  0  0  0  0  0
  183.7510  177.2400  137.8050 C   0  0  1  0  0  3  0  0  0  0  0  0
  181.1670  177.8750  138.5920 N   0  0  0  0  0  0  0  0  0  0  0  0
  180.7720  179.0020  137.7700 C   0  0  0  0  0  1  0  0  0  0  0  0
  179.1390  171.8630  135.0720 F   0  0  0  0  0  0  0  0  0  0  0  0
  180.6510  174.8660  136.4880 C   0  0  0  0  0  3  0  0  0  0  0  0
  179.5980  172.7610  135.9770 C   0  0  0  0  0  0  0  0  0  0  0  0
  179.4890  172.5000  137.3070 N   0  0  0  0  0  0  0  0  0  0  0  0
  180.1840  173.9510  135.5420 C   0  0  0  0  0  3  0  0  0  0  0  0
  180.5230  174.5850  137.8550 C   0  0  0  0  0  0  0  0  0  0  0  0
  179.9360  173.3780  138.2460 C   0  0  0  0  0  3  0  0  0  0  0  0
  187.1670  178.2050  135.2880 C   0  0  0  0  0  3  0  0  0  0  0  0
  188.3690  177.8690  135.5770 N   0  0  0  0  0  2  0  0  0  0  0  0
  184.7890  178.7480  139.5620 O   0  0  0  0  0  0  0  0  0  0  0  0
  184.5760  179.5090  142.9780 C   0  0  1  0  0  3  0  0  0  0  0  0
  185.2670  177.9090  140.5830 C   0  0  1  0  0  3  0  0  0  0  0  0
  185.7810  179.8620  142.1010 C   0  0  0  0  0  2  0  0  0  0  0  0
  186.3470  178.6280  141.3930 C   0  0  0  0  0  2  0  0  0  0  0  0
  184.1210  177.4940  141.5050 C   0  0  0  0  0  2  0  0  0  0  0  0
  183.6400  178.6480  142.2560 N   0  0  0  0  0  0  0  0  0  0  0  0
  185.7260  177.8010  146.6930 N   0  0  0  0  0  0  0  0  0  0  0  0
  186.5630  177.6900  145.6270 C   0  0  0  0  0  3  0  0  0  0  0  0
  184.9800  178.9240  144.3010 C   0  0  0  0  0  0  0  0  0  0  0  0
  184.5570  178.4380  146.5960 N   0  0  0  0  0  0  0  0  0  0  0  0
  186.1960  178.2530  144.4060 C   0  0  0  0  0  3  0  0  0  0  0  0
  184.1550  179.0030  145.4270 C   0  0  0  0  0  3  0  0  0  0  0  0
  181.1700  179.3000  142.1190 N   0  0  0  0  0  0  0  0  0  0  0  0
  182.2870  179.0050  142.1810 C   0  0  0  0  0  0  0  0  0  0  0  0
  1 21  1  6  0  0  0
  2 23  1  6  0  0  0
  2  6  1  0  0  0  0
  2 12  1  0  0  0  0
  3  4  1  0  0  0  0
  5 25  1  1  0  0  0
  6  3  1  1  0  0  0
  6 11  1  0  0  0  0
  7  4  1  6  0  0  0
  7  8  1  0  0  0  0
  8  1  1  0  0  0  0
  9  8  2  0  0  0  0
  9 14  1  0  0  0  0
 10  1  1  0  0  0  0
 11  5  1  0  0  0  0
 12 11  1  0  0  0  0
 12  5  1  0  0  0  0
 13  7  1  0  0  0  0
 13  5  1  0  0  0  0
 13  9  1  0  0  0  0
 14 10  1  0  0  0  0
 15 14  1  0  0  0  0
 16 18  1  0  0  0  0
 17 21  1  0  0  0  0
 18 19  2  0  0  0  0
 19 22  1  0  0  0  0
 20 18  1  0  0  0  0
 20 17  2  0  0  0  0
 21 22  2  0  0  0  0
 23 24  2  0  0  0  0
 25 27  1  0  0  0  0
 26 34  1  0  0  0  0
 27 29  1  0  0  0  0
 27 30  1  0  0  0  0
 28 26  1  0  0  0  0
 29 28  1  0  0  0  0
 30 31  1  0  0  0  0
 31 26  1  0  0  0  0
 33 32  2  0  0  0  0
 34 36  2  0  0  0  0
 34 37  1  0  0  0  0
 35 32  1  0  0  0  0
 36 33  1  0  0  0  0
 37 35  2  0  0  0  0
 38 39  3  0  0  0  0
 39 31  1  0  0  0  0
M  END
>  <MODEL>
9

>  <REMARK>
 VINA RESULT:      -3.9      5.716      9.621
  Name = 
  6 active torsions:
  status: ('A' for Active; 'I' for Inactive)
    1  A    between atoms: C_4  and  C_6
    2  A    between atoms: C_5  and  C_35
    3  A    between atoms: C_7  and  C_11
    4  A    between atoms: C_14  and  O_36
    5  A    between atoms: C_19  and  O_36
    6  A    between atoms: C_26  and  N_34
                            x       y       z     vdW  Elec       q    Type
                         _______ _______ _______ _____ _____    ______ ____

>  <TORSDO>
F 6

$$$$
