=
 OpenBabel10222416013D

 25 26  0  0  1  0  0  0  0  0999 V2000
  191.7160  177.0050  145.8360 C   0  0  0  0  0  2  0  0  0  0  0  0
  189.7250  177.3010  144.2210 C   0  0  2  0  0  3  0  0  0  0  0  0
  192.1210  177.1640  148.1680 O   0  0  0  0  0  1  0  0  0  0  0  0
  188.7050  177.1010  146.5370 C   0  0  1  0  0  3  0  0  0  0  0  0
  188.8750  177.9740  145.3070 C   0  0  0  0  0  2  0  0  0  0  0  0
  190.8680  176.3940  144.7170 C   0  0  0  0  0  2  0  0  0  0  0  0
  191.1850  176.6940  147.2430 C   0  0  1  0  0  0  0  0  0  0  0  0
  189.8530  177.3670  147.4770 C   0  0  0  0  0  0  0  0  0  0  0  0
  189.7270  178.1780  148.3840 O   0  0  0  0  0  0  0  0  0  0  0  0
  191.0440  175.1920  147.4430 C   0  0  0  0  0  1  0  0  0  0  0  0
  191.5610  178.7000  143.3340 N   0  0  0  0  0  1  0  0  0  0  0  0
  190.1630  178.3260  143.1700 C   0  0  1  0  0  3  0  0  0  0  0  0
  190.8200  177.1040  141.1120 N   0  0  0  0  0  0  0  0  0  0  0  0
  190.5820  176.6480  139.8540 C   0  0  0  0  0  3  0  0  0  0  0  0
  189.4040  176.9300  139.2400 N   0  0  0  0  0  0  0  0  0  0  0  0
  189.8950  177.8520  141.7750 C   0  0  0  0  0  0  0  0  0  0  0  0
  188.6740  178.1430  141.1560 C   0  0  0  0  0  0  0  0  0  0  0  0
  188.4500  177.6650  139.8660 C   0  0  0  0  0  3  0  0  0  0  0  0
  187.7210  178.8730  141.7870 F   0  0  0  0  0  0  0  0  0  0  0  0
  187.3450  177.3570  147.1790 C   0  0  0  0  0  2  0  0  0  0  0  0
  185.4120  178.6830  146.2220 C   0  0  0  0  0  0  0  0  0  0  0  0
  186.3360  177.5950  146.1560 N   0  0  0  0  0  2  0  0  0  0  0  0
  185.4200  179.4750  147.2010 O   0  0  0  0  0  0  0  0  0  0  0  0
  184.4580  178.9060  145.1040 C   0  0  0  0  0  2  0  0  0  0  0  0
  184.9770  178.3000  143.8900 N   0  0  0  0  0  1  0  0  0  0  0  0
  1  7  1  0  0  0  0
  2 12  1  1  0  0  0
  2  6  1  0  0  0  0
  2  5  1  0  0  0  0
  4 20  1  1  0  0  0
  4  8  1  0  0  0  0
  5  4  1  0  0  0  0
  6  1  1  0  0  0  0
  7 10  1  1  0  0  0
  7  8  1  0  0  0  0
  7  3  1  0  0  0  0
  8  9  2  0  0  0  0
 12 11  1  6  0  0  0
 13 16  1  0  0  0  0
 14 13  2  0  0  0  0
 15 14  1  0  0  0  0
 15 18  2  0  0  0  0
 16 12  1  0  0  0  0
 17 16  2  0  0  0  0
 17 19  1  0  0  0  0
 18 17  1  0  0  0  0
 21 23  2  0  0  0  0
 22 21  1  0  0  0  0
 22 20  1  0  0  0  0
 24 21  1  0  0  0  0
 25 24  1  0  0  0  0
M  END
>  <MODEL>
1

>  <REMARK>
 VINA RESULT:      -8.1      0.000      0.000
  Name = 
  5 active torsions:
  status: ('A' for Active; 'I' for Inactive)
    1  A    between atoms: C_3  and  C_14
    2  A    between atoms: C_4  and  C_13
    3  A    between atoms: C_7  and  C_15
    4  A    between atoms: C_12  and  C_14
    5  A    between atoms: C_15  and  N_17
                            x       y       z     vdW  Elec       q    Type
                         _______ _______ _______ _____ _____    ______ ____

>  <TORSDO>
F 5

$$$$
=
 OpenBabel10222416013D

 25 26  0  0  1  0  0  0  0  0999 V2000
  191.2490  177.7270  142.0190 C   0  0  0  0  0  2  0  0  0  0  0  0
  189.0130  177.1500  140.8660 C   0  0  2  0  0  3  0  0  0  0  0  0
  192.0120  178.2470  144.2040 O   0  0  0  0  0  1  0  0  0  0  0  0
  188.6030  176.8370  143.3520 C   0  0  1  0  0  3  0  0  0  0  0  0
  188.2050  177.5890  142.0930 C   0  0  0  0  0  2  0  0  0  0  0  0
  190.4790  176.7510  141.1230 C   0  0  0  0  0  2  0  0  0  0  0  0
  191.1490  177.3910  143.5140 C   0  0  1  0  0  0  0  0  0  0  0  0
  189.7360  177.5780  144.0150 C   0  0  0  0  0  0  0  0  0  0  0  0
  189.5040  178.3810  144.9090 O   0  0  0  0  0  0  0  0  0  0  0  0
  191.6020  175.9620  143.7740 C   0  0  0  0  0  1  0  0  0  0  0  0
  190.0330  178.2350  138.8920 N   0  0  0  0  0  1  0  0  0  0  0  0
  188.8400  178.1540  139.7220 C   0  0  1  0  0  3  0  0  0  0  0  0
  186.4940  178.5960  139.0370 N   0  0  0  0  0  0  0  0  0  0  0  0
  185.3960  178.3520  138.2760 C   0  0  0  0  0  3  0  0  0  0  0  0
  185.4180  177.3620  137.3460 N   0  0  0  0  0  0  0  0  0  0  0  0
  187.6290  177.8560  138.8910 C   0  0  0  0  0  0  0  0  0  0  0  0
  187.6670  176.8380  137.9320 C   0  0  0  0  0  0  0  0  0  0  0  0
  186.5300  176.6050  137.1610 C   0  0  0  0  0  3  0  0  0  0  0  0
  188.7820  176.0880  137.7460 F   0  0  0  0  0  0  0  0  0  0  0  0
  187.3950  176.6670  144.2660 C   0  0  0  0  0  2  0  0  0  0  0  0
  185.6830  178.4280  144.8840 C   0  0  0  0  0  0  0  0  0  0  0  0
  186.3510  177.6190  143.9130 N   0  0  0  0  0  2  0  0  0  0  0  0
  185.9610  178.3230  146.1080 O   0  0  0  0  0  0  0  0  0  0  0  0
  184.6790  179.4310  144.4400 C   0  0  0  0  0  2  0  0  0  0  0  0
  183.4270  179.2100  145.1400 N   0  0  0  0  0  1  0  0  0  0  0  0
  1  7  1  0  0  0  0
  2 12  1  6  0  0  0
  2  6  1  0  0  0  0
  2  5  1  0  0  0  0
  4  8  1  0  0  0  0
  4 20  1  1  0  0  0
  5  4  1  0  0  0  0
  6  1  1  0  0  0  0
  7 10  1  1  0  0  0
  7  8  1  0  0  0  0
  7  3  1  0  0  0  0
  8  9  2  0  0  0  0
 12 11  1  6  0  0  0
 14 13  2  0  0  0  0
 15 14  1  0  0  0  0
 16 13  1  0  0  0  0
 16 12  1  0  0  0  0
 17 16  2  0  0  0  0
 18 15  2  0  0  0  0
 18 17  1  0  0  0  0
 19 17  1  0  0  0  0
 21 23  2  0  0  0  0
 22 20  1  0  0  0  0
 22 21  1  0  0  0  0
 24 21  1  0  0  0  0
 24 25  1  0  0  0  0
M  END
>  <MODEL>
2

>  <REMARK>
 VINA RESULT:      -7.2      2.607      3.648
  Name = 
  5 active torsions:
  status: ('A' for Active; 'I' for Inactive)
    1  A    between atoms: C_3  and  C_14
    2  A    between atoms: C_4  and  C_13
    3  A    between atoms: C_7  and  C_15
    4  A    between atoms: C_12  and  C_14
    5  A    between atoms: C_15  and  N_17
                            x       y       z     vdW  Elec       q    Type
                         _______ _______ _______ _____ _____    ______ ____

>  <TORSDO>
F 5

$$$$
=
 OpenBabel10222416013D

 25 26  0  0  1  0  0  0  0  0999 V2000
  189.8620  177.2280  145.7680 C   0  0  0  0  0  2  0  0  0  0  0  0
  187.8600  177.8220  144.2510 C   0  0  2  0  0  3  0  0  0  0  0  0
  191.8830  175.9980  145.6020 O   0  0  0  0  0  1  0  0  0  0  0  0
  189.6850  177.0040  142.6880 C   0  0  1  0  0  3  0  0  0  0  0  0
  188.2750  176.7810  143.2050 C   0  0  0  0  0  2  0  0  0  0  0  0
  188.9770  178.3330  145.1830 C   0  0  0  0  0  2  0  0  0  0  0  0
  191.0790  176.8940  144.8920 C   0  0  1  0  0  0  0  0  0  0  0  0
  190.6480  176.2700  143.5870 C   0  0  0  0  0  0  0  0  0  0  0  0
  191.0230  175.1430  143.2930 O   0  0  0  0  0  0  0  0  0  0  0  0
  191.9010  178.1450  144.6170 C   0  0  0  0  0  1  0  0  0  0  0  0
  186.7210  177.5620  146.4300 N   0  0  0  0  0  1  0  0  0  0  0  0
  186.6000  177.3660  144.9930 C   0  0  1  0  0  3  0  0  0  0  0  0
  185.1830  178.1770  143.1220 N   0  0  0  0  0  0  0  0  0  0  0  0
  184.0590  178.7570  142.6270 C   0  0  0  0  0  3  0  0  0  0  0  0
  183.0890  179.1950  143.4720 N   0  0  0  0  0  0  0  0  0  0  0  0
  185.3650  178.0300  144.4640 C   0  0  0  0  0  0  0  0  0  0  0  0
  184.3720  178.4700  145.3450 C   0  0  0  0  0  0  0  0  0  0  0  0
  183.2260  179.0620  144.8170 C   0  0  0  0  0  3  0  0  0  0  0  0
  184.5080  178.3310  146.6870 F   0  0  0  0  0  0  0  0  0  0  0  0
  189.7860  176.5650  141.2310 C   0  0  0  0  0  2  0  0  0  0  0  0
  188.9930  177.3340  138.9530 C   0  0  0  0  0  0  0  0  0  0  0  0
  189.0070  177.4500  140.3770 N   0  0  0  0  0  2  0  0  0  0  0  0
  189.6920  176.4610  138.3720 O   0  0  0  0  0  0  0  0  0  0  0  0
  188.1160  178.2270  138.1510 C   0  0  0  0  0  2  0  0  0  0  0  0
  188.8950  179.3330  137.6250 N   0  0  0  0  0  1  0  0  0  0  0  0
  2 12  1  1  0  0  0
  2  6  1  0  0  0  0
  4 20  1  6  0  0  0
  4  5  1  0  0  0  0
  4  8  1  0  0  0  0
  5  2  1  0  0  0  0
  6  1  1  0  0  0  0
  7 10  1  6  0  0  0
  7  3  1  0  0  0  0
  7  1  1  0  0  0  0
  8  7  1  0  0  0  0
  9  8  2  0  0  0  0
 12 11  1  1  0  0  0
 13 16  1  0  0  0  0
 14 13  2  0  0  0  0
 14 15  1  0  0  0  0
 15 18  2  0  0  0  0
 16 12  1  0  0  0  0
 16 17  2  0  0  0  0
 17 19  1  0  0  0  0
 18 17  1  0  0  0  0
 21 22  1  0  0  0  0
 22 20  1  0  0  0  0
 23 21  2  0  0  0  0
 24 21  1  0  0  0  0
 25 24  1  0  0  0  0
M  END
>  <MODEL>
3

>  <REMARK>
 VINA RESULT:      -7.1      2.999      5.841
  Name = 
  5 active torsions:
  status: ('A' for Active; 'I' for Inactive)
    1  A    between atoms: C_3  and  C_14
    2  A    between atoms: C_4  and  C_13
    3  A    between atoms: C_7  and  C_15
    4  A    between atoms: C_12  and  C_14
    5  A    between atoms: C_15  and  N_17
                            x       y       z     vdW  Elec       q    Type
                         _______ _______ _______ _____ _____    ______ ____

>  <TORSDO>
F 5

$$$$
=
 OpenBabel10222416013D

 25 26  0  0  1  0  0  0  0  0999 V2000
  189.7460  177.7090  146.5780 C   0  0  0  0  0  2  0  0  0  0  0  0
  188.8360  177.4360  144.1790 C   0  0  2  0  0  3  0  0  0  0  0  0
  188.9260  178.3850  148.6990 O   0  0  0  0  0  1  0  0  0  0  0  0
  186.7900  177.5940  145.6750 C   0  0  1  0  0  3  0  0  0  0  0  0
  187.5570  178.2120  144.5190 C   0  0  0  0  0  2  0  0  0  0  0  0
  189.5740  176.7880  145.3660 C   0  0  0  0  0  2  0  0  0  0  0  0
  188.5800  177.6310  147.5750 C   0  0  1  0  0  0  0  0  0  0  0  0
  187.3120  178.1780  146.9630 C   0  0  0  0  0  0  0  0  0  0  0  0
  186.7490  179.1370  147.4740 O   0  0  0  0  0  0  0  0  0  0  0  0
  188.3550  176.1950  148.0260 C   0  0  0  0  0  1  0  0  0  0  0  0
  191.1240  178.2580  143.7320 N   0  0  0  0  0  1  0  0  0  0  0  0
  189.7440  178.2690  143.2700 C   0  0  1  0  0  3  0  0  0  0  0  0
  190.6030  177.0170  141.3050 N   0  0  0  0  0  0  0  0  0  0  0  0
  190.5240  176.5990  140.0150 C   0  0  0  0  0  3  0  0  0  0  0  0
  189.4850  176.9950  139.2340 N   0  0  0  0  0  0  0  0  0  0  0  0
  189.6550  177.8380  141.8380 C   0  0  0  0  0  0  0  0  0  0  0  0
  188.5760  178.2470  141.0460 C   0  0  0  0  0  0  0  0  0  0  0  0
  188.5140  177.8070  139.7250 C   0  0  0  0  0  3  0  0  0  0  0  0
  187.6050  179.0530  141.5420 F   0  0  0  0  0  0  0  0  0  0  0  0
  185.2930  177.8160  145.4900 C   0  0  0  0  0  2  0  0  0  0  0  0
  183.7050  178.6010  143.6800 C   0  0  0  0  0  0  0  0  0  0  0  0
  184.9950  178.1580  144.1060 N   0  0  0  0  0  2  0  0  0  0  0  0
  182.7520  178.6860  144.5000 O   0  0  0  0  0  0  0  0  0  0  0  0
  183.4960  179.0020  142.2640 C   0  0  0  0  0  2  0  0  0  0  0  0
  184.0070  177.9680  141.3830 N   0  0  0  0  0  1  0  0  0  0  0  0
  1  7  1  0  0  0  0
  2 12  1  1  0  0  0
  2  5  1  0  0  0  0
  2  6  1  0  0  0  0
  4 20  1  6  0  0  0
  4  8  1  0  0  0  0
  5  4  1  0  0  0  0
  6  1  1  0  0  0  0
  7 10  1  1  0  0  0
  7  3  1  0  0  0  0
  8  9  2  0  0  0  0
  8  7  1  0  0  0  0
 12 11  1  1  0  0  0
 13 16  1  0  0  0  0
 14 13  2  0  0  0  0
 15 18  2  0  0  0  0
 15 14  1  0  0  0  0
 16 12  1  0  0  0  0
 17 19  1  0  0  0  0
 17 16  2  0  0  0  0
 18 17  1  0  0  0  0
 21 22  1  0  0  0  0
 21 23  2  0  0  0  0
 22 20  1  0  0  0  0
 24 21  1  0  0  0  0
 25 24  1  0  0  0  0
M  END
>  <MODEL>
4

>  <REMARK>
 VINA RESULT:      -7.0      1.454      2.162
  Name = 
  5 active torsions:
  status: ('A' for Active; 'I' for Inactive)
    1  A    between atoms: C_3  and  C_14
    2  A    between atoms: C_4  and  C_13
    3  A    between atoms: C_7  and  C_15
    4  A    between atoms: C_12  and  C_14
    5  A    between atoms: C_15  and  N_17
                            x       y       z     vdW  Elec       q    Type
                         _______ _______ _______ _____ _____    ______ ____

>  <TORSDO>
F 5

$$$$
=
 OpenBabel10222416013D

 25 26  0  0  1  0  0  0  0  0999 V2000
  187.1940  178.3900  145.2430 C   0  0  0  0  0  2  0  0  0  0  0  0
  187.0250  177.2630  142.9280 C   0  0  2  0  0  3  0  0  0  0  0  0
  185.9260  179.9100  146.5500 O   0  0  0  0  0  1  0  0  0  0  0  0
  184.7020  178.1560  143.4260 C   0  0  1  0  0  3  0  0  0  0  0  0
  185.8980  178.2060  142.4910 C   0  0  0  0  0  2  0  0  0  0  0  0
  187.2110  177.0810  144.4470 C   0  0  0  0  0  2  0  0  0  0  0  0
  185.7900  178.8020  145.7100 C   0  0  1  0  0  0  0  0  0  0  0  0
  184.9150  179.1590  144.5320 C   0  0  0  0  0  0  0  0  0  0  0  0
  184.4380  180.2820  144.4400 O   0  0  0  0  0  0  0  0  0  0  0  0
  185.1410  177.6830  146.5120 C   0  0  0  0  0  1  0  0  0  0  0  0
  188.2260  178.8650  141.4780 N   0  0  0  0  0  1  0  0  0  0  0  0
  188.3230  177.5960  142.1840 C   0  0  1  0  0  3  0  0  0  0  0  0
  190.0160  178.7410  143.5930 N   0  0  0  0  0  0  0  0  0  0  0  0
  191.0820  178.7390  144.4360 C   0  0  0  0  0  3  0  0  0  0  0  0
  191.6600  177.5650  144.7990 N   0  0  0  0  0  0  0  0  0  0  0  0
  189.5130  177.5780  143.0930 C   0  0  0  0  0  0  0  0  0  0  0  0
  190.0950  176.3610  143.4650 C   0  0  0  0  0  0  0  0  0  0  0  0
  191.1870  176.3810  144.3310 C   0  0  0  0  0  3  0  0  0  0  0  0
  189.6170  175.1810  143.0000 F   0  0  0  0  0  0  0  0  0  0  0  0
  183.4150  178.4020  142.6460 C   0  0  0  0  0  2  0  0  0  0  0  0
  182.8400  178.7650  140.2070 C   0  0  0  0  0  0  0  0  0  0  0  0
  183.7140  178.9350  141.3250 N   0  0  0  0  0  2  0  0  0  0  0  0
  181.7700  178.1090  140.3220 O   0  0  0  0  0  0  0  0  0  0  0  0
  183.1770  179.4000  138.9060 C   0  0  0  0  0  2  0  0  0  0  0  0
  184.4260  180.1310  139.0280 N   0  0  0  0  0  1  0  0  0  0  0  0
  1  7  1  0  0  0  0
  2 12  1  1  0  0  0
  2  6  1  0  0  0  0
  4 20  1  6  0  0  0
  4  8  1  0  0  0  0
  5  2  1  0  0  0  0
  5  4  1  0  0  0  0
  6  1  1  0  0  0  0
  7 10  1  1  0  0  0
  7  3  1  0  0  0  0
  8  7  1  0  0  0  0
  9  8  2  0  0  0  0
 12 11  1  1  0  0  0
 12 16  1  0  0  0  0
 13 14  1  0  0  0  0
 14 15  2  0  0  0  0
 16 17  1  0  0  0  0
 16 13  2  0  0  0  0
 17 18  2  0  0  0  0
 18 15  1  0  0  0  0
 19 17  1  0  0  0  0
 21 23  2  0  0  0  0
 21 22  1  0  0  0  0
 22 20  1  0  0  0  0
 24 25  1  0  0  0  0
 24 21  1  0  0  0  0
M  END
>  <MODEL>
5

>  <REMARK>
 VINA RESULT:      -6.7      3.128      5.265
  Name = 
  5 active torsions:
  status: ('A' for Active; 'I' for Inactive)
    1  A    between atoms: C_3  and  C_14
    2  A    between atoms: C_4  and  C_13
    3  A    between atoms: C_7  and  C_15
    4  A    between atoms: C_12  and  C_14
    5  A    between atoms: C_15  and  N_17
                            x       y       z     vdW  Elec       q    Type
                         _______ _______ _______ _____ _____    ______ ____

>  <TORSDO>
F 5

$$$$
=
 OpenBabel10222416013D

 25 26  0  0  1  0  0  0  0  0999 V2000
  182.3060  179.0200  141.2820 C   0  0  0  0  0  2  0  0  0  0  0  0
  184.5760  178.1710  142.1690 C   0  0  2  0  0  3  0  0  0  0  0  0
  181.4880  180.1740  139.3780 O   0  0  0  0  0  1  0  0  0  0  0  0
  184.9420  178.6590  139.7050 C   0  0  1  0  0  3  0  0  0  0  0  0
  185.3500  178.9910  141.1300 C   0  0  0  0  0  2  0  0  0  0  0  0
  183.1140  177.8340  141.8190 C   0  0  0  0  0  2  0  0  0  0  0  0
  182.3820  179.1690  139.7560 C   0  0  1  0  0  0  0  0  0  0  0  0
  183.7800  179.5390  139.3200 C   0  0  0  0  0  0  0  0  0  0  0  0
  183.9780  180.5860  138.7180 O   0  0  0  0  0  0  0  0  0  0  0  0
  181.9540  177.8800  139.0690 C   0  0  0  0  0  1  0  0  0  0  0  0
  183.5440  178.6350  144.3680 N   0  0  0  0  0  1  0  0  0  0  0  0
  184.7520  178.7740  143.5670 C   0  0  1  0  0  3  0  0  0  0  0  0
  186.8010  177.3730  143.6290 N   0  0  0  0  0  0  0  0  0  0  0  0
  187.8920  176.8630  144.2570 C   0  0  0  0  0  3  0  0  0  0  0  0
  188.1410  177.1800  145.5550 N   0  0  0  0  0  0  0  0  0  0  0  0
  185.9370  178.2000  144.2820 C   0  0  0  0  0  0  0  0  0  0  0  0
  186.1860  178.5400  145.6160 C   0  0  0  0  0  0  0  0  0  0  0  0
  187.3110  178.0070  146.2410 C   0  0  0  0  0  3  0  0  0  0  0  0
  185.3580  179.3710  146.2970 F   0  0  0  0  0  0  0  0  0  0  0  0
  186.1350  178.8130  138.7680 C   0  0  0  0  0  2  0  0  0  0  0  0
  188.6430  178.4810  138.8790 C   0  0  0  0  0  0  0  0  0  0  0  0
  187.3230  178.2040  139.3510 N   0  0  0  0  0  2  0  0  0  0  0  0
  188.8270  179.2550  137.9020 O   0  0  0  0  0  0  0  0  0  0  0  0
  189.8120  177.8780  139.5710 C   0  0  0  0  0  2  0  0  0  0  0  0
  189.4060  177.3780  140.8720 N   0  0  0  0  0  1  0  0  0  0  0  0
  1  6  1  0  0  0  0
  2 12  1  1  0  0  0
  3  7  1  0  0  0  0
  4 20  1  6  0  0  0
  4  5  1  0  0  0  0
  5  2  1  0  0  0  0
  6  2  1  0  0  0  0
  7 10  1  6  0  0  0
  7  1  1  0  0  0  0
  8  4  1  0  0  0  0
  8  7  1  0  0  0  0
  9  8  2  0  0  0  0
 12 16  1  0  0  0  0
 12 11  1  1  0  0  0
 13 14  2  0  0  0  0
 13 16  1  0  0  0  0
 14 15  1  0  0  0  0
 15 18  2  0  0  0  0
 16 17  2  0  0  0  0
 17 18  1  0  0  0  0
 17 19  1  0  0  0  0
 20 22  1  0  0  0  0
 21 22  1  0  0  0  0
 21 24  1  0  0  0  0
 23 21  2  0  0  0  0
 24 25  1  0  0  0  0
M  END
>  <MODEL>
6

>  <REMARK>
 VINA RESULT:      -6.5      4.413      8.308
  Name = 
  5 active torsions:
  status: ('A' for Active; 'I' for Inactive)
    1  A    between atoms: C_3  and  C_14
    2  A    between atoms: C_4  and  C_13
    3  A    between atoms: C_7  and  C_15
    4  A    between atoms: C_12  and  C_14
    5  A    between atoms: C_15  and  N_17
                            x       y       z     vdW  Elec       q    Type
                         _______ _______ _______ _____ _____    ______ ____

>  <TORSDO>
F 5

$$$$
=
 OpenBabel10222416013D

 25 26  0  0  1  0  0  0  0  0999 V2000
  187.2310  178.3080  145.3400 C   0  0  0  0  0  2  0  0  0  0  0  0
  187.5900  177.6590  142.8680 C   0  0  2  0  0  3  0  0  0  0  0  0
  185.6020  179.4450  146.6350 O   0  0  0  0  0  1  0  0  0  0  0  0
  185.1350  178.2740  143.0660 C   0  0  1  0  0  3  0  0  0  0  0  0
  186.4640  178.5910  142.4040 C   0  0  0  0  0  2  0  0  0  0  0  0
  187.5240  177.1900  144.3340 C   0  0  0  0  0  2  0  0  0  0  0  0
  185.7320  178.5220  145.5950 C   0  0  1  0  0  0  0  0  0  0  0  0
  185.0450  179.0470  144.3570 C   0  0  0  0  0  0  0  0  0  0  0  0
  184.4770  180.1300  144.3840 O   0  0  0  0  0  0  0  0  0  0  0  0
  185.0730  177.2230  146.0370 C   0  0  0  0  0  1  0  0  0  0  0  0
  190.0010  177.8210  143.3920 N   0  0  0  0  0  1  0  0  0  0  0  0
  188.9560  178.2220  142.4620 C   0  0  1  0  0  3  0  0  0  0  0  0
  188.9390  178.6500  140.0160 N   0  0  0  0  0  0  0  0  0  0  0  0
  189.2800  178.3430  138.7380 C   0  0  0  0  0  3  0  0  0  0  0  0
  190.0180  177.2320  138.4780 N   0  0  0  0  0  0  0  0  0  0  0  0
  189.3200  177.8560  141.0560 C   0  0  0  0  0  0  0  0  0  0  0  0
  190.0860  176.7130  140.8030 C   0  0  0  0  0  0  0  0  0  0  0  0
  190.4250  176.4160  139.4840 C   0  0  0  0  0  3  0  0  0  0  0  0
  190.4960  175.9030  141.8110 F   0  0  0  0  0  0  0  0  0  0  0  0
  183.9860  178.5820  142.1120 C   0  0  0  0  0  2  0  0  0  0  0  0
  184.5030  178.7090  139.6360 C   0  0  0  0  0  0  0  0  0  0  0  0
  184.2170  177.9570  140.8170 N   0  0  0  0  0  2  0  0  0  0  0  0
  184.5380  179.9680  139.6690 O   0  0  0  0  0  0  0  0  0  0  0  0
  184.8010  177.9980  138.3650 C   0  0  0  0  0  2  0  0  0  0  0  0
  186.0160  178.5340  137.7780 N   0  0  0  0  0  1  0  0  0  0  0  0
  1  7  1  0  0  0  0
  2 12  1  1  0  0  0
  2  6  1  0  0  0  0
  4 20  1  6  0  0  0
  4  8  1  0  0  0  0
  5  2  1  0  0  0  0
  5  4  1  0  0  0  0
  6  1  1  0  0  0  0
  7 10  1  1  0  0  0
  7  3  1  0  0  0  0
  8  9  2  0  0  0  0
  8  7  1  0  0  0  0
 12 11  1  1  0  0  0
 13 16  1  0  0  0  0
 14 13  2  0  0  0  0
 15 14  1  0  0  0  0
 15 18  2  0  0  0  0
 16 12  1  0  0  0  0
 17 16  2  0  0  0  0
 17 19  1  0  0  0  0
 18 17  1  0  0  0  0
 21 23  2  0  0  0  0
 21 22  1  0  0  0  0
 22 20  1  0  0  0  0
 24 21  1  0  0  0  0
 25 24  1  0  0  0  0
M  END
>  <MODEL>
7

>  <REMARK>
 VINA RESULT:      -6.5      3.140      4.885
  Name = 
  5 active torsions:
  status: ('A' for Active; 'I' for Inactive)
    1  A    between atoms: C_3  and  C_14
    2  A    between atoms: C_4  and  C_13
    3  A    between atoms: C_7  and  C_15
    4  A    between atoms: C_12  and  C_14
    5  A    between atoms: C_15  and  N_17
                            x       y       z     vdW  Elec       q    Type
                         _______ _______ _______ _____ _____    ______ ____

>  <TORSDO>
F 5

$$$$
=
 OpenBabel10222416013D

 25 26  0  0  1  0  0  0  0  0999 V2000
  187.0510  178.4130  145.2140 C   0  0  0  0  0  2  0  0  0  0  0  0
  186.9210  177.3460  142.8680 C   0  0  2  0  0  3  0  0  0  0  0  0
  185.7960  179.9520  146.5110 O   0  0  0  0  0  1  0  0  0  0  0  0
  184.6180  178.3190  143.3060 C   0  0  1  0  0  3  0  0  0  0  0  0
  185.8470  178.3420  142.4140 C   0  0  0  0  0  2  0  0  0  0  0  0
  187.0450  177.1230  144.3870 C   0  0  0  0  0  2  0  0  0  0  0  0
  185.6480  178.8700  145.6400 C   0  0  1  0  0  0  0  0  0  0  0  0
  184.8300  179.2870  144.4410 C   0  0  0  0  0  0  0  0  0  0  0  0
  184.4000  180.4300  144.3600 O   0  0  0  0  0  0  0  0  0  0  0  0
  184.9280  177.7590  146.3920 C   0  0  0  0  0  1  0  0  0  0  0  0
  188.2360  178.9340  141.5020 N   0  0  0  0  0  1  0  0  0  0  0  0
  188.2560  177.6450  142.1780 C   0  0  1  0  0  3  0  0  0  0  0  0
  189.9640  178.6860  143.6490 N   0  0  0  0  0  0  0  0  0  0  0  0
  190.9980  178.6200  144.5270 C   0  0  0  0  0  3  0  0  0  0  0  0
  191.4960  177.4130  144.9030 N   0  0  0  0  0  0  0  0  0  0  0  0
  189.4130  177.5550  143.1260 C   0  0  0  0  0  0  0  0  0  0  0  0
  189.9120  176.3060  143.5100 C   0  0  0  0  0  0  0  0  0  0  0  0
  190.9730  176.2600  144.4120 C   0  0  0  0  0  3  0  0  0  0  0  0
  189.3830  175.1560  143.0230 F   0  0  0  0  0  0  0  0  0  0  0  0
  183.3700  178.6330  142.4870 C   0  0  0  0  0  2  0  0  0  0  0  0
  180.9310  179.1570  142.9210 C   0  0  0  0  0  0  0  0  0  0  0  0
  182.1870  178.6170  143.3360 N   0  0  0  0  0  2  0  0  0  0  0  0
  180.8080  179.7030  141.7920 O   0  0  0  0  0  0  0  0  0  0  0  0
  179.7480  179.0380  143.8140 C   0  0  0  0  0  2  0  0  0  0  0  0
  179.6600  177.6850  144.3320 N   0  0  0  0  0  1  0  0  0  0  0  0
  1  7  1  0  0  0  0
  2 12  1  1  0  0  0
  2  6  1  0  0  0  0
  4 20  1  6  0  0  0
  4  8  1  0  0  0  0
  5  2  1  0  0  0  0
  5  4  1  0  0  0  0
  6  1  1  0  0  0  0
  7 10  1  1  0  0  0
  7  3  1  0  0  0  0
  8  7  1  0  0  0  0
  9  8  2  0  0  0  0
 12 11  1  1  0  0  0
 12 16  1  0  0  0  0
 13 14  1  0  0  0  0
 14 15  2  0  0  0  0
 16 17  1  0  0  0  0
 16 13  2  0  0  0  0
 17 18  2  0  0  0  0
 18 15  1  0  0  0  0
 19 17  1  0  0  0  0
 20 22  1  0  0  0  0
 21 22  1  0  0  0  0
 21 24  1  0  0  0  0
 23 21  2  0  0  0  0
 24 25  1  0  0  0  0
M  END
>  <MODEL>
8

>  <REMARK>
 VINA RESULT:      -6.3      2.967      5.171
  Name = 
  5 active torsions:
  status: ('A' for Active; 'I' for Inactive)
    1  A    between atoms: C_3  and  C_14
    2  A    between atoms: C_4  and  C_13
    3  A    between atoms: C_7  and  C_15
    4  A    between atoms: C_12  and  C_14
    5  A    between atoms: C_15  and  N_17
                            x       y       z     vdW  Elec       q    Type
                         _______ _______ _______ _____ _____    ______ ____

>  <TORSDO>
F 5

$$$$
=
 OpenBabel10222416013D

 25 26  0  0  1  0  0  0  0  0999 V2000
  191.2500  177.6480  141.7690 C   0  0  0  0  0  2  0  0  0  0  0  0
  188.8840  177.3290  140.7890 C   0  0  2  0  0  3  0  0  0  0  0  0
  192.2210  178.2140  143.8580 O   0  0  0  0  0  1  0  0  0  0  0  0
  188.5940  177.2750  143.3110 C   0  0  1  0  0  3  0  0  0  0  0  0
  188.2300  177.9790  142.0150 C   0  0  0  0  0  2  0  0  0  0  0  0
  190.2890  176.7330  141.0030 C   0  0  0  0  0  2  0  0  0  0  0  0
  191.1990  177.4480  143.2910 C   0  0  1  0  0  0  0  0  0  0  0  0
  189.8640  177.8850  143.8470 C   0  0  0  0  0  0  0  0  0  0  0  0
  189.8110  178.7800  144.6800 O   0  0  0  0  0  0  0  0  0  0  0  0
  191.4520  175.9900  143.6490 C   0  0  0  0  0  1  0  0  0  0  0  0
  190.0360  178.3010  138.8300 N   0  0  0  0  0  1  0  0  0  0  0  0
  188.7860  178.2560  139.5740 C   0  0  1  0  0  3  0  0  0  0  0  0
  186.4940  178.6240  138.6920 N   0  0  0  0  0  0  0  0  0  0  0  0
  185.4560  178.3170  137.8700 C   0  0  0  0  0  3  0  0  0  0  0  0
  185.5550  177.2690  137.0110 N   0  0  0  0  0  0  0  0  0  0  0  0
  187.6420  177.8900  138.6780 C   0  0  0  0  0  0  0  0  0  0  0  0
  187.7580  176.8130  137.7930 C   0  0  0  0  0  0  0  0  0  0  0  0
  186.6830  176.5160  136.9580 C   0  0  0  0  0  3  0  0  0  0  0  0
  188.8890  176.0660  137.7390 F   0  0  0  0  0  0  0  0  0  0  0  0
  187.4350  177.3610  144.2990 C   0  0  0  0  0  2  0  0  0  0  0  0
  187.1160  177.6310  146.7960 C   0  0  0  0  0  0  0  0  0  0  0  0
  187.9280  177.3000  145.6680 N   0  0  0  0  0  2  0  0  0  0  0  0
  185.9290  178.0230  146.6410 O   0  0  0  0  0  0  0  0  0  0  0  0
  187.6650  177.4740  148.1690 C   0  0  0  0  0  2  0  0  0  0  0  0
  189.1100  177.6160  148.1360 N   0  0  0  0  0  1  0  0  0  0  0  0
  1  7  1  0  0  0  0
  2 12  1  6  0  0  0
  2  6  1  0  0  0  0
  2  5  1  0  0  0  0
  4  8  1  0  0  0  0
  4 20  1  1  0  0  0
  5  4  1  0  0  0  0
  6  1  1  0  0  0  0
  7 10  1  1  0  0  0
  7  8  1  0  0  0  0
  7  3  1  0  0  0  0
  8  9  2  0  0  0  0
 12 11  1  6  0  0  0
 14 13  2  0  0  0  0
 15 14  1  0  0  0  0
 16 13  1  0  0  0  0
 16 12  1  0  0  0  0
 17 16  2  0  0  0  0
 18 15  2  0  0  0  0
 18 17  1  0  0  0  0
 19 17  1  0  0  0  0
 20 22  1  0  0  0  0
 21 24  1  0  0  0  0
 22 21  1  0  0  0  0
 23 21  2  0  0  0  0
 25 24  1  0  0  0  0
M  END
>  <MODEL>
9

>  <REMARK>
 VINA RESULT:      -6.3      2.666      4.021
  Name = 
  5 active torsions:
  status: ('A' for Active; 'I' for Inactive)
    1  A    between atoms: C_3  and  C_14
    2  A    between atoms: C_4  and  C_13
    3  A    between atoms: C_7  and  C_15
    4  A    between atoms: C_12  and  C_14
    5  A    between atoms: C_15  and  N_17
                            x       y       z     vdW  Elec       q    Type
                         _______ _______ _______ _____ _____    ______ ____

>  <TORSDO>
F 5

$$$$
