=
 OpenBabel10222419333D

 39 43  0  0  1  0  0  0  0  0999 V2000
  190.0400  177.2210  142.3630 C   0  0  2  0  0  3  0  0  0  0  0  0
  185.8980  177.9920  140.8310 C   0  0  1  0  0  3  0  0  0  0  0  0
  189.7440  176.8740  147.9880 C   0  0  0  0  0  1  0  0  0  0  0  0
  190.2400  176.2290  139.5350 C   0  0  0  0  0  2  0  0  0  0  0  0
  188.2670  179.8770  142.2500 C   0  0  0  0  0  1  0  0  0  0  0  0
  188.9310  177.8000  145.7930 C   0  0  0  0  0  0  0  0  0  0  0  0
  187.6640  177.8580  139.0370 C   0  0  1  0  0  3  0  0  0  0  0  0
  189.9690  177.2280  146.5560 C   0  0  0  0  0  0  0  0  0  0  0  0
  186.3660  178.0760  144.6500 C   0  0  0  0  0  0  0  0  0  0  0  0
  184.7970  178.3760  140.0610 O   0  0  0  0  0  1  0  0  0  0  0  0
  187.1890  178.6330  140.2710 C   0  0  2  0  0  3  0  0  0  0  0  0
  187.5850  176.7270  142.7860 C   0  0  0  0  0  2  0  0  0  0  0  0
  186.8130  178.0830  137.9500 O   0  0  0  0  0  1  0  0  0  0  0  0
  191.4320  176.9000  140.2420 C   0  0  0  0  0  2  0  0  0  0  0  0
  188.6220  177.3690  141.9130 N   0  0  1  0  0  0  0  0  0  0  0  0
  189.1120  178.1560  138.6410 C   0  0  0  0  0  2  0  0  0  0  0  0
  186.4940  177.6780  143.2770 C   0  0  0  0  0  0  0  0  0  0  0  0
  190.2870  177.6200  143.8040 C   0  0  0  0  0  0  0  0  0  0  0  0
  189.7900  176.9060  138.3100 N   0  0  0  0  0  0  0  0  0  0  0  0
  191.3230  177.0300  144.5390 C   0  0  0  0  0  3  0  0  0  0  0  0
  188.3250  178.6860  141.3020 C   0  0  2  0  0  3  0  0  0  0  0  0
  189.1950  178.1220  144.4840 C   0  0  0  0  0  3  0  0  0  0  0  0
  184.6800  179.6950  144.0030 C   0  0  0  0  0  3  0  0  0  0  0  0
  184.7820  179.2980  142.6730 C   0  0  0  0  0  3  0  0  0  0  0  0
  191.1970  176.9090  145.9330 C   0  0  0  0  0  0  0  0  0  0  0  0
  185.4660  179.0910  144.9770 C   0  0  0  0  0  3  0  0  0  0  0  0
  185.6720  178.2890  142.3000 C   0  0  0  0  0  0  0  0  0  0  0  0
  187.2090  177.3010  146.0760 S   0  0  0  0  0  0  0  0  0  0  0  0
  191.0350  177.8530  141.3780 C   0  0  0  0  0  2  0  0  0  0  0  0
  192.2590  176.3930  146.6710 O   0  0  0  0  0  1  0  0  0  0  0  0
  190.9090  177.1810  137.4980 N   0  0  0  0  0  2  0  0  0  0  0  0
  189.9080  175.3280  136.4090 O   0  0  0  0  0  1  0  0  0  0  0  0
  190.9280  176.2840  136.3360 C   0  0  2  0  0  3  0  0  0  0  0  0
  192.2790  175.5910  136.2530 C   0  0  0  0  0  2  0  0  0  0  0  0
  193.2450  176.2910  137.0800 N   0  0  0  0  0  2  0  0  0  0  0  0
  194.5120  176.0090  136.5500 N   0  0  0  0  0  2  0  0  0  0  0  0
  194.6710  176.8360  135.3640 C   0  0  0  0  0  2  0  0  0  0  0  0
  195.7700  178.8170  135.3970 O   0  0  0  0  0  1  0  0  0  0  0  0
  195.9750  177.4770  135.3720 N   0  0  0  0  0  2  0  0  0  0  0  0
  1 29  1  6  0  0  0
  1 18  1  0  0  0  0
  2 10  1  6  0  0  0
  2 27  1  0  0  0  0
  4 14  1  0  0  0  0
  6 28  1  0  0  0  0
  6  8  1  0  0  0  0
  7 13  1  6  0  0  0
  7 11  1  0  0  0  0
  8  3  1  0  0  0  0
  9 26  1  0  0  0  0
  9 28  1  0  0  0  0
 11  2  1  0  0  0  0
 11 21  1  0  0  0  0
 12 17  1  0  0  0  0
 14 29  1  0  0  0  0
 15  1  1  0  0  0  0
 15 12  1  0  0  0  0
 16  7  1  0  0  0  0
 17  9  2  0  0  0  0
 18 22  1  0  0  0  0
 18 20  2  0  0  0  0
 19 16  1  0  0  0  0
 19  4  1  0  0  0  0
 20 25  1  0  0  0  0
 21 15  1  0  0  0  0
 21  5  1  0  0  0  0
 22  6  2  0  0  0  0
 23 26  2  0  0  0  0
 24 23  1  0  0  0  0
 25  8  2  0  0  0  0
 25 30  1  0  0  0  0
 27 24  2  0  0  0  0
 27 17  1  0  0  0  0
 31 19  1  0  0  0  0
 33 32  1  0  0  0  0
 33 31  1  0  0  0  0
 34 33  1  0  0  0  0
 34 35  1  0  0  0  0
 36 35  1  0  0  0  0
 37 39  1  0  0  0  0
 37 36  1  0  0  0  0
 39 38  1  0  0  0  0
M  END
>  <MODEL>
1

>  <REMARK>
 VINA RESULT:      -7.3      0.000      0.000
  Name = 
  7 active torsions:
  status: ('A' for Active; 'I' for Inactive)
    1  A    between atoms: C_3  and  N_23
    2  A    between atoms: C_3  and  N_27
    3  A    between atoms: N_9  and  N_27
    4  A    between atoms: N_9  and  C_32
    5  A    between atoms: N_22  and  N_25
    6  A    between atoms: N_25  and  C_39
    7  A    between atoms: C_32  and  C_39
                            x       y       z     vdW  Elec       q    Type
                         _______ _______ _______ _____ _____    ______ ____

>  <TORSDO>
F 7

$$$$
=
 OpenBabel10222419333D

 39 43  0  0  1  0  0  0  0  0999 V2000
  189.9580  177.1990  142.2730 C   0  0  2  0  0  3  0  0  0  0  0  0
  185.7780  177.9980  140.8610 C   0  0  1  0  0  3  0  0  0  0  0  0
  189.8220  176.8580  147.9050 C   0  0  0  0  0  1  0  0  0  0  0  0
  190.0690  176.2050  139.4410 C   0  0  0  0  0  2  0  0  0  0  0  0
  188.2000  179.8680  142.2090 C   0  0  0  0  0  1  0  0  0  0  0  0
  188.9520  177.7880  145.7330 C   0  0  0  0  0  0  0  0  0  0  0  0
  187.4910  177.8510  139.0170 C   0  0  1  0  0  3  0  0  0  0  0  0
  190.0080  177.2090  146.4660 C   0  0  0  0  0  0  0  0  0  0  0  0
  186.3570  178.0810  144.6650 C   0  0  0  0  0  0  0  0  0  0  0  0
  184.6580  178.3890  140.1220 O   0  0  0  0  0  1  0  0  0  0  0  0
  187.0570  178.6300  140.2630 C   0  0  2  0  0  3  0  0  0  0  0  0
  187.5130  176.7220  142.7670 C   0  0  0  0  0  2  0  0  0  0  0  0
  186.6110  178.0810  137.9540 O   0  0  0  0  0  1  0  0  0  0  0  0
  191.2850  176.8680  140.1130 C   0  0  0  0  0  2  0  0  0  0  0  0
  188.5280  177.3560  141.8640 N   0  0  1  0  0  0  0  0  0  0  0  0
  188.9280  178.1390  138.5790 C   0  0  0  0  0  2  0  0  0  0  0  0
  186.4430  177.6810  143.2890 C   0  0  0  0  0  0  0  0  0  0  0  0
  190.2490  177.5980  143.7060 C   0  0  0  0  0  0  0  0  0  0  0  0
  189.5890  176.8840  138.2290 N   0  0  0  0  0  0  0  0  0  0  0  0
  191.3010  177.0010  144.4110 C   0  0  0  0  0  3  0  0  0  0  0  0
  188.2220  178.6750  141.2610 C   0  0  2  0  0  3  0  0  0  0  0  0
  189.1800  178.1070  144.4170 C   0  0  0  0  0  3  0  0  0  0  0  0
  184.6640  179.7100  144.0660 C   0  0  0  0  0  3  0  0  0  0  0  0
  184.7250  179.3120  142.7340 C   0  0  0  0  0  3  0  0  0  0  0  0
  191.2150  176.8820  145.8080 C   0  0  0  0  0  0  0  0  0  0  0  0
  185.4740  179.1010  145.0170 C   0  0  0  0  0  3  0  0  0  0  0  0
  185.5970  178.2970  142.3360 C   0  0  0  0  0  0  0  0  0  0  0  0
  187.2350  177.3000  146.0660 S   0  0  0  0  0  0  0  0  0  0  0  0
  190.9270  177.8240  141.2590 C   0  0  0  0  0  2  0  0  0  0  0  0
  192.2940  176.3590  146.5150 O   0  0  0  0  0  1  0  0  0  0  0  0
  190.6850  177.1510  137.3850 N   0  0  0  0  0  2  0  0  0  0  0  0
  192.2920  175.5970  136.5930 O   0  0  0  0  0  1  0  0  0  0  0  0
  190.9520  175.9970  136.5160 C   0  0  2  0  0  3  0  0  0  0  0  0
  190.6010  176.3530  135.0800 C   0  0  0  0  0  2  0  0  0  0  0  0
  189.1660  176.5210  134.9500 N   0  0  0  0  0  2  0  0  0  0  0  0
  188.5960  175.2450  135.0590 N   0  0  0  0  0  2  0  0  0  0  0  0
  187.3010  175.4100  135.7010 C   0  0  0  0  0  2  0  0  0  0  0  0
  188.2510  173.7580  136.9250 O   0  0  0  0  0  1  0  0  0  0  0  0
  187.2770  174.7010  136.9690 N   0  0  0  0  0  2  0  0  0  0  0  0
  1 29  1  6  0  0  0
  1 18  1  0  0  0  0
  2 10  1  6  0  0  0
  2 27  1  0  0  0  0
  4 14  1  0  0  0  0
  6 28  1  0  0  0  0
  6  8  1  0  0  0  0
  7 13  1  6  0  0  0
  7 11  1  0  0  0  0
  8  3  1  0  0  0  0
  9 26  1  0  0  0  0
  9 28  1  0  0  0  0
 11  2  1  0  0  0  0
 11 21  1  0  0  0  0
 12 17  1  0  0  0  0
 14 29  1  0  0  0  0
 15  1  1  0  0  0  0
 15 12  1  0  0  0  0
 16  7  1  0  0  0  0
 17  9  2  0  0  0  0
 18 20  2  0  0  0  0
 18 22  1  0  0  0  0
 19 16  1  0  0  0  0
 19  4  1  0  0  0  0
 20 25  1  0  0  0  0
 21 15  1  0  0  0  0
 21  5  1  0  0  0  0
 22  6  2  0  0  0  0
 23 26  2  0  0  0  0
 24 23  1  0  0  0  0
 25  8  2  0  0  0  0
 25 30  1  0  0  0  0
 27 24  2  0  0  0  0
 27 17  1  0  0  0  0
 31 19  1  0  0  0  0
 33 32  1  0  0  0  0
 33 31  1  0  0  0  0
 34 33  1  0  0  0  0
 35 36  1  0  0  0  0
 35 34  1  0  0  0  0
 36 37  1  0  0  0  0
 37 39  1  0  0  0  0
 38 39  1  0  0  0  0
M  END
>  <MODEL>
2

>  <REMARK>
 VINA RESULT:      -6.7      1.634      2.760
  Name = 
  7 active torsions:
  status: ('A' for Active; 'I' for Inactive)
    1  A    between atoms: C_3  and  N_23
    2  A    between atoms: C_3  and  N_27
    3  A    between atoms: N_9  and  N_27
    4  A    between atoms: N_9  and  C_32
    5  A    between atoms: N_22  and  N_25
    6  A    between atoms: N_25  and  C_39
    7  A    between atoms: C_32  and  C_39
                            x       y       z     vdW  Elec       q    Type
                         _______ _______ _______ _____ _____    ______ ____

>  <TORSDO>
F 7

$$$$
=
 OpenBabel10222419333D

 39 43  0  0  1  0  0  0  0  0999 V2000
  187.2240  178.2430  142.3610 C   0  0  2  0  0  3  0  0  0  0  0  0
  191.6390  177.4620  142.3860 C   0  0  1  0  0  3  0  0  0  0  0  0
  185.5780  178.9110  147.7180 C   0  0  0  0  0  1  0  0  0  0  0  0
  188.0070  179.0700  139.5810 C   0  0  0  0  0  2  0  0  0  0  0  0
  188.9240  175.6170  143.0190 C   0  0  0  0  0  1  0  0  0  0  0  0
  187.0910  177.8780  145.9910 C   0  0  0  0  0  0  0  0  0  0  0  0
  190.5940  177.4630  140.0920 C   0  0  1  0  0  3  0  0  0  0  0  0
  185.8560  178.4730  146.3180 C   0  0  0  0  0  0  0  0  0  0  0  0
  189.8920  177.5850  145.8130 C   0  0  0  0  0  0  0  0  0  0  0  0
  192.9370  177.0560  142.0620 O   0  0  0  0  0  1  0  0  0  0  0  0
  190.6170  176.7670  141.4570 C   0  0  2  0  0  3  0  0  0  0  0  0
  189.3870  178.8050  143.5670 C   0  0  0  0  0  2  0  0  0  0  0  0
  191.7650  177.1920  139.3750 O   0  0  0  0  0  1  0  0  0  0  0  0
  186.6430  178.4170  139.8770 C   0  0  0  0  0  2  0  0  0  0  0  0
  188.7110  178.0960  142.4320 N   0  0  1  0  0  0  0  0  0  0  0  0
  189.3690  177.1160  139.2430 C   0  0  0  0  0  2  0  0  0  0  0  0
  190.2430  177.9030  144.4570 C   0  0  0  0  0  0  0  0  0  0  0  0
  186.4990  177.9210  143.6520 C   0  0  0  0  0  0  0  0  0  0  0  0
  188.8470  178.3330  138.6270 N   0  0  0  0  0  0  0  0  0  0  0  0
  185.2750  178.5320  143.9520 C   0  0  0  0  0  3  0  0  0  0  0  0
  189.1960  176.7520  142.0390 C   0  0  2  0  0  3  0  0  0  0  0  0
  187.2910  177.4780  144.6930 C   0  0  0  0  0  3  0  0  0  0  0  0
  191.6950  175.9640  145.8780 C   0  0  0  0  0  3  0  0  0  0  0  0
  192.0550  176.2830  144.5720 C   0  0  0  0  0  3  0  0  0  0  0  0
  184.9160  178.7330  145.2950 C   0  0  0  0  0  0  0  0  0  0  0  0
  190.6240  176.6070  146.4870 C   0  0  0  0  0  3  0  0  0  0  0  0
  191.3480  177.2530  143.8580 C   0  0  0  0  0  0  0  0  0  0  0  0
  188.6140  178.4240  146.8160 S   0  0  0  0  0  0  0  0  0  0  0  0
  186.6260  177.5380  141.1350 C   0  0  0  0  0  2  0  0  0  0  0  0
  183.6670  179.2710  145.5940 O   0  0  0  0  0  1  0  0  0  0  0  0
  188.0730  177.9920  137.4990 N   0  0  0  0  0  2  0  0  0  0  0  0
  189.4310  177.7470  135.5700 O   0  0  0  0  0  1  0  0  0  0  0  0
  188.8160  177.0700  136.6310 C   0  0  2  0  0  3  0  0  0  0  0  0
  187.8680  176.0120  136.0870 C   0  0  0  0  0  2  0  0  0  0  0  0
  188.2740  174.6990  136.5510 N   0  0  0  0  0  2  0  0  0  0  0  0
  189.0430  174.1270  135.5270 N   0  0  0  0  0  2  0  0  0  0  0  0
  190.2420  173.5840  136.1480 C   0  0  0  0  0  2  0  0  0  0  0  0
  191.3050  174.4150  137.9670 O   0  0  0  0  0  1  0  0  0  0  0  0
  190.1800  173.7580  137.5890 N   0  0  0  0  0  2  0  0  0  0  0  0
  1 29  1  6  0  0  0
  1 15  1  0  0  0  0
  1 18  1  0  0  0  0
  2 10  1  6  0  0  0
  2 27  1  0  0  0  0
  4 14  1  0  0  0  0
  6  8  1  0  0  0  0
  6 28  1  0  0  0  0
  7 13  1  6  0  0  0
  7 11  1  0  0  0  0
  8  3  1  0  0  0  0
  9 26  1  0  0  0  0
  9 28  1  0  0  0  0
 11 21  1  0  0  0  0
 11  2  1  0  0  0  0
 12 17  1  0  0  0  0
 14 29  1  0  0  0  0
 15 12  1  0  0  0  0
 16  7  1  0  0  0  0
 17  9  2  0  0  0  0
 18 20  2  0  0  0  0
 18 22  1  0  0  0  0
 19 16  1  0  0  0  0
 19  4  1  0  0  0  0
 20 25  1  0  0  0  0
 21 15  1  0  0  0  0
 21  5  1  0  0  0  0
 22  6  2  0  0  0  0
 23 26  2  0  0  0  0
 24 23  1  0  0  0  0
 25 30  1  0  0  0  0
 25  8  2  0  0  0  0
 27 17  1  0  0  0  0
 27 24  2  0  0  0  0
 31 19  1  0  0  0  0
 32 33  1  0  0  0  0
 33 31  1  0  0  0  0
 34 35  1  0  0  0  0
 34 33  1  0  0  0  0
 36 37  1  0  0  0  0
 36 35  1  0  0  0  0
 37 39  1  0  0  0  0
 39 38  1  0  0  0  0
M  END
>  <MODEL>
3

>  <REMARK>
 VINA RESULT:      -6.6      2.745      4.966
  Name = 
  7 active torsions:
  status: ('A' for Active; 'I' for Inactive)
    1  A    between atoms: C_3  and  N_23
    2  A    between atoms: C_3  and  N_27
    3  A    between atoms: N_9  and  N_27
    4  A    between atoms: N_9  and  C_32
    5  A    between atoms: N_22  and  N_25
    6  A    between atoms: N_25  and  C_39
    7  A    between atoms: C_32  and  C_39
                            x       y       z     vdW  Elec       q    Type
                         _______ _______ _______ _____ _____    ______ ____

>  <TORSDO>
F 7

$$$$
=
 OpenBabel10222419333D

 39 43  0  0  1  0  0  0  0  0999 V2000
  186.9180  177.7020  139.7880 C   0  0  2  0  0  3  0  0  0  0  0  0
  190.9030  176.2720  138.3120 C   0  0  1  0  0  3  0  0  0  0  0  0
  183.2090  177.0640  135.5820 C   0  0  0  0  0  1  0  0  0  0  0  0
  188.3260  177.0520  142.3610 C   0  0  0  0  0  2  0  0  0  0  0  0
  189.1070  179.0620  137.8970 C   0  0  0  0  0  1  0  0  0  0  0  0
  185.5440  177.5100  136.4110 C   0  0  0  0  0  0  0  0  0  0  0  0
  190.9170  177.1300  140.6820 C   0  0  1  0  0  3  0  0  0  0  0  0
  184.1540  177.5310  136.6400 C   0  0  0  0  0  0  0  0  0  0  0  0
  188.0680  176.4580  135.7150 C   0  0  0  0  0  0  0  0  0  0  0  0
  192.2710  176.0570  138.1230 O   0  0  0  0  0  1  0  0  0  0  0  0
  190.6780  177.5070  139.2160 C   0  0  2  0  0  3  0  0  0  0  0  0
  188.0400  175.9960  138.2780 C   0  0  0  0  0  2  0  0  0  0  0  0
  192.2770  176.9200  140.9270 O   0  0  0  0  0  1  0  0  0  0  0  0
  187.3250  178.2190  142.2590 C   0  0  0  0  0  2  0  0  0  0  0  0
  188.1900  177.1110  139.2700 N   0  0  1  0  0  0  0  0  0  0  0  0
  190.3560  178.1470  141.6790 C   0  0  0  0  0  2  0  0  0  0  0  0
  188.7620  176.2300  136.9510 C   0  0  0  0  0  0  0  0  0  0  0  0
  185.9370  178.1230  138.7120 C   0  0  0  0  0  0  0  0  0  0  0  0
  189.6840  177.4400  142.7660 N   0  0  0  0  0  0  0  0  0  0  0  0
  184.5600  178.1290  138.9670 C   0  0  0  0  0  3  0  0  0  0  0  0
  189.2720  178.1040  139.0710 C   0  0  2  0  0  3  0  0  0  0  0  0
  186.3690  177.9650  137.4100 C   0  0  0  0  0  3  0  0  0  0  0  0
  190.1810  176.9920  134.6500 C   0  0  0  0  0  3  0  0  0  0  0  0
  190.8630  176.7500  135.8390 C   0  0  0  0  0  3  0  0  0  0  0  0
  183.6620  177.9150  137.9080 C   0  0  0  0  0  0  0  0  0  0  0  0
  188.8000  176.8490  134.5940 C   0  0  0  0  0  3  0  0  0  0  0  0
  190.1710  176.3600  136.9870 C   0  0  0  0  0  0  0  0  0  0  0  0
  186.2850  176.1820  135.4180 S   0  0  0  0  0  0  0  0  0  0  0  0
  187.1670  178.7900  140.8430 C   0  0  0  0  0  2  0  0  0  0  0  0
  182.2930  177.9970  138.1480 O   0  0  0  0  0  1  0  0  0  0  0  0
  189.6060  178.2800  143.8940 N   0  0  0  0  0  2  0  0  0  0  0  0
  191.0140  176.5240  144.6410 O   0  0  0  0  0  1  0  0  0  0  0  0
  190.4610  177.7670  144.9730 C   0  0  2  0  0  3  0  0  0  0  0  0
  189.6460  177.6450  146.2500 C   0  0  0  0  0  2  0  0  0  0  0  0
  188.3040  177.1880  145.9390 N   0  0  0  0  0  2  0  0  0  0  0  0
  187.4410  177.8190  146.8460 N   0  0  0  0  0  2  0  0  0  0  0  0
  186.1260  177.8580  146.2250 C   0  0  0  0  0  2  0  0  0  0  0  0
  184.1470  178.9600  146.1810 O   0  0  0  0  0  1  0  0  0  0  0  0
  185.2710  178.8030  146.9240 N   0  0  0  0  0  2  0  0  0  0  0  0
  1 29  1  6  0  0  0
  2 10  1  6  0  0  0
  2 11  1  0  0  0  0
  3  8  1  0  0  0  0
  4 19  1  0  0  0  0
  5 21  1  0  0  0  0
  6  8  2  0  0  0  0
  6 22  1  0  0  0  0
  7 13  1  6  0  0  0
  7 16  1  0  0  0  0
  8 25  1  0  0  0  0
  9 17  1  0  0  0  0
 11  7  1  0  0  0  0
 12 15  1  0  0  0  0
 14  4  1  0  0  0  0
 15  1  1  0  0  0  0
 16 19  1  0  0  0  0
 17 27  2  0  0  0  0
 17 12  1  0  0  0  0
 18 20  1  0  0  0  0
 18  1  1  0  0  0  0
 19 31  1  0  0  0  0
 21 11  1  0  0  0  0
 21 15  1  0  0  0  0
 22 18  2  0  0  0  0
 23 24  2  0  0  0  0
 24 27  1  0  0  0  0
 25 30  1  0  0  0  0
 25 20  2  0  0  0  0
 26 23  1  0  0  0  0
 26  9  2  0  0  0  0
 27  2  1  0  0  0  0
 28  9  1  0  0  0  0
 28  6  1  0  0  0  0
 29 14  1  0  0  0  0
 31 33  1  0  0  0  0
 32 33  1  0  0  0  0
 33 34  1  0  0  0  0
 35 34  1  0  0  0  0
 35 36  1  0  0  0  0
 37 36  1  0  0  0  0
 37 39  1  0  0  0  0
 38 39  1  0  0  0  0
M  END
>  <MODEL>
4

>  <REMARK>
 VINA RESULT:      -6.6      3.336      8.953
  Name = 
  7 active torsions:
  status: ('A' for Active; 'I' for Inactive)
    1  A    between atoms: C_3  and  N_23
    2  A    between atoms: C_3  and  N_27
    3  A    between atoms: N_9  and  N_27
    4  A    between atoms: N_9  and  C_32
    5  A    between atoms: N_22  and  N_25
    6  A    between atoms: N_25  and  C_39
    7  A    between atoms: C_32  and  C_39
                            x       y       z     vdW  Elec       q    Type
                         _______ _______ _______ _____ _____    ______ ____

>  <TORSDO>
F 7

$$$$
=
 OpenBabel10222419333D

 39 43  0  0  1  0  0  0  0  0999 V2000
  187.3510  178.2260  143.4220 C   0  0  2  0  0  3  0  0  0  0  0  0
  191.4550  177.1820  141.9490 C   0  0  1  0  0  3  0  0  0  0  0  0
  187.5150  178.2430  149.0640 C   0  0  0  0  0  1  0  0  0  0  0  0
  187.3180  179.3810  140.6500 C   0  0  0  0  0  2  0  0  0  0  0  0
  188.8940  175.4360  143.2030 C   0  0  0  0  0  1  0  0  0  0  0  0
  188.3080  177.3690  146.8400 C   0  0  0  0  0  0  0  0  0  0  0  0
  189.7590  177.5650  140.1240 C   0  0  1  0  0  3  0  0  0  0  0  0
  187.3010  177.9880  147.6090 C   0  0  0  0  0  0  0  0  0  0  0  0
  190.8720  176.9340  145.7450 C   0  0  0  0  0  0  0  0  0  0  0  0
  192.5410  176.7460  141.1850 O   0  0  0  0  0  1  0  0  0  0  0  0
  190.1310  176.6860  141.3230 C   0  0  2  0  0  3  0  0  0  0  0  0
  189.8260  178.4820  143.9310 C   0  0  0  0  0  2  0  0  0  0  0  0
  190.6180  177.3260  139.0460 O   0  0  0  0  0  1  0  0  0  0  0  0
  186.0530  178.7790  141.2900 C   0  0  0  0  0  2  0  0  0  0  0  0
  188.7640  177.9800  142.9990 N   0  0  1  0  0  0  0  0  0  0  0  0
  188.3030  177.4150  139.6770 C   0  0  0  0  0  2  0  0  0  0  0  0
  190.8180  177.4150  144.3940 C   0  0  0  0  0  0  0  0  0  0  0  0
  187.0300  177.7730  144.8320 C   0  0  0  0  0  0  0  0  0  0  0  0
  187.7430  178.7350  139.4000 N   0  0  0  0  0  0  0  0  0  0  0  0
  186.0280  178.4100  145.5740 C   0  0  0  0  0  3  0  0  0  0  0  0
  188.9650  176.6770  142.3220 C   0  0  2  0  0  3  0  0  0  0  0  0
  188.0550  177.1420  145.5090 C   0  0  0  0  0  3  0  0  0  0  0  0
  192.4330  175.2130  145.0490 C   0  0  0  0  0  3  0  0  0  0  0  0
  192.4030  175.6880  143.7420 C   0  0  0  0  0  3  0  0  0  0  0  0
  186.1230  178.4440  146.9750 C   0  0  0  0  0  0  0  0  0  0  0  0
  191.6730  175.8300  146.0360 C   0  0  0  0  0  3  0  0  0  0  0  0
  191.6130  176.7880  143.4040 C   0  0  0  0  0  0  0  0  0  0  0  0
  190.0580  177.7020  147.1920 S   0  0  0  0  0  0  0  0  0  0  0  0
  186.3350  177.7360  142.3800 C   0  0  0  0  0  2  0  0  0  0  0  0
  185.0880  179.0100  147.7150 O   0  0  0  0  0  1  0  0  0  0  0  0
  186.6280  178.6010  138.5480 N   0  0  0  0  0  2  0  0  0  0  0  0
  187.7600  178.5000  136.4660 O   0  0  0  0  0  1  0  0  0  0  0  0
  186.9760  177.7830  137.3790 C   0  0  2  0  0  3  0  0  0  0  0  0
  185.7020  177.3040  136.7000 C   0  0  0  0  0  2  0  0  0  0  0  0
  185.8760  175.9430  136.2280 N   0  0  0  0  0  2  0  0  0  0  0  0
  186.6070  175.2620  137.2120 N   0  0  0  0  0  2  0  0  0  0  0  0
  186.7960  173.9000  136.7360 C   0  0  0  0  0  2  0  0  0  0  0  0
  185.1130  173.0260  137.9760 O   0  0  0  0  0  1  0  0  0  0  0  0
  186.4540  172.9530  137.7840 N   0  0  0  0  0  2  0  0  0  0  0  0
  1 29  1  6  0  0  0
  1 18  1  0  0  0  0
  2 10  1  6  0  0  0
  2 27  1  0  0  0  0
  4 14  1  0  0  0  0
  6 28  1  0  0  0  0
  6  8  1  0  0  0  0
  7 13  1  6  0  0  0
  7 11  1  0  0  0  0
  8  3  1  0  0  0  0
  9 26  1  0  0  0  0
  9 28  1  0  0  0  0
 11  2  1  0  0  0  0
 11 21  1  0  0  0  0
 12 17  1  0  0  0  0
 14 29  1  0  0  0  0
 15  1  1  0  0  0  0
 15 12  1  0  0  0  0
 16  7  1  0  0  0  0
 17  9  2  0  0  0  0
 18 22  1  0  0  0  0
 18 20  2  0  0  0  0
 19 16  1  0  0  0  0
 19  4  1  0  0  0  0
 20 25  1  0  0  0  0
 21 15  1  0  0  0  0
 21  5  1  0  0  0  0
 22  6  2  0  0  0  0
 23 26  2  0  0  0  0
 24 23  1  0  0  0  0
 25  8  2  0  0  0  0
 25 30  1  0  0  0  0
 27 24  2  0  0  0  0
 27 17  1  0  0  0  0
 31 19  1  0  0  0  0
 32 33  1  0  0  0  0
 33 31  1  0  0  0  0
 34 33  1  0  0  0  0
 35 34  1  0  0  0  0
 35 36  1  0  0  0  0
 37 36  1  0  0  0  0
 37 39  1  0  0  0  0
 39 38  1  0  0  0  0
M  END
>  <MODEL>
5

>  <REMARK>
 VINA RESULT:      -6.5      3.453      5.724
  Name = 
  7 active torsions:
  status: ('A' for Active; 'I' for Inactive)
    1  A    between atoms: C_3  and  N_23
    2  A    between atoms: C_3  and  N_27
    3  A    between atoms: N_9  and  N_27
    4  A    between atoms: N_9  and  C_32
    5  A    between atoms: N_22  and  N_25
    6  A    between atoms: N_25  and  C_39
    7  A    between atoms: C_32  and  C_39
                            x       y       z     vdW  Elec       q    Type
                         _______ _______ _______ _____ _____    ______ ____

>  <TORSDO>
F 7

$$$$
=
 OpenBabel10222419333D

 39 43  0  0  1  0  0  0  0  0999 V2000
  187.3280  178.2340  142.0750 C   0  0  2  0  0  3  0  0  0  0  0  0
  191.7370  177.4520  142.3060 C   0  0  1  0  0  3  0  0  0  0  0  0
  185.4500  178.9930  147.3430 C   0  0  0  0  0  1  0  0  0  0  0  0
  188.2330  179.0130  139.3180 C   0  0  0  0  0  2  0  0  0  0  0  0
  188.9940  175.6190  142.8500 C   0  0  0  0  0  1  0  0  0  0  0  0
  187.0360  177.9310  145.7010 C   0  0  0  0  0  0  0  0  0  0  0  0
  190.7930  177.4140  139.9680 C   0  0  1  0  0  3  0  0  0  0  0  0
  185.7890  178.5320  145.9640 C   0  0  0  0  0  0  0  0  0  0  0  0
  189.8420  177.6340  145.6500 C   0  0  0  0  0  0  0  0  0  0  0  0
  193.0470  177.0400  142.0460 O   0  0  0  0  0  1  0  0  0  0  0  0
  190.7550  176.7420  141.3450 C   0  0  2  0  0  3  0  0  0  0  0  0
  189.4370  178.8150  143.3650 C   0  0  0  0  0  2  0  0  0  0  0  0
  191.9940  177.1310  139.3090 O   0  0  0  0  0  1  0  0  0  0  0  0
  186.8570  178.3670  139.5650 C   0  0  0  0  0  2  0  0  0  0  0  0
  188.8100  178.0870  142.2140 N   0  0  1  0  0  0  0  0  0  0  0  0
  189.6060  177.0540  139.0730 C   0  0  0  0  0  2  0  0  0  0  0  0
  190.2520  177.9280  144.3060 C   0  0  0  0  0  0  0  0  0  0  0  0
  186.5470  177.9340  143.3380 C   0  0  0  0  0  0  0  0  0  0  0  0
  189.1130  178.2600  138.4140 N   0  0  0  0  0  0  0  0  0  0  0  0
  185.3120  178.5510  143.5740 C   0  0  0  0  0  3  0  0  0  0  0  0
  189.3110  176.7370  141.8640 C   0  0  2  0  0  3  0  0  0  0  0  0
  187.2920  177.5080  144.4200 C   0  0  0  0  0  3  0  0  0  0  0  0
  191.6380  176.0130  145.8220 C   0  0  0  0  0  3  0  0  0  0  0  0
  192.0550  176.3100  144.5280 C   0  0  0  0  0  3  0  0  0  0  0  0
  184.8950  178.7750  144.8970 C   0  0  0  0  0  0  0  0  0  0  0  0
  190.5420  176.6670  146.3720 C   0  0  0  0  0  3  0  0  0  0  0  0
  191.3820  177.2680  143.7670 C   0  0  0  0  0  0  0  0  0  0  0  0
  188.5220  178.4900  146.5820 S   0  0  0  0  0  0  0  0  0  0  0  0
  186.7830  177.5090  140.8360 C   0  0  0  0  0  2  0  0  0  0  0  0
  183.6340  179.3180  145.1310 O   0  0  0  0  0  1  0  0  0  0  0  0
  188.3880  177.9010  137.2600 N   0  0  0  0  0  2  0  0  0  0  0  0
  189.7820  176.8180  135.6750 O   0  0  0  0  0  1  0  0  0  0  0  0
  188.8790  176.6220  136.7270 C   0  0  2  0  0  3  0  0  0  0  0  0
  187.7010  175.7890  136.2480 C   0  0  0  0  0  2  0  0  0  0  0  0
  186.5080  176.1440  136.9940 N   0  0  0  0  0  2  0  0  0  0  0  0
  185.5950  175.0930  136.8240 N   0  0  0  0  0  2  0  0  0  0  0  0
  186.3140  173.8580  137.0970 C   0  0  0  0  0  2  0  0  0  0  0  0
  184.7170  172.2540  137.1790 O   0  0  0  0  0  1  0  0  0  0  0  0
  185.5260  173.0030  137.9680 N   0  0  0  0  0  2  0  0  0  0  0  0
  1 29  1  6  0  0  0
  1 15  1  0  0  0  0
  1 18  1  0  0  0  0
  2 10  1  1  0  0  0
  2 27  1  0  0  0  0
  4 14  1  0  0  0  0
  6  8  1  0  0  0  0
  6 28  1  0  0  0  0
  7 13  1  6  0  0  0
  7 11  1  0  0  0  0
  8  3  1  0  0  0  0
  9 26  1  0  0  0  0
  9 28  1  0  0  0  0
 11 21  1  0  0  0  0
 11  2  1  0  0  0  0
 12 17  1  0  0  0  0
 14 29  1  0  0  0  0
 15 12  1  0  0  0  0
 16  7  1  0  0  0  0
 17  9  2  0  0  0  0
 18 20  2  0  0  0  0
 18 22  1  0  0  0  0
 19 16  1  0  0  0  0
 19  4  1  0  0  0  0
 20 25  1  0  0  0  0
 21 15  1  0  0  0  0
 21  5  1  0  0  0  0
 22  6  2  0  0  0  0
 23 26  2  0  0  0  0
 24 23  1  0  0  0  0
 25 30  1  0  0  0  0
 25  8  2  0  0  0  0
 27 17  1  0  0  0  0
 27 24  2  0  0  0  0
 31 19  1  0  0  0  0
 32 33  1  0  0  0  0
 33 31  1  0  0  0  0
 34 33  1  0  0  0  0
 34 35  1  0  0  0  0
 36 35  1  0  0  0  0
 36 37  1  0  0  0  0
 37 39  1  0  0  0  0
 38 39  1  0  0  0  0
M  END
>  <MODEL>
6

>  <REMARK>
 VINA RESULT:      -6.4      2.840      5.729
  Name = 
  7 active torsions:
  status: ('A' for Active; 'I' for Inactive)
    1  A    between atoms: C_3  and  N_23
    2  A    between atoms: C_3  and  N_27
    3  A    between atoms: N_9  and  N_27
    4  A    between atoms: N_9  and  C_32
    5  A    between atoms: N_22  and  N_25
    6  A    between atoms: N_25  and  C_39
    7  A    between atoms: C_32  and  C_39
                            x       y       z     vdW  Elec       q    Type
                         _______ _______ _______ _____ _____    ______ ____

>  <TORSDO>
F 7

$$$$
=
 OpenBabel10222419333D

 39 43  0  0  1  0  0  0  0  0999 V2000
  187.1130  178.1470  141.3300 C   0  0  2  0  0  3  0  0  0  0  0  0
  190.8790  177.8330  143.7430 C   0  0  1  0  0  3  0  0  0  0  0  0
  182.8830  179.2430  144.9030 C   0  0  0  0  0  1  0  0  0  0  0  0
  189.2130  178.7310  139.2640 C   0  0  0  0  0  2  0  0  0  0  0  0
  188.2890  175.8010  143.1550 C   0  0  0  0  0  1  0  0  0  0  0  0
  185.1060  178.1830  144.3800 C   0  0  0  0  0  0  0  0  0  0  0  0
  191.1930  177.4670  141.2680 C   0  0  1  0  0  3  0  0  0  0  0  0
  183.8660  178.6810  143.9310 C   0  0  0  0  0  0  0  0  0  0  0  0
  187.5910  178.1610  145.7160 C   0  0  0  0  0  0  0  0  0  0  0  0
  192.1640  177.5280  144.1990 O   0  0  0  0  0  1  0  0  0  0  0  0
  190.5160  176.9360  142.5370 C   0  0  2  0  0  3  0  0  0  0  0  0
  188.3040  179.0610  143.3780 C   0  0  0  0  0  2  0  0  0  0  0  0
  192.5730  177.2400  141.3080 O   0  0  0  0  0  1  0  0  0  0  0  0
  187.9160  177.9790  138.9090 C   0  0  0  0  0  2  0  0  0  0  0  0
  188.3440  178.1630  142.1780 N   0  0  1  0  0  0  0  0  0  0  0  0
  190.6050  176.9020  139.9730 C   0  0  0  0  0  2  0  0  0  0  0  0
  188.5910  178.3590  144.7050 C   0  0  0  0  0  0  0  0  0  0  0  0
  185.8270  177.9000  142.0940 C   0  0  0  0  0  0  0  0  0  0  0  0
  190.4500  177.9820  139.0010 N   0  0  0  0  0  0  0  0  0  0  0  0
  184.6110  178.4120  141.6260 C   0  0  0  0  0  3  0  0  0  0  0  0
  189.0030  176.8410  142.2980 C   0  0  2  0  0  3  0  0  0  0  0  0
  185.9680  177.6610  143.4470 C   0  0  0  0  0  3  0  0  0  0  0  0
  189.1370  176.7520  146.9430 C   0  0  0  0  0  3  0  0  0  0  0  0
  190.1190  176.9570  145.9790 C   0  0  0  0  0  3  0  0  0  0  0  0
  183.5960  178.7250  142.5440 C   0  0  0  0  0  0  0  0  0  0  0  0
  187.8880  177.3470  146.8090 C   0  0  0  0  0  3  0  0  0  0  0  0
  189.8650  177.7630  144.8670 C   0  0  0  0  0  0  0  0  0  0  0  0
  185.9530  178.9720  145.7780 S   0  0  0  0  0  0  0  0  0  0  0  0
  187.2670  177.2500  140.0930 C   0  0  0  0  0  2  0  0  0  0  0  0
  182.3610  179.1620  142.0720 O   0  0  0  0  0  1  0  0  0  0  0  0
  190.3920  177.4380  137.7020 N   0  0  0  0  0  2  0  0  0  0  0  0
  192.4570  176.4440  137.0910 O   0  0  0  0  0  1  0  0  0  0  0  0
  191.1870  176.2050  137.6300 C   0  0  2  0  0  3  0  0  0  0  0  0
  190.4530  175.1780  136.7830 C   0  0  0  0  0  2  0  0  0  0  0  0
  189.1290  175.6690  136.4490 N   0  0  0  0  0  2  0  0  0  0  0  0
  188.2810  174.5530  136.4080 N   0  0  0  0  0  2  0  0  0  0  0  0
  187.0500  174.9290  137.0860 C   0  0  0  0  0  2  0  0  0  0  0  0
  186.8310  172.7030  137.4430 O   0  0  0  0  0  1  0  0  0  0  0  0
  186.1240  173.8090  137.1000 N   0  0  0  0  0  2  0  0  0  0  0  0
  1 29  1  6  0  0  0
  1 18  1  0  0  0  0
  1 15  1  0  0  0  0
  2 10  1  1  0  0  0
  2 27  1  0  0  0  0
  6 28  1  0  0  0  0
  7 13  1  1  0  0  0
  7 11  1  0  0  0  0
  8  6  1  0  0  0  0
  8  3  1  0  0  0  0
  9 28  1  0  0  0  0
  9 26  1  0  0  0  0
 11  2  1  0  0  0  0
 12 17  1  0  0  0  0
 14  4  1  0  0  0  0
 14 29  1  0  0  0  0
 15 21  1  0  0  0  0
 15 12  1  0  0  0  0
 16  7  1  0  0  0  0
 17 27  1  0  0  0  0
 17  9  2  0  0  0  0
 18 22  1  0  0  0  0
 19  4  1  0  0  0  0
 19 16  1  0  0  0  0
 20 18  2  0  0  0  0
 20 25  1  0  0  0  0
 21 11  1  0  0  0  0
 21  5  1  0  0  0  0
 22  6  2  0  0  0  0
 24 23  1  0  0  0  0
 25  8  2  0  0  0  0
 26 23  2  0  0  0  0
 27 24  2  0  0  0  0
 30 25  1  0  0  0  0
 31 19  1  0  0  0  0
 32 33  1  0  0  0  0
 33 31  1  0  0  0  0
 34 33  1  0  0  0  0
 35 34  1  0  0  0  0
 36 35  1  0  0  0  0
 36 37  1  0  0  0  0
 37 39  1  0  0  0  0
 39 38  1  0  0  0  0
M  END
>  <MODEL>
7

>  <REMARK>
 VINA RESULT:      -6.3      2.242      5.532
  Name = 
  7 active torsions:
  status: ('A' for Active; 'I' for Inactive)
    1  A    between atoms: C_3  and  N_23
    2  A    between atoms: C_3  and  N_27
    3  A    between atoms: N_9  and  N_27
    4  A    between atoms: N_9  and  C_32
    5  A    between atoms: N_22  and  N_25
    6  A    between atoms: N_25  and  C_39
    7  A    between atoms: C_32  and  C_39
                            x       y       z     vdW  Elec       q    Type
                         _______ _______ _______ _____ _____    ______ ____

>  <TORSDO>
F 7

$$$$
=
 OpenBabel10222419333D

 39 43  0  0  1  0  0  0  0  0999 V2000
  185.0190  178.4000  141.4140 C   0  0  2  0  0  3  0  0  0  0  0  0
  184.0230  177.1850  137.2150 C   0  0  1  0  0  3  0  0  0  0  0  0
  180.1970  178.5210  144.3450 C   0  0  0  0  0  1  0  0  0  0  0  0
  187.6480  177.3110  140.4530 C   0  0  0  0  0  2  0  0  0  0  0  0
  183.7800  180.0280  138.9590 C   0  0  0  0  0  1  0  0  0  0  0  0
  181.4730  178.7910  142.1920 C   0  0  0  0  0  0  0  0  0  0  0  0
  186.4710  177.6360  137.6170 C   0  0  1  0  0  3  0  0  0  0  0  0
  181.4620  178.7920  143.6010 C   0  0  0  0  0  0  0  0  0  0  0  0
  181.0500  177.8390  139.5700 C   0  0  0  0  0  0  0  0  0  0  0  0
  184.0360  176.9880  135.8310 O   0  0  0  0  0  1  0  0  0  0  0  0
  185.0690  178.2550  137.6090 C   0  0  2  0  0  3  0  0  0  0  0  0
  183.4580  176.9560  140.0250 C   0  0  0  0  0  2  0  0  0  0  0  0
  186.9050  177.3700  136.3140 O   0  0  0  0  0  1  0  0  0  0  0  0
  187.5730  178.4910  141.4400 C   0  0  0  0  0  2  0  0  0  0  0  0
  184.6330  177.8870  140.0630 N   0  0  1  0  0  0  0  0  0  0  0  0
  187.5130  178.4790  138.3550 C   0  0  0  0  0  2  0  0  0  0  0  0
  182.3310  177.3980  139.0920 C   0  0  0  0  0  0  0  0  0  0  0  0
  183.8770  179.0070  142.2050 C   0  0  0  0  0  0  0  0  0  0  0  0
  188.3370  177.6080  139.1890 N   0  0  0  0  0  0  0  0  0  0  0  0
  183.8920  178.9880  143.6050 C   0  0  0  0  0  3  0  0  0  0  0  0
  184.7890  178.8860  138.9800 C   0  0  2  0  0  3  0  0  0  0  0  0
  182.6590  179.0630  141.5560 C   0  0  0  0  0  3  0  0  0  0  0  0
  180.4640  178.5160  137.3160 C   0  0  0  0  0  3  0  0  0  0  0  0
  181.6950  178.0700  136.8420 C   0  0  0  0  0  3  0  0  0  0  0  0
  182.6750  178.9650  144.3070 C   0  0  0  0  0  0  0  0  0  0  0  0
  180.1510  178.4020  138.6650 C   0  0  0  0  0  3  0  0  0  0  0  0
  182.6270  177.5030  137.7120 C   0  0  0  0  0  0  0  0  0  0  0  0
  180.4130  177.6390  141.2720 S   0  0  0  0  0  0  0  0  0  0  0  0
  186.2670  179.2930  141.3650 C   0  0  0  0  0  2  0  0  0  0  0  0
  182.6890  179.0230  145.6980 O   0  0  0  0  0  1  0  0  0  0  0  0
  189.5600  178.2500  139.4710 N   0  0  0  0  0  2  0  0  0  0  0  0
  190.2350  176.0220  139.0200 O   0  0  0  0  0  1  0  0  0  0  0  0
  190.6550  177.2720  139.4900 C   0  0  2  0  0  3  0  0  0  0  0  0
  191.1890  177.1380  140.9080 C   0  0  0  0  0  2  0  0  0  0  0  0
  190.5560  176.0120  141.5700 N   0  0  0  0  0  2  0  0  0  0  0  0
  190.3660  176.3830  142.9090 N   0  0  0  0  0  2  0  0  0  0  0  0
  191.1300  177.6020  143.1240 C   0  0  0  0  0  2  0  0  0  0  0  0
  190.9560  179.6990  143.9640 O   0  0  0  0  0  1  0  0  0  0  0  0
  190.4620  178.4440  144.1030 N   0  0  0  0  0  2  0  0  0  0  0  0
  1 29  1  6  0  0  0
  1 18  1  0  0  0  0
  2 10  1  6  0  0  0
  2 11  1  0  0  0  0
  2 27  1  0  0  0  0
  4 14  1  0  0  0  0
  5 21  1  0  0  0  0
  6  8  1  0  0  0  0
  7 13  1  6  0  0  0
  7 16  1  0  0  0  0
  8 25  2  0  0  0  0
  8  3  1  0  0  0  0
  9 28  1  0  0  0  0
 11  7  1  0  0  0  0
 11 21  1  0  0  0  0
 12 15  1  0  0  0  0
 15  1  1  0  0  0  0
 16 19  1  0  0  0  0
 17  9  1  0  0  0  0
 17 12  1  0  0  0  0
 18 20  2  0  0  0  0
 19 31  1  0  0  0  0
 19  4  1  0  0  0  0
 20 25  1  0  0  0  0
 21 15  1  0  0  0  0
 22  6  2  0  0  0  0
 22 18  1  0  0  0  0
 23 26  1  0  0  0  0
 24 23  2  0  0  0  0
 24 27  1  0  0  0  0
 25 30  1  0  0  0  0
 26  9  2  0  0  0  0
 27 17  2  0  0  0  0
 28  6  1  0  0  0  0
 29 14  1  0  0  0  0
 31 33  1  0  0  0  0
 32 33  1  0  0  0  0
 33 34  1  0  0  0  0
 34 35  1  0  0  0  0
 35 36  1  0  0  0  0
 36 37  1  0  0  0  0
 37 39  1  0  0  0  0
 38 39  1  0  0  0  0
M  END
>  <MODEL>
8

>  <REMARK>
 VINA RESULT:      -6.1      3.557      6.431
  Name = 
  7 active torsions:
  status: ('A' for Active; 'I' for Inactive)
    1  A    between atoms: C_3  and  N_23
    2  A    between atoms: C_3  and  N_27
    3  A    between atoms: N_9  and  N_27
    4  A    between atoms: N_9  and  C_32
    5  A    between atoms: N_22  and  N_25
    6  A    between atoms: N_25  and  C_39
    7  A    between atoms: C_32  and  C_39
                            x       y       z     vdW  Elec       q    Type
                         _______ _______ _______ _____ _____    ______ ____

>  <TORSDO>
F 7

$$$$
=
 OpenBabel10222419333D

 39 43  0  0  1  0  0  0  0  0999 V2000
  185.3490  178.3390  141.3780 C   0  0  2  0  0  3  0  0  0  0  0  0
  184.2700  177.2480  137.1650 C   0  0  1  0  0  3  0  0  0  0  0  0
  180.5570  178.6480  144.3430 C   0  0  0  0  0  1  0  0  0  0  0  0
  187.9150  177.1370  140.3810 C   0  0  0  0  0  2  0  0  0  0  0  0
  184.1790  180.0690  138.9590 C   0  0  0  0  0  1  0  0  0  0  0  0
  181.8320  178.8930  142.1860 C   0  0  0  0  0  0  0  0  0  0  0  0
  186.7390  177.5700  137.5580 C   0  0  1  0  0  3  0  0  0  0  0  0
  181.8300  178.8700  143.5950 C   0  0  0  0  0  0  0  0  0  0  0  0
  181.3470  178.0080  139.5510 C   0  0  0  0  0  0  0  0  0  0  0  0
  184.2650  177.0750  135.7780 O   0  0  0  0  0  1  0  0  0  0  0  0
  185.3700  178.2570  137.5710 C   0  0  2  0  0  3  0  0  0  0  0  0
  183.7110  176.9990  139.9750 C   0  0  0  0  0  2  0  0  0  0  0  0
  187.1520  177.3050  136.2480 O   0  0  0  0  0  1  0  0  0  0  0  0
  187.9060  178.3020  141.3880 C   0  0  0  0  0  2  0  0  0  0  0  0
  184.9310  177.8690  140.0210 N   0  0  1  0  0  0  0  0  0  0  0  0
  187.8270  178.3470  138.3040 C   0  0  0  0  0  2  0  0  0  0  0  0
  182.6010  177.5130  139.0570 C   0  0  0  0  0  0  0  0  0  0  0  0
  184.2440  178.9880  142.1860 C   0  0  0  0  0  0  0  0  0  0  0  0
  188.6110  177.4220  139.1180 N   0  0  0  0  0  0  0  0  0  0  0  0
  184.2660  178.9440  143.5860 C   0  0  0  0  0  3  0  0  0  0  0  0
  185.1300  178.8780  138.9540 C   0  0  2  0  0  3  0  0  0  0  0  0
  183.0270  179.1160  141.5470 C   0  0  0  0  0  3  0  0  0  0  0  0
  180.7830  178.7530  137.3130 C   0  0  0  0  0  3  0  0  0  0  0  0
  181.9860  178.2550  136.8230 C   0  0  0  0  0  3  0  0  0  0  0  0
  183.0540  178.9690  144.2950 C   0  0  0  0  0  0  0  0  0  0  0  0
  180.4710  178.6310  138.6620 C   0  0  0  0  0  3  0  0  0  0  0  0
  182.8940  177.6260  137.6770 C   0  0  0  0  0  0  0  0  0  0  0  0
  180.7110  177.8110  141.2540 S   0  0  0  0  0  0  0  0  0  0  0  0
  186.6400  179.1690  141.3360 C   0  0  0  0  0  2  0  0  0  0  0  0
  183.0790  179.0030  145.6870 O   0  0  0  0  0  1  0  0  0  0  0  0
  189.8660  177.9970  139.4020 N   0  0  0  0  0  2  0  0  0  0  0  0
  191.6920  177.4470  140.8130 O   0  0  0  0  0  1  0  0  0  0  0  0
  190.8140  176.9620  139.8360 C   0  0  2  0  0  3  0  0  0  0  0  0
  191.6020  176.4640  138.6350 C   0  0  0  0  0  2  0  0  0  0  0  0
  193.0090  176.7810  138.8010 N   0  0  0  0  0  2  0  0  0  0  0  0
  193.6680  176.3110  137.6560 N   0  0  0  0  0  2  0  0  0  0  0  0
  194.0830  174.9450  137.9350 C   0  0  0  0  0  2  0  0  0  0  0  0
  195.7360  174.8780  139.4830 O   0  0  0  0  0  1  0  0  0  0  0  0
  195.5200  174.8920  138.1440 N   0  0  0  0  0  2  0  0  0  0  0  0
  1 29  1  6  0  0  0
  1 18  1  0  0  0  0
  2 10  1  6  0  0  0
  2 11  1  0  0  0  0
  2 27  1  0  0  0  0
  4 14  1  0  0  0  0
  6  8  1  0  0  0  0
  7 13  1  6  0  0  0
  7 11  1  0  0  0  0
  7 16  1  0  0  0  0
  8 25  2  0  0  0  0
  8  3  1  0  0  0  0
  9 28  1  0  0  0  0
 11 21  1  0  0  0  0
 12 15  1  0  0  0  0
 15  1  1  0  0  0  0
 16 19  1  0  0  0  0
 17  9  1  0  0  0  0
 17 12  1  0  0  0  0
 18 20  2  0  0  0  0
 19 31  1  0  0  0  0
 19  4  1  0  0  0  0
 20 25  1  0  0  0  0
 21  5  1  0  0  0  0
 21 15  1  0  0  0  0
 22 18  1  0  0  0  0
 22  6  2  0  0  0  0
 23 26  1  0  0  0  0
 24 23  2  0  0  0  0
 24 27  1  0  0  0  0
 25 30  1  0  0  0  0
 26  9  2  0  0  0  0
 27 17  2  0  0  0  0
 28  6  1  0  0  0  0
 29 14  1  0  0  0  0
 31 33  1  0  0  0  0
 33 32  1  0  0  0  0
 34 35  1  0  0  0  0
 34 33  1  0  0  0  0
 36 37  1  0  0  0  0
 36 35  1  0  0  0  0
 37 39  1  0  0  0  0
 39 38  1  0  0  0  0
M  END
>  <MODEL>
9

>  <REMARK>
 VINA RESULT:      -6.0      3.497      5.604
  Name = 
  7 active torsions:
  status: ('A' for Active; 'I' for Inactive)
    1  A    between atoms: C_3  and  N_23
    2  A    between atoms: C_3  and  N_27
    3  A    between atoms: N_9  and  N_27
    4  A    between atoms: N_9  and  C_32
    5  A    between atoms: N_22  and  N_25
    6  A    between atoms: N_25  and  C_39
    7  A    between atoms: C_32  and  C_39
                            x       y       z     vdW  Elec       q    Type
                         _______ _______ _______ _____ _____    ______ ____

>  <TORSDO>
F 7

$$$$
