=
 OpenBabel10222417093D

 25 27  0  0  0  0  0  0  0  0999 V2000
  187.4930  177.9780  147.6090 C   0  0  0  0  0  3  0  0  0  0  0  0
  188.1350  177.6170  144.1230 C   0  0  0  0  0  0  0  0  0  0  0  0
  186.3140  178.1310  145.4740 C   0  0  0  0  0  0  0  0  0  0  0  0
  189.8580  177.3850  147.3850 C   0  0  0  0  0  0  0  0  0  0  0  0
  184.9180  178.4950  145.8780 C   0  0  0  0  0  3  0  0  0  0  0  0
  184.0190  178.6560  144.6630 C   0  0  0  0  0  0  0  0  0  0  0  0
  186.7090  177.9520  144.0970 C   0  0  0  0  0  0  0  0  0  0  0  0
  187.3880  177.9210  146.2210 C   0  0  0  0  0  0  0  0  0  0  0  0
  188.7420  177.7070  148.1890 C   0  0  0  0  0  3  0  0  0  0  0  0
  182.6890  178.9960  144.8650 O   0  0  0  0  0  1  0  0  0  0  0  0
  188.4830  177.6120  145.4170 C   0  0  0  0  0  0  0  0  0  0  0  0
  189.7280  177.3350  145.9880 C   0  0  0  0  0  3  0  0  0  0  0  0
  185.8600  178.1170  143.0880 C   0  0  0  0  0  2  0  0  0  0  0  0
  184.4590  178.4810  143.4000 C   0  0  0  0  0  3  0  0  0  0  0  0
  189.5680  176.0510  142.8310 C   0  0  0  0  0  3  0  0  0  0  0  0
  190.3070  175.7820  141.8460 O   0  0  0  0  0  0  0  0  0  0  0  0
  188.9840  177.3490  142.9870 N   0  0  0  0  0  0  0  0  0  0  0  0
  189.2150  178.3650  141.9600 C   0  0  0  0  0  2  0  0  0  0  0  0
  188.3100  178.1300  140.7600 C   0  0  0  0  0  2  0  0  0  0  0  0
  189.1310  177.9970  139.4910 C   0  0  0  0  0  2  0  0  0  0  0  0
  187.0850  178.4050  138.1310 O   0  0  0  0  0  1  0  0  0  0  0  0
  188.4290  178.6630  138.3630 C   0  0  0  0  0  0  0  0  0  0  0  0
  189.0440  179.4850  137.6360 O   0  0  0  0  0  0  0  0  0  0  0  0
  191.1670  177.0990  147.9830 C   0  0  0  0  0  3  0  0  0  0  0  0
  192.0590  176.4060  147.3560 N   0  0  0  0  0  2  0  0  0  0  0  0
  1  9  1  0  0  0  0
  2 11  1  0  0  0  0
  3  5  2  0  0  0  0
  3  8  1  0  0  0  0
  4 24  1  0  0  0  0
  4  9  2  0  0  0  0
  6 10  1  0  0  0  0
  6  5  1  0  0  0  0
  7  2  2  0  0  0  0
  7  3  1  0  0  0  0
  8  1  2  0  0  0  0
 11 12  2  0  0  0  0
 11  8  1  0  0  0  0
 12  4  1  0  0  0  0
 13 14  1  0  0  0  0
 13  7  1  0  0  0  0
 14  6  2  0  0  0  0
 15 17  1  0  0  0  0
 16 15  2  0  0  0  0
 17  2  1  0  0  0  0
 18 17  1  0  0  0  0
 19 18  1  0  0  0  0
 20 19  1  0  0  0  0
 21 22  1  0  0  0  0
 22 20  1  0  0  0  0
 23 22  2  0  0  0  0
 25 24  2  0  0  0  0
M  END
>  <MODEL>
1

>  <REMARK>
 VINA RESULT:      -9.3      0.000      0.000
  Name = 
  6 active torsions:
  status: ('A' for Active; 'I' for Inactive)
    1  A    between atoms: C_2  and  N_15
    2  A    between atoms: C_4  and  C_17
    3  A    between atoms: C_8  and  C_25
    4  A    between atoms: C_14  and  N_15
    5  A    between atoms: C_14  and  C_19
    6  A    between atoms: C_19  and  C_25
                            x       y       z     vdW  Elec       q    Type
                         _______ _______ _______ _____ _____    ______ ____

>  <TORSDO>
F 6

$$$$
=
 OpenBabel10222417093D

 25 27  0  0  0  0  0  0  0  0999 V2000
  185.6120  178.4470  146.7120 C   0  0  0  0  0  3  0  0  0  0  0  0
  186.7280  177.9200  143.3690 C   0  0  0  0  0  0  0  0  0  0  0  0
  184.7380  178.4820  144.4300 C   0  0  0  0  0  0  0  0  0  0  0  0
  187.9880  177.8690  146.8440 C   0  0  0  0  0  0  0  0  0  0  0  0
  183.2970  178.8510  144.6200 C   0  0  0  0  0  3  0  0  0  0  0  0
  182.5730  178.9410  143.2870 C   0  0  0  0  0  0  0  0  0  0  0  0
  185.3180  178.2390  143.1310 C   0  0  0  0  0  0  0  0  0  0  0  0
  185.6990  178.3200  145.3270 C   0  0  0  0  0  0  0  0  0  0  0  0
  186.7710  178.2190  147.4700 C   0  0  0  0  0  3  0  0  0  0  0  0
  181.2270  179.2770  143.2870 O   0  0  0  0  0  1  0  0  0  0  0  0
  186.8950  177.9830  144.6970 C   0  0  0  0  0  0  0  0  0  0  0  0
  188.0510  177.7480  145.4470 C   0  0  0  0  0  3  0  0  0  0  0  0
  184.6160  178.3440  142.0080 C   0  0  0  0  0  2  0  0  0  0  0  0
  183.1830  178.7090  142.1060 C   0  0  0  0  0  3  0  0  0  0  0  0
  187.8410  178.4220  141.2040 C   0  0  0  0  0  3  0  0  0  0  0  0
  188.7080  178.1800  140.3220 O   0  0  0  0  0  0  0  0  0  0  0  0
  187.7270  177.6050  142.3750 N   0  0  0  0  0  0  0  0  0  0  0  0
  188.6630  176.4990  142.5690 C   0  0  0  0  0  2  0  0  0  0  0  0
  190.0860  177.0180  142.7110 C   0  0  0  0  0  2  0  0  0  0  0  0
  190.9270  176.0520  143.5240 C   0  0  0  0  0  2  0  0  0  0  0  0
  191.9120  176.0150  145.8120 O   0  0  0  0  0  1  0  0  0  0  0  0
  191.4890  176.7480  144.7120 C   0  0  0  0  0  0  0  0  0  0  0  0
  191.6110  178.0000  144.7080 O   0  0  0  0  0  0  0  0  0  0  0  0
  189.2030  177.6270  147.6300 C   0  0  0  0  0  3  0  0  0  0  0  0
  189.4290  178.2580  148.7350 N   0  0  0  0  0  2  0  0  0  0  0  0
  1  9  1  0  0  0  0
  2 11  1  0  0  0  0
  3  5  2  0  0  0  0
  3  8  1  0  0  0  0
  4  9  2  0  0  0  0
  4 24  1  0  0  0  0
  6 10  1  0  0  0  0
  6  5  1  0  0  0  0
  7  2  2  0  0  0  0
  7  3  1  0  0  0  0
  8  1  2  0  0  0  0
 11  8  1  0  0  0  0
 11 12  2  0  0  0  0
 12  4  1  0  0  0  0
 13 14  1  0  0  0  0
 13  7  1  0  0  0  0
 14  6  2  0  0  0  0
 15 17  1  0  0  0  0
 16 15  2  0  0  0  0
 17 18  1  0  0  0  0
 17  2  1  0  0  0  0
 18 19  1  0  0  0  0
 19 20  1  0  0  0  0
 20 22  1  0  0  0  0
 22 21  1  0  0  0  0
 23 22  2  0  0  0  0
 24 25  2  0  0  0  0
M  END
>  <MODEL>
2

>  <REMARK>
 VINA RESULT:      -9.0      1.845      3.623
  Name = 
  6 active torsions:
  status: ('A' for Active; 'I' for Inactive)
    1  A    between atoms: C_2  and  N_15
    2  A    between atoms: C_4  and  C_17
    3  A    between atoms: C_8  and  C_25
    4  A    between atoms: C_14  and  N_15
    5  A    between atoms: C_14  and  C_19
    6  A    between atoms: C_19  and  C_25
                            x       y       z     vdW  Elec       q    Type
                         _______ _______ _______ _____ _____    ______ ____

>  <TORSDO>
F 6

$$$$
=
 OpenBabel10222417093D

 25 27  0  0  0  0  0  0  0  0999 V2000
  186.7420  178.0550  146.9940 C   0  0  0  0  0  3  0  0  0  0  0  0
  188.2140  177.6220  143.7770 C   0  0  0  0  0  0  0  0  0  0  0  0
  188.8870  177.4440  145.9950 C   0  0  0  0  0  0  0  0  0  0  0  0
  185.0000  178.5540  145.3470 C   0  0  0  0  0  0  0  0  0  0  0  0
  189.7630  177.1950  147.1870 C   0  0  0  0  0  3  0  0  0  0  0  0
  191.1620  176.7790  146.7630 C   0  0  0  0  0  0  0  0  0  0  0  0
  189.3580  177.3060  144.6370 C   0  0  0  0  0  0  0  0  0  0  0  0
  187.6130  177.8020  145.9360 C   0  0  0  0  0  0  0  0  0  0  0  0
  185.4260  178.4330  146.6890 C   0  0  0  0  0  3  0  0  0  0  0  0
  192.0980  176.5080  147.7510 O   0  0  0  0  0  1  0  0  0  0  0  0
  187.2040  177.9110  144.6090 C   0  0  0  0  0  0  0  0  0  0  0  0
  185.8960  178.2940  144.2990 C   0  0  0  0  0  3  0  0  0  0  0  0
  190.6000  176.9310  144.3500 C   0  0  0  0  0  2  0  0  0  0  0  0
  191.5300  176.6620  145.4710 C   0  0  0  0  0  3  0  0  0  0  0  0
  187.3700  178.5710  141.6410 C   0  0  0  0  0  3  0  0  0  0  0  0
  187.3310  178.6010  140.3820 O   0  0  0  0  0  0  0  0  0  0  0  0
  188.1870  177.6190  142.3340 N   0  0  0  0  0  0  0  0  0  0  0  0
  189.0220  176.6990  141.5640 C   0  0  0  0  0  2  0  0  0  0  0  0
  190.2820  177.3980  141.0750 C   0  0  0  0  0  2  0  0  0  0  0  0
  190.2900  177.4840  139.5600 C   0  0  0  0  0  2  0  0  0  0  0  0
  192.5880  176.7820  138.9030 O   0  0  0  0  0  1  0  0  0  0  0  0
  191.2360  176.4820  139.0020 C   0  0  0  0  0  0  0  0  0  0  0  0
  190.8170  175.3500  138.6480 O   0  0  0  0  0  0  0  0  0  0  0  0
  183.6260  178.9500  145.0210 C   0  0  0  0  0  3  0  0  0  0  0  0
  183.1210  178.7340  143.8500 N   0  0  0  0  0  2  0  0  0  0  0  0
  2 11  1  0  0  0  0
  2  7  2  0  0  0  0
  3  5  2  0  0  0  0
  4  9  2  0  0  0  0
  6  5  1  0  0  0  0
  6 10  1  0  0  0  0
  7  3  1  0  0  0  0
  8  3  1  0  0  0  0
  8  1  2  0  0  0  0
  9  1  1  0  0  0  0
 11  8  1  0  0  0  0
 12 11  2  0  0  0  0
 12  4  1  0  0  0  0
 13  7  1  0  0  0  0
 13 14  1  0  0  0  0
 14  6  2  0  0  0  0
 15 17  1  0  0  0  0
 16 15  2  0  0  0  0
 17  2  1  0  0  0  0
 18 17  1  0  0  0  0
 19 18  1  0  0  0  0
 20 19  1  0  0  0  0
 21 22  1  0  0  0  0
 22 20  1  0  0  0  0
 23 22  2  0  0  0  0
 24  4  1  0  0  0  0
 25 24  2  0  0  0  0
M  END
>  <MODEL>
3

>  <REMARK>
 VINA RESULT:      -9.0      2.369      5.013
  Name = 
  6 active torsions:
  status: ('A' for Active; 'I' for Inactive)
    1  A    between atoms: C_2  and  N_15
    2  A    between atoms: C_4  and  C_17
    3  A    between atoms: C_8  and  C_25
    4  A    between atoms: C_14  and  N_15
    5  A    between atoms: C_14  and  C_19
    6  A    between atoms: C_19  and  C_25
                            x       y       z     vdW  Elec       q    Type
                         _______ _______ _______ _____ _____    ______ ____

>  <TORSDO>
F 6

$$$$
=
 OpenBabel10222417093D

 25 27  0  0  1  0  0  0  0  0999 V2000
  184.7840  178.6420  144.9910 C   0  0  0  0  0  3  0  0  0  0  0  0
  188.0350  177.5640  144.0050 C   0  0  0  0  0  0  0  0  0  0  0  0
  186.9400  178.0740  145.9920 C   0  0  0  0  0  0  0  0  0  0  0  0
  184.7540  178.4500  142.5500 C   0  0  0  0  0  0  0  0  0  0  0  0
  186.7010  178.2700  147.4590 C   0  0  0  0  0  3  0  0  0  0  0  0
  187.9460  177.9440  148.2670 C   0  0  0  0  0  0  0  0  0  0  0  0
  188.2110  177.6430  145.4580 C   0  0  1  0  0  3  0  0  0  0  0  0
  186.1160  178.2330  144.9670 C   0  0  0  0  0  0  0  0  0  0  0  0
  184.1040  178.7480  143.7690 C   0  0  0  0  0  3  0  0  0  0  0  0
  187.8900  178.0720  149.6480 O   0  0  0  0  0  1  0  0  0  0  0  0
  186.7670  177.9290  143.7730 C   0  0  0  0  0  0  0  0  0  0  0  0
  186.0970  178.0400  142.5520 C   0  0  0  0  0  3  0  0  0  0  0  0
  189.2530  177.3720  146.2360 C   0  0  0  0  0  3  0  0  0  0  0  0
  189.1000  177.5360  147.7000 C   0  0  0  0  0  3  0  0  0  0  0  0
  189.6150  175.8700  143.1060 C   0  0  0  0  0  3  0  0  0  0  0  0
  190.4760  175.4950  142.2660 O   0  0  0  0  0  0  0  0  0  0  0  0
  189.0260  177.1730  143.0310 N   0  0  0  0  0  0  0  0  0  0  0  0
  189.3990  178.0650  141.9340 C   0  0  0  0  0  2  0  0  0  0  0  0
  189.0210  177.4530  140.5930 C   0  0  0  0  0  2  0  0  0  0  0  0
  188.3730  178.4920  139.6970 C   0  0  0  0  0  2  0  0  0  0  0  0
  190.0110  177.5880  138.0520 O   0  0  0  0  0  1  0  0  0  0  0  0
  189.1180  178.5870  138.4130 C   0  0  0  0  0  0  0  0  0  0  0  0
  188.9160  179.5580  137.6390 O   0  0  0  0  0  0  0  0  0  0  0  0
  184.0500  178.5600  141.2680 C   0  0  0  0  0  3  0  0  0  0  0  0
  184.5010  179.3040  140.3120 N   0  0  0  0  0  2  0  0  0  0  0  0
  2  7  1  0  0  0  0
  3  5  1  0  0  0  0
  4 12  2  0  0  0  0
  4  9  1  0  0  0  0
  5  6  2  0  0  0  0
  6 10  1  0  0  0  0
  7  3  1  0  0  0  0
  7 13  1  1  0  0  0
  8  1  1  0  0  0  0
  8  3  2  0  0  0  0
  9  1  2  0  0  0  0
 11  2  2  0  0  0  0
 11  8  1  0  0  0  0
 12 11  1  0  0  0  0
 13 14  2  0  0  0  0
 14  6  1  0  0  0  0
 16 15  2  0  0  0  0
 17 15  1  0  0  0  0
 17  2  1  0  0  0  0
 18 17  1  0  0  0  0
 19 18  1  0  0  0  0
 20 19  1  0  0  0  0
 21 22  1  0  0  0  0
 22 20  1  0  0  0  0
 23 22  2  0  0  0  0
 24  4  1  0  0  0  0
 25 24  2  0  0  0  0
M  END
>  <MODEL>
4

>  <REMARK>
 VINA RESULT:      -8.9      1.992      4.562
  Name = 
  6 active torsions:
  status: ('A' for Active; 'I' for Inactive)
    1  A    between atoms: C_2  and  N_15
    2  A    between atoms: C_4  and  C_17
    3  A    between atoms: C_8  and  C_25
    4  A    between atoms: C_14  and  N_15
    5  A    between atoms: C_14  and  C_19
    6  A    between atoms: C_19  and  C_25
                            x       y       z     vdW  Elec       q    Type
                         _______ _______ _______ _____ _____    ______ ____

>  <TORSDO>
F 6

$$$$
=
 OpenBabel10222417093D

 25 27  0  0  1  0  0  0  0  0999 V2000
  184.0210  178.7480  145.2480 C   0  0  0  0  0  3  0  0  0  0  0  0
  187.0730  177.8940  143.6190 C   0  0  0  0  0  0  0  0  0  0  0  0
  186.3510  178.2590  145.7990 C   0  0  0  0  0  0  0  0  0  0  0  0
  183.5390  178.6580  142.8490 C   0  0  0  0  0  0  0  0  0  0  0  0
  186.3840  178.3790  147.2920 C   0  0  0  0  0  3  0  0  0  0  0  0
  187.7730  178.0880  147.8360 C   0  0  0  0  0  0  0  0  0  0  0  0
  187.5160  177.9210  145.0150 C   0  0  1  0  0  3  0  0  0  0  0  0
  185.3410  178.4150  144.9550 C   0  0  0  0  0  0  0  0  0  0  0  0
  183.1170  178.8680  144.1810 C   0  0  0  0  0  3  0  0  0  0  0  0
  187.9730  178.1550  149.2080 O   0  0  0  0  0  1  0  0  0  0  0  0
  185.7680  178.1980  143.6470 C   0  0  0  0  0  0  0  0  0  0  0  0
  184.8750  178.3230  142.5790 C   0  0  0  0  0  3  0  0  0  0  0  0
  188.6980  177.6750  145.5700 C   0  0  0  0  0  3  0  0  0  0  0  0
  188.8170  177.7700  147.0430 C   0  0  0  0  0  3  0  0  0  0  0  0
  187.9310  178.5390  141.3770 C   0  0  0  0  0  3  0  0  0  0  0  0
  188.6320  178.3170  140.3540 O   0  0  0  0  0  0  0  0  0  0  0  0
  187.8790  177.6010  142.4580 N   0  0  0  0  0  0  0  0  0  0  0  0
  188.6900  176.3860  142.3900 C   0  0  0  0  0  2  0  0  0  0  0  0
  190.1720  176.7290  142.3970 C   0  0  0  0  0  2  0  0  0  0  0  0
  190.9250  175.8230  143.3540 C   0  0  0  0  0  2  0  0  0  0  0  0
  191.9420  176.0710  145.6140 O   0  0  0  0  0  1  0  0  0  0  0  0
  191.6040  176.6400  144.3940 C   0  0  0  0  0  0  0  0  0  0  0  0
  191.9000  177.8400  144.1580 O   0  0  0  0  0  0  0  0  0  0  0  0
  182.6010  178.7830  141.7280 C   0  0  0  0  0  3  0  0  0  0  0  0
  181.3450  179.0200  141.9220 N   0  0  0  0  0  2  0  0  0  0  0  0
  2 11  2  0  0  0  0
  2  7  1  0  0  0  0
  3  5  1  0  0  0  0
  4  9  1  0  0  0  0
  5  6  2  0  0  0  0
  6 10  1  0  0  0  0
  7 13  1  1  0  0  0
  7  3  1  0  0  0  0
  8  1  1  0  0  0  0
  8  3  2  0  0  0  0
  9  1  2  0  0  0  0
 11  8  1  0  0  0  0
 12  4  2  0  0  0  0
 12 11  1  0  0  0  0
 13 14  2  0  0  0  0
 14  6  1  0  0  0  0
 15 17  1  0  0  0  0
 16 15  2  0  0  0  0
 17  2  1  0  0  0  0
 18 19  1  0  0  0  0
 18 17  1  0  0  0  0
 19 20  1  0  0  0  0
 20 22  1  0  0  0  0
 22 21  1  0  0  0  0
 23 22  2  0  0  0  0
 24 25  2  0  0  0  0
 24  4  1  0  0  0  0
M  END
>  <MODEL>
5

>  <REMARK>
 VINA RESULT:      -8.9      2.647      5.740
  Name = 
  6 active torsions:
  status: ('A' for Active; 'I' for Inactive)
    1  A    between atoms: C_2  and  N_15
    2  A    between atoms: C_4  and  C_17
    3  A    between atoms: C_8  and  C_25
    4  A    between atoms: C_14  and  N_15
    5  A    between atoms: C_14  and  C_19
    6  A    between atoms: C_19  and  C_25
                            x       y       z     vdW  Elec       q    Type
                         _______ _______ _______ _____ _____    ______ ____

>  <TORSDO>
F 6

$$$$
=
 OpenBabel10222417093D

 25 27  0  0  0  0  0  0  0  0999 V2000
  185.1600  178.6580  146.5950 C   0  0  0  0  0  3  0  0  0  0  0  0
  187.0380  177.7990  143.6910 C   0  0  0  0  0  0  0  0  0  0  0  0
  184.8600  178.4460  144.1790 C   0  0  0  0  0  0  0  0  0  0  0  0
  187.4260  178.1220  147.3530 C   0  0  0  0  0  0  0  0  0  0  0  0
  183.4210  178.8170  143.9780 C   0  0  0  0  0  3  0  0  0  0  0  0
  183.0400  178.7610  142.5070 C   0  0  0  0  0  0  0  0  0  0  0  0
  185.7320  178.0760  143.0890 C   0  0  0  0  0  0  0  0  0  0  0  0
  185.5750  178.3890  145.2920 C   0  0  0  0  0  0  0  0  0  0  0  0
  186.0990  178.5210  147.6290 C   0  0  0  0  0  3  0  0  0  0  0  0
  181.7380  179.0810  142.1490 O   0  0  0  0  0  1  0  0  0  0  0  0
  186.8820  178.0010  145.0060 C   0  0  0  0  0  0  0  0  0  0  0  0
  187.8200  177.8570  146.0320 C   0  0  0  0  0  3  0  0  0  0  0  0
  185.3210  178.0570  141.8260 C   0  0  0  0  0  2  0  0  0  0  0  0
  183.9120  178.4140  141.5390 C   0  0  0  0  0  3  0  0  0  0  0  0
  188.6570  176.0230  143.0550 C   0  0  0  0  0  3  0  0  0  0  0  0
  189.6970  175.6350  142.4590 O   0  0  0  0  0  0  0  0  0  0  0  0
  188.2410  177.3930  143.0040 N   0  0  0  0  0  0  0  0  0  0  0  0
  189.0150  178.3450  142.2090 C   0  0  0  0  0  2  0  0  0  0  0  0
  188.4380  178.4680  140.8070 C   0  0  0  0  0  2  0  0  0  0  0  0
  189.4350  177.9740  139.7750 C   0  0  0  0  0  2  0  0  0  0  0  0
  188.9570  179.3520  137.7550 O   0  0  0  0  0  0  0  0  0  0  0  0
  188.8680  178.1310  138.4090 C   0  0  0  0  0  0  0  0  0  0  0  0
  188.3350  177.1480  137.8330 O   0  0  0  0  0  1  0  0  0  0  0  0
  188.4130  177.9760  148.4280 C   0  0  0  0  0  3  0  0  0  0  0  0
  189.6670  177.7960  148.1730 N   0  0  0  0  0  2  0  0  0  0  0  0
  1  9  1  0  0  0  0
  2 11  1  0  0  0  0
  3  8  1  0  0  0  0
  4  9  2  0  0  0  0
  4 24  1  0  0  0  0
  5  3  2  0  0  0  0
  6  5  1  0  0  0  0
  7  2  2  0  0  0  0
  7  3  1  0  0  0  0
  8  1  2  0  0  0  0
 10  6  1  0  0  0  0
 11  8  1  0  0  0  0
 11 12  2  0  0  0  0
 12  4  1  0  0  0  0
 13  7  1  0  0  0  0
 14 13  1  0  0  0  0
 14  6  2  0  0  0  0
 16 15  2  0  0  0  0
 17 15  1  0  0  0  0
 17  2  1  0  0  0  0
 18 17  1  0  0  0  0
 19 18  1  0  0  0  0
 20 19  1  0  0  0  0
 21 22  2  0  0  0  0
 22 20  1  0  0  0  0
 23 22  1  0  0  0  0
 25 24  2  0  0  0  0
M  END
>  <MODEL>
6

>  <REMARK>
 VINA RESULT:      -8.7      1.340      1.958
  Name = 
  6 active torsions:
  status: ('A' for Active; 'I' for Inactive)
    1  A    between atoms: C_2  and  N_15
    2  A    between atoms: C_4  and  C_17
    3  A    between atoms: C_8  and  C_25
    4  A    between atoms: C_14  and  N_15
    5  A    between atoms: C_14  and  C_19
    6  A    between atoms: C_19  and  C_25
                            x       y       z     vdW  Elec       q    Type
                         _______ _______ _______ _____ _____    ______ ____

>  <TORSDO>
F 6

$$$$
=
 OpenBabel10222417093D

 25 27  0  0  0  0  0  0  0  0999 V2000
  190.6350  177.2720  142.4520 C   0  0  0  0  0  3  0  0  0  0  0  0
  187.8000  177.8230  144.5380 C   0  0  0  0  0  0  0  0  0  0  0  0
  190.0260  177.2150  144.8170 C   0  0  0  0  0  0  0  0  0  0  0  0
  188.7780  177.8770  140.9740 C   0  0  0  0  0  0  0  0  0  0  0  0
  191.3070  176.8260  145.4930 C   0  0  0  0  0  2  0  0  0  0  0  0
  191.1320  176.7520  147.0010 C   0  0  0  0  0  0  0  0  0  0  0  0
  188.8040  177.4660  145.5440 C   0  0  0  0  0  0  0  0  0  0  0  0
  189.7650  177.4020  143.5320 C   0  0  0  0  0  0  0  0  0  0  0  0
  190.1310  177.5140  141.1650 C   0  0  0  0  0  3  0  0  0  0  0  0
  192.2290  176.4060  147.7770 O   0  0  0  0  0  1  0  0  0  0  0  0
  188.4320  177.7660  143.3580 C   0  0  0  0  0  0  0  0  0  0  0  0
  187.9210  178.0020  142.0790 C   0  0  0  0  0  3  0  0  0  0  0  0
  188.7350  177.3850  146.8680 C   0  0  0  0  0  3  0  0  0  0  0  0
  189.9580  177.0090  147.6140 C   0  0  0  0  0  3  0  0  0  0  0  0
  186.0550  178.8490  145.9810 C   0  0  0  0  0  3  0  0  0  0  0  0
  184.8590  179.1710  146.2140 O   0  0  0  0  0  0  0  0  0  0  0  0
  186.4180  178.1660  144.7760 N   0  0  0  0  0  0  0  0  0  0  0  0
  185.3860  177.8780  143.7800 C   0  0  0  0  0  2  0  0  0  0  0  0
  184.8850  179.1630  143.1390 C   0  0  0  0  0  2  0  0  0  0  0  0
  183.7450  178.8720  142.1810 C   0  0  0  0  0  2  0  0  0  0  0  0
  183.8230  177.8720  139.9000 O   0  0  0  0  0  0  0  0  0  0  0  0
  184.2510  178.8550  140.7830 C   0  0  0  0  0  0  0  0  0  0  0  0
  185.0440  179.7490  140.3900 O   0  0  0  0  0  1  0  0  0  0  0  0
  188.2430  178.1310  139.6320 C   0  0  0  0  0  3  0  0  0  0  0  0
  188.8240  178.9490  138.8170 N   0  0  0  0  0  2  0  0  0  0  0  0
  1  8  1  0  0  0  0
  2 17  1  0  0  0  0
  2  7  1  0  0  0  0
  3  5  1  0  0  0  0
  3  7  1  0  0  0  0
  4  9  1  0  0  0  0
  4 12  2  0  0  0  0
  5  6  1  0  0  0  0
  6 14  2  0  0  0  0
  6 10  1  0  0  0  0
  7 13  2  0  0  0  0
  8  3  2  0  0  0  0
  9  1  2  0  0  0  0
 11  8  1  0  0  0  0
 11  2  2  0  0  0  0
 12 11  1  0  0  0  0
 13 14  1  0  0  0  0
 15 16  2  0  0  0  0
 17 15  1  0  0  0  0
 18 17  1  0  0  0  0
 19 18  1  0  0  0  0
 20 19  1  0  0  0  0
 21 22  2  0  0  0  0
 22 20  1  0  0  0  0
 23 22  1  0  0  0  0
 24  4  1  0  0  0  0
 25 24  2  0  0  0  0
M  END
>  <MODEL>
7

>  <REMARK>
 VINA RESULT:      -8.4      2.510      5.923
  Name = 
  6 active torsions:
  status: ('A' for Active; 'I' for Inactive)
    1  A    between atoms: C_2  and  N_15
    2  A    between atoms: C_4  and  C_17
    3  A    between atoms: C_8  and  C_25
    4  A    between atoms: C_14  and  N_15
    5  A    between atoms: C_14  and  C_19
    6  A    between atoms: C_19  and  C_25
                            x       y       z     vdW  Elec       q    Type
                         _______ _______ _______ _____ _____    ______ ____

>  <TORSDO>
F 6

$$$$
=
 OpenBabel10222417093D

 25 27  0  0  0  0  0  0  0  0999 V2000
  187.1150  177.6660  146.8840 C   0  0  0  0  0  3  0  0  0  0  0  0
  188.9410  177.4490  143.8310 C   0  0  0  0  0  0  0  0  0  0  0  0
  189.3650  177.1290  146.0950 C   0  0  0  0  0  0  0  0  0  0  0  0
  185.5620  178.2650  145.0880 C   0  0  0  0  0  0  0  0  0  0  0  0
  190.1050  176.8070  147.3580 C   0  0  0  0  0  3  0  0  0  0  0  0
  191.5470  176.4250  147.0680 C   0  0  0  0  0  0  0  0  0  0  0  0
  189.9850  177.0830  144.7920 C   0  0  0  0  0  0  0  0  0  0  0  0
  188.1010  177.4860  145.9170 C   0  0  0  0  0  0  0  0  0  0  0  0
  185.8370  178.0580  146.4590 C   0  0  0  0  0  3  0  0  0  0  0  0
  192.3700  176.0930  148.1350 O   0  0  0  0  0  1  0  0  0  0  0  0
  187.8420  177.6800  144.5620 C   0  0  0  0  0  0  0  0  0  0  0  0
  186.5730  178.0770  144.1320 C   0  0  0  0  0  3  0  0  0  0  0  0
  191.2560  176.7320  144.6220 C   0  0  0  0  0  2  0  0  0  0  0  0
  192.0580  176.3940  145.8210 C   0  0  0  0  0  3  0  0  0  0  0  0
  189.7230  176.4850  141.6780 C   0  0  0  0  0  3  0  0  0  0  0  0
  189.8480  176.5300  140.4250 O   0  0  0  0  0  0  0  0  0  0  0  0
  189.0750  177.5410  142.3970 N   0  0  0  0  0  0  0  0  0  0  0  0
  188.5100  178.6680  141.6560 C   0  0  0  0  0  2  0  0  0  0  0  0
  187.2270  178.2570  140.9500 C   0  0  0  0  0  2  0  0  0  0  0  0
  186.0700  179.1340  141.3910 C   0  0  0  0  0  2  0  0  0  0  0  0
  183.9720  177.9990  140.6750 O   0  0  0  0  0  1  0  0  0  0  0  0
  184.9300  178.9780  140.4500 C   0  0  0  0  0  0  0  0  0  0  0  0
  184.8150  179.7530  139.4660 O   0  0  0  0  0  0  0  0  0  0  0  0
  184.2280  178.6760  144.6360 C   0  0  0  0  0  3  0  0  0  0  0  0
  183.2930  178.9730  145.4760 N   0  0  0  0  0  2  0  0  0  0  0  0
  2 11  1  0  0  0  0
  2  7  2  0  0  0  0
  3  5  2  0  0  0  0
  4  9  2  0  0  0  0
  6  5  1  0  0  0  0
  6 10  1  0  0  0  0
  7  3  1  0  0  0  0
  8  3  1  0  0  0  0
  8  1  2  0  0  0  0
  9  1  1  0  0  0  0
 11  8  1  0  0  0  0
 12 11  2  0  0  0  0
 12  4  1  0  0  0  0
 13  7  1  0  0  0  0
 13 14  1  0  0  0  0
 14  6  2  0  0  0  0
 15 17  1  0  0  0  0
 16 15  2  0  0  0  0
 17  2  1  0  0  0  0
 18 17  1  0  0  0  0
 19 20  1  0  0  0  0
 19 18  1  0  0  0  0
 22 21  1  0  0  0  0
 22 20  1  0  0  0  0
 23 22  2  0  0  0  0
 24  4  1  0  0  0  0
 24 25  2  0  0  0  0
M  END
>  <MODEL>
8

>  <REMARK>
 VINA RESULT:      -8.4      2.429      4.955
  Name = 
  6 active torsions:
  status: ('A' for Active; 'I' for Inactive)
    1  A    between atoms: C_2  and  N_15
    2  A    between atoms: C_4  and  C_17
    3  A    between atoms: C_8  and  C_25
    4  A    between atoms: C_14  and  N_15
    5  A    between atoms: C_14  and  C_19
    6  A    between atoms: C_19  and  C_25
                            x       y       z     vdW  Elec       q    Type
                         _______ _______ _______ _____ _____    ______ ____

>  <TORSDO>
F 6

$$$$
=
 OpenBabel10222417093D

 25 27  0  0  0  0  0  0  0  0999 V2000
  187.3610  177.8770  141.9620 C   0  0  0  0  0  3  0  0  0  0  0  0
  187.3300  177.8130  145.5250 C   0  0  0  0  0  0  0  0  0  0  0  0
  185.8250  178.2880  143.8170 C   0  0  0  0  0  0  0  0  0  0  0  0
  189.6100  177.2190  142.6760 C   0  0  0  0  0  0  0  0  0  0  0  0
  184.5490  178.6690  143.1290 C   0  0  0  0  0  2  0  0  0  0  0  0
  183.4460  178.9520  144.1350 C   0  0  0  0  0  0  0  0  0  0  0  0
  185.9500  178.2250  145.2550 C   0  0  0  0  0  0  0  0  0  0  0  0
  187.0010  177.9540  143.3050 C   0  0  0  0  0  0  0  0  0  0  0  0
  188.6790  177.5050  141.6520 C   0  0  0  0  0  3  0  0  0  0  0  0
  182.1940  179.3170  143.6590 O   0  0  0  0  0  1  0  0  0  0  0  0
  187.9070  177.6680  144.3240 C   0  0  0  0  0  0  0  0  0  0  0  0
  189.2220  177.3040  144.0230 C   0  0  0  0  0  3  0  0  0  0  0  0
  184.9320  178.4830  146.0680 C   0  0  0  0  0  3  0  0  0  0  0  0
  183.6320  178.8640  145.4680 C   0  0  0  0  0  3  0  0  0  0  0  0
  187.5290  178.4150  147.9280 C   0  0  0  0  0  3  0  0  0  0  0  0
  188.0320  178.2540  149.0720 O   0  0  0  0  0  0  0  0  0  0  0  0
  187.9360  177.6060  146.8180 N   0  0  0  0  0  0  0  0  0  0  0  0
  188.9210  176.5460  147.0300 C   0  0  0  0  0  2  0  0  0  0  0  0
  190.2410  177.1270  147.5110 C   0  0  0  0  0  2  0  0  0  0  0  0
  191.3400  176.8660  146.4970 C   0  0  0  0  0  2  0  0  0  0  0  0
  192.4310  174.6700  146.0610 O   0  0  0  0  0  0  0  0  0  0  0  0
  192.1710  175.7150  146.9380 C   0  0  0  0  0  0  0  0  0  0  0  0
  192.6650  175.7020  148.0940 O   0  0  0  0  0  1  0  0  0  0  0  0
  190.9890  176.8320  142.3600 C   0  0  0  0  0  3  0  0  0  0  0  0
  191.9970  177.3840  142.9520 N   0  0  0  0  0  2  0  0  0  0  0  0
  1  8  1  0  0  0  0
  2 17  1  0  0  0  0
  3  7  1  0  0  0  0
  4 12  2  0  0  0  0
  5  3  1  0  0  0  0
  5  6  1  0  0  0  0
  6 14  2  0  0  0  0
  7  2  1  0  0  0  0
  7 13  2  0  0  0  0
  8  3  2  0  0  0  0
  8 11  1  0  0  0  0
  9  1  2  0  0  0  0
  9  4  1  0  0  0  0
 10  6  1  0  0  0  0
 11  2  2  0  0  0  0
 12 11  1  0  0  0  0
 14 13  1  0  0  0  0
 15 16  2  0  0  0  0
 17 18  1  0  0  0  0
 17 15  1  0  0  0  0
 18 19  1  0  0  0  0
 20 22  1  0  0  0  0
 20 19  1  0  0  0  0
 21 22  2  0  0  0  0
 22 23  1  0  0  0  0
 24  4  1  0  0  0  0
 24 25  2  0  0  0  0
M  END
>  <MODEL>
9

>  <REMARK>
 VINA RESULT:      -8.2      2.987      5.601
  Name = 
  6 active torsions:
  status: ('A' for Active; 'I' for Inactive)
    1  A    between atoms: C_2  and  N_15
    2  A    between atoms: C_4  and  C_17
    3  A    between atoms: C_8  and  C_25
    4  A    between atoms: C_14  and  N_15
    5  A    between atoms: C_14  and  C_19
    6  A    between atoms: C_19  and  C_25
                            x       y       z     vdW  Elec       q    Type
                         _______ _______ _______ _____ _____    ______ ____

>  <TORSDO>
F 6

$$$$
