=
 OpenBabel10222420333D

 61 65  0  0  1  0  0  0  0  0999 V2000
  189.3770  178.0440  146.7040 C   0  0  0  0  0  2  0  0  0  0  0  0
  188.0950  176.7240  143.2580 C   0  0  1  0  0  3  0  0  0  0  0  0
  188.5040  177.5910  145.5540 C   0  0  0  0  0  0  0  0  0  0  0  0
  186.5790  178.7250  140.7130 O   0  0  0  0  0  0  0  0  0  0  0  0
  187.3240  177.5810  141.0230 C   0  0  2  0  0  3  0  0  0  0  0  0
  183.2590  178.6490  142.7080 N   0  0  0  0  0  2  0  0  0  0  0  0
  184.8600  177.9980  144.4290 C   0  0  0  0  0  0  0  0  0  0  0  0
  188.2080  177.8550  142.2360 C   0  0  0  0  0  2  0  0  0  0  0  0
  186.5700  178.9390  146.6430 C   0  0  0  0  0  1  0  0  0  0  0  0
  190.4530  177.0460  147.0970 C   0  0  0  0  0  2  0  0  0  0  0  0
  188.9980  176.9740  144.4380 C   0  0  0  0  0  0  0  0  0  0  0  0
  186.2340  177.5170  144.6420 C   0  0  0  0  0  0  0  0  0  0  0  0
  183.9850  178.2790  145.4780 O   0  0  0  0  0  1  0  0  0  0  0  0
  183.0960  178.9870  141.3250 C   0  0  0  0  0  0  0  0  0  0  0  0
  191.7170  177.2610  146.2770 C   0  0  0  0  0  2  0  0  0  0  0  0
  186.7480  176.6270  143.6930 O   0  0  0  0  0  0  0  0  0  0  0  0
  185.3040  178.2640  140.3520 C   0  0  0  0  0  2  0  0  0  0  0  0
  187.0580  177.9780  145.5980 C   0  0  0  0  0  0  0  0  0  0  0  0
  184.5230  178.1870  143.1610 C   0  0  0  0  0  3  0  0  0  0  0  0
  181.9350  178.9750  140.8360 O   0  0  0  0  0  0  0  0  0  0  0  0
  190.4000  176.4420  144.3100 C   0  0  0  0  0  2  0  0  0  0  0  0
  184.2900  179.4020  140.4720 C   0  0  1  0  0  3  0  0  0  0  0  0
  191.4510  177.4300  144.7800 C   0  0  0  0  0  2  0  0  0  0  0  0
  188.1320  177.2350  139.9340 O   0  0  0  0  0  0  0  0  0  0  0  0
  189.1510  178.1960  139.9150 C   0  0  2  0  0  3  0  0  0  0  0  0
  188.9580  179.0580  138.8300 O   0  0  0  0  0  1  0  0  0  0  0  0
  190.3830  177.5570  139.7880 O   0  0  0  0  0  0  0  0  0  0  0  0
  190.4400  177.1520  138.4520 C   0  0  0  0  0  2  0  0  0  0  0  0
  192.7600  176.9580  139.0610 O   0  0  0  0  0  1  0  0  0  0  0  0
  191.8050  176.5650  138.1180 C   0  0  1  0  0  3  0  0  0  0  0  0
  190.4320  174.6210  137.8960 O   0  0  0  0  0  1  0  0  0  0  0  0
  191.7600  175.0460  137.9600 C   0  0  1  0  0  3  0  0  0  0  0  0
  192.5050  174.5710  136.7230 C   0  0  0  0  0  2  0  0  0  0  0  0
  193.8880  174.7060  136.9200 O   0  0  0  0  0  0  0  0  0  0  0  0
  194.4740  173.4500  136.6760 C   0  0  1  0  0  0  0  0  0  0  0  0
  195.5130  172.9510  137.6460 C   0  0  2  0  0  0  0  0  0  0  0  0
  195.2990  171.4540  137.7840 C   0  0  2  0  0  3  0  0  0  0  0  0
  196.5110  170.7810  137.6270 O   0  0  0  0  0  1  0  0  0  0  0  0
  195.7610  173.8120  138.8740 C   0  0  0  0  0  1  0  0  0  0  0  0
  193.6630  172.2810  136.1370 C   0  0  0  0  0  2  0  0  0  0  0  0
  195.9430  173.5120  136.2940 C   0  0  0  0  0  2  0  0  0  0  0  0
  194.3160  171.0210  136.6960 C   0  0  0  0  0  2  0  0  0  0  0  0
  183.8940  179.9160  139.0710 C   0  0  2  0  0  3  0  0  0  0  0  0
  182.6650  181.7830  138.5560 C   0  0  0  0  0  1  0  0  0  0  0  0
  182.5880  180.4550  139.0070 O   0  0  0  0  0  0  0  0  0  0  0  0
  184.2010  178.9240  137.9350 C   0  0  0  0  0  2  0  0  0  0  0  0
  182.9940  178.0370  137.6880 C   0  0  0  0  0  2  0  0  0  0  0  0
  183.4540  175.6160  137.5710 C   0  0  0  0  0  0  0  0  0  0  0  0
  183.1250  175.4960  138.9200 O   0  0  0  0  0  1  0  0  0  0  0  0
  183.4170  176.8030  136.9660 C   0  0  0  0  0  3  0  0  0  0  0  0
  183.8470  174.4080  136.7810 C   0  0  2  0  0  3  0  0  0  0  0  0
  182.7660  173.3650  136.7660 C   0  0  0  0  0  0  0  0  0  0  0  0
  183.0190  172.1960  137.0210 O   0  0  0  0  0  0  0  0  0  0  0  0
  181.3670  173.7670  136.4500 C   0  0  0  0  0  1  0  0  0  0  0  0
  185.2270  173.1080  138.1940 O   0  0  0  0  0  0  0  0  0  0  0  0
  185.1780  173.8510  137.2190 C   0  0  0  0  0  0  0  0  0  0  0  0
  186.2110  175.2060  135.5840 F   0  0  0  0  0  0  0  0  0  0  0  0
  187.4080  174.5940  137.3990 F   0  0  0  0  0  0  0  0  0  0  0  0
  186.4580  174.1780  136.4810 C   0  0  0  0  0  0  0  0  0  0  0  0
  187.0080  172.9760  135.7130 C   0  0  0  0  0  2  0  0  0  0  0  0
  185.9720  172.2920  135.0670 O   0  0  0  0  0  1  0  0  0  0  0  0
  1 10  1  0  0  0  0
  2  8  1  6  0  0  0
  2 16  1  0  0  0  0
  2 11  1  0  0  0  0
  3 18  1  0  0  0  0
  3  1  1  0  0  0  0
  4  5  1  0  0  0  0
  5 24  1  6  0  0  0
  5  8  1  0  0  0  0
  6 19  1  0  0  0  0
  7 12  1  0  0  0  0
  7 13  1  0  0  0  0
 11  3  2  0  0  0  0
 12 18  2  0  0  0  0
 14  6  1  0  0  0  0
 15 10  1  0  0  0  0
 16 12  1  0  0  0  0
 17 22  1  0  0  0  0
 17  4  1  0  0  0  0
 18  9  1  0  0  0  0
 19  7  2  0  0  0  0
 20 14  2  0  0  0  0
 21 11  1  0  0  0  0
 21 23  1  0  0  0  0
 22 43  1  6  0  0  0
 22 14  1  0  0  0  0
 23 15  1  0  0  0  0
 25 26  1  6  0  0  0
 25 24  1  0  0  0  0
 27 25  1  0  0  0  0
 28 27  1  0  0  0  0
 30 28  1  0  0  0  0
 30 29  1  1  0  0  0
 32 31  1  6  0  0  0
 32 30  1  0  0  0  0
 33 34  1  0  0  0  0
 33 32  1  0  0  0  0
 35 34  1  1  0  0  0
 35 36  1  0  0  0  0
 36 37  1  0  0  0  0
 36 39  1  1  0  0  0
 37 38  1  6  0  0  0
 40 35  1  0  0  0  0
 40 42  1  0  0  0  0
 41 35  1  0  0  0  0
 41 36  1  0  0  0  0
 42 37  1  0  0  0  0
 43 46  1  6  0  0  0
 44 45  1  0  0  0  0
 45 43  1  0  0  0  0
 47 46  1  0  0  0  0
 48 49  1  0  0  0  0
 50 48  2  0  0  0  0
 50 47  1  0  0  0  0
 51 52  1  1  0  0  0
 51 56  1  0  0  0  0
 51 48  1  0  0  0  0
 52 53  2  0  0  0  0
 54 52  1  0  0  0  0
 56 55  2  0  0  0  0
 57 59  1  0  0  0  0
 59 56  1  0  0  0  0
 59 58  1  0  0  0  0
 60 59  1  0  0  0  0
 61 60  1  0  0  0  0
M  END
>  <MODEL>
1

>  <REMARK>
 VINA RESULT:      -6.9      0.000      0.000
  Name = 
  19 active torsions:
  status: ('A' for Active; 'I' for Inactive)
    1  A    between atoms: C_1  and  C_59
    2  A    between atoms: C_5  and  O_6
    3  A    between atoms: O_6  and  C_53
    4  A    between atoms: C_13  and  O_43
    5  A    between atoms: C_22  and  C_27
    6  A    between atoms: C_22  and  C_61
    7  A    between atoms: C_28  and  O_52
    8  A    between atoms: C_28  and  C_54
    9  A    between atoms: C_30  and  C_59
   10  A    between atoms: O_31  and  C_57
   11  A    between atoms: C_40  and  C_41
   12  A    between atoms: C_40  and  C_57
   13  A    between atoms: C_41  and  C_56
   14  A    between atoms: O_43  and  C_48
   15  A    between atoms: C_44  and  C_53
   16  A    between atoms: C_44  and  C_54
   17  A    between atoms: C_48  and  O_52
   18  A    between atoms: C_51  and  C_57
   19  A    between atoms: C_59  and  C_61
                            x       y       z     vdW  Elec       q    Type
                         _______ _______ _______ _____ _____    ______ ____

>  <TORSDO>
F 19

$$$$
=
 OpenBabel10222420333D

 61 65  0  0  1  0  0  0  0  0999 V2000
  188.7820  178.4590  145.7770 C   0  0  0  0  0  2  0  0  0  0  0  0
  187.3590  177.3270  142.3190 C   0  0  1  0  0  3  0  0  0  0  0  0
  187.8650  178.0340  144.6500 C   0  0  0  0  0  0  0  0  0  0  0  0
  185.5270  179.4030  140.0580 O   0  0  0  0  0  0  0  0  0  0  0  0
  186.3720  178.3000  140.2200 C   0  0  2  0  0  3  0  0  0  0  0  0
  182.3700  178.9080  142.2480 N   0  0  0  0  0  2  0  0  0  0  0  0
  184.1310  178.2460  143.8000 C   0  0  0  0  0  0  0  0  0  0  0  0
  187.3170  178.5420  141.3930 C   0  0  0  0  0  2  0  0  0  0  0  0
  185.9210  179.1350  145.9730 C   0  0  0  0  0  1  0  0  0  0  0  0
  189.9520  177.5180  146.0120 C   0  0  0  0  0  2  0  0  0  0  0  0
  188.3230  177.5500  143.4560 C   0  0  0  0  0  0  0  0  0  0  0  0
  185.5470  177.8570  143.8820 C   0  0  0  0  0  0  0  0  0  0  0  0
  183.3140  178.3720  144.9240 O   0  0  0  0  0  1  0  0  0  0  0  0
  182.0860  179.3440  140.9130 C   0  0  0  0  0  0  0  0  0  0  0  0
  191.1360  177.8970  145.1350 C   0  0  0  0  0  2  0  0  0  0  0  0
  186.0560  177.0900  142.8300 O   0  0  0  0  0  0  0  0  0  0  0  0
  184.2660  178.8750  139.7420 C   0  0  0  0  0  2  0  0  0  0  0  0
  186.4020  178.3020  144.8200 C   0  0  0  0  0  0  0  0  0  0  0  0
  183.6920  178.5110  142.5780 C   0  0  0  0  0  3  0  0  0  0  0  0
  180.8970  179.2810  140.5000 O   0  0  0  0  0  0  0  0  0  0  0  0
  189.7460  177.1400  143.1930 C   0  0  0  0  0  2  0  0  0  0  0  0
  183.1840  179.9180  140.0250 C   0  0  1  0  0  3  0  0  0  0  0  0
  190.7540  178.1660  143.6780 C   0  0  0  0  0  2  0  0  0  0  0  0
  187.1250  178.1070  139.0560 O   0  0  0  0  0  0  0  0  0  0  0  0
  188.4590  178.2620  139.4530 C   0  0  2  0  0  3  0  0  0  0  0  0
  189.0610  179.2630  138.6850 O   0  0  0  0  0  1  0  0  0  0  0  0
  189.1370  177.0580  139.2640 O   0  0  0  0  0  0  0  0  0  0  0  0
  188.9540  176.7540  137.9130 C   0  0  0  0  0  2  0  0  0  0  0  0
  188.3470  174.6330  136.9520 O   0  0  0  0  0  1  0  0  0  0  0  0
  189.3680  175.3180  137.6170 C   0  0  1  0  0  3  0  0  0  0  0  0
  190.9570  176.4760  136.2570 O   0  0  0  0  0  1  0  0  0  0  0  0
  190.6900  175.2420  136.8530 C   0  0  1  0  0  3  0  0  0  0  0  0
  191.8540  174.8480  137.7480 C   0  0  0  0  0  2  0  0  0  0  0  0
  192.7850  174.0980  137.0140 O   0  0  0  0  0  0  0  0  0  0  0  0
  193.9540  174.8730  136.8980 C   0  0  1  0  0  0  0  0  0  0  0  0
  195.1920  174.4020  137.6150 C   0  0  2  0  0  0  0  0  0  0  0  0
  196.3680  174.7140  136.7060 C   0  0  2  0  0  3  0  0  0  0  0  0
  197.3670  175.3720  137.4240 O   0  0  0  0  0  1  0  0  0  0  0  0
  195.0960  173.0600  138.3210 C   0  0  0  0  0  1  0  0  0  0  0  0
  194.3360  175.5510  135.5910 C   0  0  0  0  0  2  0  0  0  0  0  0
  194.3760  175.5590  138.1860 C   0  0  0  0  0  2  0  0  0  0  0  0
  195.8590  175.6100  135.5760 C   0  0  0  0  0  2  0  0  0  0  0  0
  182.6540  180.5110  138.7010 C   0  0  2  0  0  3  0  0  0  0  0  0
  181.3510  182.2730  138.0220 C   0  0  0  0  0  1  0  0  0  0  0  0
  182.5180  181.9180  138.7180 O   0  0  0  0  0  0  0  0  0  0  0  0
  181.4160  179.7840  138.1450 C   0  0  0  0  0  2  0  0  0  0  0  0
  181.7950  179.0120  136.8930 C   0  0  0  0  0  2  0  0  0  0  0  0
  181.0270  176.6940  137.2480 C   0  0  0  0  0  0  0  0  0  0  0  0
  179.7210  177.0910  136.9660 O   0  0  0  0  0  1  0  0  0  0  0  0
  182.0240  177.5790  137.2380 C   0  0  0  0  0  3  0  0  0  0  0  0
  181.3280  175.2620  137.5610 C   0  0  2  0  0  3  0  0  0  0  0  0
  180.4020  174.7030  138.6040 C   0  0  0  0  0  0  0  0  0  0  0  0
  180.2320  175.2840  139.6660 O   0  0  0  0  0  0  0  0  0  0  0  0
  179.6730  173.4340  138.3290 C   0  0  0  0  0  1  0  0  0  0  0  0
  183.2030  175.4380  138.9930 O   0  0  0  0  0  0  0  0  0  0  0  0
  182.7810  175.0490  137.9080 C   0  0  0  0  0  0  0  0  0  0  0  0
  183.0000  173.5950  136.0600 F   0  0  0  0  0  0  0  0  0  0  0  0
  184.4390  175.3260  136.2550 F   0  0  0  0  0  0  0  0  0  0  0  0
  183.7330  174.3610  136.9550 C   0  0  0  0  0  0  0  0  0  0  0  0
  184.7250  173.4530  137.6810 C   0  0  0  0  0  2  0  0  0  0  0  0
  184.9680  172.2960  136.9330 O   0  0  0  0  0  1  0  0  0  0  0  0
  1 10  1  0  0  0  0
  2  8  1  6  0  0  0
  2 16  1  0  0  0  0
  2 11  1  0  0  0  0
  3 18  1  0  0  0  0
  3  1  1  0  0  0  0
  4  5  1  0  0  0  0
  5 24  1  6  0  0  0
  5  8  1  0  0  0  0
  6 19  1  0  0  0  0
  7 12  1  0  0  0  0
  7 13  1  0  0  0  0
 11  3  2  0  0  0  0
 12 18  2  0  0  0  0
 14  6  1  0  0  0  0
 15 10  1  0  0  0  0
 16 12  1  0  0  0  0
 17 22  1  0  0  0  0
 17  4  1  0  0  0  0
 18  9  1  0  0  0  0
 19  7  2  0  0  0  0
 20 14  2  0  0  0  0
 21 11  1  0  0  0  0
 21 23  1  0  0  0  0
 22 43  1  6  0  0  0
 22 14  1  0  0  0  0
 23 15  1  0  0  0  0
 24 25  1  0  0  0  0
 25 26  1  6  0  0  0
 27 25  1  0  0  0  0
 28 27  1  0  0  0  0
 30 29  1  6  0  0  0
 30 28  1  0  0  0  0
 32 31  1  1  0  0  0
 32 30  1  0  0  0  0
 32 33  1  0  0  0  0
 34 33  1  0  0  0  0
 35 34  1  1  0  0  0
 35 36  1  0  0  0  0
 35 41  1  0  0  0  0
 36 41  1  0  0  0  0
 36 39  1  1  0  0  0
 37 38  1  1  0  0  0
 37 36  1  0  0  0  0
 40 35  1  0  0  0  0
 42 40  1  0  0  0  0
 42 37  1  0  0  0  0
 43 46  1  1  0  0  0
 43 45  1  0  0  0  0
 44 45  1  0  0  0  0
 47 50  1  0  0  0  0
 47 46  1  0  0  0  0
 49 48  1  0  0  0  0
 50 48  2  0  0  0  0
 51 48  1  1  0  0  0
 51 56  1  0  0  0  0
 51 52  1  0  0  0  0
 52 53  2  0  0  0  0
 54 52  1  0  0  0  0
 56 55  2  0  0  0  0
 57 59  1  0  0  0  0
 58 59  1  0  0  0  0
 59 60  1  0  0  0  0
 59 56  1  0  0  0  0
 61 60  1  0  0  0  0
M  END
>  <MODEL>
2

>  <REMARK>
 VINA RESULT:      -6.6      1.700      2.352
  Name = 
  19 active torsions:
  status: ('A' for Active; 'I' for Inactive)
    1  A    between atoms: C_1  and  C_59
    2  A    between atoms: C_5  and  O_6
    3  A    between atoms: O_6  and  C_53
    4  A    between atoms: C_13  and  O_43
    5  A    between atoms: C_22  and  C_27
    6  A    between atoms: C_22  and  C_61
    7  A    between atoms: C_28  and  O_52
    8  A    between atoms: C_28  and  C_54
    9  A    between atoms: C_30  and  C_59
   10  A    between atoms: O_31  and  C_57
   11  A    between atoms: C_40  and  C_41
   12  A    between atoms: C_40  and  C_57
   13  A    between atoms: C_41  and  C_56
   14  A    between atoms: O_43  and  C_48
   15  A    between atoms: C_44  and  C_53
   16  A    between atoms: C_44  and  C_54
   17  A    between atoms: C_48  and  O_52
   18  A    between atoms: C_51  and  C_57
   19  A    between atoms: C_59  and  C_61
                            x       y       z     vdW  Elec       q    Type
                         _______ _______ _______ _____ _____    ______ ____

>  <TORSDO>
F 19

$$$$
=
 OpenBabel10222420333D

 61 65  0  0  1  0  0  0  0  0999 V2000
  186.4270  177.7270  145.1160 C   0  0  0  0  0  2  0  0  0  0  0  0
  187.0430  178.9970  141.4730 C   0  0  1  0  0  3  0  0  0  0  0  0
  187.0670  178.1330  143.8060 C   0  0  0  0  0  0  0  0  0  0  0  0
  187.8470  176.9280  138.6710 O   0  0  0  0  0  0  0  0  0  0  0  0
  187.2660  178.1160  139.1280 C   0  0  2  0  0  3  0  0  0  0  0  0
  191.5100  176.7510  139.9210 N   0  0  0  0  0  0  0  0  0  0  0  0
  190.3550  177.4900  141.9390 C   0  0  1  0  0  3  0  0  0  0  0  0
  186.6400  177.8890  140.5010 C   0  0  0  0  0  2  0  0  0  0  0  0
  189.0880  176.6420  144.4660 C   0  0  0  0  0  1  0  0  0  0  0  0
  185.5300  178.7920  145.7240 C   0  0  0  0  0  2  0  0  0  0  0  0
  186.3940  178.7960  142.8180 C   0  0  0  0  0  0  0  0  0  0  0  0
  189.0950  178.0620  142.4360 C   0  0  0  0  0  0  0  0  0  0  0  0
  191.4100  177.1360  142.7810 O   0  0  0  0  0  1  0  0  0  0  0  0
  191.3540  176.4190  138.5360 C   0  0  0  0  0  0  0  0  0  0  0  0
  184.1100  178.6740  145.1900 C   0  0  0  0  0  2  0  0  0  0  0  0
  188.4560  178.9960  141.6150 O   0  0  0  0  0  0  0  0  0  0  0  0
  189.0460  177.3040  138.0490 C   0  0  0  0  0  2  0  0  0  0  0  0
  188.4600  177.6470  143.5460 C   0  0  0  0  0  0  0  0  0  0  0  0
  190.4050  177.2930  140.6290 C   0  0  0  0  0  3  0  0  0  0  0  0
  192.3840  176.3570  137.8130 O   0  0  0  0  0  0  0  0  0  0  0  0
  185.0370  179.4250  142.9860 C   0  0  0  0  0  2  0  0  0  0  0  0
  189.9810  176.0980  137.9550 C   0  0  1  0  0  3  0  0  0  0  0  0
  184.0430  178.5050  143.6700 C   0  0  0  0  0  2  0  0  0  0  0  0
  186.2720  178.5300  138.2330 O   0  0  0  0  0  0  0  0  0  0  0  0
  186.6320  177.9670  137.0020 C   0  0  2  0  0  3  0  0  0  0  0  0
  187.3020  178.9220  136.2300 O   0  0  0  0  0  1  0  0  0  0  0  0
  185.4800  177.5530  136.3330 O   0  0  0  0  0  0  0  0  0  0  0  0
  184.7930  176.7650  137.2600 C   0  0  0  0  0  2  0  0  0  0  0  0
  182.7880  177.1820  135.9960 O   0  0  0  0  0  1  0  0  0  0  0  0
  183.3130  177.1270  137.2900 C   0  0  1  0  0  3  0  0  0  0  0  0
  182.9410  176.3140  139.5070 O   0  0  0  0  0  1  0  0  0  0  0  0
  182.5060  176.1880  138.1870 C   0  0  1  0  0  3  0  0  0  0  0  0
  181.0130  176.4620  138.1160 C   0  0  0  0  0  2  0  0  0  0  0  0
  180.5530  176.9160  139.3610 O   0  0  0  0  0  0  0  0  0  0  0  0
  180.0370  178.2120  139.1740 C   0  0  1  0  0  0  0  0  0  0  0  0
  180.3060  179.2430  140.2380 C   0  0  2  0  0  0  0  0  0  0  0  0
  180.5380  180.5610  139.5200 C   0  0  2  0  0  3  0  0  0  0  0  0
  179.7610  181.5660  140.0980 O   0  0  0  0  0  1  0  0  0  0  0  0
  181.2130  178.8170  141.3800 C   0  0  0  0  0  1  0  0  0  0  0  0
  180.0120  178.8720  137.8040 C   0  0  0  0  0  2  0  0  0  0  0  0
  178.9310  178.5870  140.1470 C   0  0  0  0  0  2  0  0  0  0  0  0
  180.1400  180.3700  138.0550 C   0  0  0  0  0  2  0  0  0  0  0  0
  190.0370  175.5750  136.5030 C   0  0  2  0  0  3  0  0  0  0  0  0
  190.8940  176.5170  134.5950 C   0  0  0  0  0  1  0  0  0  0  0  0
  189.8440  176.5790  135.5260 O   0  0  0  0  0  0  0  0  0  0  0  0
  189.1850  174.3160  136.2630 C   0  0  0  0  0  2  0  0  0  0  0  0
  187.8510  174.7090  135.6530 C   0  0  0  0  0  2  0  0  0  0  0  0
  186.2160  172.9930  136.3360 C   0  0  0  0  0  0  0  0  0  0  0  0
  186.1240  173.5900  137.5920 O   0  0  0  0  0  1  0  0  0  0  0  0
  187.0330  173.4860  135.4060 C   0  0  0  0  0  3  0  0  0  0  0  0
  185.3890  171.7870  136.0130 C   0  0  2  0  0  3  0  0  0  0  0  0
  186.0920  170.8550  135.0670 C   0  0  0  0  0  0  0  0  0  0  0  0
  187.2330  171.0850  134.6940 O   0  0  0  0  0  0  0  0  0  0  0  0
  185.3910  169.6290  134.5950 C   0  0  0  0  0  1  0  0  0  0  0  0
  183.8840  172.9890  134.6400 O   0  0  0  0  0  0  0  0  0  0  0  0
  184.0070  172.1580  135.5350 C   0  0  0  0  0  0  0  0  0  0  0  0
  183.1390  170.4280  136.8870 F   0  0  0  0  0  0  0  0  0  0  0  0
  182.1350  172.4510  136.9370 F   0  0  0  0  0  0  0  0  0  0  0  0
  182.7660  171.5240  136.1230 C   0  0  0  0  0  0  0  0  0  0  0  0
  181.7840  171.0630  135.0470 C   0  0  0  0  0  2  0  0  0  0  0  0
  181.1000  169.9170  135.4660 O   0  0  0  0  0  1  0  0  0  0  0  0
  1 10  1  0  0  0  0
  2  8  1  6  0  0  0
  2 16  1  0  0  0  0
  2 11  1  0  0  0  0
  3  1  1  0  0  0  0
  4  5  1  0  0  0  0
  5 24  1  6  0  0  0
  5  8  1  0  0  0  0
  6 19  2  0  0  0  0
  7 12  1  0  0  0  0
  7 13  1  1  0  0  0
 11 21  1  0  0  0  0
 11  3  2  0  0  0  0
 12 18  2  0  0  0  0
 14  6  1  0  0  0  0
 15 10  1  0  0  0  0
 16 12  1  0  0  0  0
 17  4  1  0  0  0  0
 18  3  1  0  0  0  0
 18  9  1  0  0  0  0
 19  7  1  0  0  0  0
 20 14  2  0  0  0  0
 21 23  1  0  0  0  0
 22 43  1  6  0  0  0
 22 17  1  0  0  0  0
 22 14  1  0  0  0  0
 23 15  1  0  0  0  0
 25 26  1  6  0  0  0
 25 24  1  0  0  0  0
 27 25  1  0  0  0  0
 27 28  1  0  0  0  0
 28 30  1  0  0  0  0
 30 29  1  6  0  0  0
 30 32  1  0  0  0  0
 32 31  1  1  0  0  0
 33 32  1  0  0  0  0
 33 34  1  0  0  0  0
 35 34  1  1  0  0  0
 35 41  1  0  0  0  0
 35 36  1  0  0  0  0
 36 39  1  1  0  0  0
 37 38  1  1  0  0  0
 37 36  1  0  0  0  0
 40 42  1  0  0  0  0
 40 35  1  0  0  0  0
 41 36  1  0  0  0  0
 42 37  1  0  0  0  0
 43 46  1  1  0  0  0
 44 45  1  0  0  0  0
 45 43  1  0  0  0  0
 47 46  1  0  0  0  0
 48 49  1  0  0  0  0
 50 47  1  0  0  0  0
 50 48  2  0  0  0  0
 51 52  1  6  0  0  0
 51 48  1  0  0  0  0
 53 52  2  0  0  0  0
 54 52  1  0  0  0  0
 55 56  2  0  0  0  0
 56 51  1  0  0  0  0
 56 59  1  0  0  0  0
 59 57  1  0  0  0  0
 59 58  1  0  0  0  0
 60 61  1  0  0  0  0
 60 59  1  0  0  0  0
M  END
>  <MODEL>
3

>  <REMARK>
 VINA RESULT:      -6.5      3.227      8.616
  Name = 
  19 active torsions:
  status: ('A' for Active; 'I' for Inactive)
    1  A    between atoms: C_1  and  C_59
    2  A    between atoms: C_5  and  O_6
    3  A    between atoms: O_6  and  C_53
    4  A    between atoms: C_13  and  O_43
    5  A    between atoms: C_22  and  C_27
    6  A    between atoms: C_22  and  C_61
    7  A    between atoms: C_28  and  O_52
    8  A    between atoms: C_28  and  C_54
    9  A    between atoms: C_30  and  C_59
   10  A    between atoms: O_31  and  C_57
   11  A    between atoms: C_40  and  C_41
   12  A    between atoms: C_40  and  C_57
   13  A    between atoms: C_41  and  C_56
   14  A    between atoms: O_43  and  C_48
   15  A    between atoms: C_44  and  C_53
   16  A    between atoms: C_44  and  C_54
   17  A    between atoms: C_48  and  O_52
   18  A    between atoms: C_51  and  C_57
   19  A    between atoms: C_59  and  C_61
                            x       y       z     vdW  Elec       q    Type
                         _______ _______ _______ _____ _____    ______ ____

>  <TORSDO>
F 19

$$$$
=
 OpenBabel10222420333D

 61 65  0  0  1  0  0  0  0  0999 V2000
  179.6810  181.7960  136.1280 C   0  0  0  0  0  2  0  0  0  0  0  0
  181.4000  179.0400  138.3000 C   0  0  1  0  0  3  0  0  0  0  0  0
  180.0960  180.4750  136.7410 C   0  0  0  0  0  0  0  0  0  0  0  0
  183.8910  176.7520  137.1430 O   0  0  0  0  0  0  0  0  0  0  0  0
  183.3520  177.4560  138.2250 C   0  0  2  0  0  3  0  0  0  0  0  0
  181.1000  174.6290  135.4970 N   0  0  0  0  0  0  0  0  0  0  0  0
  179.9480  176.7540  135.8260 C   0  0  1  0  0  3  0  0  0  0  0  0
  182.8040  178.7980  137.7480 C   0  0  0  0  0  2  0  0  0  0  0  0
  179.1930  179.3280  134.5940 C   0  0  0  0  0  1  0  0  0  0  0  0
  179.2570  182.8440  137.1430 C   0  0  0  0  0  2  0  0  0  0  0  0
  180.8750  180.3830  137.8610 C   0  0  0  0  0  0  0  0  0  0  0  0
  180.0180  178.0370  136.5410 C   0  0  0  0  0  0  0  0  0  0  0  0
  178.9320  176.4460  134.9200 O   0  0  0  0  0  1  0  0  0  0  0  0
  182.3240  173.9140  135.7070 C   0  0  0  0  0  0  0  0  0  0  0  0
  180.4580  183.6430  137.6290 C   0  0  0  0  0  2  0  0  0  0  0  0
  180.5380  178.0110  137.8390 O   0  0  0  0  0  0  0  0  0  0  0  0
  183.5250  175.4120  137.3370 C   0  0  0  0  0  2  0  0  0  0  0  0
  179.7470  179.2300  135.9850 C   0  0  0  0  0  0  0  0  0  0  0  0
  180.9480  175.9190  136.0710 C   0  0  0  0  0  3  0  0  0  0  0  0
  182.3150  172.6600  135.5910 O   0  0  0  0  0  0  0  0  0  0  0  0
  181.2070  181.5390  138.7650 C   0  0  0  0  0  2  0  0  0  0  0  0
  183.6220  174.6530  136.0130 C   0  0  1  0  0  3  0  0  0  0  0  0
  181.6580  182.7710  138.0040 C   0  0  0  0  0  2  0  0  0  0  0  0
  184.3460  177.6800  139.1850 O   0  0  0  0  0  0  0  0  0  0  0  0
  184.7210  179.0190  139.0160 C   0  0  2  0  0  3  0  0  0  0  0  0
  185.8790  179.0830  138.2330 O   0  0  0  0  0  1  0  0  0  0  0  0
  184.9720  179.5870  140.2640 O   0  0  0  0  0  0  0  0  0  0  0  0
  184.8340  178.5320  141.1700 C   0  0  0  0  0  2  0  0  0  0  0  0
  183.2450  177.9010  142.8640 O   0  0  0  0  0  1  0  0  0  0  0  0
  184.0210  178.9610  142.3850 C   0  0  1  0  0  3  0  0  0  0  0  0
  184.1010  180.3000  144.3630 O   0  0  0  0  0  1  0  0  0  0  0  0
  184.8960  179.5620  143.4850 C   0  0  1  0  0  3  0  0  0  0  0  0
  185.6600  178.5010  144.2600 C   0  0  0  0  0  2  0  0  0  0  0  0
  186.6220  177.9070  143.4310 O   0  0  0  0  0  0  0  0  0  0  0  0
  187.5920  177.3190  144.2640 C   0  0  1  0  0  0  0  0  0  0  0  0
  189.0430  177.4920  143.8960 C   0  0  2  0  0  0  0  0  0  0  0  0
  189.8060  177.6660  145.1970 C   0  0  2  0  0  3  0  0  0  0  0  0
  190.9090  176.8110  145.2240 O   0  0  0  0  0  1  0  0  0  0  0  0
  189.3360  178.3870  142.7030 C   0  0  0  0  0  1  0  0  0  0  0  0
  187.4400  177.2970  145.7770 C   0  0  0  0  0  2  0  0  0  0  0  0
  188.3430  176.1630  143.6240 C   0  0  0  0  0  2  0  0  0  0  0  0
  188.8540  177.3260  146.3450 C   0  0  0  0  0  2  0  0  0  0  0  0
  184.8640  173.7360  136.0120 C   0  0  2  0  0  3  0  0  0  0  0  0
  185.8940  172.4610  137.6180 C   0  0  0  0  0  1  0  0  0  0  0  0
  185.6060  173.7750  137.2160 O   0  0  0  0  0  0  0  0  0  0  0  0
  185.7370  173.8720  134.7520 C   0  0  0  0  0  2  0  0  0  0  0  0
  187.1460  173.3910  135.0490 C   0  0  0  0  0  2  0  0  0  0  0  0
  189.2200  174.3720  135.9550 C   0  0  0  0  0  0  0  0  0  0  0  0
  189.7460  173.0920  136.1220 O   0  0  0  0  0  1  0  0  0  0  0  0
  187.9920  174.5450  135.4680 C   0  0  0  0  0  3  0  0  0  0  0  0
  190.0360  175.5740  136.3180 C   0  0  2  0  0  3  0  0  0  0  0  0
  191.2920  175.2040  137.0540 C   0  0  0  0  0  0  0  0  0  0  0  0
  191.2640  174.9370  138.2460 O   0  0  0  0  0  0  0  0  0  0  0  0
  192.5840  175.1490  136.3130 C   0  0  0  0  0  1  0  0  0  0  0  0
  188.8930  176.4050  138.2140 O   0  0  0  0  0  0  0  0  0  0  0  0
  189.2230  176.6120  137.0500 C   0  0  0  0  0  0  0  0  0  0  0  0
  189.3080  177.9350  135.0960 F   0  0  0  0  0  0  0  0  0  0  0  0
  187.4280  177.9680  136.3470 F   0  0  0  0  0  0  0  0  0  0  0  0
  188.8110  177.9090  136.3910 C   0  0  0  0  0  0  0  0  0  0  0  0
  189.3330  179.1340  137.1430 C   0  0  0  0  0  2  0  0  0  0  0  0
  188.8010  179.1780  138.4350 O   0  0  0  0  0  1  0  0  0  0  0  0
  1  3  1  0  0  0  0
  1 10  1  0  0  0  0
  2  8  1  6  0  0  0
  3 11  2  0  0  0  0
  4 17  1  0  0  0  0
  4  5  1  0  0  0  0
  5 24  1  1  0  0  0
  6 14  1  0  0  0  0
  6 19  2  0  0  0  0
  7 13  1  6  0  0  0
  7 19  1  0  0  0  0
  7 12  1  0  0  0  0
  8  5  1  0  0  0  0
  9 18  1  0  0  0  0
 10 15  1  0  0  0  0
 11  2  1  0  0  0  0
 11 21  1  0  0  0  0
 12 16  1  0  0  0  0
 14 22  1  0  0  0  0
 15 23  1  0  0  0  0
 16  2  1  0  0  0  0
 18 12  2  0  0  0  0
 18  3  1  0  0  0  0
 20 14  2  0  0  0  0
 22 43  1  1  0  0  0
 22 17  1  0  0  0  0
 23 21  1  0  0  0  0
 25 26  1  6  0  0  0
 25 24  1  0  0  0  0
 25 27  1  0  0  0  0
 27 28  1  0  0  0  0
 28 30  1  0  0  0  0
 30 29  1  1  0  0  0
 30 32  1  0  0  0  0
 32 33  1  0  0  0  0
 32 31  1  1  0  0  0
 34 33  1  0  0  0  0
 35 34  1  6  0  0  0
 35 40  1  0  0  0  0
 36 39  1  6  0  0  0
 36 35  1  0  0  0  0
 36 37  1  0  0  0  0
 37 38  1  6  0  0  0
 37 42  1  0  0  0  0
 40 42  1  0  0  0  0
 41 36  1  0  0  0  0
 41 35  1  0  0  0  0
 43 46  1  6  0  0  0
 43 45  1  0  0  0  0
 45 44  1  0  0  0  0
 46 47  1  0  0  0  0
 47 50  1  0  0  0  0
 48 49  1  0  0  0  0
 50 48  2  0  0  0  0
 51 48  1  1  0  0  0
 51 56  1  0  0  0  0
 51 52  1  0  0  0  0
 52 53  2  0  0  0  0
 54 52  1  0  0  0  0
 56 55  2  0  0  0  0
 57 59  1  0  0  0  0
 58 59  1  0  0  0  0
 59 56  1  0  0  0  0
 59 60  1  0  0  0  0
 60 61  1  0  0  0  0
M  END
>  <MODEL>
4

>  <REMARK>
 VINA RESULT:      -6.0      2.595      9.279
  Name = 
  19 active torsions:
  status: ('A' for Active; 'I' for Inactive)
    1  A    between atoms: C_1  and  C_59
    2  A    between atoms: C_5  and  O_6
    3  A    between atoms: O_6  and  C_53
    4  A    between atoms: C_13  and  O_43
    5  A    between atoms: C_22  and  C_27
    6  A    between atoms: C_22  and  C_61
    7  A    between atoms: C_28  and  O_52
    8  A    between atoms: C_28  and  C_54
    9  A    between atoms: C_30  and  C_59
   10  A    between atoms: O_31  and  C_57
   11  A    between atoms: C_40  and  C_41
   12  A    between atoms: C_40  and  C_57
   13  A    between atoms: C_41  and  C_56
   14  A    between atoms: O_43  and  C_48
   15  A    between atoms: C_44  and  C_53
   16  A    between atoms: C_44  and  C_54
   17  A    between atoms: C_48  and  O_52
   18  A    between atoms: C_51  and  C_57
   19  A    between atoms: C_59  and  C_61
                            x       y       z     vdW  Elec       q    Type
                         _______ _______ _______ _____ _____    ______ ____

>  <TORSDO>
F 19

$$$$
=
 OpenBabel10222420333D

 61 65  0  0  1  0  0  0  0  0999 V2000
  189.4020  178.1730  146.0600 C   0  0  0  0  0  2  0  0  0  0  0  0
  187.9530  176.9450  142.6450 C   0  0  1  0  0  3  0  0  0  0  0  0
  188.4750  177.7280  144.9480 C   0  0  0  0  0  0  0  0  0  0  0  0
  186.1720  178.9780  140.3050 O   0  0  0  0  0  0  0  0  0  0  0  0
  186.9910  177.8620  140.5100 C   0  0  2  0  0  3  0  0  0  0  0  0
  183.0040  178.6440  142.5080 N   0  0  0  0  0  2  0  0  0  0  0  0
  184.7480  177.9980  144.0870 C   0  0  0  0  0  0  0  0  0  0  0  0
  187.9410  178.1250  141.6740 C   0  0  0  0  0  2  0  0  0  0  0  0
  186.5580  178.9250  146.2260 C   0  0  0  0  0  1  0  0  0  0  0  0
  190.5490  177.2140  146.3320 C   0  0  0  0  0  2  0  0  0  0  0  0
  188.9220  177.1880  143.7740 C   0  0  0  0  0  0  0  0  0  0  0  0
  186.1540  177.5790  144.1850 C   0  0  0  0  0  0  0  0  0  0  0  0
  183.9340  178.1870  145.2030 O   0  0  0  0  0  1  0  0  0  0  0  0
  182.7310  179.0350  141.1570 C   0  0  0  0  0  0  0  0  0  0  0  0
  191.7420  177.5310  145.4420 C   0  0  0  0  0  2  0  0  0  0  0  0
  186.6450  176.7600  143.1630 O   0  0  0  0  0  0  0  0  0  0  0  0
  184.9000  178.4690  140.0070 C   0  0  0  0  0  2  0  0  0  0  0  0
  187.0190  178.0380  145.1070 C   0  0  0  0  0  0  0  0  0  0  0  0
  184.3160  178.2270  142.8540 C   0  0  0  0  0  3  0  0  0  0  0  0
  181.5410  178.9850  140.7450 O   0  0  0  0  0  0  0  0  0  0  0  0
  190.3350  176.7340  143.5280 C   0  0  0  0  0  2  0  0  0  0  0  0
  183.8430  179.5480  140.2490 C   0  0  1  0  0  3  0  0  0  0  0  0
  191.3670  177.7530  143.9760 C   0  0  0  0  0  2  0  0  0  0  0  0
  187.7390  177.6060  139.3550 O   0  0  0  0  0  0  0  0  0  0  0  0
  189.0340  177.3290  139.8120 C   0  0  2  0  0  3  0  0  0  0  0  0
  189.9130  178.3130  139.3480 O   0  0  0  0  0  1  0  0  0  0  0  0
  189.4330  176.0830  139.3300 O   0  0  0  0  0  0  0  0  0  0  0  0
  190.4240  176.3660  138.3870 C   0  0  0  0  0  2  0  0  0  0  0  0
  189.7640  174.1380  137.7610 O   0  0  0  0  0  1  0  0  0  0  0  0
  190.6410  175.1820  137.4520 C   0  0  1  0  0  3  0  0  0  0  0  0
  189.4040  176.3570  135.7780 O   0  0  0  0  0  1  0  0  0  0  0  0
  190.5470  175.5820  135.9800 C   0  0  1  0  0  3  0  0  0  0  0  0
  191.7720  176.3490  135.5100 C   0  0  0  0  0  2  0  0  0  0  0  0
  192.7260  175.4560  135.0010 O   0  0  0  0  0  0  0  0  0  0  0  0
  193.9800  175.8430  135.5080 C   0  0  1  0  0  0  0  0  0  0  0  0
  194.6270  174.9660  136.5480 C   0  0  2  0  0  0  0  0  0  0  0  0
  196.1170  174.9690  136.2560 C   0  0  2  0  0  3  0  0  0  0  0  0
  196.8340  175.2360  137.4230 O   0  0  0  0  0  1  0  0  0  0  0  0
  193.9080  173.6690  136.8810 C   0  0  0  0  0  1  0  0  0  0  0  0
  195.0450  176.4650  134.6180 C   0  0  0  0  0  2  0  0  0  0  0  0
  193.9560  176.2720  136.9660 C   0  0  0  0  0  2  0  0  0  0  0  0
  196.3860  176.0580  135.2170 C   0  0  0  0  0  2  0  0  0  0  0  0
  183.3280  180.1030  138.9030 C   0  0  2  0  0  3  0  0  0  0  0  0
  182.0330  181.9090  138.3320 C   0  0  0  0  0  1  0  0  0  0  0  0
  182.0290  180.6580  138.9720 O   0  0  0  0  0  0  0  0  0  0  0  0
  183.5180  179.1380  137.7190 C   0  0  0  0  0  2  0  0  0  0  0  0
  182.2870  178.2610  137.5700 C   0  0  0  0  0  2  0  0  0  0  0  0
  182.7480  175.8690  137.9650 C   0  0  0  0  0  0  0  0  0  0  0  0
  182.4540  176.0420  139.3160 O   0  0  0  0  0  1  0  0  0  0  0  0
  182.6950  176.8990  137.1200 C   0  0  0  0  0  3  0  0  0  0  0  0
  183.1230  174.5180  137.4420 C   0  0  2  0  0  3  0  0  0  0  0  0
  184.2760  174.5810  136.4820 C   0  0  0  0  0  0  0  0  0  0  0  0
  184.0990  174.4480  135.2800 O   0  0  0  0  0  0  0  0  0  0  0  0
  185.6500  174.8250  137.0050 C   0  0  0  0  0  1  0  0  0  0  0  0
  181.0360  174.4180  136.3340 O   0  0  0  0  0  0  0  0  0  0  0  0
  181.9370  173.7810  136.8710 C   0  0  0  0  0  0  0  0  0  0  0  0
  181.6690  171.7790  135.6470 F   0  0  0  0  0  0  0  0  0  0  0  0
  183.0070  171.7670  137.4670 F   0  0  0  0  0  0  0  0  0  0  0  0
  181.8340  172.2730  136.9320 C   0  0  0  0  0  0  0  0  0  0  0  0
  180.6590  171.8070  137.7920 C   0  0  0  0  0  2  0  0  0  0  0  0
  179.5900  171.4050  136.9840 O   0  0  0  0  0  1  0  0  0  0  0  0
  1 10  1  0  0  0  0
  2  8  1  6  0  0  0
  2 16  1  0  0  0  0
  2 11  1  0  0  0  0
  3 18  1  0  0  0  0
  3  1  1  0  0  0  0
  4  5  1  0  0  0  0
  5 24  1  6  0  0  0
  5  8  1  0  0  0  0
  6 19  1  0  0  0  0
  7 12  1  0  0  0  0
  7 13  1  0  0  0  0
 11  3  2  0  0  0  0
 12 18  2  0  0  0  0
 14  6  1  0  0  0  0
 15 10  1  0  0  0  0
 16 12  1  0  0  0  0
 17 22  1  0  0  0  0
 17  4  1  0  0  0  0
 18  9  1  0  0  0  0
 19  7  2  0  0  0  0
 20 14  2  0  0  0  0
 21 11  1  0  0  0  0
 21 23  1  0  0  0  0
 22 43  1  6  0  0  0
 22 14  1  0  0  0  0
 23 15  1  0  0  0  0
 24 25  1  0  0  0  0
 25 26  1  6  0  0  0
 27 25  1  0  0  0  0
 28 27  1  0  0  0  0
 30 29  1  1  0  0  0
 30 28  1  0  0  0  0
 32 31  1  1  0  0  0
 32 30  1  0  0  0  0
 33 32  1  0  0  0  0
 34 33  1  0  0  0  0
 35 34  1  6  0  0  0
 35 36  1  0  0  0  0
 35 41  1  0  0  0  0
 36 39  1  1  0  0  0
 36 41  1  0  0  0  0
 37 36  1  0  0  0  0
 37 38  1  1  0  0  0
 40 42  1  0  0  0  0
 40 35  1  0  0  0  0
 42 37  1  0  0  0  0
 43 46  1  6  0  0  0
 43 45  1  0  0  0  0
 44 45  1  0  0  0  0
 47 46  1  0  0  0  0
 48 49  1  0  0  0  0
 50 47  1  0  0  0  0
 50 48  2  0  0  0  0
 51 52  1  6  0  0  0
 51 48  1  0  0  0  0
 52 54  1  0  0  0  0
 53 52  2  0  0  0  0
 55 56  2  0  0  0  0
 56 59  1  0  0  0  0
 56 51  1  0  0  0  0
 57 59  1  0  0  0  0
 59 58  1  0  0  0  0
 59 60  1  0  0  0  0
 61 60  1  0  0  0  0
M  END
>  <MODEL>
5

>  <REMARK>
 VINA RESULT:      -5.9      1.763      2.662
  Name = 
  19 active torsions:
  status: ('A' for Active; 'I' for Inactive)
    1  A    between atoms: C_1  and  C_59
    2  A    between atoms: C_5  and  O_6
    3  A    between atoms: O_6  and  C_53
    4  A    between atoms: C_13  and  O_43
    5  A    between atoms: C_22  and  C_27
    6  A    between atoms: C_22  and  C_61
    7  A    between atoms: C_28  and  O_52
    8  A    between atoms: C_28  and  C_54
    9  A    between atoms: C_30  and  C_59
   10  A    between atoms: O_31  and  C_57
   11  A    between atoms: C_40  and  C_41
   12  A    between atoms: C_40  and  C_57
   13  A    between atoms: C_41  and  C_56
   14  A    between atoms: O_43  and  C_48
   15  A    between atoms: C_44  and  C_53
   16  A    between atoms: C_44  and  C_54
   17  A    between atoms: C_48  and  O_52
   18  A    between atoms: C_51  and  C_57
   19  A    between atoms: C_59  and  C_61
                            x       y       z     vdW  Elec       q    Type
                         _______ _______ _______ _____ _____    ______ ____

>  <TORSDO>
F 19

$$$$
=
 OpenBabel10222420333D

 61 65  0  0  1  0  0  0  0  0999 V2000
  181.3270  178.0820  144.2470 C   0  0  0  0  0  2  0  0  0  0  0  0
  184.4870  179.4160  142.3780 C   0  0  1  0  0  3  0  0  0  0  0  0
  182.7050  178.6130  143.9170 C   0  0  0  0  0  0  0  0  0  0  0  0
  187.4930  177.5650  141.8190 O   0  0  0  0  0  0  0  0  0  0  0  0
  186.6410  178.5840  141.3810 C   0  0  2  0  0  3  0  0  0  0  0  0
  188.5530  178.2860  145.4740 N   0  0  0  0  0  0  0  0  0  0  0  0
  186.1610  178.7530  145.5740 C   0  0  1  0  0  3  0  0  0  0  0  0
  185.1960  178.2320  141.7230 C   0  0  0  0  0  2  0  0  0  0  0  0
  183.4920  177.6580  146.1990 C   0  0  0  0  0  1  0  0  0  0  0  0
  180.1890  178.9090  143.6710 C   0  0  0  0  0  2  0  0  0  0  0  0
  183.0490  179.0820  142.6800 C   0  0  0  0  0  0  0  0  0  0  0  0
  184.9730  179.0120  144.7460 C   0  0  0  0  0  0  0  0  0  0  0  0
  186.1110  178.6730  146.9660 O   0  0  0  0  0  1  0  0  0  0  0  0
  189.6400  177.9090  144.6200 C   0  0  0  0  0  0  0  0  0  0  0  0
  179.8430  178.4470  142.2640 C   0  0  0  0  0  2  0  0  0  0  0  0
  185.1650  179.7550  143.5770 O   0  0  0  0  0  0  0  0  0  0  0  0
  188.6280  178.2100  142.3330 C   0  0  0  0  0  2  0  0  0  0  0  0
  183.7630  178.4710  144.9670 C   0  0  0  0  0  0  0  0  0  0  0  0
  187.2840  178.5570  144.8980 C   0  0  0  0  0  3  0  0  0  0  0  0
  190.8180  178.0870  145.0310 O   0  0  0  0  0  0  0  0  0  0  0  0
  182.0680  179.3700  141.5750 C   0  0  0  0  0  2  0  0  0  0  0  0
  189.3840  177.2610  143.2640 C   0  0  1  0  0  3  0  0  0  0  0  0
  181.0680  178.2470  141.3690 C   0  0  0  0  0  2  0  0  0  0  0  0
  186.7610  178.7370  139.9940 O   0  0  0  0  0  0  0  0  0  0  0  0
  187.9150  178.0240  139.6470 C   0  0  2  0  0  3  0  0  0  0  0  0
  188.8530  178.8980  139.0880 O   0  0  0  0  0  1  0  0  0  0  0  0
  187.5830  177.0400  138.7160 O   0  0  0  0  0  0  0  0  0  0  0  0
  186.8460  177.7100  137.7360 C   0  0  0  0  0  2  0  0  0  0  0  0
  186.5370  175.4140  137.0830 O   0  0  0  0  0  1  0  0  0  0  0  0
  186.3330  176.7380  136.6810 C   0  0  1  0  0  3  0  0  0  0  0  0
  184.8030  177.6070  135.0630 O   0  0  0  0  0  1  0  0  0  0  0  0
  184.8710  176.9980  136.3170 C   0  0  1  0  0  3  0  0  0  0  0  0
  184.0420  175.7240  136.3090 C   0  0  0  0  0  2  0  0  0  0  0  0
  182.6770  176.0460  136.2760 O   0  0  0  0  0  0  0  0  0  0  0  0
  182.0530  175.3500  137.3270 C   0  0  1  0  0  0  0  0  0  0  0  0
  181.0930  176.1060  138.2080 C   0  0  2  0  0  0  0  0  0  0  0  0
  179.9600  175.1510  138.5410 C   0  0  2  0  0  3  0  0  0  0  0  0
  179.7200  175.1530  139.9160 O   0  0  0  0  0  1  0  0  0  0  0  0
  180.8000  177.5440  137.8120 C   0  0  0  0  0  1  0  0  0  0  0  0
  181.5870  173.9110  137.1680 C   0  0  0  0  0  2  0  0  0  0  0  0
  182.4980  175.7860  138.7130 C   0  0  0  0  0  2  0  0  0  0  0  0
  180.3800  173.7530  138.0850 C   0  0  0  0  0  2  0  0  0  0  0  0
  190.6690  176.7480  142.5770 C   0  0  2  0  0  3  0  0  0  0  0  0
  191.7820  175.1920  143.8420 C   0  0  0  0  0  1  0  0  0  0  0  0
  191.7500  176.5450  143.4650 O   0  0  0  0  0  0  0  0  0  0  0  0
  191.0550  177.5370  141.3130 C   0  0  0  0  0  2  0  0  0  0  0  0
  192.4530  177.1430  140.8710 C   0  0  0  0  0  2  0  0  0  0  0  0
  191.5810  176.3350  138.7090 C   0  0  0  0  0  0  0  0  0  0  0  0
  190.5640  175.6570  139.3810 O   0  0  0  0  0  1  0  0  0  0  0  0
  192.4960  177.0300  139.3850 C   0  0  0  0  0  3  0  0  0  0  0  0
  191.6530  176.2950  137.2150 C   0  0  2  0  0  3  0  0  0  0  0  0
  190.2970  176.1540  136.5860 C   0  0  0  0  0  0  0  0  0  0  0  0
  189.5800  175.1990  136.8480 O   0  0  0  0  0  0  0  0  0  0  0  0
  189.8170  177.2020  135.6430 C   0  0  0  0  0  1  0  0  0  0  0  0
  192.3690  174.0660  136.8800 O   0  0  0  0  0  0  0  0  0  0  0  0
  192.6280  175.2550  136.7210 C   0  0  0  0  0  0  0  0  0  0  0  0
  193.7340  175.5450  134.6550 F   0  0  0  0  0  0  0  0  0  0  0  0
  194.2270  176.9470  136.3560 F   0  0  0  0  0  0  0  0  0  0  0  0
  193.9160  175.6380  136.0270 C   0  0  0  0  0  0  0  0  0  0  0  0
  195.0840  174.7380  136.4310 C   0  0  0  0  0  2  0  0  0  0  0  0
  196.1790  175.5080  136.8330 O   0  0  0  0  0  1  0  0  0  0  0  0
  2  8  1  1  0  0  0
  2 11  1  0  0  0  0
  2 16  1  0  0  0  0
  3  1  1  0  0  0  0
  3 18  1  0  0  0  0
  4 17  1  0  0  0  0
  5 24  1  6  0  0  0
  5  8  1  0  0  0  0
  5  4  1  0  0  0  0
  7 13  1  6  0  0  0
 10  1  1  0  0  0  0
 11  3  2  0  0  0  0
 12 18  2  0  0  0  0
 12  7  1  0  0  0  0
 14 20  2  0  0  0  0
 14  6  1  0  0  0  0
 15 10  1  0  0  0  0
 16 12  1  0  0  0  0
 17 22  1  0  0  0  0
 18  9  1  0  0  0  0
 19  6  2  0  0  0  0
 19  7  1  0  0  0  0
 21 11  1  0  0  0  0
 22 43  1  6  0  0  0
 22 14  1  0  0  0  0
 23 21  1  0  0  0  0
 23 15  1  0  0  0  0
 25 26  1  6  0  0  0
 25 24  1  0  0  0  0
 27 25  1  0  0  0  0
 28 27  1  0  0  0  0
 30 29  1  1  0  0  0
 30 28  1  0  0  0  0
 32 31  1  6  0  0  0
 32 30  1  0  0  0  0
 33 32  1  0  0  0  0
 34 33  1  0  0  0  0
 35 34  1  6  0  0  0
 35 36  1  0  0  0  0
 35 41  1  0  0  0  0
 36 39  1  6  0  0  0
 36 37  1  0  0  0  0
 36 41  1  0  0  0  0
 37 38  1  1  0  0  0
 40 35  1  0  0  0  0
 40 42  1  0  0  0  0
 42 37  1  0  0  0  0
 43 46  1  6  0  0  0
 43 45  1  0  0  0  0
 45 44  1  0  0  0  0
 47 46  1  0  0  0  0
 48 49  1  0  0  0  0
 48 50  2  0  0  0  0
 50 47  1  0  0  0  0
 51 52  1  6  0  0  0
 51 48  1  0  0  0  0
 52 53  2  0  0  0  0
 54 52  1  0  0  0  0
 56 55  2  0  0  0  0
 56 51  1  0  0  0  0
 57 59  1  0  0  0  0
 59 58  1  0  0  0  0
 59 60  1  0  0  0  0
 59 56  1  0  0  0  0
 60 61  1  0  0  0  0
M  END
>  <MODEL>
6

>  <REMARK>
 VINA RESULT:      -5.3      2.744      8.631
  Name = 
  19 active torsions:
  status: ('A' for Active; 'I' for Inactive)
    1  A    between atoms: C_1  and  C_59
    2  A    between atoms: C_5  and  O_6
    3  A    between atoms: O_6  and  C_53
    4  A    between atoms: C_13  and  O_43
    5  A    between atoms: C_22  and  C_27
    6  A    between atoms: C_22  and  C_61
    7  A    between atoms: C_28  and  O_52
    8  A    between atoms: C_28  and  C_54
    9  A    between atoms: C_30  and  C_59
   10  A    between atoms: O_31  and  C_57
   11  A    between atoms: C_40  and  C_41
   12  A    between atoms: C_40  and  C_57
   13  A    between atoms: C_41  and  C_56
   14  A    between atoms: O_43  and  C_48
   15  A    between atoms: C_44  and  C_53
   16  A    between atoms: C_44  and  C_54
   17  A    between atoms: C_48  and  O_52
   18  A    between atoms: C_51  and  C_57
   19  A    between atoms: C_59  and  C_61
                            x       y       z     vdW  Elec       q    Type
                         _______ _______ _______ _____ _____    ______ ____

>  <TORSDO>
F 19

$$$$
=
 OpenBabel10222420333D

 61 65  0  0  1  0  0  0  0  0999 V2000
  189.2730  178.2140  147.0400 C   0  0  0  0  0  2  0  0  0  0  0  0
  187.8110  176.7530  143.7250 C   0  0  1  0  0  3  0  0  0  0  0  0
  188.3400  177.7300  145.9500 C   0  0  0  0  0  0  0  0  0  0  0  0
  186.2640  178.6640  141.1290 O   0  0  0  0  0  0  0  0  0  0  0  0
  186.9810  177.5130  141.4750 C   0  0  2  0  0  3  0  0  0  0  0  0
  183.0260  178.8210  143.2490 N   0  0  0  0  0  0  0  0  0  0  0  0
  184.6710  178.2070  144.9430 C   0  0  1  0  0  3  0  0  0  0  0  0
  187.9220  177.8210  142.6370 C   0  0  0  0  0  2  0  0  0  0  0  0
  186.4990  179.2060  147.0330 C   0  0  0  0  0  1  0  0  0  0  0  0
  190.3290  177.2000  147.4480 C   0  0  0  0  0  2  0  0  0  0  0  0
  188.7680  177.0350  144.8540 C   0  0  0  0  0  0  0  0  0  0  0  0
  186.0340  177.6890  145.1310 C   0  0  0  0  0  0  0  0  0  0  0  0
  183.8480  178.5780  146.0060 O   0  0  0  0  0  1  0  0  0  0  0  0
  182.8200  179.0870  141.8570 C   0  0  0  0  0  0  0  0  0  0  0  0
  191.5660  177.3240  146.5700 C   0  0  0  0  0  2  0  0  0  0  0  0
  186.4800  176.7300  144.2160 O   0  0  0  0  0  0  0  0  0  0  0  0
  184.9610  178.2310  140.8440 C   0  0  0  0  0  2  0  0  0  0  0  0
  186.9120  178.1710  146.0280 C   0  0  0  0  0  0  0  0  0  0  0  0
  184.2900  178.3380  143.6800 C   0  0  0  0  0  3  0  0  0  0  0  0
  181.6400  179.0900  141.4130 O   0  0  0  0  0  0  0  0  0  0  0  0
  190.1450  176.4450  144.7030 C   0  0  0  0  0  2  0  0  0  0  0  0
  183.9920  179.4100  140.9370 C   0  0  1  0  0  3  0  0  0  0  0  0
  191.2460  177.4190  145.0770 C   0  0  0  0  0  2  0  0  0  0  0  0
  187.7330  177.0770  140.3780 O   0  0  0  0  0  0  0  0  0  0  0  0
  189.0450  177.4890  140.6470 C   0  0  2  0  0  3  0  0  0  0  0  0
  189.3650  178.5840  139.8380 O   0  0  0  0  0  1  0  0  0  0  0  0
  189.9200  176.4380  140.3780 O   0  0  0  0  0  0  0  0  0  0  0  0
  191.0350  177.0430  139.7920 C   0  0  0  0  0  2  0  0  0  0  0  0
  190.8090  175.4270  138.0230 O   0  0  0  0  0  1  0  0  0  0  0  0
  191.7360  176.0850  138.8370 C   0  0  1  0  0  3  0  0  0  0  0  0
  193.8370  177.2240  138.8560 O   0  0  0  0  0  1  0  0  0  0  0  0
  192.8190  176.7790  138.0120 C   0  0  1  0  0  3  0  0  0  0  0  0
  193.4050  175.8690  136.9450 C   0  0  0  0  0  2  0  0  0  0  0  0
  193.7360  174.6280  137.5080 O   0  0  0  0  0  0  0  0  0  0  0  0
  194.5560  173.9510  136.5860 C   0  0  1  0  0  0  0  0  0  0  0  0
  195.9300  173.5270  137.0360 C   0  0  2  0  0  0  0  0  0  0  0  0
  196.1990  172.1740  136.4010 C   0  0  2  0  0  3  0  0  0  0  0  0
  197.4510  172.1740  135.7840 O   0  0  0  0  0  1  0  0  0  0  0  0
  196.2710  173.7770  138.4950 C   0  0  0  0  0  1  0  0  0  0  0  0
  193.9890  172.9270  135.6140 C   0  0  0  0  0  2  0  0  0  0  0  0
  195.7680  174.7450  136.1310 C   0  0  0  0  0  2  0  0  0  0  0  0
  195.1050  171.9200  135.3630 C   0  0  0  0  0  2  0  0  0  0  0  0
  183.5590  179.8600  139.5250 C   0  0  2  0  0  3  0  0  0  0  0  0
  181.6910  180.0020  138.2000 C   0  0  0  0  0  1  0  0  0  0  0  0
  182.2260  180.3280  139.4580 O   0  0  0  0  0  0  0  0  0  0  0  0
  183.9090  178.8510  138.4170 C   0  0  0  0  0  2  0  0  0  0  0  0
  185.3630  179.0190  138.0120 C   0  0  0  0  0  2  0  0  0  0  0  0
  187.0830  177.6750  136.8630 C   0  0  0  0  0  0  0  0  0  0  0  0
  187.9670  178.7500  136.9430 O   0  0  0  0  0  1  0  0  0  0  0  0
  185.8440  177.7770  137.3420 C   0  0  0  0  0  3  0  0  0  0  0  0
  187.5190  176.3860  136.2390 C   0  0  2  0  0  3  0  0  0  0  0  0
  188.7470  176.5550  135.3900 C   0  0  0  0  0  0  0  0  0  0  0  0
  189.3220  177.6320  135.3270 O   0  0  0  0  0  0  0  0  0  0  0  0
  189.2750  175.3880  134.6290 C   0  0  0  0  0  1  0  0  0  0  0  0
  185.8220  176.3040  134.5940 O   0  0  0  0  0  0  0  0  0  0  0  0
  186.3960  175.7050  135.4980 C   0  0  0  0  0  0  0  0  0  0  0  0
  185.6390  173.6310  134.6610 F   0  0  0  0  0  0  0  0  0  0  0  0
  187.0130  173.6410  136.4540 F   0  0  0  0  0  0  0  0  0  0  0  0
  185.9610  174.2960  135.8350 C   0  0  0  0  0  0  0  0  0  0  0  0
  184.7480  174.2690  136.7650 C   0  0  0  0  0  2  0  0  0  0  0  0
  184.9940  173.4440  137.8670 O   0  0  0  0  0  1  0  0  0  0  0  0
  1 10  1  0  0  0  0
  2  8  1  6  0  0  0
  2 16  1  0  0  0  0
  2 11  1  0  0  0  0
  3 18  1  0  0  0  0
  3  1  1  0  0  0  0
  4  5  1  0  0  0  0
  5 24  1  6  0  0  0
  5  8  1  0  0  0  0
  6 19  2  0  0  0  0
  7 12  1  0  0  0  0
  7 13  1  6  0  0  0
 11  3  2  0  0  0  0
 12 18  2  0  0  0  0
 14  6  1  0  0  0  0
 15 10  1  0  0  0  0
 16 12  1  0  0  0  0
 17 22  1  0  0  0  0
 17  4  1  0  0  0  0
 18  9  1  0  0  0  0
 19  7  1  0  0  0  0
 20 14  2  0  0  0  0
 21 11  1  0  0  0  0
 21 23  1  0  0  0  0
 22 43  1  6  0  0  0
 22 14  1  0  0  0  0
 23 15  1  0  0  0  0
 24 25  1  0  0  0  0
 25 26  1  6  0  0  0
 27 25  1  0  0  0  0
 28 27  1  0  0  0  0
 30 29  1  6  0  0  0
 30 28  1  0  0  0  0
 32 30  1  0  0  0  0
 32 31  1  1  0  0  0
 33 34  1  0  0  0  0
 33 32  1  0  0  0  0
 35 36  1  0  0  0  0
 35 34  1  1  0  0  0
 36 39  1  1  0  0  0
 37 38  1  6  0  0  0
 37 36  1  0  0  0  0
 40 35  1  0  0  0  0
 41 35  1  0  0  0  0
 41 36  1  0  0  0  0
 42 40  1  0  0  0  0
 42 37  1  0  0  0  0
 43 46  1  6  0  0  0
 44 45  1  0  0  0  0
 45 43  1  0  0  0  0
 47 46  1  0  0  0  0
 48 49  1  0  0  0  0
 48 50  2  0  0  0  0
 50 47  1  0  0  0  0
 51 52  1  6  0  0  0
 51 48  1  0  0  0  0
 53 52  2  0  0  0  0
 54 52  1  0  0  0  0
 55 56  2  0  0  0  0
 56 59  1  0  0  0  0
 56 51  1  0  0  0  0
 57 59  1  0  0  0  0
 59 58  1  0  0  0  0
 59 60  1  0  0  0  0
 60 61  1  0  0  0  0
M  END
>  <MODEL>
7

>  <REMARK>
 VINA RESULT:      -5.2      1.475      2.563
  Name = 
  19 active torsions:
  status: ('A' for Active; 'I' for Inactive)
    1  A    between atoms: C_1  and  C_59
    2  A    between atoms: C_5  and  O_6
    3  A    between atoms: O_6  and  C_53
    4  A    between atoms: C_13  and  O_43
    5  A    between atoms: C_22  and  C_27
    6  A    between atoms: C_22  and  C_61
    7  A    between atoms: C_28  and  O_52
    8  A    between atoms: C_28  and  C_54
    9  A    between atoms: C_30  and  C_59
   10  A    between atoms: O_31  and  C_57
   11  A    between atoms: C_40  and  C_41
   12  A    between atoms: C_40  and  C_57
   13  A    between atoms: C_41  and  C_56
   14  A    between atoms: O_43  and  C_48
   15  A    between atoms: C_44  and  C_53
   16  A    between atoms: C_44  and  C_54
   17  A    between atoms: C_48  and  O_52
   18  A    between atoms: C_51  and  C_57
   19  A    between atoms: C_59  and  C_61
                            x       y       z     vdW  Elec       q    Type
                         _______ _______ _______ _____ _____    ______ ____

>  <TORSDO>
F 19

$$$$
=
 OpenBabel10222420333D

 61 65  0  0  1  0  0  0  0  0999 V2000
  180.8810  174.2840  138.0290 C   0  0  0  0  0  2  0  0  0  0  0  0
  184.0830  175.0090  135.9110 C   0  0  1  0  0  3  0  0  0  0  0  0
  182.1020  174.9340  137.4140 C   0  0  0  0  0  0  0  0  0  0  0  0
  187.4270  175.0660  137.1730 O   0  0  0  0  0  0  0  0  0  0  0  0
  186.5870  174.8520  136.0740 C   0  0  2  0  0  3  0  0  0  0  0  0
  186.7740  178.6120  138.5910 N   0  0  0  0  0  2  0  0  0  0  0  0
  184.4950  177.8160  138.2370 C   0  0  0  0  0  0  0  0  0  0  0  0
  185.2590  174.2680  136.5450 C   0  0  0  0  0  2  0  0  0  0  0  0
  182.1530  176.5140  139.4740 C   0  0  0  0  0  1  0  0  0  0  0  0
  179.8890  173.7430  137.0120 C   0  0  0  0  0  2  0  0  0  0  0  0
  182.7710  174.4080  136.3450 C   0  0  0  0  0  0  0  0  0  0  0  0
  183.6970  176.7860  137.5550 C   0  0  0  0  0  0  0  0  0  0  0  0
  183.9310  178.7830  139.0690 O   0  0  0  0  0  1  0  0  0  0  0  0
  188.1630  178.2930  138.4440 C   0  0  0  0  0  0  0  0  0  0  0  0
  180.2410  172.3150  136.6210 C   0  0  0  0  0  2  0  0  0  0  0  0
  184.1370  176.3750  136.2930 O   0  0  0  0  0  0  0  0  0  0  0  0
  188.0760  176.2840  136.9270 C   0  0  0  0  0  2  0  0  0  0  0  0
  182.6690  176.1270  138.1190 C   0  0  0  0  0  0  0  0  0  0  0  0
  185.8030  177.7350  138.0380 C   0  0  0  0  0  3  0  0  0  0  0  0
  189.0060  179.2260  138.5310 O   0  0  0  0  0  0  0  0  0  0  0  0
  182.2560  173.2820  135.4890 C   0  0  0  0  0  2  0  0  0  0  0  0
  188.6210  176.8540  138.2370 C   0  0  1  0  0  3  0  0  0  0  0  0
  181.7250  172.1180  136.3040 C   0  0  0  0  0  2  0  0  0  0  0  0
  187.1930  173.9570  135.1840 O   0  0  0  0  0  0  0  0  0  0  0  0
  187.5640  172.8570  135.9690 C   0  0  2  0  0  3  0  0  0  0  0  0
  188.1080  173.3070  137.1760 O   0  0  0  0  0  1  0  0  0  0  0  0
  188.5140  172.1030  135.2810 O   0  0  0  0  0  0  0  0  0  0  0  0
  189.7090  172.3210  135.9700 C   0  0  0  0  0  2  0  0  0  0  0  0
  190.9040  173.8940  134.5960 O   0  0  0  0  0  1  0  0  0  0  0  0
  190.8610  172.5570  135.0010 C   0  0  1  0  0  3  0  0  0  0  0  0
  192.7720  171.1480  134.7210 O   0  0  0  0  0  1  0  0  0  0  0  0
  192.2020  172.0970  135.5720 C   0  0  1  0  0  3  0  0  0  0  0  0
  193.1720  173.2500  135.7710 C   0  0  0  0  0  2  0  0  0  0  0  0
  194.1360  172.9000  136.7280 O   0  0  0  0  0  0  0  0  0  0  0  0
  195.1040  173.9210  136.7450 C   0  0  1  0  0  0  0  0  0  0  0  0
  196.4900  173.5770  137.2240 C   0  0  2  0  0  0  0  0  0  0  0  0
  197.4600  174.3580  136.3540 C   0  0  2  0  0  3  0  0  0  0  0  0
  198.3900  175.0250  137.1530 O   0  0  0  0  0  1  0  0  0  0  0  0
  196.7500  172.1150  137.5490 C   0  0  0  0  0  1  0  0  0  0  0  0
  195.1800  174.9690  135.6450 C   0  0  0  0  0  2  0  0  0  0  0  0
  195.5390  174.3440  138.1380 C   0  0  0  0  0  2  0  0  0  0  0  0
  196.6470  175.3690  135.5430 C   0  0  0  0  0  2  0  0  0  0  0  0
  190.1550  176.6840  138.2970 C   0  0  2  0  0  3  0  0  0  0  0  0
  192.0490  176.0420  137.1730 C   0  0  0  0  0  1  0  0  0  0  0  0
  190.6720  175.8060  137.3160 O   0  0  0  0  0  0  0  0  0  0  0  0
  190.6950  176.4070  139.7110 C   0  0  0  0  0  2  0  0  0  0  0  0
  191.3750  177.6520  140.2530 C   0  0  0  0  0  2  0  0  0  0  0  0
  189.9740  177.7560  142.2800 C   0  0  0  0  0  0  0  0  0  0  0  0
  188.8310  177.7560  141.4820 O   0  0  0  0  0  1  0  0  0  0  0  0
  191.1870  177.7240  141.7300 C   0  0  0  0  0  3  0  0  0  0  0  0
  189.8510  177.7850  143.7720 C   0  0  2  0  0  3  0  0  0  0  0  0
  191.0740  177.2400  144.4520 C   0  0  0  0  0  0  0  0  0  0  0  0
  191.8040  177.9690  145.1070 O   0  0  0  0  0  0  0  0  0  0  0  0
  191.3890  175.7880  144.3360 C   0  0  0  0  0  1  0  0  0  0  0  0
  188.0570  176.2580  143.5540 O   0  0  0  0  0  0  0  0  0  0  0  0
  188.5830  177.1220  144.2500 C   0  0  0  0  0  0  0  0  0  0  0  0
  187.1820  178.6350  145.4000 F   0  0  0  0  0  0  0  0  0  0  0  0
  187.1190  176.4510  145.9710 F   0  0  0  0  0  0  0  0  0  0  0  0
  187.9440  177.4890  145.5710 C   0  0  0  0  0  0  0  0  0  0  0  0
  188.9800  177.7460  146.6650 C   0  0  0  0  0  2  0  0  0  0  0  0
  188.7570  176.9020  147.7580 O   0  0  0  0  0  1  0  0  0  0  0  0
  2 16  1  0  0  0  0
  2 11  1  0  0  0  0
  2  8  1  1  0  0  0
  3  1  1  0  0  0  0
  3 18  1  0  0  0  0
  5 24  1  6  0  0  0
  5  8  1  0  0  0  0
  5  4  1  0  0  0  0
  7 13  1  0  0  0  0
 10  1  1  0  0  0  0
 11  3  2  0  0  0  0
 12 18  2  0  0  0  0
 12  7  1  0  0  0  0
 14 20  2  0  0  0  0
 14  6  1  0  0  0  0
 15 10  1  0  0  0  0
 16 12  1  0  0  0  0
 17  4  1  0  0  0  0
 17 22  1  0  0  0  0
 18  9  1  0  0  0  0
 19  7  2  0  0  0  0
 19  6  1  0  0  0  0
 21 23  1  0  0  0  0
 21 11  1  0  0  0  0
 22 43  1  6  0  0  0
 22 14  1  0  0  0  0
 23 15  1  0  0  0  0
 24 25  1  0  0  0  0
 25 26  1  1  0  0  0
 27 25  1  0  0  0  0
 27 28  1  0  0  0  0
 30 29  1  1  0  0  0
 30 32  1  0  0  0  0
 30 28  1  0  0  0  0
 32 31  1  6  0  0  0
 32 33  1  0  0  0  0
 33 34  1  0  0  0  0
 35 34  1  6  0  0  0
 35 36  1  0  0  0  0
 35 41  1  0  0  0  0
 36 39  1  1  0  0  0
 36 41  1  0  0  0  0
 37 38  1  1  0  0  0
 37 36  1  0  0  0  0
 40 35  1  0  0  0  0
 42 40  1  0  0  0  0
 42 37  1  0  0  0  0
 43 46  1  1  0  0  0
 44 45  1  0  0  0  0
 45 43  1  0  0  0  0
 46 47  1  0  0  0  0
 47 50  1  0  0  0  0
 49 48  1  0  0  0  0
 50 48  2  0  0  0  0
 51 48  1  6  0  0  0
 51 56  1  0  0  0  0
 51 52  1  0  0  0  0
 52 53  2  0  0  0  0
 54 52  1  0  0  0  0
 55 56  2  0  0  0  0
 56 59  1  0  0  0  0
 57 59  1  0  0  0  0
 59 58  1  0  0  0  0
 59 60  1  0  0  0  0
 60 61  1  0  0  0  0
M  END
>  <MODEL>
8

>  <REMARK>
 VINA RESULT:      -5.1      2.800      8.348
  Name = 
  19 active torsions:
  status: ('A' for Active; 'I' for Inactive)
    1  A    between atoms: C_1  and  C_59
    2  A    between atoms: C_5  and  O_6
    3  A    between atoms: O_6  and  C_53
    4  A    between atoms: C_13  and  O_43
    5  A    between atoms: C_22  and  C_27
    6  A    between atoms: C_22  and  C_61
    7  A    between atoms: C_28  and  O_52
    8  A    between atoms: C_28  and  C_54
    9  A    between atoms: C_30  and  C_59
   10  A    between atoms: O_31  and  C_57
   11  A    between atoms: C_40  and  C_41
   12  A    between atoms: C_40  and  C_57
   13  A    between atoms: C_41  and  C_56
   14  A    between atoms: O_43  and  C_48
   15  A    between atoms: C_44  and  C_53
   16  A    between atoms: C_44  and  C_54
   17  A    between atoms: C_48  and  O_52
   18  A    between atoms: C_51  and  C_57
   19  A    between atoms: C_59  and  C_61
                            x       y       z     vdW  Elec       q    Type
                         _______ _______ _______ _____ _____    ______ ____

>  <TORSDO>
F 19

$$$$
=
 OpenBabel10222420333D

 61 65  0  0  1  0  0  0  0  0999 V2000
  189.1370  178.2790  146.8460 C   0  0  0  0  0  2  0  0  0  0  0  0
  187.8470  176.8050  143.4660 C   0  0  1  0  0  3  0  0  0  0  0  0
  188.2610  177.7780  145.7180 C   0  0  0  0  0  0  0  0  0  0  0  0
  186.3480  178.6940  140.8270 O   0  0  0  0  0  0  0  0  0  0  0  0
  187.0830  177.5610  141.1920 C   0  0  2  0  0  3  0  0  0  0  0  0
  183.0260  178.7420  142.8200 N   0  0  0  0  0  2  0  0  0  0  0  0
  184.6220  178.1600  144.5720 C   0  0  0  0  0  0  0  0  0  0  0  0
  187.9690  177.8850  142.3910 C   0  0  0  0  0  2  0  0  0  0  0  0
  186.3380  179.1930  146.7390 C   0  0  0  0  0  1  0  0  0  0  0  0
  190.2050  177.2910  147.2880 C   0  0  0  0  0  2  0  0  0  0  0  0
  188.7510  177.1040  144.6340 C   0  0  0  0  0  0  0  0  0  0  0  0
  185.9910  177.6790  144.8090 C   0  0  0  0  0  0  0  0  0  0  0  0
  183.7480  178.4990  145.6050 O   0  0  0  0  0  1  0  0  0  0  0  0
  182.8670  179.0140  141.4230 C   0  0  0  0  0  0  0  0  0  0  0  0
  191.4710  177.4570  146.4600 C   0  0  0  0  0  2  0  0  0  0  0  0
  186.4980  176.7410  143.9050 O   0  0  0  0  0  0  0  0  0  0  0  0
  185.0700  178.2270  140.4880 C   0  0  0  0  0  2  0  0  0  0  0  0
  186.8190  178.1780  145.7430 C   0  0  0  0  0  0  0  0  0  0  0  0
  184.2860  178.2910  143.2960 C   0  0  0  0  0  3  0  0  0  0  0  0
  181.7060  178.9880  140.9330 O   0  0  0  0  0  0  0  0  0  0  0  0
  190.1480  176.5550  144.5320 C   0  0  0  0  0  2  0  0  0  0  0  0
  184.0650  179.3780  140.5520 C   0  0  1  0  0  3  0  0  0  0  0  0
  191.2070  177.5560  144.9560 C   0  0  0  0  0  2  0  0  0  0  0  0
  187.8890  177.1560  140.1220 O   0  0  0  0  0  0  0  0  0  0  0  0
  189.1140  177.8060  140.3200 C   0  0  2  0  0  3  0  0  0  0  0  0
  189.2520  178.8370  139.3850 O   0  0  0  0  0  1  0  0  0  0  0  0
  190.1520  176.8890  140.1590 O   0  0  0  0  0  0  0  0  0  0  0  0
  191.3090  177.6680  140.0860 C   0  0  0  0  0  2  0  0  0  0  0  0
  193.3670  176.4280  139.9430 O   0  0  0  0  0  1  0  0  0  0  0  0
  192.3490  177.0150  139.1850 C   0  0  1  0  0  3  0  0  0  0  0  0
  191.3690  176.6780  137.0310 O   0  0  0  0  0  1  0  0  0  0  0  0
  191.7260  176.0180  138.2090 C   0  0  1  0  0  3  0  0  0  0  0  0
  192.6630  174.8670  137.8810 C   0  0  0  0  0  2  0  0  0  0  0  0
  193.9920  175.3140  137.9040 O   0  0  0  0  0  0  0  0  0  0  0  0
  194.7910  174.2910  137.3600 C   0  0  1  0  0  0  0  0  0  0  0  0
  196.0140  173.8620  138.1270 C   0  0  2  0  0  0  0  0  0  0  0  0
  196.1290  172.3570  137.9610 C   0  0  2  0  0  3  0  0  0  0  0  0
  197.4270  172.0150  137.5800 O   0  0  0  0  0  1  0  0  0  0  0  0
  196.2190  174.5060  139.4890 C   0  0  0  0  0  1  0  0  0  0  0  0
  194.1810  173.0950  136.6450 C   0  0  0  0  0  2  0  0  0  0  0  0
  196.1630  174.7530  136.8970 C   0  0  0  0  0  2  0  0  0  0  0  0
  195.1370  171.9310  136.8780 C   0  0  0  0  0  2  0  0  0  0  0  0
  183.6730  179.8270  139.1270 C   0  0  2  0  0  3  0  0  0  0  0  0
  182.3480  181.6460  138.6850 C   0  0  0  0  0  1  0  0  0  0  0  0
  183.6620  181.2300  138.9520 O   0  0  0  0  0  0  0  0  0  0  0  0
  182.4140  179.1320  138.5800 C   0  0  0  0  0  2  0  0  0  0  0  0
  182.7130  177.6680  138.3110 C   0  0  0  0  0  2  0  0  0  0  0  0
  184.1190  176.3900  136.7380 C   0  0  0  0  0  0  0  0  0  0  0  0
  183.9760  175.2580  137.5390 O   0  0  0  0  0  1  0  0  0  0  0  0
  183.5500  177.5440  137.0830 C   0  0  0  0  0  3  0  0  0  0  0  0
  184.9130  176.3200  135.4710 C   0  0  2  0  0  3  0  0  0  0  0  0
  185.1270  174.9050  135.0140 C   0  0  0  0  0  0  0  0  0  0  0  0
  184.1820  174.2060  134.6770 O   0  0  0  0  0  0  0  0  0  0  0  0
  186.5100  174.3560  134.9570 C   0  0  0  0  0  1  0  0  0  0  0  0
  186.5910  177.7370  134.5940 O   0  0  0  0  0  0  0  0  0  0  0  0
  186.2030  177.0950  135.5650 C   0  0  0  0  0  0  0  0  0  0  0  0
  186.6490  178.1970  137.6060 F   0  0  0  0  0  0  0  0  0  0  0  0
  186.7890  175.9430  137.5370 F   0  0  0  0  0  0  0  0  0  0  0  0
  187.0300  177.1110  136.8320 C   0  0  0  0  0  0  0  0  0  0  0  0
  188.5290  177.2130  136.5450 C   0  0  0  0  0  2  0  0  0  0  0  0
  188.8110  178.3800  135.8270 O   0  0  0  0  0  1  0  0  0  0  0  0
  1 10  1  0  0  0  0
  2  8  1  6  0  0  0
  2 16  1  0  0  0  0
  2 11  1  0  0  0  0
  3 18  1  0  0  0  0
  3  1  1  0  0  0  0
  4  5  1  0  0  0  0
  5 24  1  6  0  0  0
  5  8  1  0  0  0  0
  6 19  1  0  0  0  0
  7 12  1  0  0  0  0
  7 13  1  0  0  0  0
 11  3  2  0  0  0  0
 12 18  2  0  0  0  0
 14  6  1  0  0  0  0
 15 10  1  0  0  0  0
 16 12  1  0  0  0  0
 17 22  1  0  0  0  0
 17  4  1  0  0  0  0
 18  9  1  0  0  0  0
 19  7  2  0  0  0  0
 20 14  2  0  0  0  0
 21 11  1  0  0  0  0
 21 23  1  0  0  0  0
 22 43  1  6  0  0  0
 22 14  1  0  0  0  0
 23 15  1  0  0  0  0
 24 25  1  0  0  0  0
 25 26  1  6  0  0  0
 27 25  1  0  0  0  0
 28 27  1  0  0  0  0
 30 29  1  1  0  0  0
 30 28  1  0  0  0  0
 32 31  1  6  0  0  0
 32 30  1  0  0  0  0
 33 34  1  0  0  0  0
 33 32  1  0  0  0  0
 35 34  1  1  0  0  0
 35 36  1  0  0  0  0
 36 39  1  1  0  0  0
 37 38  1  6  0  0  0
 37 36  1  0  0  0  0
 40 42  1  0  0  0  0
 40 35  1  0  0  0  0
 41 35  1  0  0  0  0
 41 36  1  0  0  0  0
 42 37  1  0  0  0  0
 43 46  1  1  0  0  0
 44 45  1  0  0  0  0
 45 43  1  0  0  0  0
 47 46  1  0  0  0  0
 48 50  2  0  0  0  0
 48 49  1  0  0  0  0
 50 47  1  0  0  0  0
 51 52  1  1  0  0  0
 51 56  1  0  0  0  0
 51 48  1  0  0  0  0
 53 52  2  0  0  0  0
 54 52  1  0  0  0  0
 55 56  2  0  0  0  0
 56 59  1  0  0  0  0
 59 58  1  0  0  0  0
 59 57  1  0  0  0  0
 60 59  1  0  0  0  0
 61 60  1  0  0  0  0
M  END
>  <MODEL>
9

>  <REMARK>
 VINA RESULT:      -5.1      1.470      1.996
  Name = 
  19 active torsions:
  status: ('A' for Active; 'I' for Inactive)
    1  A    between atoms: C_1  and  C_59
    2  A    between atoms: C_5  and  O_6
    3  A    between atoms: O_6  and  C_53
    4  A    between atoms: C_13  and  O_43
    5  A    between atoms: C_22  and  C_27
    6  A    between atoms: C_22  and  C_61
    7  A    between atoms: C_28  and  O_52
    8  A    between atoms: C_28  and  C_54
    9  A    between atoms: C_30  and  C_59
   10  A    between atoms: O_31  and  C_57
   11  A    between atoms: C_40  and  C_41
   12  A    between atoms: C_40  and  C_57
   13  A    between atoms: C_41  and  C_56
   14  A    between atoms: O_43  and  C_48
   15  A    between atoms: C_44  and  C_53
   16  A    between atoms: C_44  and  C_54
   17  A    between atoms: C_48  and  O_52
   18  A    between atoms: C_51  and  C_57
   19  A    between atoms: C_59  and  C_61
                            x       y       z     vdW  Elec       q    Type
                         _______ _______ _______ _____ _____    ______ ____

>  <TORSDO>
F 19

$$$$
