=
 OpenBabel10222420503D

 68 74  0  0  1  0  0  0  0  0999 V2000
  186.7170  179.0580  142.1950 C   0  0  0  0  0  2  0  0  0  0  0  0
  188.1740  177.3870  146.5280 C   0  0  0  0  0  3  0  0  0  0  0  0
  186.4510  177.6310  144.1270 C   0  0  0  0  0  0  0  0  0  0  0  0
  189.0720  178.2340  145.6920 C   0  0  0  0  0  3  0  0  0  0  0  0
  185.9670  177.2600  145.2640 C   0  0  0  0  0  3  0  0  0  0  0  0
  187.1710  177.9490  143.1030 C   0  0  0  0  0  0  0  0  0  0  0  0
  186.8940  176.9830  146.3760 C   0  0  0  0  0  3  0  0  0  0  0  0
  188.6110  177.5450  143.2630 C   0  0  2  0  0  3  0  0  0  0  0  0
  189.2670  178.3310  144.3660 C   0  0  0  0  0  3  0  0  0  0  0  0
  189.5660  175.7240  138.8320 N   0  0  0  0  0  2  0  0  0  0  0  0
  189.1490  176.6950  140.9310 N   0  0  0  0  0  2  0  0  0  0  0  0
  190.0110  176.4330  139.8180 C   0  0  0  0  0  0  0  0  0  0  0  0
  190.2950  178.5230  141.8390 O   0  0  0  0  0  0  0  0  0  0  0  0
  189.4300  177.6160  141.9950 C   0  0  0  0  0  0  0  0  0  0  0  0
  191.4560  176.8350  139.8380 C   0  0  0  0  0  2  0  0  0  0  0  0
  192.7950  176.7260  137.8150 C   0  0  0  0  0  0  0  0  0  0  0  0
  191.8910  177.3510  138.5070 C   0  0  0  0  0  3  0  0  0  0  0  0
  193.6950  176.0890  137.1160 C   0  0  0  0  0  3  0  0  0  0  0  0
  193.5580  174.6280  136.8380 C   0  0  0  0  0  2  0  0  0  0  0  0
  194.3610  174.2270  135.5920 C   0  0  1  0  0  3  0  0  0  0  0  0
  196.7970  174.7830  135.9470 C   0  0  0  0  0  2  0  0  0  0  0  0
  198.1880  172.1190  137.5040 C   0  0  0  0  0  2  0  0  0  0  0  0
  198.2120  174.3610  136.3650 C   0  0  0  0  0  2  0  0  0  0  0  0
  196.7630  171.6310  137.2020 C   0  0  0  0  0  2  0  0  0  0  0  0
  195.7260  172.7650  137.1600 C   0  0  2  0  0  3  0  0  0  0  0  0
  195.7690  173.6360  135.8610 C   0  0  1  0  0  0  0  0  0  0  0  0
  197.2430  174.1250  138.7320 C   0  0  0  0  0  2  0  0  0  0  0  0
  196.1260  172.7610  134.6560 C   0  0  0  0  0  1  0  0  0  0  0  0
  198.2840  173.6300  137.7110 C   0  0  1  0  0  3  0  0  0  0  0  0
  195.8220  173.5930  138.4580 C   0  0  0  0  0  2  0  0  0  0  0  0
  193.5890  173.5260  134.6390 O   0  0  0  0  0  0  0  0  0  0  0  0
  192.2810  173.7210  134.9540 N   0  0  0  0  0  2  0  0  0  0  0  0
  191.7440  172.4350  135.3680 C   0  0  0  0  0  2  0  0  0  0  0  0
  190.4720  172.1360  134.5940 C   0  0  0  0  0  1  0  0  0  0  0  0
  182.5030  178.7740  141.3230 C   0  0  0  0  0  0  0  0  0  0  0  0
  183.4460  178.7510  140.2820 C   0  0  0  0  0  3  0  0  0  0  0  0
  184.3240  178.9600  142.9220 C   0  0  0  0  0  3  0  0  0  0  0  0
  185.2560  178.9680  141.8790 C   0  0  0  0  0  0  0  0  0  0  0  0
  185.7200  178.8350  139.4980 O   0  0  0  0  0  1  0  0  0  0  0  0
  184.8120  178.8560  140.5520 C   0  0  0  0  0  0  0  0  0  0  0  0
  182.9600  178.8460  142.6480 C   0  0  0  0  0  3  0  0  0  0  0  0
  180.7340  177.6760  139.9010 N   0  0  0  0  0  0  0  0  0  0  0  0
  179.2070  177.2080  141.6330 O   0  0  0  0  0  0  0  0  0  0  0  0
  179.3940  177.2120  140.2330 C   0  0  0  0  0  2  0  0  0  0  0  0
  180.2170  178.0200  142.1760 C   0  0  1  0  0  3  0  0  0  0  0  0
  181.0330  178.5520  141.0250 C   0  0  1  0  0  3  0  0  0  0  0  0
  181.5600  176.5370  139.9390 N   0  0  0  0  0  2  0  0  0  0  0  0
  181.9050  176.2300  138.5610 C   0  0  0  0  0  2  0  0  0  0  0  0
  181.0250  175.1010  138.0460 C   0  0  2  0  0  3  0  0  0  0  0  0
  180.7010  174.2470  139.1010 O   0  0  0  0  0  1  0  0  0  0  0  0
  181.6970  174.3050  136.9260 C   0  0  1  0  0  3  0  0  0  0  0  0
  184.3540  174.0640  136.1870 C   0  0  2  0  0  3  0  0  0  0  0  0
  183.9180  172.6880  135.6650 C   0  0  2  0  0  3  0  0  0  0  0  0
  182.5700  172.2280  136.2390 C   0  0  0  0  0  2  0  0  0  0  0  0
  182.9970  175.3010  136.0840 S   0  0  0  0  0  0  0  0  0  0  0  0
  182.1920  173.0140  137.4090 N   0  0  0  0  0  2  0  0  0  0  0  0
  184.8970  171.7350  135.9620 O   0  0  0  0  0  1  0  0  0  0  0  0
  186.8750  174.0500  136.2150 C   0  0  0  0  0  2  0  0  0  0  0  0
  190.2330  176.3180  136.1010 O   0  0  0  0  0  0  0  0  0  0  0  0
  186.9210  176.5170  134.6010 C   0  0  0  0  0  2  0  0  0  0  0  0
  188.1360  174.5050  135.4890 C   0  0  0  0  0  2  0  0  0  0  0  0
  188.0810  175.9450  135.2700 N   0  0  0  0  0  0  0  0  0  0  0  0
  185.6250  174.5480  135.4790 C   0  0  0  0  0  3  0  0  0  0  0  0
  185.6490  176.0740  135.3170 C   0  0  0  0  0  2  0  0  0  0  0  0
  189.2090  176.7780  135.5330 C   0  0  0  0  0  3  0  0  0  0  0  0
  179.5960  179.1780  142.9500 C   0  0  0  0  0  2  0  0  0  0  0  0
  179.6790  177.4620  144.6680 N   0  0  0  0  0  1  0  0  0  0  0  0
  179.6120  178.8930  144.4400 C   0  0  0  0  0  2  0  0  0  0  0  0
  1  6  1  0  0  0  0
  3  5  2  0  0  0  0
  4  2  1  0  0  0  0
  5  7  1  0  0  0  0
  6  8  1  0  0  0  0
  6  3  2  0  0  0  0
  7  2  2  0  0  0  0
  8 14  1  6  0  0  0
  8  9  1  0  0  0  0
  9  4  2  0  0  0  0
 10 12  2  0  0  0  0
 11 14  1  0  0  0  0
 12 15  1  0  0  0  0
 12 11  1  0  0  0  0
 13 14  2  0  0  0  0
 16 17  2  0  0  0  0
 17 15  1  0  0  0  0
 18 16  2  0  0  0  0
 19 18  1  0  0  0  0
 20 26  1  0  0  0  0
 20 19  1  1  0  0  0
 21 23  1  0  0  0  0
 22 29  1  0  0  0  0
 24 22  1  0  0  0  0
 25 24  1  6  0  0  0
 25 30  1  0  0  0  0
 26 28  1  6  0  0  0
 26 21  1  0  0  0  0
 26 25  1  0  0  0  0
 29 23  1  6  0  0  0
 29 27  1  0  0  0  0
 30 27  1  0  0  0  0
 31 32  1  0  0  0  0
 31 20  1  0  0  0  0
 32 33  1  0  0  0  0
 34 33  1  0  0  0  0
 35 41  1  0  0  0  0
 36 40  1  0  0  0  0
 36 35  2  0  0  0  0
 38  1  1  0  0  0  0
 38 37  1  0  0  0  0
 39 40  1  0  0  0  0
 40 38  2  0  0  0  0
 41 37  2  0  0  0  0
 42 47  1  0  0  0  0
 42 44  1  0  0  0  0
 42 46  1  0  0  0  0
 43 45  1  0  0  0  0
 44 43  1  0  0  0  0
 45 66  1  6  0  0  0
 46 35  1  1  0  0  0
 46 45  1  0  0  0  0
 48 47  1  0  0  0  0
 49 48  1  0  0  0  0
 49 50  1  1  0  0  0
 51 56  1  0  0  0  0
 51 49  1  1  0  0  0
 52 63  1  6  0  0  0
 53 57  1  1  0  0  0
 53 52  1  0  0  0  0
 53 54  1  0  0  0  0
 54 56  1  0  0  0  0
 55 52  1  0  0  0  0
 55 51  1  0  0  0  0
 60 62  1  0  0  0  0
 60 64  1  0  0  0  0
 61 58  1  0  0  0  0
 62 61  1  0  0  0  0
 62 65  1  0  0  0  0
 63 58  1  0  0  0  0
 64 63  1  0  0  0  0
 65 59  2  0  0  0  0
 66 68  1  0  0  0  0
 68 67  1  0  0  0  0
M  END
>  <MODEL>
1

>  <REMARK>
 VINA RESULT:      -6.5      0.000      0.000
  Name = 
  19 active torsions:
  status: ('A' for Active; 'I' for Inactive)
    1  A    between atoms: C_1  and  C_26
    2  A    between atoms: C_1  and  C_61
    3  A    between atoms: N_2  and  N_19
    4  A    between atoms: C_7  and  C_45
    5  A    between atoms: C_11  and  C_52
    6  A    between atoms: N_12  and  C_32
    7  A    between atoms: N_12  and  O_59
    8  A    between atoms: C_13  and  C_41
    9  A    between atoms: C_13  and  C_62
   10  A    between atoms: C_17  and  C_53
   11  A    between atoms: N_19  and  C_38
   12  A    between atoms: C_20  and  C_26
   13  A    between atoms: C_22  and  C_30
   14  A    between atoms: C_22  and  C_56
   15  A    between atoms: C_24  and  C_44
   16  A    between atoms: C_24  and  C_49
   17  A    between atoms: C_26  and  O_59
   18  A    between atoms: C_38  and  C_45
   19  A    between atoms: C_63  and  C_64
                            x       y       z     vdW  Elec       q    Type
                         _______ _______ _______ _____ _____    ______ ____

>  <TORSDO>
F 19

$$$$
=
 OpenBabel10222420503D

 68 74  0  0  1  0  0  0  0  0999 V2000
  187.7600  176.8470  143.3630 C   0  0  0  0  0  2  0  0  0  0  0  0
  189.6610  177.5500  147.7880 C   0  0  0  0  0  3  0  0  0  0  0  0
  189.4200  177.7940  144.8430 C   0  0  0  0  0  0  0  0  0  0  0  0
  188.3090  176.9420  147.6220 C   0  0  0  0  0  3  0  0  0  0  0  0
  190.5650  177.8830  145.4310 C   0  0  0  0  0  3  0  0  0  0  0  0
  188.1750  177.7390  144.5000 C   0  0  0  0  0  0  0  0  0  0  0  0
  190.6060  177.9340  146.9030 C   0  0  0  0  0  3  0  0  0  0  0  0
  187.2510  178.1440  145.6160 C   0  0  2  0  0  3  0  0  0  0  0  0
  187.3120  177.1530  146.7470 C   0  0  0  0  0  3  0  0  0  0  0  0
  183.9930  178.4620  141.9910 N   0  0  0  0  0  2  0  0  0  0  0  0
  185.4800  178.2870  143.8030 N   0  0  0  0  0  2  0  0  0  0  0  0
  184.2690  178.7770  143.2150 C   0  0  0  0  0  0  0  0  0  0  0  0
  184.9240  178.5980  146.0550 O   0  0  0  0  0  0  0  0  0  0  0  0
  185.8220  178.3880  145.1930 C   0  0  0  0  0  0  0  0  0  0  0  0
  183.3950  179.7620  143.9330 C   0  0  0  0  0  2  0  0  0  0  0  0
  181.1760  179.0720  143.2270 C   0  0  0  0  0  0  0  0  0  0  0  0
  182.0400  179.1930  144.1900 C   0  0  0  0  0  3  0  0  0  0  0  0
  180.3150  178.9390  142.2560 C   0  0  0  0  0  3  0  0  0  0  0  0
  180.6900  178.2480  140.9870 C   0  0  0  0  0  2  0  0  0  0  0  0
  179.4820  178.1290  140.0450 C   0  0  1  0  0  3  0  0  0  0  0  0
  178.9310  180.1800  138.6800 C   0  0  0  0  0  2  0  0  0  0  0  0
  181.1490  180.2770  136.1260 C   0  0  0  0  0  2  0  0  0  0  0  0
  179.1350  181.0390  137.4260 C   0  0  0  0  0  2  0  0  0  0  0  0
  181.4670  178.9350  136.8030 C   0  0  0  0  0  2  0  0  0  0  0  0
  181.1600  178.9230  138.3090 C   0  0  2  0  0  3  0  0  0  0  0  0
  179.6400  178.8100  138.6610 C   0  0  1  0  0  0  0  0  0  0  0  0
  181.4990  181.4740  138.3330 C   0  0  0  0  0  2  0  0  0  0  0  0
  178.9310  177.9180  137.6380 C   0  0  0  0  0  1  0  0  0  0  0  0
  180.6020  181.3300  137.0900 C   0  0  1  0  0  3  0  0  0  0  0  0
  181.8590  180.1220  138.9810 C   0  0  0  0  0  2  0  0  0  0  0  0
  178.9310  176.8300  140.0140 O   0  0  0  0  0  0  0  0  0  0  0  0
  179.6270  176.0730  140.9030 N   0  0  0  0  0  2  0  0  0  0  0  0
  179.4260  174.6820  140.5280 C   0  0  0  0  0  2  0  0  0  0  0  0
  180.2540  174.3570  139.2970 C   0  0  0  0  0  1  0  0  0  0  0  0
  190.9300  176.3530  140.4810 C   0  0  0  0  0  0  0  0  0  0  0  0
  189.8770  177.2480  140.2300 C   0  0  0  0  0  3  0  0  0  0  0  0
  189.9130  175.8080  142.6200 C   0  0  0  0  0  3  0  0  0  0  0  0
  188.8510  176.6780  142.3500 C   0  0  0  0  0  0  0  0  0  0  0  0
  187.8070  178.2970  140.8700 O   0  0  0  0  0  1  0  0  0  0  0  0
  188.8380  177.4070  141.1510 C   0  0  0  0  0  0  0  0  0  0  0  0
  190.9530  175.6600  141.7010 C   0  0  0  0  0  3  0  0  0  0  0  0
  191.7720  176.1680  138.1120 N   0  0  0  0  0  0  0  0  0  0  0  0
  193.6180  177.6150  138.3370 O   0  0  0  0  0  0  0  0  0  0  0  0
  192.9780  176.6890  137.4830 C   0  0  0  0  0  2  0  0  0  0  0  0
  193.0940  177.4040  139.6240 C   0  0  1  0  0  3  0  0  0  0  0  0
  192.1040  176.2710  139.5250 C   0  0  1  0  0  3  0  0  0  0  0  0
  190.7440  177.0730  137.7870 N   0  0  0  0  0  2  0  0  0  0  0  0
  190.1390  176.5890  136.5570 C   0  0  0  0  0  2  0  0  0  0  0  0
  189.0160  175.6150  136.8820 C   0  0  2  0  0  3  0  0  0  0  0  0
  189.1770  174.4530  136.1270 O   0  0  0  0  0  1  0  0  0  0  0  0
  187.6340  176.2140  136.6190 C   0  0  1  0  0  3  0  0  0  0  0  0
  185.1110  175.0720  136.6070 C   0  0  2  0  0  3  0  0  0  0  0  0
  184.6460  176.4830  136.9960 C   0  0  2  0  0  3  0  0  0  0  0  0
  185.7870  177.3680  137.5170 C   0  0  0  0  0  2  0  0  0  0  0  0
  186.6160  175.1110  135.5520 S   0  0  0  0  0  0  0  0  0  0  0  0
  186.9600  176.5750  137.8690 N   0  0  0  0  0  2  0  0  0  0  0  0
  183.6430  176.4010  137.9660 O   0  0  0  0  0  1  0  0  0  0  0  0
  182.8340  175.2070  135.5360 C   0  0  0  0  0  2  0  0  0  0  0  0
  179.0430  173.7710  135.5460 O   0  0  0  0  0  0  0  0  0  0  0  0
  182.3440  172.3740  136.1860 C   0  0  0  0  0  2  0  0  0  0  0  0
  181.7210  174.4140  134.8590 C   0  0  0  0  0  2  0  0  0  0  0  0
  181.3250  173.3010  135.7130 N   0  0  0  0  0  0  0  0  0  0  0  0
  183.9760  174.2740  135.9560 C   0  0  0  0  0  3  0  0  0  0  0  0
  183.4650  173.1510  136.8700 C   0  0  0  0  0  2  0  0  0  0  0  0
  179.9510  172.9990  135.9470 C   0  0  0  0  0  3  0  0  0  0  0  0
  194.2150  177.0310  140.5880 C   0  0  0  0  0  2  0  0  0  0  0  0
  196.1770  175.7630  139.9220 N   0  0  0  0  0  1  0  0  0  0  0  0
  194.7690  175.6580  140.2580 C   0  0  0  0  0  2  0  0  0  0  0  0
  1  6  1  0  0  0  0
  3  5  2  0  0  0  0
  4  2  1  0  0  0  0
  5  7  1  0  0  0  0
  6  3  2  0  0  0  0
  6  8  1  0  0  0  0
  7  2  2  0  0  0  0
  8 14  1  6  0  0  0
  8  9  1  0  0  0  0
  9  4  2  0  0  0  0
 10 12  2  0  0  0  0
 11 14  1  0  0  0  0
 12 11  1  0  0  0  0
 12 15  1  0  0  0  0
 14 13  2  0  0  0  0
 15 17  1  0  0  0  0
 16 17  2  0  0  0  0
 18 16  2  0  0  0  0
 19 18  1  0  0  0  0
 20 19  1  6  0  0  0
 22 24  1  0  0  0  0
 23 21  1  0  0  0  0
 25 24  1  6  0  0  0
 25 26  1  0  0  0  0
 25 30  1  0  0  0  0
 26 28  1  6  0  0  0
 26 21  1  0  0  0  0
 26 20  1  0  0  0  0
 27 30  1  0  0  0  0
 29 22  1  6  0  0  0
 29 23  1  0  0  0  0
 29 27  1  0  0  0  0
 31 20  1  0  0  0  0
 31 32  1  0  0  0  0
 33 32  1  0  0  0  0
 34 33  1  0  0  0  0
 35 41  1  0  0  0  0
 36 35  2  0  0  0  0
 36 40  1  0  0  0  0
 38 37  1  0  0  0  0
 38  1  1  0  0  0  0
 39 40  1  0  0  0  0
 40 38  2  0  0  0  0
 41 37  2  0  0  0  0
 42 46  1  0  0  0  0
 43 45  1  0  0  0  0
 44 42  1  0  0  0  0
 44 43  1  0  0  0  0
 45 66  1  1  0  0  0
 46 45  1  0  0  0  0
 46 35  1  1  0  0  0
 47 42  1  0  0  0  0
 48 49  1  0  0  0  0
 48 47  1  0  0  0  0
 49 50  1  6  0  0  0
 51 49  1  1  0  0  0
 51 56  1  0  0  0  0
 52 63  1  6  0  0  0
 52 53  1  0  0  0  0
 53 54  1  0  0  0  0
 53 57  1  1  0  0  0
 54 56  1  0  0  0  0
 55 52  1  0  0  0  0
 55 51  1  0  0  0  0
 58 63  1  0  0  0  0
 59 65  2  0  0  0  0
 60 64  1  0  0  0  0
 61 58  1  0  0  0  0
 61 62  1  0  0  0  0
 62 65  1  0  0  0  0
 62 60  1  0  0  0  0
 63 64  1  0  0  0  0
 67 68  1  0  0  0  0
 68 66  1  0  0  0  0
M  END
>  <MODEL>
2

>  <REMARK>
 VINA RESULT:      -6.4      2.797     10.910
  Name = 
  19 active torsions:
  status: ('A' for Active; 'I' for Inactive)
    1  A    between atoms: C_1  and  C_26
    2  A    between atoms: C_1  and  C_61
    3  A    between atoms: N_2  and  N_19
    4  A    between atoms: C_7  and  C_45
    5  A    between atoms: C_11  and  C_52
    6  A    between atoms: N_12  and  C_32
    7  A    between atoms: N_12  and  O_59
    8  A    between atoms: C_13  and  C_41
    9  A    between atoms: C_13  and  C_62
   10  A    between atoms: C_17  and  C_53
   11  A    between atoms: N_19  and  C_38
   12  A    between atoms: C_20  and  C_26
   13  A    between atoms: C_22  and  C_30
   14  A    between atoms: C_22  and  C_56
   15  A    between atoms: C_24  and  C_44
   16  A    between atoms: C_24  and  C_49
   17  A    between atoms: C_26  and  O_59
   18  A    between atoms: C_38  and  C_45
   19  A    between atoms: C_63  and  C_64
                            x       y       z     vdW  Elec       q    Type
                         _______ _______ _______ _____ _____    ______ ____

>  <TORSDO>
F 19

$$$$
=
 OpenBabel10222420503D

 68 74  0  0  1  0  0  0  0  0999 V2000
  189.4850  179.2050  142.0460 C   0  0  0  0  0  2  0  0  0  0  0  0
  190.7850  175.4810  144.8980 C   0  0  0  0  0  3  0  0  0  0  0  0
  190.8260  178.2390  143.8100 C   0  0  0  0  0  0  0  0  0  0  0  0
  189.5590  175.4070  144.0530 C   0  0  0  0  0  3  0  0  0  0  0  0
  191.8780  177.7120  144.3400 C   0  0  0  0  0  3  0  0  0  0  0  0
  189.6460  178.5630  143.3970 C   0  0  0  0  0  0  0  0  0  0  0  0
  191.7550  176.4130  145.0240 C   0  0  0  0  0  3  0  0  0  0  0  0
  188.5600  177.7720  144.0730 C   0  0  2  0  0  3  0  0  0  0  0  0
  188.6410  176.3190  143.6900 C   0  0  0  0  0  3  0  0  0  0  0  0
  184.2050  178.8890  145.9820 N   0  0  0  0  0  2  0  0  0  0  0  0
  186.2810  178.4220  144.9830 N   0  0  0  0  0  2  0  0  0  0  0  0
  184.8640  178.6140  144.9030 C   0  0  0  0  0  0  0  0  0  0  0  0
  186.8020  178.7200  142.7220 O   0  0  0  0  0  0  0  0  0  0  0  0
  187.1640  178.3060  143.8580 C   0  0  0  0  0  0  0  0  0  0  0  0
  184.1120  178.3560  143.6310 C   0  0  0  0  0  2  0  0  0  0  0  0
  181.9220  178.8780  142.7200 C   0  0  0  0  0  0  0  0  0  0  0  0
  182.6740  178.7320  143.7690 C   0  0  0  0  0  3  0  0  0  0  0  0
  181.1650  179.0110  141.6650 C   0  0  0  0  0  3  0  0  0  0  0  0
  181.0920  177.9360  140.6320 C   0  0  0  0  0  2  0  0  0  0  0  0
  179.7530  177.9820  139.8810 C   0  0  1  0  0  3  0  0  0  0  0  0
  179.0190  180.1650  138.8470 C   0  0  0  0  0  2  0  0  0  0  0  0
  180.9270  180.6270  136.0900 C   0  0  0  0  0  2  0  0  0  0  0  0
  179.0660  181.1730  137.6910 C   0  0  0  0  0  2  0  0  0  0  0  0
  181.3390  179.2230  136.5580 C   0  0  0  0  0  2  0  0  0  0  0  0
  181.2080  179.0230  138.0770 C   0  0  2  0  0  3  0  0  0  0  0  0
  179.7410  178.8270  138.5810 C   0  0  1  0  0  0  0  0  0  0  0  0
  181.5120  181.5610  138.3730 C   0  0  0  0  0  2  0  0  0  0  0  0
  178.9310  178.0440  137.5440 C   0  0  0  0  0  1  0  0  0  0  0  0
  180.4800  181.5420  137.2300 C   0  0  1  0  0  3  0  0  0  0  0  0
  181.9640  180.1530  138.8060 C   0  0  0  0  0  2  0  0  0  0  0  0
  179.1310  176.7190  139.7800 O   0  0  0  0  0  0  0  0  0  0  0  0
  179.9710  175.8080  140.3400 N   0  0  0  0  0  2  0  0  0  0  0  0
  180.2040  174.7730  139.3450 C   0  0  0  0  0  2  0  0  0  0  0  0
  178.9310  173.9760  139.1230 C   0  0  0  0  0  1  0  0  0  0  0  0
  190.5460  176.5270  138.8370 C   0  0  0  0  0  0  0  0  0  0  0  0
  189.2990  177.1730  138.8380 C   0  0  0  0  0  3  0  0  0  0  0  0
  191.0940  177.6540  140.9200 C   0  0  0  0  0  3  0  0  0  0  0  0
  189.8380  178.2700  140.9310 C   0  0  0  0  0  0  0  0  0  0  0  0
  187.6950  178.6530  139.8530 O   0  0  0  0  0  1  0  0  0  0  0  0
  188.9400  178.0320  139.8790 C   0  0  0  0  0  0  0  0  0  0  0  0
  191.4530  176.8030  139.8730 C   0  0  0  0  0  3  0  0  0  0  0  0
  189.8970  175.2460  136.7640 N   0  0  0  0  0  0  0  0  0  0  0  0
  191.7490  175.8560  135.4440 O   0  0  0  0  0  0  0  0  0  0  0  0
  190.6140  175.0190  135.5180 C   0  0  0  0  0  2  0  0  0  0  0  0
  192.0010  176.3090  136.7500 C   0  0  1  0  0  3  0  0  0  0  0  0
  190.9670  175.6830  137.6500 C   0  0  1  0  0  3  0  0  0  0  0  0
  189.0100  176.3110  136.5120 N   0  0  0  0  0  2  0  0  0  0  0  0
  188.6630  176.2360  135.1020 C   0  0  0  0  0  2  0  0  0  0  0  0
  187.1540  176.1370  134.9460 C   0  0  2  0  0  3  0  0  0  0  0  0
  186.5590  177.3000  135.4360 O   0  0  0  0  0  1  0  0  0  0  0  0
  186.5740  174.9180  135.6660 C   0  0  1  0  0  3  0  0  0  0  0  0
  184.6130  173.1100  134.9240 C   0  0  2  0  0  3  0  0  0  0  0  0
  185.3840  172.1440  135.8360 C   0  0  2  0  0  3  0  0  0  0  0  0
  186.8070  172.6250  136.1510 C   0  0  0  0  0  2  0  0  0  0  0  0
  184.7410  174.8510  135.5010 S   0  0  0  0  0  0  0  0  0  0  0  0
  187.2300  173.6810  135.2360 N   0  0  0  0  0  2  0  0  0  0  0  0
  185.4420  170.8790  135.2440 O   0  0  0  0  0  1  0  0  0  0  0  0
  182.2680  173.3190  135.8230 C   0  0  0  0  0  2  0  0  0  0  0  0
  178.9920  171.3130  137.1200 O   0  0  0  0  0  0  0  0  0  0  0  0
  181.5500  170.7370  134.5940 C   0  0  0  0  0  2  0  0  0  0  0  0
  180.8130  172.9030  135.6320 C   0  0  0  0  0  2  0  0  0  0  0  0
  180.7260  171.4500  135.5600 N   0  0  0  0  0  0  0  0  0  0  0  0
  183.1550  172.6680  134.7550 C   0  0  0  0  0  3  0  0  0  0  0  0
  183.0110  171.1390  134.7730 C   0  0  0  0  0  2  0  0  0  0  0  0
  179.7300  170.7300  136.2840 C   0  0  0  0  0  3  0  0  0  0  0  0
  193.3980  175.8820  137.1900 C   0  0  0  0  0  2  0  0  0  0  0  0
  195.5670  175.2780  136.2760 N   0  0  0  0  0  1  0  0  0  0  0  0
  194.1360  175.2100  136.0470 C   0  0  0  0  0  2  0  0  0  0  0  0
  1  6  1  0  0  0  0
  2  7  2  0  0  0  0
  3  5  2  0  0  0  0
  4  2  1  0  0  0  0
  5  7  1  0  0  0  0
  6  3  2  0  0  0  0
  6  8  1  0  0  0  0
  8 14  1  6  0  0  0
  9  4  2  0  0  0  0
  9  8  1  0  0  0  0
 12 11  1  0  0  0  0
 12 10  2  0  0  0  0
 13 14  2  0  0  0  0
 14 11  1  0  0  0  0
 15 17  1  0  0  0  0
 15 12  1  0  0  0  0
 16 17  2  0  0  0  0
 18 16  2  0  0  0  0
 19 18  1  0  0  0  0
 20 19  1  6  0  0  0
 22 24  1  0  0  0  0
 23 21  1  0  0  0  0
 25 24  1  6  0  0  0
 25 26  1  0  0  0  0
 25 30  1  0  0  0  0
 26 28  1  6  0  0  0
 26 21  1  0  0  0  0
 26 20  1  0  0  0  0
 27 30  1  0  0  0  0
 29 22  1  6  0  0  0
 29 23  1  0  0  0  0
 29 27  1  0  0  0  0
 31 20  1  0  0  0  0
 31 32  1  0  0  0  0
 33 32  1  0  0  0  0
 34 33  1  0  0  0  0
 35 36  2  0  0  0  0
 35 41  1  0  0  0  0
 36 40  1  0  0  0  0
 37 38  1  0  0  0  0
 38  1  1  0  0  0  0
 39 40  1  0  0  0  0
 40 38  2  0  0  0  0
 41 37  2  0  0  0  0
 42 46  1  0  0  0  0
 43 44  1  0  0  0  0
 43 45  1  0  0  0  0
 44 42  1  0  0  0  0
 45 66  1  1  0  0  0
 45 46  1  0  0  0  0
 46 35  1  1  0  0  0
 47 42  1  0  0  0  0
 48 47  1  0  0  0  0
 49 48  1  0  0  0  0
 49 50  1  1  0  0  0
 51 49  1  6  0  0  0
 52 63  1  1  0  0  0
 52 55  1  0  0  0  0
 52 53  1  0  0  0  0
 53 57  1  6  0  0  0
 53 54  1  0  0  0  0
 55 51  1  0  0  0  0
 56 51  1  0  0  0  0
 56 54  1  0  0  0  0
 60 64  1  0  0  0  0
 60 62  1  0  0  0  0
 61 58  1  0  0  0  0
 62 61  1  0  0  0  0
 62 65  1  0  0  0  0
 63 64  1  0  0  0  0
 63 58  1  0  0  0  0
 65 59  2  0  0  0  0
 68 67  1  0  0  0  0
 68 66  1  0  0  0  0
M  END
>  <MODEL>
3

>  <REMARK>
 VINA RESULT:      -5.3      2.450     10.833
  Name = 
  19 active torsions:
  status: ('A' for Active; 'I' for Inactive)
    1  A    between atoms: C_1  and  C_26
    2  A    between atoms: C_1  and  C_61
    3  A    between atoms: N_2  and  N_19
    4  A    between atoms: C_7  and  C_45
    5  A    between atoms: C_11  and  C_52
    6  A    between atoms: N_12  and  C_32
    7  A    between atoms: N_12  and  O_59
    8  A    between atoms: C_13  and  C_41
    9  A    between atoms: C_13  and  C_62
   10  A    between atoms: C_17  and  C_53
   11  A    between atoms: N_19  and  C_38
   12  A    between atoms: C_20  and  C_26
   13  A    between atoms: C_22  and  C_30
   14  A    between atoms: C_22  and  C_56
   15  A    between atoms: C_24  and  C_44
   16  A    between atoms: C_24  and  C_49
   17  A    between atoms: C_26  and  O_59
   18  A    between atoms: C_38  and  C_45
   19  A    between atoms: C_63  and  C_64
                            x       y       z     vdW  Elec       q    Type
                         _______ _______ _______ _____ _____    ______ ____

>  <TORSDO>
F 19

$$$$
=
 OpenBabel10222420503D

 68 74  0  0  1  0  0  0  0  0999 V2000
  187.7190  178.6060  139.3430 C   0  0  0  0  0  2  0  0  0  0  0  0
  189.9860  175.7650  136.1080 C   0  0  0  0  0  3  0  0  0  0  0  0
  189.1100  176.7130  138.7760 C   0  0  0  0  0  0  0  0  0  0  0  0
  188.9870  176.7800  135.6680 C   0  0  0  0  0  3  0  0  0  0  0  0
  190.2130  176.0600  138.6260 C   0  0  0  0  0  3  0  0  0  0  0  0
  187.9510  177.2770  138.6810 C   0  0  0  0  0  0  0  0  0  0  0  0
  190.5110  175.4590  137.3140 C   0  0  0  0  0  3  0  0  0  0  0  0
  187.1740  176.7990  137.4850 C   0  0  2  0  0  3  0  0  0  0  0  0
  187.8410  177.2310  136.2070 C   0  0  0  0  0  3  0  0  0  0  0  0
  182.7220  176.2130  139.4090 N   0  0  0  0  0  2  0  0  0  0  0  0
  184.8340  176.5930  138.4500 N   0  0  0  0  0  2  0  0  0  0  0  0
  183.4040  176.6200  138.3880 C   0  0  0  0  0  0  0  0  0  0  0  0
  185.2880  178.0830  136.7040 O   0  0  0  0  0  0  0  0  0  0  0  0
  185.7140  177.1890  137.4860 C   0  0  0  0  0  0  0  0  0  0  0  0
  182.6840  176.9690  137.1190 C   0  0  0  0  0  2  0  0  0  0  0  0
  181.0430  175.5410  136.0390 C   0  0  0  0  0  0  0  0  0  0  0  0
  181.3550  176.2930  137.0500 C   0  0  0  0  0  3  0  0  0  0  0  0
  180.7370  174.7740  135.0280 C   0  0  0  0  0  3  0  0  0  0  0  0
  181.6500  173.6760  134.5940 C   0  0  0  0  0  2  0  0  0  0  0  0
  181.7180  172.5640  135.6510 C   0  0  1  0  0  3  0  0  0  0  0  0
  183.9060  171.4440  135.0750 C   0  0  0  0  0  2  0  0  0  0  0  0
  186.2320  172.7100  137.1830 C   0  0  0  0  0  2  0  0  0  0  0  0
  185.3830  171.1670  135.3870 C   0  0  0  0  0  2  0  0  0  0  0  0
  184.9280  173.3320  137.7020 C   0  0  0  0  0  2  0  0  0  0  0  0
  183.8660  173.5280  136.6070 C   0  0  2  0  0  3  0  0  0  0  0  0
  183.1370  172.2150  136.1690 C   0  0  1  0  0  0  0  0  0  0  0  0
  185.7660  173.6550  134.8770 C   0  0  0  0  0  2  0  0  0  0  0  0
  182.9590  171.2870  137.3740 C   0  0  0  0  0  1  0  0  0  0  0  0
  186.2140  172.4210  135.6820 C   0  0  1  0  0  3  0  0  0  0  0  0
  184.4850  174.3090  135.4310 C   0  0  0  0  0  2  0  0  0  0  0  0
  180.7300  172.6910  136.6510 O   0  0  0  0  0  0  0  0  0  0  0  0
  179.6620  171.9440  136.2640 N   0  0  0  0  0  2  0  0  0  0  0  0
  180.1850  170.7230  135.6720 C   0  0  0  0  0  2  0  0  0  0  0  0
  179.1290  169.6330  135.7260 C   0  0  0  0  0  1  0  0  0  0  0  0
  184.4860  178.4260  142.1920 C   0  0  0  0  0  0  0  0  0  0  0  0
  184.2950  179.0360  140.9410 C   0  0  0  0  0  3  0  0  0  0  0  0
  186.7770  177.9220  141.5600 C   0  0  0  0  0  3  0  0  0  0  0  0
  186.5900  178.5580  140.3280 C   0  0  0  0  0  0  0  0  0  0  0  0
  185.1200  179.7270  138.7880 O   0  0  0  0  0  1  0  0  0  0  0  0
  185.3390  179.1110  140.0160 C   0  0  0  0  0  0  0  0  0  0  0  0
  185.7290  177.8410  142.4770 C   0  0  0  0  0  3  0  0  0  0  0  0
  183.6440  177.7830  144.4800 N   0  0  0  0  0  0  0  0  0  0  0  0
  181.9840  179.4430  144.6660 O   0  0  0  0  0  0  0  0  0  0  0  0
  182.5140  178.2740  145.2560 C   0  0  0  0  0  2  0  0  0  0  0  0
  182.4690  179.4840  143.3480 C   0  0  1  0  0  3  0  0  0  0  0  0
  183.3170  178.2550  143.1430 C   0  0  1  0  0  3  0  0  0  0  0  0
  184.7760  178.4610  144.9720 N   0  0  0  0  0  2  0  0  0  0  0  0
  184.4960  178.7790  146.3630 C   0  0  0  0  0  2  0  0  0  0  0  0
  185.7660  179.2600  147.0480 C   0  0  2  0  0  3  0  0  0  0  0  0
  186.3660  180.2520  146.2720 O   0  0  0  0  0  1  0  0  0  0  0  0
  186.7610  178.1220  147.2910 C   0  0  1  0  0  3  0  0  0  0  0  0
  189.1480  177.4760  146.0460 C   0  0  2  0  0  3  0  0  0  0  0  0
  189.5050  176.8590  147.4060 C   0  0  2  0  0  3  0  0  0  0  0  0
  188.6010  177.3520  148.5440 C   0  0  0  0  0  2  0  0  0  0  0  0
  187.3430  177.3910  145.7040 S   0  0  0  0  0  0  0  0  0  0  0  0
  187.8610  178.5500  148.1580 N   0  0  0  0  0  2  0  0  0  0  0  0
  190.8390  177.1390  147.7180 O   0  0  0  0  0  1  0  0  0  0  0  0
  191.1850  177.7270  144.5820 C   0  0  0  0  0  2  0  0  0  0  0  0
  192.5900  177.7350  140.7790 O   0  0  0  0  0  0  0  0  0  0  0  0
  189.9790  175.9380  142.5730 C   0  0  0  0  0  2  0  0  0  0  0  0
  192.0220  177.0830  143.4830 C   0  0  0  0  0  2  0  0  0  0  0  0
  191.1680  176.7490  142.3500 N   0  0  0  0  0  0  0  0  0  0  0  0
  189.9740  176.8480  144.9180 C   0  0  0  0  0  3  0  0  0  0  0  0
  189.1270  176.5720  143.6680 C   0  0  0  0  0  2  0  0  0  0  0  0
  191.5630  177.0460  141.0120 C   0  0  0  0  0  3  0  0  0  0  0  0
  181.3050  179.4820  142.3630 C   0  0  0  0  0  2  0  0  0  0  0  0
  179.5190  178.0710  143.2130 N   0  0  0  0  0  1  0  0  0  0  0  0
  179.9800  179.4420  143.1020 C   0  0  0  0  0  2  0  0  0  0  0  0
  1 38  1  0  0  0  0
  2  7  2  0  0  0  0
  4  2  1  0  0  0  0
  4  9  2  0  0  0  0
  5  3  2  0  0  0  0
  6  3  2  0  0  0  0
  6  1  1  0  0  0  0
  7  5  1  0  0  0  0
  8 14  1  1  0  0  0
  8  6  1  0  0  0  0
  9  8  1  0  0  0  0
 12 11  1  0  0  0  0
 12 10  2  0  0  0  0
 13 14  2  0  0  0  0
 14 11  1  0  0  0  0
 15 12  1  0  0  0  0
 16 17  2  0  0  0  0
 17 15  1  0  0  0  0
 18 16  2  0  0  0  0
 19 18  1  0  0  0  0
 20 19  1  1  0  0  0
 20 26  1  0  0  0  0
 20 31  1  0  0  0  0
 21 23  1  0  0  0  0
 21 26  1  0  0  0  0
 22 24  1  0  0  0  0
 23 29  1  0  0  0  0
 25 30  1  6  0  0  0
 25 24  1  0  0  0  0
 26 25  1  0  0  0  0
 26 28  1  1  0  0  0
 27 30  1  0  0  0  0
 29 27  1  6  0  0  0
 29 22  1  0  0  0  0
 32 31  1  0  0  0  0
 33 34  1  0  0  0  0
 33 32  1  0  0  0  0
 35 41  1  0  0  0  0
 36 35  2  0  0  0  0
 37 41  2  0  0  0  0
 38 37  1  0  0  0  0
 39 40  1  0  0  0  0
 40 38  2  0  0  0  0
 40 36  1  0  0  0  0
 42 47  1  0  0  0  0
 42 44  1  0  0  0  0
 43 44  1  0  0  0  0
 45 66  1  6  0  0  0
 45 43  1  0  0  0  0
 46 35  1  6  0  0  0
 46 45  1  0  0  0  0
 46 42  1  0  0  0  0
 47 48  1  0  0  0  0
 48 49  1  0  0  0  0
 49 50  1  6  0  0  0
 51 49  1  6  0  0  0
 51 56  1  0  0  0  0
 52 63  1  6  0  0  0
 52 53  1  0  0  0  0
 53 57  1  1  0  0  0
 53 54  1  0  0  0  0
 55 52  1  0  0  0  0
 55 51  1  0  0  0  0
 56 54  1  0  0  0  0
 58 63  1  0  0  0  0
 59 65  2  0  0  0  0
 60 64  1  0  0  0  0
 61 58  1  0  0  0  0
 62 60  1  0  0  0  0
 62 61  1  0  0  0  0
 64 63  1  0  0  0  0
 65 62  1  0  0  0  0
 66 68  1  0  0  0  0
 68 67  1  0  0  0  0
M  END
>  <MODEL>
4

>  <REMARK>
 VINA RESULT:      -4.7      3.902      9.399
  Name = 
  19 active torsions:
  status: ('A' for Active; 'I' for Inactive)
    1  A    between atoms: C_1  and  C_26
    2  A    between atoms: C_1  and  C_61
    3  A    between atoms: N_2  and  N_19
    4  A    between atoms: C_7  and  C_45
    5  A    between atoms: C_11  and  C_52
    6  A    between atoms: N_12  and  C_32
    7  A    between atoms: N_12  and  O_59
    8  A    between atoms: C_13  and  C_41
    9  A    between atoms: C_13  and  C_62
   10  A    between atoms: C_17  and  C_53
   11  A    between atoms: N_19  and  C_38
   12  A    between atoms: C_20  and  C_26
   13  A    between atoms: C_22  and  C_30
   14  A    between atoms: C_22  and  C_56
   15  A    between atoms: C_24  and  C_44
   16  A    between atoms: C_24  and  C_49
   17  A    between atoms: C_26  and  O_59
   18  A    between atoms: C_38  and  C_45
   19  A    between atoms: C_63  and  C_64
                            x       y       z     vdW  Elec       q    Type
                         _______ _______ _______ _____ _____    ______ ____

>  <TORSDO>
F 19

$$$$
=
 OpenBabel10222420503D

 68 74  0  0  1  0  0  0  0  0999 V2000
  186.5910  178.9820  143.7950 C   0  0  0  0  0  2  0  0  0  0  0  0
  189.0660  177.0800  147.5300 C   0  0  0  0  0  3  0  0  0  0  0  0
  186.7130  177.6820  145.8300 C   0  0  0  0  0  0  0  0  0  0  0  0
  189.7780  177.6850  146.3680 C   0  0  0  0  0  3  0  0  0  0  0  0
  186.5850  177.4500  147.0920 C   0  0  0  0  0  3  0  0  0  0  0  0
  187.0840  177.8110  144.5990 C   0  0  0  0  0  0  0  0  0  0  0  0
  187.7580  176.9810  147.8520 C   0  0  0  0  0  3  0  0  0  0  0  0
  188.3700  177.0870  144.3060 C   0  0  2  0  0  3  0  0  0  0  0  0
  189.5180  177.7150  145.0500 C   0  0  0  0  0  3  0  0  0  0  0  0
  188.7380  179.2040  139.9200 N   0  0  0  0  0  2  0  0  0  0  0  0
  188.6300  178.1090  141.9970 N   0  0  0  0  0  2  0  0  0  0  0  0
  188.6080  178.0900  140.5650 C   0  0  0  0  0  0  0  0  0  0  0  0
  189.0940  175.8460  142.3690 O   0  0  0  0  0  0  0  0  0  0  0  0
  188.6950  176.9480  142.8380 C   0  0  0  0  0  0  0  0  0  0  0  0
  188.2900  176.8360  139.8060 C   0  0  0  0  0  2  0  0  0  0  0  0
  187.9590  177.8380  137.6190 C   0  0  0  0  0  0  0  0  0  0  0  0
  187.4710  177.1330  138.5940 C   0  0  0  0  0  3  0  0  0  0  0  0
  188.4550  178.5350  136.6340 C   0  0  0  0  0  3  0  0  0  0  0  0
  189.7680  178.1730  136.0220 C   0  0  0  0  0  2  0  0  0  0  0  0
  189.6240  176.9710  135.0770 C   0  0  1  0  0  3  0  0  0  0  0  0
  191.9600  176.0410  134.8610 C   0  0  0  0  0  2  0  0  0  0  0  0
  192.2620  173.6090  137.1950 C   0  0  0  0  0  2  0  0  0  0  0  0
  193.0160  174.9930  135.2350 C   0  0  0  0  0  2  0  0  0  0  0  0
  190.7810  174.0050  137.3040 C   0  0  0  0  0  2  0  0  0  0  0  0
  190.5120  175.4700  136.9260 C   0  0  2  0  0  3  0  0  0  0  0  0
  190.5390  175.7580  135.3880 C   0  0  1  0  0  0  0  0  0  0  0  0
  192.9370  176.0210  137.5870 C   0  0  0  0  0  2  0  0  0  0  0  0
  189.9720  174.5610  134.6210 C   0  0  0  0  0  1  0  0  0  0  0  0
  193.1660  174.7550  136.7410 C   0  0  1  0  0  3  0  0  0  0  0  0
  191.4470  176.3870  137.7390 C   0  0  0  0  0  2  0  0  0  0  0  0
  188.2790  176.6500  134.7930 O   0  0  0  0  0  0  0  0  0  0  0  0
  188.0370  175.4190  135.3150 N   0  0  0  0  0  2  0  0  0  0  0  0
  186.5940  175.2860  135.4480 C   0  0  0  0  0  2  0  0  0  0  0  0
  186.2660  174.0750  136.3030 C   0  0  0  0  0  1  0  0  0  0  0  0
  182.4130  178.6520  142.7800 C   0  0  0  0  0  0  0  0  0  0  0  0
  182.8000  179.1220  144.0460 C   0  0  0  0  0  3  0  0  0  0  0  0
  184.7580  178.4240  142.1850 C   0  0  0  0  0  3  0  0  0  0  0  0
  185.1370  178.8630  143.4580 C   0  0  0  0  0  0  0  0  0  0  0  0
  184.5010  179.6850  145.6540 O   0  0  0  0  0  1  0  0  0  0  0  0
  184.1500  179.2210  144.3900 C   0  0  0  0  0  0  0  0  0  0  0  0
  183.4080  178.3360  141.8420 C   0  0  0  0  0  3  0  0  0  0  0  0
  180.6420  178.0810  141.0790 N   0  0  0  0  0  0  0  0  0  0  0  0
  178.9750  177.4030  142.5980 O   0  0  0  0  0  0  0  0  0  0  0  0
  179.2480  177.6950  141.2430 C   0  0  0  0  0  2  0  0  0  0  0  0
  180.0190  177.9670  143.3500 C   0  0  1  0  0  3  0  0  0  0  0  0
  180.9500  178.6520  142.3820 C   0  0  1  0  0  3  0  0  0  0  0  0
  181.3570  176.8820  140.8930 N   0  0  0  0  0  2  0  0  0  0  0  0
  180.3710  175.8130  140.8620 C   0  0  0  0  0  2  0  0  0  0  0  0
  180.1940  175.3140  139.4360 C   0  0  2  0  0  3  0  0  0  0  0  0
  180.3040  173.9240  139.4130 O   0  0  0  0  0  1  0  0  0  0  0  0
  181.2150  175.9280  138.4750 C   0  0  1  0  0  3  0  0  0  0  0  0
  182.0510  178.5430  138.1140 C   0  0  2  0  0  3  0  0  0  0  0  0
  183.3580  177.8900  137.6410 C   0  0  2  0  0  3  0  0  0  0  0  0
  183.4820  176.4200  138.0640 C   0  0  0  0  0  2  0  0  0  0  0  0
  180.5860  177.4960  137.7420 S   0  0  0  0  0  0  0  0  0  0  0  0
  182.5240  176.0840  139.1140 N   0  0  0  0  0  2  0  0  0  0  0  0
  184.4520  178.6080  138.1350 O   0  0  0  0  0  1  0  0  0  0  0  0
  181.6620  180.9700  138.6740 C   0  0  0  0  0  2  0  0  0  0  0  0
  179.4380  184.2680  137.8940 O   0  0  0  0  0  0  0  0  0  0  0  0
  180.6830  181.4600  135.9370 C   0  0  0  0  0  2  0  0  0  0  0  0
  181.5480  182.3810  138.1090 C   0  0  0  0  0  2  0  0  0  0  0  0
  180.5550  182.4010  137.0420 N   0  0  0  0  0  0  0  0  0  0  0  0
  181.9020  179.9590  137.5460 C   0  0  0  0  0  3  0  0  0  0  0  0
  180.7950  180.0410  136.4860 C   0  0  0  0  0  2  0  0  0  0  0  0
  179.5720  183.4310  136.9640 C   0  0  0  0  0  3  0  0  0  0  0  0
  179.4600  178.9840  144.3390 C   0  0  0  0  0  2  0  0  0  0  0  0
  180.0430  181.0700  143.2380 N   0  0  0  0  0  1  0  0  0  0  0  0
  178.9370  180.2080  143.6080 C   0  0  0  0  0  2  0  0  0  0  0  0
  1  6  1  0  0  0  0
  2  7  2  0  0  0  0
  3  5  2  0  0  0  0
  4  2  1  0  0  0  0
  5  7  1  0  0  0  0
  6  3  2  0  0  0  0
  8 14  1  6  0  0  0
  8  6  1  0  0  0  0
  8  9  1  0  0  0  0
  9  4  2  0  0  0  0
 10 12  2  0  0  0  0
 11 14  1  0  0  0  0
 12 11  1  0  0  0  0
 13 14  2  0  0  0  0
 15 12  1  0  0  0  0
 16 17  2  0  0  0  0
 17 15  1  0  0  0  0
 18 16  2  0  0  0  0
 19 18  1  0  0  0  0
 20 26  1  0  0  0  0
 20 19  1  1  0  0  0
 21 23  1  0  0  0  0
 21 26  1  0  0  0  0
 22 24  1  0  0  0  0
 25 24  1  6  0  0  0
 25 30  1  0  0  0  0
 26 28  1  6  0  0  0
 26 25  1  0  0  0  0
 27 30  1  0  0  0  0
 29 23  1  6  0  0  0
 29 22  1  0  0  0  0
 29 27  1  0  0  0  0
 31 20  1  0  0  0  0
 31 32  1  0  0  0  0
 32 33  1  0  0  0  0
 33 34  1  0  0  0  0
 35 36  1  0  0  0  0
 36 40  2  0  0  0  0
 37 38  2  0  0  0  0
 38  1  1  0  0  0  0
 38 40  1  0  0  0  0
 40 39  1  0  0  0  0
 41 37  1  0  0  0  0
 41 35  2  0  0  0  0
 42 44  1  0  0  0  0
 42 46  1  0  0  0  0
 43 45  1  0  0  0  0
 44 43  1  0  0  0  0
 45 66  1  1  0  0  0
 46 35  1  1  0  0  0
 46 45  1  0  0  0  0
 47 42  1  0  0  0  0
 48 47  1  0  0  0  0
 49 50  1  1  0  0  0
 49 48  1  0  0  0  0
 51 56  1  0  0  0  0
 51 49  1  1  0  0  0
 52 63  1  6  0  0  0
 53 54  1  0  0  0  0
 53 52  1  0  0  0  0
 53 57  1  1  0  0  0
 54 56  1  0  0  0  0
 55 52  1  0  0  0  0
 55 51  1  0  0  0  0
 60 64  1  0  0  0  0
 60 62  1  0  0  0  0
 61 58  1  0  0  0  0
 62 61  1  0  0  0  0
 63 58  1  0  0  0  0
 64 63  1  0  0  0  0
 65 62  1  0  0  0  0
 65 59  2  0  0  0  0
 67 68  1  0  0  0  0
 68 66  1  0  0  0  0
M  END
>  <MODEL>
5

>  <REMARK>
 VINA RESULT:      -4.6      2.608      4.984
  Name = 
  19 active torsions:
  status: ('A' for Active; 'I' for Inactive)
    1  A    between atoms: C_1  and  C_26
    2  A    between atoms: C_1  and  C_61
    3  A    between atoms: N_2  and  N_19
    4  A    between atoms: C_7  and  C_45
    5  A    between atoms: C_11  and  C_52
    6  A    between atoms: N_12  and  C_32
    7  A    between atoms: N_12  and  O_59
    8  A    between atoms: C_13  and  C_41
    9  A    between atoms: C_13  and  C_62
   10  A    between atoms: C_17  and  C_53
   11  A    between atoms: N_19  and  C_38
   12  A    between atoms: C_20  and  C_26
   13  A    between atoms: C_22  and  C_30
   14  A    between atoms: C_22  and  C_56
   15  A    between atoms: C_24  and  C_44
   16  A    between atoms: C_24  and  C_49
   17  A    between atoms: C_26  and  O_59
   18  A    between atoms: C_38  and  C_45
   19  A    between atoms: C_63  and  C_64
                            x       y       z     vdW  Elec       q    Type
                         _______ _______ _______ _____ _____    ______ ____

>  <TORSDO>
F 19

$$$$
=
 OpenBabel10222420503D

 68 74  0  0  1  0  0  0  0  0999 V2000
  187.2100  179.0770  144.3120 C   0  0  0  0  0  2  0  0  0  0  0  0
  189.9410  176.7610  147.6070 C   0  0  0  0  0  3  0  0  0  0  0  0
  187.4620  177.7280  146.3010 C   0  0  0  0  0  0  0  0  0  0  0  0
  190.5410  177.2850  146.3460 C   0  0  0  0  0  3  0  0  0  0  0  0
  187.5020  177.4870  147.5680 C   0  0  0  0  0  3  0  0  0  0  0  0
  187.6500  177.8300  145.0270 C   0  0  0  0  0  0  0  0  0  0  0  0
  188.7000  176.8410  148.1320 C   0  0  0  0  0  3  0  0  0  0  0  0
  188.7560  176.9390  144.5340 C   0  0  2  0  0  3  0  0  0  0  0  0
  190.0850  177.3810  145.0860 C   0  0  0  0  0  3  0  0  0  0  0  0
  189.4120  179.0490  140.1780 N   0  0  0  0  0  2  0  0  0  0  0  0
  189.1260  177.9390  142.2300 N   0  0  0  0  0  2  0  0  0  0  0  0
  188.9290  178.0320  140.8150 C   0  0  0  0  0  0  0  0  0  0  0  0
  188.6930  175.6540  142.4940 O   0  0  0  0  0  0  0  0  0  0  0  0
  188.8230  176.7890  143.0320 C   0  0  0  0  0  0  0  0  0  0  0  0
  188.0510  177.0600  140.0830 C   0  0  0  0  0  2  0  0  0  0  0  0
  188.0190  178.3320  138.0150 C   0  0  0  0  0  0  0  0  0  0  0  0
  187.3490  177.7200  138.9430 C   0  0  0  0  0  3  0  0  0  0  0  0
  188.6950  178.9360  137.0760 C   0  0  0  0  0  3  0  0  0  0  0  0
  189.8170  178.2460  136.3730 C   0  0  0  0  0  2  0  0  0  0  0  0
  189.2980  177.0820  135.5160 C   0  0  1  0  0  3  0  0  0  0  0  0
  191.4580  176.1320  134.6190 C   0  0  0  0  0  2  0  0  0  0  0  0
  192.2340  173.4720  136.5630 C   0  0  0  0  0  2  0  0  0  0  0  0
  192.5260  175.0300  134.6100 C   0  0  0  0  0  2  0  0  0  0  0  0
  190.8500  173.8840  137.0870 C   0  0  0  0  0  2  0  0  0  0  0  0
  190.5590  175.3860  136.9270 C   0  0  2  0  0  3  0  0  0  0  0  0
  190.2060  175.8260  135.4680 C   0  0  1  0  0  0  0  0  0  0  0  0
  193.0950  175.8190  136.9880 C   0  0  0  0  0  2  0  0  0  0  0  0
  189.4090  174.7230  134.7660 C   0  0  0  0  0  1  0  0  0  0  0  0
  193.0440  174.6390  135.9990 C   0  0  1  0  0  3  0  0  0  0  0  0
  191.7120  176.1980  137.5520 C   0  0  0  0  0  2  0  0  0  0  0  0
  187.9250  176.8210  135.7110 O   0  0  0  0  0  0  0  0  0  0  0  0
  187.7880  175.4810  135.8920 N   0  0  0  0  0  2  0  0  0  0  0  0
  186.3640  175.2090  136.0180 C   0  0  0  0  0  2  0  0  0  0  0  0
  185.6730  175.4710  134.6910 C   0  0  0  0  0  1  0  0  0  0  0  0
  183.1180  178.8640  142.9650 C   0  0  0  0  0  0  0  0  0  0  0  0
  183.4090  178.9580  144.3360 C   0  0  0  0  0  3  0  0  0  0  0  0
  185.5000  178.9320  142.4890 C   0  0  0  0  0  3  0  0  0  0  0  0
  185.7850  178.9950  143.8570 C   0  0  0  0  0  0  0  0  0  0  0  0
  184.9860  179.1020  146.1490 O   0  0  0  0  0  1  0  0  0  0  0  0
  184.7310  179.0150  144.7840 C   0  0  0  0  0  0  0  0  0  0  0  0
  184.1780  178.8850  142.0450 C   0  0  0  0  0  3  0  0  0  0  0  0
  181.4790  178.7660  141.0520 N   0  0  0  0  0  0  0  0  0  0  0  0
  179.7930  177.5550  142.1640 O   0  0  0  0  0  0  0  0  0  0  0  0
  180.1100  178.2750  140.9900 C   0  0  0  0  0  2  0  0  0  0  0  0
  180.7550  177.9080  143.1250 C   0  0  1  0  0  3  0  0  0  0  0  0
  181.6800  178.9120  142.4860 C   0  0  1  0  0  3  0  0  0  0  0  0
  182.2870  177.7280  140.5510 N   0  0  0  0  0  2  0  0  0  0  0  0
  181.5700  177.1520  139.4240 C   0  0  0  0  0  2  0  0  0  0  0  0
  182.0640  177.7720  138.1260 C   0  0  2  0  0  3  0  0  0  0  0  0
  181.5410  179.0590  137.9970 O   0  0  0  0  0  1  0  0  0  0  0  0
  181.6850  176.9360  136.9020 C   0  0  1  0  0  3  0  0  0  0  0  0
  181.1260  174.2380  136.6250 C   0  0  2  0  0  3  0  0  0  0  0  0
  180.2640  174.7020  135.4430 C   0  0  2  0  0  3  0  0  0  0  0  0
  179.9560  176.2050  135.4770 C   0  0  0  0  0  2  0  0  0  0  0  0
  182.5840  175.3290  136.8830 S   0  0  0  0  0  0  0  0  0  0  0  0
  180.2330  176.7770  136.7920 N   0  0  0  0  0  2  0  0  0  0  0  0
  179.0640  173.9840  135.4200 O   0  0  0  0  0  1  0  0  0  0  0  0
  182.9880  172.5620  136.9040 C   0  0  0  0  0  2  0  0  0  0  0  0
  185.1570  169.6430  135.1120 O   0  0  0  0  0  0  0  0  0  0  0  0
  181.7030  170.7850  134.9340 C   0  0  0  0  0  2  0  0  0  0  0  0
  183.3770  171.0930  136.7820 C   0  0  0  0  0  2  0  0  0  0  0  0
  183.0570  170.6120  135.4440 N   0  0  0  0  0  0  0  0  0  0  0  0
  181.5310  172.7680  136.4730 C   0  0  0  0  0  3  0  0  0  0  0  0
  181.2990  172.2520  135.0450 C   0  0  0  0  0  2  0  0  0  0  0  0
  183.9820  169.8230  134.6990 C   0  0  0  0  0  3  0  0  0  0  0  0
  180.0750  178.5290  144.3400 C   0  0  0  0  0  2  0  0  0  0  0  0
  179.6120  180.7110  143.3760 N   0  0  0  0  0  1  0  0  0  0  0  0
  178.9990  179.5080  143.9090 C   0  0  0  0  0  2  0  0  0  0  0  0
  1  6  1  0  0  0  0
  2  7  2  0  0  0  0
  3  5  2  0  0  0  0
  4  2  1  0  0  0  0
  5  7  1  0  0  0  0
  6  3  2  0  0  0  0
  8 14  1  6  0  0  0
  8  6  1  0  0  0  0
  8  9  1  0  0  0  0
  9  4  2  0  0  0  0
 10 12  2  0  0  0  0
 11 14  1  0  0  0  0
 12 11  1  0  0  0  0
 13 14  2  0  0  0  0
 15 12  1  0  0  0  0
 16 17  2  0  0  0  0
 17 15  1  0  0  0  0
 18 16  2  0  0  0  0
 19 18  1  0  0  0  0
 20 31  1  0  0  0  0
 20 19  1  1  0  0  0
 21 26  1  0  0  0  0
 22 24  1  0  0  0  0
 23 21  1  0  0  0  0
 25 24  1  6  0  0  0
 25 30  1  0  0  0  0
 26 28  1  6  0  0  0
 26 20  1  0  0  0  0
 26 25  1  0  0  0  0
 27 30  1  0  0  0  0
 29 23  1  6  0  0  0
 29 22  1  0  0  0  0
 29 27  1  0  0  0  0
 31 32  1  0  0  0  0
 32 33  1  0  0  0  0
 34 33  1  0  0  0  0
 35 36  1  0  0  0  0
 36 40  2  0  0  0  0
 37 38  2  0  0  0  0
 38  1  1  0  0  0  0
 38 40  1  0  0  0  0
 40 39  1  0  0  0  0
 41 37  1  0  0  0  0
 41 35  2  0  0  0  0
 42 46  1  0  0  0  0
 43 45  1  0  0  0  0
 44 42  1  0  0  0  0
 44 43  1  0  0  0  0
 45 66  1  1  0  0  0
 46 35  1  6  0  0  0
 46 45  1  0  0  0  0
 47 42  1  0  0  0  0
 48 47  1  0  0  0  0
 49 50  1  6  0  0  0
 49 48  1  0  0  0  0
 51 49  1  1  0  0  0
 52 63  1  6  0  0  0
 52 55  1  0  0  0  0
 53 57  1  1  0  0  0
 53 54  1  0  0  0  0
 53 52  1  0  0  0  0
 54 56  1  0  0  0  0
 55 51  1  0  0  0  0
 56 51  1  0  0  0  0
 60 64  1  0  0  0  0
 60 62  1  0  0  0  0
 61 58  1  0  0  0  0
 62 61  1  0  0  0  0
 63 58  1  0  0  0  0
 64 63  1  0  0  0  0
 65 59  2  0  0  0  0
 65 62  1  0  0  0  0
 67 68  1  0  0  0  0
 68 66  1  0  0  0  0
M  END
>  <MODEL>
6

>  <REMARK>
 VINA RESULT:      -4.5      2.599      4.456
  Name = 
  19 active torsions:
  status: ('A' for Active; 'I' for Inactive)
    1  A    between atoms: C_1  and  C_26
    2  A    between atoms: C_1  and  C_61
    3  A    between atoms: N_2  and  N_19
    4  A    between atoms: C_7  and  C_45
    5  A    between atoms: C_11  and  C_52
    6  A    between atoms: N_12  and  C_32
    7  A    between atoms: N_12  and  O_59
    8  A    between atoms: C_13  and  C_41
    9  A    between atoms: C_13  and  C_62
   10  A    between atoms: C_17  and  C_53
   11  A    between atoms: N_19  and  C_38
   12  A    between atoms: C_20  and  C_26
   13  A    between atoms: C_22  and  C_30
   14  A    between atoms: C_22  and  C_56
   15  A    between atoms: C_24  and  C_44
   16  A    between atoms: C_24  and  C_49
   17  A    between atoms: C_26  and  O_59
   18  A    between atoms: C_38  and  C_45
   19  A    between atoms: C_63  and  C_64
                            x       y       z     vdW  Elec       q    Type
                         _______ _______ _______ _____ _____    ______ ____

>  <TORSDO>
F 19

$$$$
=
 OpenBabel10222420503D

 68 74  0  0  1  0  0  0  0  0999 V2000
  183.1970  174.7270  138.3880 C   0  0  0  0  0  2  0  0  0  0  0  0
  180.7140  172.1170  135.1150 C   0  0  0  0  0  3  0  0  0  0  0  0
  181.2870  173.4020  137.7240 C   0  0  0  0  0  0  0  0  0  0  0  0
  181.8910  172.9380  134.7080 C   0  0  0  0  0  3  0  0  0  0  0  0
  180.5530  172.3430  137.6460 C   0  0  0  0  0  3  0  0  0  0  0  0
  181.9810  174.4760  137.5400 C   0  0  0  0  0  0  0  0  0  0  0  0
  180.1540  171.8520  136.3150 C   0  0  0  0  0  3  0  0  0  0  0  0
  181.7980  175.0510  136.1620 C   0  0  2  0  0  3  0  0  0  0  0  0
  182.3650  174.1260  135.1190 C   0  0  0  0  0  3  0  0  0  0  0  0
  185.4180  177.9390  134.6060 N   0  0  0  0  0  2  0  0  0  0  0  0
  183.6080  176.6330  135.3450 N   0  0  0  0  0  2  0  0  0  0  0  0
  184.3830  177.8370  135.3760 C   0  0  0  0  0  0  0  0  0  0  0  0
  181.6490  177.4520  136.3280 O   0  0  0  0  0  0  0  0  0  0  0  0
  182.3380  176.4510  135.9870 C   0  0  0  0  0  0  0  0  0  0  0  0
  184.1090  178.9150  136.3820 C   0  0  0  0  0  2  0  0  0  0  0  0
  183.7420  178.6870  138.7720 C   0  0  0  0  0  0  0  0  0  0  0  0
  184.5230  178.4910  137.7520 C   0  0  0  0  0  3  0  0  0  0  0  0
  182.9510  178.8720  139.7930 C   0  0  0  0  0  3  0  0  0  0  0  0
  181.5310  178.4130  139.7570 C   0  0  0  0  0  2  0  0  0  0  0  0
  180.5750  179.5470  140.1580 C   0  0  1  0  0  3  0  0  0  0  0  0
  179.3900  181.6930  139.5580 C   0  0  0  0  0  2  0  0  0  0  0  0
  180.0930  182.3190  136.3070 C   0  0  0  0  0  2  0  0  0  0  0  0
  178.9440  182.7200  138.5080 C   0  0  0  0  0  2  0  0  0  0  0  0
  180.7260  180.9380  136.5320 C   0  0  0  0  0  2  0  0  0  0  0  0
  181.1870  180.7070  137.9810 C   0  0  2  0  0  3  0  0  0  0  0  0
  180.0290  180.4090  138.9900 C   0  0  1  0  0  0  0  0  0  0  0  0
  181.4430  183.2540  138.2390 C   0  0  0  0  0  2  0  0  0  0  0  0
  178.9320  179.5910  138.3030 C   0  0  0  0  0  1  0  0  0  0  0  0
  180.0590  183.1860  137.5660 C   0  0  1  0  0  3  0  0  0  0  0  0
  182.0990  181.8710  138.4180 C   0  0  0  0  0  2  0  0  0  0  0  0
  179.6110  179.1470  141.1090 O   0  0  0  0  0  0  0  0  0  0  0  0
  180.0880  179.4830  142.3360 N   0  0  0  0  0  2  0  0  0  0  0  0
  179.2660  178.7920  143.3180 C   0  0  0  0  0  2  0  0  0  0  0  0
  180.1410  178.2760  144.4480 C   0  0  0  0  0  1  0  0  0  0  0  0
  186.8580  174.1810  136.1760 C   0  0  0  0  0  0  0  0  0  0  0  0
  185.9660  173.1090  136.3460 C   0  0  0  0  0  3  0  0  0  0  0  0
  185.3390  175.6010  137.4330 C   0  0  0  0  0  3  0  0  0  0  0  0
  184.4700  174.5220  137.6250 C   0  0  0  0  0  0  0  0  0  0  0  0
  183.9240  172.1890  137.2270 O   0  0  0  0  0  1  0  0  0  0  0  0
  184.7840  173.2710  137.0720 C   0  0  0  0  0  0  0  0  0  0  0  0
  186.5150  175.4370  136.6990 C   0  0  0  0  0  3  0  0  0  0  0  0
  189.0080  175.1450  135.2780 N   0  0  0  0  0  0  0  0  0  0  0  0
  190.2640  173.1520  135.3040 O   0  0  0  0  0  0  0  0  0  0  0  0
  190.2540  174.5010  134.8840 C   0  0  0  0  0  2  0  0  0  0  0  0
  188.9310  172.8090  135.5880 C   0  0  1  0  0  3  0  0  0  0  0  0
  188.0830  174.0210  135.2970 C   0  0  1  0  0  3  0  0  0  0  0  0
  189.2160  175.6250  136.5850 N   0  0  0  0  0  2  0  0  0  0  0  0
  190.6370  175.9110  136.7000 C   0  0  0  0  0  2  0  0  0  0  0  0
  190.9010  176.7200  137.9600 C   0  0  2  0  0  3  0  0  0  0  0  0
  191.9390  176.1310  138.6820 O   0  0  0  0  0  1  0  0  0  0  0  0
  189.6590  176.8370  138.8460 C   0  0  1  0  0  3  0  0  0  0  0  0
  189.2760  178.0140  141.3230 C   0  0  2  0  0  3  0  0  0  0  0  0
  187.8300  178.1900  140.8370 C   0  0  2  0  0  3  0  0  0  0  0  0
  187.6840  178.0330  139.3170 C   0  0  0  0  0  2  0  0  0  0  0  0
  190.0620  176.5110  140.6130 S   0  0  0  0  0  0  0  0  0  0  0  0
  188.9770  178.1180  138.6450 N   0  0  0  0  0  2  0  0  0  0  0  0
  187.3500  179.4460  141.2210 O   0  0  0  0  0  1  0  0  0  0  0  0
  190.7720  178.3720  143.3190 C   0  0  0  0  0  2  0  0  0  0  0  0
  192.0940  176.8310  146.8280 O   0  0  0  0  0  0  0  0  0  0  0  0
  188.9500  176.7680  144.9910 C   0  0  0  0  0  2  0  0  0  0  0  0
  190.8360  178.4220  144.8420 C   0  0  0  0  0  2  0  0  0  0  0  0
  190.2850  177.1900  145.3930 N   0  0  0  0  0  0  0  0  0  0  0  0
  189.3510  178.0320  142.8530 C   0  0  0  0  0  3  0  0  0  0  0  0
  188.8700  176.7100  143.4690 C   0  0  0  0  0  2  0  0  0  0  0  0
  190.9440  176.4900  146.4460 C   0  0  0  0  0  3  0  0  0  0  0  0
  188.4920  171.6450  134.7060 C   0  0  0  0  0  2  0  0  0  0  0  0
  187.9690  170.7600  136.9070 N   0  0  0  0  0  1  0  0  0  0  0  0
  188.2810  170.3940  135.5380 C   0  0  0  0  0  2  0  0  0  0  0  0
  2  7  2  0  0  0  0
  4  2  1  0  0  0  0
  4  9  2  0  0  0  0
  5  3  2  0  0  0  0
  6  3  2  0  0  0  0
  6  1  1  0  0  0  0
  7  5  1  0  0  0  0
  8 14  1  1  0  0  0
  8  6  1  0  0  0  0
  9  8  1  0  0  0  0
 10 12  2  0  0  0  0
 11 12  1  0  0  0  0
 11 14  1  0  0  0  0
 12 15  1  0  0  0  0
 14 13  2  0  0  0  0
 15 17  1  0  0  0  0
 16 18  2  0  0  0  0
 17 16  2  0  0  0  0
 19 18  1  0  0  0  0
 20 19  1  6  0  0  0
 20 31  1  0  0  0  0
 22 24  1  0  0  0  0
 23 21  1  0  0  0  0
 25 24  1  6  0  0  0
 25 30  1  0  0  0  0
 25 26  1  0  0  0  0
 26 28  1  6  0  0  0
 26 21  1  0  0  0  0
 26 20  1  0  0  0  0
 27 30  1  0  0  0  0
 29 22  1  6  0  0  0
 29 27  1  0  0  0  0
 29 23  1  0  0  0  0
 31 32  1  0  0  0  0
 32 33  1  0  0  0  0
 33 34  1  0  0  0  0
 35 36  2  0  0  0  0
 35 41  1  0  0  0  0
 36 40  1  0  0  0  0
 37 38  1  0  0  0  0
 38  1  1  0  0  0  0
 40 39  1  0  0  0  0
 40 38  2  0  0  0  0
 41 37  2  0  0  0  0
 42 46  1  0  0  0  0
 42 47  1  0  0  0  0
 43 45  1  0  0  0  0
 44 42  1  0  0  0  0
 44 43  1  0  0  0  0
 45 66  1  6  0  0  0
 46 45  1  0  0  0  0
 46 35  1  1  0  0  0
 47 48  1  0  0  0  0
 48 49  1  0  0  0  0
 49 50  1  1  0  0  0
 51 49  1  6  0  0  0
 51 55  1  0  0  0  0
 52 63  1  1  0  0  0
 53 57  1  6  0  0  0
 53 52  1  0  0  0  0
 54 53  1  0  0  0  0
 55 52  1  0  0  0  0
 56 51  1  0  0  0  0
 56 54  1  0  0  0  0
 58 61  1  0  0  0  0
 60 62  1  0  0  0  0
 61 62  1  0  0  0  0
 62 65  1  0  0  0  0
 63 58  1  0  0  0  0
 63 64  1  0  0  0  0
 64 60  1  0  0  0  0
 65 59  2  0  0  0  0
 66 68  1  0  0  0  0
 68 67  1  0  0  0  0
M  END
>  <MODEL>
7

>  <REMARK>
 VINA RESULT:      -4.5      3.577     12.216
  Name = 
  19 active torsions:
  status: ('A' for Active; 'I' for Inactive)
    1  A    between atoms: C_1  and  C_26
    2  A    between atoms: C_1  and  C_61
    3  A    between atoms: N_2  and  N_19
    4  A    between atoms: C_7  and  C_45
    5  A    between atoms: C_11  and  C_52
    6  A    between atoms: N_12  and  C_32
    7  A    between atoms: N_12  and  O_59
    8  A    between atoms: C_13  and  C_41
    9  A    between atoms: C_13  and  C_62
   10  A    between atoms: C_17  and  C_53
   11  A    between atoms: N_19  and  C_38
   12  A    between atoms: C_20  and  C_26
   13  A    between atoms: C_22  and  C_30
   14  A    between atoms: C_22  and  C_56
   15  A    between atoms: C_24  and  C_44
   16  A    between atoms: C_24  and  C_49
   17  A    between atoms: C_26  and  O_59
   18  A    between atoms: C_38  and  C_45
   19  A    between atoms: C_63  and  C_64
                            x       y       z     vdW  Elec       q    Type
                         _______ _______ _______ _____ _____    ______ ____

>  <TORSDO>
F 19

$$$$
=
 OpenBabel10222420503D

 68 74  0  0  1  0  0  0  0  0999 V2000
  183.2580  178.7370  140.4400 C   0  0  0  0  0  2  0  0  0  0  0  0
  179.2490  179.1660  143.1660 C   0  0  0  0  0  3  0  0  0  0  0  0
  181.0650  177.9960  141.1360 C   0  0  0  0  0  0  0  0  0  0  0  0
  180.4660  179.9750  143.4610 C   0  0  0  0  0  3  0  0  0  0  0  0
  179.7860  177.8500  141.0530 C   0  0  0  0  0  3  0  0  0  0  0  0
  182.2940  178.2170  141.4700 C   0  0  0  0  0  0  0  0  0  0  0  0
  178.9450  178.2960  142.1790 C   0  0  0  0  0  3  0  0  0  0  0  0
  182.4590  178.4400  142.9480 C   0  0  2  0  0  3  0  0  0  0  0  0
  181.7810  179.7150  143.3740 C   0  0  0  0  0  3  0  0  0  0  0  0
  187.2180  178.3960  141.8490 N   0  0  0  0  0  2  0  0  0  0  0  0
  184.9530  178.4570  142.4750 N   0  0  0  0  0  2  0  0  0  0  0  0
  186.3210  178.1310  142.7430 C   0  0  0  0  0  0  0  0  0  0  0  0
  184.1460  178.4090  144.6710 O   0  0  0  0  0  0  0  0  0  0  0  0
  183.8880  178.4050  143.4350 C   0  0  0  0  0  0  0  0  0  0  0  0
  186.7140  177.3580  143.9680 C   0  0  0  0  0  2  0  0  0  0  0  0
  187.8130  178.1100  145.9980 C   0  0  0  0  0  0  0  0  0  0  0  0
  186.8370  178.2550  145.1550 C   0  0  0  0  0  3  0  0  0  0  0  0
  188.8030  177.9720  146.8380 C   0  0  0  0  0  3  0  0  0  0  0  0
  190.2160  177.9220  146.3580 C   0  0  0  0  0  2  0  0  0  0  0  0
  190.5860  176.5100  145.8790 C   0  0  1  0  0  3  0  0  0  0  0  0
  189.7470  175.9670  143.5610 C   0  0  0  0  0  2  0  0  0  0  0  0
  191.9310  177.3600  141.3820 C   0  0  0  0  0  2  0  0  0  0  0  0
  189.9480  175.9580  142.0390 C   0  0  0  0  0  2  0  0  0  0  0  0
  192.5980  177.6150  142.7420 C   0  0  0  0  0  2  0  0  0  0  0  0
  191.5940  177.7460  143.9000 C   0  0  2  0  0  3  0  0  0  0  0  0
  190.9810  176.3900  144.3840 C   0  0  1  0  0  0  0  0  0  0  0  0
  189.8280  178.5200  142.1950 C   0  0  0  0  0  2  0  0  0  0  0  0
  192.0290  175.2770  144.2850 C   0  0  0  0  0  1  0  0  0  0  0  0
  190.4050  177.2990  141.4540 C   0  0  1  0  0  3  0  0  0  0  0  0
  190.5330  178.8040  143.5360 C   0  0  0  0  0  2  0  0  0  0  0  0
  191.4310  175.8250  146.7780 O   0  0  0  0  0  0  0  0  0  0  0  0
  192.2190  176.7530  147.3830 N   0  0  0  0  0  2  0  0  0  0  0  0
  192.7430  176.1450  148.5960 C   0  0  0  0  0  2  0  0  0  0  0  0
  192.3510  174.6780  148.6450 C   0  0  0  0  0  1  0  0  0  0  0  0
  183.7230  176.0000  137.1400 C   0  0  0  0  0  0  0  0  0  0  0  0
  183.8300  177.3860  136.9330 C   0  0  0  0  0  3  0  0  0  0  0  0
  183.3360  176.4170  139.5030 C   0  0  0  0  0  3  0  0  0  0  0  0
  183.4130  177.7970  139.2840 C   0  0  0  0  0  0  0  0  0  0  0  0
  183.7740  179.6480  137.7530 O   0  0  0  0  0  1  0  0  0  0  0  0
  183.6680  178.2820  137.9920 C   0  0  0  0  0  0  0  0  0  0  0  0
  183.5080  175.5250  138.4430 C   0  0  0  0  0  3  0  0  0  0  0  0
  185.1230  175.3830  135.1350 N   0  0  0  0  0  0  0  0  0  0  0  0
  185.1690  173.0580  135.5080 O   0  0  0  0  0  0  0  0  0  0  0  0
  185.4950  174.0830  134.5940 C   0  0  0  0  0  2  0  0  0  0  0  0
  184.2540  173.6080  136.4210 C   0  0  1  0  0  3  0  0  0  0  0  0
  184.0080  175.0360  136.0050 C   0  0  1  0  0  3  0  0  0  0  0  0
  186.2220  175.8120  135.9030 N   0  0  0  0  0  2  0  0  0  0  0  0
  187.2400  174.7810  135.7810 C   0  0  0  0  0  2  0  0  0  0  0  0
  188.0010  174.6490  137.0920 C   0  0  2  0  0  3  0  0  0  0  0  0
  187.2440  175.2010  138.1260 O   0  0  0  0  0  1  0  0  0  0  0  0
  189.3720  175.3270  137.0370 C   0  0  1  0  0  3  0  0  0  0  0  0
  191.8260  174.4290  136.1210 C   0  0  2  0  0  3  0  0  0  0  0  0
  192.0910  175.9180  135.8560 C   0  0  2  0  0  3  0  0  0  0  0  0
  190.8100  176.7640  135.8470 C   0  0  0  0  0  2  0  0  0  0  0  0
  190.7100  174.1750  137.5600 S   0  0  0  0  0  0  0  0  0  0  0  0
  189.6200  175.9280  135.7240 N   0  0  0  0  0  2  0  0  0  0  0  0
  192.7570  176.0720  134.6360 O   0  0  0  0  0  1  0  0  0  0  0  0
  194.0920  174.3770  137.2250 C   0  0  0  0  0  2  0  0  0  0  0  0
  198.0870  174.0070  136.6450 O   0  0  0  0  0  0  0  0  0  0  0  0
  195.1040  172.6050  135.0970 C   0  0  0  0  0  2  0  0  0  0  0  0
  195.3820  173.5830  137.3950 C   0  0  0  0  0  2  0  0  0  0  0  0
  195.9400  173.2720  136.0850 N   0  0  0  0  0  0  0  0  0  0  0  0
  193.1380  173.6510  136.2690 C   0  0  0  0  0  3  0  0  0  0  0  0
  193.8080  173.3890  134.9120 C   0  0  0  0  0  2  0  0  0  0  0  0
  197.3300  173.4440  135.8120 C   0  0  0  0  0  3  0  0  0  0  0  0
  182.9460  172.8250  136.3840 C   0  0  0  0  0  2  0  0  0  0  0  0
  182.6700  171.0410  134.7570 N   0  0  0  0  0  1  0  0  0  0  0  0
  182.5720  172.4750  134.9560 C   0  0  0  0  0  2  0  0  0  0  0  0
  1  6  1  0  0  0  0
  2  4  1  0  0  0  0
  3  6  2  0  0  0  0
  5  3  2  0  0  0  0
  5  7  1  0  0  0  0
  6  8  1  0  0  0  0
  7  2  2  0  0  0  0
  8  9  1  0  0  0  0
  8 14  1  6  0  0  0
  9  4  2  0  0  0  0
 10 12  2  0  0  0  0
 11 12  1  0  0  0  0
 11 14  1  0  0  0  0
 12 15  1  0  0  0  0
 14 13  2  0  0  0  0
 15 17  1  0  0  0  0
 16 18  2  0  0  0  0
 17 16  2  0  0  0  0
 19 18  1  0  0  0  0
 20 19  1  1  0  0  0
 20 31  1  0  0  0  0
 21 26  1  0  0  0  0
 22 24  1  0  0  0  0
 23 21  1  0  0  0  0
 25 24  1  6  0  0  0
 25 26  1  0  0  0  0
 26 28  1  6  0  0  0
 26 20  1  0  0  0  0
 27 30  1  0  0  0  0
 29 22  1  1  0  0  0
 29 23  1  0  0  0  0
 29 27  1  0  0  0  0
 30 25  1  0  0  0  0
 31 32  1  0  0  0  0
 32 33  1  0  0  0  0
 33 34  1  0  0  0  0
 35 41  1  0  0  0  0
 36 35  2  0  0  0  0
 36 40  1  0  0  0  0
 38 37  1  0  0  0  0
 38  1  1  0  0  0  0
 39 40  1  0  0  0  0
 40 38  2  0  0  0  0
 41 37  2  0  0  0  0
 42 47  1  0  0  0  0
 42 46  1  0  0  0  0
 43 45  1  0  0  0  0
 44 42  1  0  0  0  0
 44 43  1  0  0  0  0
 45 66  1  6  0  0  0
 46 45  1  0  0  0  0
 46 35  1  1  0  0  0
 48 47  1  0  0  0  0
 48 49  1  0  0  0  0
 49 50  1  1  0  0  0
 51 49  1  6  0  0  0
 51 55  1  0  0  0  0
 52 63  1  1  0  0  0
 52 55  1  0  0  0  0
 53 57  1  6  0  0  0
 53 52  1  0  0  0  0
 54 53  1  0  0  0  0
 56 54  1  0  0  0  0
 56 51  1  0  0  0  0
 58 61  1  0  0  0  0
 60 62  1  0  0  0  0
 62 61  1  0  0  0  0
 63 58  1  0  0  0  0
 64 60  1  0  0  0  0
 64 63  1  0  0  0  0
 65 62  1  0  0  0  0
 65 59  2  0  0  0  0
 67 68  1  0  0  0  0
 68 66  1  0  0  0  0
M  END
>  <MODEL>
8

>  <REMARK>
 VINA RESULT:      -4.3      2.684      8.487
  Name = 
  19 active torsions:
  status: ('A' for Active; 'I' for Inactive)
    1  A    between atoms: C_1  and  C_26
    2  A    between atoms: C_1  and  C_61
    3  A    between atoms: N_2  and  N_19
    4  A    between atoms: C_7  and  C_45
    5  A    between atoms: C_11  and  C_52
    6  A    between atoms: N_12  and  C_32
    7  A    between atoms: N_12  and  O_59
    8  A    between atoms: C_13  and  C_41
    9  A    between atoms: C_13  and  C_62
   10  A    between atoms: C_17  and  C_53
   11  A    between atoms: N_19  and  C_38
   12  A    between atoms: C_20  and  C_26
   13  A    between atoms: C_22  and  C_30
   14  A    between atoms: C_22  and  C_56
   15  A    between atoms: C_24  and  C_44
   16  A    between atoms: C_24  and  C_49
   17  A    between atoms: C_26  and  O_59
   18  A    between atoms: C_38  and  C_45
   19  A    between atoms: C_63  and  C_64
                            x       y       z     vdW  Elec       q    Type
                         _______ _______ _______ _____ _____    ______ ____

>  <TORSDO>
F 19

$$$$
=
 OpenBabel10222420503D

 68 74  0  0  1  0  0  0  0  0999 V2000
  188.9090  176.9340  140.0970 C   0  0  0  0  0  2  0  0  0  0  0  0
  193.7360  177.5100  139.8670 C   0  0  0  0  0  3  0  0  0  0  0  0
  191.1290  176.6980  141.0220 C   0  0  0  0  0  0  0  0  0  0  0  0
  192.8800  177.7310  138.6660 C   0  0  0  0  0  3  0  0  0  0  0  0
  192.1330  176.9960  141.7760 C   0  0  0  0  0  3  0  0  0  0  0  0
  190.3090  176.3870  140.0740 C   0  0  0  0  0  0  0  0  0  0  0  0
  193.4500  177.2180  141.1540 C   0  0  0  0  0  3  0  0  0  0  0  0
  191.0160  175.9720  138.8130 C   0  0  2  0  0  3  0  0  0  0  0  0
  191.7650  177.1320  138.2140 C   0  0  0  0  0  3  0  0  0  0  0  0
  188.5110  176.3720  134.6380 N   0  0  0  0  0  2  0  0  0  0  0  0
  189.7210  176.0720  136.6310 N   0  0  0  0  0  2  0  0  0  0  0  0
  188.6610  175.7100  135.7400 C   0  0  0  0  0  0  0  0  0  0  0  0
  189.8160  174.0980  137.8830 O   0  0  0  0  0  0  0  0  0  0  0  0
  190.1300  175.3160  137.7800 C   0  0  0  0  0  0  0  0  0  0  0  0
  187.6360  174.6830  136.1230 C   0  0  0  0  0  2  0  0  0  0  0  0
  186.0280  173.2420  135.0120 C   0  0  0  0  0  0  0  0  0  0  0  0
  186.8230  174.2660  134.9420 C   0  0  0  0  0  3  0  0  0  0  0  0
  185.2190  172.2210  135.0880 C   0  0  0  0  0  3  0  0  0  0  0  0
  184.2170  172.1150  136.1890 C   0  0  0  0  0  2  0  0  0  0  0  0
  183.4770  173.4460  136.3910 C   0  0  1  0  0  3  0  0  0  0  0  0
  181.4360  173.7460  134.9360 C   0  0  0  0  0  2  0  0  0  0  0  0
  178.9320  172.0000  136.3980 C   0  0  0  0  0  2  0  0  0  0  0  0
  179.9310  173.5620  134.6990 C   0  0  0  0  0  2  0  0  0  0  0  0
  180.0720  171.8790  137.4200 C   0  0  0  0  0  2  0  0  0  0  0  0
  181.4710  171.9350  136.7830 C   0  0  2  0  0  3  0  0  0  0  0  0
  181.9280  173.3670  136.3480 C   0  0  1  0  0  0  0  0  0  0  0  0
  180.4420  171.0460  134.5990 C   0  0  0  0  0  2  0  0  0  0  0  0
  181.3990  174.4090  137.3370 C   0  0  0  0  0  1  0  0  0  0  0  0
  179.4180  172.1400  134.9560 C   0  0  1  0  0  3  0  0  0  0  0  0
  181.5570  170.8920  135.6510 C   0  0  0  0  0  2  0  0  0  0  0  0
  184.0080  174.2190  137.4460 O   0  0  0  0  0  0  0  0  0  0  0  0
  184.7660  175.2000  136.8880 N   0  0  0  0  0  2  0  0  0  0  0  0
  184.9730  176.2140  137.9100 C   0  0  0  0  0  2  0  0  0  0  0  0
  185.5270  177.4770  137.2750 C   0  0  0  0  0  1  0  0  0  0  0  0
  187.7400  178.1820  144.0560 C   0  0  0  0  0  0  0  0  0  0  0  0
  187.0930  178.7090  142.9260 C   0  0  0  0  0  3  0  0  0  0  0  0
  189.1270  176.8300  142.5880 C   0  0  0  0  0  3  0  0  0  0  0  0
  188.5000  177.3820  141.4670 C   0  0  0  0  0  0  0  0  0  0  0  0
  186.8140  178.8670  140.5410 O   0  0  0  0  0  1  0  0  0  0  0  0
  187.4720  178.3220  141.6390 C   0  0  0  0  0  0  0  0  0  0  0  0
  188.7390  177.2130  143.8730 C   0  0  0  0  0  3  0  0  0  0  0  0
  185.8170  178.7670  145.5790 N   0  0  0  0  0  0  0  0  0  0  0  0
  186.5400  177.5420  147.4570 O   0  0  0  0  0  0  0  0  0  0  0  0
  185.5950  178.4820  146.9900 C   0  0  0  0  0  2  0  0  0  0  0  0
  187.5860  177.5230  146.5180 C   0  0  1  0  0  3  0  0  0  0  0  0
  187.2480  178.5280  145.4480 C   0  0  1  0  0  3  0  0  0  0  0  0
  185.0950  177.7900  144.8680 N   0  0  0  0  0  2  0  0  0  0  0  0
  183.7280  178.2760  144.7690 C   0  0  0  0  0  2  0  0  0  0  0  0
  183.6160  179.2740  143.6260 C   0  0  2  0  0  3  0  0  0  0  0  0
  184.0340  180.5300  144.0640 O   0  0  0  0  0  1  0  0  0  0  0  0
  182.1910  179.3670  143.0750 C   0  0  1  0  0  3  0  0  0  0  0  0
  180.9960  178.1870  140.8730 C   0  0  2  0  0  3  0  0  0  0  0  0
  179.7100  178.3190  141.7020 C   0  0  2  0  0  3  0  0  0  0  0  0
  179.9790  178.5640  143.1930 C   0  0  0  0  0  2  0  0  0  0  0  0
  182.1920  179.5340  141.2410 S   0  0  0  0  0  0  0  0  0  0  0  0
  181.3620  178.2540  143.5440 N   0  0  0  0  0  2  0  0  0  0  0  0
  178.9310  177.1680  141.5550 O   0  0  0  0  0  1  0  0  0  0  0  0
  181.9450  178.3440  138.5440 C   0  0  0  0  0  2  0  0  0  0  0  0
  181.5570  180.0390  134.8810 O   0  0  0  0  0  0  0  0  0  0  0  0
  179.2580  178.9130  137.4710 C   0  0  0  0  0  2  0  0  0  0  0  0
  181.6360  178.2160  137.0560 C   0  0  0  0  0  2  0  0  0  0  0  0
  180.4970  179.0600  136.7190 N   0  0  0  0  0  0  0  0  0  0  0  0
  180.6820  178.0920  139.3760 C   0  0  0  0  0  3  0  0  0  0  0  0
  179.5490  179.0420  138.9640 C   0  0  0  0  0  2  0  0  0  0  0  0
  180.5090  179.8940  135.5620 C   0  0  0  0  0  3  0  0  0  0  0  0
  188.8990  177.9060  147.1930 C   0  0  0  0  0  2  0  0  0  0  0  0
  191.2590  177.4110  146.8920 N   0  0  0  0  0  1  0  0  0  0  0  0
  189.9380  176.8180  146.9970 C   0  0  0  0  0  2  0  0  0  0  0  0
  1 38  1  0  0  0  0
  2  7  2  0  0  0  0
  3  5  2  0  0  0  0
  4  2  1  0  0  0  0
  6  1  1  0  0  0  0
  6  3  2  0  0  0  0
  7  5  1  0  0  0  0
  8 14  1  6  0  0  0
  8  6  1  0  0  0  0
  9  4  2  0  0  0  0
  9  8  1  0  0  0  0
 10 12  2  0  0  0  0
 11 14  1  0  0  0  0
 12 15  1  0  0  0  0
 12 11  1  0  0  0  0
 14 13  2  0  0  0  0
 16 18  2  0  0  0  0
 17 16  2  0  0  0  0
 17 15  1  0  0  0  0
 18 19  1  0  0  0  0
 20 19  1  1  0  0  0
 20 31  1  0  0  0  0
 21 26  1  0  0  0  0
 22 24  1  0  0  0  0
 23 21  1  0  0  0  0
 23 29  1  0  0  0  0
 25 30  1  6  0  0  0
 25 24  1  0  0  0  0
 26 20  1  0  0  0  0
 26 25  1  0  0  0  0
 26 28  1  1  0  0  0
 27 30  1  0  0  0  0
 29 27  1  1  0  0  0
 29 22  1  0  0  0  0
 32 31  1  0  0  0  0
 32 33  1  0  0  0  0
 34 33  1  0  0  0  0
 36 35  2  0  0  0  0
 37 41  2  0  0  0  0
 38 40  2  0  0  0  0
 38 37  1  0  0  0  0
 39 40  1  0  0  0  0
 40 36  1  0  0  0  0
 41 35  1  0  0  0  0
 42 44  1  0  0  0  0
 44 43  1  0  0  0  0
 45 66  1  1  0  0  0
 45 43  1  0  0  0  0
 46 35  1  6  0  0  0
 46 42  1  0  0  0  0
 46 45  1  0  0  0  0
 47 42  1  0  0  0  0
 48 47  1  0  0  0  0
 49 50  1  1  0  0  0
 49 48  1  0  0  0  0
 51 56  1  0  0  0  0
 51 49  1  6  0  0  0
 52 63  1  6  0  0  0
 52 55  1  0  0  0  0
 52 53  1  0  0  0  0
 53 57  1  1  0  0  0
 53 54  1  0  0  0  0
 54 56  1  0  0  0  0
 55 51  1  0  0  0  0
 58 63  1  0  0  0  0
 59 65  2  0  0  0  0
 60 64  1  0  0  0  0
 61 58  1  0  0  0  0
 62 61  1  0  0  0  0
 62 60  1  0  0  0  0
 64 63  1  0  0  0  0
 65 62  1  0  0  0  0
 67 68  1  0  0  0  0
 68 66  1  0  0  0  0
M  END
>  <MODEL>
9

>  <REMARK>
 VINA RESULT:      -4.0      3.274      9.491
  Name = 
  19 active torsions:
  status: ('A' for Active; 'I' for Inactive)
    1  A    between atoms: C_1  and  C_26
    2  A    between atoms: C_1  and  C_61
    3  A    between atoms: N_2  and  N_19
    4  A    between atoms: C_7  and  C_45
    5  A    between atoms: C_11  and  C_52
    6  A    between atoms: N_12  and  C_32
    7  A    between atoms: N_12  and  O_59
    8  A    between atoms: C_13  and  C_41
    9  A    between atoms: C_13  and  C_62
   10  A    between atoms: C_17  and  C_53
   11  A    between atoms: N_19  and  C_38
   12  A    between atoms: C_20  and  C_26
   13  A    between atoms: C_22  and  C_30
   14  A    between atoms: C_22  and  C_56
   15  A    between atoms: C_24  and  C_44
   16  A    between atoms: C_24  and  C_49
   17  A    between atoms: C_26  and  O_59
   18  A    between atoms: C_38  and  C_45
   19  A    between atoms: C_63  and  C_64
                            x       y       z     vdW  Elec       q    Type
                         _______ _______ _______ _____ _____    ______ ____

>  <TORSDO>
F 19

$$$$
