=
 OpenBabel10222416093D

 26 29  0  0  1  0  0  0  0  0999 V2000
  187.5010  178.2340  142.4950 C   0  0  2  0  0  3  0  0  0  0  0  0
  184.6230  178.2570  144.5960 C   0  0  0  0  0  2  0  0  0  0  0  0
  186.7060  178.0310  143.7390 C   0  0  0  0  0  0  0  0  0  0  0  0
  185.5070  179.2200  146.6360 N   0  0  0  0  0  0  0  0  0  0  0  0
  186.3410  178.5320  141.5540 C   0  0  0  0  0  0  0  0  0  0  0  0
  188.4570  178.1990  146.9660 C   0  0  0  0  0  3  0  0  0  0  0  0
  188.2390  177.9670  145.6720 C   0  0  0  0  0  3  0  0  0  0  0  0
  186.4980  178.8190  140.3390 O   0  0  0  0  0  0  0  0  0  0  0  0
  185.3400  178.1610  143.4930 C   0  0  0  0  0  0  0  0  0  0  0  0
  186.9300  178.0540  145.0340 C   0  0  2  0  0  3  0  0  0  0  0  0
  186.3130  179.4870  147.6190 C   0  0  0  0  0  0  0  0  0  0  0  0
  185.9950  180.5700  148.4850 N   0  0  0  0  0  1  0  0  0  0  0  0
  185.6010  178.0770  145.7430 C   0  0  2  0  0  3  0  0  0  0  0  0
  187.4920  178.7150  147.8970 N   0  0  0  0  0  2  0  0  0  0  0  0
  185.0350  178.4940  142.1560 N   0  0  0  0  0  2  0  0  0  0  0  0
  189.9140  175.2490  142.9170 C   0  0  0  0  0  2  0  0  0  0  0  0
  189.5260  177.3490  141.1800 C   0  0  2  0  0  3  0  0  0  0  0  0
  191.0750  176.2550  142.8520 C   0  0  1  0  0  3  0  0  0  0  0  0
  188.5730  175.9560  143.1100 C   0  0  0  0  0  2  0  0  0  0  0  0
  188.2650  176.9820  141.9960 C   0  0  1  0  0  3  0  0  0  0  0  0
  190.7270  177.5460  142.0980 C   0  0  0  0  0  2  0  0  0  0  0  0
  191.6310  178.4540  144.1830 C   0  0  0  0  0  1  0  0  0  0  0  0
  191.6500  176.6720  144.5240 S   0  0  0  0  0  0  0  0  0  0  0  0
  189.3270  178.5230  140.3470 N   0  0  0  0  0  2  0  0  0  0  0  0
  189.3440  178.3060  137.7990 N   0  0  0  0  0  0  0  0  0  0  0  0
  189.3360  178.4040  138.9520 C   0  0  0  0  0  0  0  0  0  0  0  0
  1  5  1  6  0  0  0
  1  3  1  0  0  0  0
  3 10  1  0  0  0  0
  4 11  2  0  0  0  0
  5 15  1  0  0  0  0
  6 14  1  0  0  0  0
  7  6  2  0  0  0  0
  8  5  2  0  0  0  0
  9  3  2  0  0  0  0
  9  2  1  0  0  0  0
 10  7  1  1  0  0  0
 10 13  1  0  0  0  0
 11 14  1  0  0  0  0
 11 12  1  0  0  0  0
 13  2  1  6  0  0  0
 13  4  1  0  0  0  0
 15  9  1  0  0  0  0
 16 19  1  0  0  0  0
 17 24  1  1  0  0  0
 17 20  1  0  0  0  0
 17 21  1  0  0  0  0
 18 16  1  0  0  0  0
 18 23  1  1  0  0  0
 20  1  1  0  0  0  0
 20 19  1  1  0  0  0
 21 18  1  0  0  0  0
 22 23  1  0  0  0  0
 25 26  3  0  0  0  0
 26 24  1  0  0  0  0
M  END
>  <MODEL>
1

>  <REMARK>
 VINA RESULT:      -6.8      0.000      0.000
  Name = 
  4 active torsions:
  status: ('A' for Active; 'I' for Inactive)
    1  A    between atoms: C_2  and  C_15
    2  A    between atoms: C_4  and  N_12
    3  A    between atoms: S_6  and  C_8
    4  A    between atoms: C_10  and  N_12
                            x       y       z     vdW  Elec       q    Type
                         _______ _______ _______ _____ _____    ______ ____

>  <TORSDO>
F 4

$$$$
=
 OpenBabel10222416093D

 26 29  0  0  1  0  0  0  0  0999 V2000
  188.4440  177.4220  145.4660 C   0  0  2  0  0  3  0  0  0  0  0  0
  185.2330  178.9640  145.3810 C   0  0  0  0  0  2  0  0  0  0  0  0
  187.3130  178.2120  144.9010 C   0  0  0  0  0  0  0  0  0  0  0  0
  184.4360  178.3300  143.1820 N   0  0  0  0  0  0  0  0  0  0  0  0
  187.9260  177.3100  146.8940 C   0  0  0  0  0  0  0  0  0  0  0  0
  186.9100  178.3040  141.2500 C   0  0  0  0  0  3  0  0  0  0  0  0
  187.5040  178.2460  142.4420 C   0  0  0  0  0  3  0  0  0  0  0  0
  188.5310  176.6750  147.7970 O   0  0  0  0  0  0  0  0  0  0  0  0
  186.3650  178.5070  145.8800 C   0  0  0  0  0  0  0  0  0  0  0  0
  186.8140  178.4560  143.7100 C   0  0  2  0  0  3  0  0  0  0  0  0
  184.4220  178.0690  141.9100 C   0  0  0  0  0  0  0  0  0  0  0  0
  183.2740  177.4360  141.3580 N   0  0  0  0  0  1  0  0  0  0  0  0
  185.4590  179.0880  143.8860 C   0  0  2  0  0  3  0  0  0  0  0  0
  185.4960  178.4250  141.0250 N   0  0  0  0  0  2  0  0  0  0  0  0
  186.6680  177.9600  147.1450 N   0  0  0  0  0  2  0  0  0  0  0  0
  191.4300  179.1890  143.7710 C   0  0  0  0  0  2  0  0  0  0  0  0
  191.0000  177.1640  145.5860 C   0  0  2  0  0  3  0  0  0  0  0  0
  191.9160  177.8030  143.3180 C   0  0  1  0  0  3  0  0  0  0  0  0
  189.9930  179.1350  144.2890 C   0  0  0  0  0  2  0  0  0  0  0  0
  189.8120  178.1480  145.4650 C   0  0  1  0  0  3  0  0  0  0  0  0
  191.4240  176.6560  144.2130 C   0  0  0  0  0  2  0  0  0  0  0  0
  190.2830  176.1510  142.0860 C   0  0  0  0  0  1  0  0  0  0  0  0
  191.4160  177.4820  141.6010 S   0  0  0  0  0  0  0  0  0  0  0  0
  190.7100  176.0490  146.4710 N   0  0  0  0  0  2  0  0  0  0  0  0
  192.4590  175.2700  148.1670 N   0  0  0  0  0  0  0  0  0  0  0  0
  191.6670  175.6220  147.3990 C   0  0  0  0  0  0  0  0  0  0  0  0
  1  3  1  6  0  0  0
  1  5  1  0  0  0  0
  2  9  1  0  0  0  0
  3  9  2  0  0  0  0
  4 13  1  0  0  0  0
  5 15  1  0  0  0  0
  5  8  2  0  0  0  0
  6  7  2  0  0  0  0
  9 15  1  0  0  0  0
 10  7  1  1  0  0  0
 10 13  1  0  0  0  0
 10  3  1  0  0  0  0
 11  4  2  0  0  0  0
 12 11  1  0  0  0  0
 13  2  1  1  0  0  0
 14  6  1  0  0  0  0
 14 11  1  0  0  0  0
 16 19  1  0  0  0  0
 17 24  1  1  0  0  0
 18 23  1  6  0  0  0
 18 16  1  0  0  0  0
 18 21  1  0  0  0  0
 20 19  1  6  0  0  0
 20  1  1  0  0  0  0
 20 17  1  0  0  0  0
 21 17  1  0  0  0  0
 23 22  1  0  0  0  0
 24 26  1  0  0  0  0
 26 25  3  0  0  0  0
M  END
>  <MODEL>
2

>  <REMARK>
 VINA RESULT:      -6.7      2.632      5.280
  Name = 
  4 active torsions:
  status: ('A' for Active; 'I' for Inactive)
    1  A    between atoms: C_2  and  C_15
    2  A    between atoms: C_4  and  N_12
    3  A    between atoms: S_6  and  C_8
    4  A    between atoms: C_10  and  N_12
                            x       y       z     vdW  Elec       q    Type
                         _______ _______ _______ _____ _____    ______ ____

>  <TORSDO>
F 4

$$$$
=
 OpenBabel10222416093D

 26 29  0  0  1  0  0  0  0  0999 V2000
  182.5600  177.5130  140.0370 C   0  0  2  0  0  3  0  0  0  0  0  0
  185.7320  178.9720  140.7480 C   0  0  0  0  0  2  0  0  0  0  0  0
  183.5630  178.3250  140.7830 C   0  0  0  0  0  0  0  0  0  0  0  0
  185.9570  178.5370  143.1210 N   0  0  0  0  0  0  0  0  0  0  0  0
  183.3920  177.2480  138.7900 C   0  0  0  0  0  0  0  0  0  0  0  0
  183.0990  178.7640  144.4010 C   0  0  0  0  0  3  0  0  0  0  0  0
  182.8010  178.6050  143.1130 C   0  0  0  0  0  3  0  0  0  0  0  0
  182.9870  176.5430  137.8290 O   0  0  0  0  0  0  0  0  0  0  0  0
  184.7280  178.4980  140.0360 C   0  0  0  0  0  0  0  0  0  0  0  0
  183.7780  178.6720  142.0320 C   0  0  2  0  0  3  0  0  0  0  0  0
  185.6580  178.4020  144.3780 C   0  0  0  0  0  0  0  0  0  0  0  0
  186.6130  177.7970  145.2430 N   0  0  0  0  0  1  0  0  0  0  0  0
  185.1660  179.2480  142.1300 C   0  0  2  0  0  3  0  0  0  0  0  0
  184.4250  178.8700  144.9460 N   0  0  0  0  0  2  0  0  0  0  0  0
  184.7050  177.8370  138.7900 N   0  0  0  0  0  2  0  0  0  0  0  0
  179.8890  180.2670  140.4750 C   0  0  0  0  0  2  0  0  0  0  0  0
  179.9900  177.5380  140.1230 C   0  0  2  0  0  3  0  0  0  0  0  0
  179.3180  179.4450  141.6420 C   0  0  1  0  0  3  0  0  0  0  0  0
  181.2690  179.7600  140.0570 C   0  0  0  0  0  2  0  0  0  0  0  0
  181.2670  178.2700  139.6460 C   0  0  1  0  0  3  0  0  0  0  0  0
  179.6330  177.9450  141.5480 C   0  0  0  0  0  2  0  0  0  0  0  0
  179.3200  178.6430  144.1460 C   0  0  0  0  0  1  0  0  0  0  0  0
  179.9230  180.0890  143.2290 S   0  0  0  0  0  0  0  0  0  0  0  0
  180.1070  176.0930  140.0230 N   0  0  0  0  0  2  0  0  0  0  0  0
  178.9310  174.5910  141.7260 N   0  0  0  0  0  0  0  0  0  0  0  0
  179.4630  175.2710  140.9550 C   0  0  0  0  0  0  0  0  0  0  0  0
  1  5  1  6  0  0  0
  1  3  1  0  0  0  0
  3 10  1  0  0  0  0
  4 11  2  0  0  0  0
  5 15  1  0  0  0  0
  6 14  1  0  0  0  0
  7  6  2  0  0  0  0
  8  5  2  0  0  0  0
  9  2  1  0  0  0  0
  9  3  2  0  0  0  0
 10 13  1  0  0  0  0
 10  7  1  6  0  0  0
 11 14  1  0  0  0  0
 11 12  1  0  0  0  0
 13  2  1  6  0  0  0
 13  4  1  0  0  0  0
 15  9  1  0  0  0  0
 16 18  1  0  0  0  0
 17 24  1  1  0  0  0
 17 21  1  0  0  0  0
 18 23  1  1  0  0  0
 19 16  1  0  0  0  0
 20  1  1  0  0  0  0
 20 19  1  1  0  0  0
 20 17  1  0  0  0  0
 21 18  1  0  0  0  0
 23 22  1  0  0  0  0
 24 26  1  0  0  0  0
 26 25  3  0  0  0  0
M  END
>  <MODEL>
3

>  <REMARK>
 VINA RESULT:      -6.5      4.976      7.779
  Name = 
  4 active torsions:
  status: ('A' for Active; 'I' for Inactive)
    1  A    between atoms: C_2  and  C_15
    2  A    between atoms: C_4  and  N_12
    3  A    between atoms: S_6  and  C_8
    4  A    between atoms: C_10  and  N_12
                            x       y       z     vdW  Elec       q    Type
                         _______ _______ _______ _____ _____    ______ ____

>  <TORSDO>
F 4

$$$$
=
 OpenBabel10222416093D

 26 29  0  0  1  0  0  0  0  0999 V2000
  190.4220  175.8420  137.7890 C   0  0  2  0  0  3  0  0  0  0  0  0
  192.9650  177.2110  139.8770 C   0  0  0  0  0  2  0  0  0  0  0  0
  191.0080  176.6930  138.8640 C   0  0  0  0  0  0  0  0  0  0  0  0
  191.9270  177.0930  142.0630 N   0  0  0  0  0  0  0  0  0  0  0  0
  191.7280  175.3640  137.1680 C   0  0  0  0  0  0  0  0  0  0  0  0
  188.8600  177.6480  141.6880 C   0  0  0  0  0  3  0  0  0  0  0  0
  189.2260  177.3300  140.4470 C   0  0  0  0  0  3  0  0  0  0  0  0
  191.7750  174.5570  136.2030 O   0  0  0  0  0  0  0  0  0  0  0  0
  192.4010  176.6990  138.8000 C   0  0  0  0  0  0  0  0  0  0  0  0
  190.6120  177.1950  140.0120 C   0  0  2  0  0  3  0  0  0  0  0  0
  191.0300  177.1480  143.0010 C   0  0  0  0  0  0  0  0  0  0  0  0
  191.3500  176.6160  144.2810 N   0  0  0  0  0  1  0  0  0  0  0  0
  191.8230  177.7040  140.7480 C   0  0  2  0  0  3  0  0  0  0  0  0
  189.7410  177.7560  142.8180 N   0  0  0  0  0  2  0  0  0  0  0  0
  192.9240  175.8760  137.7800 N   0  0  0  0  0  2  0  0  0  0  0  0
  187.9590  178.5810  136.6300 C   0  0  0  0  0  2  0  0  0  0  0  0
  188.2910  175.8620  136.3500 C   0  0  2  0  0  3  0  0  0  0  0  0
  186.8250  177.7280  137.2230 C   0  0  1  0  0  3  0  0  0  0  0  0
  189.3300  178.0860  137.0930 C   0  0  0  0  0  2  0  0  0  0  0  0
  189.5930  176.6070  136.7290 C   0  0  1  0  0  3  0  0  0  0  0  0
  187.1590  176.2320  137.3020 C   0  0  0  0  0  2  0  0  0  0  0  0
  184.5950  178.2420  138.5190 C   0  0  0  0  0  1  0  0  0  0  0  0
  186.3730  178.3310  138.8760 S   0  0  0  0  0  0  0  0  0  0  0  0
  188.4680  174.4210  136.3080 N   0  0  0  0  0  2  0  0  0  0  0  0
  186.6420  172.8780  137.2170 N   0  0  0  0  0  0  0  0  0  0  0  0
  187.4680  173.5760  136.8060 C   0  0  0  0  0  0  0  0  0  0  0  0
  1  5  1  6  0  0  0
  1  3  1  0  0  0  0
  3 10  1  0  0  0  0
  4 11  2  0  0  0  0
  5 15  1  0  0  0  0
  6 14  1  0  0  0  0
  7  6  2  0  0  0  0
  8  5  2  0  0  0  0
  9  3  2  0  0  0  0
  9  2  1  0  0  0  0
 10  7  1  6  0  0  0
 10 13  1  0  0  0  0
 11 12  1  0  0  0  0
 13  2  1  6  0  0  0
 13  4  1  0  0  0  0
 14 11  1  0  0  0  0
 15  9  1  0  0  0  0
 16 19  1  0  0  0  0
 16 18  1  0  0  0  0
 17 24  1  1  0  0  0
 17 20  1  0  0  0  0
 17 21  1  0  0  0  0
 18 21  1  0  0  0  0
 18 23  1  1  0  0  0
 20 19  1  1  0  0  0
 20  1  1  0  0  0  0
 22 23  1  0  0  0  0
 24 26  1  0  0  0  0
 26 25  3  0  0  0  0
M  END
>  <MODEL>
4

>  <REMARK>
 VINA RESULT:      -6.1      4.396      7.112
  Name = 
  4 active torsions:
  status: ('A' for Active; 'I' for Inactive)
    1  A    between atoms: C_2  and  C_15
    2  A    between atoms: C_4  and  N_12
    3  A    between atoms: S_6  and  C_8
    4  A    between atoms: C_10  and  N_12
                            x       y       z     vdW  Elec       q    Type
                         _______ _______ _______ _____ _____    ______ ____

>  <TORSDO>
F 4

$$$$
=
 OpenBabel10222416093D

 26 29  0  0  1  0  0  0  0  0999 V2000
  188.6660  177.3110  145.8500 C   0  0  2  0  0  3  0  0  0  0  0  0
  185.8310  179.1660  146.9520 C   0  0  0  0  0  2  0  0  0  0  0  0
  187.5010  178.2350  145.7420 C   0  0  0  0  0  0  0  0  0  0  0  0
  184.2290  178.7180  145.1900 N   0  0  0  0  0  0  0  0  0  0  0  0
  188.6910  177.1840  147.3670 C   0  0  0  0  0  0  0  0  0  0  0  0
  185.8180  178.5360  142.4890 C   0  0  0  0  0  3  0  0  0  0  0  0
  186.7920  178.3640  143.3820 C   0  0  0  0  0  3  0  0  0  0  0  0
  189.5080  176.4510  147.9830 O   0  0  0  0  0  0  0  0  0  0  0  0
  187.0090  178.5770  147.0010 C   0  0  0  0  0  0  0  0  0  0  0  0
  186.6360  178.5830  144.8160 C   0  0  2  0  0  3  0  0  0  0  0  0
  183.7280  178.5200  144.0080 C   0  0  0  0  0  0  0  0  0  0  0  0
  182.3950  178.0310  143.9090 N   0  0  0  0  0  1  0  0  0  0  0  0
  185.5130  179.3370  145.4780 C   0  0  2  0  0  3  0  0  0  0  0  0
  184.4410  178.8080  142.7960 N   0  0  0  0  0  2  0  0  0  0  0  0
  187.6870  177.9440  148.0640 N   0  0  0  0  0  2  0  0  0  0  0  0
  191.0460  178.7470  143.1700 C   0  0  0  0  0  2  0  0  0  0  0  0
  191.0770  176.8000  145.1160 C   0  0  2  0  0  3  0  0  0  0  0  0
  191.2240  177.3130  142.6450 C   0  0  1  0  0  3  0  0  0  0  0  0
  189.8710  178.8440  144.1430 C   0  0  0  0  0  2  0  0  0  0  0  0
  190.0120  177.8960  145.3560 C   0  0  1  0  0  3  0  0  0  0  0  0
  190.9640  176.2340  143.7050 C   0  0  0  0  0  2  0  0  0  0  0  0
  191.5090  177.2220  140.0320 C   0  0  0  0  0  1  0  0  0  0  0  0
  190.1450  177.0210  141.2120 S   0  0  0  0  0  0  0  0  0  0  0  0
  191.0060  175.7320  146.0980 N   0  0  0  0  0  2  0  0  0  0  0  0
  192.9290  175.3750  147.7460 N   0  0  0  0  0  0  0  0  0  0  0  0
  192.0580  175.5360  147.0000 C   0  0  0  0  0  0  0  0  0  0  0  0
  1  3  1  1  0  0  0
  1  5  1  0  0  0  0
  2  9  1  0  0  0  0
  3  9  2  0  0  0  0
  4 13  1  0  0  0  0
  5  8  2  0  0  0  0
  5 15  1  0  0  0  0
  6 14  1  0  0  0  0
  6  7  2  0  0  0  0
  9 15  1  0  0  0  0
 10  7  1  6  0  0  0
 10 13  1  0  0  0  0
 10  3  1  0  0  0  0
 11  4  2  0  0  0  0
 12 11  1  0  0  0  0
 13  2  1  1  0  0  0
 14 11  1  0  0  0  0
 16 19  1  0  0  0  0
 17 20  1  0  0  0  0
 17 24  1  1  0  0  0
 18 23  1  6  0  0  0
 18 16  1  0  0  0  0
 18 21  1  0  0  0  0
 20 19  1  6  0  0  0
 20  1  1  0  0  0  0
 21 17  1  0  0  0  0
 22 23  1  0  0  0  0
 24 26  1  0  0  0  0
 26 25  3  0  0  0  0
M  END
>  <MODEL>
5

>  <REMARK>
 VINA RESULT:      -6.0      2.916      5.095
  Name = 
  4 active torsions:
  status: ('A' for Active; 'I' for Inactive)
    1  A    between atoms: C_2  and  C_15
    2  A    between atoms: C_4  and  N_12
    3  A    between atoms: S_6  and  C_8
    4  A    between atoms: C_10  and  N_12
                            x       y       z     vdW  Elec       q    Type
                         _______ _______ _______ _____ _____    ______ ____

>  <TORSDO>
F 4

$$$$
=
 OpenBabel10222416093D

 26 29  0  0  1  0  0  0  0  0999 V2000
  182.1320  176.3990  138.9880 C   0  0  2  0  0  3  0  0  0  0  0  0
  185.0000  178.2530  137.9720 C   0  0  0  0  0  2  0  0  0  0  0  0
  183.1560  177.4810  139.0340 C   0  0  0  0  0  0  0  0  0  0  0  0
  186.1350  178.6070  140.0840 N   0  0  0  0  0  0  0  0  0  0  0  0
  182.5010  175.8200  137.6290 C   0  0  0  0  0  0  0  0  0  0  0  0
  183.9340  179.0010  142.2870 C   0  0  0  0  0  3  0  0  0  0  0  0
  183.2330  178.4210  141.3140 C   0  0  0  0  0  3  0  0  0  0  0  0
  181.9260  174.8190  137.1280 O   0  0  0  0  0  0  0  0  0  0  0  0
  183.9220  177.5010  137.8690 C   0  0  0  0  0  0  0  0  0  0  0  0
  183.7300  178.2200  139.9570 C   0  0  2  0  0  3  0  0  0  0  0  0
  186.3350  178.8530  141.3440 C   0  0  0  0  0  0  0  0  0  0  0  0
  187.6330  178.6280  141.8820 N   0  0  0  0  0  1  0  0  0  0  0  0
  184.9210  178.9050  139.3400 C   0  0  2  0  0  3  0  0  0  0  0  0
  185.3180  179.3780  142.2120 N   0  0  0  0  0  2  0  0  0  0  0  0
  183.5860  176.4810  136.9530 N   0  0  0  0  0  2  0  0  0  0  0  0
  179.2890  178.8760  139.8210 C   0  0  0  0  0  2  0  0  0  0  0  0
  179.7850  176.1750  140.0150 C   0  0  2  0  0  3  0  0  0  0  0  0
  179.3110  178.3260  141.2570 C   0  0  1  0  0  3  0  0  0  0  0  0
  180.5190  178.4270  139.0320 C   0  0  0  0  0  2  0  0  0  0  0  0
  180.6630  176.8890  138.9620 C   0  0  1  0  0  3  0  0  0  0  0  0
  179.8560  176.8940  141.3570 C   0  0  0  0  0  2  0  0  0  0  0  0
  179.3020  180.8780  141.8920 C   0  0  0  0  0  1  0  0  0  0  0  0
  180.2790  179.4160  142.3410 S   0  0  0  0  0  0  0  0  0  0  0  0
  180.1350  174.7730  140.1720 N   0  0  0  0  0  2  0  0  0  0  0  0
  179.1380  173.4100  142.0930 N   0  0  0  0  0  0  0  0  0  0  0  0
  179.5890  174.0270  141.2230 C   0  0  0  0  0  0  0  0  0  0  0  0
  1  5  1  6  0  0  0
  1  3  1  0  0  0  0
  3 10  1  0  0  0  0
  4 11  2  0  0  0  0
  7  6  2  0  0  0  0
  8  5  2  0  0  0  0
  9  2  1  0  0  0  0
  9  3  2  0  0  0  0
 10  7  1  6  0  0  0
 11 12  1  0  0  0  0
 11 14  1  0  0  0  0
 13  2  1  6  0  0  0
 13 10  1  0  0  0  0
 13  4  1  0  0  0  0
 14  6  1  0  0  0  0
 15  5  1  0  0  0  0
 15  9  1  0  0  0  0
 16 18  1  0  0  0  0
 17 24  1  1  0  0  0
 17 21  1  0  0  0  0
 18 21  1  0  0  0  0
 18 23  1  1  0  0  0
 19 16  1  0  0  0  0
 20  1  1  0  0  0  0
 20 19  1  1  0  0  0
 20 17  1  0  0  0  0
 22 23  1  0  0  0  0
 24 26  1  0  0  0  0
 26 25  3  0  0  0  0
M  END
>  <MODEL>
6

>  <REMARK>
 VINA RESULT:      -5.8      5.671      8.623
  Name = 
  4 active torsions:
  status: ('A' for Active; 'I' for Inactive)
    1  A    between atoms: C_2  and  C_15
    2  A    between atoms: C_4  and  N_12
    3  A    between atoms: S_6  and  C_8
    4  A    between atoms: C_10  and  N_12
                            x       y       z     vdW  Elec       q    Type
                         _______ _______ _______ _____ _____    ______ ____

>  <TORSDO>
F 4

$$$$
=
 OpenBabel10222416093D

 26 29  0  0  1  0  0  0  0  0999 V2000
  183.4210  177.7530  139.3330 C   0  0  2  0  0  3  0  0  0  0  0  0
  186.3680  179.0120  140.8900 C   0  0  0  0  0  2  0  0  0  0  0  0
  184.2370  178.4730  140.3520 C   0  0  0  0  0  0  0  0  0  0  0  0
  185.9850  178.4400  143.2130 N   0  0  0  0  0  0  0  0  0  0  0  0
  184.5260  177.5140  138.3130 C   0  0  0  0  0  0  0  0  0  0  0  0
  182.9100  178.7400  143.7680 C   0  0  0  0  0  3  0  0  0  0  0  0
  182.9340  178.6650  142.4380 C   0  0  0  0  0  3  0  0  0  0  0  0
  184.3460  176.8830  137.2390 O   0  0  0  0  0  0  0  0  0  0  0  0
  185.5550  178.6280  139.9260 C   0  0  0  0  0  0  0  0  0  0  0  0
  184.1490  178.7410  141.6360 C   0  0  2  0  0  3  0  0  0  0  0  0
  185.3810  178.2530  144.3480 C   0  0  0  0  0  0  0  0  0  0  0  0
  186.0720  177.5550  145.3780 N   0  0  0  0  0  1  0  0  0  0  0  0
  185.4890  179.2420  142.1060 C   0  0  2  0  0  3  0  0  0  0  0  0
  184.0630  178.7510  144.6260 N   0  0  0  0  0  2  0  0  0  0  0  0
  185.8180  178.0370  138.6710 N   0  0  0  0  0  2  0  0  0  0  0  0
  180.7680  180.5590  139.3110 C   0  0  0  0  0  2  0  0  0  0  0  0
  180.9240  177.8720  138.7310 C   0  0  2  0  0  3  0  0  0  0  0  0
  179.8930  179.6570  140.1960 C   0  0  1  0  0  3  0  0  0  0  0  0
  182.2030  180.0380  139.2300 C   0  0  0  0  0  2  0  0  0  0  0  0
  182.2920  178.5930  138.6880 C   0  0  1  0  0  3  0  0  0  0  0  0
  180.2010  178.1610  140.0420 C   0  0  0  0  0  2  0  0  0  0  0  0
  179.2630  178.6000  142.5200 C   0  0  0  0  0  1  0  0  0  0  0  0
  180.0550  180.1280  141.9430 S   0  0  0  0  0  0  0  0  0  0  0  0
  181.0440  176.4390  138.5240 N   0  0  0  0  0  2  0  0  0  0  0  0
  179.9080  174.8100  140.1350 N   0  0  0  0  0  0  0  0  0  0  0  0
  180.4220  175.5480  139.4060 C   0  0  0  0  0  0  0  0  0  0  0  0
  1  5  1  6  0  0  0
  1  3  1  0  0  0  0
  3 10  1  0  0  0  0
  4 11  2  0  0  0  0
  5 15  1  0  0  0  0
  6 14  1  0  0  0  0
  7  6  2  0  0  0  0
  8  5  2  0  0  0  0
  9  3  2  0  0  0  0
  9  2  1  0  0  0  0
 10 13  1  0  0  0  0
 10  7  1  6  0  0  0
 11 14  1  0  0  0  0
 11 12  1  0  0  0  0
 13  2  1  6  0  0  0
 13  4  1  0  0  0  0
 15  9  1  0  0  0  0
 16 18  1  0  0  0  0
 17 24  1  1  0  0  0
 17 21  1  0  0  0  0
 18 23  1  1  0  0  0
 19 16  1  0  0  0  0
 20 17  1  0  0  0  0
 20 19  1  1  0  0  0
 20  1  1  0  0  0  0
 21 18  1  0  0  0  0
 23 22  1  0  0  0  0
 24 26  1  0  0  0  0
 26 25  3  0  0  0  0
M  END
>  <MODEL>
7

>  <REMARK>
 VINA RESULT:      -5.7      4.885      7.513
  Name = 
  4 active torsions:
  status: ('A' for Active; 'I' for Inactive)
    1  A    between atoms: C_2  and  C_15
    2  A    between atoms: C_4  and  N_12
    3  A    between atoms: S_6  and  C_8
    4  A    between atoms: C_10  and  N_12
                            x       y       z     vdW  Elec       q    Type
                         _______ _______ _______ _____ _____    ______ ____

>  <TORSDO>
F 4

$$$$
=
 OpenBabel10222416093D

 26 29  0  0  1  0  0  0  0  0999 V2000
  185.9840  177.5480  138.1720 C   0  0  2  0  0  3  0  0  0  0  0  0
  183.2400  176.1880  136.3520 C   0  0  0  0  0  2  0  0  0  0  0  0
  185.2790  176.6390  137.2240 C   0  0  0  0  0  0  0  0  0  0  0  0
  183.5780  173.8070  136.6510 N   0  0  0  0  0  0  0  0  0  0  0  0
  184.8450  178.5310  138.4030 C   0  0  0  0  0  0  0  0  0  0  0  0
  186.6730  173.2850  136.6710 C   0  0  0  0  0  3  0  0  0  0  0  0
  186.6230  174.5930  136.9200 C   0  0  0  0  0  3  0  0  0  0  0  0
  184.9310  179.5100  139.1910 O   0  0  0  0  0  0  0  0  0  0  0  0
  183.9850  177.0880  136.9620 C   0  0  0  0  0  0  0  0  0  0  0  0
  185.4170  175.4030  136.7990 C   0  0  2  0  0  3  0  0  0  0  0  0
  184.1680  172.6550  136.7590 C   0  0  0  0  0  0  0  0  0  0  0  0
  183.4090  171.5430  137.2190 N   0  0  0  0  0  1  0  0  0  0  0  0
  184.1560  175.0100  136.0740 C   0  0  2  0  0  3  0  0  0  0  0  0
  185.5420  172.4420  136.3990 N   0  0  0  0  0  2  0  0  0  0  0  0
  183.6340  178.2530  137.6780 N   0  0  0  0  0  2  0  0  0  0  0  0
  189.0550  177.8780  135.8540 C   0  0  0  0  0  2  0  0  0  0  0  0
  188.4340  178.2530  138.5100 C   0  0  2  0  0  3  0  0  0  0  0  0
  189.8150  176.9640  136.8290 C   0  0  1  0  0  3  0  0  0  0  0  0
  187.5520  177.8660  136.1330 C   0  0  0  0  0  2  0  0  0  0  0  0
  187.2020  178.2960  137.5760 C   0  0  1  0  0  3  0  0  0  0  0  0
  189.2590  176.9960  138.2600 C   0  0  0  0  0  2  0  0  0  0  0  0
  191.1590  174.7630  137.3470 C   0  0  0  0  0  1  0  0  0  0  0  0
  189.8190  175.2510  136.2240 S   0  0  0  0  0  0  0  0  0  0  0  0
  188.0710  178.3510  139.9130 N   0  0  0  0  0  2  0  0  0  0  0  0
  189.6690  177.4870  141.7130 N   0  0  0  0  0  0  0  0  0  0  0  0
  188.9460  177.8780  140.8990 C   0  0  0  0  0  0  0  0  0  0  0  0
  1  3  1  6  0  0  0
  1  5  1  0  0  0  0
  2  9  1  0  0  0  0
  4 11  2  0  0  0  0
  5  8  2  0  0  0  0
  6  7  2  0  0  0  0
  9  3  2  0  0  0  0
  9 15  1  0  0  0  0
 10  7  1  6  0  0  0
 10  3  1  0  0  0  0
 11 12  1  0  0  0  0
 13  2  1  1  0  0  0
 13  4  1  0  0  0  0
 13 10  1  0  0  0  0
 14  6  1  0  0  0  0
 14 11  1  0  0  0  0
 15  5  1  0  0  0  0
 16 19  1  0  0  0  0
 16 18  1  0  0  0  0
 17 24  1  1  0  0  0
 18 23  1  6  0  0  0
 18 21  1  0  0  0  0
 20 19  1  6  0  0  0
 20  1  1  0  0  0  0
 20 17  1  0  0  0  0
 21 17  1  0  0  0  0
 23 22  1  0  0  0  0
 24 26  1  0  0  0  0
 26 25  3  0  0  0  0
M  END
>  <MODEL>
8

>  <REMARK>
 VINA RESULT:      -5.5      5.056      8.037
  Name = 
  4 active torsions:
  status: ('A' for Active; 'I' for Inactive)
    1  A    between atoms: C_2  and  C_15
    2  A    between atoms: C_4  and  N_12
    3  A    between atoms: S_6  and  C_8
    4  A    between atoms: C_10  and  N_12
                            x       y       z     vdW  Elec       q    Type
                         _______ _______ _______ _____ _____    ______ ____

>  <TORSDO>
F 4

$$$$
=
 OpenBabel10222416093D

 26 29  0  0  1  0  0  0  0  0999 V2000
  187.4640  177.6910  142.6590 C   0  0  2  0  0  3  0  0  0  0  0  0
  187.2540  178.4690  139.1880 C   0  0  0  0  0  2  0  0  0  0  0  0
  187.9530  177.9150  141.2690 C   0  0  0  0  0  0  0  0  0  0  0  0
  188.6170  176.7230  138.2060 N   0  0  0  0  0  0  0  0  0  0  0  0
  186.0470  178.2140  142.4680 C   0  0  0  0  0  0  0  0  0  0  0  0
  190.9830  176.1410  140.1850 C   0  0  0  0  0  3  0  0  0  0  0  0
  190.1180  176.7680  140.9820 C   0  0  0  0  0  3  0  0  0  0  0  0
  185.1820  178.2070  143.3830 O   0  0  0  0  0  0  0  0  0  0  0  0
  186.9670  178.5000  140.4750 C   0  0  0  0  0  0  0  0  0  0  0  0
  188.9260  177.4620  140.5100 C   0  0  2  0  0  3  0  0  0  0  0  0
  189.5840  175.8740  138.0290 C   0  0  0  0  0  0  0  0  0  0  0  0
  189.4400  174.8810  137.0200 N   0  0  0  0  0  1  0  0  0  0  0  0
  188.6490  177.8780  139.0890 C   0  0  2  0  0  3  0  0  0  0  0  0
  190.8090  175.9130  138.7770 N   0  0  0  0  0  2  0  0  0  0  0  0
  185.7420  178.6980  141.1480 N   0  0  0  0  0  2  0  0  0  0  0  0
  190.5570  178.8490  144.6600 C   0  0  0  0  0  2  0  0  0  0  0  0
  188.0130  177.9240  145.1610 C   0  0  2  0  0  3  0  0  0  0  0  0
  190.4950  177.5120  145.4160 C   0  0  1  0  0  3  0  0  0  0  0  0
  189.6630  178.8320  143.4200 C   0  0  0  0  0  2  0  0  0  0  0  0
  188.1830  178.5270  143.7470 C   0  0  1  0  0  3  0  0  0  0  0  0
  189.0940  176.8850  145.4400 C   0  0  0  0  0  2  0  0  0  0  0  0
  192.1080  175.6500  146.3350 C   0  0  0  0  0  1  0  0  0  0  0  0
  191.6730  176.3250  144.7070 S   0  0  0  0  0  0  0  0  0  0  0  0
  186.6940  177.3500  145.3650 N   0  0  0  0  0  2  0  0  0  0  0  0
  185.0470  178.4630  146.9750 N   0  0  0  0  0  0  0  0  0  0  0  0
  185.7930  177.9590  146.2460 C   0  0  0  0  0  0  0  0  0  0  0  0
  1  3  1  6  0  0  0
  1 20  1  0  0  0  0
  2  9  1  0  0  0  0
  4 13  1  0  0  0  0
  5  1  1  0  0  0  0
  5  8  2  0  0  0  0
  6  7  2  0  0  0  0
  9 15  1  0  0  0  0
  9  3  2  0  0  0  0
 10  7  1  1  0  0  0
 10  3  1  0  0  0  0
 11  4  2  0  0  0  0
 11 14  1  0  0  0  0
 12 11  1  0  0  0  0
 13  2  1  1  0  0  0
 13 10  1  0  0  0  0
 14  6  1  0  0  0  0
 15  5  1  0  0  0  0
 16 18  1  0  0  0  0
 17 24  1  6  0  0  0
 17 21  1  0  0  0  0
 18 23  1  6  0  0  0
 18 21  1  0  0  0  0
 19 16  1  0  0  0  0
 20 19  1  6  0  0  0
 20 17  1  0  0  0  0
 23 22  1  0  0  0  0
 24 26  1  0  0  0  0
 26 25  3  0  0  0  0
M  END
>  <MODEL>
9

>  <REMARK>
 VINA RESULT:      -5.5      1.912      6.202
  Name = 
  4 active torsions:
  status: ('A' for Active; 'I' for Inactive)
    1  A    between atoms: C_2  and  C_15
    2  A    between atoms: C_4  and  N_12
    3  A    between atoms: S_6  and  C_8
    4  A    between atoms: C_10  and  N_12
                            x       y       z     vdW  Elec       q    Type
                         _______ _______ _______ _____ _____    ______ ____

>  <TORSDO>
F 4

$$$$
