=
 OpenBabel10222421093D

 29 32  0  0  1  0  0  0  0  0999 V2000
  187.4080  177.3640  137.9730 C   0  0  0  0  0  1  0  0  0  0  0  0
  188.9710  177.6970  142.1370 C   0  0  2  0  0  3  0  0  0  0  0  0
  187.7620  178.2420  139.1570 C   0  0  2  0  0  3  0  0  0  0  0  0
  189.2830  178.4640  139.2100 C   0  0  0  0  0  2  0  0  0  0  0  0
  189.8210  176.9210  141.1580 C   0  0  0  0  0  0  0  0  0  0  0  0
  187.7350  178.3830  141.5330 C   0  0  1  0  0  3  0  0  0  0  0  0
  190.4290  175.9030  141.5880 O   0  0  0  0  0  0  0  0  0  0  0  0
  190.9080  176.5970  138.9200 C   0  0  0  0  0  1  0  0  0  0  0  0
  187.2260  177.6440  140.3810 N   0  0  0  0  0  2  0  0  0  0  0  0
  189.9810  177.3150  139.7800 N   0  0  0  0  0  0  0  0  0  0  0  0
  186.6610  178.5720  142.5570 C   0  0  0  0  0  0  0  0  0  0  0  0
  184.3830  179.2710  143.1600 C   0  0  0  0  0  3  0  0  0  0  0  0
  185.7710  178.0640  146.1400 C   0  0  0  0  0  0  0  0  0  0  0  0
  185.4010  179.1190  142.1990 C   0  0  0  0  0  3  0  0  0  0  0  0
  183.8570  178.9170  145.5340 N   0  0  0  0  0  2  0  0  0  0  0  0
  184.6650  178.8640  144.4600 C   0  0  0  0  0  0  0  0  0  0  0  0
  184.5370  178.4240  146.5670 N   0  0  0  0  0  0  0  0  0  0  0  0
  185.8770  178.3370  144.8020 C   0  0  0  0  0  0  0  0  0  0  0  0
  186.9080  178.1670  143.8830 C   0  0  0  0  0  3  0  0  0  0  0  0
  187.4310  178.2810  147.9310 C   0  0  0  0  0  1  0  0  0  0  0  0
  186.7650  177.5110  146.9420 O   0  0  0  0  0  0  0  0  0  0  0  0
  189.7600  178.6340  142.8110 O   0  0  0  0  0  0  0  0  0  0  0  0
  190.8920  177.9170  143.2240 C   0  0  2  0  0  3  0  0  0  0  0  0
  191.3250  180.0640  144.2760 O   0  0  0  0  0  1  0  0  0  0  0  0
  189.7940  178.2490  145.4240 O   0  0  0  0  0  1  0  0  0  0  0  0
  190.8990  177.7370  144.7290 C   0  0  2  0  0  0  0  0  0  0  0  0
  191.8240  178.7680  144.1060 C   0  0  1  0  0  3  0  0  0  0  0  0
  191.5590  176.4780  145.2560 C   0  0  0  0  0  2  0  0  0  0  0  0
  191.5820  176.4930  146.7730 C   0  0  0  0  0  1  0  0  0  0  0  0
  2 22  1  6  0  0  0
  3  1  1  6  0  0  0
  3  4  1  0  0  0  0
  3  9  1  0  0  0  0
  4 10  1  0  0  0  0
  5  7  2  0  0  0  0
  5  2  1  0  0  0  0
  6  2  1  0  0  0  0
  6 11  1  1  0  0  0
  8 10  1  0  0  0  0
  9  6  1  0  0  0  0
 10  5  1  0  0  0  0
 11 19  1  0  0  0  0
 12 16  2  0  0  0  0
 13 17  2  0  0  0  0
 13 21  1  0  0  0  0
 14 11  2  0  0  0  0
 14 12  1  0  0  0  0
 15 17  1  0  0  0  0
 16 18  1  0  0  0  0
 16 15  1  0  0  0  0
 18 13  1  0  0  0  0
 19 18  2  0  0  0  0
 21 20  1  0  0  0  0
 23 22  1  1  0  0  0
 23 27  1  0  0  0  0
 23 26  1  0  0  0  0
 26 28  1  0  0  0  0
 26 25  1  1  0  0  0
 27 24  1  1  0  0  0
 27 26  1  0  0  0  0
 28 29  1  0  0  0  0
M  END
>  <MODEL>
1

>  <REMARK>
 VINA RESULT:      -8.8      0.000      0.000
  Name = 
  5 active torsions:
  status: ('A' for Active; 'I' for Inactive)
    1  A    between atoms: C_1  and  C_11
    2  A    between atoms: C_2  and  C_20
    3  A    between atoms: C_5  and  O_26
    4  A    between atoms: C_8  and  O_19
    5  A    between atoms: C_10  and  O_26
                            x       y       z     vdW  Elec       q    Type
                         _______ _______ _______ _____ _____    ______ ____

>  <TORSDO>
F 5

$$$$
=
 OpenBabel10222421093D

 29 32  0  0  1  0  0  0  0  0999 V2000
  187.6550  177.4050  137.8280 C   0  0  0  0  0  1  0  0  0  0  0  0
  188.8960  177.5840  142.1090 C   0  0  2  0  0  3  0  0  0  0  0  0
  187.8800  178.2320  139.0780 C   0  0  2  0  0  3  0  0  0  0  0  0
  189.3810  178.5190  139.2560 C   0  0  0  0  0  2  0  0  0  0  0  0
  189.8510  176.9000  141.1580 C   0  0  0  0  0  0  0  0  0  0  0  0
  187.6750  178.2450  141.4500 C   0  0  1  0  0  3  0  0  0  0  0  0
  190.4760  175.8880  141.5800 O   0  0  0  0  0  0  0  0  0  0  0  0
  191.1110  176.7450  138.9930 C   0  0  0  0  0  1  0  0  0  0  0  0
  187.2870  177.5460  140.2280 N   0  0  0  0  0  2  0  0  0  0  0  0
  190.0910  177.3740  139.8180 N   0  0  0  0  0  0  0  0  0  0  0  0
  186.5230  178.3300  142.4000 C   0  0  0  0  0  0  0  0  0  0  0  0
  185.6410  178.3220  144.6940 C   0  0  0  0  0  3  0  0  0  0  0  0
  182.8450  178.8680  142.6590 C   0  0  0  0  0  0  0  0  0  0  0  0
  186.7240  178.2160  143.8000 C   0  0  0  0  0  3  0  0  0  0  0  0
  183.2110  178.6760  144.8000 N   0  0  0  0  0  2  0  0  0  0  0  0
  184.3810  178.5450  144.1480 C   0  0  0  0  0  0  0  0  0  0  0  0
  182.2660  178.8750  143.8830 N   0  0  0  0  0  0  0  0  0  0  0  0
  184.1900  178.6570  142.8010 C   0  0  0  0  0  0  0  0  0  0  0  0
  185.2320  178.5610  141.8850 C   0  0  0  0  0  3  0  0  0  0  0  0
  180.7670  178.8420  141.3570 C   0  0  0  0  0  1  0  0  0  0  0  0
  182.1690  179.0430  141.4540 O   0  0  0  0  0  0  0  0  0  0  0  0
  189.5880  178.5170  142.8860 O   0  0  0  0  0  0  0  0  0  0  0  0
  190.7570  177.8540  143.2850 C   0  0  2  0  0  3  0  0  0  0  0  0
  191.1780  180.0690  144.1920 O   0  0  0  0  0  1  0  0  0  0  0  0
  189.7510  178.2850  145.5120 O   0  0  0  0  0  1  0  0  0  0  0  0
  190.8370  177.7620  144.7970 C   0  0  2  0  0  0  0  0  0  0  0  0
  191.7050  178.7770  144.0730 C   0  0  1  0  0  3  0  0  0  0  0  0
  191.5550  176.5520  145.3630 C   0  0  0  0  0  2  0  0  0  0  0  0
  191.4150  176.5190  146.8730 C   0  0  0  0  0  1  0  0  0  0  0  0
  2 22  1  6  0  0  0
  3  1  1  6  0  0  0
  3  4  1  0  0  0  0
  3  9  1  0  0  0  0
  4 10  1  0  0  0  0
  5  7  2  0  0  0  0
  5  2  1  0  0  0  0
  6  2  1  0  0  0  0
  6 11  1  1  0  0  0
  8 10  1  0  0  0  0
  9  6  1  0  0  0  0
 10  5  1  0  0  0  0
 11 14  1  0  0  0  0
 13 18  1  0  0  0  0
 13 17  2  0  0  0  0
 14 12  2  0  0  0  0
 16 12  1  0  0  0  0
 16 15  1  0  0  0  0
 17 15  1  0  0  0  0
 18 16  2  0  0  0  0
 19 11  2  0  0  0  0
 19 18  1  0  0  0  0
 20 21  1  0  0  0  0
 21 13  1  0  0  0  0
 23 22  1  1  0  0  0
 23 27  1  0  0  0  0
 23 26  1  0  0  0  0
 26 28  1  0  0  0  0
 26 25  1  1  0  0  0
 27 24  1  1  0  0  0
 27 26  1  0  0  0  0
 28 29  1  0  0  0  0
M  END
>  <MODEL>
2

>  <REMARK>
 VINA RESULT:      -8.0      1.672      2.634
  Name = 
  5 active torsions:
  status: ('A' for Active; 'I' for Inactive)
    1  A    between atoms: C_1  and  C_11
    2  A    between atoms: C_2  and  C_20
    3  A    between atoms: C_5  and  O_26
    4  A    between atoms: C_8  and  O_19
    5  A    between atoms: C_10  and  O_26
                            x       y       z     vdW  Elec       q    Type
                         _______ _______ _______ _____ _____    ______ ____

>  <TORSDO>
F 5

$$$$
=
 OpenBabel10222421093D

 29 32  0  0  1  0  0  0  0  0999 V2000
  179.0410  179.1580  143.9970 C   0  0  0  0  0  1  0  0  0  0  0  0
  182.7310  178.3210  141.6350 C   0  0  2  0  0  3  0  0  0  0  0  0
  180.3740  179.6420  143.4610 C   0  0  2  0  0  3  0  0  0  0  0  0
  180.2360  180.0260  141.9790 C   0  0  0  0  0  2  0  0  0  0  0  0
  181.4140  178.0180  140.9580 C   0  0  0  0  0  0  0  0  0  0  0  0
  182.6220  179.0030  143.0080 C   0  0  1  0  0  3  0  0  0  0  0  0
  181.3580  177.0010  140.2140 O   0  0  0  0  0  0  0  0  0  0  0  0
  179.0480  178.5770  140.3370 C   0  0  0  0  0  1  0  0  0  0  0  0
  181.3930  178.6170  143.6970 N   0  0  0  0  0  2  0  0  0  0  0  0
  180.2490  178.8530  141.1090 N   0  0  0  0  0  0  0  0  0  0  0  0
  183.8180  178.7120  143.8580 C   0  0  0  0  0  0  0  0  0  0  0  0
  184.8970  178.6080  146.0640 C   0  0  0  0  0  3  0  0  0  0  0  0
  187.3200  177.4390  143.8230 C   0  0  0  0  0  0  0  0  0  0  0  0
  183.7780  178.9070  145.2630 C   0  0  0  0  0  3  0  0  0  0  0  0
  187.2050  177.7670  145.9760 N   0  0  0  0  0  2  0  0  0  0  0  0
  186.0280  178.1150  145.4220 C   0  0  0  0  0  0  0  0  0  0  0  0
  187.9990  177.3510  144.9920 N   0  0  0  0  0  0  0  0  0  0  0  0
  186.0650  177.9260  144.0710 C   0  0  0  0  0  0  0  0  0  0  0  0
  184.9810  178.2060  143.2450 C   0  0  0  0  0  3  0  0  0  0  0  0
  188.5970  178.0090  141.8090 C   0  0  0  0  0  1  0  0  0  0  0  0
  187.8300  177.0920  142.5740 O   0  0  0  0  0  0  0  0  0  0  0  0
  183.5380  179.0810  140.7830 O   0  0  0  0  0  0  0  0  0  0  0  0
  183.3620  178.5060  139.5170 C   0  0  2  0  0  3  0  0  0  0  0  0
  184.1240  180.7270  138.8880 O   0  0  0  0  0  1  0  0  0  0  0  0
  185.8250  178.8030  139.4920 O   0  0  0  0  0  1  0  0  0  0  0  0
  184.6870  178.3860  138.7890 C   0  0  2  0  0  0  0  0  0  0  0  0
  183.7200  179.4850  138.3830 C   0  0  1  0  0  3  0  0  0  0  0  0
  184.8240  177.2260  137.8220 C   0  0  0  0  0  2  0  0  0  0  0  0
  185.9410  177.4980  136.8320 C   0  0  0  0  0  1  0  0  0  0  0  0
  2 22  1  6  0  0  0
  2  6  1  0  0  0  0
  3  9  1  0  0  0  0
  3  1  1  6  0  0  0
  4  3  1  0  0  0  0
  5 10  1  0  0  0  0
  5  2  1  0  0  0  0
  6  9  1  0  0  0  0
  6 11  1  1  0  0  0
  7  5  2  0  0  0  0
  8 10  1  0  0  0  0
 10  4  1  0  0  0  0
 11 14  1  0  0  0  0
 13 18  1  0  0  0  0
 13 17  2  0  0  0  0
 14 12  2  0  0  0  0
 16 15  1  0  0  0  0
 16 12  1  0  0  0  0
 17 15  1  0  0  0  0
 18 16  2  0  0  0  0
 19 11  2  0  0  0  0
 19 18  1  0  0  0  0
 20 21  1  0  0  0  0
 21 13  1  0  0  0  0
 23 22  1  1  0  0  0
 26 25  1  1  0  0  0
 26 23  1  0  0  0  0
 27 26  1  0  0  0  0
 27 24  1  1  0  0  0
 27 23  1  0  0  0  0
 28 26  1  0  0  0  0
 29 28  1  0  0  0  0
M  END
>  <MODEL>
3

>  <REMARK>
 VINA RESULT:      -7.9      3.937      7.384
  Name = 
  5 active torsions:
  status: ('A' for Active; 'I' for Inactive)
    1  A    between atoms: C_1  and  C_11
    2  A    between atoms: C_2  and  C_20
    3  A    between atoms: C_5  and  O_26
    4  A    between atoms: C_8  and  O_19
    5  A    between atoms: C_10  and  O_26
                            x       y       z     vdW  Elec       q    Type
                         _______ _______ _______ _____ _____    ______ ____

>  <TORSDO>
F 5

$$$$
=
 OpenBabel10222421093D

 29 32  0  0  1  0  0  0  0  0999 V2000
  191.6790  177.1310  145.1540 C   0  0  0  0  0  1  0  0  0  0  0  0
  187.8110  177.4710  142.9570 C   0  0  2  0  0  3  0  0  0  0  0  0
  190.7740  177.9340  144.2400 C   0  0  2  0  0  3  0  0  0  0  0  0
  189.6760  178.6280  145.0630 C   0  0  0  0  0  2  0  0  0  0  0  0
  187.7240  177.1280  144.4270 C   0  0  0  0  0  0  0  0  0  0  0  0
  189.2240  177.7860  142.4390 C   0  0  1  0  0  3  0  0  0  0  0  0
  186.8270  176.3190  144.7880 O   0  0  0  0  0  0  0  0  0  0  0  0
  188.3860  177.4320  146.8280 C   0  0  0  0  0  1  0  0  0  0  0  0
  190.2410  177.0590  143.1940 N   0  0  0  0  0  2  0  0  0  0  0  0
  188.5980  177.7090  145.4160 N   0  0  0  0  0  0  0  0  0  0  0  0
  189.3440  177.4990  140.9760 C   0  0  0  0  0  0  0  0  0  0  0  0
  190.5400  176.4650  139.0940 C   0  0  0  0  0  3  0  0  0  0  0  0
  187.6920  177.9160  137.6620 C   0  0  0  0  0  0  0  0  0  0  0  0
  190.4420  176.7570  140.4680 C   0  0  0  0  0  3  0  0  0  0  0  0
  189.4050  176.7780  136.9360 N   0  0  0  0  0  2  0  0  0  0  0  0
  189.5210  176.9300  138.2680 C   0  0  0  0  0  0  0  0  0  0  0  0
  188.2790  177.3840  136.5640 N   0  0  0  0  0  0  0  0  0  0  0  0
  188.4650  177.6430  138.7590 C   0  0  0  0  0  0  0  0  0  0  0  0
  188.3300  177.9490  140.1090 C   0  0  0  0  0  3  0  0  0  0  0  0
  185.2410  177.9650  137.7130 C   0  0  0  0  0  1  0  0  0  0  0  0
  186.4960  178.6280  137.6640 O   0  0  0  0  0  0  0  0  0  0  0  0
  186.9450  178.5280  142.6650 O   0  0  0  0  0  0  0  0  0  0  0  0
  185.6690  177.9490  142.6400 C   0  0  2  0  0  3  0  0  0  0  0  0
  185.1410  180.1290  143.5750 O   0  0  0  0  0  1  0  0  0  0  0  0
  185.3300  179.7530  140.9710 O   0  0  0  0  0  1  0  0  0  0  0  0
  184.7570  178.6900  141.6820 C   0  0  2  0  0  0  0  0  0  0  0  0
  184.5880  178.9060  143.1760 C   0  0  1  0  0  3  0  0  0  0  0  0
  183.6800  177.8670  141.0010 C   0  0  0  0  0  2  0  0  0  0  0  0
  182.3400  178.5710  141.1000 C   0  0  0  0  0  1  0  0  0  0  0  0
  2 22  1  1  0  0  0
  2  5  1  0  0  0  0
  3  4  1  0  0  0  0
  3  1  1  1  0  0  0
  4 10  1  0  0  0  0
  5  7  2  0  0  0  0
  5 10  1  0  0  0  0
  6 11  1  6  0  0  0
  6  2  1  0  0  0  0
  6  9  1  0  0  0  0
  9  3  1  0  0  0  0
 10  8  1  0  0  0  0
 12 14  2  0  0  0  0
 13 21  1  0  0  0  0
 13 18  1  0  0  0  0
 14 11  1  0  0  0  0
 15 16  1  0  0  0  0
 16 18  2  0  0  0  0
 16 12  1  0  0  0  0
 17 15  1  0  0  0  0
 17 13  2  0  0  0  0
 18 19  1  0  0  0  0
 19 11  2  0  0  0  0
 21 20  1  0  0  0  0
 23 22  1  6  0  0  0
 23 27  1  0  0  0  0
 26 25  1  6  0  0  0
 26 23  1  0  0  0  0
 26 27  1  0  0  0  0
 27 24  1  6  0  0  0
 28 29  1  0  0  0  0
 28 26  1  0  0  0  0
M  END
>  <MODEL>
4

>  <REMARK>
 VINA RESULT:      -7.6      2.546      7.084
  Name = 
  5 active torsions:
  status: ('A' for Active; 'I' for Inactive)
    1  A    between atoms: C_1  and  C_11
    2  A    between atoms: C_2  and  C_20
    3  A    between atoms: C_5  and  O_26
    4  A    between atoms: C_8  and  O_19
    5  A    between atoms: C_10  and  O_26
                            x       y       z     vdW  Elec       q    Type
                         _______ _______ _______ _____ _____    ______ ____

>  <TORSDO>
F 5

$$$$
=
 OpenBabel10222421093D

 29 32  0  0  1  0  0  0  0  0999 V2000
  191.7660  177.1560  144.6060 C   0  0  0  0  0  1  0  0  0  0  0  0
  187.6710  177.5130  142.8740 C   0  0  2  0  0  3  0  0  0  0  0  0
  190.7600  177.9700  143.8180 C   0  0  2  0  0  3  0  0  0  0  0  0
  189.7600  178.6400  144.7750 C   0  0  0  0  0  2  0  0  0  0  0  0
  187.7540  177.1410  144.3360 C   0  0  0  0  0  0  0  0  0  0  0  0
  189.0140  177.8470  142.2040 C   0  0  1  0  0  3  0  0  0  0  0  0
  186.9080  176.3190  144.7820 O   0  0  0  0  0  0  0  0  0  0  0  0
  188.6850  177.4030  146.6520 C   0  0  0  0  0  1  0  0  0  0  0  0
  190.1140  177.1120  142.8220 N   0  0  0  0  0  2  0  0  0  0  0  0
  188.7330  177.7080  145.2300 N   0  0  0  0  0  0  0  0  0  0  0  0
  188.9670  177.5890  140.7310 C   0  0  0  0  0  0  0  0  0  0  0  0
  188.0030  178.0340  138.5150 C   0  0  0  0  0  3  0  0  0  0  0  0
  190.5620  175.7150  137.9330 C   0  0  0  0  0  0  0  0  0  0  0  0
  188.0280  178.2580  139.9040 C   0  0  0  0  0  3  0  0  0  0  0  0
  189.0920  176.7660  136.7120 N   0  0  0  0  0  2  0  0  0  0  0  0
  188.9320  177.1380  137.9950 C   0  0  0  0  0  0  0  0  0  0  0  0
  190.0950  175.8920  136.6740 N   0  0  0  0  0  0  0  0  0  0  0  0
  189.8360  176.4950  138.7920 C   0  0  0  0  0  0  0  0  0  0  0  0
  189.8960  176.6920  140.1680 C   0  0  0  0  0  3  0  0  0  0  0  0
  192.7810  174.7720  137.4890 C   0  0  0  0  0  1  0  0  0  0  0  0
  191.6100  174.8690  138.2860 O   0  0  0  0  0  0  0  0  0  0  0  0
  186.7730  178.5700  142.7030 O   0  0  0  0  0  0  0  0  0  0  0  0
  185.5110  177.9620  142.6480 C   0  0  2  0  0  3  0  0  0  0  0  0
  184.9120  180.1310  143.5650 O   0  0  0  0  0  1  0  0  0  0  0  0
  185.1730  179.7550  140.9670 O   0  0  0  0  0  1  0  0  0  0  0  0
  184.6070  178.6810  141.6660 C   0  0  2  0  0  0  0  0  0  0  0  0
  184.3960  178.8960  143.1550 C   0  0  1  0  0  3  0  0  0  0  0  0
  183.5660  177.8320  140.9600 C   0  0  0  0  0  2  0  0  0  0  0  0
  182.2270  178.5450  140.9510 C   0  0  0  0  0  1  0  0  0  0  0  0
  2 22  1  1  0  0  0
  2  5  1  0  0  0  0
  3  1  1  1  0  0  0
  3  4  1  0  0  0  0
  4 10  1  0  0  0  0
  5  7  2  0  0  0  0
  5 10  1  0  0  0  0
  6 11  1  6  0  0  0
  6  9  1  0  0  0  0
  6  2  1  0  0  0  0
  9  3  1  0  0  0  0
 10  8  1  0  0  0  0
 12 14  1  0  0  0  0
 13 21  1  0  0  0  0
 13 18  1  0  0  0  0
 14 11  2  0  0  0  0
 15 16  1  0  0  0  0
 16 12  2  0  0  0  0
 16 18  1  0  0  0  0
 17 15  1  0  0  0  0
 17 13  2  0  0  0  0
 18 19  2  0  0  0  0
 19 11  1  0  0  0  0
 20 21  1  0  0  0  0
 23 22  1  6  0  0  0
 23 27  1  0  0  0  0
 26 25  1  6  0  0  0
 26 23  1  0  0  0  0
 26 27  1  0  0  0  0
 27 24  1  6  0  0  0
 28 26  1  0  0  0  0
 29 28  1  0  0  0  0
M  END
>  <MODEL>
5

>  <REMARK>
 VINA RESULT:      -7.4      2.468      7.229
  Name = 
  5 active torsions:
  status: ('A' for Active; 'I' for Inactive)
    1  A    between atoms: C_1  and  C_11
    2  A    between atoms: C_2  and  C_20
    3  A    between atoms: C_5  and  O_26
    4  A    between atoms: C_8  and  O_19
    5  A    between atoms: C_10  and  O_26
                            x       y       z     vdW  Elec       q    Type
                         _______ _______ _______ _____ _____    ______ ____

>  <TORSDO>
F 5

$$$$
=
 OpenBabel10222421093D

 29 32  0  0  1  0  0  0  0  0999 V2000
  187.3080  178.6100  136.0210 C   0  0  0  0  0  1  0  0  0  0  0  0
  188.4000  177.5030  140.2020 C   0  0  2  0  0  3  0  0  0  0  0  0
  187.6320  179.0500  137.4350 C   0  0  2  0  0  3  0  0  0  0  0  0
  189.1520  179.0030  137.6650 C   0  0  0  0  0  2  0  0  0  0  0  0
  189.2510  176.9090  139.1030 C   0  0  0  0  0  0  0  0  0  0  0  0
  187.3440  178.5190  139.7370 C   0  0  1  0  0  3  0  0  0  0  0  0
  189.6660  175.7280  139.2560 O   0  0  0  0  0  0  0  0  0  0  0  0
  190.5420  177.0610  136.9570 C   0  0  0  0  0  1  0  0  0  0  0  0
  186.8820  178.2250  138.3840 N   0  0  0  0  0  2  0  0  0  0  0  0
  189.6220  177.6450  137.9200 N   0  0  0  0  0  0  0  0  0  0  0  0
  186.1910  178.5790  140.6880 C   0  0  0  0  0  0  0  0  0  0  0  0
  183.7700  178.6430  141.1090 C   0  0  0  0  0  3  0  0  0  0  0  0
  185.2340  178.6090  144.2890 C   0  0  0  0  0  0  0  0  0  0  0  0
  184.8540  178.6120  140.2110 C   0  0  0  0  0  3  0  0  0  0  0  0
  183.2020  178.6660  143.5000 N   0  0  0  0  0  2  0  0  0  0  0  0
  184.0650  178.6370  142.4680 C   0  0  0  0  0  0  0  0  0  0  0  0
  183.9210  178.6480  144.6200 N   0  0  0  0  0  0  0  0  0  0  0  0
  185.3510  178.6040  142.9250 C   0  0  0  0  0  0  0  0  0  0  0  0
  186.4500  178.5700  142.0730 C   0  0  0  0  0  3  0  0  0  0  0  0
  186.0550  178.4790  146.5960 C   0  0  0  0  0  1  0  0  0  0  0  0
  186.2870  178.5830  145.2000 O   0  0  0  0  0  0  0  0  0  0  0  0
  189.2190  178.0740  141.1800 O   0  0  0  0  0  0  0  0  0  0  0  0
  189.4040  177.0590  142.1290 C   0  0  2  0  0  3  0  0  0  0  0  0
  191.7110  177.7020  141.7220 O   0  0  0  0  0  1  0  0  0  0  0  0
  190.2000  179.0020  143.4500 O   0  0  0  0  0  1  0  0  0  0  0  0
  189.9940  177.6170  143.4090 C   0  0  2  0  0  0  0  0  0  0  0  0
  190.8910  176.8410  142.4610 C   0  0  1  0  0  3  0  0  0  0  0  0
  189.6110  176.9090  144.6950 C   0  0  0  0  0  2  0  0  0  0  0  0
  189.6600  177.8780  145.8610 C   0  0  0  0  0  1  0  0  0  0  0  0
  2 22  1  1  0  0  0
  3  1  1  6  0  0  0
  3  4  1  0  0  0  0
  3  9  1  0  0  0  0
  4 10  1  0  0  0  0
  5  7  2  0  0  0  0
  5  2  1  0  0  0  0
  6  2  1  0  0  0  0
  6 11  1  1  0  0  0
  8 10  1  0  0  0  0
  9  6  1  0  0  0  0
 10  5  1  0  0  0  0
 11 19  1  0  0  0  0
 12 16  2  0  0  0  0
 13 17  2  0  0  0  0
 13 21  1  0  0  0  0
 14 11  2  0  0  0  0
 14 12  1  0  0  0  0
 15 17  1  0  0  0  0
 16 18  1  0  0  0  0
 16 15  1  0  0  0  0
 18 13  1  0  0  0  0
 19 18  2  0  0  0  0
 21 20  1  0  0  0  0
 23 22  1  6  0  0  0
 23 27  1  0  0  0  0
 23 26  1  0  0  0  0
 26 25  1  1  0  0  0
 26 28  1  0  0  0  0
 27 24  1  6  0  0  0
 27 26  1  0  0  0  0
 28 29  1  0  0  0  0
M  END
>  <MODEL>
6

>  <REMARK>
 VINA RESULT:      -7.4      1.626      2.143
  Name = 
  5 active torsions:
  status: ('A' for Active; 'I' for Inactive)
    1  A    between atoms: C_1  and  C_11
    2  A    between atoms: C_2  and  C_20
    3  A    between atoms: C_5  and  O_26
    4  A    between atoms: C_8  and  O_19
    5  A    between atoms: C_10  and  O_26
                            x       y       z     vdW  Elec       q    Type
                         _______ _______ _______ _____ _____    ______ ____

>  <TORSDO>
F 5

$$$$
=
 OpenBabel10222421093D

 29 32  0  0  1  0  0  0  0  0999 V2000
  184.4920  178.6280  146.1580 C   0  0  0  0  0  1  0  0  0  0  0  0
  184.6180  178.3660  141.7070 C   0  0  2  0  0  3  0  0  0  0  0  0
  184.9560  179.2130  144.8390 C   0  0  2  0  0  3  0  0  0  0  0  0
  183.7980  179.9650  144.1610 C   0  0  0  0  0  2  0  0  0  0  0  0
  183.2540  178.2660  142.3500 C   0  0  0  0  0  0  0  0  0  0  0  0
  185.7760  178.6760  142.6690 C   0  0  1  0  0  3  0  0  0  0  0  0
  182.4190  177.4740  141.8330 O   0  0  0  0  0  0  0  0  0  0  0  0
  181.5070  179.0000  143.9940 C   0  0  0  0  0  1  0  0  0  0  0  0
  185.5140  178.1460  144.0050 N   0  0  0  0  0  2  0  0  0  0  0  0
  182.8720  179.0530  143.4960 N   0  0  0  0  0  0  0  0  0  0  0  0
  187.0770  178.1600  142.1410 C   0  0  0  0  0  0  0  0  0  0  0  0
  189.0590  176.7250  142.3760 C   0  0  0  0  0  3  0  0  0  0  0  0
  189.4220  178.2550  139.2470 C   0  0  0  0  0  0  0  0  0  0  0  0
  187.8480  177.2300  142.8870 C   0  0  0  0  0  3  0  0  0  0  0  0
  190.5690  176.8350  140.4400 N   0  0  0  0  0  2  0  0  0  0  0  0
  189.4590  177.1730  141.1210 C   0  0  0  0  0  0  0  0  0  0  0  0
  190.5460  177.5010  139.2870 N   0  0  0  0  0  0  0  0  0  0  0  0
  188.7150  178.0660  140.4040 C   0  0  0  0  0  0  0  0  0  0  0  0
  187.5120  178.5850  140.8710 C   0  0  0  0  0  3  0  0  0  0  0  0
  189.0470  178.6260  136.8520 C   0  0  0  0  0  1  0  0  0  0  0  0
  189.0560  179.0900  138.1940 O   0  0  0  0  0  0  0  0  0  0  0  0
  184.5870  179.3060  140.6730 O   0  0  0  0  0  0  0  0  0  0  0  0
  183.6240  178.8210  139.7770 C   0  0  2  0  0  3  0  0  0  0  0  0
  184.1810  180.9360  138.7180 O   0  0  0  0  0  1  0  0  0  0  0  0
  185.6190  178.7640  138.3030 O   0  0  0  0  0  1  0  0  0  0  0  0
  184.2400  178.5470  138.4190 C   0  0  2  0  0  0  0  0  0  0  0  0
  183.3860  179.7890  138.6040 C   0  0  1  0  0  3  0  0  0  0  0  0
  183.6180  177.4240  137.6090 C   0  0  0  0  0  2  0  0  0  0  0  0
  183.1520  176.3110  138.5280 C   0  0  0  0  0  1  0  0  0  0  0  0
  2 22  1  6  0  0  0
  2  5  1  0  0  0  0
  2  6  1  0  0  0  0
  3  1  1  1  0  0  0
  4  3  1  0  0  0  0
  5 10  1  0  0  0  0
  6 11  1  6  0  0  0
  6  9  1  0  0  0  0
  7  5  2  0  0  0  0
  9  3  1  0  0  0  0
 10  8  1  0  0  0  0
 10  4  1  0  0  0  0
 11 14  1  0  0  0  0
 12 14  2  0  0  0  0
 13 17  2  0  0  0  0
 13 18  1  0  0  0  0
 15 16  1  0  0  0  0
 16 12  1  0  0  0  0
 17 15  1  0  0  0  0
 18 19  1  0  0  0  0
 18 16  2  0  0  0  0
 19 11  2  0  0  0  0
 20 21  1  0  0  0  0
 21 13  1  0  0  0  0
 23 22  1  1  0  0  0
 26 25  1  6  0  0  0
 26 27  1  0  0  0  0
 26 23  1  0  0  0  0
 27 24  1  1  0  0  0
 27 23  1  0  0  0  0
 28 26  1  0  0  0  0
 28 29  1  0  0  0  0
M  END
>  <MODEL>
7

>  <REMARK>
 VINA RESULT:      -7.3      3.304      7.797
  Name = 
  5 active torsions:
  status: ('A' for Active; 'I' for Inactive)
    1  A    between atoms: C_1  and  C_11
    2  A    between atoms: C_2  and  C_20
    3  A    between atoms: C_5  and  O_26
    4  A    between atoms: C_8  and  O_19
    5  A    between atoms: C_10  and  O_26
                            x       y       z     vdW  Elec       q    Type
                         _______ _______ _______ _____ _____    ______ ____

>  <TORSDO>
F 5

$$$$
=
 OpenBabel10222421093D

 29 32  0  0  1  0  0  0  0  0999 V2000
  191.6060  177.2070  142.1740 C   0  0  0  0  0  1  0  0  0  0  0  0
  187.7220  178.2910  140.2650 C   0  0  2  0  0  3  0  0  0  0  0  0
  190.1720  176.8350  141.8530 C   0  0  2  0  0  3  0  0  0  0  0  0
  190.0660  176.3560  140.3960 C   0  0  0  0  0  2  0  0  0  0  0  0
  188.9560  178.4160  139.4020 C   0  0  0  0  0  0  0  0  0  0  0  0
  187.9550  177.6790  141.6570 C   0  0  1  0  0  3  0  0  0  0  0  0
  189.0070  179.3780  138.5870 O   0  0  0  0  0  0  0  0  0  0  0  0
  191.1500  177.5790  138.5150 C   0  0  0  0  0  1  0  0  0  0  0  0
  189.2980  177.9720  142.1490 N   0  0  0  0  0  2  0  0  0  0  0  0
  190.0460  177.4730  139.4560 N   0  0  0  0  0  0  0  0  0  0  0  0
  186.9200  178.1410  142.6340 C   0  0  0  0  0  0  0  0  0  0  0  0
  184.7870  179.2630  143.1150 C   0  0  0  0  0  3  0  0  0  0  0  0
  185.9310  178.1340  146.2260 C   0  0  0  0  0  0  0  0  0  0  0  0
  185.7720  178.8520  142.1970 C   0  0  0  0  0  3  0  0  0  0  0  0
  184.1920  179.2300  145.5000 N   0  0  0  0  0  2  0  0  0  0  0  0
  184.9870  178.9410  144.4540 C   0  0  0  0  0  0  0  0  0  0  0  0
  184.7720  178.7330  146.5900 N   0  0  0  0  0  0  0  0  0  0  0  0
  186.0920  178.2560  144.8720 C   0  0  0  0  0  0  0  0  0  0  0  0
  187.0860  177.8300  143.9970 C   0  0  0  0  0  3  0  0  0  0  0  0
  187.5540  178.2380  148.0620 C   0  0  0  0  0  1  0  0  0  0  0  0
  186.8130  177.5020  147.0990 O   0  0  0  0  0  0  0  0  0  0  0  0
  186.7370  177.5720  139.5820 O   0  0  0  0  0  0  0  0  0  0  0  0
  186.0640  178.5310  138.8120 C   0  0  2  0  0  3  0  0  0  0  0  0
  185.5430  176.5170  137.5560 O   0  0  0  0  0  1  0  0  0  0  0  0
  184.1170  177.2430  139.6530 O   0  0  0  0  0  1  0  0  0  0  0  0
  184.5660  178.2990  138.8490 C   0  0  2  0  0  0  0  0  0  0  0  0
  185.3430  177.9010  137.6060 C   0  0  1  0  0  3  0  0  0  0  0  0
  183.6880  179.5300  138.7230 C   0  0  0  0  0  2  0  0  0  0  0  0
  182.3210  179.2630  139.3230 C   0  0  0  0  0  1  0  0  0  0  0  0
  2 22  1  6  0  0  0
  2  6  1  0  0  0  0
  3  9  1  0  0  0  0
  3  1  1  6  0  0  0
  4  3  1  0  0  0  0
  5 10  1  0  0  0  0
  5  2  1  0  0  0  0
  6  9  1  0  0  0  0
  6 11  1  1  0  0  0
  7  5  2  0  0  0  0
  8 10  1  0  0  0  0
 10  4  1  0  0  0  0
 11 19  1  0  0  0  0
 12 16  2  0  0  0  0
 13 17  2  0  0  0  0
 13 21  1  0  0  0  0
 14 11  2  0  0  0  0
 14 12  1  0  0  0  0
 15 17  1  0  0  0  0
 16 18  1  0  0  0  0
 16 15  1  0  0  0  0
 18 13  1  0  0  0  0
 19 18  2  0  0  0  0
 21 20  1  0  0  0  0
 23 26  1  0  0  0  0
 23 22  1  1  0  0  0
 26 25  1  1  0  0  0
 27 24  1  1  0  0  0
 27 23  1  0  0  0  0
 27 26  1  0  0  0  0
 28 26  1  0  0  0  0
 28 29  1  0  0  0  0
M  END
>  <MODEL>
8

>  <REMARK>
 VINA RESULT:      -7.3      2.553      5.074
  Name = 
  5 active torsions:
  status: ('A' for Active; 'I' for Inactive)
    1  A    between atoms: C_1  and  C_11
    2  A    between atoms: C_2  and  C_20
    3  A    between atoms: C_5  and  O_26
    4  A    between atoms: C_8  and  O_19
    5  A    between atoms: C_10  and  O_26
                            x       y       z     vdW  Elec       q    Type
                         _______ _______ _______ _____ _____    ______ ____

>  <TORSDO>
F 5

$$$$
=
 OpenBabel10222421093D

 29 32  0  0  1  0  0  0  0  0999 V2000
  188.4760  177.5120  147.1720 C   0  0  0  0  0  1  0  0  0  0  0  0
  188.7470  178.1940  142.7720 C   0  0  2  0  0  3  0  0  0  0  0  0
  188.2210  177.0090  145.7650 C   0  0  2  0  0  3  0  0  0  0  0  0
  189.5250  176.4690  145.1540 C   0  0  0  0  0  2  0  0  0  0  0  0
  190.0190  178.3910  143.5640 C   0  0  0  0  0  0  0  0  0  0  0  0
  187.5510  177.6560  143.5740 C   0  0  1  0  0  3  0  0  0  0  0  0
  190.7920  179.3220  143.2100 O   0  0  0  0  0  0  0  0  0  0  0  0
  191.6800  177.7090  145.3180 C   0  0  0  0  0  1  0  0  0  0  0  0
  187.6130  178.0790  144.9700 N   0  0  0  0  0  2  0  0  0  0  0  0
  190.3860  177.5450  144.6730 N   0  0  0  0  0  0  0  0  0  0  0  0
  186.2530  178.0640  142.9550 C   0  0  0  0  0  0  0  0  0  0  0  0
  183.8760  178.6570  143.1700 C   0  0  0  0  0  3  0  0  0  0  0  0
  184.5850  179.0060  139.7580 C   0  0  0  0  0  0  0  0  0  0  0  0
  185.0920  178.2460  143.7510 C   0  0  0  0  0  3  0  0  0  0  0  0
  182.8310  179.2620  141.0290 N   0  0  0  0  0  2  0  0  0  0  0  0
  183.8670  178.8750  141.7960 C   0  0  0  0  0  0  0  0  0  0  0  0
  183.2730  179.3430  139.7760 N   0  0  0  0  0  0  0  0  0  0  0  0
  184.9850  178.7000  141.0310 C   0  0  0  0  0  0  0  0  0  0  0  0
  186.2050  178.3000  141.5670 C   0  0  0  0  0  3  0  0  0  0  0  0
  185.3160  177.8970  137.6970 C   0  0  0  0  0  1  0  0  0  0  0  0
  185.3870  178.9730  138.6200 O   0  0  0  0  0  0  0  0  0  0  0  0
  188.9980  177.3700  141.6710 O   0  0  0  0  0  0  0  0  0  0  0  0
  189.5760  178.2170  140.7140 C   0  0  2  0  0  3  0  0  0  0  0  0
  190.6350  176.1090  140.1300 O   0  0  0  0  0  1  0  0  0  0  0  0
  188.2470  176.7540  139.2140 O   0  0  0  0  0  1  0  0  0  0  0  0
  189.1500  177.8210  139.3140 C   0  0  2  0  0  0  0  0  0  0  0  0
  190.5480  177.4640  139.7880 C   0  0  1  0  0  3  0  0  0  0  0  0
  189.0560  178.9410  138.2950 C   0  0  0  0  0  2  0  0  0  0  0  0
  188.9710  178.3680  136.8930 C   0  0  0  0  0  1  0  0  0  0  0  0
  2 22  1  6  0  0  0
  2  5  1  0  0  0  0
  2  6  1  0  0  0  0
  3  1  1  1  0  0  0
  4  3  1  0  0  0  0
  5 10  1  0  0  0  0
  6 11  1  6  0  0  0
  6  9  1  0  0  0  0
  7  5  2  0  0  0  0
  9  3  1  0  0  0  0
 10  4  1  0  0  0  0
 10  8  1  0  0  0  0
 11 14  1  0  0  0  0
 12 14  2  0  0  0  0
 13 17  2  0  0  0  0
 13 18  1  0  0  0  0
 15 16  1  0  0  0  0
 16 12  1  0  0  0  0
 17 15  1  0  0  0  0
 18 19  1  0  0  0  0
 18 16  2  0  0  0  0
 19 11  2  0  0  0  0
 20 21  1  0  0  0  0
 21 13  1  0  0  0  0
 23 22  1  1  0  0  0
 26 25  1  6  0  0  0
 26 27  1  0  0  0  0
 26 23  1  0  0  0  0
 27 24  1  1  0  0  0
 27 23  1  0  0  0  0
 28 26  1  0  0  0  0
 29 28  1  0  0  0  0
M  END
>  <MODEL>
9

>  <REMARK>
 VINA RESULT:      -7.3      2.468      5.653
  Name = 
  5 active torsions:
  status: ('A' for Active; 'I' for Inactive)
    1  A    between atoms: C_1  and  C_11
    2  A    between atoms: C_2  and  C_20
    3  A    between atoms: C_5  and  O_26
    4  A    between atoms: C_8  and  O_19
    5  A    between atoms: C_10  and  O_26
                            x       y       z     vdW  Elec       q    Type
                         _______ _______ _______ _____ _____    ______ ____

>  <TORSDO>
F 5

$$$$
