=
 OpenBabel10222419423D

 36 42  0  0  1  0  0  0  0  0999 V2000
  191.1850  176.9490  141.5710 C   0  0  2  0  0  3  0  0  0  0  0  0
  189.6960  177.3800  141.4250 C   0  0  2  0  0  3  0  0  0  0  0  0
  189.7710  177.6450  145.8350 N   0  0  0  0  0  2  0  0  0  0  0  0
  185.3070  177.8780  143.6360 C   0  0  2  0  0  3  0  0  0  0  0  0
  186.6640  177.8960  146.1820 C   0  0  0  0  0  0  0  0  0  0  0  0
  187.6720  177.4260  148.4710 O   0  0  0  0  0  0  0  0  0  0  0  0
  190.9690  177.5250  145.2640 N   0  0  0  0  0  0  0  0  0  0  0  0
  188.8050  176.7050  142.4940 C   0  0  2  0  0  3  0  0  0  0  0  0
  190.7820  177.0190  144.0300 C   0  0  0  0  0  0  0  0  0  0  0  0
  185.4450  179.8450  145.2700 C   0  0  0  0  0  2  0  0  0  0  0  0
  188.8410  177.2180  144.9510 C   0  0  0  0  0  0  0  0  0  0  0  0
  187.1810  177.6530  147.3580 C   0  0  0  0  0  0  0  0  0  0  0  0
  185.3400  178.6040  146.1450 C   0  0  1  0  0  3  0  0  0  0  0  0
  184.6350  178.6540  144.7880 C   0  0  2  0  0  3  0  0  0  0  0  0
  191.6810  177.1810  142.9340 N   0  0  0  0  0  2  0  0  0  0  0  0
  192.0640  177.7090  140.5940 C   0  0  0  0  0  1  0  0  0  0  0  0
  187.4980  177.3040  142.5500 O   0  0  0  0  0  0  0  0  0  0  0  0
  186.7840  177.5810  143.7450 C   0  0  0  0  0  0  0  0  0  0  0  0
  187.4020  177.5430  144.9460 C   0  0  0  0  0  0  0  0  0  0  0  0
  189.4620  176.8050  143.8200 C   0  0  0  0  0  0  0  0  0  0  0  0
  185.0340  179.6990  140.5610 N   0  0  0  0  0  0  0  0  0  0  0  0
  184.9590  178.4700  142.3080 C   0  0  0  0  0  0  0  0  0  0  0  0
  184.0840  178.7500  140.4440 C   0  0  0  0  0  0  0  0  0  0  0  0
  184.0350  177.9900  141.5110 O   0  0  0  0  0  0  0  0  0  0  0  0
  185.5910  179.5210  141.7480 N   0  0  0  0  0  0  0  0  0  0  0  0
  183.9060  178.1510  138.0070 N   0  0  0  0  0  0  0  0  0  0  0  0
  183.2160  178.5540  139.2310 C   0  0  1  0  0  3  0  0  0  0  0  0
  183.2410  177.2540  138.8290 O   0  0  0  0  0  0  0  0  0  0  0  0
  185.3340  177.8800  138.1690 C   0  0  0  0  0  2  0  0  0  0  0  0
  185.7800  176.8710  137.1320 C   0  0  0  0  0  1  0  0  0  0  0  0
  189.1700  177.0460  140.0350 C   0  0  0  0  0  2  0  0  0  0  0  0
  188.7800  178.3040  139.3210 C   0  0  0  0  0  3  0  0  0  0  0  0
  189.0560  178.5250  138.0320 C   0  0  0  0  0  3  0  0  0  0  0  0
  189.7930  177.5480  137.1640 C   0  0  0  0  0  2  0  0  0  0  0  0
  189.2080  177.5000  135.7900 C   0  0  0  0  0  3  0  0  0  0  0  0
  188.9300  176.4320  135.2680 O   0  0  0  0  0  0  0  0  0  0  0  0
  1 16  1  6  0  0  0
  1 15  1  0  0  0  0
  2 31  1  6  0  0  0
  2  1  1  0  0  0  0
  2  8  1  0  0  0  0
  4 22  1  6  0  0  0
  4 18  1  0  0  0  0
  4 14  1  0  0  0  0
  5 12  2  0  0  0  0
  7  3  1  0  0  0  0
  8 17  1  1  0  0  0
  8 20  1  0  0  0  0
  9  7  2  0  0  0  0
 11  3  1  0  0  0  0
 12  6  2  0  0  0  0
 13 10  1  6  0  0  0
 13  5  1  0  0  0  0
 14 10  1  6  0  0  0
 14 13  1  0  0  0  0
 15  9  1  0  0  0  0
 17 18  1  0  0  0  0
 18 19  2  0  0  0  0
 19 11  1  0  0  0  0
 19  5  1  0  0  0  0
 20  9  1  0  0  0  0
 20 11  2  0  0  0  0
 21 25  1  0  0  0  0
 23 21  2  0  0  0  0
 23 24  1  0  0  0  0
 24 22  1  0  0  0  0
 25 22  2  0  0  0  0
 26 29  1  0  0  0  0
 26 28  1  0  0  0  0
 26 27  1  0  0  0  0
 27 23  1  1  0  0  0
 28 27  1  0  0  0  0
 30 29  1  0  0  0  0
 32 31  1  0  0  0  0
 33 32  2  0  0  0  0
 34 33  1  0  0  0  0
 35 34  1  0  0  0  0
 36 35  2  0  0  0  0
M  END
>  <MODEL>
1

>  <REMARK>
 VINA RESULT:      -9.7      0.000      0.000
  Name = 
  7 active torsions:
  status: ('A' for Active; 'I' for Inactive)
    1  A    between atoms: C_3  and  C_6
    2  A    between atoms: C_4  and  C_29
    3  A    between atoms: C_11  and  C_23
    4  A    between atoms: C_12  and  C_22
    5  A    between atoms: N_16  and  C_28
    6  A    between atoms: C_23  and  C_36
    7  A    between atoms: C_29  and  C_33
                            x       y       z     vdW  Elec       q    Type
                         _______ _______ _______ _____ _____    ______ ____

>  <TORSDO>
F 7

$$$$
=
 OpenBabel10222419423D

 36 42  0  0  1  0  0  0  0  0999 V2000
  187.6220  177.8340  144.1280 C   0  0  2  0  0  3  0  0  0  0  0  0
  186.9520  177.9480  142.7270 C   0  0  2  0  0  3  0  0  0  0  0  0
  190.7540  176.2670  141.2300 N   0  0  0  0  0  2  0  0  0  0  0  0
  187.6160  178.1240  137.8360 C   0  0  2  0  0  3  0  0  0  0  0  0
  190.1900  176.8760  138.2050 C   0  0  0  0  0  0  0  0  0  0  0  0
  192.6470  176.2530  138.4330 O   0  0  0  0  0  0  0  0  0  0  0  0
  190.5950  176.1950  142.5500 N   0  0  0  0  0  0  0  0  0  0  0  0
  187.9440  178.4790  141.6670 C   0  0  2  0  0  3  0  0  0  0  0  0
  189.6630  177.1030  142.8980 C   0  0  0  0  0  0  0  0  0  0  0  0
  188.3020  175.7930  137.0300 C   0  0  0  0  0  2  0  0  0  0  0  0
  189.9150  177.2180  140.7580 C   0  0  0  0  0  0  0  0  0  0  0  0
  191.4520  176.5570  138.3210 C   0  0  0  0  0  0  0  0  0  0  0  0
  189.5450  176.6560  136.8660 C   0  0  1  0  0  3  0  0  0  0  0  0
  188.1540  177.2620  136.6750 C   0  0  2  0  0  3  0  0  0  0  0  0
  188.8540  177.0370  144.0710 N   0  0  0  0  0  2  0  0  0  0  0  0
  186.6730  177.2010  145.1290 C   0  0  0  0  0  1  0  0  0  0  0  0
  187.4300  178.3220  140.3330 O   0  0  0  0  0  0  0  0  0  0  0  0
  188.1960  177.9060  139.2130 C   0  0  0  0  0  0  0  0  0  0  0  0
  189.4240  177.3650  139.3750 C   0  0  0  0  0  0  0  0  0  0  0  0
  189.2370  177.7640  141.7960 C   0  0  0  0  0  0  0  0  0  0  0  0
  184.1070  178.6790  138.3200 N   0  0  0  0  0  0  0  0  0  0  0  0
  186.1200  178.1270  137.8600 C   0  0  0  0  0  0  0  0  0  0  0  0
  184.1410  177.7170  137.3770 C   0  0  0  0  0  0  0  0  0  0  0  0
  185.3720  177.3760  137.0880 O   0  0  0  0  0  0  0  0  0  0  0  0
  185.3680  178.9410  138.6290 N   0  0  0  0  0  0  0  0  0  0  0  0
  182.3270  175.9740  137.3630 N   0  0  0  0  0  0  0  0  0  0  0  0
  182.9260  177.1340  136.7070 C   0  0  1  0  0  3  0  0  0  0  0  0
  181.8320  177.2620  137.5060 O   0  0  0  0  0  0  0  0  0  0  0  0
  182.9270  175.6180  138.6480 C   0  0  0  0  0  2  0  0  0  0  0  0
  181.9290  175.8620  139.7600 C   0  0  0  0  0  1  0  0  0  0  0  0
  185.7290  178.8550  142.7840 C   0  0  0  0  0  2  0  0  0  0  0  0
  184.5670  178.1870  142.1150 C   0  0  0  0  0  3  0  0  0  0  0  0
  183.2960  178.4260  142.4540 C   0  0  0  0  0  3  0  0  0  0  0  0
  182.8950  179.3750  143.5460 C   0  0  0  0  0  2  0  0  0  0  0  0
  182.9880  178.7210  144.8870 C   0  0  0  0  0  3  0  0  0  0  0  0
  183.7590  179.1450  145.7330 O   0  0  0  0  0  0  0  0  0  0  0  0
  1 16  1  1  0  0  0
  2 31  1  1  0  0  0
  2  1  1  0  0  0  0
  3  7  1  0  0  0  0
  4 22  1  1  0  0  0
  4 18  1  0  0  0  0
  5 12  2  0  0  0  0
  5 19  1  0  0  0  0
  7  9  2  0  0  0  0
  8 17  1  6  0  0  0
  8 20  1  0  0  0  0
  8  2  1  0  0  0  0
  9 15  1  0  0  0  0
 11  3  1  0  0  0  0
 11 20  2  0  0  0  0
 12  6  2  0  0  0  0
 13 10  1  1  0  0  0
 13  5  1  0  0  0  0
 14 13  1  0  0  0  0
 14 10  1  1  0  0  0
 14  4  1  0  0  0  0
 15  1  1  0  0  0  0
 18 19  2  0  0  0  0
 18 17  1  0  0  0  0
 19 11  1  0  0  0  0
 20  9  1  0  0  0  0
 21 25  1  0  0  0  0
 22 25  2  0  0  0  0
 23 21  2  0  0  0  0
 24 23  1  0  0  0  0
 24 22  1  0  0  0  0
 26 28  1  0  0  0  0
 26 29  1  0  0  0  0
 27 26  1  0  0  0  0
 27 23  1  1  0  0  0
 27 28  1  0  0  0  0
 29 30  1  0  0  0  0
 32 33  2  0  0  0  0
 32 31  1  0  0  0  0
 33 34  1  0  0  0  0
 34 35  1  0  0  0  0
 35 36  2  0  0  0  0
M  END
>  <MODEL>
2

>  <REMARK>
 VINA RESULT:      -8.2      2.051      6.291
  Name = 
  7 active torsions:
  status: ('A' for Active; 'I' for Inactive)
    1  A    between atoms: C_3  and  C_6
    2  A    between atoms: C_4  and  C_29
    3  A    between atoms: C_11  and  C_23
    4  A    between atoms: C_12  and  C_22
    5  A    between atoms: N_16  and  C_28
    6  A    between atoms: C_23  and  C_36
    7  A    between atoms: C_29  and  C_33
                            x       y       z     vdW  Elec       q    Type
                         _______ _______ _______ _____ _____    ______ ____

>  <TORSDO>
F 7

$$$$
=
 OpenBabel10222419423D

 36 42  0  0  1  0  0  0  0  0999 V2000
  188.2280  177.8940  143.5690 C   0  0  2  0  0  3  0  0  0  0  0  0
  187.2180  178.0190  142.3900 C   0  0  2  0  0  3  0  0  0  0  0  0
  190.4990  176.3500  139.9460 N   0  0  0  0  0  2  0  0  0  0  0  0
  186.5920  178.2340  137.4950 C   0  0  2  0  0  3  0  0  0  0  0  0
  189.1720  176.9830  137.1750 C   0  0  0  0  0  0  0  0  0  0  0  0
  191.6030  176.3590  136.7540 O   0  0  0  0  0  0  0  0  0  0  0  0
  190.6880  176.2680  141.2620 N   0  0  0  0  0  0  0  0  0  0  0  0
  187.9030  178.5590  141.1130 C   0  0  2  0  0  3  0  0  0  0  0  0
  189.8790  177.1730  141.8460 C   0  0  0  0  0  0  0  0  0  0  0  0
  187.0410  175.9090  136.5210 C   0  0  0  0  0  2  0  0  0  0  0  0
  189.5690  177.3040  139.7150 C   0  0  0  0  0  0  0  0  0  0  0  0
  190.4210  176.6640  136.9580 C   0  0  0  0  0  0  0  0  0  0  0  0
  188.2020  176.7740  136.0470 C   0  0  1  0  0  3  0  0  0  0  0  0
  186.8100  177.3810  136.2280 C   0  0  2  0  0  3  0  0  0  0  0  0
  189.4020  177.0970  143.1880 N   0  0  0  0  0  2  0  0  0  0  0  0
  187.5690  177.2530  144.7760 C   0  0  0  0  0  1  0  0  0  0  0  0
  187.0610  178.4120  139.9560 O   0  0  0  0  0  0  0  0  0  0  0  0
  187.5090  178.0050  138.6730 C   0  0  0  0  0  0  0  0  0  0  0  0
  188.7360  177.4630  138.5070 C   0  0  0  0  0  0  0  0  0  0  0  0
  189.1840  177.8420  140.8970 C   0  0  0  0  0  0  0  0  0  0  0  0
  183.1330  177.6040  138.1910 N   0  0  0  0  0  0  0  0  0  0  0  0
  185.1540  178.2370  137.9060 C   0  0  0  0  0  0  0  0  0  0  0  0
  183.3720  178.7650  138.8340 C   0  0  0  0  0  0  0  0  0  0  0  0
  184.6100  179.1570  138.6660 O   0  0  0  0  0  0  0  0  0  0  0  0
  184.2680  177.2680  137.6000 N   0  0  0  0  0  0  0  0  0  0  0  0
  181.4170  180.3450  138.9450 N   0  0  0  0  0  0  0  0  0  0  0  0
  182.3620  179.5000  139.6730 C   0  0  1  0  0  3  0  0  0  0  0  0
  181.1020  179.0700  139.3920 O   0  0  0  0  0  0  0  0  0  0  0  0
  181.5130  180.2590  137.4890 C   0  0  0  0  0  2  0  0  0  0  0  0
  180.7240  181.3890  136.8600 C   0  0  0  0  0  1  0  0  0  0  0  0
  186.0540  178.9250  142.7690 C   0  0  0  0  0  2  0  0  0  0  0  0
  184.7560  178.2390  142.4730 C   0  0  0  0  0  3  0  0  0  0  0  0
  183.6360  178.4700  143.1660 C   0  0  0  0  0  3  0  0  0  0  0  0
  183.5580  179.4280  144.3190 C   0  0  0  0  0  2  0  0  0  0  0  0
  183.9170  178.7530  145.6030 C   0  0  0  0  0  3  0  0  0  0  0  0
  184.8260  179.1810  146.2980 O   0  0  0  0  0  0  0  0  0  0  0  0
  1 16  1  1  0  0  0
  2 31  1  1  0  0  0
  2  1  1  0  0  0  0
  3  7  1  0  0  0  0
  4 22  1  1  0  0  0
  4 18  1  0  0  0  0
  5 19  1  0  0  0  0
  6 12  2  0  0  0  0
  7  9  2  0  0  0  0
  8 17  1  6  0  0  0
  8  2  1  0  0  0  0
  9 15  1  0  0  0  0
 11  3  1  0  0  0  0
 11 20  2  0  0  0  0
 12  5  2  0  0  0  0
 13 14  1  0  0  0  0
 13 10  1  1  0  0  0
 13  5  1  0  0  0  0
 14 10  1  1  0  0  0
 14  4  1  0  0  0  0
 15  1  1  0  0  0  0
 18 17  1  0  0  0  0
 19 18  2  0  0  0  0
 19 11  1  0  0  0  0
 20  8  1  0  0  0  0
 20  9  1  0  0  0  0
 21 23  2  0  0  0  0
 22 24  1  0  0  0  0
 24 23  1  0  0  0  0
 25 22  2  0  0  0  0
 25 21  1  0  0  0  0
 26 28  1  0  0  0  0
 26 27  1  0  0  0  0
 27 23  1  6  0  0  0
 28 27  1  0  0  0  0
 29 26  1  0  0  0  0
 30 29  1  0  0  0  0
 32 31  1  0  0  0  0
 32 33  2  0  0  0  0
 33 34  1  0  0  0  0
 34 35  1  0  0  0  0
 35 36  2  0  0  0  0
M  END
>  <MODEL>
3

>  <REMARK>
 VINA RESULT:      -8.0      2.092      6.587
  Name = 
  7 active torsions:
  status: ('A' for Active; 'I' for Inactive)
    1  A    between atoms: C_3  and  C_6
    2  A    between atoms: C_4  and  C_29
    3  A    between atoms: C_11  and  C_23
    4  A    between atoms: C_12  and  C_22
    5  A    between atoms: N_16  and  C_28
    6  A    between atoms: C_23  and  C_36
    7  A    between atoms: C_29  and  C_33
                            x       y       z     vdW  Elec       q    Type
                         _______ _______ _______ _____ _____    ______ ____

>  <TORSDO>
F 7

$$$$
=
 OpenBabel10222419423D

 36 42  0  0  1  0  0  0  0  0999 V2000
  183.1400  178.9920  141.3350 C   0  0  2  0  0  3  0  0  0  0  0  0
  184.5260  178.6350  140.7230 C   0  0  2  0  0  3  0  0  0  0  0  0
  185.7000  177.8170  144.9030 N   0  0  0  0  0  2  0  0  0  0  0  0
  189.3590  178.0140  141.5290 C   0  0  2  0  0  3  0  0  0  0  0  0
  188.7780  177.6310  144.3280 C   0  0  0  0  0  0  0  0  0  0  0  0
  188.4600  177.7770  146.8490 O   0  0  0  0  0  0  0  0  0  0  0  0
  184.3900  177.9670  144.7120 N   0  0  0  0  0  0  0  0  0  0  0  0
  185.6840  179.2000  141.5770 C   0  0  2  0  0  3  0  0  0  0  0  0
  184.2220  178.6300  143.5520 C   0  0  0  0  0  0  0  0  0  0  0  0
  189.6840  175.8540  142.8650 C   0  0  0  0  0  2  0  0  0  0  0  0
  186.3430  178.3830  143.8570 C   0  0  0  0  0  0  0  0  0  0  0  0
  188.6160  177.7070  145.6230 C   0  0  0  0  0  0  0  0  0  0  0  0
  190.0360  176.9790  143.8290 C   0  0  1  0  0  3  0  0  0  0  0  0
  190.3280  177.1240  142.3350 C   0  0  2  0  0  3  0  0  0  0  0  0
  183.0490  178.5750  142.7410 N   0  0  0  0  0  2  0  0  0  0  0  0
  182.0190  178.3310  140.5540 C   0  0  0  0  0  1  0  0  0  0  0  0
  186.9520  178.6440  141.1860 O   0  0  0  0  0  0  0  0  0  0  0  0
  187.9740  178.2440  142.0850 C   0  0  0  0  0  0  0  0  0  0  0  0
  187.7220  178.1100  143.4060 C   0  0  0  0  0  0  0  0  0  0  0  0
  185.4300  178.9130  143.0100 C   0  0  0  0  0  0  0  0  0  0  0  0
  189.1140  177.7070  137.9660 N   0  0  0  0  0  0  0  0  0  0  0  0
  189.3160  177.6050  140.0910 C   0  0  0  0  0  0  0  0  0  0  0  0
  189.5430  176.4900  138.3530 C   0  0  0  0  0  0  0  0  0  0  0  0
  189.6730  176.4210  139.6540 O   0  0  0  0  0  0  0  0  0  0  0  0
  188.9690  178.4180  139.0730 N   0  0  0  0  0  0  0  0  0  0  0  0
  191.2630  175.2910  136.9600 N   0  0  0  0  0  0  0  0  0  0  0  0
  189.8750  175.3610  137.4130 C   0  0  1  0  0  3  0  0  0  0  0  0
  190.7630  174.5050  137.9880 O   0  0  0  0  0  0  0  0  0  0  0  0
  192.1610  176.2620  137.5830 C   0  0  0  0  0  2  0  0  0  0  0  0
  193.5060  176.2290  136.8880 C   0  0  0  0  0  1  0  0  0  0  0  0
  184.6380  179.1570  139.2970 C   0  0  0  0  0  2  0  0  0  0  0  0
  185.4600  178.2150  138.4710 C   0  0  0  0  0  3  0  0  0  0  0  0
  184.9270  177.3840  137.5690 C   0  0  0  0  0  3  0  0  0  0  0  0
  183.4550  177.2940  137.2940 C   0  0  0  0  0  2  0  0  0  0  0  0
  182.9210  175.9450  137.6560 C   0  0  0  0  0  3  0  0  0  0  0  0
  183.0880  175.4910  138.7770 O   0  0  0  0  0  0  0  0  0  0  0  0
  1 16  1  6  0  0  0
  1 15  1  0  0  0  0
  2 31  1  6  0  0  0
  2  1  1  0  0  0  0
  2  8  1  0  0  0  0
  4 22  1  6  0  0  0
  4 18  1  0  0  0  0
  4 14  1  0  0  0  0
  5 12  2  0  0  0  0
  7  3  1  0  0  0  0
  8 17  1  6  0  0  0
  8 20  1  0  0  0  0
  9  7  2  0  0  0  0
 11  3  1  0  0  0  0
 12  6  2  0  0  0  0
 13 10  1  6  0  0  0
 13  5  1  0  0  0  0
 14 10  1  6  0  0  0
 14 13  1  0  0  0  0
 15  9  1  0  0  0  0
 17 18  1  0  0  0  0
 18 19  2  0  0  0  0
 19 11  1  0  0  0  0
 19  5  1  0  0  0  0
 20  9  1  0  0  0  0
 20 11  2  0  0  0  0
 21 23  2  0  0  0  0
 21 25  1  0  0  0  0
 23 24  1  0  0  0  0
 24 22  1  0  0  0  0
 25 22  2  0  0  0  0
 26 27  1  0  0  0  0
 26 29  1  0  0  0  0
 26 28  1  0  0  0  0
 27 28  1  0  0  0  0
 27 23  1  1  0  0  0
 30 29  1  0  0  0  0
 32 31  1  0  0  0  0
 33 32  2  0  0  0  0
 34 33  1  0  0  0  0
 34 35  1  0  0  0  0
 35 36  2  0  0  0  0
M  END
>  <MODEL>
4

>  <REMARK>
 VINA RESULT:      -7.9      2.507      5.827
  Name = 
  7 active torsions:
  status: ('A' for Active; 'I' for Inactive)
    1  A    between atoms: C_3  and  C_6
    2  A    between atoms: C_4  and  C_29
    3  A    between atoms: C_11  and  C_23
    4  A    between atoms: C_12  and  C_22
    5  A    between atoms: N_16  and  C_28
    6  A    between atoms: C_23  and  C_36
    7  A    between atoms: C_29  and  C_33
                            x       y       z     vdW  Elec       q    Type
                         _______ _______ _______ _____ _____    ______ ____

>  <TORSDO>
F 7

$$$$
=
 OpenBabel10222419423D

 36 42  0  0  1  0  0  0  0  0999 V2000
  188.9190  175.6010  136.3910 C   0  0  2  0  0  3  0  0  0  0  0  0
  189.0330  175.9470  137.9050 C   0  0  2  0  0  3  0  0  0  0  0  0
  184.9880  177.6500  137.3960 N   0  0  0  0  0  2  0  0  0  0  0  0
  187.3630  178.7080  141.6450 C   0  0  2  0  0  3  0  0  0  0  0  0
  184.9330  179.1450  140.1530 C   0  0  0  0  0  0  0  0  0  0  0  0
  182.9890  180.0090  138.7560 O   0  0  0  0  0  0  0  0  0  0  0  0
  185.4080  176.9000  136.3780 N   0  0  0  0  0  0  0  0  0  0  0  0
  188.4870  177.3630  138.2040 C   0  0  2  0  0  3  0  0  0  0  0  0
  186.7510  176.8300  136.4530 C   0  0  0  0  0  0  0  0  0  0  0  0
  185.0230  177.8800  142.2770 C   0  0  0  0  0  2  0  0  0  0  0  0
  186.0720  178.0410  138.1040 C   0  0  0  0  0  0  0  0  0  0  0  0
  183.9350  179.5900  139.4360 C   0  0  0  0  0  0  0  0  0  0  0  0
  184.8080  179.2490  141.6460 C   0  0  1  0  0  3  0  0  0  0  0  0
  186.0740  178.9620  142.4550 C   0  0  2  0  0  3  0  0  0  0  0  0
  187.5470  175.7830  135.9000 N   0  0  0  0  0  2  0  0  0  0  0  0
  189.3480  174.1680  136.1320 C   0  0  0  0  0  1  0  0  0  0  0  0
  188.3250  177.5820  139.6160 O   0  0  0  0  0  0  0  0  0  0  0  0
  187.2240  178.2500  140.2130 C   0  0  0  0  0  0  0  0  0  0  0  0
  186.1010  178.5030  139.5050 C   0  0  0  0  0  0  0  0  0  0  0  0
  187.1870  177.5480  137.5140 C   0  0  0  0  0  0  0  0  0  0  0  0
  189.1760  176.1560  143.3930 N   0  0  0  0  0  0  0  0  0  0  0  0
  188.3220  177.8500  142.4090 C   0  0  0  0  0  0  0  0  0  0  0  0
  190.0580  177.1720  143.3250 C   0  0  0  0  0  0  0  0  0  0  0  0
  189.5430  178.2130  142.7190 O   0  0  0  0  0  0  0  0  0  0  0  0
  188.0680  176.5880  142.8090 N   0  0  0  0  0  0  0  0  0  0  0  0
  191.6430  177.3430  145.2710 N   0  0  0  0  0  0  0  0  0  0  0  0
  191.4720  177.1120  143.8390 C   0  0  1  0  0  3  0  0  0  0  0  0
  191.6210  176.0760  144.7080 O   0  0  0  0  0  0  0  0  0  0  0  0
  190.3980  177.4830  146.0240 C   0  0  0  0  0  2  0  0  0  0  0  0
  190.5150  176.7470  147.3420 C   0  0  0  0  0  1  0  0  0  0  0  0
  190.4780  175.8460  138.3760 C   0  0  0  0  0  2  0  0  0  0  0  0
  191.3610  176.6810  137.5000 C   0  0  0  0  0  3  0  0  0  0  0  0
  192.5020  176.2270  136.9730 C   0  0  0  0  0  3  0  0  0  0  0  0
  193.0300  174.8420  137.2090 C   0  0  0  0  0  2  0  0  0  0  0  0
  194.4030  174.8820  137.7970 C   0  0  0  0  0  3  0  0  0  0  0  0
  194.6580  175.6240  138.7330 O   0  0  0  0  0  0  0  0  0  0  0  0
  1 16  1  1  0  0  0
  1  2  1  0  0  0  0
  2  8  1  0  0  0  0
  2 31  1  6  0  0  0
  3 11  1  0  0  0  0
  4 22  1  1  0  0  0
  4 14  1  0  0  0  0
  5 13  1  0  0  0  0
  6 12  2  0  0  0  0
  7  9  2  0  0  0  0
  7  3  1  0  0  0  0
  8 20  1  6  0  0  0
  8 17  1  0  0  0  0
  9 20  1  0  0  0  0
 11 19  1  0  0  0  0
 12  5  2  0  0  0  0
 13 10  1  1  0  0  0
 13 14  1  0  0  0  0
 14 10  1  6  0  0  0
 15  1  1  0  0  0  0
 15  9  1  0  0  0  0
 17 18  1  0  0  0  0
 18  4  1  0  0  0  0
 19  5  1  0  0  0  0
 19 18  2  0  0  0  0
 20 11  2  0  0  0  0
 22 24  1  0  0  0  0
 22 25  2  0  0  0  0
 23 21  2  0  0  0  0
 24 23  1  0  0  0  0
 25 21  1  0  0  0  0
 26 29  1  0  0  0  0
 27 23  1  1  0  0  0
 27 28  1  0  0  0  0
 27 26  1  0  0  0  0
 28 26  1  0  0  0  0
 29 30  1  0  0  0  0
 32 31  1  0  0  0  0
 33 34  1  0  0  0  0
 33 32  2  0  0  0  0
 34 35  1  0  0  0  0
 35 36  2  0  0  0  0
M  END
>  <MODEL>
5

>  <REMARK>
 VINA RESULT:      -7.6      2.676      6.887
  Name = 
  7 active torsions:
  status: ('A' for Active; 'I' for Inactive)
    1  A    between atoms: C_3  and  C_6
    2  A    between atoms: C_4  and  C_29
    3  A    between atoms: C_11  and  C_23
    4  A    between atoms: C_12  and  C_22
    5  A    between atoms: N_16  and  C_28
    6  A    between atoms: C_23  and  C_36
    7  A    between atoms: C_29  and  C_33
                            x       y       z     vdW  Elec       q    Type
                         _______ _______ _______ _____ _____    ______ ____

>  <TORSDO>
F 7

$$$$
=
 OpenBabel10222419423D

 36 42  0  0  1  0  0  0  0  0999 V2000
  189.8140  177.3900  142.2960 C   0  0  2  0  0  3  0  0  0  0  0  0
  188.4250  177.6740  141.6540 C   0  0  2  0  0  3  0  0  0  0  0  0
  190.2180  175.9460  138.0050 N   0  0  0  0  0  2  0  0  0  0  0  0
  185.8520  178.2870  137.4820 C   0  0  2  0  0  3  0  0  0  0  0  0
  187.9310  176.8730  136.0690 C   0  0  0  0  0  0  0  0  0  0  0  0
  189.8950  176.1020  134.6460 O   0  0  0  0  0  0  0  0  0  0  0  0
  190.9260  175.7550  139.1170 N   0  0  0  0  0  0  0  0  0  0  0  0
  188.5690  178.2520  140.2270 C   0  0  2  0  0  3  0  0  0  0  0  0
  190.5240  176.6730  140.0170 C   0  0  0  0  0  0  0  0  0  0  0  0
  185.6270  176.0110  136.3310 C   0  0  0  0  0  2  0  0  0  0  0  0
  189.3740  176.9810  138.2180 C   0  0  0  0  0  0  0  0  0  0  0  0
  188.9400  176.4780  135.3370 C   0  0  0  0  0  0  0  0  0  0  0  0
  186.5660  176.8180  135.4440 C   0  0  1  0  0  3  0  0  0  0  0  0
  185.4400  177.5140  136.2120 C   0  0  2  0  0  3  0  0  0  0  0  0
  190.6410  176.5370  141.4320 N   0  0  0  0  0  2  0  0  0  0  0  0
  189.6560  176.7140  143.6460 C   0  0  0  0  0  1  0  0  0  0  0  0
  187.3130  178.2520  139.5260 O   0  0  0  0  0  0  0  0  0  0  0  0
  187.1470  177.9060  138.1590 C   0  0  0  0  0  0  0  0  0  0  0  0
  188.1350  177.2870  137.4760 C   0  0  0  0  0  0  0  0  0  0  0  0
  189.5680  177.4590  139.4700 C   0  0  0  0  0  0  0  0  0  0  0  0
  183.2690  179.1650  139.8080 N   0  0  0  0  0  0  0  0  0  0  0  0
  184.7210  178.3670  138.4580 C   0  0  0  0  0  0  0  0  0  0  0  0
  183.0630  177.8510  139.5980 C   0  0  0  0  0  0  0  0  0  0  0  0
  183.9470  177.3550  138.7680 O   0  0  0  0  0  0  0  0  0  0  0  0
  184.3260  179.4950  139.0830 N   0  0  0  0  0  0  0  0  0  0  0  0
  180.7150  176.9670  139.4040 N   0  0  0  0  0  0  0  0  0  0  0  0
  181.9360  177.0550  140.2010 C   0  0  1  0  0  3  0  0  0  0  0  0
  181.6650  175.9580  139.4420 O   0  0  0  0  0  0  0  0  0  0  0  0
  180.8050  177.5690  138.0740 C   0  0  0  0  0  2  0  0  0  0  0  0
  179.6980  178.5880  137.9010 C   0  0  0  0  0  1  0  0  0  0  0  0
  187.6170  178.6350  142.5170 C   0  0  0  0  0  2  0  0  0  0  0  0
  186.2320  178.1000  142.7170 C   0  0  0  0  0  3  0  0  0  0  0  0
  185.7050  177.8780  143.9260 C   0  0  0  0  0  3  0  0  0  0  0  0
  186.4420  178.1280  145.2090 C   0  0  0  0  0  2  0  0  0  0  0  0
  185.6780  179.0570  146.0970 C   0  0  0  0  0  3  0  0  0  0  0  0
  184.9290  178.6200  146.9560 O   0  0  0  0  0  0  0  0  0  0  0  0
  1 16  1  1  0  0  0
  2  1  1  0  0  0  0
  2 31  1  1  0  0  0
  3 11  1  0  0  0  0
  3  7  1  0  0  0  0
  4 18  1  0  0  0  0
  4 22  1  1  0  0  0
  5 19  1  0  0  0  0
  6 12  2  0  0  0  0
  7  9  2  0  0  0  0
  8 20  1  6  0  0  0
  8  2  1  0  0  0  0
  9 15  1  0  0  0  0
 11 20  2  0  0  0  0
 12  5  2  0  0  0  0
 13  5  1  0  0  0  0
 13 14  1  0  0  0  0
 13 10  1  1  0  0  0
 14 10  1  1  0  0  0
 14  4  1  0  0  0  0
 15  1  1  0  0  0  0
 17  8  1  0  0  0  0
 18 17  1  0  0  0  0
 19 18  2  0  0  0  0
 19 11  1  0  0  0  0
 20  9  1  0  0  0  0
 22 24  1  0  0  0  0
 22 25  2  0  0  0  0
 23 21  2  0  0  0  0
 24 23  1  0  0  0  0
 25 21  1  0  0  0  0
 26 28  1  0  0  0  0
 26 27  1  0  0  0  0
 27 23  1  6  0  0  0
 28 27  1  0  0  0  0
 29 26  1  0  0  0  0
 30 29  1  0  0  0  0
 31 32  1  0  0  0  0
 32 33  2  0  0  0  0
 33 34  1  0  0  0  0
 34 35  1  0  0  0  0
 35 36  2  0  0  0  0
M  END
>  <MODEL>
6

>  <REMARK>
 VINA RESULT:      -7.6      2.083      6.766
  Name = 
  7 active torsions:
  status: ('A' for Active; 'I' for Inactive)
    1  A    between atoms: C_3  and  C_6
    2  A    between atoms: C_4  and  C_29
    3  A    between atoms: C_11  and  C_23
    4  A    between atoms: C_12  and  C_22
    5  A    between atoms: N_16  and  C_28
    6  A    between atoms: C_23  and  C_36
    7  A    between atoms: C_29  and  C_33
                            x       y       z     vdW  Elec       q    Type
                         _______ _______ _______ _____ _____    ______ ____

>  <TORSDO>
F 7

$$$$
=
 OpenBabel10222419423D

 36 42  0  0  1  0  0  0  0  0999 V2000
  183.1310  179.0030  141.5550 C   0  0  2  0  0  3  0  0  0  0  0  0
  184.4980  178.6650  140.8900 C   0  0  2  0  0  3  0  0  0  0  0  0
  185.8090  177.7460  145.0070 N   0  0  0  0  0  2  0  0  0  0  0  0
  189.3570  178.0420  141.5220 C   0  0  2  0  0  3  0  0  0  0  0  0
  188.8670  177.5860  144.3280 C   0  0  0  0  0  0  0  0  0  0  0  0
  188.6320  177.6650  146.8610 O   0  0  0  0  0  0  0  0  0  0  0  0
  184.4940  177.8960  144.8620 N   0  0  0  0  0  0  0  0  0  0  0  0
  185.6820  179.2130  141.7190 C   0  0  2  0  0  3  0  0  0  0  0  0
  184.2860  178.5870  143.7250 C   0  0  0  0  0  0  0  0  0  0  0  0
  189.7310  175.8500  142.7920 C   0  0  0  0  0  2  0  0  0  0  0  0
  186.4170  178.3400  143.9550 C   0  0  0  0  0  0  0  0  0  0  0  0
  188.7470  177.6280  145.6290 C   0  0  0  0  0  0  0  0  0  0  0  0
  190.1100  176.9510  143.7720 C   0  0  1  0  0  3  0  0  0  0  0  0
  190.3530  177.1340  142.2730 C   0  0  2  0  0  3  0  0  0  0  0  0
  183.0880  178.5490  142.9520 N   0  0  0  0  0  2  0  0  0  0  0  0
  181.9870  178.3580  140.7940 C   0  0  0  0  0  1  0  0  0  0  0  0
  186.9380  178.6720  141.2730 O   0  0  0  0  0  0  0  0  0  0  0  0
  187.9900  178.2530  142.1280 C   0  0  0  0  0  0  0  0  0  0  0  0
  187.7810  178.0840  143.4530 C   0  0  0  0  0  0  0  0  0  0  0  0
  185.4750  178.8890  143.1520 C   0  0  0  0  0  0  0  0  0  0  0  0
  188.9810  177.8220  137.9640 N   0  0  0  0  0  0  0  0  0  0  0  0
  189.2680  177.6690  140.0760 C   0  0  0  0  0  0  0  0  0  0  0  0
  189.4550  176.6060  138.3010 C   0  0  0  0  0  0  0  0  0  0  0  0
  189.6360  176.5070  139.5940 O   0  0  0  0  0  0  0  0  0  0  0  0
  188.8620  178.5000  139.0950 N   0  0  0  0  0  0  0  0  0  0  0  0
  188.6360  174.7600  136.8010 N   0  0  0  0  0  0  0  0  0  0  0  0
  189.7770  175.5110  137.3190 C   0  0  1  0  0  3  0  0  0  0  0  0
  189.2430  175.7910  136.0990 O   0  0  0  0  0  0  0  0  0  0  0  0
  187.3280  175.2610  137.2220 C   0  0  0  0  0  2  0  0  0  0  0  0
  186.3240  174.1270  137.2180 C   0  0  0  0  0  1  0  0  0  0  0  0
  184.5620  179.2250  139.4740 C   0  0  0  0  0  2  0  0  0  0  0  0
  185.2590  178.2530  138.5720 C   0  0  0  0  0  3  0  0  0  0  0  0
  184.6170  177.5220  137.6540 C   0  0  0  0  0  3  0  0  0  0  0  0
  183.1340  177.5860  137.4350 C   0  0  0  0  0  2  0  0  0  0  0  0
  182.4840  176.2830  137.7730 C   0  0  0  0  0  3  0  0  0  0  0  0
  183.0860  175.4340  138.4100 O   0  0  0  0  0  0  0  0  0  0  0  0
  1 16  1  6  0  0  0
  1 15  1  0  0  0  0
  2 31  1  6  0  0  0
  2  1  1  0  0  0  0
  2  8  1  0  0  0  0
  4 22  1  6  0  0  0
  4 18  1  0  0  0  0
  4 14  1  0  0  0  0
  5 12  2  0  0  0  0
  7  3  1  0  0  0  0
  8 17  1  6  0  0  0
  8 20  1  0  0  0  0
  9  7  2  0  0  0  0
 11  3  1  0  0  0  0
 12  6  2  0  0  0  0
 13 10  1  6  0  0  0
 13  5  1  0  0  0  0
 14 10  1  6  0  0  0
 14 13  1  0  0  0  0
 15  9  1  0  0  0  0
 17 18  1  0  0  0  0
 18 19  2  0  0  0  0
 19 11  1  0  0  0  0
 19  5  1  0  0  0  0
 20  9  1  0  0  0  0
 20 11  2  0  0  0  0
 21 23  2  0  0  0  0
 21 25  1  0  0  0  0
 23 24  1  0  0  0  0
 24 22  1  0  0  0  0
 25 22  2  0  0  0  0
 26 29  1  0  0  0  0
 26 27  1  0  0  0  0
 27 23  1  1  0  0  0
 28 26  1  0  0  0  0
 28 27  1  0  0  0  0
 30 29  1  0  0  0  0
 32 31  1  0  0  0  0
 33 32  2  0  0  0  0
 34 33  1  0  0  0  0
 34 35  1  0  0  0  0
 35 36  2  0  0  0  0
M  END
>  <MODEL>
7

>  <REMARK>
 VINA RESULT:      -7.6      2.336      5.496
  Name = 
  7 active torsions:
  status: ('A' for Active; 'I' for Inactive)
    1  A    between atoms: C_3  and  C_6
    2  A    between atoms: C_4  and  C_29
    3  A    between atoms: C_11  and  C_23
    4  A    between atoms: C_12  and  C_22
    5  A    between atoms: N_16  and  C_28
    6  A    between atoms: C_23  and  C_36
    7  A    between atoms: C_29  and  C_33
                            x       y       z     vdW  Elec       q    Type
                         _______ _______ _______ _____ _____    ______ ____

>  <TORSDO>
F 7

$$$$
=
 OpenBabel10222419423D

 36 42  0  0  1  0  0  0  0  0999 V2000
  187.6040  177.6180  144.3850 C   0  0  2  0  0  3  0  0  0  0  0  0
  187.3230  177.5410  142.8560 C   0  0  2  0  0  3  0  0  0  0  0  0
  191.6570  176.7550  142.5170 N   0  0  0  0  0  2  0  0  0  0  0  0
  189.2090  177.7550  138.2950 C   0  0  2  0  0  3  0  0  0  0  0  0
  191.8000  177.1470  139.4080 C   0  0  0  0  0  0  0  0  0  0  0  0
  194.1820  177.1170  140.3030 O   0  0  0  0  0  0  0  0  0  0  0  0
  191.1730  176.6780  143.7550 N   0  0  0  0  0  0  0  0  0  0  0  0
  188.4210  178.2640  142.0420 C   0  0  2  0  0  3  0  0  0  0  0  0
  190.0070  177.3520  143.7780 C   0  0  0  0  0  0  0  0  0  0  0  0
  190.5750  175.6290  137.8860 C   0  0  0  0  0  2  0  0  0  0  0  0
  190.7880  177.4740  141.7710 C   0  0  0  0  0  0  0  0  0  0  0  0
  193.0240  177.1330  139.8670 C   0  0  0  0  0  0  0  0  0  0  0  0
  191.5990  176.7530  137.9720 C   0  0  1  0  0  3  0  0  0  0  0  0
  190.2110  177.0150  137.3850 C   0  0  2  0  0  3  0  0  0  0  0  0
  188.9500  177.1270  144.7090 N   0  0  0  0  0  2  0  0  0  0  0  0
  186.5840  176.8040  145.1610 C   0  0  0  0  0  1  0  0  0  0  0  0
  188.3270  177.9620  140.6380 O   0  0  0  0  0  0  0  0  0  0  0  0
  189.4350  177.7090  139.7880 C   0  0  0  0  0  0  0  0  0  0  0  0
  190.6630  177.4720  140.3000 C   0  0  0  0  0  0  0  0  0  0  0  0
  189.7560  177.8710  142.5530 C   0  0  0  0  0  0  0  0  0  0  0  0
  185.6600  177.3900  137.9420 N   0  0  0  0  0  0  0  0  0  0  0  0
  187.7970  177.4110  137.9390 C   0  0  0  0  0  0  0  0  0  0  0  0
  186.1500  176.6610  136.9200 C   0  0  0  0  0  0  0  0  0  0  0  0
  187.4600  176.6720  136.9100 O   0  0  0  0  0  0  0  0  0  0  0  0
  186.7100  177.8680  138.5920 N   0  0  0  0  0  0  0  0  0  0  0  0
  185.2460  174.5000  136.0020 N   0  0  0  0  0  0  0  0  0  0  0  0
  185.3060  175.9560  135.8910 C   0  0  1  0  0  3  0  0  0  0  0  0
  184.2500  175.3360  136.4830 O   0  0  0  0  0  0  0  0  0  0  0  0
  185.9210  173.9440  137.1730 C   0  0  0  0  0  2  0  0  0  0  0  0
  184.9940  172.9800  137.8850 C   0  0  0  0  0  1  0  0  0  0  0  0
  185.9620  178.1400  142.5250 C   0  0  0  0  0  2  0  0  0  0  0  0
  185.8600  179.5220  143.0950 C   0  0  0  0  0  3  0  0  0  0  0  0
  184.7600  179.9790  143.7030 C   0  0  0  0  0  3  0  0  0  0  0  0
  183.5090  179.1680  143.8700 C   0  0  0  0  0  2  0  0  0  0  0  0
  183.4390  178.5600  145.2330 C   0  0  0  0  0  3  0  0  0  0  0  0
  184.0920  179.0240  146.1550 O   0  0  0  0  0  0  0  0  0  0  0  0
  1 15  1  0  0  0  0
  1 16  1  1  0  0  0
  2 31  1  1  0  0  0
  2  1  1  0  0  0  0
  3  7  1  0  0  0  0
  4 22  1  1  0  0  0
  4 18  1  0  0  0  0
  5 12  2  0  0  0  0
  5 19  1  0  0  0  0
  7  9  2  0  0  0  0
  8 17  1  6  0  0  0
  8 20  1  0  0  0  0
  8  2  1  0  0  0  0
  9 15  1  0  0  0  0
 11  3  1  0  0  0  0
 11 20  2  0  0  0  0
 12  6  2  0  0  0  0
 13 10  1  1  0  0  0
 13  5  1  0  0  0  0
 14 10  1  1  0  0  0
 14 13  1  0  0  0  0
 14  4  1  0  0  0  0
 18 19  2  0  0  0  0
 18 17  1  0  0  0  0
 19 11  1  0  0  0  0
 20  9  1  0  0  0  0
 21 25  1  0  0  0  0
 22 25  2  0  0  0  0
 23 21  2  0  0  0  0
 24 23  1  0  0  0  0
 24 22  1  0  0  0  0
 26 28  1  0  0  0  0
 26 29  1  0  0  0  0
 27 26  1  0  0  0  0
 27 28  1  0  0  0  0
 27 23  1  1  0  0  0
 29 30  1  0  0  0  0
 31 32  1  0  0  0  0
 32 33  2  0  0  0  0
 33 34  1  0  0  0  0
 34 35  1  0  0  0  0
 35 36  2  0  0  0  0
M  END
>  <MODEL>
8

>  <REMARK>
 VINA RESULT:      -7.5      2.305      6.350
  Name = 
  7 active torsions:
  status: ('A' for Active; 'I' for Inactive)
    1  A    between atoms: C_3  and  C_6
    2  A    between atoms: C_4  and  C_29
    3  A    between atoms: C_11  and  C_23
    4  A    between atoms: C_12  and  C_22
    5  A    between atoms: N_16  and  C_28
    6  A    between atoms: C_23  and  C_36
    7  A    between atoms: C_29  and  C_33
                            x       y       z     vdW  Elec       q    Type
                         _______ _______ _______ _____ _____    ______ ____

>  <TORSDO>
F 7

$$$$
=
 OpenBabel10222419423D

 36 42  0  0  1  0  0  0  0  0999 V2000
  182.8830  175.7840  137.3090 C   0  0  2  0  0  3  0  0  0  0  0  0
  184.0160  176.3200  138.2330 C   0  0  2  0  0  3  0  0  0  0  0  0
  180.7140  177.3870  140.9680 N   0  0  0  0  0  2  0  0  0  0  0  0
  185.2110  179.2540  142.0230 C   0  0  2  0  0  3  0  0  0  0  0  0
  182.4530  179.1780  142.8670 C   0  0  0  0  0  0  0  0  0  0  0  0
  180.0050  179.5980  143.4210 O   0  0  0  0  0  0  0  0  0  0  0  0
  180.3670  176.5850  139.9630 N   0  0  0  0  0  0  0  0  0  0  0  0
  183.6310  177.6730  138.8730 C   0  0  2  0  0  3  0  0  0  0  0  0
  181.3050  176.7060  139.0040 C   0  0  0  0  0  0  0  0  0  0  0  0
  184.3100  178.1990  144.1750 C   0  0  0  0  0  2  0  0  0  0  0  0
  181.8710  178.0020  140.6330 C   0  0  0  0  0  0  0  0  0  0  0  0
  181.1960  179.3960  143.1510 C   0  0  0  0  0  0  0  0  0  0  0  0
  183.4590  179.4410  143.9510 C   0  0  1  0  0  3  0  0  0  0  0  0
  184.9300  179.4260  143.5300 C   0  0  2  0  0  3  0  0  0  0  0  0
  181.5980  175.7180  138.0170 N   0  0  0  0  0  2  0  0  0  0  0  0
  183.2250  174.4010  136.7840 C   0  0  0  0  0  1  0  0  0  0  0  0
  184.5330  178.0350  139.9340 O   0  0  0  0  0  0  0  0  0  0  0  0
  184.1420  178.6150  141.1680 C   0  0  0  0  0  0  0  0  0  0  0  0
  182.8450  178.6270  141.5490 C   0  0  0  0  0  0  0  0  0  0  0  0
  182.2450  177.5980  139.3950 C   0  0  0  0  0  0  0  0  0  0  0  0
  188.4880  178.2510  140.9710 N   0  0  0  0  0  0  0  0  0  0  0  0
  186.5510  178.6300  141.7890 C   0  0  0  0  0  0  0  0  0  0  0  0
  188.2590  177.4770  142.0500 C   0  0  0  0  0  0  0  0  0  0  0  0
  187.0740  177.7070  142.5590 O   0  0  0  0  0  0  0  0  0  0  0  0
  187.3990  178.9860  140.8040 N   0  0  0  0  0  0  0  0  0  0  0  0
  190.2140  177.0550  143.5760 N   0  0  0  0  0  0  0  0  0  0  0  0
  189.2490  176.5020  142.6280 C   0  0  1  0  0  3  0  0  0  0  0  0
  189.0690  176.3780  143.9710 O   0  0  0  0  0  0  0  0  0  0  0  0
  190.0010  178.4600  143.9190 C   0  0  0  0  0  2  0  0  0  0  0  0
  191.3340  179.1780  143.9690 C   0  0  0  0  0  1  0  0  0  0  0  0
  185.3190  176.4710  137.4590 C   0  0  0  0  0  2  0  0  0  0  0  0
  185.5020  177.8980  137.0420 C   0  0  0  0  0  3  0  0  0  0  0  0
  186.7010  178.4360  136.7930 C   0  0  0  0  0  3  0  0  0  0  0  0
  187.9900  177.6770  136.9160 C   0  0  0  0  0  2  0  0  0  0  0  0
  189.1040  178.5750  137.3500 C   0  0  0  0  0  3  0  0  0  0  0  0
  188.8940  179.7530  137.5940 O   0  0  0  0  0  0  0  0  0  0  0  0
  1 16  1  1  0  0  0
  1 15  1  0  0  0  0
  1  2  1  0  0  0  0
  2 31  1  6  0  0  0
  2  8  1  0  0  0  0
  4 22  1  1  0  0  0
  4 14  1  0  0  0  0
  5 12  2  0  0  0  0
  5 13  1  0  0  0  0
  7  3  1  0  0  0  0
  8 20  1  1  0  0  0
  8 17  1  0  0  0  0
  9 20  1  0  0  0  0
  9  7  2  0  0  0  0
 11  3  1  0  0  0  0
 11 19  1  0  0  0  0
 12  6  2  0  0  0  0
 13 10  1  1  0  0  0
 14 13  1  0  0  0  0
 14 10  1  1  0  0  0
 15  9  1  0  0  0  0
 17 18  1  0  0  0  0
 18 19  2  0  0  0  0
 18  4  1  0  0  0  0
 19  5  1  0  0  0  0
 20 11  2  0  0  0  0
 21 23  2  0  0  0  0
 22 24  1  0  0  0  0
 23 24  1  0  0  0  0
 25 21  1  0  0  0  0
 25 22  2  0  0  0  0
 26 29  1  0  0  0  0
 26 28  1  0  0  0  0
 27 23  1  1  0  0  0
 27 26  1  0  0  0  0
 27 28  1  0  0  0  0
 29 30  1  0  0  0  0
 32 31  1  0  0  0  0
 33 34  1  0  0  0  0
 33 32  2  0  0  0  0
 34 35  1  0  0  0  0
 35 36  2  0  0  0  0
M  END
>  <MODEL>
9

>  <REMARK>
 VINA RESULT:      -7.5      2.399      6.695
  Name = 
  7 active torsions:
  status: ('A' for Active; 'I' for Inactive)
    1  A    between atoms: C_3  and  C_6
    2  A    between atoms: C_4  and  C_29
    3  A    between atoms: C_11  and  C_23
    4  A    between atoms: C_12  and  C_22
    5  A    between atoms: N_16  and  C_28
    6  A    between atoms: C_23  and  C_36
    7  A    between atoms: C_29  and  C_33
                            x       y       z     vdW  Elec       q    Type
                         _______ _______ _______ _____ _____    ______ ____

>  <TORSDO>
F 7

$$$$
