=
 OpenBabel10222418213D

 34 36  0  0  1  0  0  0  0  0999 V2000
  187.2390  176.6380  143.6980 Cl  0  0  0  0  0  0  0  0  0  0  0  0
  188.4250  178.1970  148.8870 Cl  0  0  0  0  0  0  0  0  0  0  0  0
  187.4320  178.2140  147.4380 C   0  0  0  0  0  0  0  0  0  0  0  0
  185.6360  178.2270  145.2790 C   0  0  0  0  0  0  0  0  0  0  0  0
  185.3320  178.9160  146.4520 C   0  0  0  0  0  3  0  0  0  0  0  0
  186.2210  178.9040  147.5240 C   0  0  0  0  0  3  0  0  0  0  0  0
  187.7640  177.5180  146.2450 C   0  0  0  0  0  0  0  0  0  0  0  0
  186.8460  177.5160  145.1770 C   0  0  0  0  0  0  0  0  0  0  0  0
  188.9650  176.8100  146.0710 O   0  0  0  0  0  0  0  0  0  0  0  0
  190.2430  177.4070  145.9280 C   0  0  0  0  0  2  0  0  0  0  0  0
  190.8470  176.9950  144.6040 C   0  0  0  0  0  2  0  0  0  0  0  0
  190.2930  177.7900  143.5630 O   0  0  0  0  0  0  0  0  0  0  0  0
  192.4370  177.2990  140.1460 S   0  0  0  0  0  0  0  0  0  0  0  0
  189.7310  177.2790  139.9650 C   0  0  0  0  0  3  0  0  0  0  0  0
  190.9230  176.4490  139.5970 C   0  0  1  0  0  3  0  0  0  0  0  0
  188.3570  178.5650  141.5050 C   0  0  0  0  0  1  0  0  0  0  0  0
  190.6500  177.6470  142.2170 C   0  0  0  0  0  0  0  0  0  0  0  0
  191.9070  177.3330  141.8660 C   0  0  0  0  0  3  0  0  0  0  0  0
  189.6020  177.8140  141.1830 C   0  0  0  0  0  0  0  0  0  0  0  0
  190.6710  174.8470  137.7840 N   0  0  0  0  0  1  0  0  0  0  0  0
  190.9490  176.2380  138.0950 C   0  0  0  0  0  2  0  0  0  0  0  0
  184.6460  178.2400  144.1620 C   0  0  0  0  0  2  0  0  0  0  0  0
  184.9640  179.3680  143.1940 C   0  0  0  0  0  2  0  0  0  0  0  0
  184.7620  178.9040  141.7620 C   0  0  0  0  0  2  0  0  0  0  0  0
  182.8640  178.6800  140.0490 C   0  0  1  0  0  3  0  0  0  0  0  0
  183.1400  177.4750  140.7270 O   0  0  0  0  0  0  0  0  0  0  0  0
  183.2800  178.6500  141.4880 C   0  0  1  0  0  3  0  0  0  0  0  0
  184.5280  177.9160  138.2890 N   0  0  0  0  0  2  0  0  0  0  0  0
  184.3380  180.1640  138.8970 O   0  0  0  0  0  0  0  0  0  0  0  0
  183.9530  178.9750  139.0590 C   0  0  0  0  0  0  0  0  0  0  0  0
  185.5760  178.1420  137.3060 C   0  0  2  0  0  3  0  0  0  0  0  0
  185.5450  177.1350  136.3380 O   0  0  0  0  0  1  0  0  0  0  0  0
  186.9100  178.1560  137.9790 C   0  0  0  0  0  3  0  0  0  0  0  0
  187.8370  178.8030  137.5150 O   0  0  0  0  0  0  0  0  0  0  0  0
  1  8  1  0  0  0  0
  3  6  1  0  0  0  0
  3  2  1  0  0  0  0
  4  5  1  0  0  0  0
  5  6  2  0  0  0  0
  7  3  2  0  0  0  0
  8  4  2  0  0  0  0
  8  7  1  0  0  0  0
  9  7  1  0  0  0  0
 10  9  1  0  0  0  0
 11 10  1  0  0  0  0
 12 11  1  0  0  0  0
 13 18  1  0  0  0  0
 14 19  2  0  0  0  0
 15 21  1  6  0  0  0
 15 14  1  0  0  0  0
 15 13  1  0  0  0  0
 17 12  1  0  0  0  0
 18 17  2  0  0  0  0
 19 16  1  0  0  0  0
 19 17  1  0  0  0  0
 20 21  1  0  0  0  0
 22  4  1  0  0  0  0
 23 22  1  0  0  0  0
 24 23  1  0  0  0  0
 25 30  1  6  0  0  0
 25 26  1  0  0  0  0
 25 27  1  0  0  0  0
 26 27  1  0  0  0  0
 27 24  1  6  0  0  0
 28 30  1  0  0  0  0
 29 30  2  0  0  0  0
 31 32  1  6  0  0  0
 31 33  1  0  0  0  0
 31 28  1  0  0  0  0
 34 33  2  0  0  0  0
M  END
>  <MODEL>
1

>  <REMARK>
 VINA RESULT:      -7.6      0.000      0.000
  Name = 
  13 active torsions:
  status: ('A' for Active; 'I' for Inactive)
    1  A    between atoms: C_3  and  C_19
    2  A    between atoms: C_5  and  C_11
    3  A    between atoms: C_5  and  C_22
    4  A    between atoms: C_7  and  N_9
    5  A    between atoms: C_7  and  C_17
    6  A    between atoms: C_8  and  O_12
    7  A    between atoms: C_8  and  C_28
    8  A    between atoms: C_11  and  C_20
    9  A    between atoms: O_12  and  C_32
   10  A    between atoms: C_14  and  C_26
   11  A    between atoms: C_20  and  C_23
   12  A    between atoms: O_21  and  C_25
   13  A    between atoms: O_21  and  C_28
                            x       y       z     vdW  Elec       q    Type
                         _______ _______ _______ _____ _____    ______ ____

>  <TORSDO>
F 13

$$$$
=
 OpenBabel10222418213D

 34 36  0  0  1  0  0  0  0  0999 V2000
  187.4200  176.9120  143.7940 Cl  0  0  0  0  0  0  0  0  0  0  0  0
  191.6220  176.8900  147.4150 Cl  0  0  0  0  0  0  0  0  0  0  0  0
  189.9590  177.2180  146.9510 C   0  0  0  0  0  0  0  0  0  0  0  0
  187.2300  177.6470  146.4440 C   0  0  0  0  0  0  0  0  0  0  0  0
  187.7530  177.8700  147.7160 C   0  0  0  0  0  3  0  0  0  0  0  0
  189.1050  177.6520  147.9680 C   0  0  0  0  0  3  0  0  0  0  0  0
  189.4460  177.0000  145.6450 C   0  0  0  0  0  0  0  0  0  0  0  0
  188.0720  177.2000  145.4080 C   0  0  0  0  0  0  0  0  0  0  0  0
  190.2360  176.5770  144.5640 O   0  0  0  0  0  0  0  0  0  0  0  0
  191.2200  177.3700  143.9210 C   0  0  0  0  0  2  0  0  0  0  0  0
  191.3480  176.9420  142.4760 C   0  0  0  0  0  2  0  0  0  0  0  0
  190.0530  176.8230  141.9010 O   0  0  0  0  0  0  0  0  0  0  0  0
  190.3420  177.0110  137.8510 S   0  0  0  0  0  0  0  0  0  0  0  0
  188.0370  177.8570  139.0040 C   0  0  0  0  0  3  0  0  0  0  0  0
  188.5260  176.9080  137.9530 C   0  0  1  0  0  3  0  0  0  0  0  0
  188.0280  178.8330  141.2320 C   0  0  0  0  0  1  0  0  0  0  0  0
  189.7870  177.0850  140.5510 C   0  0  0  0  0  0  0  0  0  0  0  0
  190.5560  176.5660  139.5830 C   0  0  0  0  0  3  0  0  0  0  0  0
  188.6120  177.9210  140.2090 C   0  0  0  0  0  0  0  0  0  0  0  0
  187.2090  178.5390  136.7190 N   0  0  0  0  0  1  0  0  0  0  0  0
  187.9000  177.2650  136.6180 C   0  0  0  0  0  2  0  0  0  0  0  0
  185.7710  177.8660  146.2190 C   0  0  0  0  0  2  0  0  0  0  0  0
  185.5080  179.3200  145.8640 C   0  0  0  0  0  2  0  0  0  0  0  0
  184.9760  179.4280  144.4460 C   0  0  0  0  0  2  0  0  0  0  0  0
  182.7600  179.0710  143.2020 C   0  0  1  0  0  3  0  0  0  0  0  0
  182.9050  178.2290  144.3240 O   0  0  0  0  0  0  0  0  0  0  0  0
  183.4500  179.5190  144.4530 C   0  0  1  0  0  3  0  0  0  0  0  0
  183.5300  179.1750  140.7840 N   0  0  0  0  0  2  0  0  0  0  0  0
  184.5290  177.7290  142.3240 O   0  0  0  0  0  0  0  0  0  0  0  0
  183.6550  178.6060  142.0900 C   0  0  0  0  0  0  0  0  0  0  0  0
  184.3770  178.7740  139.6710 C   0  0  2  0  0  3  0  0  0  0  0  0
  184.8210  179.9040  138.9800 O   0  0  0  0  0  1  0  0  0  0  0  0
  183.6130  177.8820  138.7460 C   0  0  0  0  0  3  0  0  0  0  0  0
  183.8620  177.8630  137.5510 O   0  0  0  0  0  0  0  0  0  0  0  0
  1  8  1  0  0  0  0
  3  2  1  0  0  0  0
  3  6  1  0  0  0  0
  4  5  1  0  0  0  0
  5  6  2  0  0  0  0
  7  3  2  0  0  0  0
  8  7  1  0  0  0  0
  8  4  2  0  0  0  0
  9  7  1  0  0  0  0
 10  9  1  0  0  0  0
 11 10  1  0  0  0  0
 12 11  1  0  0  0  0
 13 15  1  0  0  0  0
 13 18  1  0  0  0  0
 14 19  2  0  0  0  0
 15 21  1  6  0  0  0
 15 14  1  0  0  0  0
 17 12  1  0  0  0  0
 18 17  2  0  0  0  0
 19 17  1  0  0  0  0
 19 16  1  0  0  0  0
 21 20  1  0  0  0  0
 22  4  1  0  0  0  0
 23 22  1  0  0  0  0
 24 23  1  0  0  0  0
 25 30  1  6  0  0  0
 25 26  1  0  0  0  0
 25 27  1  0  0  0  0
 26 27  1  0  0  0  0
 27 24  1  6  0  0  0
 28 30  1  0  0  0  0
 30 29  2  0  0  0  0
 31 32  1  6  0  0  0
 31 28  1  0  0  0  0
 33 31  1  0  0  0  0
 34 33  2  0  0  0  0
M  END
>  <MODEL>
2

>  <REMARK>
 VINA RESULT:      -7.5      1.872      2.887
  Name = 
  13 active torsions:
  status: ('A' for Active; 'I' for Inactive)
    1  A    between atoms: C_3  and  C_19
    2  A    between atoms: C_5  and  C_11
    3  A    between atoms: C_5  and  C_22
    4  A    between atoms: C_7  and  N_9
    5  A    between atoms: C_7  and  C_17
    6  A    between atoms: C_8  and  O_12
    7  A    between atoms: C_8  and  C_28
    8  A    between atoms: C_11  and  C_20
    9  A    between atoms: O_12  and  C_32
   10  A    between atoms: C_14  and  C_26
   11  A    between atoms: C_20  and  C_23
   12  A    between atoms: O_21  and  C_25
   13  A    between atoms: O_21  and  C_28
                            x       y       z     vdW  Elec       q    Type
                         _______ _______ _______ _____ _____    ______ ____

>  <TORSDO>
F 13

$$$$
=
 OpenBabel10222418213D

 34 36  0  0  1  0  0  0  0  0999 V2000
  186.7600  178.4330  142.7720 Cl  0  0  0  0  0  0  0  0  0  0  0  0
  181.3340  178.6090  141.6310 Cl  0  0  0  0  0  0  0  0  0  0  0  0
  182.7030  178.6510  142.7330 C   0  0  0  0  0  0  0  0  0  0  0  0
  184.7690  178.9160  144.6160 C   0  0  0  0  0  0  0  0  0  0  0  0
  183.4390  179.0720  145.0030 C   0  0  0  0  0  3  0  0  0  0  0  0
  182.4160  178.9460  144.0680 C   0  0  0  0  0  3  0  0  0  0  0  0
  184.0520  178.4750  142.3230 C   0  0  0  0  0  0  0  0  0  0  0  0
  185.0790  178.6290  143.2730 C   0  0  0  0  0  0  0  0  0  0  0  0
  184.4260  178.1650  141.0060 O   0  0  0  0  0  0  0  0  0  0  0  0
  184.7660  179.1200  140.0140 C   0  0  0  0  0  2  0  0  0  0  0  0
  184.9080  178.4300  138.6760 C   0  0  0  0  0  2  0  0  0  0  0  0
  186.2280  178.6210  138.1830 O   0  0  0  0  0  0  0  0  0  0  0  0
  187.8400  175.1120  136.9160 S   0  0  0  0  0  0  0  0  0  0  0  0
  189.4840  176.9140  138.1010 C   0  0  0  0  0  3  0  0  0  0  0  0
  189.3620  176.1100  136.8430 C   0  0  1  0  0  3  0  0  0  0  0  0
  188.6600  178.4380  139.8070 C   0  0  0  0  0  1  0  0  0  0  0  0
  187.1180  177.5660  137.9440 C   0  0  0  0  0  0  0  0  0  0  0  0
  186.7890  176.5610  137.1190 C   0  0  0  0  0  3  0  0  0  0  0  0
  188.4480  177.6000  138.5950 C   0  0  0  0  0  0  0  0  0  0  0  0
  190.3950  174.0000  137.4770 N   0  0  0  0  0  1  0  0  0  0  0  0
  190.5760  175.2120  136.6970 C   0  0  0  0  0  2  0  0  0  0  0  0
  185.8400  179.0850  145.6410 C   0  0  0  0  0  2  0  0  0  0  0  0
  186.0510  177.7840  146.3990 C   0  0  0  0  0  2  0  0  0  0  0  0
  187.2850  177.0680  145.8810 C   0  0  0  0  0  2  0  0  0  0  0  0
  189.7400  177.2560  146.6030 C   0  0  1  0  0  3  0  0  0  0  0  0
  188.9040  178.1930  147.2430 O   0  0  0  0  0  0  0  0  0  0  0  0
  188.3290  176.9340  146.9880 C   0  0  1  0  0  3  0  0  0  0  0  0
  190.1350  176.6460  144.1690 N   0  0  0  0  0  2  0  0  0  0  0  0
  189.9490  178.8720  144.8570 O   0  0  0  0  0  0  0  0  0  0  0  0
  189.9540  177.6510  145.1700 C   0  0  0  0  0  0  0  0  0  0  0  0
  190.3330  176.9680  142.7640 C   0  0  2  0  0  3  0  0  0  0  0  0
  189.9340  175.8910  141.9690 O   0  0  0  0  0  1  0  0  0  0  0  0
  191.7740  177.2770  142.5110 C   0  0  0  0  0  3  0  0  0  0  0  0
  192.1920  177.4150  141.3720 O   0  0  0  0  0  0  0  0  0  0  0  0
  1  8  1  0  0  0  0
  2  3  1  0  0  0  0
  3  6  1  0  0  0  0
  4  5  1  0  0  0  0
  4 22  1  0  0  0  0
  6  5  2  0  0  0  0
  7  3  2  0  0  0  0
  7  8  1  0  0  0  0
  8  4  2  0  0  0  0
  9  7  1  0  0  0  0
 10  9  1  0  0  0  0
 11 10  1  0  0  0  0
 12 11  1  0  0  0  0
 13 18  1  0  0  0  0
 14 19  2  0  0  0  0
 15 21  1  1  0  0  0
 15 13  1  0  0  0  0
 15 14  1  0  0  0  0
 17 12  1  0  0  0  0
 17 19  1  0  0  0  0
 18 17  2  0  0  0  0
 19 16  1  0  0  0  0
 21 20  1  0  0  0  0
 22 23  1  0  0  0  0
 24 23  1  0  0  0  0
 25 30  1  6  0  0  0
 25 27  1  0  0  0  0
 25 26  1  0  0  0  0
 27 24  1  6  0  0  0
 27 26  1  0  0  0  0
 28 30  1  0  0  0  0
 29 30  2  0  0  0  0
 31 32  1  6  0  0  0
 31 28  1  0  0  0  0
 33 31  1  0  0  0  0
 34 33  2  0  0  0  0
M  END
>  <MODEL>
3

>  <REMARK>
 VINA RESULT:      -7.4      2.406      6.123
  Name = 
  13 active torsions:
  status: ('A' for Active; 'I' for Inactive)
    1  A    between atoms: C_3  and  C_19
    2  A    between atoms: C_5  and  C_11
    3  A    between atoms: C_5  and  C_22
    4  A    between atoms: C_7  and  N_9
    5  A    between atoms: C_7  and  C_17
    6  A    between atoms: C_8  and  O_12
    7  A    between atoms: C_8  and  C_28
    8  A    between atoms: C_11  and  C_20
    9  A    between atoms: O_12  and  C_32
   10  A    between atoms: C_14  and  C_26
   11  A    between atoms: C_20  and  C_23
   12  A    between atoms: O_21  and  C_25
   13  A    between atoms: O_21  and  C_28
                            x       y       z     vdW  Elec       q    Type
                         _______ _______ _______ _____ _____    ______ ____

>  <TORSDO>
F 13

$$$$
=
 OpenBabel10222418213D

 34 36  0  0  1  0  0  0  0  0999 V2000
  186.0890  178.6690  141.3430 Cl  0  0  0  0  0  0  0  0  0  0  0  0
  181.1980  178.3920  143.9440 Cl  0  0  0  0  0  0  0  0  0  0  0  0
  182.2090  178.7180  142.5430 C   0  0  0  0  0  0  0  0  0  0  0  0
  183.6400  179.1180  140.1610 C   0  0  0  0  0  0  0  0  0  0  0  0
  182.2500  179.2220  140.1730 C   0  0  0  0  0  3  0  0  0  0  0  0
  181.5410  179.0180  141.3530 C   0  0  0  0  0  3  0  0  0  0  0  0
  183.6260  178.6220  142.5530 C   0  0  0  0  0  0  0  0  0  0  0  0
  184.3300  178.8060  141.3470 C   0  0  0  0  0  0  0  0  0  0  0  0
  184.3750  178.3380  143.7060 O   0  0  0  0  0  0  0  0  0  0  0  0
  184.8070  179.3040  144.6500 C   0  0  0  0  0  2  0  0  0  0  0  0
  184.9890  178.6450  145.9990 C   0  0  0  0  0  2  0  0  0  0  0  0
  185.9500  177.6020  145.8890 O   0  0  0  0  0  0  0  0  0  0  0  0
  189.1210  178.2170  148.3550 S   0  0  0  0  0  0  0  0  0  0  0  0
  189.6020  177.1670  145.9010 C   0  0  0  0  0  3  0  0  0  0  0  0
  189.8590  176.8890  147.3500 C   0  0  1  0  0  3  0  0  0  0  0  0
  188.1870  177.7120  144.0000 C   0  0  0  0  0  1  0  0  0  0  0  0
  187.2520  177.7030  146.3940 C   0  0  0  0  0  0  0  0  0  0  0  0
  187.4700  177.9220  147.7000 C   0  0  0  0  0  3  0  0  0  0  0  0
  188.3900  177.5240  145.4630 C   0  0  0  0  0  0  0  0  0  0  0  0
  191.8670  175.5350  147.1240 N   0  0  0  0  0  1  0  0  0  0  0  0
  191.3540  176.8110  147.5930 C   0  0  0  0  0  2  0  0  0  0  0  0
  184.3640  179.3160  138.8710 C   0  0  0  0  0  2  0  0  0  0  0  0
  184.5830  177.9800  138.1810 C   0  0  0  0  0  2  0  0  0  0  0  0
  186.0670  177.7260  137.9840 C   0  0  0  0  0  2  0  0  0  0  0  0
  187.8270  178.0770  136.1510 C   0  0  1  0  0  3  0  0  0  0  0  0
  187.3910  176.7400  136.2470 O   0  0  0  0  0  0  0  0  0  0  0  0
  186.4140  177.7220  136.4960 C   0  0  1  0  0  3  0  0  0  0  0  0
  189.3470  177.3670  138.0580 N   0  0  0  0  0  2  0  0  0  0  0  0
  188.9290  179.6200  137.6020 O   0  0  0  0  0  0  0  0  0  0  0  0
  188.7200  178.4130  137.3100 C   0  0  0  0  0  0  0  0  0  0  0  0
  190.2320  177.6310  139.1830 C   0  0  2  0  0  3  0  0  0  0  0  0
  191.4270  176.9250  139.0230 O   0  0  0  0  0  1  0  0  0  0  0  0
  189.5690  177.2220  140.4580 C   0  0  0  0  0  3  0  0  0  0  0  0
  190.1560  176.5260  141.2710 O   0  0  0  0  0  0  0  0  0  0  0  0
  1  8  1  0  0  0  0
  3  7  1  0  0  0  0
  3  2  1  0  0  0  0
  4  5  2  0  0  0  0
  4  8  1  0  0  0  0
  5  6  1  0  0  0  0
  6  3  2  0  0  0  0
  7  9  1  0  0  0  0
  8  7  2  0  0  0  0
  9 10  1  0  0  0  0
 10 11  1  0  0  0  0
 12 11  1  0  0  0  0
 12 17  1  0  0  0  0
 14 15  1  0  0  0  0
 15 21  1  6  0  0  0
 15 13  1  0  0  0  0
 16 19  1  0  0  0  0
 17 18  2  0  0  0  0
 18 13  1  0  0  0  0
 19 14  2  0  0  0  0
 19 17  1  0  0  0  0
 20 21  1  0  0  0  0
 22  4  1  0  0  0  0
 23 22  1  0  0  0  0
 24 23  1  0  0  0  0
 25 26  1  0  0  0  0
 25 27  1  0  0  0  0
 25 30  1  1  0  0  0
 26 27  1  0  0  0  0
 27 24  1  1  0  0  0
 28 31  1  0  0  0  0
 30 29  2  0  0  0  0
 30 28  1  0  0  0  0
 31 32  1  6  0  0  0
 31 33  1  0  0  0  0
 33 34  2  0  0  0  0
M  END
>  <MODEL>
4

>  <REMARK>
 VINA RESULT:      -7.3      3.044      6.168
  Name = 
  13 active torsions:
  status: ('A' for Active; 'I' for Inactive)
    1  A    between atoms: C_3  and  C_19
    2  A    between atoms: C_5  and  C_11
    3  A    between atoms: C_5  and  C_22
    4  A    between atoms: C_7  and  N_9
    5  A    between atoms: C_7  and  C_17
    6  A    between atoms: C_8  and  O_12
    7  A    between atoms: C_8  and  C_28
    8  A    between atoms: C_11  and  C_20
    9  A    between atoms: O_12  and  C_32
   10  A    between atoms: C_14  and  C_26
   11  A    between atoms: C_20  and  C_23
   12  A    between atoms: O_21  and  C_25
   13  A    between atoms: O_21  and  C_28
                            x       y       z     vdW  Elec       q    Type
                         _______ _______ _______ _____ _____    ______ ____

>  <TORSDO>
F 13

$$$$
=
 OpenBabel10222418213D

 34 36  0  0  1  0  0  0  0  0999 V2000
  185.8470  178.6720  141.5200 Cl  0  0  0  0  0  0  0  0  0  0  0  0
  180.7810  178.3880  143.7630 Cl  0  0  0  0  0  0  0  0  0  0  0  0
  181.8910  178.7300  142.4430 C   0  0  0  0  0  0  0  0  0  0  0  0
  183.4900  179.1600  140.1760 C   0  0  0  0  0  0  0  0  0  0  0  0
  182.1040  179.2740  140.0910 C   0  0  0  0  0  3  0  0  0  0  0  0
  181.3110  179.0560  141.2140 C   0  0  0  0  0  3  0  0  0  0  0  0
  183.3030  178.6240  142.5510 C   0  0  0  0  0  0  0  0  0  0  0  0
  184.0920  178.8220  141.4030 C   0  0  0  0  0  0  0  0  0  0  0  0
  183.9660  178.3130  143.7500 O   0  0  0  0  0  0  0  0  0  0  0  0
  183.8810  179.0750  144.9430 C   0  0  0  0  0  2  0  0  0  0  0  0
  185.2720  179.4410  145.4090 C   0  0  0  0  0  2  0  0  0  0  0  0
  185.8670  178.3190  146.0490 O   0  0  0  0  0  0  0  0  0  0  0  0
  188.9480  176.6600  143.9810 S   0  0  0  0  0  0  0  0  0  0  0  0
  189.4690  177.6820  146.4390 C   0  0  0  0  0  3  0  0  0  0  0  0
  189.9390  177.7810  145.0200 C   0  0  1  0  0  3  0  0  0  0  0  0
  187.7740  177.6900  148.1830 C   0  0  0  0  0  1  0  0  0  0  0  0
  187.1260  177.8150  145.6980 C   0  0  0  0  0  0  0  0  0  0  0  0
  187.3990  177.4590  144.4340 C   0  0  0  0  0  3  0  0  0  0  0  0
  188.1680  177.7170  146.7470 C   0  0  0  0  0  0  0  0  0  0  0  0
  191.8540  176.8940  146.2290 N   0  0  0  0  0  1  0  0  0  0  0  0
  191.4080  177.4090  144.9470 C   0  0  0  0  0  2  0  0  0  0  0  0
  184.3050  179.3750  138.9440 C   0  0  0  0  0  2  0  0  0  0  0  0
  184.5160  178.0560  138.2180 C   0  0  0  0  0  2  0  0  0  0  0  0
  185.9790  177.8880  137.8480 C   0  0  0  0  0  2  0  0  0  0  0  0
  187.5140  177.3930  135.8520 C   0  0  1  0  0  3  0  0  0  0  0  0
  186.8030  176.2590  136.2960 O   0  0  0  0  0  0  0  0  0  0  0  0
  186.1160  177.4840  136.3810 C   0  0  1  0  0  3  0  0  0  0  0  0
  189.1370  176.7170  137.6850 N   0  0  0  0  0  2  0  0  0  0  0  0
  189.0620  178.9040  136.8640 O   0  0  0  0  0  0  0  0  0  0  0  0
  188.6060  177.7300  136.8270 C   0  0  0  0  0  0  0  0  0  0  0  0
  190.2030  176.9810  138.6400 C   0  0  2  0  0  3  0  0  0  0  0  0
  190.7830  175.7770  139.0490 O   0  0  0  0  0  1  0  0  0  0  0  0
  189.6560  177.7080  139.8250 C   0  0  0  0  0  3  0  0  0  0  0  0
  188.6840  177.2800  140.4260 O   0  0  0  0  0  0  0  0  0  0  0  0
  3  7  1  0  0  0  0
  3  2  1  0  0  0  0
  4  8  1  0  0  0  0
  5  4  2  0  0  0  0
  5  6  1  0  0  0  0
  6  3  2  0  0  0  0
  7  9  1  0  0  0  0
  8  1  1  0  0  0  0
  8  7  2  0  0  0  0
  9 10  1  0  0  0  0
 10 11  1  0  0  0  0
 11 12  1  0  0  0  0
 13 18  1  0  0  0  0
 13 15  1  0  0  0  0
 14 19  2  0  0  0  0
 15 21  1  1  0  0  0
 15 14  1  0  0  0  0
 17 12  1  0  0  0  0
 17 19  1  0  0  0  0
 18 17  2  0  0  0  0
 19 16  1  0  0  0  0
 21 20  1  0  0  0  0
 22  4  1  0  0  0  0
 23 22  1  0  0  0  0
 24 23  1  0  0  0  0
 25 26  1  0  0  0  0
 25 27  1  0  0  0  0
 25 30  1  1  0  0  0
 26 27  1  0  0  0  0
 27 24  1  1  0  0  0
 28 31  1  0  0  0  0
 30 29  2  0  0  0  0
 30 28  1  0  0  0  0
 31 32  1  1  0  0  0
 31 33  1  0  0  0  0
 33 34  2  0  0  0  0
M  END
>  <MODEL>
5

>  <REMARK>
 VINA RESULT:      -7.2      2.757      5.944
  Name = 
  13 active torsions:
  status: ('A' for Active; 'I' for Inactive)
    1  A    between atoms: C_3  and  C_19
    2  A    between atoms: C_5  and  C_11
    3  A    between atoms: C_5  and  C_22
    4  A    between atoms: C_7  and  N_9
    5  A    between atoms: C_7  and  C_17
    6  A    between atoms: C_8  and  O_12
    7  A    between atoms: C_8  and  C_28
    8  A    between atoms: C_11  and  C_20
    9  A    between atoms: O_12  and  C_32
   10  A    between atoms: C_14  and  C_26
   11  A    between atoms: C_20  and  C_23
   12  A    between atoms: O_21  and  C_25
   13  A    between atoms: O_21  and  C_28
                            x       y       z     vdW  Elec       q    Type
                         _______ _______ _______ _____ _____    ______ ____

>  <TORSDO>
F 13

$$$$
=
 OpenBabel10222418213D

 34 36  0  0  1  0  0  0  0  0999 V2000
  187.1790  176.6330  143.5030 Cl  0  0  0  0  0  0  0  0  0  0  0  0
  188.1640  178.3370  148.6890 Cl  0  0  0  0  0  0  0  0  0  0  0  0
  187.2150  178.2930  147.2110 C   0  0  0  0  0  0  0  0  0  0  0  0
  185.4840  178.2080  145.0010 C   0  0  0  0  0  0  0  0  0  0  0  0
  185.1260  178.9120  146.1490 C   0  0  0  0  0  3  0  0  0  0  0  0
  185.9820  178.9500  147.2460 C   0  0  0  0  0  3  0  0  0  0  0  0
  187.6020  177.5820  146.0440 C   0  0  0  0  0  0  0  0  0  0  0  0
  186.7170  177.5310  144.9500 C   0  0  0  0  0  0  0  0  0  0  0  0
  188.8270  176.9070  145.9200 O   0  0  0  0  0  0  0  0  0  0  0  0
  190.0900  177.5380  145.7880 C   0  0  0  0  0  2  0  0  0  0  0  0
  190.7360  177.1070  144.4900 C   0  0  0  0  0  2  0  0  0  0  0  0
  190.2290  177.9000  143.4240 O   0  0  0  0  0  0  0  0  0  0  0  0
  192.3320  177.1750  140.0220 S   0  0  0  0  0  0  0  0  0  0  0  0
  189.6270  177.2930  139.8460 C   0  0  0  0  0  3  0  0  0  0  0  0
  190.7720  176.3880  139.5060 C   0  0  1  0  0  3  0  0  0  0  0  0
  188.3300  178.7040  141.3420 C   0  0  0  0  0  1  0  0  0  0  0  0
  190.5730  177.6910  142.0820 C   0  0  0  0  0  0  0  0  0  0  0  0
  191.8100  177.2970  141.7410 C   0  0  0  0  0  3  0  0  0  0  0  0
  189.5320  177.8770  141.0450 C   0  0  0  0  0  0  0  0  0  0  0  0
  191.0120  174.7120  137.7600 N   0  0  0  0  0  1  0  0  0  0  0  0
  190.7810  176.1240  138.0120 C   0  0  0  0  0  2  0  0  0  0  0  0
  184.5280  178.1680  143.8550 C   0  0  0  0  0  2  0  0  0  0  0  0
  185.0170  179.0700  142.7340 C   0  0  0  0  0  2  0  0  0  0  0  0
  184.0920  178.9670  141.5350 C   0  0  0  0  0  2  0  0  0  0  0  0
  184.1050  178.8370  138.9720 C   0  0  1  0  0  3  0  0  0  0  0  0
  184.5520  180.0800  139.4630 O   0  0  0  0  0  0  0  0  0  0  0  0
  184.8980  178.9570  140.2360 C   0  0  1  0  0  3  0  0  0  0  0  0
  181.8070  179.8990  139.1800 N   0  0  0  0  0  2  0  0  0  0  0  0
  182.0900  177.5800  139.2220 O   0  0  0  0  0  0  0  0  0  0  0  0
  182.6170  178.7210  139.1400 C   0  0  0  0  0  0  0  0  0  0  0  0
  180.3610  179.8490  139.3290 C   0  0  2  0  0  3  0  0  0  0  0  0
  179.7580  179.7540  138.0720 O   0  0  0  0  0  1  0  0  0  0  0  0
  179.8780  181.0770  140.0300 C   0  0  0  0  0  3  0  0  0  0  0  0
  179.6500  182.1020  139.4070 O   0  0  0  0  0  0  0  0  0  0  0  0
  1  8  1  0  0  0  0
  3  6  1  0  0  0  0
  3  2  1  0  0  0  0
  4  5  1  0  0  0  0
  5  6  2  0  0  0  0
  7  3  2  0  0  0  0
  8  4  2  0  0  0  0
  8  7  1  0  0  0  0
  9  7  1  0  0  0  0
 10  9  1  0  0  0  0
 11 10  1  0  0  0  0
 12 11  1  0  0  0  0
 13 18  1  0  0  0  0
 14 19  2  0  0  0  0
 15 21  1  6  0  0  0
 15 14  1  0  0  0  0
 15 13  1  0  0  0  0
 17 12  1  0  0  0  0
 18 17  2  0  0  0  0
 19 16  1  0  0  0  0
 19 17  1  0  0  0  0
 20 21  1  0  0  0  0
 22  4  1  0  0  0  0
 23 22  1  0  0  0  0
 24 23  1  0  0  0  0
 25 30  1  1  0  0  0
 25 26  1  0  0  0  0
 25 27  1  0  0  0  0
 26 27  1  0  0  0  0
 27 24  1  1  0  0  0
 28 31  1  0  0  0  0
 30 28  1  0  0  0  0
 30 29  2  0  0  0  0
 31 32  1  6  0  0  0
 31 33  1  0  0  0  0
 34 33  2  0  0  0  0
M  END
>  <MODEL>
6

>  <REMARK>
 VINA RESULT:      -7.1      1.645      2.801
  Name = 
  13 active torsions:
  status: ('A' for Active; 'I' for Inactive)
    1  A    between atoms: C_3  and  C_19
    2  A    between atoms: C_5  and  C_11
    3  A    between atoms: C_5  and  C_22
    4  A    between atoms: C_7  and  N_9
    5  A    between atoms: C_7  and  C_17
    6  A    between atoms: C_8  and  O_12
    7  A    between atoms: C_8  and  C_28
    8  A    between atoms: C_11  and  C_20
    9  A    between atoms: O_12  and  C_32
   10  A    between atoms: C_14  and  C_26
   11  A    between atoms: C_20  and  C_23
   12  A    between atoms: O_21  and  C_25
   13  A    between atoms: O_21  and  C_28
                            x       y       z     vdW  Elec       q    Type
                         _______ _______ _______ _____ _____    ______ ____

>  <TORSDO>
F 13

$$$$
=
 OpenBabel10222418213D

 34 36  0  0  1  0  0  0  0  0999 V2000
  186.2550  177.9490  142.7100 Cl  0  0  0  0  0  0  0  0  0  0  0  0
  188.4700  176.8690  147.6790 Cl  0  0  0  0  0  0  0  0  0  0  0  0
  187.3020  177.6510  146.6240 C   0  0  0  0  0  0  0  0  0  0  0  0
  185.2530  178.8420  145.1170 C   0  0  0  0  0  0  0  0  0  0  0  0
  185.2680  178.9650  146.5050 C   0  0  0  0  0  3  0  0  0  0  0  0
  186.2820  178.3690  147.2520 C   0  0  0  0  0  3  0  0  0  0  0  0
  187.3100  177.5280  145.2090 C   0  0  0  0  0  0  0  0  0  0  0  0
  186.2660  178.1130  144.4670 C   0  0  0  0  0  0  0  0  0  0  0  0
  188.3030  176.8350  144.4980 O   0  0  0  0  0  0  0  0  0  0  0  0
  189.6690  177.2120  144.4390 C   0  0  0  0  0  2  0  0  0  0  0  0
  189.8620  178.2390  143.3450 C   0  0  0  0  0  2  0  0  0  0  0  0
  189.5050  177.6680  142.0930 O   0  0  0  0  0  0  0  0  0  0  0  0
  192.8870  177.4990  139.8450 S   0  0  0  0  0  0  0  0  0  0  0  0
  190.5110  177.0930  138.6020 C   0  0  0  0  0  3  0  0  0  0  0  0
  191.8470  176.4430  138.7860 C   0  0  1  0  0  3  0  0  0  0  0  0
  188.4770  178.1660  139.3940 C   0  0  0  0  0  1  0  0  0  0  0  0
  190.3890  177.5820  141.0100 C   0  0  0  0  0  0  0  0  0  0  0  0
  191.7100  177.4510  141.2070 C   0  0  0  0  0  3  0  0  0  0  0  0
  189.8330  177.6010  139.6370 C   0  0  0  0  0  0  0  0  0  0  0  0
  193.9200  175.9730  137.6020 N   0  0  0  0  0  1  0  0  0  0  0  0
  192.5030  176.2430  137.4320 C   0  0  0  0  0  2  0  0  0  0  0  0
  184.1360  179.4710  144.3530 C   0  0  0  0  0  2  0  0  0  0  0  0
  182.8760  178.6320  144.4810 C   0  0  0  0  0  2  0  0  0  0  0  0
  181.8800  179.0110  143.3990 C   0  0  0  0  0  2  0  0  0  0  0  0
  179.3680  179.3300  142.9840 C   0  0  1  0  0  3  0  0  0  0  0  0
  179.7250  177.9820  143.1920 O   0  0  0  0  0  0  0  0  0  0  0  0
  180.4510  178.9300  143.9370 C   0  0  1  0  0  3  0  0  0  0  0  0
  180.1930  178.8130  140.6380 N   0  0  0  0  0  2  0  0  0  0  0  0
  179.8540  181.0100  141.3590 O   0  0  0  0  0  0  0  0  0  0  0  0
  179.8230  179.7790  141.6260 C   0  0  0  0  0  0  0  0  0  0  0  0
  180.6290  179.1880  139.3010 C   0  0  2  0  0  3  0  0  0  0  0  0
  180.1750  178.2490  138.3720 O   0  0  0  0  0  1  0  0  0  0  0  0
  182.1210  179.2640  139.2560 C   0  0  0  0  0  3  0  0  0  0  0  0
  182.6820  180.2120  138.7310 O   0  0  0  0  0  0  0  0  0  0  0  0
  1  8  1  0  0  0  0
  3  6  1  0  0  0  0
  3  2  1  0  0  0  0
  4  5  1  0  0  0  0
  5  6  2  0  0  0  0
  7  3  2  0  0  0  0
  8  4  2  0  0  0  0
  8  7  1  0  0  0  0
  9  7  1  0  0  0  0
 10  9  1  0  0  0  0
 11 10  1  0  0  0  0
 12 11  1  0  0  0  0
 13 18  1  0  0  0  0
 14 15  1  0  0  0  0
 14 19  2  0  0  0  0
 15 21  1  6  0  0  0
 15 13  1  0  0  0  0
 16 19  1  0  0  0  0
 17 18  2  0  0  0  0
 17 12  1  0  0  0  0
 19 17  1  0  0  0  0
 21 20  1  0  0  0  0
 22 23  1  0  0  0  0
 22  4  1  0  0  0  0
 24 23  1  0  0  0  0
 25 30  1  6  0  0  0
 25 26  1  0  0  0  0
 25 27  1  0  0  0  0
 26 27  1  0  0  0  0
 27 24  1  6  0  0  0
 28 30  1  0  0  0  0
 29 30  2  0  0  0  0
 31 32  1  6  0  0  0
 31 28  1  0  0  0  0
 33 31  1  0  0  0  0
 34 33  2  0  0  0  0
M  END
>  <MODEL>
7

>  <REMARK>
 VINA RESULT:      -7.1      2.354      3.070
  Name = 
  13 active torsions:
  status: ('A' for Active; 'I' for Inactive)
    1  A    between atoms: C_3  and  C_19
    2  A    between atoms: C_5  and  C_11
    3  A    between atoms: C_5  and  C_22
    4  A    between atoms: C_7  and  N_9
    5  A    between atoms: C_7  and  C_17
    6  A    between atoms: C_8  and  O_12
    7  A    between atoms: C_8  and  C_28
    8  A    between atoms: C_11  and  C_20
    9  A    between atoms: O_12  and  C_32
   10  A    between atoms: C_14  and  C_26
   11  A    between atoms: C_20  and  C_23
   12  A    between atoms: O_21  and  C_25
   13  A    between atoms: O_21  and  C_28
                            x       y       z     vdW  Elec       q    Type
                         _______ _______ _______ _____ _____    ______ ____

>  <TORSDO>
F 13

$$$$
=
 OpenBabel10222418213D

 34 36  0  0  1  0  0  0  0  0999 V2000
  187.5530  176.9000  143.2740 Cl  0  0  0  0  0  0  0  0  0  0  0  0
  187.8580  178.2820  148.6380 Cl  0  0  0  0  0  0  0  0  0  0  0  0
  188.5410  177.6670  147.1400 C   0  0  0  0  0  0  0  0  0  0  0  0
  189.8470  176.8270  144.8000 C   0  0  0  0  0  0  0  0  0  0  0  0
  190.5610  176.9850  145.9870 C   0  0  0  0  0  3  0  0  0  0  0  0
  189.9140  177.4070  147.1450 C   0  0  0  0  0  3  0  0  0  0  0  0
  187.7950  177.4980  145.9430 C   0  0  0  0  0  0  0  0  0  0  0  0
  188.4660  177.0940  144.7720 C   0  0  0  0  0  0  0  0  0  0  0  0
  186.4120  177.7250  145.8540 O   0  0  0  0  0  0  0  0  0  0  0  0
  185.7990  179.0030  145.8680 C   0  0  0  0  0  2  0  0  0  0  0  0
  184.3360  178.8650  145.5120 C   0  0  0  0  0  2  0  0  0  0  0  0
  184.1300  179.3110  144.1770 O   0  0  0  0  0  0  0  0  0  0  0  0
  180.3170  178.4260  143.0810 S   0  0  0  0  0  0  0  0  0  0  0  0
  182.1660  178.7340  141.1210 C   0  0  0  0  0  3  0  0  0  0  0  0
  180.8220  179.2480  141.5360 C   0  0  1  0  0  3  0  0  0  0  0  0
  184.5040  178.1830  141.4990 C   0  0  0  0  0  1  0  0  0  0  0  0
  182.9970  178.9770  143.4240 C   0  0  0  0  0  0  0  0  0  0  0  0
  181.7730  179.0030  143.9720 C   0  0  0  0  0  3  0  0  0  0  0  0
  183.1730  178.6290  141.9950 C   0  0  0  0  0  0  0  0  0  0  0  0
  179.3070  180.2220  139.9010 N   0  0  0  0  0  1  0  0  0  0  0  0
  179.8130  178.9710  140.4360 C   0  0  0  0  0  2  0  0  0  0  0  0
  190.5800  176.3990  143.5730 C   0  0  0  0  0  2  0  0  0  0  0  0
  190.5790  177.5180  142.5440 C   0  0  0  0  0  2  0  0  0  0  0  0
  190.5880  176.9410  141.1400 C   0  0  0  0  0  2  0  0  0  0  0  0
  189.8720  177.5110  138.7430 C   0  0  1  0  0  3  0  0  0  0  0  0
  188.8260  176.9660  139.5160 O   0  0  0  0  0  0  0  0  0  0  0  0
  189.7300  177.7940  140.2060 C   0  0  1  0  0  3  0  0  0  0  0  0
  192.2350  176.7610  138.1930 N   0  0  0  0  0  2  0  0  0  0  0  0
  190.4550  175.2480  138.2520 O   0  0  0  0  0  0  0  0  0  0  0  0
  190.8540  176.4370  138.3750 C   0  0  0  0  0  0  0  0  0  0  0  0
  193.2350  175.7610  137.8490 C   0  0  2  0  0  3  0  0  0  0  0  0
  194.3140  175.8440  138.7330 O   0  0  0  0  0  1  0  0  0  0  0  0
  193.7100  175.9770  136.4480 C   0  0  0  0  0  3  0  0  0  0  0  0
  194.6800  176.6830  136.2200 O   0  0  0  0  0  0  0  0  0  0  0  0
  1  8  1  0  0  0  0
  3  6  1  0  0  0  0
  3  2  1  0  0  0  0
  4  5  1  0  0  0  0
  5  6  2  0  0  0  0
  7  3  2  0  0  0  0
  8  4  2  0  0  0  0
  8  7  1  0  0  0  0
  9 10  1  0  0  0  0
  9  7  1  0  0  0  0
 11 10  1  0  0  0  0
 12 11  1  0  0  0  0
 13 18  1  0  0  0  0
 14 15  1  0  0  0  0
 14 19  2  0  0  0  0
 15 21  1  6  0  0  0
 15 13  1  0  0  0  0
 16 19  1  0  0  0  0
 17 18  2  0  0  0  0
 17 12  1  0  0  0  0
 19 17  1  0  0  0  0
 20 21  1  0  0  0  0
 22  4  1  0  0  0  0
 23 22  1  0  0  0  0
 24 23  1  0  0  0  0
 25 30  1  1  0  0  0
 25 26  1  0  0  0  0
 25 27  1  0  0  0  0
 26 27  1  0  0  0  0
 27 24  1  1  0  0  0
 28 30  1  0  0  0  0
 29 30  2  0  0  0  0
 31 28  1  0  0  0  0
 31 32  1  1  0  0  0
 33 31  1  0  0  0  0
 34 33  2  0  0  0  0
M  END
>  <MODEL>
8

>  <REMARK>
 VINA RESULT:      -7.0      3.468      7.123
  Name = 
  13 active torsions:
  status: ('A' for Active; 'I' for Inactive)
    1  A    between atoms: C_3  and  C_19
    2  A    between atoms: C_5  and  C_11
    3  A    between atoms: C_5  and  C_22
    4  A    between atoms: C_7  and  N_9
    5  A    between atoms: C_7  and  C_17
    6  A    between atoms: C_8  and  O_12
    7  A    between atoms: C_8  and  C_28
    8  A    between atoms: C_11  and  C_20
    9  A    between atoms: O_12  and  C_32
   10  A    between atoms: C_14  and  C_26
   11  A    between atoms: C_20  and  C_23
   12  A    between atoms: O_21  and  C_25
   13  A    between atoms: O_21  and  C_28
                            x       y       z     vdW  Elec       q    Type
                         _______ _______ _______ _____ _____    ______ ____

>  <TORSDO>
F 13

$$$$
=
 OpenBabel10222418213D

 34 36  0  0  1  0  0  0  0  0999 V2000
  186.9130  177.1700  143.3660 Cl  0  0  0  0  0  0  0  0  0  0  0  0
  188.1450  178.0380  148.7040 Cl  0  0  0  0  0  0  0  0  0  0  0  0
  188.5490  177.5510  147.0650 C   0  0  0  0  0  0  0  0  0  0  0  0
  189.4220  176.9040  144.4750 C   0  0  0  0  0  0  0  0  0  0  0  0
  190.3260  176.9350  145.5350 C   0  0  0  0  0  3  0  0  0  0  0  0
  189.8940  177.2610  146.8180 C   0  0  0  0  0  3  0  0  0  0  0  0
  187.6120  177.5100  145.9990 C   0  0  0  0  0  0  0  0  0  0  0  0
  188.0660  177.2030  144.7020 C   0  0  0  0  0  0  0  0  0  0  0  0
  186.2420  177.7750  146.1620 O   0  0  0  0  0  0  0  0  0  0  0  0
  185.6410  179.0510  146.0180 C   0  0  0  0  0  2  0  0  0  0  0  0
  184.1790  178.8840  145.6700 C   0  0  0  0  0  2  0  0  0  0  0  0
  184.0400  178.7630  144.2600 O   0  0  0  0  0  0  0  0  0  0  0  0
  180.0460  178.5460  143.5350 S   0  0  0  0  0  0  0  0  0  0  0  0
  181.6980  179.0040  141.4330 C   0  0  0  0  0  3  0  0  0  0  0  0
  180.4890  179.5810  142.1030 C   0  0  1  0  0  3  0  0  0  0  0  0
  183.9660  178.1260  141.4010 C   0  0  0  0  0  1  0  0  0  0  0  0
  182.7970  178.7100  143.6150 C   0  0  0  0  0  0  0  0  0  0  0  0
  181.6540  178.7720  144.3140 C   0  0  0  0  0  3  0  0  0  0  0  0
  182.7690  178.6200  142.1360 C   0  0  0  0  0  0  0  0  0  0  0  0
  179.8540  179.6150  139.7550 N   0  0  0  0  0  1  0  0  0  0  0  0
  179.3400  179.6350  141.1140 C   0  0  0  0  0  2  0  0  0  0  0  0
  189.9280  176.5760  143.1100 C   0  0  0  0  0  2  0  0  0  0  0  0
  190.0450  177.8420  142.2770 C   0  0  0  0  0  2  0  0  0  0  0  0
  189.3960  177.6400  140.9190 C   0  0  0  0  0  2  0  0  0  0  0  0
  189.9960  176.8140  138.5650 C   0  0  1  0  0  3  0  0  0  0  0  0
  191.0320  177.5540  139.1710 O   0  0  0  0  0  0  0  0  0  0  0  0
  190.2690  176.7500  140.0360 C   0  0  1  0  0  3  0  0  0  0  0  0
  187.5530  177.2270  138.0040 N   0  0  0  0  0  2  0  0  0  0  0  0
  189.1320  178.9500  137.9400 O   0  0  0  0  0  0  0  0  0  0  0  0
  188.8850  177.7320  138.1450 C   0  0  0  0  0  0  0  0  0  0  0  0
  186.4350  178.0710  137.6120 C   0  0  2  0  0  3  0  0  0  0  0  0
  185.9950  178.8160  138.7090 O   0  0  0  0  0  1  0  0  0  0  0  0
  185.3170  177.2260  137.0930 C   0  0  0  0  0  3  0  0  0  0  0  0
  185.5460  176.2320  136.4210 O   0  0  0  0  0  0  0  0  0  0  0  0
  1  8  1  0  0  0  0
  3  2  1  0  0  0  0
  4  8  2  0  0  0  0
  4  5  1  0  0  0  0
  5  6  2  0  0  0  0
  6  3  1  0  0  0  0
  7  9  1  0  0  0  0
  7  3  2  0  0  0  0
  8  7  1  0  0  0  0
 10  9  1  0  0  0  0
 11 10  1  0  0  0  0
 12 11  1  0  0  0  0
 13 18  1  0  0  0  0
 14 15  1  0  0  0  0
 14 19  2  0  0  0  0
 15 21  1  6  0  0  0
 15 13  1  0  0  0  0
 16 19  1  0  0  0  0
 17 12  1  0  0  0  0
 17 18  2  0  0  0  0
 19 17  1  0  0  0  0
 20 21  1  0  0  0  0
 22  4  1  0  0  0  0
 23 22  1  0  0  0  0
 24 23  1  0  0  0  0
 25 30  1  1  0  0  0
 25 26  1  0  0  0  0
 25 27  1  0  0  0  0
 26 27  1  0  0  0  0
 27 24  1  1  0  0  0
 28 30  1  0  0  0  0
 29 30  2  0  0  0  0
 31 28  1  0  0  0  0
 31 32  1  1  0  0  0
 33 31  1  0  0  0  0
 34 33  2  0  0  0  0
M  END
>  <MODEL>
9

>  <REMARK>
 VINA RESULT:      -7.0      3.015      6.517
  Name = 
  13 active torsions:
  status: ('A' for Active; 'I' for Inactive)
    1  A    between atoms: C_3  and  C_19
    2  A    between atoms: C_5  and  C_11
    3  A    between atoms: C_5  and  C_22
    4  A    between atoms: C_7  and  N_9
    5  A    between atoms: C_7  and  C_17
    6  A    between atoms: C_8  and  O_12
    7  A    between atoms: C_8  and  C_28
    8  A    between atoms: C_11  and  C_20
    9  A    between atoms: O_12  and  C_32
   10  A    between atoms: C_14  and  C_26
   11  A    between atoms: C_20  and  C_23
   12  A    between atoms: O_21  and  C_25
   13  A    between atoms: O_21  and  C_28
                            x       y       z     vdW  Elec       q    Type
                         _______ _______ _______ _____ _____    ______ ____

>  <TORSDO>
F 13

$$$$
