=
 OpenBabel10222416503D

 53 54  0  0  1  0  0  0  0  0999 V2000
  191.1050  174.5780  137.4200 N   0  0  0  0  0  0  0  0  0  0  0  0
  190.3310  175.4370  136.5090 C   0  0  1  0  0  3  0  0  0  0  0  0
  189.4310  176.1820  137.4020 C   0  0  0  0  0  0  0  0  0  0  0  0
  186.8630  176.2290  136.9480 C   0  0  0  0  0  3  0  0  0  0  0  0
  191.1580  175.2350  138.6680 N   0  0  0  0  0  2  0  0  0  0  0  0
  188.1460  176.2050  137.1750 C   0  0  0  0  0  0  0  0  0  0  0  0
  189.9430  176.0370  138.7780 C   0  0  1  0  0  3  0  0  0  0  0  0
  191.1750  176.4530  135.7330 C   0  0  0  0  0  1  0  0  0  0  0  0
  190.2870  177.4040  139.3400 C   0  0  0  0  0  2  0  0  0  0  0  0
  191.1130  177.2570  140.6120 C   0  0  0  0  0  2  0  0  0  0  0  0
  190.6640  178.9520  142.6030 Cl  0  0  0  0  0  0  0  0  0  0  0  0
  190.2870  177.3580  141.8990 C   0  0  1  0  0  0  0  0  0  0  0  0
  188.4880  177.2970  141.5170 S   0  0  0  0  0  0  0  0  0  0  0  0
  187.9630  178.3620  142.8990 C   0  0  0  0  0  2  0  0  0  0  0  0
  187.8360  177.5520  144.1400 C   0  0  0  0  0  0  0  0  0  0  0  0
  187.2540  176.4360  144.1000 O   0  0  0  0  0  0  0  0  0  0  0  0
  188.3420  178.0670  145.3730 N   0  0  0  0  0  2  0  0  0  0  0  0
  188.3140  177.3030  146.6130 C   0  0  0  0  0  2  0  0  0  0  0  0
  187.2460  177.8240  147.5740 C   0  0  1  0  0  3  0  0  0  0  0  0
  187.8260  178.4110  148.7040 O   0  0  0  0  0  1  0  0  0  0  0  0
  186.2740  178.7830  146.8870 C   0  0  2  0  0  3  0  0  0  0  0  0
  186.1590  179.9740  147.6070 O   0  0  0  0  0  1  0  0  0  0  0  0
  184.9100  178.1300  146.7460 C   0  0  0  0  0  2  0  0  0  0  0  0
  184.0770  178.9420  145.9760 O   0  0  0  0  0  0  0  0  0  0  0  0
  184.2050  178.4460  144.6770 C   0  0  0  0  0  2  0  0  0  0  0  0
  183.6100  179.4280  143.6810 C   0  0  0  0  0  2  0  0  0  0  0  0
  184.5730  177.7790  142.2380 O   0  0  0  0  0  1  0  0  0  0  0  0
  183.7890  178.9340  142.2540 C   0  0  0  0  0  2  0  0  0  0  0  0
  190.7120  176.2920  142.9220 C   0  0  0  0  0  2  0  0  0  0  0  0
  191.7710  176.7720  143.9050 C   0  0  0  0  0  2  0  0  0  0  0  0
  191.6090  176.0410  145.2190 C   0  0  0  0  0  2  0  0  0  0  0  0
  191.8360  176.9260  146.2720 O   0  0  0  0  0  1  0  0  0  0  0  0
  192.4720  174.3280  136.9630 C   0  0  0  0  0  2  0  0  0  0  0  0
  193.3770  174.3950  138.0590 O   0  0  0  0  0  0  0  0  0  0  0  0
  196.6570  175.0380  136.4860 C   0  0  0  0  0  0  0  0  0  0  0  0
  197.0320  174.2320  138.7400 C   0  0  0  0  0  3  0  0  0  0  0  0
  195.2750  174.9370  136.6790 C   0  0  0  0  0  3  0  0  0  0  0  0
  194.7630  174.4820  137.8990 C   0  0  0  0  0  0  0  0  0  0  0  0
  197.5340  174.6840  137.5160 C   0  0  0  0  0  3  0  0  0  0  0  0
  197.1920  175.5200  135.1880 C   0  0  0  0  0  1  0  0  0  0  0  0
  195.6510  174.1320  138.9320 C   0  0  0  0  0  3  0  0  0  0  0  0
  186.1820  177.5210  136.6740 C   0  0  0  0  0  2  0  0  0  0  0  0
  184.9120  177.2640  135.8880 C   0  0  0  0  0  2  0  0  0  0  0  0
  184.8840  175.8310  135.3850 C   0  0  0  0  0  2  0  0  0  0  0  0
  183.6580  175.2390  135.6980 O   0  0  0  0  0  0  0  0  0  0  0  0
  183.9780  174.1690  136.5400 C   0  0  1  0  0  3  0  0  0  0  0  0
  183.7500  174.5460  138.0040 C   0  0  0  0  0  2  0  0  0  0  0  0
  182.6490  176.7440  138.4630 O   0  0  0  0  0  1  0  0  0  0  0  0
  181.3870  174.8550  138.1500 O   0  0  0  0  0  0  0  0  0  0  0  0
  182.5270  175.3850  138.1990 C   0  0  0  0  0  0  0  0  0  0  0  0
  183.1710  172.9300  136.1630 C   0  0  0  0  0  2  0  0  0  0  0  0
  184.0810  171.7500  135.8710 C   0  0  0  0  0  2  0  0  0  0  0  0
  183.4880  170.5690  136.3170 O   0  0  0  0  0  1  0  0  0  0  0  0
  1  5  1  0  0  0  0
  2  8  1  1  0  0  0
  2  3  1  0  0  0  0
  2  1  1  0  0  0  0
  3  7  1  0  0  0  0
  4  6  2  0  0  0  0
  5  7  1  0  0  0  0
  6  3  2  0  0  0  0
  7  9  1  6  0  0  0
  9 10  1  0  0  0  0
 10 12  1  0  0  0  0
 12 11  1  1  0  0  0
 12 29  1  0  0  0  0
 13 12  1  0  0  0  0
 13 14  1  0  0  0  0
 14 15  1  0  0  0  0
 15 17  1  0  0  0  0
 16 15  2  0  0  0  0
 17 18  1  0  0  0  0
 18 19  1  0  0  0  0
 19 20  1  1  0  0  0
 21 19  1  0  0  0  0
 21 22  1  1  0  0  0
 23 21  1  0  0  0  0
 24 23  1  0  0  0  0
 25 24  1  0  0  0  0
 26 25  1  0  0  0  0
 27 28  1  0  0  0  0
 28 26  1  0  0  0  0
 29 30  1  0  0  0  0
 30 31  1  0  0  0  0
 31 32  1  0  0  0  0
 33  1  1  0  0  0  0
 33 34  1  0  0  0  0
 35 37  2  0  0  0  0
 35 39  1  0  0  0  0
 36 41  1  0  0  0  0
 37 38  1  0  0  0  0
 38 34  1  0  0  0  0
 38 41  2  0  0  0  0
 39 36  2  0  0  0  0
 40 35  1  0  0  0  0
 42  4  1  0  0  0  0
 43 42  1  0  0  0  0
 44 45  1  0  0  0  0
 44 43  1  0  0  0  0
 45 46  1  0  0  0  0
 46 51  1  6  0  0  0
 46 47  1  0  0  0  0
 47 50  1  0  0  0  0
 49 50  2  0  0  0  0
 50 48  1  0  0  0  0
 52 51  1  0  0  0  0
 52 53  1  0  0  0  0
M  END
>  <MODEL>
1

>  <REMARK>
 VINA RESULT:      -5.3      0.000      0.000
  Name = 
  29 active torsions:
  status: ('A' for Active; 'I' for Inactive)
    1  A    between atoms: C_1  and  C_12
    2  A    between atoms: C_1  and  O_36
    3  A    between atoms: C_2  and  C_10
    4  A    between atoms: C_3  and  C_22
    5  A    between atoms: C_4  and  C_13
    6  A    between atoms: C_4  and  C_51
    7  A    between atoms: O_6  and  C_19
    8  A    between atoms: O_6  and  C_40
    9  A    between atoms: C_7  and  C_30
   10  A    between atoms: C_7  and  C_50
   11  A    between atoms: C_8  and  C_9
   12  A    between atoms: C_8  and  C_14
   13  A    between atoms: C_10  and  C_35
   14  A    between atoms: C_12  and  C_31
   15  A    between atoms: C_13  and  O_36
   16  A    between atoms: C_14  and  C_23
   17  A    between atoms: N_15  and  C_19
   18  A    between atoms: C_17  and  C_31
   19  A    between atoms: C_17  and  N_52
   20  A    between atoms: C_22  and  S_38
   21  A    between atoms: C_23  and  C_26
   22  A    between atoms: C_23  and  S_38
   23  A    between atoms: C_26  and  C_32
   24  A    between atoms: O_29  and  C_35
   25  A    between atoms: O_29  and  C_41
   26  A    between atoms: C_32  and  C_43
   27  A    between atoms: C_35  and  C_47
   28  A    between atoms: C_41  and  C_50
   29  A    between atoms: C_42  and  C_47
                            x       y       z     vdW  Elec       q    Type
                         _______ _______ _______ _____ _____    ______ ____

>  <TORSDO>
F 29

$$$$
=
 OpenBabel10222416503D

 53 54  0  0  1  0  0  0  0  0999 V2000
  186.1190  178.1640  140.5490 N   0  0  0  0  0  0  0  0  0  0  0  0
  187.1230  178.4230  141.5940 C   0  0  1  0  0  3  0  0  0  0  0  0
  188.3730  177.9020  141.0230 C   0  0  0  0  0  0  0  0  0  0  0  0
  189.8380  176.2160  142.3700 C   0  0  0  0  0  3  0  0  0  0  0  0
  186.7980  178.1630  139.3110 N   0  0  0  0  0  2  0  0  0  0  0  0
  189.1060  177.0580  141.6970 C   0  0  0  0  0  0  0  0  0  0  0  0
  188.1620  177.7160  139.5750 C   0  0  1  0  0  3  0  0  0  0  0  0
  187.3300  179.9070  141.9140 C   0  0  0  0  0  1  0  0  0  0  0  0
  189.1380  178.5840  138.8020 C   0  0  0  0  0  2  0  0  0  0  0  0
  188.9520  178.3790  137.3040 C   0  0  0  0  0  2  0  0  0  0  0  0
  188.6560  175.7450  137.4120 Cl  0  0  0  0  0  0  0  0  0  0  0  0
  189.6120  177.1040  136.7680 C   0  0  1  0  0  0  0  0  0  0  0  0
  189.5300  177.0600  134.9310 S   0  0  0  0  0  0  0  0  0  0  0  0
  188.3330  175.6910  134.8260 C   0  0  0  0  0  2  0  0  0  0  0  0
  186.9520  176.2340  134.7250 C   0  0  0  0  0  0  0  0  0  0  0  0
  186.7780  177.4750  134.5960 O   0  0  0  0  0  0  0  0  0  0  0  0
  185.8360  175.3460  134.8130 N   0  0  0  0  0  2  0  0  0  0  0  0
  184.4600  175.7980  134.6540 C   0  0  0  0  0  2  0  0  0  0  0  0
  183.8650  176.2710  135.9800 C   0  0  1  0  0  3  0  0  0  0  0  0
  183.2480  177.5180  135.8410 O   0  0  0  0  0  1  0  0  0  0  0  0
  182.9080  175.2410  136.5790 C   0  0  2  0  0  3  0  0  0  0  0  0
  182.6500  174.2130  135.6690 O   0  0  0  0  0  1  0  0  0  0  0  0
  181.6060  175.9120  136.9840 C   0  0  0  0  0  2  0  0  0  0  0  0
  180.5570  174.9960  136.8930 O   0  0  0  0  0  0  0  0  0  0  0  0
  180.3400  174.5770  138.2070 C   0  0  0  0  0  2  0  0  0  0  0  0
  179.9220  175.7560  139.0710 C   0  0  0  0  0  2  0  0  0  0  0  0
  179.4160  173.9890  140.6030 O   0  0  0  0  0  1  0  0  0  0  0  0
  179.7620  175.3390  140.5240 C   0  0  0  0  0  2  0  0  0  0  0  0
  191.0460  176.9500  137.3010 C   0  0  0  0  0  2  0  0  0  0  0  0
  191.8160  175.8000  136.6670 C   0  0  0  0  0  2  0  0  0  0  0  0
  193.3000  176.0890  136.7320 C   0  0  0  0  0  2  0  0  0  0  0  0
  193.6030  176.6810  137.9580 O   0  0  0  0  0  1  0  0  0  0  0  0
  185.0570  179.1690  140.5010 C   0  0  0  0  0  2  0  0  0  0  0  0
  183.7820  178.5370  140.5150 O   0  0  0  0  0  0  0  0  0  0  0  0
  180.6080  178.7100  142.3970 C   0  0  0  0  0  0  0  0  0  0  0  0
  182.4420  178.8180  143.9760 C   0  0  0  0  0  3  0  0  0  0  0  0
  181.5200  178.6200  141.3410 C   0  0  0  0  0  3  0  0  0  0  0  0
  182.8970  178.6300  141.5940 C   0  0  0  0  0  0  0  0  0  0  0  0
  181.0690  178.8100  143.7140 C   0  0  0  0  0  3  0  0  0  0  0  0
  179.1490  178.7000  142.1210 C   0  0  0  0  0  1  0  0  0  0  0  0
  183.3540  178.7280  142.9190 C   0  0  0  0  0  3  0  0  0  0  0  0
  191.2270  176.5800  142.7510 C   0  0  0  0  0  2  0  0  0  0  0  0
  191.3160  178.0770  142.9630 C   0  0  0  0  0  2  0  0  0  0  0  0
  190.6960  178.4590  144.2950 C   0  0  0  0  0  2  0  0  0  0  0  0
  191.0860  177.5490  145.2810 O   0  0  0  0  0  0  0  0  0  0  0  0
  190.0530  177.5710  146.2240 C   0  0  1  0  0  3  0  0  0  0  0  0
  188.6970  177.3760  145.5450 C   0  0  0  0  0  2  0  0  0  0  0  0
  187.7660  178.3070  147.6720 O   0  0  0  0  0  1  0  0  0  0  0  0
  186.3860  177.3030  146.1390 O   0  0  0  0  0  0  0  0  0  0  0  0
  187.5480  177.6660  146.4580 C   0  0  0  0  0  0  0  0  0  0  0  0
  190.2840  176.5120  147.2980 C   0  0  0  0  0  2  0  0  0  0  0  0
  191.7480  176.4470  147.6990 C   0  0  0  0  0  2  0  0  0  0  0  0
  192.1250  175.1210  147.9100 O   0  0  0  0  0  1  0  0  0  0  0  0
  1  2  1  0  0  0  0
  2  8  1  6  0  0  0
  3  2  1  0  0  0  0
  3  6  2  0  0  0  0
  4 42  1  0  0  0  0
  5  7  1  0  0  0  0
  5  1  1  0  0  0  0
  6  4  2  0  0  0  0
  7  9  1  6  0  0  0
  7  3  1  0  0  0  0
 10  9  1  0  0  0  0
 12 29  1  0  0  0  0
 12 10  1  0  0  0  0
 12 11  1  1  0  0  0
 13 12  1  0  0  0  0
 14 13  1  0  0  0  0
 15 17  1  0  0  0  0
 15 14  1  0  0  0  0
 16 15  2  0  0  0  0
 18 17  1  0  0  0  0
 18 19  1  0  0  0  0
 19 20  1  6  0  0  0
 19 21  1  0  0  0  0
 21 22  1  6  0  0  0
 21 23  1  0  0  0  0
 24 23  1  0  0  0  0
 24 25  1  0  0  0  0
 25 26  1  0  0  0  0
 26 28  1  0  0  0  0
 28 27  1  0  0  0  0
 30 31  1  0  0  0  0
 30 29  1  0  0  0  0
 31 32  1  0  0  0  0
 33 34  1  0  0  0  0
 33  1  1  0  0  0  0
 34 38  1  0  0  0  0
 35 39  1  0  0  0  0
 37 38  1  0  0  0  0
 37 35  2  0  0  0  0
 38 41  2  0  0  0  0
 39 36  2  0  0  0  0
 40 35  1  0  0  0  0
 41 36  1  0  0  0  0
 42 43  1  0  0  0  0
 43 44  1  0  0  0  0
 44 45  1  0  0  0  0
 45 46  1  0  0  0  0
 46 47  1  6  0  0  0
 46 51  1  0  0  0  0
 47 50  1  0  0  0  0
 49 50  2  0  0  0  0
 50 48  1  0  0  0  0
 51 52  1  0  0  0  0
 52 53  1  0  0  0  0
M  END
>  <MODEL>
2

>  <REMARK>
 VINA RESULT:      -5.1      2.849     10.567
  Name = 
  29 active torsions:
  status: ('A' for Active; 'I' for Inactive)
    1  A    between atoms: C_1  and  C_12
    2  A    between atoms: C_1  and  O_36
    3  A    between atoms: C_2  and  C_10
    4  A    between atoms: C_3  and  C_22
    5  A    between atoms: C_4  and  C_13
    6  A    between atoms: C_4  and  C_51
    7  A    between atoms: O_6  and  C_19
    8  A    between atoms: O_6  and  C_40
    9  A    between atoms: C_7  and  C_30
   10  A    between atoms: C_7  and  C_50
   11  A    between atoms: C_8  and  C_9
   12  A    between atoms: C_8  and  C_14
   13  A    between atoms: C_10  and  C_35
   14  A    between atoms: C_12  and  C_31
   15  A    between atoms: C_13  and  O_36
   16  A    between atoms: C_14  and  C_23
   17  A    between atoms: N_15  and  C_19
   18  A    between atoms: C_17  and  C_31
   19  A    between atoms: C_17  and  N_52
   20  A    between atoms: C_22  and  S_38
   21  A    between atoms: C_23  and  C_26
   22  A    between atoms: C_23  and  S_38
   23  A    between atoms: C_26  and  C_32
   24  A    between atoms: O_29  and  C_35
   25  A    between atoms: O_29  and  C_41
   26  A    between atoms: C_32  and  C_43
   27  A    between atoms: C_35  and  C_47
   28  A    between atoms: C_41  and  C_50
   29  A    between atoms: C_42  and  C_47
                            x       y       z     vdW  Elec       q    Type
                         _______ _______ _______ _____ _____    ______ ____

>  <TORSDO>
F 29

$$$$
=
 OpenBabel10222416503D

 53 54  0  0  1  0  0  0  0  0999 V2000
  185.4620  179.3520  146.1390 N   0  0  0  0  0  0  0  0  0  0  0  0
  184.2350  178.5860  145.8690 C   0  0  1  0  0  3  0  0  0  0  0  0
  184.0460  178.7200  144.4170 C   0  0  0  0  0  0  0  0  0  0  0  0
  181.7620  179.5310  143.4530 C   0  0  0  0  0  3  0  0  0  0  0  0
  186.2410  179.3210  144.9630 N   0  0  0  0  0  2  0  0  0  0  0  0
  182.9030  179.1250  143.9350 C   0  0  0  0  0  0  0  0  0  0  0  0
  185.3130  179.2070  143.8420 C   0  0  1  0  0  3  0  0  0  0  0  0
  184.3400  177.0930  146.1970 C   0  0  0  0  0  1  0  0  0  0  0  0
  185.8450  178.1930  142.8460 C   0  0  0  0  0  2  0  0  0  0  0  0
  186.8930  177.3060  143.5070 C   0  0  0  0  0  2  0  0  0  0  0  0
  188.9750  175.7420  143.0020 Cl  0  0  0  0  0  0  0  0  0  0  0  0
  188.2680  177.3690  142.8340 C   0  0  1  0  0  0  0  0  0  0  0  0
  188.0920  177.7490  141.0430 S   0  0  0  0  0  0  0  0  0  0  0  0
  189.7370  177.1350  140.5540 C   0  0  0  0  0  2  0  0  0  0  0  0
  189.9340  177.3260  139.0930 C   0  0  0  0  0  0  0  0  0  0  0  0
  189.4600  178.3470  138.5280 O   0  0  0  0  0  0  0  0  0  0  0  0
  190.6260  176.3290  138.3380 N   0  0  0  0  0  2  0  0  0  0  0  0
  190.9140  176.4810  136.9180 C   0  0  0  0  0  2  0  0  0  0  0  0
  192.1870  175.7350  136.5180 C   0  0  1  0  0  3  0  0  0  0  0  0
  192.5190  175.9810  135.1810 O   0  0  0  0  0  1  0  0  0  0  0  0
  193.3560  176.0540  137.4490 C   0  0  2  0  0  3  0  0  0  0  0  0
  194.1270  177.1010  136.9380 O   0  0  0  0  0  1  0  0  0  0  0  0
  194.2220  174.8210  137.6410 C   0  0  0  0  0  2  0  0  0  0  0  0
  194.9760  174.9520  138.8070 O   0  0  0  0  0  0  0  0  0  0  0  0
  195.8800  173.8890  138.7640 C   0  0  0  0  0  2  0  0  0  0  0  0
  196.9950  174.1890  137.7770 C   0  0  0  0  0  2  0  0  0  0  0  0
  196.9910  171.8010  137.6230 O   0  0  0  0  0  1  0  0  0  0  0  0
  197.3210  172.9680  136.9320 C   0  0  0  0  0  2  0  0  0  0  0  0
  189.2010  178.3520  143.5590 C   0  0  0  0  0  2  0  0  0  0  0  0
  190.6020  177.8070  143.7990 C   0  0  0  0  0  2  0  0  0  0  0  0
  191.6130  178.9200  143.6390 C   0  0  0  0  0  2  0  0  0  0  0  0
  191.2230  180.0140  144.4110 O   0  0  0  0  0  1  0  0  0  0  0  0
  186.2550  178.8100  147.2430 C   0  0  0  0  0  2  0  0  0  0  0  0
  187.2170  177.8840  146.7480 O   0  0  0  0  0  0  0  0  0  0  0  0
  190.6870  176.7060  147.2120 C   0  0  0  0  0  0  0  0  0  0  0  0
  190.2120  178.3770  148.9010 C   0  0  0  0  0  3  0  0  0  0  0  0
  189.3940  176.8540  146.7000 C   0  0  0  0  0  3  0  0  0  0  0  0
  188.5020  177.7600  147.2850 C   0  0  0  0  0  0  0  0  0  0  0  0
  191.0950  177.4670  148.3130 C   0  0  0  0  0  3  0  0  0  0  0  0
  191.6270  175.7420  146.5870 C   0  0  0  0  0  1  0  0  0  0  0  0
  188.9190  178.5240  148.3890 C   0  0  0  0  0  3  0  0  0  0  0  0
  180.9770  178.6420  142.5570 C   0  0  0  0  0  2  0  0  0  0  0  0
  180.7150  179.3520  141.2450 C   0  0  0  0  0  2  0  0  0  0  0  0
  179.9350  178.4510  140.3040 C   0  0  0  0  0  2  0  0  0  0  0  0
  180.2980  178.7140  138.9800 O   0  0  0  0  0  0  0  0  0  0  0  0
  181.6500  178.3610  138.8990 C   0  0  1  0  0  3  0  0  0  0  0  0
  181.8360  177.1350  138.0050 C   0  0  0  0  0  2  0  0  0  0  0  0
  183.4500  175.2520  138.3270 O   0  0  0  0  0  0  0  0  0  0  0  0
  181.6950  175.5400  139.7760 O   0  0  0  0  0  1  0  0  0  0  0  0
  182.3230  175.9400  138.7610 C   0  0  0  0  0  0  0  0  0  0  0  0
  182.4810  179.5370  138.3940 C   0  0  0  0  0  2  0  0  0  0  0  0
  183.8040  179.6320  139.1340 C   0  0  0  0  0  2  0  0  0  0  0  0
  184.7620  178.8410  138.5010 O   0  0  0  0  0  1  0  0  0  0  0  0
  1 33  1  0  0  0  0
  2  1  1  0  0  0  0
  2  8  1  6  0  0  0
  3  2  1  0  0  0  0
  4  6  2  0  0  0  0
  5  1  1  0  0  0  0
  6  3  2  0  0  0  0
  7  9  1  6  0  0  0
  7  3  1  0  0  0  0
  7  5  1  0  0  0  0
  9 10  1  0  0  0  0
 12 11  1  1  0  0  0
 12 10  1  0  0  0  0
 12 29  1  0  0  0  0
 13 12  1  0  0  0  0
 14 13  1  0  0  0  0
 15 14  1  0  0  0  0
 16 15  2  0  0  0  0
 17 15  1  0  0  0  0
 18 17  1  0  0  0  0
 19 20  1  6  0  0  0
 19 18  1  0  0  0  0
 19 21  1  0  0  0  0
 21 22  1  6  0  0  0
 21 23  1  0  0  0  0
 23 24  1  0  0  0  0
 25 24  1  0  0  0  0
 26 25  1  0  0  0  0
 28 27  1  0  0  0  0
 28 26  1  0  0  0  0
 29 30  1  0  0  0  0
 31 30  1  0  0  0  0
 31 32  1  0  0  0  0
 34 33  1  0  0  0  0
 34 38  1  0  0  0  0
 35 39  1  0  0  0  0
 37 35  2  0  0  0  0
 37 38  1  0  0  0  0
 38 41  2  0  0  0  0
 39 36  2  0  0  0  0
 40 35  1  0  0  0  0
 41 36  1  0  0  0  0
 42  4  1  0  0  0  0
 43 42  1  0  0  0  0
 44 43  1  0  0  0  0
 45 44  1  0  0  0  0
 46 47  1  6  0  0  0
 46 45  1  0  0  0  0
 47 50  1  0  0  0  0
 48 50  2  0  0  0  0
 50 49  1  0  0  0  0
 51 46  1  0  0  0  0
 51 52  1  0  0  0  0
 53 52  1  0  0  0  0
M  END
>  <MODEL>
3

>  <REMARK>
 VINA RESULT:      -5.0      2.411      9.636
  Name = 
  29 active torsions:
  status: ('A' for Active; 'I' for Inactive)
    1  A    between atoms: C_1  and  C_12
    2  A    between atoms: C_1  and  O_36
    3  A    between atoms: C_2  and  C_10
    4  A    between atoms: C_3  and  C_22
    5  A    between atoms: C_4  and  C_13
    6  A    between atoms: C_4  and  C_51
    7  A    between atoms: O_6  and  C_19
    8  A    between atoms: O_6  and  C_40
    9  A    between atoms: C_7  and  C_30
   10  A    between atoms: C_7  and  C_50
   11  A    between atoms: C_8  and  C_9
   12  A    between atoms: C_8  and  C_14
   13  A    between atoms: C_10  and  C_35
   14  A    between atoms: C_12  and  C_31
   15  A    between atoms: C_13  and  O_36
   16  A    between atoms: C_14  and  C_23
   17  A    between atoms: N_15  and  C_19
   18  A    between atoms: C_17  and  C_31
   19  A    between atoms: C_17  and  N_52
   20  A    between atoms: C_22  and  S_38
   21  A    between atoms: C_23  and  C_26
   22  A    between atoms: C_23  and  S_38
   23  A    between atoms: C_26  and  C_32
   24  A    between atoms: O_29  and  C_35
   25  A    between atoms: O_29  and  C_41
   26  A    between atoms: C_32  and  C_43
   27  A    between atoms: C_35  and  C_47
   28  A    between atoms: C_41  and  C_50
   29  A    between atoms: C_42  and  C_47
                            x       y       z     vdW  Elec       q    Type
                         _______ _______ _______ _____ _____    ______ ____

>  <TORSDO>
F 29

$$$$
=
 OpenBabel10222416503D

 53 54  0  0  1  0  0  0  0  0999 V2000
  187.1420  177.8970  136.3920 N   0  0  0  0  0  0  0  0  0  0  0  0
  187.7690  176.6340  135.9710 C   0  0  1  0  0  3  0  0  0  0  0  0
  189.1510  176.7440  136.4600 C   0  0  0  0  0  0  0  0  0  0  0  0
  191.1590  176.3470  134.8420 C   0  0  0  0  0  3  0  0  0  0  0  0
  187.8250  178.3370  137.5460 N   0  0  0  0  0  2  0  0  0  0  0  0
  190.1560  176.5450  135.6500 C   0  0  0  0  0  0  0  0  0  0  0  0
  189.1940  177.8390  137.4460 C   0  0  1  0  0  3  0  0  0  0  0  0
  187.1450  175.3820  136.5960 C   0  0  0  0  0  1  0  0  0  0  0  0
  189.6360  177.2970  138.7920 C   0  0  0  0  0  2  0  0  0  0  0  0
  188.4790  177.3410  139.7830 C   0  0  0  0  0  2  0  0  0  0  0  0
  189.1010  179.3950  141.3420 Cl  0  0  0  0  0  0  0  0  0  0  0  0
  188.9110  177.6270  141.2250 C   0  0  1  0  0  0  0  0  0  0  0  0
  187.6030  177.0980  142.4060 S   0  0  0  0  0  0  0  0  0  0  0  0
  186.2990  178.1860  141.7470 C   0  0  0  0  0  2  0  0  0  0  0  0
  185.3170  178.5040  142.8180 C   0  0  0  0  0  0  0  0  0  0  0  0
  184.0920  178.2790  142.6280 O   0  0  0  0  0  0  0  0  0  0  0  0
  185.7700  179.0960  144.0370 N   0  0  0  0  0  2  0  0  0  0  0  0
  184.8760  179.3700  145.1550 C   0  0  0  0  0  2  0  0  0  0  0  0
  185.5040  178.9740  146.4900 C   0  0  1  0  0  3  0  0  0  0  0  0
  184.5690  178.3480  147.3220 O   0  0  0  0  0  1  0  0  0  0  0  0
  186.7490  178.1090  146.3040 C   0  0  2  0  0  3  0  0  0  0  0  0
  186.4040  176.8270  145.8680 O   0  0  0  0  0  1  0  0  0  0  0  0
  187.5220  178.0190  147.6090 C   0  0  0  0  0  2  0  0  0  0  0  0
  188.3830  176.9210  147.5720 O   0  0  0  0  0  0  0  0  0  0  0  0
  189.6600  177.4710  147.6900 C   0  0  0  0  0  2  0  0  0  0  0  0
  190.7110  176.4420  147.3060 C   0  0  0  0  0  2  0  0  0  0  0  0
  192.9460  175.7050  147.7380 O   0  0  0  0  0  1  0  0  0  0  0  0
  192.0380  176.7340  147.9900 C   0  0  0  0  0  2  0  0  0  0  0  0
  190.2790  176.9970  141.5340 C   0  0  0  0  0  2  0  0  0  0  0  0
  190.2370  175.9520  142.6410 C   0  0  0  0  0  2  0  0  0  0  0  0
  190.9000  176.5050  143.8830 C   0  0  0  0  0  2  0  0  0  0  0  0
  191.9320  177.3670  143.5130 O   0  0  0  0  0  1  0  0  0  0  0  0
  185.7200  177.7630  136.7110 C   0  0  0  0  0  2  0  0  0  0  0  0
  185.4490  178.3170  137.9930 O   0  0  0  0  0  0  0  0  0  0  0  0
  182.1290  179.2690  139.3020 C   0  0  0  0  0  0  0  0  0  0  0  0
  182.5110  176.9300  139.8070 C   0  0  0  0  0  3  0  0  0  0  0  0
  183.3800  179.3400  138.6820 C   0  0  0  0  0  3  0  0  0  0  0  0
  184.2050  178.2120  138.6220 C   0  0  0  0  0  0  0  0  0  0  0  0
  181.6950  178.0640  139.8660 C   0  0  0  0  0  3  0  0  0  0  0  0
  181.2600  180.4720  139.3630 C   0  0  0  0  0  1  0  0  0  0  0  0
  183.7620  177.0030  139.1870 C   0  0  0  0  0  3  0  0  0  0  0  0
  192.1160  175.2410  135.1040 C   0  0  0  0  0  2  0  0  0  0  0  0
  192.2590  175.0420  136.5990 C   0  0  0  0  0  2  0  0  0  0  0  0
  193.3800  174.0610  136.8960 C   0  0  0  0  0  2  0  0  0  0  0  0
  193.9540  174.3540  138.1360 O   0  0  0  0  0  0  0  0  0  0  0  0
  195.0480  173.4880  138.2410 C   0  0  1  0  0  3  0  0  0  0  0  0
  195.2360  172.6940  136.9480 C   0  0  0  0  0  2  0  0  0  0  0  0
  196.6980  170.7340  136.4270 O   0  0  0  0  0  0  0  0  0  0  0  0
  195.1170  170.5970  138.0830 O   0  0  0  0  0  1  0  0  0  0  0  0
  195.6820  171.2880  137.1950 C   0  0  0  0  0  0  0  0  0  0  0  0
  196.3130  174.2640  138.5940 C   0  0  0  0  0  2  0  0  0  0  0  0
  197.2450  174.3680  137.3990 C   0  0  0  0  0  2  0  0  0  0  0  0
  196.9590  175.5230  136.6710 O   0  0  0  0  0  1  0  0  0  0  0  0
  1 33  1  0  0  0  0
  1  5  1  0  0  0  0
  2  1  1  0  0  0  0
  2  3  1  0  0  0  0
  2  8  1  1  0  0  0
  3  7  1  0  0  0  0
  4 42  1  0  0  0  0
  4  6  2  0  0  0  0
  6  3  2  0  0  0  0
  7  5  1  0  0  0  0
  7  9  1  1  0  0  0
  9 10  1  0  0  0  0
 10 12  1  0  0  0  0
 12 11  1  1  0  0  0
 12 29  1  0  0  0  0
 12 13  1  0  0  0  0
 14 13  1  0  0  0  0
 14 15  1  0  0  0  0
 15 17  1  0  0  0  0
 16 15  2  0  0  0  0
 17 18  1  0  0  0  0
 18 19  1  0  0  0  0
 19 20  1  1  0  0  0
 21 22  1  1  0  0  0
 21 19  1  0  0  0  0
 21 23  1  0  0  0  0
 24 23  1  0  0  0  0
 24 25  1  0  0  0  0
 26 25  1  0  0  0  0
 26 28  1  0  0  0  0
 27 28  1  0  0  0  0
 29 30  1  0  0  0  0
 30 31  1  0  0  0  0
 32 31  1  0  0  0  0
 33 34  1  0  0  0  0
 34 38  1  0  0  0  0
 35 40  1  0  0  0  0
 35 39  1  0  0  0  0
 36 39  2  0  0  0  0
 37 35  2  0  0  0  0
 38 37  1  0  0  0  0
 38 41  2  0  0  0  0
 41 36  1  0  0  0  0
 42 43  1  0  0  0  0
 43 44  1  0  0  0  0
 44 45  1  0  0  0  0
 45 46  1  0  0  0  0
 46 47  1  6  0  0  0
 46 51  1  0  0  0  0
 47 50  1  0  0  0  0
 48 50  2  0  0  0  0
 50 49  1  0  0  0  0
 52 51  1  0  0  0  0
 53 52  1  0  0  0  0
M  END
>  <MODEL>
4

>  <REMARK>
 VINA RESULT:      -5.0      2.522      8.628
  Name = 
  29 active torsions:
  status: ('A' for Active; 'I' for Inactive)
    1  A    between atoms: C_1  and  C_12
    2  A    between atoms: C_1  and  O_36
    3  A    between atoms: C_2  and  C_10
    4  A    between atoms: C_3  and  C_22
    5  A    between atoms: C_4  and  C_13
    6  A    between atoms: C_4  and  C_51
    7  A    between atoms: O_6  and  C_19
    8  A    between atoms: O_6  and  C_40
    9  A    between atoms: C_7  and  C_30
   10  A    between atoms: C_7  and  C_50
   11  A    between atoms: C_8  and  C_9
   12  A    between atoms: C_8  and  C_14
   13  A    between atoms: C_10  and  C_35
   14  A    between atoms: C_12  and  C_31
   15  A    between atoms: C_13  and  O_36
   16  A    between atoms: C_14  and  C_23
   17  A    between atoms: N_15  and  C_19
   18  A    between atoms: C_17  and  C_31
   19  A    between atoms: C_17  and  N_52
   20  A    between atoms: C_22  and  S_38
   21  A    between atoms: C_23  and  C_26
   22  A    between atoms: C_23  and  S_38
   23  A    between atoms: C_26  and  C_32
   24  A    between atoms: O_29  and  C_35
   25  A    between atoms: O_29  and  C_41
   26  A    between atoms: C_32  and  C_43
   27  A    between atoms: C_35  and  C_47
   28  A    between atoms: C_41  and  C_50
   29  A    between atoms: C_42  and  C_47
                            x       y       z     vdW  Elec       q    Type
                         _______ _______ _______ _____ _____    ______ ____

>  <TORSDO>
F 29

$$$$
=
 OpenBabel10222416503D

 53 54  0  0  1  0  0  0  0  0999 V2000
  186.5680  178.0290  140.4930 N   0  0  0  0  0  0  0  0  0  0  0  0
  187.6240  178.3150  141.4780 C   0  0  1  0  0  3  0  0  0  0  0  0
  188.8190  177.6740  140.9120 C   0  0  0  0  0  0  0  0  0  0  0  0
  190.2370  176.0230  142.3510 C   0  0  0  0  0  3  0  0  0  0  0  0
  187.1960  177.8810  139.2390 N   0  0  0  0  0  2  0  0  0  0  0  0
  189.5290  176.8480  141.6330 C   0  0  0  0  0  0  0  0  0  0  0  0
  188.5430  177.3770  139.4940 C   0  0  1  0  0  3  0  0  0  0  0  0
  187.9280  179.8060  141.6590 C   0  0  0  0  0  1  0  0  0  0  0  0
  189.5350  178.1160  138.6160 C   0  0  0  0  0  2  0  0  0  0  0  0
  190.5850  177.1500  138.0800 C   0  0  0  0  0  2  0  0  0  0  0  0
  189.4740  174.9060  137.2070 Cl  0  0  0  0  0  0  0  0  0  0  0  0
  190.1890  176.4760  136.7620 C   0  0  1  0  0  0  0  0  0  0  0  0
  188.9150  177.4730  135.8860 S   0  0  0  0  0  0  0  0  0  0  0  0
  187.6920  176.1310  135.7340 C   0  0  0  0  0  2  0  0  0  0  0  0
  186.3260  176.6610  135.9880 C   0  0  0  0  0  0  0  0  0  0  0  0
  186.1400  177.9050  136.0410 O   0  0  0  0  0  0  0  0  0  0  0  0
  185.2460  175.7510  136.2060 N   0  0  0  0  0  2  0  0  0  0  0  0
  183.8710  176.1970  136.3920 C   0  0  0  0  0  2  0  0  0  0  0  0
  183.0380  175.1590  137.1430 C   0  0  1  0  0  3  0  0  0  0  0  0
  183.8340  174.4010  138.0080 O   0  0  0  0  0  1  0  0  0  0  0  0
  181.8610  175.7940  137.8830 C   0  0  2  0  0  3  0  0  0  0  0  0
  180.7120  175.7880  137.0880 O   0  0  0  0  0  1  0  0  0  0  0  0
  182.2040  177.2190  138.2840 C   0  0  0  0  0  2  0  0  0  0  0  0
  181.3440  178.1090  137.6410 O   0  0  0  0  0  0  0  0  0  0  0  0
  181.9630  179.3530  137.7700 C   0  0  0  0  0  2  0  0  0  0  0  0
  181.0150  180.4590  137.3370 C   0  0  0  0  0  2  0  0  0  0  0  0
  180.5990  180.7590  139.6740 O   0  0  0  0  0  1  0  0  0  0  0  0
  180.7680  181.4430  138.4700 C   0  0  0  0  0  2  0  0  0  0  0  0
  191.4210  176.1890  135.8890 C   0  0  0  0  0  2  0  0  0  0  0  0
  191.9780  174.7830  136.0570 C   0  0  0  0  0  2  0  0  0  0  0  0
  193.3880  174.8590  136.6010 C   0  0  0  0  0  2  0  0  0  0  0  0
  193.4730  174.1070  137.7720 O   0  0  0  0  0  1  0  0  0  0  0  0
  185.5630  179.0880  140.3930 C   0  0  0  0  0  2  0  0  0  0  0  0
  184.2670  178.5620  140.6570 O   0  0  0  0  0  0  0  0  0  0  0  0
  183.8190  178.7870  144.3160 C   0  0  0  0  0  0  0  0  0  0  0  0
  181.6390  178.9240  143.2670 C   0  0  0  0  0  3  0  0  0  0  0  0
  184.4180  178.6710  143.0580 C   0  0  0  0  0  3  0  0  0  0  0  0
  183.6350  178.6780  141.8990 C   0  0  0  0  0  0  0  0  0  0  0  0
  182.4290  178.9120  144.4200 C   0  0  0  0  0  3  0  0  0  0  0  0
  184.6560  178.7770  145.5420 C   0  0  0  0  0  1  0  0  0  0  0  0
  182.2400  178.8080  142.0100 C   0  0  0  0  0  3  0  0  0  0  0  0
  191.6590  176.3340  142.6530 C   0  0  0  0  0  2  0  0  0  0  0  0
  191.9150  176.1360  144.1320 C   0  0  0  0  0  2  0  0  0  0  0  0
  190.9880  177.0160  144.9510 C   0  0  0  0  0  2  0  0  0  0  0  0
  191.6580  177.4960  146.0800 O   0  0  0  0  0  0  0  0  0  0  0  0
  190.8960  177.0560  147.1680 C   0  0  1  0  0  3  0  0  0  0  0  0
  189.4130  176.9950  146.7990 C   0  0  0  0  0  2  0  0  0  0  0  0
  189.1200  178.4150  148.8370 O   0  0  0  0  0  1  0  0  0  0  0  0
  187.2960  177.7170  147.6330 O   0  0  0  0  0  0  0  0  0  0  0  0
  188.5470  177.7340  147.7690 C   0  0  0  0  0  0  0  0  0  0  0  0
  191.3940  175.7000  147.6580 C   0  0  0  0  0  2  0  0  0  0  0  0
  192.8140  175.7960  148.1900 C   0  0  0  0  0  2  0  0  0  0  0  0
  193.0280  174.8130  149.1550 O   0  0  0  0  0  1  0  0  0  0  0  0
  1  2  1  0  0  0  0
  2  8  1  6  0  0  0
  3  2  1  0  0  0  0
  3  6  2  0  0  0  0
  4 42  1  0  0  0  0
  5  7  1  0  0  0  0
  5  1  1  0  0  0  0
  6  4  2  0  0  0  0
  7  9  1  6  0  0  0
  7  3  1  0  0  0  0
 10  9  1  0  0  0  0
 12 11  1  1  0  0  0
 12 10  1  0  0  0  0
 13 12  1  0  0  0  0
 14 13  1  0  0  0  0
 14 15  1  0  0  0  0
 15 16  2  0  0  0  0
 15 17  1  0  0  0  0
 17 18  1  0  0  0  0
 18 19  1  0  0  0  0
 19 21  1  0  0  0  0
 19 20  1  1  0  0  0
 21 22  1  6  0  0  0
 21 23  1  0  0  0  0
 24 25  1  0  0  0  0
 24 23  1  0  0  0  0
 26 25  1  0  0  0  0
 26 28  1  0  0  0  0
 28 27  1  0  0  0  0
 29 30  1  0  0  0  0
 29 12  1  0  0  0  0
 30 31  1  0  0  0  0
 31 32  1  0  0  0  0
 33  1  1  0  0  0  0
 33 34  1  0  0  0  0
 34 38  1  0  0  0  0
 35 39  1  0  0  0  0
 35 40  1  0  0  0  0
 36 39  2  0  0  0  0
 37 35  2  0  0  0  0
 38 41  2  0  0  0  0
 38 37  1  0  0  0  0
 41 36  1  0  0  0  0
 42 43  1  0  0  0  0
 43 44  1  0  0  0  0
 44 45  1  0  0  0  0
 45 46  1  0  0  0  0
 46 47  1  6  0  0  0
 46 51  1  0  0  0  0
 47 50  1  0  0  0  0
 49 50  2  0  0  0  0
 50 48  1  0  0  0  0
 51 52  1  0  0  0  0
 52 53  1  0  0  0  0
M  END
>  <MODEL>
5

>  <REMARK>
 VINA RESULT:      -5.0      2.702     10.336
  Name = 
  29 active torsions:
  status: ('A' for Active; 'I' for Inactive)
    1  A    between atoms: C_1  and  C_12
    2  A    between atoms: C_1  and  O_36
    3  A    between atoms: C_2  and  C_10
    4  A    between atoms: C_3  and  C_22
    5  A    between atoms: C_4  and  C_13
    6  A    between atoms: C_4  and  C_51
    7  A    between atoms: O_6  and  C_19
    8  A    between atoms: O_6  and  C_40
    9  A    between atoms: C_7  and  C_30
   10  A    between atoms: C_7  and  C_50
   11  A    between atoms: C_8  and  C_9
   12  A    between atoms: C_8  and  C_14
   13  A    between atoms: C_10  and  C_35
   14  A    between atoms: C_12  and  C_31
   15  A    between atoms: C_13  and  O_36
   16  A    between atoms: C_14  and  C_23
   17  A    between atoms: N_15  and  C_19
   18  A    between atoms: C_17  and  C_31
   19  A    between atoms: C_17  and  N_52
   20  A    between atoms: C_22  and  S_38
   21  A    between atoms: C_23  and  C_26
   22  A    between atoms: C_23  and  S_38
   23  A    between atoms: C_26  and  C_32
   24  A    between atoms: O_29  and  C_35
   25  A    between atoms: O_29  and  C_41
   26  A    between atoms: C_32  and  C_43
   27  A    between atoms: C_35  and  C_47
   28  A    between atoms: C_41  and  C_50
   29  A    between atoms: C_42  and  C_47
                            x       y       z     vdW  Elec       q    Type
                         _______ _______ _______ _____ _____    ______ ____

>  <TORSDO>
F 29

$$$$
=
 OpenBabel10222416503D

 53 54  0  0  1  0  0  0  0  0999 V2000
  187.0030  178.4550  146.3610 N   0  0  0  0  0  0  0  0  0  0  0  0
  185.5980  178.0190  146.2940 C   0  0  1  0  0  3  0  0  0  0  0  0
  185.2150  178.2730  144.8980 C   0  0  0  0  0  0  0  0  0  0  0  0
  183.0730  179.6560  144.3480 C   0  0  0  0  0  3  0  0  0  0  0  0
  187.5490  178.3030  145.0690 N   0  0  0  0  0  2  0  0  0  0  0  0
  184.1430  178.9650  144.6230 C   0  0  0  0  0  0  0  0  0  0  0  0
  186.4520  178.4750  144.1210 C   0  0  1  0  0  3  0  0  0  0  0  0
  185.3880  176.5290  146.5790 C   0  0  0  0  0  1  0  0  0  0  0  0
  186.5510  177.4190  143.0360 C   0  0  0  0  0  2  0  0  0  0  0  0
  187.9230  176.7560  143.0700 C   0  0  0  0  0  2  0  0  0  0  0  0
  190.1850  176.0730  141.8660 Cl  0  0  0  0  0  0  0  0  0  0  0  0
  188.8950  177.2930  142.0140 C   0  0  1  0  0  0  0  0  0  0  0  0
  188.0520  177.4550  140.3860 S   0  0  0  0  0  0  0  0  0  0  0  0
  189.5160  178.0400  139.4710 C   0  0  0  0  0  2  0  0  0  0  0  0
  189.5150  177.4670  138.0990 C   0  0  0  0  0  0  0  0  0  0  0  0
  190.5990  177.0900  137.5790 O   0  0  0  0  0  0  0  0  0  0  0  0
  188.2890  177.3840  137.3690 N   0  0  0  0  0  2  0  0  0  0  0  0
  188.2020  176.7730  136.0490 C   0  0  0  0  0  2  0  0  0  0  0  0
  187.6090  175.3660  136.1170 C   0  0  1  0  0  3  0  0  0  0  0  0
  187.2890  175.0140  137.4320 O   0  0  0  0  0  1  0  0  0  0  0  0
  186.4050  175.2050  135.1900 C   0  0  2  0  0  3  0  0  0  0  0  0
  185.4740  176.2240  135.4040 O   0  0  0  0  0  1  0  0  0  0  0  0
  185.7510  173.8520  135.4130 C   0  0  0  0  0  2  0  0  0  0  0  0
  184.3690  174.0090  135.5200 O   0  0  0  0  0  0  0  0  0  0  0  0
  184.0950  173.8050  136.8730 C   0  0  0  0  0  2  0  0  0  0  0  0
  184.3630  172.3570  137.2500 C   0  0  0  0  0  2  0  0  0  0  0  0
  182.0310  172.1970  136.7390 O   0  0  0  0  0  1  0  0  0  0  0  0
  183.2130  171.4580  136.8250 C   0  0  0  0  0  2  0  0  0  0  0  0
  189.5520  178.6040  142.4740 C   0  0  0  0  0  2  0  0  0  0  0  0
  191.0010  178.4430  142.9130 C   0  0  0  0  0  2  0  0  0  0  0  0
  191.3270  179.4760  143.9690 C   0  0  0  0  0  2  0  0  0  0  0  0
  192.4140  179.0390  144.7240 O   0  0  0  0  0  1  0  0  0  0  0  0
  187.8080  177.6800  147.3060 C   0  0  0  0  0  2  0  0  0  0  0  0
  189.1610  178.1190  147.2730 O   0  0  0  0  0  0  0  0  0  0  0  0
  192.2520  176.1760  147.8340 C   0  0  0  0  0  0  0  0  0  0  0  0
  191.4830  175.7590  145.5750 C   0  0  0  0  0  3  0  0  0  0  0  0
  191.1670  177.0320  148.0460 C   0  0  0  0  0  3  0  0  0  0  0  0
  190.2360  177.2590  147.0270 C   0  0  0  0  0  0  0  0  0  0  0  0
  192.4110  175.5410  146.5970 C   0  0  0  0  0  3  0  0  0  0  0  0
  193.2370  175.9420  148.9200 C   0  0  0  0  0  1  0  0  0  0  0  0
  190.3990  176.6150  145.7880 C   0  0  0  0  0  3  0  0  0  0  0  0
  181.9600  179.0300  143.5880 C   0  0  0  0  0  2  0  0  0  0  0  0
  182.3610  178.8860  142.1340 C   0  0  0  0  0  2  0  0  0  0  0  0
  181.1770  178.4220  141.3040 C   0  0  0  0  0  2  0  0  0  0  0  0
  181.6120  178.0130  140.0400 O   0  0  0  0  0  0  0  0  0  0  0  0
  182.2550  179.1310  139.4990 C   0  0  1  0  0  3  0  0  0  0  0  0
  183.2700  178.7090  138.4370 C   0  0  0  0  0  2  0  0  0  0  0  0
  184.9370  179.7580  139.9780 O   0  0  0  0  0  1  0  0  0  0  0  0
  185.6340  178.6170  138.1150 O   0  0  0  0  0  0  0  0  0  0  0  0
  184.6800  179.0130  138.8340 C   0  0  0  0  0  0  0  0  0  0  0  0
  181.2360  180.1090  138.9220 C   0  0  0  0  0  2  0  0  0  0  0  0
  180.9270  179.7880  137.4700 C   0  0  0  0  0  2  0  0  0  0  0  0
  180.8080  180.9680  136.7360 O   0  0  0  0  0  1  0  0  0  0  0  0
  1 33  1  0  0  0  0
  2  1  1  0  0  0  0
  2  8  1  6  0  0  0
  3  2  1  0  0  0  0
  4  6  2  0  0  0  0
  5  1  1  0  0  0  0
  6  3  2  0  0  0  0
  7  9  1  6  0  0  0
  7  3  1  0  0  0  0
  7  5  1  0  0  0  0
  9 10  1  0  0  0  0
 12 11  1  6  0  0  0
 12 29  1  0  0  0  0
 12 10  1  0  0  0  0
 13 12  1  0  0  0  0
 14 13  1  0  0  0  0
 15 14  1  0  0  0  0
 16 15  2  0  0  0  0
 17 15  1  0  0  0  0
 18 19  1  0  0  0  0
 18 17  1  0  0  0  0
 19 20  1  1  0  0  0
 21 22  1  1  0  0  0
 21 23  1  0  0  0  0
 21 19  1  0  0  0  0
 23 24  1  0  0  0  0
 24 25  1  0  0  0  0
 25 26  1  0  0  0  0
 27 28  1  0  0  0  0
 28 26  1  0  0  0  0
 29 30  1  0  0  0  0
 30 31  1  0  0  0  0
 31 32  1  0  0  0  0
 34 33  1  0  0  0  0
 35 37  1  0  0  0  0
 35 40  1  0  0  0  0
 36 41  2  0  0  0  0
 36 39  1  0  0  0  0
 38 34  1  0  0  0  0
 38 37  2  0  0  0  0
 39 35  2  0  0  0  0
 41 38  1  0  0  0  0
 42  4  1  0  0  0  0
 43 42  1  0  0  0  0
 44 43  1  0  0  0  0
 45 44  1  0  0  0  0
 46 47  1  6  0  0  0
 46 45  1  0  0  0  0
 47 50  1  0  0  0  0
 49 50  2  0  0  0  0
 50 48  1  0  0  0  0
 51 46  1  0  0  0  0
 52 51  1  0  0  0  0
 53 52  1  0  0  0  0
M  END
>  <MODEL>
6

>  <REMARK>
 VINA RESULT:      -4.8      3.509      8.718
  Name = 
  29 active torsions:
  status: ('A' for Active; 'I' for Inactive)
    1  A    between atoms: C_1  and  C_12
    2  A    between atoms: C_1  and  O_36
    3  A    between atoms: C_2  and  C_10
    4  A    between atoms: C_3  and  C_22
    5  A    between atoms: C_4  and  C_13
    6  A    between atoms: C_4  and  C_51
    7  A    between atoms: O_6  and  C_19
    8  A    between atoms: O_6  and  C_40
    9  A    between atoms: C_7  and  C_30
   10  A    between atoms: C_7  and  C_50
   11  A    between atoms: C_8  and  C_9
   12  A    between atoms: C_8  and  C_14
   13  A    between atoms: C_10  and  C_35
   14  A    between atoms: C_12  and  C_31
   15  A    between atoms: C_13  and  O_36
   16  A    between atoms: C_14  and  C_23
   17  A    between atoms: N_15  and  C_19
   18  A    between atoms: C_17  and  C_31
   19  A    between atoms: C_17  and  N_52
   20  A    between atoms: C_22  and  S_38
   21  A    between atoms: C_23  and  C_26
   22  A    between atoms: C_23  and  S_38
   23  A    between atoms: C_26  and  C_32
   24  A    between atoms: O_29  and  C_35
   25  A    between atoms: O_29  and  C_41
   26  A    between atoms: C_32  and  C_43
   27  A    between atoms: C_35  and  C_47
   28  A    between atoms: C_41  and  C_50
   29  A    between atoms: C_42  and  C_47
                            x       y       z     vdW  Elec       q    Type
                         _______ _______ _______ _____ _____    ______ ____

>  <TORSDO>
F 29

$$$$
=
 OpenBabel10222416503D

 53 54  0  0  1  0  0  0  0  0999 V2000
  187.5400  178.3530  146.5760 N   0  0  0  0  0  0  0  0  0  0  0  0
  186.0970  178.1010  146.4340 C   0  0  1  0  0  3  0  0  0  0  0  0
  185.8780  178.1000  144.9810 C   0  0  0  0  0  0  0  0  0  0  0  0
  184.0270  179.6050  143.9240 C   0  0  0  0  0  3  0  0  0  0  0  0
  188.1660  177.8580  145.4110 N   0  0  0  0  0  2  0  0  0  0  0  0
  184.9520  178.8530  144.4520 C   0  0  0  0  0  0  0  0  0  0  0  0
  187.1930  177.9670  144.3280 C   0  0  1  0  0  3  0  0  0  0  0  0
  185.6380  176.7470  146.9830 C   0  0  0  0  0  1  0  0  0  0  0  0
  187.2220  176.7010  143.4920 C   0  0  0  0  0  2  0  0  0  0  0  0
  188.6540  176.3650  143.0950 C   0  0  0  0  0  2  0  0  0  0  0  0
  190.4370  176.3960  141.1310 Cl  0  0  0  0  0  0  0  0  0  0  0  0
  189.2590  177.3390  142.0780 C   0  0  1  0  0  0  0  0  0  0  0  0
  187.9590  177.9680  140.9380 S   0  0  0  0  0  0  0  0  0  0  0  0
  189.1020  178.5110  139.6270 C   0  0  0  0  0  2  0  0  0  0  0  0
  188.4590  178.3460  138.2960 C   0  0  0  0  0  0  0  0  0  0  0  0
  188.4810  179.2980  137.4700 O   0  0  0  0  0  0  0  0  0  0  0  0
  187.7890  177.1240  137.9820 N   0  0  0  0  0  2  0  0  0  0  0  0
  187.1970  176.8660  136.6760 C   0  0  0  0  0  2  0  0  0  0  0  0
  187.8440  175.6640  135.9900 C   0  0  1  0  0  3  0  0  0  0  0  0
  187.2210  175.3820  134.7700 O   0  0  0  0  0  1  0  0  0  0  0  0
  189.3510  175.8450  135.8160 C   0  0  2  0  0  3  0  0  0  0  0  0
  189.6310  177.0030  135.0850 O   0  0  0  0  0  1  0  0  0  0  0  0
  189.9450  174.6350  135.1140 C   0  0  0  0  0  2  0  0  0  0  0  0
  191.2520  174.4310  135.5550 O   0  0  0  0  0  0  0  0  0  0  0  0
  191.1520  174.3820  136.9460 C   0  0  0  0  0  2  0  0  0  0  0  0
  192.5330  174.4750  137.5750 C   0  0  0  0  0  2  0  0  0  0  0  0
  194.1710  175.9960  138.4270 O   0  0  0  0  0  1  0  0  0  0  0  0
  192.8450  175.9000  138.0030 C   0  0  0  0  0  2  0  0  0  0  0  0
  190.0310  178.4690  142.7770 C   0  0  0  0  0  2  0  0  0  0  0  0
  191.4780  178.1190  143.0970 C   0  0  0  0  0  2  0  0  0  0  0  0
  191.9610  178.9690  144.2510 C   0  0  0  0  0  2  0  0  0  0  0  0
  191.1940  180.1310  144.3230 O   0  0  0  0  0  1  0  0  0  0  0  0
  188.1340  177.6970  147.7420 C   0  0  0  0  0  2  0  0  0  0  0  0
  189.4810  178.1240  147.9120 O   0  0  0  0  0  0  0  0  0  0  0  0
  191.7900  175.8260  146.1700 C   0  0  0  0  0  0  0  0  0  0  0  0
  192.6490  176.2330  148.3980 C   0  0  0  0  0  3  0  0  0  0  0  0
  190.7020  176.6650  146.4350 C   0  0  0  0  0  3  0  0  0  0  0  0
  190.5790  177.2900  147.6810 C   0  0  0  0  0  0  0  0  0  0  0  0
  192.7620  175.6100  147.1530 C   0  0  0  0  0  3  0  0  0  0  0  0
  191.9120  175.1650  144.8460 C   0  0  0  0  0  1  0  0  0  0  0  0
  191.5620  177.0710  148.6620 C   0  0  0  0  0  3  0  0  0  0  0  0
  182.9010  178.9830  143.1800 C   0  0  0  0  0  2  0  0  0  0  0  0
  183.1600  179.0930  141.6910 C   0  0  0  0  0  2  0  0  0  0  0  0
  183.7670  177.8040  141.1660 C   0  0  0  0  0  2  0  0  0  0  0  0
  183.9780  177.9020  139.7880 O   0  0  0  0  0  0  0  0  0  0  0  0
  183.0610  177.0130  139.2170 C   0  0  1  0  0  3  0  0  0  0  0  0
  181.6840  177.6650  139.0880 C   0  0  0  0  0  2  0  0  0  0  0  0
  180.2650  175.6110  138.9440 O   0  0  0  0  0  0  0  0  0  0  0  0
  179.9270  177.1430  140.6170 O   0  0  0  0  0  1  0  0  0  0  0  0
  180.5830  176.7920  139.6020 C   0  0  0  0  0  0  0  0  0  0  0  0
  183.5630  176.5220  137.8620 C   0  0  0  0  0  2  0  0  0  0  0  0
  183.8280  175.0260  137.8840 C   0  0  0  0  0  2  0  0  0  0  0  0
  183.3990  174.4490  136.6880 O   0  0  0  0  0  1  0  0  0  0  0  0
  1 33  1  0  0  0  0
  2  1  1  0  0  0  0
  2  8  1  6  0  0  0
  3  2  1  0  0  0  0
  4  6  2  0  0  0  0
  5  1  1  0  0  0  0
  6  3  2  0  0  0  0
  7  9  1  6  0  0  0
  7  3  1  0  0  0  0
  7  5  1  0  0  0  0
 10  9  1  0  0  0  0
 12 11  1  6  0  0  0
 12 29  1  0  0  0  0
 12 10  1  0  0  0  0
 13 12  1  0  0  0  0
 14 13  1  0  0  0  0
 15 14  1  0  0  0  0
 16 15  2  0  0  0  0
 17 15  1  0  0  0  0
 18 17  1  0  0  0  0
 19 20  1  6  0  0  0
 19 18  1  0  0  0  0
 21 22  1  6  0  0  0
 21 19  1  0  0  0  0
 23 24  1  0  0  0  0
 23 21  1  0  0  0  0
 24 25  1  0  0  0  0
 25 26  1  0  0  0  0
 26 28  1  0  0  0  0
 28 27  1  0  0  0  0
 29 30  1  0  0  0  0
 30 31  1  0  0  0  0
 31 32  1  0  0  0  0
 33 34  1  0  0  0  0
 35 37  2  0  0  0  0
 35 39  1  0  0  0  0
 36 41  1  0  0  0  0
 37 38  1  0  0  0  0
 38 34  1  0  0  0  0
 38 41  2  0  0  0  0
 39 36  2  0  0  0  0
 40 35  1  0  0  0  0
 42  4  1  0  0  0  0
 43 42  1  0  0  0  0
 44 43  1  0  0  0  0
 45 44  1  0  0  0  0
 46 51  1  6  0  0  0
 46 45  1  0  0  0  0
 47 46  1  0  0  0  0
 47 50  1  0  0  0  0
 48 50  2  0  0  0  0
 50 49  1  0  0  0  0
 51 52  1  0  0  0  0
 53 52  1  0  0  0  0
M  END
>  <MODEL>
7

>  <REMARK>
 VINA RESULT:      -4.8      2.615      8.595
  Name = 
  29 active torsions:
  status: ('A' for Active; 'I' for Inactive)
    1  A    between atoms: C_1  and  C_12
    2  A    between atoms: C_1  and  O_36
    3  A    between atoms: C_2  and  C_10
    4  A    between atoms: C_3  and  C_22
    5  A    between atoms: C_4  and  C_13
    6  A    between atoms: C_4  and  C_51
    7  A    between atoms: O_6  and  C_19
    8  A    between atoms: O_6  and  C_40
    9  A    between atoms: C_7  and  C_30
   10  A    between atoms: C_7  and  C_50
   11  A    between atoms: C_8  and  C_9
   12  A    between atoms: C_8  and  C_14
   13  A    between atoms: C_10  and  C_35
   14  A    between atoms: C_12  and  C_31
   15  A    between atoms: C_13  and  O_36
   16  A    between atoms: C_14  and  C_23
   17  A    between atoms: N_15  and  C_19
   18  A    between atoms: C_17  and  C_31
   19  A    between atoms: C_17  and  N_52
   20  A    between atoms: C_22  and  S_38
   21  A    between atoms: C_23  and  C_26
   22  A    between atoms: C_23  and  S_38
   23  A    between atoms: C_26  and  C_32
   24  A    between atoms: O_29  and  C_35
   25  A    between atoms: O_29  and  C_41
   26  A    between atoms: C_32  and  C_43
   27  A    between atoms: C_35  and  C_47
   28  A    between atoms: C_41  and  C_50
   29  A    between atoms: C_42  and  C_47
                            x       y       z     vdW  Elec       q    Type
                         _______ _______ _______ _____ _____    ______ ____

>  <TORSDO>
F 29

$$$$
=
 OpenBabel10222416503D

 53 54  0  0  1  0  0  0  0  0999 V2000
  187.2810  178.4160  146.5340 N   0  0  0  0  0  0  0  0  0  0  0  0
  185.9030  177.8990  146.5240 C   0  0  1  0  0  3  0  0  0  0  0  0
  185.4610  178.0940  145.1360 C   0  0  0  0  0  0  0  0  0  0  0  0
  183.2260  179.3380  144.6240 C   0  0  0  0  0  3  0  0  0  0  0  0
  187.7940  178.2610  145.2280 N   0  0  0  0  0  2  0  0  0  0  0  0
  184.3420  178.7160  144.8800 C   0  0  0  0  0  0  0  0  0  0  0  0
  186.6590  178.3440  144.3130 C   0  0  1  0  0  3  0  0  0  0  0  0
  185.7880  176.4080  146.8530 C   0  0  0  0  0  1  0  0  0  0  0  0
  186.7830  177.2670  143.2520 C   0  0  0  0  0  2  0  0  0  0  0  0
  188.2090  176.7290  143.2120 C   0  0  0  0  0  2  0  0  0  0  0  0
  190.2070  176.0100  141.6240 Cl  0  0  0  0  0  0  0  0  0  0  0  0
  189.0490  177.2920  142.0620 C   0  0  1  0  0  0  0  0  0  0  0  0
  187.9880  177.6460  140.6010 S   0  0  0  0  0  0  0  0  0  0  0  0
  189.3430  178.1720  139.5020 C   0  0  0  0  0  2  0  0  0  0  0  0
  189.7980  177.0230  138.6760 C   0  0  0  0  0  0  0  0  0  0  0  0
  188.9480  176.2950  138.0970 O   0  0  0  0  0  0  0  0  0  0  0  0
  191.1940  176.7330  138.5770 N   0  0  0  0  0  2  0  0  0  0  0  0
  191.7160  175.6670  137.7320 C   0  0  0  0  0  2  0  0  0  0  0  0
  192.8560  176.1590  136.8420 C   0  0  1  0  0  3  0  0  0  0  0  0
  193.8710  176.7510  137.6000 O   0  0  0  0  0  1  0  0  0  0  0  0
  193.4060  175.0490  135.9470 C   0  0  2  0  0  3  0  0  0  0  0  0
  192.5670  173.9320  135.9690 O   0  0  0  0  0  1  0  0  0  0  0  0
  194.8020  174.6570  136.4000 C   0  0  0  0  0  2  0  0  0  0  0  0
  194.7180  173.6630  137.3750 O   0  0  0  0  0  0  0  0  0  0  0  0
  196.0440  173.3780  137.7030 C   0  0  0  0  0  2  0  0  0  0  0  0
  196.6310  174.5020  138.5400 C   0  0  0  0  0  2  0  0  0  0  0  0
  198.6620  175.6320  139.1100 O   0  0  0  0  0  1  0  0  0  0  0  0
  198.1500  174.5010  138.4720 C   0  0  0  0  0  2  0  0  0  0  0  0
  189.8660  178.5140  142.5110 C   0  0  0  0  0  2  0  0  0  0  0  0
  191.3380  178.2140  142.7560 C   0  0  0  0  0  2  0  0  0  0  0  0
  191.8140  178.9770  143.9720 C   0  0  0  0  0  2  0  0  0  0  0  0
  190.9300  180.0220  144.2380 O   0  0  0  0  0  1  0  0  0  0  0  0
  188.1590  177.7130  147.4700 C   0  0  0  0  0  2  0  0  0  0  0  0
  189.5140  178.0920  147.2500 O   0  0  0  0  0  0  0  0  0  0  0  0
  191.7630  175.6220  145.6740 C   0  0  0  0  0  0  0  0  0  0  0  0
  192.4360  175.9070  147.9840 C   0  0  0  0  0  3  0  0  0  0  0  0
  190.7360  176.5530  145.8570 C   0  0  0  0  0  3  0  0  0  0  0  0
  190.5500  177.1640  147.1020 C   0  0  0  0  0  0  0  0  0  0  0  0
  192.6120  175.2980  146.7380 C   0  0  0  0  0  3  0  0  0  0  0  0
  191.9530  174.9760  144.3500 C   0  0  0  0  0  1  0  0  0  0  0  0
  191.4080  176.8370  148.1660 C   0  0  0  0  0  3  0  0  0  0  0  0
  182.1270  178.6300  143.9180 C   0  0  0  0  0  2  0  0  0  0  0  0
  181.6120  179.4990  142.7890 C   0  0  0  0  0  2  0  0  0  0  0  0
  180.9930  178.6380  141.7010 C   0  0  0  0  0  2  0  0  0  0  0  0
  181.9850  178.1880  140.8260 O   0  0  0  0  0  0  0  0  0  0  0  0
  181.6150  178.6850  139.5720 C   0  0  1  0  0  3  0  0  0  0  0  0
  180.5120  179.7340  139.7110 C   0  0  0  0  0  2  0  0  0  0  0  0
  180.8610  182.0040  138.7210 O   0  0  0  0  0  1  0  0  0  0  0  0
  180.0520  180.2860  137.4340 O   0  0  0  0  0  0  0  0  0  0  0  0
  180.4690  180.6820  138.5540 C   0  0  0  0  0  0  0  0  0  0  0  0
  182.8270  179.2590  138.8440 C   0  0  0  0  0  2  0  0  0  0  0  0
  184.0770  179.1640  139.7010 C   0  0  0  0  0  2  0  0  0  0  0  0
  185.2100  179.3800  138.9160 O   0  0  0  0  0  1  0  0  0  0  0  0
  1 33  1  0  0  0  0
  2  1  1  0  0  0  0
  2  8  1  6  0  0  0
  3  2  1  0  0  0  0
  4  6  2  0  0  0  0
  5  1  1  0  0  0  0
  6  3  2  0  0  0  0
  7  9  1  6  0  0  0
  7  3  1  0  0  0  0
  7  5  1  0  0  0  0
 10  9  1  0  0  0  0
 12 11  1  6  0  0  0
 12 29  1  0  0  0  0
 12 10  1  0  0  0  0
 13 12  1  0  0  0  0
 14 13  1  0  0  0  0
 15 14  1  0  0  0  0
 16 15  2  0  0  0  0
 17 15  1  0  0  0  0
 18 17  1  0  0  0  0
 19 20  1  1  0  0  0
 19 18  1  0  0  0  0
 21 22  1  1  0  0  0
 21 23  1  0  0  0  0
 21 19  1  0  0  0  0
 23 24  1  0  0  0  0
 24 25  1  0  0  0  0
 25 26  1  0  0  0  0
 28 26  1  0  0  0  0
 28 27  1  0  0  0  0
 29 30  1  0  0  0  0
 30 31  1  0  0  0  0
 31 32  1  0  0  0  0
 34 33  1  0  0  0  0
 35 37  2  0  0  0  0
 35 39  1  0  0  0  0
 36 41  1  0  0  0  0
 37 38  1  0  0  0  0
 38 34  1  0  0  0  0
 38 41  2  0  0  0  0
 39 36  2  0  0  0  0
 40 35  1  0  0  0  0
 42  4  1  0  0  0  0
 43 42  1  0  0  0  0
 44 43  1  0  0  0  0
 45 44  1  0  0  0  0
 46 51  1  1  0  0  0
 46 47  1  0  0  0  0
 46 45  1  0  0  0  0
 49 50  2  0  0  0  0
 50 48  1  0  0  0  0
 50 47  1  0  0  0  0
 51 52  1  0  0  0  0
 53 52  1  0  0  0  0
M  END
>  <MODEL>
8

>  <REMARK>
 VINA RESULT:      -4.8      3.235      9.444
  Name = 
  29 active torsions:
  status: ('A' for Active; 'I' for Inactive)
    1  A    between atoms: C_1  and  C_12
    2  A    between atoms: C_1  and  O_36
    3  A    between atoms: C_2  and  C_10
    4  A    between atoms: C_3  and  C_22
    5  A    between atoms: C_4  and  C_13
    6  A    between atoms: C_4  and  C_51
    7  A    between atoms: O_6  and  C_19
    8  A    between atoms: O_6  and  C_40
    9  A    between atoms: C_7  and  C_30
   10  A    between atoms: C_7  and  C_50
   11  A    between atoms: C_8  and  C_9
   12  A    between atoms: C_8  and  C_14
   13  A    between atoms: C_10  and  C_35
   14  A    between atoms: C_12  and  C_31
   15  A    between atoms: C_13  and  O_36
   16  A    between atoms: C_14  and  C_23
   17  A    between atoms: N_15  and  C_19
   18  A    between atoms: C_17  and  C_31
   19  A    between atoms: C_17  and  N_52
   20  A    between atoms: C_22  and  S_38
   21  A    between atoms: C_23  and  C_26
   22  A    between atoms: C_23  and  S_38
   23  A    between atoms: C_26  and  C_32
   24  A    between atoms: O_29  and  C_35
   25  A    between atoms: O_29  and  C_41
   26  A    between atoms: C_32  and  C_43
   27  A    between atoms: C_35  and  C_47
   28  A    between atoms: C_41  and  C_50
   29  A    between atoms: C_42  and  C_47
                            x       y       z     vdW  Elec       q    Type
                         _______ _______ _______ _____ _____    ______ ____

>  <TORSDO>
F 29

$$$$
=
 OpenBabel10222416503D

 53 54  0  0  1  0  0  0  0  0999 V2000
  190.3480  176.3090  141.4460 N   0  0  0  0  0  0  0  0  0  0  0  0
  191.3810  176.4870  140.4130 C   0  0  1  0  0  3  0  0  0  0  0  0
  190.6230  176.5170  139.1540 C   0  0  0  0  0  0  0  0  0  0  0  0
  191.2820  174.9470  137.1780 C   0  0  0  0  0  3  0  0  0  0  0  0
  189.1540  176.8680  140.9420 N   0  0  0  0  0  2  0  0  0  0  0  0
  190.9530  175.7310  138.1650 C   0  0  0  0  0  0  0  0  0  0  0  0
  189.2040  176.7380  139.4890 C   0  0  1  0  0  3  0  0  0  0  0  0
  192.1630  177.7990  140.5250 C   0  0  0  0  0  1  0  0  0  0  0  0
  188.7230  178.0270  138.8490 C   0  0  0  0  0  2  0  0  0  0  0  0
  187.2010  178.0910  138.8710 C   0  0  0  0  0  2  0  0  0  0  0  0
  187.0360  178.8490  136.3350 Cl  0  0  0  0  0  0  0  0  0  0  0  0
  186.5440  177.6510  137.5590 C   0  0  1  0  0  0  0  0  0  0  0  0
  187.1730  175.9990  137.0460 S   0  0  0  0  0  0  0  0  0  0  0  0
  185.8950  175.6910  135.7840 C   0  0  0  0  0  2  0  0  0  0  0  0
  185.1030  174.4870  136.1510 C   0  0  0  0  0  0  0  0  0  0  0  0
  185.6950  173.4450  136.5400 O   0  0  0  0  0  0  0  0  0  0  0  0
  183.6800  174.5120  136.0220 N   0  0  0  0  0  2  0  0  0  0  0  0
  182.8360  173.3950  136.4270 C   0  0  0  0  0  2  0  0  0  0  0  0
  181.4340  173.5010  135.8270 C   0  0  1  0  0  3  0  0  0  0  0  0
  181.2830  172.6350  134.7390 O   0  0  0  0  0  1  0  0  0  0  0  0
  180.3440  173.2740  136.8730 C   0  0  2  0  0  3  0  0  0  0  0  0
  179.0760  173.4580  136.3170 O   0  0  0  0  0  1  0  0  0  0  0  0
  180.5380  174.2240  138.0430 C   0  0  0  0  0  2  0  0  0  0  0  0
  180.0610  175.4910  137.7050 O   0  0  0  0  0  0  0  0  0  0  0  0
  178.9390  175.6730  138.5140 C   0  0  0  0  0  2  0  0  0  0  0  0
  179.3640  175.9600  139.9440 C   0  0  0  0  0  2  0  0  0  0  0  0
  180.4510  177.5480  141.3660 O   0  0  0  0  0  1  0  0  0  0  0  0
  180.0700  177.3030  140.0460 C   0  0  0  0  0  2  0  0  0  0  0  0
  185.0110  177.6960  137.6570 C   0  0  0  0  0  2  0  0  0  0  0  0
  184.4970  178.2720  138.9690 C   0  0  0  0  0  2  0  0  0  0  0  0
  183.4730  179.3490  138.6830 C   0  0  0  0  0  2  0  0  0  0  0  0
  183.9730  180.5830  139.0940 O   0  0  0  0  0  1  0  0  0  0  0  0
  190.6740  176.9620  142.7140 C   0  0  0  0  0  2  0  0  0  0  0  0
  190.1070  176.2370  143.8000 O   0  0  0  0  0  0  0  0  0  0  0  0
  188.5040  177.6300  146.8220 C   0  0  0  0  0  0  0  0  0  0  0  0
  186.8490  177.5220  145.0570 C   0  0  0  0  0  3  0  0  0  0  0  0
  189.4640  177.0950  145.9570 C   0  0  0  0  0  3  0  0  0  0  0  0
  189.1230  176.7680  144.6390 C   0  0  0  0  0  0  0  0  0  0  0  0
  187.1970  177.8420  146.3730 C   0  0  0  0  0  3  0  0  0  0  0  0
  188.8730  177.9730  148.2190 C   0  0  0  0  0  1  0  0  0  0  0  0
  187.8080  176.9870  144.1930 C   0  0  0  0  0  3  0  0  0  0  0  0
  191.7090  175.5280  135.8790 C   0  0  0  0  0  2  0  0  0  0  0  0
  193.0150  174.8940  135.4480 C   0  0  0  0  0  2  0  0  0  0  0  0
  194.0190  174.9300  136.5870 C   0  0  0  0  0  2  0  0  0  0  0  0
  194.5420  173.6520  136.8030 O   0  0  0  0  0  0  0  0  0  0  0  0
  195.7850  173.8670  137.4080 C   0  0  1  0  0  3  0  0  0  0  0  0
  196.3220  172.5700  138.0140 C   0  0  0  0  0  2  0  0  0  0  0  0
  196.0720  171.0660  136.0310 O   0  0  0  0  0  0  0  0  0  0  0  0
  194.9830  170.5950  137.9940 O   0  0  0  0  0  1  0  0  0  0  0  0
  195.7600  171.3500  137.3560 C   0  0  0  0  0  0  0  0  0  0  0  0
  196.7750  174.4530  136.4050 C   0  0  0  0  0  2  0  0  0  0  0  0
  198.2060  174.1200  136.7890 C   0  0  0  0  0  2  0  0  0  0  0  0
  198.7260  175.1240  137.6060 O   0  0  0  0  0  1  0  0  0  0  0  0
  1 33  1  0  0  0  0
  2  8  1  1  0  0  0
  2  1  1  0  0  0  0
  3  7  1  0  0  0  0
  3  2  1  0  0  0  0
  4  6  2  0  0  0  0
  5  1  1  0  0  0  0
  6  3  2  0  0  0  0
  7  9  1  6  0  0  0
  7  5  1  0  0  0  0
  9 10  1  0  0  0  0
 12 11  1  6  0  0  0
 12 29  1  0  0  0  0
 12 10  1  0  0  0  0
 13 12  1  0  0  0  0
 14 15  1  0  0  0  0
 14 13  1  0  0  0  0
 15 16  2  0  0  0  0
 17 15  1  0  0  0  0
 17 18  1  0  0  0  0
 19 20  1  6  0  0  0
 19 18  1  0  0  0  0
 19 21  1  0  0  0  0
 21 22  1  6  0  0  0
 21 23  1  0  0  0  0
 24 23  1  0  0  0  0
 24 25  1  0  0  0  0
 25 26  1  0  0  0  0
 26 28  1  0  0  0  0
 28 27  1  0  0  0  0
 29 30  1  0  0  0  0
 31 30  1  0  0  0  0
 31 32  1  0  0  0  0
 33 34  1  0  0  0  0
 34 38  1  0  0  0  0
 35 40  1  0  0  0  0
 36 39  2  0  0  0  0
 37 35  2  0  0  0  0
 38 37  1  0  0  0  0
 39 35  1  0  0  0  0
 41 38  2  0  0  0  0
 41 36  1  0  0  0  0
 42  4  1  0  0  0  0
 43 42  1  0  0  0  0
 43 44  1  0  0  0  0
 44 45  1  0  0  0  0
 45 46  1  0  0  0  0
 46 51  1  6  0  0  0
 46 47  1  0  0  0  0
 48 50  2  0  0  0  0
 50 49  1  0  0  0  0
 50 47  1  0  0  0  0
 51 52  1  0  0  0  0
 52 53  1  0  0  0  0
M  END
>  <MODEL>
9

>  <REMARK>
 VINA RESULT:      -4.8      2.865     10.067
  Name = 
  29 active torsions:
  status: ('A' for Active; 'I' for Inactive)
    1  A    between atoms: C_1  and  C_12
    2  A    between atoms: C_1  and  O_36
    3  A    between atoms: C_2  and  C_10
    4  A    between atoms: C_3  and  C_22
    5  A    between atoms: C_4  and  C_13
    6  A    between atoms: C_4  and  C_51
    7  A    between atoms: O_6  and  C_19
    8  A    between atoms: O_6  and  C_40
    9  A    between atoms: C_7  and  C_30
   10  A    between atoms: C_7  and  C_50
   11  A    between atoms: C_8  and  C_9
   12  A    between atoms: C_8  and  C_14
   13  A    between atoms: C_10  and  C_35
   14  A    between atoms: C_12  and  C_31
   15  A    between atoms: C_13  and  O_36
   16  A    between atoms: C_14  and  C_23
   17  A    between atoms: N_15  and  C_19
   18  A    between atoms: C_17  and  C_31
   19  A    between atoms: C_17  and  N_52
   20  A    between atoms: C_22  and  S_38
   21  A    between atoms: C_23  and  C_26
   22  A    between atoms: C_23  and  S_38
   23  A    between atoms: C_26  and  C_32
   24  A    between atoms: O_29  and  C_35
   25  A    between atoms: O_29  and  C_41
   26  A    between atoms: C_32  and  C_43
   27  A    between atoms: C_35  and  C_47
   28  A    between atoms: C_41  and  C_50
   29  A    between atoms: C_42  and  C_47
                            x       y       z     vdW  Elec       q    Type
                         _______ _______ _______ _____ _____    ______ ____

>  <TORSDO>
F 29

$$$$
