=
 OpenBabel10222416563D

 28 31  0  0  1  0  0  0  0  0999 V2000
  190.4350  176.4370  144.9910 O   0  0  0  0  0  0  0  0  0  0  0  0
  186.4080  177.8690  145.3700 C   0  0  2  0  0  3  0  0  0  0  0  0
  188.3730  177.3300  142.1040 C   0  0  0  0  0  1  0  0  0  0  0  0
  186.7300  178.1080  146.8340 C   0  0  0  0  0  0  0  0  0  0  0  0
  189.8320  176.2720  147.7150 O   0  0  0  0  0  1  0  0  0  0  0  0
  187.3710  177.1350  144.6380 O   0  0  0  0  0  0  0  0  0  0  0  0
  189.2940  177.6470  143.2720 C   0  0  0  0  0  0  0  0  0  0  0  0
  188.5650  177.8860  144.5700 C   0  0  2  0  0  3  0  0  0  0  0  0
  189.5630  177.3650  145.5990 C   0  0  1  0  0  3  0  0  0  0  0  0
  191.3500  176.4200  142.8780 O   0  0  0  0  0  1  0  0  0  0  0  0
  190.1180  178.8840  142.9360 C   0  0  0  0  0  1  0  0  0  0  0  0
  188.2980  178.2380  148.7700 C   0  0  0  0  0  1  0  0  0  0  0  0
  185.8530  178.6780  147.5390 O   0  0  0  0  0  0  0  0  0  0  0  0
  190.1600  176.4460  143.6110 C   0  0  1  0  0  3  0  0  0  0  0  0
  187.9760  177.7130  147.4470 N   0  0  0  0  0  0  0  0  0  0  0  0
  188.8720  176.7420  146.8110 C   0  0  2  0  0  3  0  0  0  0  0  0
  185.9500  179.1440  144.6550 C   0  0  0  0  0  2  0  0  0  0  0  0
  183.1560  178.6070  142.3660 C   0  0  0  0  0  0  0  0  0  0  0  0
  178.9310  178.1580  140.9280 N   0  0  0  0  0  1  0  0  0  0  0  0
  182.6190  178.3870  141.1170 C   0  0  0  0  0  3  0  0  0  0  0  0
  180.1440  178.5320  142.9350 N   0  0  0  0  0  0  0  0  0  0  0  0
  180.1770  178.3260  141.5900 C   0  0  0  0  0  0  0  0  0  0  0  0
  181.3010  178.2720  140.8280 N   0  0  0  0  0  0  0  0  0  0  0  0
  184.6420  178.9360  143.9710 C   0  0  0  0  0  0  0  0  0  0  0  0
  181.1100  178.7270  143.8620 C   0  0  0  0  0  3  0  0  0  0  0  0
  182.4650  178.7630  143.6220 C   0  0  0  0  0  0  0  0  0  0  0  0
  183.4100  178.9720  144.6020 C   0  0  0  0  0  3  0  0  0  0  0  0
  184.5070  178.7230  142.6100 C   0  0  0  0  0  3  0  0  0  0  0  0
  2 17  1  6  0  0  0
  2  4  1  0  0  0  0
  3  7  1  0  0  0  0
  4 15  1  0  0  0  0
  4 13  2  0  0  0  0
  6  2  1  0  0  0  0
  7 14  1  0  0  0  0
  7  8  1  0  0  0  0
  8  6  1  6  0  0  0
  8  9  1  0  0  0  0
  9  1  1  6  0  0  0
  9 16  1  0  0  0  0
 11  7  1  0  0  0  0
 14 10  1  6  0  0  0
 14  1  1  0  0  0  0
 15 12  1  0  0  0  0
 16 15  1  0  0  0  0
 16  5  1  1  0  0  0
 18 28  2  0  0  0  0
 18 26  1  0  0  0  0
 19 22  1  0  0  0  0
 20 18  1  0  0  0  0
 21 25  1  0  0  0  0
 22 21  2  0  0  0  0
 23 20  2  0  0  0  0
 23 22  1  0  0  0  0
 24 27  2  0  0  0  0
 24 17  1  0  0  0  0
 26 25  2  0  0  0  0
 26 27  1  0  0  0  0
 28 24  1  0  0  0  0
M  END
>  <MODEL>
1

>  <REMARK>
 VINA RESULT:      -9.1      0.000      0.000
  Name = 
  2 active torsions:
  status: ('A' for Active; 'I' for Inactive)
    1  A    between atoms: C_2  and  C_3
    2  A    between atoms: C_3  and  C_22
                            x       y       z     vdW  Elec       q    Type
                         _______ _______ _______ _____ _____    ______ ____

>  <TORSDO>
F 2

$$$$
=
 OpenBabel10222416563D

 28 31  0  0  1  0  0  0  0  0999 V2000
  189.5850  177.1770  145.9510 O   0  0  0  0  0  0  0  0  0  0  0  0
  187.8740  177.4990  142.0290 C   0  0  2  0  0  3  0  0  0  0  0  0
  191.6010  177.0890  142.8980 C   0  0  0  0  0  1  0  0  0  0  0  0
  186.6210  178.0070  142.7200 C   0  0  0  0  0  0  0  0  0  0  0  0
  186.8180  177.2150  146.3390 O   0  0  0  0  0  1  0  0  0  0  0  0
  188.8730  176.9650  142.8770 O   0  0  0  0  0  0  0  0  0  0  0  0
  190.8360  177.7960  144.0080 C   0  0  0  0  0  0  0  0  0  0  0  0
  189.3740  177.9960  143.7010 C   0  0  2  0  0  3  0  0  0  0  0  0
  188.7410  177.9060  145.0850 C   0  0  1  0  0  3  0  0  0  0  0  0
  191.8840  177.1320  146.0940 O   0  0  0  0  0  1  0  0  0  0  0  0
  191.4760  179.1540  144.2670 C   0  0  0  0  0  1  0  0  0  0  0  0
  185.3550  178.8120  144.7130 C   0  0  0  0  0  1  0  0  0  0  0  0
  185.6730  178.4050  141.9890 O   0  0  0  0  0  0  0  0  0  0  0  0
  190.7830  176.9300  145.2550 C   0  0  1  0  0  3  0  0  0  0  0  0
  186.4680  178.0500  144.1550 N   0  0  0  0  0  0  0  0  0  0  0  0
  187.3460  177.2840  145.0440 C   0  0  2  0  0  3  0  0  0  0  0  0
  188.4230  178.4970  141.0050 C   0  0  0  0  0  2  0  0  0  0  0  0
  190.4660  176.8890  138.4410 C   0  0  0  0  0  0  0  0  0  0  0  0
  191.5360  174.8340  134.5990 N   0  0  0  0  0  1  0  0  0  0  0  0
  191.6660  176.4570  137.9220 C   0  0  0  0  0  3  0  0  0  0  0  0
  189.6370  175.6810  135.7470 N   0  0  0  0  0  0  0  0  0  0  0  0
  190.9820  175.4770  135.7390 C   0  0  0  0  0  0  0  0  0  0  0  0
  191.8410  175.8410  136.7280 N   0  0  0  0  0  0  0  0  0  0  0  0
  188.9930  177.7920  139.8210 C   0  0  0  0  0  0  0  0  0  0  0  0
  188.7950  176.2480  136.6410 C   0  0  0  0  0  2  0  0  0  0  0  0
  189.1520  176.7940  137.8540 C   0  0  0  0  0  0  0  0  0  0  0  0
  188.2560  177.3670  138.7280 C   0  0  0  0  0  3  0  0  0  0  0  0
  190.3400  177.5170  139.6600 C   0  0  0  0  0  2  0  0  0  0  0  0
  2 17  1  1  0  0  0
  2  4  1  0  0  0  0
  2  6  1  0  0  0  0
  3  7  1  0  0  0  0
  4 15  1  0  0  0  0
  7 11  1  0  0  0  0
  7 14  1  0  0  0  0
  8  6  1  6  0  0  0
  8  7  1  0  0  0  0
  8  9  1  0  0  0  0
  9  1  1  1  0  0  0
 13  4  2  0  0  0  0
 14  1  1  0  0  0  0
 14 10  1  1  0  0  0
 15 12  1  0  0  0  0
 15 16  1  0  0  0  0
 16  9  1  0  0  0  0
 16  5  1  1  0  0  0
 18 28  1  0  0  0  0
 19 22  1  0  0  0  0
 20 18  1  0  0  0  0
 21 25  1  0  0  0  0
 22 21  2  0  0  0  0
 22 23  1  0  0  0  0
 23 20  2  0  0  0  0
 24 17  1  0  0  0  0
 25 26  1  0  0  0  0
 26 18  2  0  0  0  0
 26 27  1  0  0  0  0
 27 24  2  0  0  0  0
 28 24  1  0  0  0  0
M  END
>  <MODEL>
2

>  <REMARK>
 VINA RESULT:      -8.8      4.725      6.922
  Name = 
  2 active torsions:
  status: ('A' for Active; 'I' for Inactive)
    1  A    between atoms: C_2  and  C_3
    2  A    between atoms: C_3  and  C_22
                            x       y       z     vdW  Elec       q    Type
                         _______ _______ _______ _____ _____    ______ ____

>  <TORSDO>
F 2

$$$$
=
 OpenBabel10222416563D

 28 31  0  0  1  0  0  0  0  0999 V2000
  190.2420  176.5100  145.1190 O   0  0  0  0  0  0  0  0  0  0  0  0
  186.2300  178.0310  145.0380 C   0  0  2  0  0  3  0  0  0  0  0  0
  188.5520  177.4690  142.0190 C   0  0  0  0  0  1  0  0  0  0  0  0
  186.3830  178.2520  146.5310 C   0  0  0  0  0  0  0  0  0  0  0  0
  189.3200  176.3410  147.7520 O   0  0  0  0  0  1  0  0  0  0  0  0
  187.2560  177.2810  144.4160 O   0  0  0  0  0  0  0  0  0  0  0  0
  189.3370  177.7580  143.2900 C   0  0  0  0  0  0  0  0  0  0  0  0
  188.4660  178.0050  144.4950 C   0  0  2  0  0  3  0  0  0  0  0  0
  189.3250  177.4540  145.6290 C   0  0  1  0  0  3  0  0  0  0  0  0
  191.3980  176.4870  143.1270 O   0  0  0  0  0  1  0  0  0  0  0  0
  190.2210  178.9780  143.0640 C   0  0  0  0  0  1  0  0  0  0  0  0
  187.7160  178.3340  148.6390 C   0  0  0  0  0  1  0  0  0  0  0  0
  185.4420  178.8370  147.1340 O   0  0  0  0  0  0  0  0  0  0  0  0
  190.1300  176.5350  143.7170 C   0  0  1  0  0  3  0  0  0  0  0  0
  187.5400  177.8260  147.2820 N   0  0  0  0  0  0  0  0  0  0  0  0
  188.4830  176.8390  146.7460 C   0  0  2  0  0  3  0  0  0  0  0  0
  185.8870  179.3210  144.2860 C   0  0  0  0  0  2  0  0  0  0  0  0
  184.5430  178.7880  140.9330 C   0  0  0  0  0  0  0  0  0  0  0  0
  181.5710  177.9120  137.6890 N   0  0  0  0  0  1  0  0  0  0  0  0
  184.6530  178.7420  139.5610 C   0  0  0  0  0  3  0  0  0  0  0  0
  181.6950  178.0670  140.0550 N   0  0  0  0  0  0  0  0  0  0  0  0
  182.3390  178.1550  138.8600 C   0  0  0  0  0  0  0  0  0  0  0  0
  183.6530  178.4590  138.6920 N   0  0  0  0  0  0  0  0  0  0  0  0
  185.0850  179.0330  143.0630 C   0  0  0  0  0  0  0  0  0  0  0  0
  182.1000  178.2320  141.3350 C   0  0  0  0  0  2  0  0  0  0  0  0
  183.3750  178.5560  141.7450 C   0  0  0  0  0  0  0  0  0  0  0  0
  183.7360  178.7190  143.0640 C   0  0  0  0  0  3  0  0  0  0  0  0
  185.5910  179.0870  141.7760 C   0  0  0  0  0  2  0  0  0  0  0  0
  2 17  1  6  0  0  0
  2  4  1  0  0  0  0
  3  7  1  0  0  0  0
  4 13  2  0  0  0  0
  4 15  1  0  0  0  0
  6  2  1  0  0  0  0
  7 14  1  0  0  0  0
  7  8  1  0  0  0  0
  8  6  1  6  0  0  0
  8  9  1  0  0  0  0
  9  1  1  6  0  0  0
  9 16  1  0  0  0  0
 11  7  1  0  0  0  0
 14 10  1  6  0  0  0
 14  1  1  0  0  0  0
 15 12  1  0  0  0  0
 16 15  1  0  0  0  0
 16  5  1  1  0  0  0
 18 26  2  0  0  0  0
 18 28  1  0  0  0  0
 19 22  1  0  0  0  0
 20 18  1  0  0  0  0
 21 25  1  0  0  0  0
 22 21  2  0  0  0  0
 23 22  1  0  0  0  0
 23 20  2  0  0  0  0
 24 27  2  0  0  0  0
 24 17  1  0  0  0  0
 25 26  1  0  0  0  0
 26 27  1  0  0  0  0
 28 24  1  0  0  0  0
M  END
>  <MODEL>
3

>  <REMARK>
 VINA RESULT:      -8.3      1.229      1.705
  Name = 
  2 active torsions:
  status: ('A' for Active; 'I' for Inactive)
    1  A    between atoms: C_2  and  C_3
    2  A    between atoms: C_3  and  C_22
                            x       y       z     vdW  Elec       q    Type
                         _______ _______ _______ _____ _____    ______ ____

>  <TORSDO>
F 2

$$$$
=
 OpenBabel10222416563D

 28 31  0  0  1  0  0  0  0  0999 V2000
  188.6950  177.3440  145.1580 O   0  0  0  0  0  0  0  0  0  0  0  0
  188.2810  177.5020  140.8910 C   0  0  2  0  0  3  0  0  0  0  0  0
  191.4810  176.7020  142.8740 C   0  0  0  0  0  1  0  0  0  0  0  0
  186.9730  178.2320  141.1380 C   0  0  0  0  0  0  0  0  0  0  0  0
  185.9760  177.7750  144.6830 O   0  0  0  0  0  1  0  0  0  0  0  0
  188.8930  176.9290  142.0290 O   0  0  0  0  0  0  0  0  0  0  0  0
  190.5410  177.6050  143.6580 C   0  0  0  0  0  0  0  0  0  0  0  0
  189.2810  177.9620  142.9100 C   0  0  2  0  0  3  0  0  0  0  0  0
  188.2640  178.0880  144.0390 C   0  0  1  0  0  3  0  0  0  0  0  0
  190.8160  177.0170  145.9970 O   0  0  0  0  0  1  0  0  0  0  0  0
  191.2740  178.8890  144.0270 C   0  0  0  0  0  1  0  0  0  0  0  0
  185.3150  179.3820  142.6060 C   0  0  0  0  0  1  0  0  0  0  0  0
  186.3530  178.6760  140.1330 O   0  0  0  0  0  0  0  0  0  0  0  0
  189.9930  176.8780  144.8740 C   0  0  1  0  0  3  0  0  0  0  0  0
  186.4140  178.4330  142.4540 N   0  0  0  0  0  0  0  0  0  0  0  0
  186.8650  177.6490  143.6090 C   0  0  2  0  0  3  0  0  0  0  0  0
  189.2510  178.3170  140.0300 C   0  0  0  0  0  2  0  0  0  0  0  0
  191.0830  175.7660  138.1670 C   0  0  0  0  0  0  0  0  0  0  0  0
  194.5520  173.4640  136.4960 N   0  0  0  0  0  1  0  0  0  0  0  0
  191.1560  174.6400  137.3770 C   0  0  0  0  0  3  0  0  0  0  0  0
  194.1060  175.3700  137.8410 N   0  0  0  0  0  0  0  0  0  0  0  0
  193.6110  174.3290  137.1180 C   0  0  0  0  0  0  0  0  0  0  0  0
  192.2930  174.0470  136.9420 N   0  0  0  0  0  0  0  0  0  0  0  0
  190.2430  177.4320  139.3540 C   0  0  0  0  0  0  0  0  0  0  0  0
  193.5200  176.3630  138.5490 C   0  0  0  0  0  3  0  0  0  0  0  0
  192.1650  176.5530  138.7040 C   0  0  0  0  0  0  0  0  0  0  0  0
  191.6170  177.5790  139.4420 C   0  0  0  0  0  3  0  0  0  0  0  0
  189.9000  176.3300  138.5890 C   0  0  0  0  0  3  0  0  0  0  0  0
  2 17  1  1  0  0  0
  2  4  1  0  0  0  0
  2  6  1  0  0  0  0
  3  7  1  0  0  0  0
  4 15  1  0  0  0  0
  7 11  1  0  0  0  0
  7 14  1  0  0  0  0
  8  6  1  6  0  0  0
  8  7  1  0  0  0  0
  8  9  1  0  0  0  0
  9  1  1  1  0  0  0
 13  4  2  0  0  0  0
 14  1  1  0  0  0  0
 14 10  1  1  0  0  0
 15 12  1  0  0  0  0
 15 16  1  0  0  0  0
 16  9  1  0  0  0  0
 16  5  1  1  0  0  0
 18 28  2  0  0  0  0
 18 26  1  0  0  0  0
 19 22  1  0  0  0  0
 20 18  1  0  0  0  0
 21 25  1  0  0  0  0
 22 21  2  0  0  0  0
 23 22  1  0  0  0  0
 23 20  2  0  0  0  0
 24 27  2  0  0  0  0
 24 17  1  0  0  0  0
 25 26  2  0  0  0  0
 26 27  1  0  0  0  0
 28 24  1  0  0  0  0
M  END
>  <MODEL>
4

>  <REMARK>
 VINA RESULT:      -8.0      5.260      8.235
  Name = 
  2 active torsions:
  status: ('A' for Active; 'I' for Inactive)
    1  A    between atoms: C_2  and  C_3
    2  A    between atoms: C_3  and  C_22
                            x       y       z     vdW  Elec       q    Type
                         _______ _______ _______ _____ _____    ______ ____

>  <TORSDO>
F 2

$$$$
=
 OpenBabel10222416563D

 28 31  0  0  1  0  0  0  0  0999 V2000
  188.9930  176.3030  135.7570 O   0  0  0  0  0  0  0  0  0  0  0  0
  189.4820  176.9130  139.9750 C   0  0  2  0  0  3  0  0  0  0  0  0
  186.2920  177.5170  137.9070 C   0  0  0  0  0  1  0  0  0  0  0  0
  190.9760  176.8390  139.7180 C   0  0  0  0  0  0  0  0  0  0  0  0
  191.5620  175.3830  136.3560 O   0  0  0  0  0  1  0  0  0  0  0  0
  188.6500  176.5500  138.8910 O   0  0  0  0  0  0  0  0  0  0  0  0
  187.5510  177.6890  137.0690 C   0  0  0  0  0  0  0  0  0  0  0  0
  188.8270  177.4820  137.8450 C   0  0  2  0  0  3  0  0  0  0  0  0
  189.7550  176.8980  136.7840 C   0  0  1  0  0  3  0  0  0  0  0  0
  186.9880  176.9520  134.8260 O   0  0  0  0  0  1  0  0  0  0  0  0
  187.5620  179.0890  136.4680 C   0  0  0  0  0  1  0  0  0  0  0  0
  192.9700  176.7530  138.2210 C   0  0  0  0  0  1  0  0  0  0  0  0
  191.7470  177.0670  140.6900 O   0  0  0  0  0  0  0  0  0  0  0  0
  187.6410  176.6020  136.0120 C   0  0  1  0  0  3  0  0  0  0  0  0
  191.5440  176.5190  138.4300 N   0  0  0  0  0  0  0  0  0  0  0  0
  190.7450  175.8940  137.3710 C   0  0  2  0  0  3  0  0  0  0  0  0
  189.0670  178.2310  140.6390 C   0  0  0  0  0  2  0  0  0  0  0  0
  187.8540  177.7800  144.0540 C   0  0  0  0  0  0  0  0  0  0  0  0
  187.9310  177.4070  148.5240 N   0  0  0  0  0  1  0  0  0  0  0  0
  186.8580  177.5990  144.9880 C   0  0  0  0  0  3  0  0  0  0  0  0
  189.4130  177.7150  146.6940 N   0  0  0  0  0  0  0  0  0  0  0  0
  188.1330  177.5460  147.1230 C   0  0  0  0  0  0  0  0  0  0  0  0
  187.0320  177.5030  146.3270 N   0  0  0  0  0  0  0  0  0  0  0  0
  188.8640  178.0530  142.1050 C   0  0  0  0  0  0  0  0  0  0  0  0
  189.9600  177.8770  145.4670 C   0  0  0  0  0  3  0  0  0  0  0  0
  189.2740  177.9080  144.2740 C   0  0  0  0  0  0  0  0  0  0  0  0
  189.8780  178.0820  143.0480 C   0  0  0  0  0  3  0  0  0  0  0  0
  187.6260  177.8770  142.6990 C   0  0  0  0  0  3  0  0  0  0  0  0
  1 14  1  0  0  0  0
  2 17  1  6  0  0  0
  4  2  1  0  0  0  0
  4 13  2  0  0  0  0
  6  2  1  0  0  0  0
  7  8  1  0  0  0  0
  7  3  1  0  0  0  0
  8  6  1  1  0  0  0
  9  1  1  6  0  0  0
  9 16  1  0  0  0  0
  9  8  1  0  0  0  0
 11  7  1  0  0  0  0
 12 15  1  0  0  0  0
 14 10  1  6  0  0  0
 14  7  1  0  0  0  0
 15  4  1  0  0  0  0
 16  5  1  6  0  0  0
 16 15  1  0  0  0  0
 17 24  1  0  0  0  0
 18 26  1  0  0  0  0
 18 20  1  0  0  0  0
 20 23  2  0  0  0  0
 21 22  2  0  0  0  0
 22 19  1  0  0  0  0
 23 22  1  0  0  0  0
 24 28  1  0  0  0  0
 24 27  2  0  0  0  0
 25 21  1  0  0  0  0
 26 25  2  0  0  0  0
 27 26  1  0  0  0  0
 28 18  2  0  0  0  0
M  END
>  <MODEL>
5

>  <REMARK>
 VINA RESULT:      -7.7      4.716      8.123
  Name = 
  2 active torsions:
  status: ('A' for Active; 'I' for Inactive)
    1  A    between atoms: C_2  and  C_3
    2  A    between atoms: C_3  and  C_22
                            x       y       z     vdW  Elec       q    Type
                         _______ _______ _______ _____ _____    ______ ____

>  <TORSDO>
F 2

$$$$
=
 OpenBabel10222416563D

 28 31  0  0  1  0  0  0  0  0999 V2000
  189.1440  176.1110  135.6020 O   0  0  0  0  0  0  0  0  0  0  0  0
  191.4870  176.3610  139.1870 C   0  0  2  0  0  3  0  0  0  0  0  0
  187.8320  177.4800  138.7310 C   0  0  0  0  0  1  0  0  0  0  0  0
  192.6980  176.1300  138.3010 C   0  0  0  0  0  0  0  0  0  0  0  0
  191.5680  174.8560  135.0040 O   0  0  0  0  0  1  0  0  0  0  0  0
  190.2270  176.1750  138.5720 O   0  0  0  0  0  0  0  0  0  0  0  0
  188.6160  177.5610  137.4290 C   0  0  0  0  0  0  0  0  0  0  0  0
  190.0600  177.1510  137.5650 C   0  0  2  0  0  3  0  0  0  0  0  0
  190.3490  176.5390  136.1990 C   0  0  1  0  0  3  0  0  0  0  0  0
  187.0440  177.0550  135.6510 O   0  0  0  0  0  1  0  0  0  0  0  0
  188.5570  178.9890  136.9010 C   0  0  0  0  0  1  0  0  0  0  0  0
  193.8160  175.9150  136.0810 C   0  0  0  0  0  1  0  0  0  0  0  0
  193.8360  176.1970  138.8400 O   0  0  0  0  0  0  0  0  0  0  0  0
  188.0910  176.5470  136.4260 C   0  0  1  0  0  3  0  0  0  0  0  0
  192.6040  175.8370  136.8900 N   0  0  0  0  0  0  0  0  0  0  0  0
  191.3480  175.3860  136.2810 C   0  0  2  0  0  3  0  0  0  0  0  0
  191.5840  177.6680  139.9810 C   0  0  0  0  0  2  0  0  0  0  0  0
  189.6950  177.3660  143.0920 C   0  0  0  0  0  0  0  0  0  0  0  0
  188.8670  176.8430  147.4700 N   0  0  0  0  0  1  0  0  0  0  0  0
  188.5270  177.3630  143.8220 C   0  0  0  0  0  3  0  0  0  0  0  0
  190.6940  176.8990  145.9530 N   0  0  0  0  0  0  0  0  0  0  0  0
  189.3490  176.9820  146.1400 C   0  0  0  0  0  0  0  0  0  0  0  0
  188.4280  177.1910  145.1620 N   0  0  0  0  0  0  0  0  0  0  0  0
  191.0820  177.4880  141.3740 C   0  0  0  0  0  0  0  0  0  0  0  0
  191.4800  176.9840  144.8550 C   0  0  0  0  0  3  0  0  0  0  0  0
  191.0460  177.1940  143.5650 C   0  0  0  0  0  0  0  0  0  0  0  0
  191.8890  177.2790  142.4790 C   0  0  0  0  0  3  0  0  0  0  0  0
  189.7450  177.5520  141.7280 C   0  0  0  0  0  3  0  0  0  0  0  0
  1 14  1  0  0  0  0
  2 17  1  6  0  0  0
  4 13  2  0  0  0  0
  4  2  1  0  0  0  0
  6  2  1  0  0  0  0
  7  8  1  0  0  0  0
  7  3  1  0  0  0  0
  8  6  1  1  0  0  0
  9  1  1  1  0  0  0
  9 16  1  0  0  0  0
  9  8  1  0  0  0  0
 11  7  1  0  0  0  0
 12 15  1  0  0  0  0
 14 10  1  6  0  0  0
 14  7  1  0  0  0  0
 15  4  1  0  0  0  0
 16  5  1  6  0  0  0
 16 15  1  0  0  0  0
 17 24  1  0  0  0  0
 18 26  1  0  0  0  0
 18 20  1  0  0  0  0
 20 23  2  0  0  0  0
 21 22  2  0  0  0  0
 22 19  1  0  0  0  0
 23 22  1  0  0  0  0
 24 28  1  0  0  0  0
 24 27  2  0  0  0  0
 25 21  1  0  0  0  0
 26 25  2  0  0  0  0
 27 26  1  0  0  0  0
 28 18  2  0  0  0  0
M  END
>  <MODEL>
6

>  <REMARK>
 VINA RESULT:      -7.6      5.648      9.194
  Name = 
  2 active torsions:
  status: ('A' for Active; 'I' for Inactive)
    1  A    between atoms: C_2  and  C_3
    2  A    between atoms: C_3  and  C_22
                            x       y       z     vdW  Elec       q    Type
                         _______ _______ _______ _____ _____    ______ ____

>  <TORSDO>
F 2

$$$$
=
 OpenBabel10222416563D

 28 31  0  0  1  0  0  0  0  0999 V2000
  189.8560  175.2490  135.9670 O   0  0  0  0  0  0  0  0  0  0  0  0
  189.4520  176.8550  139.9260 C   0  0  2  0  0  3  0  0  0  0  0  0
  186.6720  176.4720  137.2910 C   0  0  0  0  0  1  0  0  0  0  0  0
  190.9670  176.9620  139.9360 C   0  0  0  0  0  0  0  0  0  0  0  0
  192.3510  174.9030  137.1770 O   0  0  0  0  0  1  0  0  0  0  0  0
  188.8910  176.1320  138.8470 O   0  0  0  0  0  0  0  0  0  0  0  0
  188.0390  176.6490  136.6490 C   0  0  0  0  0  0  0  0  0  0  0  0
  189.1570  176.8230  137.6440 C   0  0  2  0  0  3  0  0  0  0  0  0
  190.3330  176.1710  136.9230 C   0  0  1  0  0  3  0  0  0  0  0  0
  188.0060  175.3500  134.5980 O   0  0  0  0  0  1  0  0  0  0  0  0
  188.0050  177.8630  135.7300 C   0  0  0  0  0  1  0  0  0  0  0  0
  193.2070  176.8580  138.8440 C   0  0  0  0  0  1  0  0  0  0  0  0
  191.5050  177.5190  140.9310 O   0  0  0  0  0  0  0  0  0  0  0  0
  188.4560  175.3810  135.9230 C   0  0  1  0  0  3  0  0  0  0  0  0
  191.8040  176.4560  138.8750 N   0  0  0  0  0  0  0  0  0  0  0  0
  191.3010  175.4920  137.8910 C   0  0  2  0  0  3  0  0  0  0  0  0
  188.7690  178.2050  140.1670 C   0  0  0  0  0  2  0  0  0  0  0  0
  186.3290  178.5020  142.8680 C   0  0  0  0  0  0  0  0  0  0  0  0
  184.5770  178.2660  146.9910 N   0  0  0  0  0  1  0  0  0  0  0  0
  185.0990  178.8580  143.3760 C   0  0  0  0  0  3  0  0  0  0  0  0
  186.5860  177.7580  145.8320 N   0  0  0  0  0  0  0  0  0  0  0  0
  185.3180  178.2490  145.7780 C   0  0  0  0  0  0  0  0  0  0  0  0
  184.7040  178.7270  144.6640 N   0  0  0  0  0  0  0  0  0  0  0  0
  187.9850  178.1900  141.4350 C   0  0  0  0  0  0  0  0  0  0  0  0
  187.5520  177.5960  144.8980 C   0  0  0  0  0  3  0  0  0  0  0  0
  187.4520  177.9250  143.5650 C   0  0  0  0  0  0  0  0  0  0  0  0
  188.4700  177.7470  142.6540 C   0  0  0  0  0  3  0  0  0  0  0  0
  186.6880  178.6600  141.5470 C   0  0  0  0  0  3  0  0  0  0  0  0
  2  4  1  0  0  0  0
  2 17  1  6  0  0  0
  4 13  2  0  0  0  0
  6  2  1  0  0  0  0
  7  3  1  0  0  0  0
  7  8  1  0  0  0  0
  8  6  1  1  0  0  0
  9  1  1  6  0  0  0
  9  8  1  0  0  0  0
  9 16  1  0  0  0  0
 11  7  1  0  0  0  0
 12 15  1  0  0  0  0
 14 10  1  6  0  0  0
 14  1  1  0  0  0  0
 14  7  1  0  0  0  0
 15  4  1  0  0  0  0
 16  5  1  6  0  0  0
 16 15  1  0  0  0  0
 17 24  1  0  0  0  0
 18 20  1  0  0  0  0
 18 26  1  0  0  0  0
 20 23  2  0  0  0  0
 22 21  2  0  0  0  0
 22 19  1  0  0  0  0
 23 22  1  0  0  0  0
 24 28  1  0  0  0  0
 24 27  2  0  0  0  0
 25 21  1  0  0  0  0
 26 25  2  0  0  0  0
 27 26  1  0  0  0  0
 28 18  2  0  0  0  0
M  END
>  <MODEL>
7

>  <REMARK>
 VINA RESULT:      -7.4      4.677      7.296
  Name = 
  2 active torsions:
  status: ('A' for Active; 'I' for Inactive)
    1  A    between atoms: C_2  and  C_3
    2  A    between atoms: C_3  and  C_22
                            x       y       z     vdW  Elec       q    Type
                         _______ _______ _______ _____ _____    ______ ____

>  <TORSDO>
F 2

$$$$
=
 OpenBabel10222416563D

 28 31  0  0  1  0  0  0  0  0999 V2000
  189.5890  176.9520  145.8020 O   0  0  0  0  0  0  0  0  0  0  0  0
  186.6380  177.9430  142.8500 C   0  0  2  0  0  3  0  0  0  0  0  0
  190.3620  177.1920  142.2330 C   0  0  0  0  0  1  0  0  0  0  0  0
  185.7760  178.4180  144.0060 C   0  0  0  0  0  0  0  0  0  0  0  0
  187.1650  177.0950  147.1830 O   0  0  0  0  0  1  0  0  0  0  0  0
  187.8090  177.2330  143.2030 O   0  0  0  0  0  0  0  0  0  0  0  0
  190.1240  177.7730  143.6190 C   0  0  0  0  0  0  0  0  0  0  0  0
  188.6800  178.1020  143.8970 C   0  0  2  0  0  3  0  0  0  0  0  0
  188.5760  177.8470  145.3970 C   0  0  1  0  0  3  0  0  0  0  0  0
  191.7690  176.7510  145.0820 O   0  0  0  0  0  1  0  0  0  0  0  0
  190.9570  179.0390  143.7790 C   0  0  0  0  0  1  0  0  0  0  0  0
  185.4000  178.9960  146.4040 C   0  0  0  0  0  1  0  0  0  0  0  0
  184.6790  178.9730  143.7260 O   0  0  0  0  0  0  0  0  0  0  0  0
  190.4260  176.7390  144.6900 C   0  0  1  0  0  3  0  0  0  0  0  0
  186.1510  178.2600  145.3910 N   0  0  0  0  0  0  0  0  0  0  0  0
  187.2000  177.3210  145.8010 C   0  0  2  0  0  3  0  0  0  0  0  0
  186.8890  179.0460  141.8170 C   0  0  0  0  0  2  0  0  0  0  0  0
  185.0840  178.1360  138.7760 C   0  0  0  0  0  0  0  0  0  0  0  0
  184.3650  176.6780  134.5940 N   0  0  0  0  0  1  0  0  0  0  0  0
  183.9340  177.9660  138.0360 C   0  0  0  0  0  3  0  0  0  0  0  0
  186.1530  177.0720  136.1060 N   0  0  0  0  0  0  0  0  0  0  0  0
  184.8130  177.1050  135.8740 C   0  0  0  0  0  0  0  0  0  0  0  0
  183.8680  177.5090  136.7630 N   0  0  0  0  0  0  0  0  0  0  0  0
  186.4280  178.6280  140.4620 C   0  0  0  0  0  0  0  0  0  0  0  0
  186.9120  177.3950  137.1790 C   0  0  0  0  0  2  0  0  0  0  0  0
  186.4460  177.8730  138.3830 C   0  0  0  0  0  0  0  0  0  0  0  0
  187.2610  178.1820  139.4500 C   0  0  0  0  0  3  0  0  0  0  0  0
  185.1000  178.5990  140.0730 C   0  0  0  0  0  2  0  0  0  0  0  0
  2 17  1  1  0  0  0
  2  6  1  0  0  0  0
  2  4  1  0  0  0  0
  3  7  1  0  0  0  0
  4 15  1  0  0  0  0
  7 11  1  0  0  0  0
  7  8  1  0  0  0  0
  7 14  1  0  0  0  0
  8  6  1  6  0  0  0
  8  9  1  0  0  0  0
  9 16  1  0  0  0  0
  9  1  1  6  0  0  0
 13  4  2  0  0  0  0
 14 10  1  1  0  0  0
 14  1  1  0  0  0  0
 15 16  1  0  0  0  0
 15 12  1  0  0  0  0
 16  5  1  1  0  0  0
 18 28  1  0  0  0  0
 19 22  1  0  0  0  0
 20 18  1  0  0  0  0
 21 25  1  0  0  0  0
 22 21  2  0  0  0  0
 22 23  1  0  0  0  0
 23 20  2  0  0  0  0
 24 17  1  0  0  0  0
 25 26  1  0  0  0  0
 26 18  2  0  0  0  0
 26 27  1  0  0  0  0
 27 24  2  0  0  0  0
 28 24  1  0  0  0  0
M  END
>  <MODEL>
8

>  <REMARK>
 VINA RESULT:      -7.4      3.260      4.417
  Name = 
  2 active torsions:
  status: ('A' for Active; 'I' for Inactive)
    1  A    between atoms: C_2  and  C_3
    2  A    between atoms: C_3  and  C_22
                            x       y       z     vdW  Elec       q    Type
                         _______ _______ _______ _____ _____    ______ ____

>  <TORSDO>
F 2

$$$$
=
 OpenBabel10222416563D

 28 31  0  0  1  0  0  0  0  0999 V2000
  186.3570  179.0050  137.5890 O   0  0  0  0  0  0  0  0  0  0  0  0
  187.3300  178.1600  141.6810 C   0  0  2  0  0  3  0  0  0  0  0  0
  189.5630  177.5640  138.6030 C   0  0  0  0  0  1  0  0  0  0  0  0
  185.8460  178.3050  141.9670 C   0  0  0  0  0  0  0  0  0  0  0  0
  184.2110  179.9820  139.0890 O   0  0  0  0  0  1  0  0  0  0  0  0
  187.7530  178.5570  140.3910 O   0  0  0  0  0  0  0  0  0  0  0  0
  188.0850  177.4890  138.2520 C   0  0  0  0  0  0  0  0  0  0  0  0
  187.1720  177.6970  139.4340 C   0  0  2  0  0  3  0  0  0  0  0  0
  185.9670  178.3770  138.7920 C   0  0  1  0  0  3  0  0  0  0  0  0
  187.8740  178.3390  135.9890 O   0  0  0  0  0  1  0  0  0  0  0  0
  187.7870  176.1300  137.6340 C   0  0  0  0  0  1  0  0  0  0  0  0
  183.4650  178.5560  141.2670 C   0  0  0  0  0  1  0  0  0  0  0  0
  185.4490  178.0480  143.1360 O   0  0  0  0  0  0  0  0  0  0  0  0
  187.6930  178.6410  137.3430 C   0  0  1  0  0  3  0  0  0  0  0  0
  184.8850  178.7230  140.9740 N   0  0  0  0  0  0  0  0  0  0  0  0
  185.3000  179.3810  139.7310 C   0  0  2  0  0  3  0  0  0  0  0  0
  187.8750  176.7910  142.1000 C   0  0  0  0  0  2  0  0  0  0  0  0
  190.3830  176.7840  144.7550 C   0  0  0  0  0  0  0  0  0  0  0  0
  192.1640  177.1910  148.8520 N   0  0  0  0  0  1  0  0  0  0  0  0
  191.6580  176.5880  145.2370 C   0  0  0  0  0  3  0  0  0  0  0  0
  190.0840  177.4430  147.7340 N   0  0  0  0  0  0  0  0  0  0  0  0
  191.4040  177.1270  147.6520 C   0  0  0  0  0  0  0  0  0  0  0  0
  192.0570  176.7520  146.5200 N   0  0  0  0  0  0  0  0  0  0  0  0
  188.6740  176.8920  143.3550 C   0  0  0  0  0  0  0  0  0  0  0  0
  189.0870  177.4870  146.8200 C   0  0  0  0  0  3  0  0  0  0  0  0
  189.2060  177.1940  145.4800 C   0  0  0  0  0  0  0  0  0  0  0  0
  188.1570  177.2490  144.5890 C   0  0  0  0  0  3  0  0  0  0  0  0
  190.0240  176.5980  143.4380 C   0  0  0  0  0  3  0  0  0  0  0  0
  2  4  1  0  0  0  0
  2 17  1  6  0  0  0
  4 13  2  0  0  0  0
  6  2  1  0  0  0  0
  7  3  1  0  0  0  0
  7  8  1  0  0  0  0
  8  6  1  1  0  0  0
  9  1  1  6  0  0  0
  9  8  1  0  0  0  0
  9 16  1  0  0  0  0
 11  7  1  0  0  0  0
 14 10  1  6  0  0  0
 14  1  1  0  0  0  0
 14  7  1  0  0  0  0
 15 12  1  0  0  0  0
 15  4  1  0  0  0  0
 16  5  1  6  0  0  0
 16 15  1  0  0  0  0
 17 24  1  0  0  0  0
 18 20  1  0  0  0  0
 18 26  1  0  0  0  0
 20 23  2  0  0  0  0
 22 21  2  0  0  0  0
 22 19  1  0  0  0  0
 23 22  1  0  0  0  0
 24 28  1  0  0  0  0
 24 27  2  0  0  0  0
 25 21  1  0  0  0  0
 26 25  2  0  0  0  0
 27 26  1  0  0  0  0
 28 18  2  0  0  0  0
M  END
>  <MODEL>
9

>  <REMARK>
 VINA RESULT:      -7.4      3.688      8.074
  Name = 
  2 active torsions:
  status: ('A' for Active; 'I' for Inactive)
    1  A    between atoms: C_2  and  C_3
    2  A    between atoms: C_3  and  C_22
                            x       y       z     vdW  Elec       q    Type
                         _______ _______ _______ _____ _____    ______ ____

>  <TORSDO>
F 2

$$$$
