=
 OpenBabel10222420183D

 27 31  0  0  1  0  0  0  0  0999 V2000
  179.9370  178.9450  140.0680 C   0  0  2  0  0  3  0  0  0  0  0  0
  181.4290  176.7320  139.1460 S   0  0  0  0  0  0  0  0  0  0  0  0
  181.7580  178.0520  141.6940 C   0  0  2  0  0  3  0  0  0  0  0  0
  179.7650  179.3610  142.6120 C   0  0  1  0  0  3  0  0  0  0  0  0
  184.8660  178.6410  139.7220 N   0  0  0  0  0  0  0  0  0  0  0  0
  180.7570  179.9440  139.5380 O   0  0  0  0  0  1  0  0  0  0  0  0
  185.3190  178.8760  141.0500 C   0  0  0  0  0  0  0  0  0  0  0  0
  182.9570  178.2610  137.5910 O   0  0  0  0  0  0  0  0  0  0  0  0
  179.1140  179.5180  141.2280 C   0  0  0  0  0  2  0  0  0  0  0  0
  183.1900  178.2570  141.2520 C   0  0  0  0  0  0  0  0  0  0  0  0
  180.7720  177.7450  140.5290 C   0  0  1  0  0  3  0  0  0  0  0  0
  184.2450  178.5840  142.0000 C   0  0  0  0  0  0  0  0  0  0  0  0
  179.2450  178.2390  143.2590 O   0  0  0  0  0  1  0  0  0  0  0  0
  183.6320  178.2790  139.8600 C   0  0  0  0  0  0  0  0  0  0  0  0
  181.2890  179.2600  142.5250 C   0  0  0  0  0  2  0  0  0  0  0  0
  182.7730  177.8510  138.7660 C   0  0  0  0  0  0  0  0  0  0  0  0
  186.5860  179.1270  141.3510 C   0  0  0  0  0  2  0  0  0  0  0  0
  187.0460  177.6690  146.5590 C   0  0  0  0  0  3  0  0  0  0  0  0
  186.5410  177.6580  144.1390 C   0  0  0  0  0  3  0  0  0  0  0  0
  187.4090  177.3570  145.2990 C   0  0  0  0  0  3  0  0  0  0  0  0
  183.7880  179.2360  145.6310 N   0  0  0  0  0  0  0  0  0  0  0  0
  184.9270  178.6260  145.6760 C   0  0  0  0  0  0  0  0  0  0  0  0
  185.3650  178.2360  144.3660 C   0  0  0  0  0  0  0  0  0  0  0  0
  183.4050  179.2860  144.2480 C   0  0  0  0  0  3  0  0  0  0  0  0
  186.0150  179.6010  147.6010 N   0  0  0  0  0  1  0  0  0  0  0  0
  184.3140  178.6910  143.4730 C   0  0  0  0  0  0  0  0  0  0  0  0
  185.7360  178.3540  146.9100 C   0  0  2  0  0  3  0  0  0  0  0  0
  1  6  1  1  0  0  0
  1 11  1  0  0  0  0
  1  9  1  0  0  0  0
  3 15  1  6  0  0  0
  4 13  1  6  0  0  0
  5 14  2  0  0  0  0
  5  7  1  0  0  0  0
  7 17  2  0  0  0  0
  7 12  1  0  0  0  0
  8 16  2  0  0  0  0
  9  4  1  0  0  0  0
 10  3  1  0  0  0  0
 10 12  2  0  0  0  0
 11  2  1  6  0  0  0
 11  3  1  0  0  0  0
 12 26  1  0  0  0  0
 14 10  1  0  0  0  0
 15  4  1  0  0  0  0
 16  2  1  0  0  0  0
 16 14  1  0  0  0  0
 18 27  1  0  0  0  0
 19 23  2  0  0  0  0
 19 20  1  0  0  0  0
 20 18  2  0  0  0  0
 21 22  2  0  0  0  0
 22 27  1  0  0  0  0
 23 22  1  0  0  0  0
 24 21  1  0  0  0  0
 26 24  2  0  0  0  0
 26 23  1  0  0  0  0
 27 25  1  6  0  0  0
M  END
>  <MODEL>
1

>  <REMARK>
 VINA RESULT:      -9.3      0.000      0.000
  Name = 
  1 active torsions:
  status: ('A' for Active; 'I' for Inactive)
    1  A    between atoms: C_18  and  C_26
                            x       y       z     vdW  Elec       q    Type
                         _______ _______ _______ _____ _____    ______ ____

>  <TORSDO>
F 1

$$$$
=
 OpenBabel10222420183D

 27 31  0  0  1  0  0  0  0  0999 V2000
  180.2950  176.7970  139.7300 C   0  0  2  0  0  3  0  0  0  0  0  0
  179.6080  179.3740  140.6550 S   0  0  0  0  0  0  0  0  0  0  0  0
  182.2860  178.3230  140.4090 C   0  0  2  0  0  3  0  0  0  0  0  0
  182.6570  176.4100  138.7570 C   0  0  1  0  0  3  0  0  0  0  0  0
  181.6200  178.8400  144.0390 N   0  0  0  0  0  0  0  0  0  0  0  0
  180.2420  176.1460  140.9640 O   0  0  0  0  0  1  0  0  0  0  0  0
  183.0420  178.8150  144.0090 C   0  0  0  0  0  0  0  0  0  0  0  0
  178.9310  178.4580  143.0620 O   0  0  0  0  0  0  0  0  0  0  0  0
  181.1760  175.9960  138.7640 C   0  0  0  0  0  2  0  0  0  0  0  0
  182.4020  178.6340  141.8850 C   0  0  0  0  0  0  0  0  0  0  0  0
  180.8210  178.2280  139.8920 C   0  0  1  0  0  3  0  0  0  0  0  0
  183.5080  178.7260  142.6250 C   0  0  0  0  0  0  0  0  0  0  0  0
  182.9020  177.2860  137.6980 O   0  0  0  0  0  1  0  0  0  0  0  0
  181.2670  178.7380  142.7990 C   0  0  0  0  0  0  0  0  0  0  0  0
  183.0840  177.0480  140.0790 C   0  0  0  0  0  2  0  0  0  0  0  0
  179.8920  178.8030  142.3270 C   0  0  0  0  0  0  0  0  0  0  0  0
  183.7960  179.0420  145.0770 C   0  0  0  0  0  2  0  0  0  0  0  0
  188.6210  177.1640  143.5610 C   0  0  0  0  0  3  0  0  0  0  0  0
  186.2020  177.4610  143.9800 C   0  0  0  0  0  3  0  0  0  0  0  0
  187.5480  176.9730  144.3550 C   0  0  0  0  0  3  0  0  0  0  0  0
  186.7650  178.9290  140.8460 N   0  0  0  0  0  0  0  0  0  0  0  0
  187.1590  178.3320  141.9240 C   0  0  1  0  0  3  0  0  0  0  0  0
  186.0690  178.1200  142.8330 C   0  0  0  0  0  0  0  0  0  0  0  0
  185.3530  179.1450  140.9910 C   0  0  0  0  0  3  0  0  0  0  0  0
  189.0230  176.9880  141.1770 N   0  0  0  0  0  1  0  0  0  0  0  0
  184.9120  178.6870  142.1640 C   0  0  0  0  0  0  0  0  0  0  0  0
  188.5580  177.8810  142.2240 C   0  0  0  0  0  0  0  0  0  0  0  0
  1 11  1  0  0  0  0
  1  6  1  1  0  0  0
  2 16  1  0  0  0  0
  3 15  1  1  0  0  0
  3 10  1  0  0  0  0
  4 13  1  6  0  0  0
  4  9  1  0  0  0  0
  4 15  1  0  0  0  0
  7  5  1  0  0  0  0
  7 17  2  0  0  0  0
  9  1  1  0  0  0  0
 10 12  2  0  0  0  0
 10 14  1  0  0  0  0
 11  3  1  0  0  0  0
 11  2  1  1  0  0  0
 12  7  1  0  0  0  0
 14  5  2  0  0  0  0
 16 14  1  0  0  0  0
 16  8  2  0  0  0  0
 18 20  1  0  0  0  0
 19 20  2  0  0  0  0
 21 24  2  0  0  0  0
 22 21  1  6  0  0  0
 22 27  1  0  0  0  0
 22 23  1  0  0  0  0
 23 19  1  0  0  0  0
 24 26  1  0  0  0  0
 25 27  1  0  0  0  0
 26 12  1  0  0  0  0
 26 23  2  0  0  0  0
 27 18  2  0  0  0  0
M  END
>  <MODEL>
2

>  <REMARK>
 VINA RESULT:      -9.2      1.981      4.176
  Name = 
  1 active torsions:
  status: ('A' for Active; 'I' for Inactive)
    1  A    between atoms: C_18  and  C_26
                            x       y       z     vdW  Elec       q    Type
                         _______ _______ _______ _____ _____    ______ ____

>  <TORSDO>
F 1

$$$$
=
 OpenBabel10222420183D

 27 31  0  0  1  0  0  0  0  0999 V2000
  189.5910  177.4220  144.8700 C   0  0  2  0  0  3  0  0  0  0  0  0
  187.3430  176.3630  143.5320 S   0  0  0  0  0  0  0  0  0  0  0  0
  190.0270  176.5020  142.4780 C   0  0  2  0  0  3  0  0  0  0  0  0
  191.9490  176.6410  144.1570 C   0  0  1  0  0  3  0  0  0  0  0  0
  187.9010  178.7630  140.4150 N   0  0  0  0  0  0  0  0  0  0  0  0
  189.4440  178.7440  144.4440 O   0  0  0  0  0  1  0  0  0  0  0  0
  189.0020  178.5310  139.5460 C   0  0  0  0  0  0  0  0  0  0  0  0
  186.4320  178.7840  142.8990 O   0  0  0  0  0  0  0  0  0  0  0  0
  191.0480  177.1750  145.2830 C   0  0  0  0  0  2  0  0  0  0  0  0
  189.4010  177.2880  141.3480 C   0  0  0  0  0  0  0  0  0  0  0  0
  189.1600  176.4450  143.7710 C   0  0  1  0  0  3  0  0  0  0  0  0
  189.9150  177.5600  140.1480 C   0  0  0  0  0  0  0  0  0  0  0  0
  192.0550  175.2530  144.2480 O   0  0  0  0  0  1  0  0  0  0  0  0
  188.1470  178.0310  141.4530 C   0  0  2  0  0  3  0  0  0  0  0  0
  191.4400  177.0420  142.7720 C   0  0  0  0  0  2  0  0  0  0  0  0
  187.2460  177.8780  142.5850 C   0  0  0  0  0  0  0  0  0  0  0  0
  189.0560  178.9910  138.3020 C   0  0  0  0  0  1  0  0  0  0  0  0
  192.3120  174.1730  136.6480 C   0  0  0  0  0  3  0  0  0  0  0  0
  190.4690  175.2720  137.8770 C   0  0  0  0  0  3  0  0  0  0  0  0
  190.9910  174.3080  136.8820 C   0  0  0  0  0  3  0  0  0  0  0  0
  193.3910  176.7950  139.0750 N   0  0  0  0  0  0  0  0  0  0  0  0
  192.7590  175.9360  138.3440 C   0  0  0  0  0  0  0  0  0  0  0  0
  191.3420  176.0030  138.5620 C   0  0  0  0  0  0  0  0  0  0  0  0
  192.3950  177.4980  139.8340 C   0  0  0  0  0  3  0  0  0  0  0  0
  194.1580  175.7220  136.3850 N   0  0  0  0  0  1  0  0  0  0  0  0
  191.1710  177.0420  139.5620 C   0  0  0  0  0  0  0  0  0  0  0  0
  193.3790  174.9830  137.3630 C   0  0  2  0  0  3  0  0  0  0  0  0
  1  6  1  6  0  0  0
  1  9  1  0  0  0  0
  3 15  1  1  0  0  0
  3 11  1  0  0  0  0
  4 13  1  6  0  0  0
  4  9  1  0  0  0  0
  7 12  1  0  0  0  0
  7  5  2  0  0  0  0
 10 14  1  0  0  0  0
 10  3  1  0  0  0  0
 11  2  1  6  0  0  0
 11  1  1  0  0  0  0
 12 10  2  0  0  0  0
 14  5  1  6  0  0  0
 14 16  1  0  0  0  0
 15  4  1  0  0  0  0
 16  8  2  0  0  0  0
 16  2  1  0  0  0  0
 17  7  1  0  0  0  0
 18 20  2  0  0  0  0
 18 27  1  0  0  0  0
 19 23  2  0  0  0  0
 20 19  1  0  0  0  0
 21 24  1  0  0  0  0
 22 23  1  0  0  0  0
 22 21  2  0  0  0  0
 23 26  1  0  0  0  0
 26 24  2  0  0  0  0
 26 12  1  0  0  0  0
 27 25  1  6  0  0  0
 27 22  1  0  0  0  0
M  END
>  <MODEL>
3

>  <REMARK>
 VINA RESULT:      -9.2      6.335      9.455
  Name = 
  1 active torsions:
  status: ('A' for Active; 'I' for Inactive)
    1  A    between atoms: C_18  and  C_26
                            x       y       z     vdW  Elec       q    Type
                         _______ _______ _______ _____ _____    ______ ____

>  <TORSDO>
F 1

$$$$
=
 OpenBabel10222420183D

 27 31  0  0  1  0  0  0  0  0999 V2000
  188.8500  177.4730  136.4400 C   0  0  2  0  0  3  0  0  0  0  0  0
  190.1690  175.2400  137.5550 S   0  0  0  0  0  0  0  0  0  0  0  0
  188.2370  176.9100  138.9020 C   0  0  2  0  0  3  0  0  0  0  0  0
  186.5940  178.2220  137.4510 C   0  0  1  0  0  3  0  0  0  0  0  0
  191.5140  177.3930  140.6110 N   0  0  0  0  0  0  0  0  0  0  0  0
  189.8020  178.4330  136.7890 O   0  0  0  0  0  1  0  0  0  0  0  0
  190.6020  177.8320  141.6100 C   0  0  0  0  0  0  0  0  0  0  0  0
  192.4050  176.6220  137.9760 O   0  0  0  0  0  0  0  0  0  0  0  0
  187.4960  178.1530  136.2070 C   0  0  0  0  0  2  0  0  0  0  0  0
  189.3350  177.1320  139.9190 C   0  0  0  0  0  0  0  0  0  0  0  0
  188.7430  176.3940  137.5230 C   0  0  1  0  0  3  0  0  0  0  0  0
  189.2280  177.6140  141.1580 C   0  0  0  0  0  0  0  0  0  0  0  0
  185.6740  177.1720  137.4310 O   0  0  0  0  0  1  0  0  0  0  0  0
  190.7620  176.9870  139.6400 C   0  0  0  0  0  0  0  0  0  0  0  0
  187.3990  178.1930  138.7500 C   0  0  0  0  0  2  0  0  0  0  0  0
  191.2560  176.3670  138.4200 C   0  0  0  0  0  0  0  0  0  0  0  0
  190.9780  178.1910  142.8310 C   0  0  0  0  0  2  0  0  0  0  0  0
  186.5070  177.4110  145.8510 C   0  0  0  0  0  3  0  0  0  0  0  0
  188.3700  177.0530  144.2640 C   0  0  0  0  0  3  0  0  0  0  0  0
  187.7450  176.9380  145.6010 C   0  0  0  0  0  3  0  0  0  0  0  0
  185.9190  178.7480  142.4160 N   0  0  0  0  0  0  0  0  0  0  0  0
  186.3610  178.1810  143.4900 C   0  0  1  0  0  3  0  0  0  0  0  0
  187.6690  177.6260  143.2900 C   0  0  0  0  0  0  0  0  0  0  0  0
  186.9440  178.5970  141.4220 C   0  0  0  0  0  3  0  0  0  0  0  0
  185.3140  179.4400  145.2680 N   0  0  0  0  0  1  0  0  0  0  0  0
  187.9900  177.9240  141.9050 C   0  0  0  0  0  0  0  0  0  0  0  0
  185.6460  178.1020  144.8080 C   0  0  0  0  0  0  0  0  0  0  0  0
  1  6  1  1  0  0  0
  1 11  1  0  0  0  0
  2 16  1  0  0  0  0
  3 15  1  6  0  0  0
  3 10  1  0  0  0  0
  4 13  1  1  0  0  0
  4 15  1  0  0  0  0
  5  7  1  0  0  0  0
  7 17  2  0  0  0  0
  8 16  2  0  0  0  0
  9  1  1  0  0  0  0
  9  4  1  0  0  0  0
 10 12  2  0  0  0  0
 11  2  1  1  0  0  0
 11  3  1  0  0  0  0
 12  7  1  0  0  0  0
 12 26  1  0  0  0  0
 14 10  1  0  0  0  0
 14  5  2  0  0  0  0
 16 14  1  0  0  0  0
 19 20  2  0  0  0  0
 20 18  1  0  0  0  0
 22 21  1  1  0  0  0
 22 27  1  0  0  0  0
 23 22  1  0  0  0  0
 23 19  1  0  0  0  0
 24 26  1  0  0  0  0
 24 21  2  0  0  0  0
 26 23  2  0  0  0  0
 27 25  1  0  0  0  0
 27 18  2  0  0  0  0
M  END
>  <MODEL>
4

>  <REMARK>
 VINA RESULT:      -8.4      4.489      6.556
  Name = 
  1 active torsions:
  status: ('A' for Active; 'I' for Inactive)
    1  A    between atoms: C_18  and  C_26
                            x       y       z     vdW  Elec       q    Type
                         _______ _______ _______ _____ _____    ______ ____

>  <TORSDO>
F 1

$$$$
=
 OpenBabel10222420183D

 27 31  0  0  1  0  0  0  0  0999 V2000
  189.6650  176.3330  137.2050 C   0  0  2  0  0  3  0  0  0  0  0  0
  188.6380  178.9410  136.8630 S   0  0  0  0  0  0  0  0  0  0  0  0
  189.8050  177.8860  139.2850 C   0  0  2  0  0  3  0  0  0  0  0  0
  191.4150  175.9150  139.0590 C   0  0  1  0  0  3  0  0  0  0  0  0
  186.2000  178.5320  139.9730 N   0  0  0  0  0  0  0  0  0  0  0  0
  188.4750  175.7270  137.6130 O   0  0  0  0  0  1  0  0  0  0  0  0
  186.7440  178.5090  141.2870 C   0  0  0  0  0  0  0  0  0  0  0  0
  186.1210  178.1110  137.1190 O   0  0  0  0  0  0  0  0  0  0  0  0
  190.8570  175.4990  137.6880 C   0  0  0  0  0  2  0  0  0  0  0  0
  188.4830  178.2500  139.9230 C   0  0  0  0  0  0  0  0  0  0  0  0
  189.7520  177.7690  137.7330 C   0  0  1  0  0  3  0  0  0  0  0  0
  188.1990  178.3710  141.2210 C   0  0  0  0  0  0  0  0  0  0  0  0
  192.5190  176.7530  138.8900 O   0  0  0  0  0  1  0  0  0  0  0  0
  187.2230  178.3850  139.1960 C   0  0  0  0  0  0  0  0  0  0  0  0
  190.3600  176.6010  139.9270 C   0  0  0  0  0  2  0  0  0  0  0  0
  187.1660  178.4310  137.7430 C   0  0  0  0  0  0  0  0  0  0  0  0
  186.0310  178.7760  142.3740 C   0  0  0  0  0  2  0  0  0  0  0  0
  189.0390  177.1280  146.4370 C   0  0  0  0  0  3  0  0  0  0  0  0
  187.7960  177.3950  144.3160 C   0  0  0  0  0  3  0  0  0  0  0  0
  187.8900  177.0100  145.7420 C   0  0  0  0  0  3  0  0  0  0  0  0
  191.0620  178.4410  143.5900 N   0  0  0  0  0  0  0  0  0  0  0  0
  190.1450  178.0110  144.3930 C   0  0  0  0  0  0  0  0  0  0  0  0
  188.8800  177.8870  143.7250 C   0  0  0  0  0  0  0  0  0  0  0  0
  190.4340  178.6260  142.3110 C   0  0  0  0  0  3  0  0  0  0  0  0
  191.3670  176.6420  145.9660 N   0  0  0  0  0  1  0  0  0  0  0  0
  189.1370  178.3180  142.3630 C   0  0  0  0  0  0  0  0  0  0  0  0
  190.3320  177.6530  145.8380 C   0  0  2  0  0  3  0  0  0  0  0  0
  1  6  1  1  0  0  0
  1  9  1  0  0  0  0
  1 11  1  0  0  0  0
  2 16  1  0  0  0  0
  3 10  1  0  0  0  0
  3 15  1  1  0  0  0
  4 13  1  6  0  0  0
  4 15  1  0  0  0  0
  5  7  1  0  0  0  0
  7 17  2  0  0  0  0
  8 16  2  0  0  0  0
  9  4  1  0  0  0  0
 10 12  2  0  0  0  0
 11  2  1  1  0  0  0
 11  3  1  0  0  0  0
 12  7  1  0  0  0  0
 12 26  1  0  0  0  0
 14 10  1  0  0  0  0
 14  5  2  0  0  0  0
 16 14  1  0  0  0  0
 19 20  1  0  0  0  0
 20 18  2  0  0  0  0
 21 22  2  0  0  0  0
 22 27  1  0  0  0  0
 23 19  2  0  0  0  0
 23 22  1  0  0  0  0
 24 26  2  0  0  0  0
 24 21  1  0  0  0  0
 26 23  1  0  0  0  0
 27 25  1  6  0  0  0
 27 18  1  0  0  0  0
M  END
>  <MODEL>
5

>  <REMARK>
 VINA RESULT:      -8.3      4.602      7.138
  Name = 
  1 active torsions:
  status: ('A' for Active; 'I' for Inactive)
    1  A    between atoms: C_18  and  C_26
                            x       y       z     vdW  Elec       q    Type
                         _______ _______ _______ _____ _____    ______ ____

>  <TORSDO>
F 1

$$$$
=
 OpenBabel10222420183D

 27 31  0  0  1  0  0  0  0  0999 V2000
  184.1930  179.5130  143.9510 C   0  0  2  0  0  3  0  0  0  0  0  0
  183.4550  177.8820  141.7690 S   0  0  0  0  0  0  0  0  0  0  0  0
  185.9420  177.7320  143.2270 C   0  0  2  0  0  3  0  0  0  0  0  0
  185.9690  178.6420  145.6140 C   0  0  1  0  0  3  0  0  0  0  0  0
  186.7450  178.8470  139.7630 N   0  0  0  0  0  0  0  0  0  0  0  0
  184.7830  180.5400  143.2120 O   0  0  0  0  0  1  0  0  0  0  0  0
  188.0020  178.3460  140.2010 C   0  0  0  0  0  0  0  0  0  0  0  0
  184.0270  179.7880  139.9990 O   0  0  0  0  0  0  0  0  0  0  0  0
  184.7370  179.5340  145.3850 C   0  0  0  0  0  2  0  0  0  0  0  0
  186.5920  177.9600  141.8800 C   0  0  0  0  0  0  0  0  0  0  0  0
  184.4450  178.1530  143.2900 C   0  0  1  0  0  3  0  0  0  0  0  0
  187.8630  177.7520  141.5310 C   0  0  0  0  0  0  0  0  0  0  0  0
  185.5770  177.4160  146.1540 O   0  0  0  0  0  1  0  0  0  0  0  0
  185.9400  178.6110  140.7460 C   0  0  2  0  0  3  0  0  0  0  0  0
  186.7680  178.4210  144.3290 C   0  0  0  0  0  2  0  0  0  0  0  0
  184.5100  178.8780  140.7220 C   0  0  0  0  0  0  0  0  0  0  0  0
  189.0680  178.2680  139.4150 C   0  0  0  0  0  1  0  0  0  0  0  0
  192.1930  178.3500  144.7500 C   0  0  0  0  0  3  0  0  0  0  0  0
  190.3000  179.0200  143.3060 C   0  0  0  0  0  3  0  0  0  0  0  0
  191.4600  179.3240  144.1740 C   0  0  0  0  0  3  0  0  0  0  0  0
  190.1850  175.5160  143.3820 N   0  0  0  0  0  0  0  0  0  0  0  0
  190.7130  176.6560  143.6890 C   0  0  0  0  0  0  0  0  0  0  0  0
  189.9980  177.7440  143.0840 C   0  0  0  0  0  0  0  0  0  0  0  0
  189.0590  175.8010  142.5370 C   0  0  0  0  0  3  0  0  0  0  0  0
  191.6660  176.2680  145.8750 N   0  0  0  0  0  1  0  0  0  0  0  0
  188.9290  177.1120  142.3310 C   0  0  0  0  0  0  0  0  0  0  0  0
  191.9060  176.8690  144.5740 C   0  0  2  0  0  3  0  0  0  0  0  0
  1  6  1  6  0  0  0
  1  9  1  0  0  0  0
  3 11  1  0  0  0  0
  3 15  1  1  0  0  0
  4 13  1  6  0  0  0
  5  7  2  0  0  0  0
  7 12  1  0  0  0  0
  8 16  2  0  0  0  0
  9  4  1  0  0  0  0
 10  3  1  0  0  0  0
 11  2  1  6  0  0  0
 11  1  1  0  0  0  0
 12 10  2  0  0  0  0
 12 26  1  0  0  0  0
 14  5  1  6  0  0  0
 14 10  1  0  0  0  0
 15  4  1  0  0  0  0
 16 14  1  0  0  0  0
 16  2  1  0  0  0  0
 17  7  1  0  0  0  0
 19 20  1  0  0  0  0
 20 18  2  0  0  0  0
 21 22  2  0  0  0  0
 22 27  1  0  0  0  0
 23 19  2  0  0  0  0
 23 22  1  0  0  0  0
 24 21  1  0  0  0  0
 26 24  2  0  0  0  0
 26 23  1  0  0  0  0
 27 18  1  0  0  0  0
 27 25  1  1  0  0  0
M  END
>  <MODEL>
6

>  <REMARK>
 VINA RESULT:      -8.0      3.637      5.185
  Name = 
  1 active torsions:
  status: ('A' for Active; 'I' for Inactive)
    1  A    between atoms: C_18  and  C_26
                            x       y       z     vdW  Elec       q    Type
                         _______ _______ _______ _____ _____    ______ ____

>  <TORSDO>
F 1

$$$$
=
 OpenBabel10222420183D

 27 31  0  0  1  0  0  0  0  0999 V2000
  188.1670  177.5350  143.8690 C   0  0  2  0  0  3  0  0  0  0  0  0
  190.5850  178.9830  143.7150 S   0  0  0  0  0  0  0  0  0  0  0  0
  188.7710  178.4820  141.5250 C   0  0  2  0  0  3  0  0  0  0  0  0
  186.3340  177.9760  142.1030 C   0  0  1  0  0  3  0  0  0  0  0  0
  191.9410  176.6670  140.7860 N   0  0  0  0  0  0  0  0  0  0  0  0
  188.7010  176.2710  143.6080 O   0  0  0  0  0  1  0  0  0  0  0  0
  191.3580  176.7650  139.4930 C   0  0  0  0  0  0  0  0  0  0  0  0
  192.0510  176.7610  143.6680 O   0  0  0  0  0  0  0  0  0  0  0  0
  186.6700  177.5380  143.5380 C   0  0  0  0  0  2  0  0  0  0  0  0
  189.9690  177.8510  140.8510 C   0  0  0  0  0  0  0  0  0  0  0  0
  188.9070  178.6130  143.0710 C   0  0  1  0  0  3  0  0  0  0  0  0
  190.1300  177.5580  139.5600 C   0  0  0  0  0  0  0  0  0  0  0  0
  185.9820  179.3270  142.0860 O   0  0  0  0  0  1  0  0  0  0  0  0
  191.1250  177.3060  141.5600 C   0  0  2  0  0  3  0  0  0  0  0  0
  187.4910  177.7200  141.1360 C   0  0  0  0  0  2  0  0  0  0  0  0
  191.3510  177.5450  142.9770 C   0  0  0  0  0  0  0  0  0  0  0  0
  191.9680  176.3580  138.3870 C   0  0  0  0  0  1  0  0  0  0  0  0
  186.8210  175.8400  135.6150 C   0  0  0  0  0  3  0  0  0  0  0  0
  188.3900  175.6850  137.5200 C   0  0  0  0  0  3  0  0  0  0  0  0
  187.5110  175.0840  136.4920 C   0  0  0  0  0  3  0  0  0  0  0  0
  187.9960  179.1210  136.9490 N   0  0  0  0  0  0  0  0  0  0  0  0
  187.7760  177.8780  136.6730 C   0  0  0  0  0  0  0  0  0  0  0  0
  188.5040  177.0090  137.5530 C   0  0  0  0  0  0  0  0  0  0  0  0
  188.9050  179.1400  138.0610 C   0  0  0  0  0  2  0  0  0  0  0  0
  185.5290  177.8840  135.7830 N   0  0  0  0  0  1  0  0  0  0  0  0
  189.2350  177.9020  138.4340 C   0  0  0  0  0  0  0  0  0  0  0  0
  186.8700  177.3580  135.5950 C   0  0  0  0  0  0  0  0  0  0  0  0
  1  6  1  6  0  0  0
  3 15  1  1  0  0  0
  3 11  1  0  0  0  0
  4 13  1  1  0  0  0
  4  9  1  0  0  0  0
  7 12  1  0  0  0  0
  7  5  2  0  0  0  0
  9  1  1  0  0  0  0
 10  3  1  0  0  0  0
 10 14  1  0  0  0  0
 11  2  1  6  0  0  0
 11  1  1  0  0  0  0
 12 10  2  0  0  0  0
 14  5  1  6  0  0  0
 14 16  1  0  0  0  0
 15  4  1  0  0  0  0
 16  8  2  0  0  0  0
 16  2  1  0  0  0  0
 17  7  1  0  0  0  0
 18 20  1  0  0  0  0
 19 23  1  0  0  0  0
 20 19  2  0  0  0  0
 21 24  1  0  0  0  0
 22 21  2  0  0  0  0
 22 23  1  0  0  0  0
 23 26  2  0  0  0  0
 24 26  1  0  0  0  0
 26 12  1  0  0  0  0
 27 18  2  0  0  0  0
 27 25  1  0  0  0  0
 27 22  1  0  0  0  0
M  END
>  <MODEL>
7

>  <REMARK>
 VINA RESULT:      -7.7      5.451      8.622
  Name = 
  1 active torsions:
  status: ('A' for Active; 'I' for Inactive)
    1  A    between atoms: C_18  and  C_26
                            x       y       z     vdW  Elec       q    Type
                         _______ _______ _______ _____ _____    ______ ____

>  <TORSDO>
F 1

$$$$
=
 OpenBabel10222420183D

 27 31  0  0  1  0  0  0  0  0999 V2000
  192.0560  177.2790  142.6490 C   0  0  2  0  0  3  0  0  0  0  0  0
  191.5970  175.2630  144.5700 S   0  0  0  0  0  0  0  0  0  0  0  0
  189.5630  176.7140  143.1240 C   0  0  2  0  0  3  0  0  0  0  0  0
  190.2260  177.7670  140.8920 C   0  0  1  0  0  3  0  0  0  0  0  0
  189.2610  177.6540  146.7170 N   0  0  0  0  0  0  0  0  0  0  0  0
  192.0830  178.3610  143.5310 O   0  0  0  0  0  1  0  0  0  0  0  0
  187.9750  178.0020  146.2200 C   0  0  0  0  0  0  0  0  0  0  0  0
  192.0520  176.9270  146.5980 O   0  0  0  0  0  0  0  0  0  0  0  0
  191.7240  177.7770  141.2370 C   0  0  0  0  0  2  0  0  0  0  0  0
  189.0520  177.1010  144.4940 C   0  0  0  0  0  0  0  0  0  0  0  0
  191.0420  176.2270  143.1110 C   0  0  1  0  0  3  0  0  0  0  0  0
  187.8590  177.6010  144.8180 C   0  0  0  0  0  0  0  0  0  0  0  0
  189.9080  176.6100  140.1780 O   0  0  0  0  0  1  0  0  0  0  0  0
  189.8700  177.1290  145.7040 C   0  0  0  0  0  0  0  0  0  0  0  0
  189.3450  177.8770  142.1370 C   0  0  0  0  0  2  0  0  0  0  0  0
  191.2000  176.5420  145.7560 C   0  0  0  0  0  0  0  0  0  0  0  0
  186.9910  178.4400  146.9950 C   0  0  0  0  0  2  0  0  0  0  0  0
  182.6410  179.0200  144.3450 C   0  0  0  0  0  3  0  0  0  0  0  0
  184.8060  178.5840  145.4580 C   0  0  0  0  0  3  0  0  0  0  0  0
  183.3860  179.0030  145.4680 C   0  0  0  0  0  3  0  0  0  0  0  0
  185.3710  177.8780  142.0710 N   0  0  0  0  0  0  0  0  0  0  0  0
  184.6170  178.2230  143.0630 C   0  0  1  0  0  3  0  0  0  0  0  0
  185.3390  178.2000  144.3030 C   0  0  0  0  0  0  0  0  0  0  0  0
  186.6700  177.6040  142.6190 C   0  0  0  0  0  3  0  0  0  0  0  0
  183.0250  179.7420  142.0630 N   0  0  0  0  0  1  0  0  0  0  0  0
  186.6800  177.7740  143.9420 C   0  0  0  0  0  0  0  0  0  0  0  0
  183.1730  178.6240  142.9790 C   0  0  0  0  0  0  0  0  0  0  0  0
  1 11  1  0  0  0  0
  1  6  1  1  0  0  0
  2 16  1  0  0  0  0
  3 15  1  6  0  0  0
  3 10  1  0  0  0  0
  4 13  1  1  0  0  0
  4  9  1  0  0  0  0
  4 15  1  0  0  0  0
  7  5  1  0  0  0  0
  7 17  2  0  0  0  0
  9  1  1  0  0  0  0
 10 12  2  0  0  0  0
 10 14  1  0  0  0  0
 11  3  1  0  0  0  0
 11  2  1  1  0  0  0
 12  7  1  0  0  0  0
 14 16  1  0  0  0  0
 14  5  2  0  0  0  0
 16  8  2  0  0  0  0
 18 20  1  0  0  0  0
 19 20  2  0  0  0  0
 21 24  2  0  0  0  0
 22 21  1  6  0  0  0
 22 23  1  0  0  0  0
 23 19  1  0  0  0  0
 24 26  1  0  0  0  0
 25 27  1  0  0  0  0
 26 23  2  0  0  0  0
 26 12  1  0  0  0  0
 27 22  1  0  0  0  0
 27 18  2  0  0  0  0
M  END
>  <MODEL>
8

>  <REMARK>
 VINA RESULT:      -7.6      4.920      8.193
  Name = 
  1 active torsions:
  status: ('A' for Active; 'I' for Inactive)
    1  A    between atoms: C_18  and  C_26
                            x       y       z     vdW  Elec       q    Type
                         _______ _______ _______ _____ _____    ______ ____

>  <TORSDO>
F 1

$$$$
=
 OpenBabel10222420183D

 27 31  0  0  1  0  0  0  0  0999 V2000
  189.8150  174.8550  135.4700 C   0  0  2  0  0  3  0  0  0  0  0  0
  189.4210  177.5720  134.8160 S   0  0  0  0  0  0  0  0  0  0  0  0
  190.3740  176.5630  137.3480 C   0  0  2  0  0  3  0  0  0  0  0  0
  191.4690  174.2550  137.3620 C   0  0  1  0  0  3  0  0  0  0  0  0
  187.0410  178.1180  137.9500 N   0  0  0  0  0  0  0  0  0  0  0  0
  188.5280  174.5980  135.9460 O   0  0  0  0  0  1  0  0  0  0  0  0
  187.6000  178.1210  139.2580 C   0  0  0  0  0  0  0  0  0  0  0  0
  186.7870  177.3960  135.1670 O   0  0  0  0  0  0  0  0  0  0  0  0
  190.7920  173.8240  136.0500 C   0  0  0  0  0  2  0  0  0  0  0  0
  189.1920  177.3010  137.9360 C   0  0  0  0  0  0  0  0  0  0  0  0
  190.2510  176.2810  135.8210 C   0  0  1  0  0  3  0  0  0  0  0  0
  188.9790  177.6360  139.2100 C   0  0  0  0  0  0  0  0  0  0  0  0
  192.7340  174.7820  137.0950 O   0  0  0  0  0  1  0  0  0  0  0  0
  187.9790  177.6440  137.1970 C   0  0  0  0  0  0  0  0  0  0  0  0
  190.6290  175.2670  138.1400 C   0  0  0  0  0  2  0  0  0  0  0  0
  187.8950  177.5310  135.7490 C   0  0  0  0  0  0  0  0  0  0  0  0
  186.9990  178.6740  140.3040 C   0  0  0  0  0  2  0  0  0  0  0  0
  189.6710  176.5460  144.4820 C   0  0  0  0  0  3  0  0  0  0  0  0
  188.4620  176.8940  142.3530 C   0  0  0  0  0  3  0  0  0  0  0  0
  188.5100  176.5720  143.7970 C   0  0  0  0  0  3  0  0  0  0  0  0
  191.8440  177.3830  141.5650 N   0  0  0  0  0  0  0  0  0  0  0  0
  190.8790  177.1410  142.3920 C   0  0  0  0  0  0  0  0  0  0  0  0
  189.6040  177.1810  141.7350 C   0  0  0  0  0  0  0  0  0  0  0  0
  191.2380  177.5970  140.2810 C   0  0  0  0  0  3  0  0  0  0  0  0
  191.8910  175.6820  144.0310 N   0  0  0  0  0  1  0  0  0  0  0  0
  189.9100  177.4960  140.3510 C   0  0  0  0  0  0  0  0  0  0  0  0
  191.0230  176.8330  143.8540 C   0  0  2  0  0  3  0  0  0  0  0  0
  1 11  1  0  0  0  0
  1  6  1  1  0  0  0
  1  9  1  0  0  0  0
  2 16  1  0  0  0  0
  3 10  1  0  0  0  0
  3 15  1  1  0  0  0
  4 13  1  6  0  0  0
  4 15  1  0  0  0  0
  5  7  1  0  0  0  0
  7 17  2  0  0  0  0
  8 16  2  0  0  0  0
  9  4  1  0  0  0  0
 10 12  2  0  0  0  0
 11  2  1  1  0  0  0
 11  3  1  0  0  0  0
 12  7  1  0  0  0  0
 12 26  1  0  0  0  0
 14 10  1  0  0  0  0
 14  5  2  0  0  0  0
 16 14  1  0  0  0  0
 19 20  1  0  0  0  0
 20 18  2  0  0  0  0
 21 22  2  0  0  0  0
 22 27  1  0  0  0  0
 23 19  2  0  0  0  0
 23 22  1  0  0  0  0
 24 26  2  0  0  0  0
 24 21  1  0  0  0  0
 26 23  1  0  0  0  0
 27 25  1  6  0  0  0
 27 18  1  0  0  0  0
M  END
>  <MODEL>
9

>  <REMARK>
 VINA RESULT:      -7.6      5.842      8.299
  Name = 
  1 active torsions:
  status: ('A' for Active; 'I' for Inactive)
    1  A    between atoms: C_18  and  C_26
                            x       y       z     vdW  Elec       q    Type
                         _______ _______ _______ _____ _____    ______ ____

>  <TORSDO>
F 1

$$$$
