=
 OpenBabel10222416543D

 28 29  0  0  1  0  0  0  0  0999 V2000
  190.5700  178.4220  144.0670 C   0  0  1  0  0  3  0  0  0  0  0  0
  189.1010  178.2740  144.3650 C   0  0  0  0  0  3  0  0  0  0  0  0
  190.9610  176.7030  145.8500 C   0  0  2  0  0  3  0  0  0  0  0  0
  191.4570  178.0130  145.2460 C   0  0  0  0  0  2  0  0  0  0  0  0
  189.5390  176.8820  146.3760 C   0  0  0  0  0  2  0  0  0  0  0  0
  188.6210  177.5210  145.3680 C   0  0  0  0  0  0  0  0  0  0  0  0
  192.5010  175.1780  146.8320 O   0  0  0  0  0  0  0  0  0  0  0  0
  192.0510  177.0480  148.0770 O   0  0  0  0  0  1  0  0  0  0  0  0
  191.8710  176.2620  146.9450 C   0  0  0  0  0  0  0  0  0  0  0  0
  192.0880  177.6910  142.4000 O   0  0  0  0  0  0  0  0  0  0  0  0
  190.9410  177.6700  142.8230 C   0  0  0  0  0  0  0  0  0  0  0  0
  190.1130  175.5230  142.2430 O   0  0  0  0  0  1  0  0  0  0  0  0
  189.8850  176.8930  142.1010 C   0  0  2  0  0  3  0  0  0  0  0  0
  188.7530  179.0750  137.8900 N   0  0  0  0  0  1  0  0  0  0  0  0
  189.3380  178.1880  138.8350 C   0  0  0  0  0  0  0  0  0  0  0  0
  190.1530  177.1760  138.4790 N   0  0  0  0  0  0  0  0  0  0  0  0
  190.4770  176.5800  139.6420 C   0  0  0  0  0  2  0  0  0  0  0  0
  189.8440  177.2680  140.6550 C   0  0  0  0  0  0  0  0  0  0  0  0
  189.1110  178.2810  140.1580 N   0  0  0  0  0  0  0  0  0  0  0  0
  187.2100  177.4110  145.5790 N   0  0  0  0  0  2  0  0  0  0  0  0
  186.2100  177.7640  144.5780 C   0  0  0  0  0  2  0  0  0  0  0  0
  185.3220  178.8980  145.0860 C   0  0  2  0  0  3  0  0  0  0  0  0
  184.7030  178.5460  146.4280 C   0  0  0  0  0  1  0  0  0  0  0  0
  184.2240  179.2580  144.0810 C   0  0  2  0  0  3  0  0  0  0  0  0
  182.1150  179.0440  143.4360 C   0  0  0  0  0  1  0  0  0  0  0  0
  182.9840  178.7570  144.4900 O   0  0  0  0  0  0  0  0  0  0  0  0
  185.3570  179.6540  142.0120 O   0  0  0  0  0  1  0  0  0  0  0  0
  184.5580  178.7330  142.6910 C   0  0  0  0  0  2  0  0  0  0  0  0
  1 11  1  6  0  0  0
  1  2  1  0  0  0  0
  1  4  1  0  0  0  0
  2  6  2  0  0  0  0
  3  5  1  0  0  0  0
  3  9  1  1  0  0  0
  4  3  1  0  0  0  0
  6 20  1  0  0  0  0
  6  5  1  0  0  0  0
  7  9  2  0  0  0  0
  9  8  1  0  0  0  0
 10 11  2  0  0  0  0
 13 12  1  6  0  0  0
 13 11  1  0  0  0  0
 14 15  1  0  0  0  0
 15 19  1  0  0  0  0
 16 15  2  0  0  0  0
 16 17  1  0  0  0  0
 17 18  1  0  0  0  0
 18 13  1  0  0  0  0
 19 18  2  0  0  0  0
 21 22  1  0  0  0  0
 21 20  1  0  0  0  0
 22 23  1  1  0  0  0
 24 28  1  6  0  0  0
 24 26  1  0  0  0  0
 24 22  1  0  0  0  0
 25 26  1  0  0  0  0
 27 28  1  0  0  0  0
M  END
>  <MODEL>
1

>  <REMARK>
 VINA RESULT:      -8.0      0.000      0.000
  Name = 
  10 active torsions:
  status: ('A' for Active; 'I' for Inactive)
    1  A    between atoms: C_1  and  C_13
    2  A    between atoms: C_4  and  C_11
    3  A    between atoms: C_4  and  O_25
    4  A    between atoms: C_4  and  C_28
    5  A    between atoms: C_11  and  C_24
    6  A    between atoms: C_13  and  C_23
    7  A    between atoms: C_14  and  C_26
    8  A    between atoms: N_15  and  C_22
    9  A    between atoms: N_15  and  C_24
   10  A    between atoms: C_17  and  C_23
                            x       y       z     vdW  Elec       q    Type
                         _______ _______ _______ _____ _____    ______ ____

>  <TORSDO>
F 10

$$$$
=
 OpenBabel10222416543D

 28 29  0  0  1  0  0  0  0  0999 V2000
  189.6100  176.7720  142.2010 C   0  0  1  0  0  3  0  0  0  0  0  0
  188.2660  177.2310  142.7040 C   0  0  0  0  0  3  0  0  0  0  0  0
  189.2000  178.2250  140.2000 C   0  0  2  0  0  3  0  0  0  0  0  0
  189.7420  176.8830  140.6800 C   0  0  0  0  0  2  0  0  0  0  0  0
  187.7180  178.3400  140.5490 C   0  0  0  0  0  2  0  0  0  0  0  0
  187.4310  178.0020  141.9870 C   0  0  0  0  0  0  0  0  0  0  0  0
  190.0050  177.4650  138.0940 O   0  0  0  0  0  1  0  0  0  0  0  0
  188.9140  179.4790  138.0520 O   0  0  0  0  0  0  0  0  0  0  0  0
  189.4040  178.3680  138.7300 C   0  0  0  0  0  0  0  0  0  0  0  0
  191.8790  177.3720  142.5330 O   0  0  0  0  0  0  0  0  0  0  0  0
  190.7180  177.5050  142.8970 C   0  0  0  0  0  0  0  0  0  0  0  0
  191.1680  179.5590  143.9960 O   0  0  0  0  0  1  0  0  0  0  0  0
  190.3870  178.4030  144.0470 C   0  0  2  0  0  3  0  0  0  0  0  0
  192.4070  175.9710  147.7590 N   0  0  0  0  0  1  0  0  0  0  0  0
  191.4470  176.6230  146.9370 C   0  0  0  0  0  0  0  0  0  0  0  0
  190.1360  176.6720  147.2430 N   0  0  0  0  0  0  0  0  0  0  0  0
  189.5790  177.3550  146.2250 C   0  0  0  0  0  2  0  0  0  0  0  0
  190.5860  177.6960  145.3480 C   0  0  0  0  0  0  0  0  0  0  0  0
  191.7720  177.2290  145.7800 N   0  0  0  0  0  0  0  0  0  0  0  0
  186.1780  178.4160  142.5380 N   0  0  0  0  0  2  0  0  0  0  0  0
  185.1050  179.0170  141.7550 C   0  0  0  0  0  2  0  0  0  0  0  0
  183.7700  178.3480  142.0740 C   0  0  2  0  0  3  0  0  0  0  0  0
  182.8710  178.3130  140.8500 C   0  0  0  0  0  1  0  0  0  0  0  0
  183.0480  179.0380  143.2350 C   0  0  2  0  0  3  0  0  0  0  0  0
  184.0170  179.1530  145.2250 C   0  0  0  0  0  1  0  0  0  0  0  0
  183.2210  178.3280  144.4280 O   0  0  0  0  0  0  0  0  0  0  0  0
  180.8090  178.5450  143.9190 O   0  0  0  0  0  1  0  0  0  0  0  0
  181.5620  179.1980  142.9420 C   0  0  0  0  0  2  0  0  0  0  0  0
  1  2  1  0  0  0  0
  1 11  1  1  0  0  0
  3  9  1  6  0  0  0
  3  5  1  0  0  0  0
  3  4  1  0  0  0  0
  4  1  1  0  0  0  0
  5  6  1  0  0  0  0
  6 20  1  0  0  0  0
  6  2  2  0  0  0  0
  7  9  1  0  0  0  0
  8  9  2  0  0  0  0
 10 11  2  0  0  0  0
 11 13  1  0  0  0  0
 13 12  1  1  0  0  0
 13 18  1  0  0  0  0
 15 16  2  0  0  0  0
 15 14  1  0  0  0  0
 17 16  1  0  0  0  0
 18 19  2  0  0  0  0
 18 17  1  0  0  0  0
 19 15  1  0  0  0  0
 21 22  1  0  0  0  0
 21 20  1  0  0  0  0
 22 23  1  6  0  0  0
 22 24  1  0  0  0  0
 24 28  1  6  0  0  0
 24 26  1  0  0  0  0
 26 25  1  0  0  0  0
 28 27  1  0  0  0  0
M  END
>  <MODEL>
2

>  <REMARK>
 VINA RESULT:      -7.2      2.517      5.749
  Name = 
  10 active torsions:
  status: ('A' for Active; 'I' for Inactive)
    1  A    between atoms: C_1  and  C_13
    2  A    between atoms: C_4  and  C_11
    3  A    between atoms: C_4  and  O_25
    4  A    between atoms: C_4  and  C_28
    5  A    between atoms: C_11  and  C_24
    6  A    between atoms: C_13  and  C_23
    7  A    between atoms: C_14  and  C_26
    8  A    between atoms: N_15  and  C_22
    9  A    between atoms: N_15  and  C_24
   10  A    between atoms: C_17  and  C_23
                            x       y       z     vdW  Elec       q    Type
                         _______ _______ _______ _____ _____    ______ ____

>  <TORSDO>
F 10

$$$$
=
 OpenBabel10222416543D

 28 29  0  0  1  0  0  0  0  0999 V2000
  189.3360  177.8850  143.5370 C   0  0  1  0  0  3  0  0  0  0  0  0
  187.8330  177.9880  143.5460 C   0  0  0  0  0  3  0  0  0  0  0  0
  189.1580  177.1070  145.9140 C   0  0  2  0  0  3  0  0  0  0  0  0
  189.9440  177.9770  144.9390 C   0  0  0  0  0  2  0  0  0  0  0  0
  187.7150  177.6000  145.9980 C   0  0  0  0  0  2  0  0  0  0  0  0
  187.0850  177.7900  144.6450 C   0  0  0  0  0  0  0  0  0  0  0  0
  190.8940  176.5390  147.4390 O   0  0  0  0  0  0  0  0  0  0  0  0
  189.2090  177.8220  148.3120 O   0  0  0  0  0  1  0  0  0  0  0  0
  189.7980  177.1310  147.2600 C   0  0  0  0  0  0  0  0  0  0  0  0
  189.2760  175.5560  143.1030 O   0  0  0  0  0  0  0  0  0  0  0  0
  189.7810  176.6370  142.8330 C   0  0  0  0  0  0  0  0  0  0  0  0
  191.6500  177.8540  142.0230 O   0  0  0  0  0  1  0  0  0  0  0  0
  190.8540  176.7300  141.7950 C   0  0  2  0  0  3  0  0  0  0  0  0
  190.0460  175.9770  137.0450 N   0  0  0  0  0  1  0  0  0  0  0  0
  189.9280  176.4790  138.3700 C   0  0  0  0  0  0  0  0  0  0  0  0
  189.0380  177.4300  138.7150 N   0  0  0  0  0  0  0  0  0  0  0  0
  189.2510  177.6290  140.0290 C   0  0  0  0  0  2  0  0  0  0  0  0
  190.2630  176.7790  140.4230 C   0  0  0  0  0  0  0  0  0  0  0  0
  190.7080  176.0540  139.3810 N   0  0  0  0  0  0  0  0  0  0  0  0
  185.6590  177.8850  144.5740 N   0  0  0  0  0  2  0  0  0  0  0  0
  184.9130  179.1130  144.8230 C   0  0  0  0  0  2  0  0  0  0  0  0
  183.8870  179.3490  143.7160 C   0  0  2  0  0  3  0  0  0  0  0  0
  182.5410  178.7500  144.0840 C   0  0  0  0  0  1  0  0  0  0  0  0
  184.3590  178.7890  142.3710 C   0  0  2  0  0  3  0  0  0  0  0  0
  185.8180  178.8990  140.7060 C   0  0  0  0  0  1  0  0  0  0  0  0
  185.3100  179.6290  141.7820 O   0  0  0  0  0  0  0  0  0  0  0  0
  183.2090  177.2900  140.9040 O   0  0  0  0  0  1  0  0  0  0  0  0
  183.1890  178.5880  141.4180 C   0  0  0  0  0  2  0  0  0  0  0  0
  1 11  1  1  0  0  0
  1  2  1  0  0  0  0
  1  4  1  0  0  0  0
  2  6  2  0  0  0  0
  3  5  1  0  0  0  0
  3  9  1  1  0  0  0
  4  3  1  0  0  0  0
  6  5  1  0  0  0  0
  9  7  2  0  0  0  0
  9  8  1  0  0  0  0
 11 10  2  0  0  0  0
 13 12  1  1  0  0  0
 13 11  1  0  0  0  0
 14 15  1  0  0  0  0
 15 16  2  0  0  0  0
 15 19  1  0  0  0  0
 16 17  1  0  0  0  0
 17 18  1  0  0  0  0
 18 13  1  0  0  0  0
 19 18  2  0  0  0  0
 20  6  1  0  0  0  0
 20 21  1  0  0  0  0
 22 23  1  1  0  0  0
 22 21  1  0  0  0  0
 24 28  1  6  0  0  0
 24 22  1  0  0  0  0
 25 26  1  0  0  0  0
 26 24  1  0  0  0  0
 27 28  1  0  0  0  0
M  END
>  <MODEL>
3

>  <REMARK>
 VINA RESULT:      -7.2      1.444      2.410
  Name = 
  10 active torsions:
  status: ('A' for Active; 'I' for Inactive)
    1  A    between atoms: C_1  and  C_13
    2  A    between atoms: C_4  and  C_11
    3  A    between atoms: C_4  and  O_25
    4  A    between atoms: C_4  and  C_28
    5  A    between atoms: C_11  and  C_24
    6  A    between atoms: C_13  and  C_23
    7  A    between atoms: C_14  and  C_26
    8  A    between atoms: N_15  and  C_22
    9  A    between atoms: N_15  and  C_24
   10  A    between atoms: C_17  and  C_23
                            x       y       z     vdW  Elec       q    Type
                         _______ _______ _______ _____ _____    ______ ____

>  <TORSDO>
F 10

$$$$
=
 OpenBabel10222416543D

 28 29  0  0  1  0  0  0  0  0999 V2000
  189.5590  176.7180  142.2290 C   0  0  1  0  0  3  0  0  0  0  0  0
  188.2350  177.2030  142.7600 C   0  0  0  0  0  3  0  0  0  0  0  0
  189.1520  178.2080  140.2530 C   0  0  2  0  0  3  0  0  0  0  0  0
  189.6680  176.8460  140.7070 C   0  0  0  0  0  2  0  0  0  0  0  0
  187.6790  178.3540  140.6290 C   0  0  0  0  0  2  0  0  0  0  0  0
  187.4080  178.0030  142.0670 C   0  0  0  0  0  0  0  0  0  0  0  0
  188.9500  179.4210  138.2160 O   0  0  0  0  0  1  0  0  0  0  0  0
  189.9490  177.3670  138.0340 O   0  0  0  0  0  0  0  0  0  0  0  0
  189.3350  178.3650  138.7820 C   0  0  0  0  0  0  0  0  0  0  0  0
  191.8480  177.2430  142.5420 O   0  0  0  0  0  0  0  0  0  0  0  0
  190.6960  177.4140  142.9150 C   0  0  0  0  0  0  0  0  0  0  0  0
  191.1980  179.4690  143.9920 O   0  0  0  0  0  1  0  0  0  0  0  0
  190.4030  178.3230  144.0680 C   0  0  2  0  0  3  0  0  0  0  0  0
  192.4980  175.9490  147.7760 N   0  0  0  0  0  1  0  0  0  0  0  0
  191.5190  176.5720  146.9550 C   0  0  0  0  0  0  0  0  0  0  0  0
  190.2070  176.5800  147.2610 N   0  0  0  0  0  0  0  0  0  0  0  0
  189.6280  177.2470  146.2450 C   0  0  0  0  0  2  0  0  0  0  0  0
  190.6250  177.6200  145.3680 C   0  0  0  0  0  0  0  0  0  0  0  0
  191.8240  177.1900  145.7990 N   0  0  0  0  0  0  0  0  0  0  0  0
  186.1740  178.4410  142.6440 N   0  0  0  0  0  2  0  0  0  0  0  0
  185.0310  178.9040  141.8650 C   0  0  0  0  0  2  0  0  0  0  0  0
  183.8390  179.1830  142.7780 C   0  0  2  0  0  3  0  0  0  0  0  0
  184.0930  178.6580  144.1810 C   0  0  0  0  0  1  0  0  0  0  0  0
  182.5430  178.5880  142.2220 C   0  0  2  0  0  3  0  0  0  0  0  0
  182.2670  177.6980  140.2110 C   0  0  0  0  0  1  0  0  0  0  0  0
  182.3730  178.9220  140.8750 O   0  0  0  0  0  0  0  0  0  0  0  0
  180.2300  178.2530  142.7320 O   0  0  0  0  0  1  0  0  0  0  0  0
  181.3350  179.0530  143.0250 C   0  0  0  0  0  2  0  0  0  0  0  0
  1  2  1  0  0  0  0
  1 11  1  1  0  0  0
  3  9  1  6  0  0  0
  3  5  1  0  0  0  0
  3  4  1  0  0  0  0
  4  1  1  0  0  0  0
  5  6  1  0  0  0  0
  6 20  1  0  0  0  0
  6  2  2  0  0  0  0
  7  9  1  0  0  0  0
  8  9  2  0  0  0  0
 10 11  2  0  0  0  0
 11 13  1  0  0  0  0
 13 12  1  1  0  0  0
 13 18  1  0  0  0  0
 15 16  2  0  0  0  0
 15 14  1  0  0  0  0
 17 16  1  0  0  0  0
 18 19  2  0  0  0  0
 18 17  1  0  0  0  0
 19 15  1  0  0  0  0
 21 20  1  0  0  0  0
 21 22  1  0  0  0  0
 22 23  1  1  0  0  0
 24 22  1  0  0  0  0
 24 28  1  1  0  0  0
 25 26  1  0  0  0  0
 26 24  1  0  0  0  0
 27 28  1  0  0  0  0
M  END
>  <MODEL>
4

>  <REMARK>
 VINA RESULT:      -6.9      2.627      5.748
  Name = 
  10 active torsions:
  status: ('A' for Active; 'I' for Inactive)
    1  A    between atoms: C_1  and  C_13
    2  A    between atoms: C_4  and  C_11
    3  A    between atoms: C_4  and  O_25
    4  A    between atoms: C_4  and  C_28
    5  A    between atoms: C_11  and  C_24
    6  A    between atoms: C_13  and  C_23
    7  A    between atoms: C_14  and  C_26
    8  A    between atoms: N_15  and  C_22
    9  A    between atoms: N_15  and  C_24
   10  A    between atoms: C_17  and  C_23
                            x       y       z     vdW  Elec       q    Type
                         _______ _______ _______ _____ _____    ______ ____

>  <TORSDO>
F 10

$$$$
=
 OpenBabel10222416543D

 28 29  0  0  1  0  0  0  0  0999 V2000
  189.5810  176.6540  142.5610 C   0  0  1  0  0  3  0  0  0  0  0  0
  188.2410  177.1140  143.0720 C   0  0  0  0  0  3  0  0  0  0  0  0
  189.1560  178.0990  140.5570 C   0  0  2  0  0  3  0  0  0  0  0  0
  189.7010  176.7590  141.0390 C   0  0  0  0  0  2  0  0  0  0  0  0
  187.6760  178.2150  140.9170 C   0  0  0  0  0  2  0  0  0  0  0  0
  187.4000  177.8820  142.3580 C   0  0  0  0  0  0  0  0  0  0  0  0
  189.8520  177.2860  138.4320 O   0  0  0  0  0  1  0  0  0  0  0  0
  188.9530  179.3930  138.4240 O   0  0  0  0  0  0  0  0  0  0  0  0
  189.3480  178.2360  139.0850 C   0  0  0  0  0  0  0  0  0  0  0  0
  190.8340  178.5950  143.0880 O   0  0  0  0  0  0  0  0  0  0  0  0
  190.6940  177.3900  143.2450 C   0  0  0  0  0  0  0  0  0  0  0  0
  191.7050  175.2960  143.7200 O   0  0  0  0  0  1  0  0  0  0  0  0
  191.6370  176.6300  144.1260 C   0  0  2  0  0  3  0  0  0  0  0  0
  189.2090  177.7670  148.1990 N   0  0  0  0  0  1  0  0  0  0  0  0
  190.1870  177.2310  147.3170 C   0  0  0  0  0  0  0  0  0  0  0  0
  191.2750  176.5650  147.7510 N   0  0  0  0  0  0  0  0  0  0  0  0
  191.9400  176.2390  146.6260 C   0  0  0  0  0  2  0  0  0  0  0  0
  191.2150  176.7200  145.5560 C   0  0  0  0  0  0  0  0  0  0  0  0
  190.1090  177.3590  145.9800 N   0  0  0  0  0  0  0  0  0  0  0  0
  186.1510  178.2980  142.9170 N   0  0  0  0  0  2  0  0  0  0  0  0
  185.1600  179.0870  142.1950 C   0  0  0  0  0  2  0  0  0  0  0  0
  183.8240  178.3490  142.1400 C   0  0  2  0  0  3  0  0  0  0  0  0
  183.1020  178.6260  140.8320 C   0  0  0  0  0  1  0  0  0  0  0  0
  182.9230  178.7100  143.3230 C   0  0  2  0  0  3  0  0  0  0  0  0
  180.7430  178.7130  143.7270 C   0  0  0  0  0  1  0  0  0  0  0  0
  181.7130  179.2590  142.8840 O   0  0  0  0  0  0  0  0  0  0  0  0
  183.7070  179.1240  145.5440 O   0  0  0  0  0  1  0  0  0  0  0  0
  183.6170  179.6810  144.2680 C   0  0  0  0  0  2  0  0  0  0  0  0
  1  2  1  0  0  0  0
  1 11  1  1  0  0  0
  3  9  1  6  0  0  0
  3  5  1  0  0  0  0
  3  4  1  0  0  0  0
  4  1  1  0  0  0  0
  5  6  1  0  0  0  0
  6 20  1  0  0  0  0
  6  2  2  0  0  0  0
  7  9  1  0  0  0  0
  8  9  2  0  0  0  0
 10 11  2  0  0  0  0
 11 13  1  0  0  0  0
 13 12  1  6  0  0  0
 13 18  1  0  0  0  0
 15 16  2  0  0  0  0
 15 14  1  0  0  0  0
 17 16  1  0  0  0  0
 18 19  2  0  0  0  0
 18 17  1  0  0  0  0
 19 15  1  0  0  0  0
 21 20  1  0  0  0  0
 22 23  1  6  0  0  0
 22 21  1  0  0  0  0
 22 24  1  0  0  0  0
 24 28  1  1  0  0  0
 26 24  1  0  0  0  0
 26 25  1  0  0  0  0
 28 27  1  0  0  0  0
M  END
>  <MODEL>
5

>  <REMARK>
 VINA RESULT:      -6.8      2.597      5.551
  Name = 
  10 active torsions:
  status: ('A' for Active; 'I' for Inactive)
    1  A    between atoms: C_1  and  C_13
    2  A    between atoms: C_4  and  C_11
    3  A    between atoms: C_4  and  O_25
    4  A    between atoms: C_4  and  C_28
    5  A    between atoms: C_11  and  C_24
    6  A    between atoms: C_13  and  C_23
    7  A    between atoms: C_14  and  C_26
    8  A    between atoms: N_15  and  C_22
    9  A    between atoms: N_15  and  C_24
   10  A    between atoms: C_17  and  C_23
                            x       y       z     vdW  Elec       q    Type
                         _______ _______ _______ _____ _____    ______ ____

>  <TORSDO>
F 10

$$$$
=
 OpenBabel10222416543D

 28 29  0  0  1  0  0  0  0  0999 V2000
  188.9890  176.9920  142.5580 C   0  0  1  0  0  3  0  0  0  0  0  0
  187.6780  177.6440  142.9130 C   0  0  0  0  0  3  0  0  0  0  0  0
  188.8850  178.2770  140.4080 C   0  0  2  0  0  3  0  0  0  0  0  0
  189.2330  176.9380  141.0480 C   0  0  0  0  0  2  0  0  0  0  0  0
  187.4070  178.5890  140.6310 C   0  0  0  0  0  2  0  0  0  0  0  0
  186.9880  178.4280  142.0680 C   0  0  0  0  0  0  0  0  0  0  0  0
  188.9810  179.2720  138.2480 O   0  0  0  0  0  0  0  0  0  0  0  0
  189.7550  177.1190  138.3670 O   0  0  0  0  0  1  0  0  0  0  0  0
  189.2000  178.2510  138.9510 C   0  0  0  0  0  0  0  0  0  0  0  0
  190.2640  178.8780  143.2170 O   0  0  0  0  0  0  0  0  0  0  0  0
  190.1280  177.6630  143.2670 C   0  0  0  0  0  0  0  0  0  0  0  0
  191.1040  175.5190  143.5500 O   0  0  0  0  0  1  0  0  0  0  0  0
  191.1000  176.8260  144.0390 C   0  0  2  0  0  3  0  0  0  0  0  0
  188.8090  177.5310  148.2860 N   0  0  0  0  0  1  0  0  0  0  0  0
  189.7960  177.1640  147.3310 C   0  0  0  0  0  0  0  0  0  0  0  0
  191.0040  176.6790  147.6790 N   0  0  0  0  0  0  0  0  0  0  0  0
  191.6330  176.4720  146.5070 C   0  0  0  0  0  2  0  0  0  0  0  0
  190.7680  176.8370  145.4960 C   0  0  0  0  0  0  0  0  0  0  0  0
  189.6070  177.2880  146.0040 N   0  0  0  0  0  0  0  0  0  0  0  0
  185.7590  179.0300  142.4820 N   0  0  0  0  0  2  0  0  0  0  0  0
  184.5560  178.2760  142.8170 C   0  0  0  0  0  2  0  0  0  0  0  0
  183.5860  179.1430  143.6160 C   0  0  2  0  0  3  0  0  0  0  0  0
  183.6540  178.8130  145.0980 C   0  0  0  0  0  1  0  0  0  0  0  0
  182.1470  179.0030  143.1130 C   0  0  2  0  0  3  0  0  0  0  0  0
  180.0630  178.7180  143.8130 C   0  0  0  0  0  1  0  0  0  0  0  0
  181.3690  178.2670  144.0140 O   0  0  0  0  0  0  0  0  0  0  0  0
  181.5740  179.2310  140.8020 O   0  0  0  0  0  1  0  0  0  0  0  0
  182.1060  178.3450  141.7400 C   0  0  0  0  0  2  0  0  0  0  0  0
  1  2  1  0  0  0  0
  1 11  1  1  0  0  0
  3  9  1  6  0  0  0
  3  5  1  0  0  0  0
  3  4  1  0  0  0  0
  4  1  1  0  0  0  0
  5  6  1  0  0  0  0
  6 20  1  0  0  0  0
  6  2  2  0  0  0  0
  7  9  2  0  0  0  0
  8  9  1  0  0  0  0
 10 11  2  0  0  0  0
 11 13  1  0  0  0  0
 13 12  1  6  0  0  0
 13 18  1  0  0  0  0
 15 16  2  0  0  0  0
 15 14  1  0  0  0  0
 17 16  1  0  0  0  0
 18 19  2  0  0  0  0
 18 17  1  0  0  0  0
 19 15  1  0  0  0  0
 20 21  1  0  0  0  0
 21 22  1  0  0  0  0
 22 23  1  1  0  0  0
 24 28  1  6  0  0  0
 24 22  1  0  0  0  0
 24 26  1  0  0  0  0
 25 26  1  0  0  0  0
 27 28  1  0  0  0  0
M  END
>  <MODEL>
6

>  <REMARK>
 VINA RESULT:      -6.7      2.578      5.543
  Name = 
  10 active torsions:
  status: ('A' for Active; 'I' for Inactive)
    1  A    between atoms: C_1  and  C_13
    2  A    between atoms: C_4  and  C_11
    3  A    between atoms: C_4  and  O_25
    4  A    between atoms: C_4  and  C_28
    5  A    between atoms: C_11  and  C_24
    6  A    between atoms: C_13  and  C_23
    7  A    between atoms: C_14  and  C_26
    8  A    between atoms: N_15  and  C_22
    9  A    between atoms: N_15  and  C_24
   10  A    between atoms: C_17  and  C_23
                            x       y       z     vdW  Elec       q    Type
                         _______ _______ _______ _____ _____    ______ ____

>  <TORSDO>
F 10

$$$$
=
 OpenBabel10222416543D

 28 29  0  0  1  0  0  0  0  0999 V2000
  190.5730  177.8020  142.4840 C   0  0  1  0  0  3  0  0  0  0  0  0
  191.0630  177.0730  141.2600 C   0  0  0  0  0  3  0  0  0  0  0  0
  188.2920  177.7210  141.4470 C   0  0  2  0  0  3  0  0  0  0  0  0
  189.2780  178.5790  142.2310 C   0  0  0  0  0  2  0  0  0  0  0  0
  188.8890  177.3560  140.0900 C   0  0  0  0  0  2  0  0  0  0  0  0
  190.2850  176.8040  140.1980 C   0  0  0  0  0  0  0  0  0  0  0  0
  186.3450  178.8030  142.2840 O   0  0  0  0  0  1  0  0  0  0  0  0
  186.5290  178.7560  140.0010 O   0  0  0  0  0  0  0  0  0  0  0  0
  187.0020  178.4470  141.2720 C   0  0  0  0  0  0  0  0  0  0  0  0
  190.0420  175.7110  143.4640 O   0  0  0  0  0  0  0  0  0  0  0  0
  190.4220  176.8600  143.6410 C   0  0  0  0  0  0  0  0  0  0  0  0
  191.7470  176.5590  145.5870 O   0  0  0  0  0  1  0  0  0  0  0  0
  190.7420  177.3450  145.0210 C   0  0  2  0  0  3  0  0  0  0  0  0
  186.2310  178.0970  146.7140 N   0  0  0  0  0  1  0  0  0  0  0  0
  187.5870  177.6770  146.6280 C   0  0  0  0  0  0  0  0  0  0  0  0
  188.2300  177.0720  147.6460 N   0  0  0  0  0  0  0  0  0  0  0  0
  189.4720  176.8520  147.1760 C   0  0  0  0  0  2  0  0  0  0  0  0
  189.5210  177.3310  145.8840 C   0  0  0  0  0  0  0  0  0  0  0  0
  188.3390  177.8670  145.5290 N   0  0  0  0  0  0  0  0  0  0  0  0
  190.8140  176.0890  139.0780 N   0  0  0  0  0  2  0  0  0  0  0  0
  191.9920  176.5090  138.3280 C   0  0  0  0  0  2  0  0  0  0  0  0
  192.1890  175.6230  137.1000 C   0  0  2  0  0  3  0  0  0  0  0  0
  191.4260  174.3170  137.2420 C   0  0  0  0  0  1  0  0  0  0  0  0
  193.6690  175.3380  136.8330 C   0  0  2  0  0  3  0  0  0  0  0  0
  195.0660  174.4090  138.2820 C   0  0  0  0  0  1  0  0  0  0  0  0
  194.4470  175.6190  137.9610 O   0  0  0  0  0  0  0  0  0  0  0  0
  194.9020  177.2480  136.0880 O   0  0  0  0  0  1  0  0  0  0  0  0
  194.1790  176.1400  135.6430 C   0  0  0  0  0  2  0  0  0  0  0  0
  1 11  1  1  0  0  0
  2  1  1  0  0  0  0
  3  9  1  6  0  0  0
  3  4  1  0  0  0  0
  4  1  1  0  0  0  0
  5  6  1  0  0  0  0
  5  3  1  0  0  0  0
  6  2  2  0  0  0  0
  8  9  2  0  0  0  0
  9  7  1  0  0  0  0
 10 11  2  0  0  0  0
 11 13  1  0  0  0  0
 13 12  1  1  0  0  0
 13 18  1  0  0  0  0
 15 14  1  0  0  0  0
 15 16  2  0  0  0  0
 17 16  1  0  0  0  0
 18 17  1  0  0  0  0
 19 18  2  0  0  0  0
 19 15  1  0  0  0  0
 20  6  1  0  0  0  0
 21 20  1  0  0  0  0
 22 23  1  1  0  0  0
 22 21  1  0  0  0  0
 24 28  1  6  0  0  0
 24 22  1  0  0  0  0
 24 26  1  0  0  0  0
 26 25  1  0  0  0  0
 28 27  1  0  0  0  0
M  END
>  <MODEL>
7

>  <REMARK>
 VINA RESULT:      -6.6      2.870      8.421
  Name = 
  10 active torsions:
  status: ('A' for Active; 'I' for Inactive)
    1  A    between atoms: C_1  and  C_13
    2  A    between atoms: C_4  and  C_11
    3  A    between atoms: C_4  and  O_25
    4  A    between atoms: C_4  and  C_28
    5  A    between atoms: C_11  and  C_24
    6  A    between atoms: C_13  and  C_23
    7  A    between atoms: C_14  and  C_26
    8  A    between atoms: N_15  and  C_22
    9  A    between atoms: N_15  and  C_24
   10  A    between atoms: C_17  and  C_23
                            x       y       z     vdW  Elec       q    Type
                         _______ _______ _______ _____ _____    ______ ____

>  <TORSDO>
F 10

$$$$
=
 OpenBabel10222416543D

 28 29  0  0  1  0  0  0  0  0999 V2000
  183.6900  177.8410  140.7720 C   0  0  1  0  0  3  0  0  0  0  0  0
  184.6040  178.0320  141.9540 C   0  0  0  0  0  3  0  0  0  0  0  0
  181.9910  179.1700  142.0490 C   0  0  2  0  0  3  0  0  0  0  0  0
  182.2100  177.9640  141.1430 C   0  0  0  0  0  2  0  0  0  0  0  0
  182.7830  178.9960  143.3430 C   0  0  0  0  0  2  0  0  0  0  0  0
  184.2190  178.6200  143.0990 C   0  0  0  0  0  0  0  0  0  0  0  0
  179.7680  178.3470  142.2580 O   0  0  0  0  0  0  0  0  0  0  0  0
  180.0340  180.5720  142.7360 O   0  0  0  0  0  1  0  0  0  0  0  0
  180.5390  179.3380  142.3440 C   0  0  0  0  0  0  0  0  0  0  0  0
  184.0460  179.9910  139.8420 O   0  0  0  0  0  0  0  0  0  0  0  0
  184.0500  178.7820  139.6610 C   0  0  0  0  0  0  0  0  0  0  0  0
  183.7520  177.0120  138.1080 O   0  0  0  0  0  1  0  0  0  0  0  0
  184.4150  178.2220  138.3220 C   0  0  2  0  0  3  0  0  0  0  0  0
  189.2220  178.5990  139.0490 N   0  0  0  0  0  1  0  0  0  0  0  0
  187.9670  178.2150  138.5030 C   0  0  0  0  0  0  0  0  0  0  0  0
  187.8540  177.4290  137.4140 N   0  0  0  0  0  0  0  0  0  0  0  0
  186.5270  177.3130  137.2200 C   0  0  0  0  0  2  0  0  0  0  0  0
  185.8940  178.0330  138.2110 C   0  0  0  0  0  0  0  0  0  0  0  0
  186.7930  178.6180  139.0220 N   0  0  0  0  0  0  0  0  0  0  0  0
  185.1490  178.7860  144.1740 N   0  0  0  0  0  2  0  0  0  0  0  0
  186.2740  177.8900  144.4210 C   0  0  0  0  0  2  0  0  0  0  0  0
  186.4700  177.6790  145.9210 C   0  0  2  0  0  3  0  0  0  0  0  0
  185.6140  178.6440  146.7230 C   0  0  0  0  0  1  0  0  0  0  0  0
  187.9390  177.8170  146.3300 C   0  0  2  0  0  3  0  0  0  0  0  0
  189.7660  177.8450  145.0760 C   0  0  0  0  0  1  0  0  0  0  0  0
  188.7580  177.0000  145.5440 O   0  0  0  0  0  0  0  0  0  0  0  0
  188.7280  178.5550  148.4640 O   0  0  0  0  0  1  0  0  0  0  0  0
  188.1340  177.4790  147.8020 C   0  0  0  0  0  2  0  0  0  0  0  0
  1 11  1  6  0  0  0
  1  4  1  0  0  0  0
  1  2  1  0  0  0  0
  2  6  2  0  0  0  0
  3  9  1  1  0  0  0
  3  5  1  0  0  0  0
  4  3  1  0  0  0  0
  6  5  1  0  0  0  0
  6 20  1  0  0  0  0
  7  9  2  0  0  0  0
  9  8  1  0  0  0  0
 11 10  2  0  0  0  0
 13 12  1  1  0  0  0
 13 11  1  0  0  0  0
 15 19  1  0  0  0  0
 15 14  1  0  0  0  0
 16 15  2  0  0  0  0
 17 16  1  0  0  0  0
 17 18  1  0  0  0  0
 18 13  1  0  0  0  0
 18 19  2  0  0  0  0
 20 21  1  0  0  0  0
 21 22  1  0  0  0  0
 22 24  1  0  0  0  0
 22 23  1  1  0  0  0
 24 28  1  1  0  0  0
 25 26  1  0  0  0  0
 26 24  1  0  0  0  0
 28 27  1  0  0  0  0
M  END
>  <MODEL>
8

>  <REMARK>
 VINA RESULT:      -6.6      2.620      7.174
  Name = 
  10 active torsions:
  status: ('A' for Active; 'I' for Inactive)
    1  A    between atoms: C_1  and  C_13
    2  A    between atoms: C_4  and  C_11
    3  A    between atoms: C_4  and  O_25
    4  A    between atoms: C_4  and  C_28
    5  A    between atoms: C_11  and  C_24
    6  A    between atoms: C_13  and  C_23
    7  A    between atoms: C_14  and  C_26
    8  A    between atoms: N_15  and  C_22
    9  A    between atoms: N_15  and  C_24
   10  A    between atoms: C_17  and  C_23
                            x       y       z     vdW  Elec       q    Type
                         _______ _______ _______ _____ _____    ______ ____

>  <TORSDO>
F 10

$$$$
=
 OpenBabel10222416543D

 28 29  0  0  1  0  0  0  0  0999 V2000
  186.4270  177.1320  144.7320 C   0  0  1  0  0  3  0  0  0  0  0  0
  187.3940  177.3380  143.5960 C   0  0  0  0  0  3  0  0  0  0  0  0
  188.2620  177.9180  146.2500 C   0  0  2  0  0  3  0  0  0  0  0  0
  187.1300  176.9120  146.0740 C   0  0  0  0  0  2  0  0  0  0  0  0
  189.2980  177.7290  145.1440 C   0  0  0  0  0  2  0  0  0  0  0  0
  188.6820  177.6780  143.7720 C   0  0  0  0  0  0  0  0  0  0  0  0
  190.0290  177.2240  147.6840 O   0  0  0  0  0  0  0  0  0  0  0  0
  188.2490  178.2120  148.7360 O   0  0  0  0  0  1  0  0  0  0  0  0
  188.8930  177.7570  147.5910 C   0  0  0  0  0  0  0  0  0  0  0  0
  184.5670  178.2720  145.6580 O   0  0  0  0  0  0  0  0  0  0  0  0
  185.4500  178.2680  144.8120 C   0  0  0  0  0  0  0  0  0  0  0  0
  184.8870  180.5200  144.3180 O   0  0  0  0  0  1  0  0  0  0  0  0
  185.5670  179.3980  143.8380 C   0  0  2  0  0  3  0  0  0  0  0  0
  184.9360  178.9850  139.0210 N   0  0  0  0  0  1  0  0  0  0  0  0
  184.7470  178.8430  140.4230 C   0  0  0  0  0  0  0  0  0  0  0  0
  183.6980  178.1850  140.9550 N   0  0  0  0  0  0  0  0  0  0  0  0
  183.8780  178.2870  142.2860 C   0  0  0  0  0  2  0  0  0  0  0  0
  185.0380  179.0010  142.4980 C   0  0  0  0  0  0  0  0  0  0  0  0
  185.5910  179.3690  141.3280 N   0  0  0  0  0  0  0  0  0  0  0  0
  189.5380  177.8760  142.6430 N   0  0  0  0  0  2  0  0  0  0  0  0
  189.1520  177.5790  141.2680 C   0  0  0  0  0  2  0  0  0  0  0  0
  190.3680  177.1450  140.4530 C   0  0  2  0  0  3  0  0  0  0  0  0
  191.6590  177.4750  141.1820 C   0  0  0  0  0  1  0  0  0  0  0  0
  190.3770  177.7790  139.0590 C   0  0  2  0  0  3  0  0  0  0  0  0
  189.0570  178.3600  137.3750 C   0  0  0  0  0  1  0  0  0  0  0  0
  189.1440  178.3730  138.7690 O   0  0  0  0  0  0  0  0  0  0  0  0
  190.5670  175.4610  138.5000 O   0  0  0  0  0  1  0  0  0  0  0  0
  190.7180  176.7510  137.9890 C   0  0  0  0  0  2  0  0  0  0  0  0
  1 11  1  1  0  0  0
  1  4  1  0  0  0  0
  2  6  2  0  0  0  0
  2  1  1  0  0  0  0
  3  9  1  1  0  0  0
  4  3  1  0  0  0  0
  5  3  1  0  0  0  0
  6  5  1  0  0  0  0
  9  7  2  0  0  0  0
  9  8  1  0  0  0  0
 11 10  2  0  0  0  0
 13 12  1  1  0  0  0
 13 11  1  0  0  0  0
 14 15  1  0  0  0  0
 15 16  2  0  0  0  0
 15 19  1  0  0  0  0
 16 17  1  0  0  0  0
 17 18  1  0  0  0  0
 18 13  1  0  0  0  0
 19 18  2  0  0  0  0
 20  6  1  0  0  0  0
 21 20  1  0  0  0  0
 22 23  1  1  0  0  0
 22 21  1  0  0  0  0
 24 28  1  6  0  0  0
 24 22  1  0  0  0  0
 25 26  1  0  0  0  0
 26 24  1  0  0  0  0
 28 27  1  0  0  0  0
M  END
>  <MODEL>
9

>  <REMARK>
 VINA RESULT:      -6.5      2.423      5.896
  Name = 
  10 active torsions:
  status: ('A' for Active; 'I' for Inactive)
    1  A    between atoms: C_1  and  C_13
    2  A    between atoms: C_4  and  C_11
    3  A    between atoms: C_4  and  O_25
    4  A    between atoms: C_4  and  C_28
    5  A    between atoms: C_11  and  C_24
    6  A    between atoms: C_13  and  C_23
    7  A    between atoms: C_14  and  C_26
    8  A    between atoms: N_15  and  C_22
    9  A    between atoms: N_15  and  C_24
   10  A    between atoms: C_17  and  C_23
                            x       y       z     vdW  Elec       q    Type
                         _______ _______ _______ _____ _____    ______ ____

>  <TORSDO>
F 10

$$$$
