=
 OpenBabel10222417563D

 33 37  0  0  1  0  0  0  0  0999 V2000
  188.0880  177.0450  143.3110 C   0  0  0  0  0  2  0  0  0  0  0  0
  187.3230  178.2840  147.8780 N   0  0  0  0  0  0  0  0  0  0  0  0
  191.0380  177.4050  145.6140 C   0  0  0  0  0  3  0  0  0  0  0  0
  186.4560  177.6750  145.7140 C   0  0  1  0  0  3  0  0  0  0  0  0
  190.1840  177.5840  144.6080 C   0  0  0  0  0  3  0  0  0  0  0  0
  187.9550  177.5380  145.7310 C   0  0  0  0  0  0  0  0  0  0  0  0
  188.4050  177.8530  147.0810 C   0  0  0  0  0  0  0  0  0  0  0  0
  186.0800  178.1050  147.1430 C   0  0  0  0  0  3  0  0  0  0  0  0
  188.7250  177.3370  144.6350 C   0  0  0  0  0  0  0  0  0  0  0  0
  189.5860  177.5690  147.6270 C   0  0  0  0  0  3  0  0  0  0  0  0
  190.6560  176.8000  146.9230 C   0  0  2  0  0  3  0  0  0  0  0  0
  184.4470  180.1930  143.9730 O   0  0  0  0  0  0  0  0  0  0  0  0
  186.0560  178.7310  144.7930 N   0  0  0  0  0  2  0  0  0  0  0  0
  184.7340  179.2690  144.7770 C   0  0  0  0  0  0  0  0  0  0  0  0
  183.7610  178.7780  145.6380 O   0  0  0  0  0  1  0  0  0  0  0  0
  192.4400  175.5520  147.3240 C   0  0  0  0  0  1  0  0  0  0  0  0
  191.7830  176.7090  147.7440 O   0  0  0  0  0  0  0  0  0  0  0  0
  188.7370  177.8650  142.2120 C   0  0  1  0  0  3  0  0  0  0  0  0
  189.0830  177.0590  141.1440 C   0  0  1  0  0  3  0  0  0  0  0  0
  187.8410  177.8780  141.0170 N   0  0  0  0  0  0  0  0  0  0  0  0
  192.2520  177.8780  141.5860 O   0  0  0  0  0  1  0  0  0  0  0  0
  190.2350  177.6300  140.2930 C   0  0  1  0  0  3  0  0  0  0  0  0
  191.6500  177.0820  140.6130 C   0  0  1  0  0  3  0  0  0  0  0  0
  192.5380  177.0330  139.3730 C   0  0  0  0  0  2  0  0  0  0  0  0
  189.8750  177.5560  138.8040 C   0  0  0  0  0  2  0  0  0  0  0  0
  191.9220  176.1470  138.2830 C   0  0  0  0  0  2  0  0  0  0  0  0
  190.3940  176.2610  138.1830 C   0  0  0  0  0  2  0  0  0  0  0  0
  184.5110  179.3540  140.2920 C   0  0  0  0  0  3  0  0  0  0  0  0
  186.6870  178.3220  140.3120 C   0  0  0  0  0  0  0  0  0  0  0  0
  185.4630  178.5900  138.2550 C   0  0  0  0  0  3  0  0  0  0  0  0
  185.6350  178.9280  141.0020 C   0  0  0  0  0  3  0  0  0  0  0  0
  186.6040  178.1500  138.9290 C   0  0  0  0  0  3  0  0  0  0  0  0
  184.4480  179.1790  138.9440 N   0  0  0  0  0  0  0  0  0  0  0  0
  1  9  1  0  0  0  0
  3 11  1  0  0  0  0
  4 13  1  6  0  0  0
  4  6  1  0  0  0  0
  4  8  1  0  0  0  0
  5  9  1  0  0  0  0
  5  3  2  0  0  0  0
  6  7  1  0  0  0  0
  7 10  2  0  0  0  0
  7  2  1  0  0  0  0
  8  2  2  0  0  0  0
  9  6  2  0  0  0  0
 11 10  1  0  0  0  0
 11 17  1  1  0  0  0
 12 14  2  0  0  0  0
 14 13  1  0  0  0  0
 14 15  1  0  0  0  0
 16 17  1  0  0  0  0
 18  1  1  1  0  0  0
 19 20  1  6  0  0  0
 19 18  1  0  0  0  0
 20 18  1  0  0  0  0
 22 25  1  6  0  0  0
 22 23  1  0  0  0  0
 22 19  1  0  0  0  0
 23 21  1  1  0  0  0
 24 23  1  0  0  0  0
 26 24  1  0  0  0  0
 27 26  1  0  0  0  0
 27 25  1  0  0  0  0
 28 31  1  0  0  0  0
 29 31  2  0  0  0  0
 29 20  1  0  0  0  0
 30 32  2  0  0  0  0
 30 33  1  0  0  0  0
 32 29  1  0  0  0  0
 33 28  2  0  0  0  0
M  END
>  <MODEL>
1

>  <REMARK>
 VINA RESULT:      -9.4      0.000      0.000
  Name = 
  6 active torsions:
  status: ('A' for Active; 'I' for Inactive)
    1  A    between atoms: C_4  and  N_13
    2  A    between atoms: C_5  and  N_32
    3  A    between atoms: C_7  and  C_16
    4  A    between atoms: C_7  and  C_24
    5  A    between atoms: C_14  and  C_30
    6  A    between atoms: O_20  and  C_33
                            x       y       z     vdW  Elec       q    Type
                         _______ _______ _______ _____ _____    ______ ____

>  <TORSDO>
F 6

$$$$
=
 OpenBabel10222417563D

 33 37  0  0  1  0  0  0  0  0999 V2000
  185.1520  177.6590  142.2320 C   0  0  0  0  0  2  0  0  0  0  0  0
  181.1770  179.0060  139.9160 N   0  0  0  0  0  0  0  0  0  0  0  0
  182.3490  179.2240  144.1900 C   0  0  0  0  0  3  0  0  0  0  0  0
  183.3340  177.9300  139.8970 C   0  0  1  0  0  3  0  0  0  0  0  0
  183.5370  179.0030  143.6300 C   0  0  0  0  0  3  0  0  0  0  0  0
  182.9550  178.3120  141.3030 C   0  0  0  0  0  0  0  0  0  0  0  0
  181.6180  178.8920  141.2510 C   0  0  0  0  0  0  0  0  0  0  0  0
  182.1280  178.3440  139.0350 C   0  0  0  0  0  2  0  0  0  0  0  0
  183.7940  178.2790  142.3650 C   0  0  0  0  0  0  0  0  0  0  0  0
  180.7790  179.0810  142.2670 C   0  0  0  0  0  2  0  0  0  0  0  0
  181.0720  178.6570  143.6690 C   0  0  2  0  0  3  0  0  0  0  0  0
  186.3140  178.9670  138.0410 O   0  0  0  0  0  1  0  0  0  0  0  0
  184.4970  178.6920  139.4620 N   0  0  0  0  0  2  0  0  0  0  0  0
  185.3310  178.2610  138.3880 C   0  0  0  0  0  0  0  0  0  0  0  0
  185.0720  177.0690  137.7250 O   0  0  0  0  0  0  0  0  0  0  0  0
  178.9660  179.3360  143.6350 C   0  0  0  0  0  1  0  0  0  0  0  0
  180.0170  179.0350  144.5020 O   0  0  0  0  0  0  0  0  0  0  0  0
  186.1680  178.4100  143.0740 C   0  0  1  0  0  3  0  0  0  0  0  0
  186.7240  177.5740  144.0240 C   0  0  1  0  0  3  0  0  0  0  0  0
  187.5300  177.8620  142.8000 N   0  0  0  0  0  0  0  0  0  0  0  0
  185.4840  179.2310  146.5980 O   0  0  0  0  0  1  0  0  0  0  0  0
  187.2670  178.3240  145.2570 C   0  0  1  0  0  3  0  0  0  0  0  0
  186.4230  178.2010  146.5510 C   0  0  1  0  0  3  0  0  0  0  0  0
  187.2890  178.2440  147.8060 C   0  0  0  0  0  2  0  0  0  0  0  0
  188.7500  177.9910  145.4630 C   0  0  0  0  0  2  0  0  0  0  0  0
  188.3230  177.1110  147.8060 C   0  0  0  0  0  2  0  0  0  0  0  0
  188.9150  176.8130  146.4200 C   0  0  0  0  0  2  0  0  0  0  0  0
  191.0510  177.2970  141.7620 C   0  0  0  0  0  3  0  0  0  0  0  0
  188.6910  177.7190  141.9890 C   0  0  0  0  0  0  0  0  0  0  0  0
  189.7460  177.7270  139.8240 C   0  0  0  0  0  3  0  0  0  0  0  0
  189.9240  177.4310  142.5760 C   0  0  0  0  0  3  0  0  0  0  0  0
  188.5970  177.8690  140.6040 C   0  0  0  0  0  3  0  0  0  0  0  0
  190.9400  177.4460  140.4140 N   0  0  0  0  0  0  0  0  0  0  0  0
  1  9  1  0  0  0  0
  2  7  2  0  0  0  0
  4 13  1  6  0  0  0
  4  6  1  0  0  0  0
  5  3  2  0  0  0  0
  6  9  2  0  0  0  0
  7  6  1  0  0  0  0
  7 10  1  0  0  0  0
  8  4  1  0  0  0  0
  8  2  1  0  0  0  0
  9  5  1  0  0  0  0
 10 11  1  0  0  0  0
 11  3  1  0  0  0  0
 11 17  1  1  0  0  0
 12 14  1  0  0  0  0
 14 13  1  0  0  0  0
 15 14  2  0  0  0  0
 16 17  1  0  0  0  0
 18  1  1  6  0  0  0
 18 19  1  0  0  0  0
 19 20  1  6  0  0  0
 19 22  1  0  0  0  0
 20 18  1  0  0  0  0
 22 25  1  1  0  0  0
 22 23  1  0  0  0  0
 23 21  1  1  0  0  0
 23 24  1  0  0  0  0
 24 26  1  0  0  0  0
 25 27  1  0  0  0  0
 27 26  1  0  0  0  0
 28 31  1  0  0  0  0
 29 31  2  0  0  0  0
 29 20  1  0  0  0  0
 30 33  1  0  0  0  0
 30 32  2  0  0  0  0
 32 29  1  0  0  0  0
 33 28  2  0  0  0  0
M  END
>  <MODEL>
2

>  <REMARK>
 VINA RESULT:      -9.1      2.839      7.691
  Name = 
  6 active torsions:
  status: ('A' for Active; 'I' for Inactive)
    1  A    between atoms: C_4  and  N_13
    2  A    between atoms: C_5  and  N_32
    3  A    between atoms: C_7  and  C_16
    4  A    between atoms: C_7  and  C_24
    5  A    between atoms: C_14  and  C_30
    6  A    between atoms: O_20  and  C_33
                            x       y       z     vdW  Elec       q    Type
                         _______ _______ _______ _____ _____    ______ ____

>  <TORSDO>
F 6

$$$$
=
 OpenBabel10222417563D

 33 37  0  0  1  0  0  0  0  0999 V2000
  187.9330  178.2550  140.7720 C   0  0  0  0  0  2  0  0  0  0  0  0
  187.9390  177.5600  136.0290 N   0  0  0  0  0  0  0  0  0  0  0  0
  190.7630  176.3250  139.2210 C   0  0  0  0  0  3  0  0  0  0  0  0
  186.9560  178.5720  137.9830 C   0  0  1  0  0  3  0  0  0  0  0  0
  189.7020  176.6500  139.9570 C   0  0  0  0  0  3  0  0  0  0  0  0
  188.2410  177.8770  138.3470 C   0  0  0  0  0  0  0  0  0  0  0  0
  188.8150  177.3490  137.1150 C   0  0  0  0  0  0  0  0  0  0  0  0
  186.8260  178.3930  136.4600 C   0  0  0  0  0  2  0  0  0  0  0  0
  188.6620  177.6460  139.6130 C   0  0  0  0  0  0  0  0  0  0  0  0
  190.0670  176.9420  136.9150 C   0  0  0  0  0  2  0  0  0  0  0  0
  191.1350  177.0210  137.9560 C   0  0  2  0  0  3  0  0  0  0  0  0
  183.7400  178.0160  139.6410 O   0  0  0  0  0  1  0  0  0  0  0  0
  185.8260  177.9130  138.6250 N   0  0  0  0  0  2  0  0  0  0  0  0
  184.6970  178.6370  139.1110 C   0  0  0  0  0  0  0  0  0  0  0  0
  184.6480  180.0220  139.0090 O   0  0  0  0  0  0  0  0  0  0  0  0
  192.1930  175.1010  137.6470 C   0  0  0  0  0  1  0  0  0  0  0  0
  192.3190  176.4770  137.4520 O   0  0  0  0  0  0  0  0  0  0  0  0
  187.9300  177.3090  141.9590 C   0  0  1  0  0  3  0  0  0  0  0  0
  188.6090  177.8670  143.0250 C   0  0  1  0  0  3  0  0  0  0  0  0
  187.1170  177.9090  143.0590 N   0  0  0  0  0  0  0  0  0  0  0  0
  190.5130  175.1730  142.8690 O   0  0  0  0  0  1  0  0  0  0  0  0
  189.1750  176.8210  144.0070 C   0  0  1  0  0  3  0  0  0  0  0  0
  190.5990  176.2960  143.6900 C   0  0  1  0  0  3  0  0  0  0  0  0
  191.3730  175.9430  144.9560 C   0  0  0  0  0  2  0  0  0  0  0  0
  189.0140  177.3130  145.4500 C   0  0  0  0  0  2  0  0  0  0  0  0
  191.5120  177.1580  145.8810 C   0  0  0  0  0  2  0  0  0  0  0  0
  190.2650  178.0550  145.9140 C   0  0  0  0  0  2  0  0  0  0  0  0
  183.5580  178.8880  143.4760 C   0  0  0  0  0  3  0  0  0  0  0  0
  185.8760  178.2580  143.6620 C   0  0  0  0  0  0  0  0  0  0  0  0
  184.5420  178.6620  145.6260 C   0  0  0  0  0  3  0  0  0  0  0  0
  184.7660  178.5450  142.8640 C   0  0  0  0  0  3  0  0  0  0  0  0
  185.7670  178.3160  145.0530 C   0  0  0  0  0  3  0  0  0  0  0  0
  183.4710  178.9390  144.8330 N   0  0  0  0  0  0  0  0  0  0  0  0
  2  8  1  0  0  0  0
  2  7  2  0  0  0  0
  3  5  2  0  0  0  0
  4  6  1  0  0  0  0
  4 13  1  1  0  0  0
  6  9  2  0  0  0  0
  7  6  1  0  0  0  0
  8  4  1  0  0  0  0
  9  5  1  0  0  0  0
  9  1  1  0  0  0  0
 10  7  1  0  0  0  0
 10 11  1  0  0  0  0
 11 17  1  6  0  0  0
 11  3  1  0  0  0  0
 13 14  1  0  0  0  0
 14 12  1  0  0  0  0
 15 14  2  0  0  0  0
 17 16  1  0  0  0  0
 18  1  1  6  0  0  0
 18 19  1  0  0  0  0
 18 20  1  0  0  0  0
 19 20  1  1  0  0  0
 19 22  1  0  0  0  0
 20 29  1  0  0  0  0
 22 25  1  1  0  0  0
 23 21  1  6  0  0  0
 23 22  1  0  0  0  0
 23 24  1  0  0  0  0
 24 26  1  0  0  0  0
 25 27  1  0  0  0  0
 26 27  1  0  0  0  0
 28 33  1  0  0  0  0
 29 32  2  0  0  0  0
 31 28  2  0  0  0  0
 31 29  1  0  0  0  0
 32 30  1  0  0  0  0
 33 30  2  0  0  0  0
M  END
>  <MODEL>
3

>  <REMARK>
 VINA RESULT:      -9.0      2.399      6.772
  Name = 
  6 active torsions:
  status: ('A' for Active; 'I' for Inactive)
    1  A    between atoms: C_4  and  N_13
    2  A    between atoms: C_5  and  N_32
    3  A    between atoms: C_7  and  C_16
    4  A    between atoms: C_7  and  C_24
    5  A    between atoms: C_14  and  C_30
    6  A    between atoms: O_20  and  C_33
                            x       y       z     vdW  Elec       q    Type
                         _______ _______ _______ _____ _____    ______ ____

>  <TORSDO>
F 6

$$$$
=
 OpenBabel10222417563D

 33 37  0  0  1  0  0  0  0  0999 V2000
  186.9660  177.4890  142.3160 C   0  0  0  0  0  2  0  0  0  0  0  0
  183.4700  179.2840  145.0620 N   0  0  0  0  0  0  0  0  0  0  0  0
  187.6940  178.2360  145.9290 C   0  0  0  0  0  3  0  0  0  0  0  0
  184.2010  178.3740  142.9530 C   0  0  1  0  0  3  0  0  0  0  0  0
  187.7240  178.2570  144.5980 C   0  0  0  0  0  3  0  0  0  0  0  0
  185.3080  178.2870  143.9690 C   0  0  0  0  0  0  0  0  0  0  0  0
  184.7800  178.7880  145.2330 C   0  0  0  0  0  0  0  0  0  0  0  0
  183.0070  178.9730  143.7180 C   0  0  0  0  0  2  0  0  0  0  0  0
  186.5940  177.9700  143.6860 C   0  0  0  0  0  0  0  0  0  0  0  0
  185.2920  178.6140  146.4490 C   0  0  0  0  0  2  0  0  0  0  0  0
  186.5110  177.7940  146.7210 C   0  0  2  0  0  3  0  0  0  0  0  0
  184.5980  179.8510  139.6270 O   0  0  0  0  0  0  0  0  0  0  0  0
  184.5700  179.2890  141.8810 N   0  0  0  0  0  2  0  0  0  0  0  0
  184.2720  179.0180  140.5120 C   0  0  0  0  0  0  0  0  0  0  0  0
  183.6310  177.8410  140.1470 O   0  0  0  0  0  1  0  0  0  0  0  0
  188.1980  178.0090  148.1380 C   0  0  0  0  0  1  0  0  0  0  0  0
  186.8130  177.8450  148.0840 O   0  0  0  0  0  0  0  0  0  0  0  0
  188.4560  177.6510  142.0790 C   0  0  1  0  0  3  0  0  0  0  0  0
  189.0510  176.4200  141.8750 C   0  0  1  0  0  3  0  0  0  0  0  0
  188.7720  177.2590  140.6720 N   0  0  0  0  0  0  0  0  0  0  0  0
  191.8130  177.8710  140.7920 O   0  0  0  0  0  1  0  0  0  0  0  0
  190.5530  176.4010  142.2240 C   0  0  1  0  0  3  0  0  0  0  0  0
  191.2990  177.7520  142.0820 C   0  0  1  0  0  3  0  0  0  0  0  0
  192.4300  177.8910  143.0970 C   0  0  0  0  0  2  0  0  0  0  0  0
  190.7680  175.7260  143.5850 C   0  0  0  0  0  2  0  0  0  0  0  0
  191.9040  177.7900  144.5340 C   0  0  0  0  0  2  0  0  0  0  0  0
  190.7770  176.7600  144.7090 C   0  0  0  0  0  2  0  0  0  0  0  0
  189.0510  178.9970  137.4020 C   0  0  0  0  0  3  0  0  0  0  0  0
  188.7830  177.5010  139.2700 C   0  0  0  0  0  0  0  0  0  0  0  0
  188.5410  176.7110  137.0070 C   0  0  0  0  0  3  0  0  0  0  0  0
  189.0480  178.7820  138.7820 C   0  0  0  0  0  3  0  0  0  0  0  0
  188.5270  176.4550  138.3800 C   0  0  0  0  0  3  0  0  0  0  0  0
  188.8010  177.9670  136.5500 N   0  0  0  0  0  0  0  0  0  0  0  0
  1  9  1  0  0  0  0
  2  7  2  0  0  0  0
  3 11  1  0  0  0  0
  4 13  1  6  0  0  0
  4  8  1  0  0  0  0
  4  6  1  0  0  0  0
  5  3  2  0  0  0  0
  6  7  1  0  0  0  0
  7 10  1  0  0  0  0
  8  2  1  0  0  0  0
  9  6  2  0  0  0  0
  9  5  1  0  0  0  0
 10 11  1  0  0  0  0
 11 17  1  1  0  0  0
 12 14  2  0  0  0  0
 14 13  1  0  0  0  0
 15 14  1  0  0  0  0
 17 16  1  0  0  0  0
 18  1  1  6  0  0  0
 19 20  1  6  0  0  0
 19 18  1  0  0  0  0
 19 22  1  0  0  0  0
 20 18  1  0  0  0  0
 22 25  1  1  0  0  0
 23 21  1  6  0  0  0
 23 22  1  0  0  0  0
 23 24  1  0  0  0  0
 24 26  1  0  0  0  0
 25 27  1  0  0  0  0
 26 27  1  0  0  0  0
 28 31  1  0  0  0  0
 29 20  1  0  0  0  0
 30 32  2  0  0  0  0
 31 29  2  0  0  0  0
 32 29  1  0  0  0  0
 33 30  1  0  0  0  0
 33 28  2  0  0  0  0
M  END
>  <MODEL>
4

>  <REMARK>
 VINA RESULT:      -8.8      2.357      3.971
  Name = 
  6 active torsions:
  status: ('A' for Active; 'I' for Inactive)
    1  A    between atoms: C_4  and  N_13
    2  A    between atoms: C_5  and  N_32
    3  A    between atoms: C_7  and  C_16
    4  A    between atoms: C_7  and  C_24
    5  A    between atoms: C_14  and  C_30
    6  A    between atoms: O_20  and  C_33
                            x       y       z     vdW  Elec       q    Type
                         _______ _______ _______ _____ _____    ______ ____

>  <TORSDO>
F 6

$$$$
=
 OpenBabel10222417563D

 33 37  0  0  1  0  0  0  0  0999 V2000
  186.8440  179.0010  141.5180 C   0  0  0  0  0  2  0  0  0  0  0  0
  182.2260  178.7960  142.7870 N   0  0  0  0  0  0  0  0  0  0  0  0
  184.2480  178.4730  138.8500 C   0  0  0  0  0  3  0  0  0  0  0  0
  184.5330  179.1650  143.3790 C   0  0  1  0  0  3  0  0  0  0  0  0
  185.2860  178.2920  139.6640 C   0  0  0  0  0  3  0  0  0  0  0  0
  184.3990  178.9940  141.8900 C   0  0  0  0  0  0  0  0  0  0  0  0
  182.9790  178.8450  141.5950 C   0  0  0  0  0  0  0  0  0  0  0  0
  183.0940  179.0880  143.9190 C   0  0  0  0  0  3  0  0  0  0  0  0
  185.4370  178.8310  141.0340 C   0  0  0  0  0  0  0  0  0  0  0  0
  182.3810  178.9770  140.4130 C   0  0  0  0  0  3  0  0  0  0  0  0
  183.0990  179.3710  139.1640 C   0  0  2  0  0  3  0  0  0  0  0  0
  186.4900  177.1290  145.7090 O   0  0  0  0  0  0  0  0  0  0  0  0
  185.2990  178.0630  143.9470 N   0  0  0  0  0  2  0  0  0  0  0  0
  185.8520  178.1170  145.2610 C   0  0  0  0  0  0  0  0  0  0  0  0
  185.6950  179.2500  146.0480 O   0  0  0  0  0  1  0  0  0  0  0  0
  182.0470  178.0350  137.7460 C   0  0  0  0  0  1  0  0  0  0  0  0
  182.2030  179.3780  138.0920 O   0  0  0  0  0  0  0  0  0  0  0  0
  187.7910  178.1120  140.7330 C   0  0  1  0  0  3  0  0  0  0  0  0
  188.8120  178.8610  140.1790 C   0  0  1  0  0  3  0  0  0  0  0  0
  189.1180  178.0860  141.4180 N   0  0  0  0  0  0  0  0  0  0  0  0
  190.2700  176.0000  139.4010 O   0  0  0  0  0  1  0  0  0  0  0  0
  189.4390  178.2110  138.9280 C   0  0  1  0  0  3  0  0  0  0  0  0
  189.2250  176.6830  138.7800 C   0  0  1  0  0  3  0  0  0  0  0  0
  189.1370  176.2570  137.3170 C   0  0  0  0  0  2  0  0  0  0  0  0
  189.0530  179.0060  137.6740 C   0  0  0  0  0  2  0  0  0  0  0  0
  187.9830  176.9690  136.5990 C   0  0  0  0  0  2  0  0  0  0  0  0
  187.7920  178.4300  137.0330 C   0  0  0  0  0  2  0  0  0  0  0  0
  191.1770  175.9090  143.6130 C   0  0  0  0  0  3  0  0  0  0  0  0
  189.9900  177.6580  142.4590 C   0  0  0  0  0  0  0  0  0  0  0  0
  191.3660  178.1520  144.3730 C   0  0  0  0  0  3  0  0  0  0  0  0
  190.3220  176.3080  142.5830 C   0  0  0  0  0  3  0  0  0  0  0  0
  190.5130  178.5900  143.3570 C   0  0  0  0  0  3  0  0  0  0  0  0
  191.6780  176.8310  144.4790 N   0  0  0  0  0  0  0  0  0  0  0  0
  2  8  2  0  0  0  0
  3 11  1  0  0  0  0
  3  5  2  0  0  0  0
  4  8  1  0  0  0  0
  4 13  1  1  0  0  0
  5  9  1  0  0  0  0
  6  4  1  0  0  0  0
  7  6  1  0  0  0  0
  7  2  1  0  0  0  0
  9  1  1  0  0  0  0
  9  6  2  0  0  0  0
 10  7  2  0  0  0  0
 11 17  1  6  0  0  0
 11 10  1  0  0  0  0
 13 14  1  0  0  0  0
 14 12  2  0  0  0  0
 14 15  1  0  0  0  0
 16 17  1  0  0  0  0
 18 20  1  0  0  0  0
 18  1  1  1  0  0  0
 19 18  1  0  0  0  0
 19 20  1  1  0  0  0
 20 29  1  0  0  0  0
 22 25  1  6  0  0  0
 22 19  1  0  0  0  0
 23 22  1  0  0  0  0
 23 21  1  6  0  0  0
 24 23  1  0  0  0  0
 26 27  1  0  0  0  0
 26 24  1  0  0  0  0
 27 25  1  0  0  0  0
 28 33  1  0  0  0  0
 29 31  1  0  0  0  0
 29 32  2  0  0  0  0
 30 33  2  0  0  0  0
 31 28  2  0  0  0  0
 32 30  1  0  0  0  0
M  END
>  <MODEL>
5

>  <REMARK>
 VINA RESULT:      -8.6      2.557      6.513
  Name = 
  6 active torsions:
  status: ('A' for Active; 'I' for Inactive)
    1  A    between atoms: C_4  and  N_13
    2  A    between atoms: C_5  and  N_32
    3  A    between atoms: C_7  and  C_16
    4  A    between atoms: C_7  and  C_24
    5  A    between atoms: C_14  and  C_30
    6  A    between atoms: O_20  and  C_33
                            x       y       z     vdW  Elec       q    Type
                         _______ _______ _______ _____ _____    ______ ____

>  <TORSDO>
F 6

$$$$
=
 OpenBabel10222417563D

 33 37  0  0  1  0  0  0  0  0999 V2000
  187.1640  178.1770  141.6320 C   0  0  0  0  0  2  0  0  0  0  0  0
  191.7980  176.9820  141.9070 N   0  0  0  0  0  0  0  0  0  0  0  0
  188.5400  176.9800  144.9200 C   0  0  0  0  0  3  0  0  0  0  0  0
  189.9520  177.8820  140.6460 C   0  0  1  0  0  3  0  0  0  0  0  0
  187.8260  177.0670  143.7990 C   0  0  0  0  0  3  0  0  0  0  0  0
  189.5360  177.6330  142.0710 C   0  0  0  0  0  0  0  0  0  0  0  0
  190.7120  177.1560  142.7900 C   0  0  0  0  0  0  0  0  0  0  0  0
  191.4430  177.5030  140.5950 C   0  0  0  0  0  2  0  0  0  0  0  0
  188.2600  177.6770  142.5220 C   0  0  0  0  0  0  0  0  0  0  0  0
  190.8880  177.1060  144.1090 C   0  0  0  0  0  2  0  0  0  0  0  0
  189.8820  177.6060  145.0950 C   0  0  2  0  0  3  0  0  0  0  0  0
  187.9980  176.6750  137.7960 O   0  0  0  0  0  0  0  0  0  0  0  0
  189.2200  177.0040  139.7440 N   0  0  0  0  0  2  0  0  0  0  0  0
  188.6030  177.4810  138.5490 C   0  0  0  0  0  0  0  0  0  0  0  0
  188.6610  178.8270  138.2120 O   0  0  0  0  0  1  0  0  0  0  0  0
  191.5720  176.7310  146.2260 C   0  0  0  0  0  1  0  0  0  0  0  0
  190.3440  177.3720  146.3920 O   0  0  0  0  0  0  0  0  0  0  0  0
  185.8510  178.2500  142.3890 C   0  0  1  0  0  3  0  0  0  0  0  0
  185.4130  179.5580  142.4770 C   0  0  1  0  0  3  0  0  0  0  0  0
  184.7700  178.6820  141.4530 N   0  0  0  0  0  0  0  0  0  0  0  0
  182.2650  178.9570  143.2780 O   0  0  0  0  0  1  0  0  0  0  0  0
  184.4810  179.8120  143.6790 C   0  0  1  0  0  3  0  0  0  0  0  0
  183.4430  178.7000  143.9780 C   0  0  1  0  0  3  0  0  0  0  0  0
  183.1350  178.5900  145.4680 C   0  0  0  0  0  2  0  0  0  0  0  0
  185.3060  180.2210  144.9060 C   0  0  0  0  0  2  0  0  0  0  0  0
  184.4020  178.2840  146.2770 C   0  0  0  0  0  2  0  0  0  0  0  0
  185.6570  179.0020  145.7570 C   0  0  0  0  0  2  0  0  0  0  0  0
  182.7930  179.1230  138.3390 C   0  0  0  0  0  3  0  0  0  0  0  0
  183.8500  178.4420  140.3930 C   0  0  0  0  0  0  0  0  0  0  0  0
  182.1930  177.0510  139.3340 C   0  0  0  0  0  3  0  0  0  0  0  0
  183.7030  179.3780  139.3680 C   0  0  0  0  0  3  0  0  0  0  0  0
  183.0920  177.2690  140.3810 C   0  0  0  0  0  3  0  0  0  0  0  0
  182.0630  177.9750  138.3430 N   0  0  0  0  0  0  0  0  0  0  0  0
  1  9  1  0  0  0  0
  2  7  2  0  0  0  0
  3 11  1  0  0  0  0
  4 13  1  6  0  0  0
  4  6  1  0  0  0  0
  5  3  2  0  0  0  0
  6  9  2  0  0  0  0
  6  7  1  0  0  0  0
  7 10  1  0  0  0  0
  8  4  1  0  0  0  0
  8  2  1  0  0  0  0
  9  5  1  0  0  0  0
 10 11  1  0  0  0  0
 11 17  1  1  0  0  0
 12 14  2  0  0  0  0
 14 13  1  0  0  0  0
 15 14  1  0  0  0  0
 16 17  1  0  0  0  0
 18  1  1  6  0  0  0
 18 19  1  0  0  0  0
 19 20  1  6  0  0  0
 19 22  1  0  0  0  0
 20 18  1  0  0  0  0
 22 23  1  0  0  0  0
 22 25  1  1  0  0  0
 23 21  1  6  0  0  0
 23 24  1  0  0  0  0
 24 26  1  0  0  0  0
 25 27  1  0  0  0  0
 27 26  1  0  0  0  0
 28 33  2  0  0  0  0
 28 31  1  0  0  0  0
 29 20  1  0  0  0  0
 30 32  2  0  0  0  0
 31 29  2  0  0  0  0
 32 29  1  0  0  0  0
 33 30  1  0  0  0  0
M  END
>  <MODEL>
6

>  <REMARK>
 VINA RESULT:      -8.6      2.314      6.114
  Name = 
  6 active torsions:
  status: ('A' for Active; 'I' for Inactive)
    1  A    between atoms: C_4  and  N_13
    2  A    between atoms: C_5  and  N_32
    3  A    between atoms: C_7  and  C_16
    4  A    between atoms: C_7  and  C_24
    5  A    between atoms: C_14  and  C_30
    6  A    between atoms: O_20  and  C_33
                            x       y       z     vdW  Elec       q    Type
                         _______ _______ _______ _____ _____    ______ ____

>  <TORSDO>
F 6

$$$$
=
 OpenBabel10222417563D

 33 37  0  0  1  0  0  0  0  0999 V2000
  188.4430  177.0590  142.3360 C   0  0  0  0  0  2  0  0  0  0  0  0
  191.9430  177.5040  139.0910 N   0  0  0  0  0  0  0  0  0  0  0  0
  187.5410  177.9920  138.8080 C   0  0  0  0  0  3  0  0  0  0  0  0
  191.2320  176.9190  141.3180 C   0  0  1  0  0  3  0  0  0  0  0  0
  187.6990  178.0290  140.1290 C   0  0  0  0  0  3  0  0  0  0  0  0
  190.0370  177.2180  140.4530 C   0  0  0  0  0  0  0  0  0  0  0  0
  190.5320  177.4950  139.1090 C   0  0  0  0  0  0  0  0  0  0  0  0
  192.4460  177.0580  140.3820 C   0  0  0  0  0  3  0  0  0  0  0  0
  188.7720  177.3720  140.9090 C   0  0  0  0  0  0  0  0  0  0  0  0
  189.8330  177.5040  137.9760 C   0  0  0  0  0  3  0  0  0  0  0  0
  188.3820  177.1600  137.8990 C   0  0  2  0  0  3  0  0  0  0  0  0
  191.7580  178.4530  144.6000 O   0  0  0  0  0  1  0  0  0  0  0  0
  191.3480  177.9110  142.3790 N   0  0  0  0  0  2  0  0  0  0  0  0
  191.6510  177.5530  143.7260 C   0  0  0  0  0  0  0  0  0  0  0  0
  191.8240  176.2220  144.0840 O   0  0  0  0  0  0  0  0  0  0  0  0
  187.5060  178.6310  136.4950 C   0  0  0  0  0  1  0  0  0  0  0  0
  187.9360  177.3060  136.5840 O   0  0  0  0  0  0  0  0  0  0  0  0
  187.6430  178.1870  142.9610 C   0  0  1  0  0  3  0  0  0  0  0  0
  186.3830  177.7470  143.3200 C   0  0  1  0  0  3  0  0  0  0  0  0
  187.4030  177.8760  144.4020 N   0  0  0  0  0  0  0  0  0  0  0  0
  184.4140  179.3530  141.2100 O   0  0  0  0  0  1  0  0  0  0  0  0
  185.3350  178.8760  143.3840 C   0  0  1  0  0  3  0  0  0  0  0  0
  184.1250  178.7330  142.4250 C   0  0  1  0  0  3  0  0  0  0  0  0
  182.8530  179.3340  143.0140 C   0  0  0  0  0  2  0  0  0  0  0  0
  184.9300  179.1360  144.8400 C   0  0  0  0  0  2  0  0  0  0  0  0
  182.4850  178.6640  144.3440 C   0  0  0  0  0  2  0  0  0  0  0  0
  183.7000  178.3150  145.2170 C   0  0  0  0  0  2  0  0  0  0  0  0
  187.4900  178.2110  148.1010 C   0  0  0  0  0  3  0  0  0  0  0  0
  187.8290  177.7740  145.7570 C   0  0  0  0  0  0  0  0  0  0  0  0
  189.4310  177.0360  147.3980 C   0  0  0  0  0  3  0  0  0  0  0  0
  187.0520  178.3210  146.7790 C   0  0  0  0  0  3  0  0  0  0  0  0
  189.0280  177.1260  146.0640 C   0  0  0  0  0  3  0  0  0  0  0  0
  188.6600  177.5760  148.3810 N   0  0  0  0  0  0  0  0  0  0  0  0
  2  7  1  0  0  0  0
  2  8  2  0  0  0  0
  3  5  2  0  0  0  0
  4 13  1  1  0  0  0
  5  9  1  0  0  0  0
  6  9  2  0  0  0  0
  6  4  1  0  0  0  0
  7  6  1  0  0  0  0
  8  4  1  0  0  0  0
  9  1  1  0  0  0  0
 10  7  2  0  0  0  0
 11 17  1  6  0  0  0
 11 10  1  0  0  0  0
 11  3  1  0  0  0  0
 13 14  1  0  0  0  0
 14 15  2  0  0  0  0
 14 12  1  0  0  0  0
 16 17  1  0  0  0  0
 18  1  1  6  0  0  0
 18 19  1  0  0  0  0
 18 20  1  0  0  0  0
 19 22  1  0  0  0  0
 19 20  1  1  0  0  0
 20 29  1  0  0  0  0
 22 25  1  1  0  0  0
 23 21  1  6  0  0  0
 23 24  1  0  0  0  0
 23 22  1  0  0  0  0
 24 26  1  0  0  0  0
 25 27  1  0  0  0  0
 26 27  1  0  0  0  0
 28 33  1  0  0  0  0
 29 32  2  0  0  0  0
 29 31  1  0  0  0  0
 30 33  2  0  0  0  0
 31 28  2  0  0  0  0
 32 30  1  0  0  0  0
M  END
>  <MODEL>
7

>  <REMARK>
 VINA RESULT:      -8.5      2.221      8.013
  Name = 
  6 active torsions:
  status: ('A' for Active; 'I' for Inactive)
    1  A    between atoms: C_4  and  N_13
    2  A    between atoms: C_5  and  N_32
    3  A    between atoms: C_7  and  C_16
    4  A    between atoms: C_7  and  C_24
    5  A    between atoms: C_14  and  C_30
    6  A    between atoms: O_20  and  C_33
                            x       y       z     vdW  Elec       q    Type
                         _______ _______ _______ _____ _____    ______ ____

>  <TORSDO>
F 6

$$$$
=
 OpenBabel10222417563D

 33 37  0  0  1  0  0  0  0  0999 V2000
  185.8710  178.1910  142.2770 C   0  0  0  0  0  2  0  0  0  0  0  0
  181.7510  178.4440  139.8390 N   0  0  0  0  0  0  0  0  0  0  0  0
  182.8280  179.5830  143.9910 C   0  0  0  0  0  3  0  0  0  0  0  0
  184.0570  177.7520  139.9650 C   0  0  1  0  0  3  0  0  0  0  0  0
  184.0410  179.4680  143.4550 C   0  0  0  0  0  3  0  0  0  0  0  0
  183.6060  178.3020  141.2910 C   0  0  0  0  0  0  0  0  0  0  0  0
  182.1920  178.6350  141.1660 C   0  0  0  0  0  0  0  0  0  0  0  0
  182.8080  177.8070  139.0670 C   0  0  0  0  0  2  0  0  0  0  0  0
  184.4280  178.5910  142.3280 C   0  0  0  0  0  0  0  0  0  0  0  0
  181.3230  178.8550  142.1500 C   0  0  0  0  0  2  0  0  0  0  0  0
  181.6680  178.7320  143.5980 C   0  0  2  0  0  3  0  0  0  0  0  0
  186.7180  178.9990  137.7820 O   0  0  0  0  0  1  0  0  0  0  0  0
  185.0820  178.6090  139.3840 N   0  0  0  0  0  2  0  0  0  0  0  0
  185.8570  178.2120  138.2540 C   0  0  0  0  0  0  0  0  0  0  0  0
  185.6730  176.9630  137.6740 O   0  0  0  0  0  0  0  0  0  0  0  0
  179.4590  178.5990  143.6500 C   0  0  0  0  0  1  0  0  0  0  0  0
  180.5560  179.0680  144.3740 O   0  0  0  0  0  0  0  0  0  0  0  0
  186.5020  178.2880  143.6540 C   0  0  1  0  0  3  0  0  0  0  0  0
  186.6320  177.0330  144.2180 C   0  0  1  0  0  3  0  0  0  0  0  0
  187.8520  177.6500  143.6190 N   0  0  0  0  0  0  0  0  0  0  0  0
  188.9090  176.6920  146.5870 O   0  0  0  0  0  1  0  0  0  0  0  0
  186.6760  177.0550  145.7600 C   0  0  1  0  0  3  0  0  0  0  0  0
  187.9460  177.6810  146.3910 C   0  0  1  0  0  3  0  0  0  0  0  0
  187.6450  178.3680  147.7200 C   0  0  0  0  0  2  0  0  0  0  0  0
  185.3690  177.6370  146.3140 C   0  0  0  0  0  2  0  0  0  0  0  0
  186.6050  179.4820  147.5470 C   0  0  0  0  0  2  0  0  0  0  0  0
  185.4970  179.1420  146.5380 C   0  0  0  0  0  2  0  0  0  0  0  0
  191.4690  178.4920  143.5380 C   0  0  0  0  0  3  0  0  0  0  0  0
  189.2320  177.6400  143.2700 C   0  0  0  0  0  0  0  0  0  0  0  0
  191.0560  176.7600  141.9660 C   0  0  0  0  0  3  0  0  0  0  0  0
  190.1190  178.5170  143.8980 C   0  0  0  0  0  3  0  0  0  0  0  0
  189.6990  176.7540  142.2970 C   0  0  0  0  0  3  0  0  0  0  0  0
  191.9060  177.6220  142.5880 N   0  0  0  0  0  0  0  0  0  0  0  0
  1  9  1  0  0  0  0
  2  7  2  0  0  0  0
  4 13  1  6  0  0  0
  4  6  1  0  0  0  0
  5  3  2  0  0  0  0
  6  9  2  0  0  0  0
  7  6  1  0  0  0  0
  7 10  1  0  0  0  0
  8  2  1  0  0  0  0
  8  4  1  0  0  0  0
  9  5  1  0  0  0  0
 10 11  1  0  0  0  0
 11  3  1  0  0  0  0
 11 17  1  1  0  0  0
 12 14  1  0  0  0  0
 14 13  1  0  0  0  0
 15 14  2  0  0  0  0
 16 17  1  0  0  0  0
 18  1  1  6  0  0  0
 18 19  1  0  0  0  0
 19 20  1  6  0  0  0
 19 22  1  0  0  0  0
 20 18  1  0  0  0  0
 22 25  1  6  0  0  0
 22 23  1  0  0  0  0
 23 21  1  1  0  0  0
 23 24  1  0  0  0  0
 25 27  1  0  0  0  0
 26 24  1  0  0  0  0
 27 26  1  0  0  0  0
 28 31  1  0  0  0  0
 29 20  1  0  0  0  0
 29 31  2  0  0  0  0
 30 32  2  0  0  0  0
 30 33  1  0  0  0  0
 32 29  1  0  0  0  0
 33 28  2  0  0  0  0
M  END
>  <MODEL>
8

>  <REMARK>
 VINA RESULT:      -8.3      2.827      7.781
  Name = 
  6 active torsions:
  status: ('A' for Active; 'I' for Inactive)
    1  A    between atoms: C_4  and  N_13
    2  A    between atoms: C_5  and  N_32
    3  A    between atoms: C_7  and  C_16
    4  A    between atoms: C_7  and  C_24
    5  A    between atoms: C_14  and  C_30
    6  A    between atoms: O_20  and  C_33
                            x       y       z     vdW  Elec       q    Type
                         _______ _______ _______ _____ _____    ______ ____

>  <TORSDO>
F 6

$$$$
=
 OpenBabel10222417563D

 33 37  0  0  1  0  0  0  0  0999 V2000
  184.8710  178.3010  142.8670 C   0  0  0  0  0  2  0  0  0  0  0  0
  189.2070  177.3800  144.6910 N   0  0  0  0  0  0  0  0  0  0  0  0
  187.8840  178.6280  140.6420 C   0  0  0  0  0  3  0  0  0  0  0  0
  186.8100  177.4220  144.9400 C   0  0  1  0  0  3  0  0  0  0  0  0
  186.7900  178.9110  141.3470 C   0  0  0  0  0  3  0  0  0  0  0  0
  187.1910  177.7540  143.5220 C   0  0  0  0  0  0  0  0  0  0  0  0
  188.6420  177.6440  143.4250 C   0  0  0  0  0  0  0  0  0  0  0  0
  188.1430  177.1280  145.6510 C   0  0  0  0  0  3  0  0  0  0  0  0
  186.3410  178.2390  142.5860 C   0  0  0  0  0  0  0  0  0  0  0  0
  189.3730  177.5480  142.3160 C   0  0  0  0  0  3  0  0  0  0  0  0
  188.7860  177.4790  140.9450 C   0  0  2  0  0  3  0  0  0  0  0  0
  185.6810  179.7920  147.4910 O   0  0  0  0  0  0  0  0  0  0  0  0
  186.1880  178.5730  145.5790 N   0  0  0  0  0  2  0  0  0  0  0  0
  186.2190  178.7700  146.9920 C   0  0  0  0  0  0  0  0  0  0  0  0
  186.8330  177.8400  147.8220 O   0  0  0  0  0  1  0  0  0  0  0  0
  189.2900  178.0540  138.8670 C   0  0  0  0  0  1  0  0  0  0  0  0
  189.8130  177.4280  139.9990 O   0  0  0  0  0  0  0  0  0  0  0  0
  184.1110  178.7690  141.6390 C   0  0  1  0  0  3  0  0  0  0  0  0
  183.4810  177.7030  141.0230 C   0  0  1  0  0  3  0  0  0  0  0  0
  182.6460  178.5990  141.8770 N   0  0  0  0  0  0  0  0  0  0  0  0
  184.8810  179.3710  138.5390 O   0  0  0  0  0  1  0  0  0  0  0  0
  183.2170  177.9330  139.5210 C   0  0  1  0  0  3  0  0  0  0  0  0
  184.4740  178.0400  138.6210 C   0  0  1  0  0  3  0  0  0  0  0  0
  184.2200  177.4980  137.2170 C   0  0  0  0  0  2  0  0  0  0  0  0
  182.1840  176.9220  139.0090 C   0  0  0  0  0  2  0  0  0  0  0  0
  183.7910  176.0270  137.2580 C   0  0  0  0  0  2  0  0  0  0  0  0
  182.8720  175.6830  138.4410 C   0  0  0  0  0  2  0  0  0  0  0  0
  179.8980  179.0000  144.3440 C   0  0  0  0  0  3  0  0  0  0  0  0
  181.4130  178.9900  142.4710 C   0  0  0  0  0  0  0  0  0  0  0  0
  179.2920  180.1250  142.3410 C   0  0  0  0  0  3  0  0  0  0  0  0
  181.1150  178.6090  143.7810 C   0  0  0  0  0  3  0  0  0  0  0  0
  180.4980  179.7530  141.7430 C   0  0  0  0  0  3  0  0  0  0  0  0
  179.0190  179.7450  143.6190 N   0  0  0  0  0  0  0  0  0  0  0  0
  2  8  2  0  0  0  0
  3 11  1  0  0  0  0
  3  5  2  0  0  0  0
  4 13  1  1  0  0  0
  4  8  1  0  0  0  0
  5  9  1  0  0  0  0
  6  4  1  0  0  0  0
  7  6  1  0  0  0  0
  7  2  1  0  0  0  0
  9  1  1  0  0  0  0
  9  6  2  0  0  0  0
 10  7  2  0  0  0  0
 11 17  1  6  0  0  0
 11 10  1  0  0  0  0
 13 14  1  0  0  0  0
 14 12  2  0  0  0  0
 14 15  1  0  0  0  0
 16 17  1  0  0  0  0
 18 20  1  0  0  0  0
 18  1  1  1  0  0  0
 19 18  1  0  0  0  0
 19 20  1  1  0  0  0
 20 29  1  0  0  0  0
 22 25  1  6  0  0  0
 22 19  1  0  0  0  0
 23 21  1  6  0  0  0
 23 22  1  0  0  0  0
 24 26  1  0  0  0  0
 24 23  1  0  0  0  0
 26 27  1  0  0  0  0
 27 25  1  0  0  0  0
 29 31  2  0  0  0  0
 30 33  1  0  0  0  0
 31 28  1  0  0  0  0
 32 30  2  0  0  0  0
 32 29  1  0  0  0  0
 33 28  2  0  0  0  0
M  END
>  <MODEL>
9

>  <REMARK>
 VINA RESULT:      -8.2      3.076      5.903
  Name = 
  6 active torsions:
  status: ('A' for Active; 'I' for Inactive)
    1  A    between atoms: C_4  and  N_13
    2  A    between atoms: C_5  and  N_32
    3  A    between atoms: C_7  and  C_16
    4  A    between atoms: C_7  and  C_24
    5  A    between atoms: C_14  and  C_30
    6  A    between atoms: O_20  and  C_33
                            x       y       z     vdW  Elec       q    Type
                         _______ _______ _______ _____ _____    ______ ____

>  <TORSDO>
F 6

$$$$
