=
 OpenBabel10222416443D

 45 49  0  0  1  0  0  0  0  0999 V2000
  186.2840  178.5990  142.5350 C   0  0  0  0  0  2  0  0  0  0  0  0
  184.1490  178.7990  141.0890 C   0  0  2  0  0  3  0  0  0  0  0  0
  184.7890  178.9460  142.4460 C   0  0  2  0  0  3  0  0  0  0  0  0
  184.3030  180.1260  143.2750 C   0  0  0  0  0  2  0  0  0  0  0  0
  182.2980  177.8780  139.6280 C   0  0  1  0  0  3  0  0  0  0  0  0
  180.6440  178.1010  141.2510 N   0  0  0  0  0  0  0  0  0  0  0  0
  182.6070  178.5290  144.2380 C   0  0  0  0  0  2  0  0  0  0  0  0
  180.9160  177.8030  139.9390 O   0  0  0  0  0  0  0  0  0  0  0  0
  182.8760  178.3700  140.9310 C   0  0  2  0  0  3  0  0  0  0  0  0
  183.6490  179.6000  144.5480 C   0  0  0  0  0  2  0  0  0  0  0  0
  181.7300  178.3980  141.8770 C   0  0  0  0  0  0  0  0  0  0  0  0
  181.6190  179.0600  143.2180 C   0  0  0  0  0  2  0  0  0  0  0  0
  182.7730  176.4580  139.3370 C   0  0  1  0  0  3  0  0  0  0  0  0
  181.7110  175.7510  138.5180 C   0  0  0  0  0  2  0  0  0  0  0  0
  182.9810  176.2310  137.8530 C   0  0  2  0  0  3  0  0  0  0  0  0
  183.8910  175.0350  137.6430 C   0  0  0  0  0  2  0  0  0  0  0  0
  184.0040  172.6260  137.1000 C   0  0  0  0  0  1  0  0  0  0  0  0
  183.1010  173.8400  137.1490 C   0  0  0  0  0  2  0  0  0  0  0  0
  184.9570  179.1280  139.8660 C   0  0  0  0  0  2  0  0  0  0  0  0
  185.6470  177.9840  139.3840 O   0  0  0  0  0  0  0  0  0  0  0  0
  186.5970  179.0810  137.6110 O   0  0  0  0  0  0  0  0  0  0  0  0
  186.3420  177.9860  138.1740 C   0  0  0  0  0  0  0  0  0  0  0  0
  186.7900  176.7180  137.5290 C   0  0  0  0  0  1  0  0  0  0  0  0
  186.6180  177.4420  143.4790 C   0  0  2  0  0  3  0  0  0  0  0  0
  186.8910  177.9490  144.9010 C   0  0  2  0  0  3  0  0  0  0  0  0
  188.2410  177.4480  145.3940 C   0  0  0  0  0  1  0  0  0  0  0  0
  185.8300  177.4780  145.8470 C   0  0  0  0  0  3  0  0  0  0  0  0
  185.9300  179.4680  147.1340 O   0  0  0  0  0  1  0  0  0  0  0  0
  185.4070  178.2040  146.8780 C   0  0  0  0  0  3  0  0  0  0  0  0
  187.7920  176.7510  142.9620 N   0  0  0  0  0  2  0  0  0  0  0  0
  189.9930  177.8030  142.7860 C   0  0  1  0  0  3  0  0  0  0  0  0
  188.6950  177.2890  140.7630 C   0  0  0  0  0  2  0  0  0  0  0  0
  190.1520  177.4760  140.3940 C   0  0  1  0  0  3  0  0  0  0  0  0
  188.5840  177.7160  142.2120 C   0  0  1  0  0  3  0  0  0  0  0  0
  190.7120  176.5290  142.6050 N   0  0  0  0  0  0  0  0  0  0  0  0
  191.8090  176.5350  143.5560 C   0  0  0  0  0  1  0  0  0  0  0  0
  190.9450  177.6550  141.6840 C   0  0  2  0  0  3  0  0  0  0  0  0
  190.6630  176.2810  139.6000 C   0  0  0  0  0  2  0  0  0  0  0  0
  190.5090  174.1550  137.7460 O   0  0  0  0  0  0  0  0  0  0  0  0
  190.2960  175.3180  137.3070 C   0  0  0  0  0  0  0  0  0  0  0  0
  190.1450  177.6970  137.7080 O   0  0  0  0  0  1  0  0  0  0  0  0
  190.3690  176.4500  138.1850 N   0  0  0  0  0  0  0  0  0  0  0  0
  189.9310  175.4970  135.8700 C   0  0  0  0  0  2  0  0  0  0  0  0
  191.0400  174.9950  134.9600 C   0  0  0  0  0  2  0  0  0  0  0  0
  192.3140  175.7870  135.1880 C   0  0  0  0  0  1  0  0  0  0  0  0
  2 19  1  6  0  0  0
  2  3  1  0  0  0  0
  3  1  1  6  0  0  0
  3  4  1  0  0  0  0
  4 10  1  0  0  0  0
  5  8  1  1  0  0  0
  5  9  1  0  0  0  0
  6 11  2  0  0  0  0
  7 10  1  0  0  0  0
  8  6  1  0  0  0  0
  9  2  1  0  0  0  0
  9 11  1  6  0  0  0
 11 12  1  0  0  0  0
 12  7  1  0  0  0  0
 13 14  1  6  0  0  0
 13  5  1  0  0  0  0
 15 16  1  1  0  0  0
 15 14  1  0  0  0  0
 15 13  1  0  0  0  0
 17 18  1  0  0  0  0
 18 16  1  0  0  0  0
 20 19  1  0  0  0  0
 21 22  2  0  0  0  0
 22 20  1  0  0  0  0
 23 22  1  0  0  0  0
 24  1  1  6  0  0  0
 24 25  1  0  0  0  0
 25 26  1  1  0  0  0
 25 27  1  0  0  0  0
 27 29  2  0  0  0  0
 29 28  1  0  0  0  0
 30 24  1  0  0  0  0
 31 35  1  1  0  0  0
 32 34  1  0  0  0  0
 33 38  1  1  0  0  0
 33 32  1  0  0  0  0
 33 37  1  0  0  0  0
 34 31  1  0  0  0  0
 34 30  1  1  0  0  0
 35 36  1  0  0  0  0
 37 35  1  1  0  0  0
 37 31  1  0  0  0  0
 40 39  2  0  0  0  0
 40 42  1  0  0  0  0
 41 42  1  0  0  0  0
 42 38  1  0  0  0  0
 43 40  1  0  0  0  0
 44 45  1  0  0  0  0
 44 43  1  0  0  0  0
M  END
>  <MODEL>
1

>  <REMARK>
 VINA RESULT:      -7.0      0.000      0.000
  Name = 
  16 active torsions:
  status: ('A' for Active; 'I' for Inactive)
    1  A    between atoms: C_1  and  C_19
    2  A    between atoms: N_2  and  C_22
    3  A    between atoms: N_2  and  C_27
    4  A    between atoms: C_3  and  C_5
    5  A    between atoms: C_5  and  C_33
    6  A    between atoms: C_7  and  C_16
    7  A    between atoms: C_8  and  C_11
    8  A    between atoms: C_9  and  O_38
    9  A    between atoms: C_11  and  O_38
   10  A    between atoms: C_13  and  C_40
   11  A    between atoms: C_19  and  C_22
   12  A    between atoms: C_22  and  C_40
   13  A    between atoms: C_23  and  C_26
   14  A    between atoms: C_26  and  N_45
   15  A    between atoms: C_28  and  C_43
   16  A    between atoms: C_29  and  C_43
                            x       y       z     vdW  Elec       q    Type
                         _______ _______ _______ _____ _____    ______ ____

>  <TORSDO>
F 16

$$$$
=
 OpenBabel10222416443D

 45 49  0  0  1  0  0  0  0  0999 V2000
  180.9740  179.0930  139.9990 C   0  0  0  0  0  2  0  0  0  0  0  0
  181.5010  177.5430  137.9970 C   0  0  2  0  0  3  0  0  0  0  0  0
  180.6910  177.7840  139.2450 C   0  0  2  0  0  3  0  0  0  0  0  0
  179.2440  177.3190  139.1860 C   0  0  0  0  0  2  0  0  0  0  0  0
  183.0030  176.0470  136.6140 C   0  0  1  0  0  3  0  0  0  0  0  0
  181.9450  174.0730  137.2480 N   0  0  0  0  0  0  0  0  0  0  0  0
  180.0840  175.1410  140.1390 C   0  0  0  0  0  2  0  0  0  0  0  0
  182.8800  174.6460  136.4240 O   0  0  0  0  0  0  0  0  0  0  0  0
  181.9250  176.3110  137.6330 C   0  0  2  0  0  3  0  0  0  0  0  0
  179.0270  176.2380  140.2400 C   0  0  0  0  0  2  0  0  0  0  0  0
  181.3910  174.9700  137.9890 C   0  0  0  0  0  0  0  0  0  0  0  0
  180.1320  174.6100  138.7200 C   0  0  0  0  0  2  0  0  0  0  0  0
  184.3810  176.3010  137.2180 C   0  0  1  0  0  3  0  0  0  0  0  0
  185.4340  175.9770  136.1760 C   0  0  0  0  0  2  0  0  0  0  0  0
  185.1100  177.4180  136.4990 C   0  0  2  0  0  3  0  0  0  0  0  0
  186.2090  177.9650  137.3910 C   0  0  0  0  0  2  0  0  0  0  0  0
  188.6300  177.7290  136.9470 C   0  0  0  0  0  1  0  0  0  0  0  0
  187.3700  178.4740  136.5600 C   0  0  0  0  0  2  0  0  0  0  0  0
  181.8640  178.7160  137.1300 C   0  0  0  0  0  2  0  0  0  0  0  0
  180.7030  179.3560  136.6200 O   0  0  0  0  0  0  0  0  0  0  0  0
  180.6130  181.1100  135.1490 O   0  0  0  0  0  0  0  0  0  0  0  0
  180.6640  180.7230  136.3440 C   0  0  0  0  0  0  0  0  0  0  0  0
  180.6840  181.7400  137.4350 C   0  0  0  0  0  1  0  0  0  0  0  0
  180.7130  179.0340  141.5060 C   0  0  2  0  0  3  0  0  0  0  0  0
  179.4650  179.8430  141.8840 C   0  0  2  0  0  3  0  0  0  0  0  0
  179.4210  181.1480  141.1000 C   0  0  0  0  0  1  0  0  0  0  0  0
  179.4600  180.1620  143.3460 C   0  0  0  0  0  3  0  0  0  0  0  0
  179.2870  177.8780  143.9640 O   0  0  0  0  0  1  0  0  0  0  0  0
  179.3720  179.2280  144.2890 C   0  0  0  0  0  3  0  0  0  0  0  0
  181.8800  179.5660  142.1970 N   0  0  0  0  0  2  0  0  0  0  0  0
  183.8390  178.1290  141.9140 C   0  0  1  0  0  3  0  0  0  0  0  0
  183.0890  178.7800  144.1620 C   0  0  0  0  0  2  0  0  0  0  0  0
  184.5300  178.3190  144.2250 C   0  0  1  0  0  3  0  0  0  0  0  0
  182.6140  178.4430  142.7650 C   0  0  1  0  0  3  0  0  0  0  0  0
  184.8020  179.2440  141.9510 N   0  0  0  0  0  0  0  0  0  0  0  0
  185.6660  179.0810  140.7960 C   0  0  0  0  0  1  0  0  0  0  0  0
  185.0020  178.0550  142.7990 C   0  0  2  0  0  3  0  0  0  0  0  0
  185.4010  179.3680  144.9040 C   0  0  0  0  0  2  0  0  0  0  0  0
  187.6060  177.6250  145.1980 O   0  0  0  0  0  0  0  0  0  0  0  0
  187.0210  177.9970  146.2520 C   0  0  0  0  0  0  0  0  0  0  0  0
  185.2600  179.2630  147.3170 O   0  0  0  0  0  1  0  0  0  0  0  0
  185.8860  178.8710  146.1830 N   0  0  0  0  0  0  0  0  0  0  0  0
  187.5500  177.5460  147.5730 C   0  0  0  0  0  2  0  0  0  0  0  0
  189.0500  177.3070  147.5070 C   0  0  0  0  0  2  0  0  0  0  0  0
  189.7780  178.2460  148.4520 C   0  0  0  0  0  1  0  0  0  0  0  0
  2 19  1  1  0  0  0
  2  3  1  0  0  0  0
  3  1  1  6  0  0  0
  4  3  1  0  0  0  0
  4 10  1  0  0  0  0
  5  8  1  1  0  0  0
  5 13  1  0  0  0  0
  5  9  1  0  0  0  0
  6 11  2  0  0  0  0
  7 10  1  0  0  0  0
  8  6  1  0  0  0  0
  9 11  1  6  0  0  0
  9  2  1  0  0  0  0
 11 12  1  0  0  0  0
 12  7  1  0  0  0  0
 13 14  1  6  0  0  0
 14 15  1  0  0  0  0
 15 13  1  0  0  0  0
 15 16  1  1  0  0  0
 18 17  1  0  0  0  0
 18 16  1  0  0  0  0
 20 19  1  0  0  0  0
 21 22  2  0  0  0  0
 22 20  1  0  0  0  0
 22 23  1  0  0  0  0
 24  1  1  6  0  0  0
 24 25  1  0  0  0  0
 24 30  1  0  0  0  0
 25 26  1  6  0  0  0
 25 27  1  0  0  0  0
 27 29  2  0  0  0  0
 28 29  1  0  0  0  0
 31 35  1  6  0  0  0
 31 34  1  0  0  0  0
 31 37  1  0  0  0  0
 32 33  1  0  0  0  0
 33 38  1  6  0  0  0
 34 30  1  6  0  0  0
 34 32  1  0  0  0  0
 36 35  1  0  0  0  0
 37 35  1  6  0  0  0
 37 33  1  0  0  0  0
 38 42  1  0  0  0  0
 39 40  2  0  0  0  0
 40 43  1  0  0  0  0
 42 40  1  0  0  0  0
 42 41  1  0  0  0  0
 44 43  1  0  0  0  0
 44 45  1  0  0  0  0
M  END
>  <MODEL>
2

>  <REMARK>
 VINA RESULT:      -6.9      3.507      7.273
  Name = 
  16 active torsions:
  status: ('A' for Active; 'I' for Inactive)
    1  A    between atoms: C_1  and  C_19
    2  A    between atoms: N_2  and  C_22
    3  A    between atoms: N_2  and  C_27
    4  A    between atoms: C_3  and  C_5
    5  A    between atoms: C_5  and  C_33
    6  A    between atoms: C_7  and  C_16
    7  A    between atoms: C_8  and  C_11
    8  A    between atoms: C_9  and  O_38
    9  A    between atoms: C_11  and  O_38
   10  A    between atoms: C_13  and  C_40
   11  A    between atoms: C_19  and  C_22
   12  A    between atoms: C_22  and  C_40
   13  A    between atoms: C_23  and  C_26
   14  A    between atoms: C_26  and  N_45
   15  A    between atoms: C_28  and  C_43
   16  A    between atoms: C_29  and  C_43
                            x       y       z     vdW  Elec       q    Type
                         _______ _______ _______ _____ _____    ______ ____

>  <TORSDO>
F 16

$$$$
=
 OpenBabel10222416443D

 45 49  0  0  1  0  0  0  0  0999 V2000
  185.7580  177.6720  140.1590 C   0  0  0  0  0  2  0  0  0  0  0  0
  183.4200  178.6950  140.5790 C   0  0  2  0  0  3  0  0  0  0  0  0
  184.8100  178.4350  141.0990 C   0  0  2  0  0  3  0  0  0  0  0  0
  185.4170  179.5530  141.9330 C   0  0  0  0  0  2  0  0  0  0  0  0
  180.9090  178.5800  140.8840 C   0  0  1  0  0  3  0  0  0  0  0  0
  180.9750  178.9930  143.1740 N   0  0  0  0  0  0  0  0  0  0  0  0
  184.4380  178.3630  143.9280 C   0  0  0  0  0  2  0  0  0  0  0  0
  180.1760  178.8470  142.0690 O   0  0  0  0  0  0  0  0  0  0  0  0
  182.3300  178.6720  141.3800 C   0  0  2  0  0  3  0  0  0  0  0  0
  185.6780  179.0340  143.3430 C   0  0  0  0  0  2  0  0  0  0  0  0
  182.2160  178.8670  142.8490 C   0  0  0  0  0  0  0  0  0  0  0  0
  183.2570  179.3070  143.8350 C   0  0  0  0  0  2  0  0  0  0  0  0
  180.5830  177.1510  140.4630 C   0  0  1  0  0  3  0  0  0  0  0  0
  179.3840  177.1810  139.5350 C   0  0  0  0  0  2  0  0  0  0  0  0
  180.7680  176.9510  138.9720 C   0  0  2  0  0  3  0  0  0  0  0  0
  180.9210  175.4710  138.6720 C   0  0  0  0  0  2  0  0  0  0  0  0
  181.3330  175.5550  136.2360 C   0  0  0  0  0  1  0  0  0  0  0  0
  180.3490  175.1390  137.3090 C   0  0  0  0  0  2  0  0  0  0  0  0
  183.2340  178.9770  139.1150 C   0  0  0  0  0  2  0  0  0  0  0  0
  182.9650  180.3530  138.8870 O   0  0  0  0  0  0  0  0  0  0  0  0
  181.2060  179.9610  137.4720 O   0  0  0  0  0  0  0  0  0  0  0  0
  181.8530  180.7870  138.1650 C   0  0  0  0  0  0  0  0  0  0  0  0
  181.4110  182.2110  138.1940 C   0  0  0  0  0  1  0  0  0  0  0  0
  186.6270  178.5610  139.2660 C   0  0  2  0  0  3  0  0  0  0  0  0
  186.8650  177.9060  137.8980 C   0  0  2  0  0  3  0  0  0  0  0  0
  187.8110  178.7540  137.0610 C   0  0  0  0  0  1  0  0  0  0  0  0
  185.5760  177.7480  137.1530 C   0  0  0  0  0  3  0  0  0  0  0  0
  185.7760  175.3850  137.0740 O   0  0  0  0  0  1  0  0  0  0  0  0
  185.0970  176.5640  136.7800 C   0  0  0  0  0  3  0  0  0  0  0  0
  187.9000  178.7850  139.9380 N   0  0  0  0  0  2  0  0  0  0  0  0
  189.3560  176.8250  139.8070 C   0  0  1  0  0  3  0  0  0  0  0  0
  188.8320  177.8410  141.9820 C   0  0  0  0  0  2  0  0  0  0  0  0
  190.0780  176.9890  142.1100 C   0  0  1  0  0  3  0  0  0  0  0  0
  188.2770  177.5470  140.6050 C   0  0  1  0  0  3  0  0  0  0  0  0
  190.6020  177.6130  139.7790 N   0  0  0  0  0  0  0  0  0  0  0  0
  191.3790  177.1160  138.6580 C   0  0  0  0  0  1  0  0  0  0  0  0
  190.4500  176.4880  140.7190 C   0  0  2  0  0  3  0  0  0  0  0  0
  191.2180  177.7900  142.7250 C   0  0  0  0  0  2  0  0  0  0  0  0
  191.8590  175.8020  144.6270 O   0  0  0  0  0  0  0  0  0  0  0  0
  191.3800  176.8840  145.0650 C   0  0  0  0  0  0  0  0  0  0  0  0
  190.4990  179.0930  144.6340 O   0  0  0  0  0  1  0  0  0  0  0  0
  191.0180  177.9360  144.1600 N   0  0  0  0  0  0  0  0  0  0  0  0
  191.2300  177.0690  146.5390 C   0  0  0  0  0  2  0  0  0  0  0  0
  189.8190  176.7290  146.9900 C   0  0  0  0  0  2  0  0  0  0  0  0
  189.2800  177.8110  147.9080 C   0  0  0  0  0  1  0  0  0  0  0  0
  2 19  1  6  0  0  0
  2  3  1  0  0  0  0
  2  9  1  0  0  0  0
  3  1  1  6  0  0  0
  3  4  1  0  0  0  0
  4 10  1  0  0  0  0
  5  9  1  0  0  0  0
  5  8  1  1  0  0  0
  8  6  1  0  0  0  0
  9 11  1  6  0  0  0
 10  7  1  0  0  0  0
 11  6  2  0  0  0  0
 11 12  1  0  0  0  0
 12  7  1  0  0  0  0
 13 14  1  6  0  0  0
 13  5  1  0  0  0  0
 15 16  1  1  0  0  0
 15 14  1  0  0  0  0
 15 13  1  0  0  0  0
 17 18  1  0  0  0  0
 18 16  1  0  0  0  0
 20 19  1  0  0  0  0
 21 22  2  0  0  0  0
 22 23  1  0  0  0  0
 22 20  1  0  0  0  0
 24 30  1  0  0  0  0
 24  1  1  1  0  0  0
 25 26  1  6  0  0  0
 25 24  1  0  0  0  0
 27 25  1  0  0  0  0
 29 28  1  0  0  0  0
 29 27  2  0  0  0  0
 31 35  1  6  0  0  0
 31 34  1  0  0  0  0
 31 37  1  0  0  0  0
 32 33  1  0  0  0  0
 33 38  1  6  0  0  0
 34 30  1  6  0  0  0
 34 32  1  0  0  0  0
 36 35  1  0  0  0  0
 37 35  1  6  0  0  0
 37 33  1  0  0  0  0
 38 42  1  0  0  0  0
 39 40  2  0  0  0  0
 40 43  1  0  0  0  0
 42 41  1  0  0  0  0
 42 40  1  0  0  0  0
 43 44  1  0  0  0  0
 44 45  1  0  0  0  0
M  END
>  <MODEL>
3

>  <REMARK>
 VINA RESULT:      -6.4      2.488      5.573
  Name = 
  16 active torsions:
  status: ('A' for Active; 'I' for Inactive)
    1  A    between atoms: C_1  and  C_19
    2  A    between atoms: N_2  and  C_22
    3  A    between atoms: N_2  and  C_27
    4  A    between atoms: C_3  and  C_5
    5  A    between atoms: C_5  and  C_33
    6  A    between atoms: C_7  and  C_16
    7  A    between atoms: C_8  and  C_11
    8  A    between atoms: C_9  and  O_38
    9  A    between atoms: C_11  and  O_38
   10  A    between atoms: C_13  and  C_40
   11  A    between atoms: C_19  and  C_22
   12  A    between atoms: C_22  and  C_40
   13  A    between atoms: C_23  and  C_26
   14  A    between atoms: C_26  and  N_45
   15  A    between atoms: C_28  and  C_43
   16  A    between atoms: C_29  and  C_43
                            x       y       z     vdW  Elec       q    Type
                         _______ _______ _______ _____ _____    ______ ____

>  <TORSDO>
F 16

$$$$
=
 OpenBabel10222416443D

 45 49  0  0  1  0  0  0  0  0999 V2000
  186.0040  176.6370  137.1760 C   0  0  0  0  0  2  0  0  0  0  0  0
  188.0510  177.4340  138.5430 C   0  0  2  0  0  3  0  0  0  0  0  0
  187.5320  176.7320  137.3140 C   0  0  2  0  0  3  0  0  0  0  0  0
  188.3260  176.9730  136.0380 C   0  0  0  0  0  2  0  0  0  0  0  0
  189.5530  177.4610  140.5800 C   0  0  1  0  0  3  0  0  0  0  0  0
  191.2920  176.3040  139.5510 N   0  0  0  0  0  0  0  0  0  0  0  0
  189.6390  174.9160  136.6700 C   0  0  0  0  0  2  0  0  0  0  0  0
  190.8910  176.9970  140.6660 O   0  0  0  0  0  0  0  0  0  0  0  0
  189.1750  177.0390  139.1830 C   0  0  2  0  0  3  0  0  0  0  0  0
  188.8990  175.6460  135.5530 C   0  0  0  0  0  2  0  0  0  0  0  0
  190.3400  176.2620  138.6840 C   0  0  0  0  0  0  0  0  0  0  0  0
  190.6720  175.8390  137.2840 C   0  0  0  0  0  2  0  0  0  0  0  0
  188.7390  176.6850  141.6100 C   0  0  1  0  0  3  0  0  0  0  0  0
  189.6310  176.3730  142.7960 C   0  0  0  0  0  2  0  0  0  0  0  0
  188.5870  177.4610  142.9030 C   0  0  2  0  0  3  0  0  0  0  0  0
  187.4080  176.9150  143.6880 C   0  0  0  0  0  2  0  0  0  0  0  0
  186.1470  178.2240  145.3640 C   0  0  0  0  0  1  0  0  0  0  0  0
  187.4190  177.4450  145.1080 C   0  0  0  0  0  2  0  0  0  0  0  0
  187.2840  178.6060  139.0860 C   0  0  0  0  0  2  0  0  0  0  0  0
  186.2160  178.1790  139.9190 O   0  0  0  0  0  0  0  0  0  0  0  0
  184.6730  179.8570  139.6900 O   0  0  0  0  0  0  0  0  0  0  0  0
  185.2860  179.0700  140.4550 C   0  0  0  0  0  0  0  0  0  0  0  0
  185.0000  179.1130  141.9190 C   0  0  0  0  0  1  0  0  0  0  0  0
  185.4290  175.2330  137.3770 C   0  0  2  0  0  3  0  0  0  0  0  0
  185.6980  174.3450  136.1560 C   0  0  2  0  0  3  0  0  0  0  0  0
  185.2570  175.0490  134.8800 C   0  0  0  0  0  1  0  0  0  0  0  0
  184.9600  173.0470  136.2670 C   0  0  0  0  0  3  0  0  0  0  0  0
  186.7370  171.8170  135.2890 O   0  0  0  0  0  1  0  0  0  0  0  0
  185.4670  171.8890  135.8520 C   0  0  0  0  0  3  0  0  0  0  0  0
  183.9940  175.3510  137.6010 N   0  0  0  0  0  2  0  0  0  0  0  0
  183.1720  177.6370  137.3170 C   0  0  1  0  0  3  0  0  0  0  0  0
  182.7550  176.4180  139.4090 C   0  0  0  0  0  2  0  0  0  0  0  0
  181.7780  177.5690  139.2920 C   0  0  1  0  0  3  0  0  0  0  0  0
  183.7510  176.6140  138.2860 C   0  0  1  0  0  3  0  0  0  0  0  0
  181.8380  177.2190  136.8480 N   0  0  0  0  0  0  0  0  0  0  0  0
  181.5790  177.9590  135.6270 C   0  0  0  0  0  1  0  0  0  0  0  0
  181.9740  178.2150  137.9260 C   0  0  2  0  0  3  0  0  0  0  0  0
  180.3470  177.0790  139.4660 C   0  0  0  0  0  2  0  0  0  0  0  0
  180.4100  179.5870  140.7640 O   0  0  0  0  0  0  0  0  0  0  0  0
  179.9490  178.6120  141.4180 C   0  0  0  0  0  0  0  0  0  0  0  0
  179.4040  176.2610  141.5390 O   0  0  0  0  0  1  0  0  0  0  0  0
  179.8960  177.3050  140.8310 N   0  0  0  0  0  0  0  0  0  0  0  0
  179.4240  178.8450  142.7960 C   0  0  0  0  0  2  0  0  0  0  0  0
  180.3780  178.2910  143.8430 C   0  0  0  0  0  2  0  0  0  0  0  0
  181.7390  178.9510  143.7220 C   0  0  0  0  0  1  0  0  0  0  0  0
  2 19  1  1  0  0  0
  2  9  1  0  0  0  0
  3  1  1  6  0  0  0
  3  2  1  0  0  0  0
  4  3  1  0  0  0  0
  5  8  1  1  0  0  0
  5 13  1  0  0  0  0
  6  8  1  0  0  0  0
  7 12  1  0  0  0  0
  9 11  1  6  0  0  0
  9  5  1  0  0  0  0
 10  4  1  0  0  0  0
 10  7  1  0  0  0  0
 11  6  2  0  0  0  0
 12 11  1  0  0  0  0
 13 14  1  1  0  0  0
 13 15  1  0  0  0  0
 14 15  1  0  0  0  0
 15 16  1  1  0  0  0
 16 18  1  0  0  0  0
 18 17  1  0  0  0  0
 19 20  1  0  0  0  0
 20 22  1  0  0  0  0
 21 22  2  0  0  0  0
 22 23  1  0  0  0  0
 24  1  1  6  0  0  0
 24 30  1  0  0  0  0
 25 26  1  6  0  0  0
 25 27  1  0  0  0  0
 25 24  1  0  0  0  0
 28 29  1  0  0  0  0
 29 27  2  0  0  0  0
 31 35  1  6  0  0  0
 31 37  1  0  0  0  0
 31 34  1  0  0  0  0
 33 32  1  0  0  0  0
 33 38  1  6  0  0  0
 34 30  1  6  0  0  0
 34 32  1  0  0  0  0
 36 35  1  0  0  0  0
 37 35  1  6  0  0  0
 37 33  1  0  0  0  0
 38 42  1  0  0  0  0
 39 40  2  0  0  0  0
 40 43  1  0  0  0  0
 42 40  1  0  0  0  0
 42 41  1  0  0  0  0
 43 44  1  0  0  0  0
 45 44  1  0  0  0  0
M  END
>  <MODEL>
4

>  <REMARK>
 VINA RESULT:      -6.3      2.107      9.447
  Name = 
  16 active torsions:
  status: ('A' for Active; 'I' for Inactive)
    1  A    between atoms: C_1  and  C_19
    2  A    between atoms: N_2  and  C_22
    3  A    between atoms: N_2  and  C_27
    4  A    between atoms: C_3  and  C_5
    5  A    between atoms: C_5  and  C_33
    6  A    between atoms: C_7  and  C_16
    7  A    between atoms: C_8  and  C_11
    8  A    between atoms: C_9  and  O_38
    9  A    between atoms: C_11  and  O_38
   10  A    between atoms: C_13  and  C_40
   11  A    between atoms: C_19  and  C_22
   12  A    between atoms: C_22  and  C_40
   13  A    between atoms: C_23  and  C_26
   14  A    between atoms: C_26  and  N_45
   15  A    between atoms: C_28  and  C_43
   16  A    between atoms: C_29  and  C_43
                            x       y       z     vdW  Elec       q    Type
                         _______ _______ _______ _____ _____    ______ ____

>  <TORSDO>
F 16

$$$$
=
 OpenBabel10222416443D

 45 49  0  0  1  0  0  0  0  0999 V2000
  185.9370  177.1670  137.7100 C   0  0  0  0  0  2  0  0  0  0  0  0
  183.3540  177.0960  137.8390 C   0  0  2  0  0  3  0  0  0  0  0  0
  184.6440  177.6460  138.3910 C   0  0  2  0  0  3  0  0  0  0  0  0
  184.5980  179.1000  138.8380 C   0  0  0  0  0  2  0  0  0  0  0  0
  181.1270  175.9500  138.2040 C   0  0  1  0  0  3  0  0  0  0  0  0
  180.7250  176.9640  140.2600 N   0  0  0  0  0  0  0  0  0  0  0  0
  183.9960  178.2010  141.1150 C   0  0  0  0  0  2  0  0  0  0  0  0
  180.2110  176.1730  139.2640 O   0  0  0  0  0  0  0  0  0  0  0  0
  182.2940  176.8060  138.6270 C   0  0  2  0  0  3  0  0  0  0  0  0
  184.8830  179.1670  140.3350 C   0  0  0  0  0  2  0  0  0  0  0  0
  181.9260  177.3270  139.9700 C   0  0  0  0  0  0  0  0  0  0  0  0
  182.5430  178.4430  140.7590 C   0  0  0  0  0  2  0  0  0  0  0  0
  181.5090  174.4740  138.2400 C   0  0  1  0  0  3  0  0  0  0  0  0
  180.3610  173.6630  137.6720 C   0  0  0  0  0  2  0  0  0  0  0  0
  181.6070  173.8870  136.8460 C   0  0  2  0  0  3  0  0  0  0  0  0
  182.4400  172.6190  136.8850 C   0  0  0  0  0  2  0  0  0  0  0  0
  184.6670  173.6000  137.3190 C   0  0  0  0  0  1  0  0  0  0  0  0
  183.8170  172.8640  136.3040 C   0  0  0  0  0  2  0  0  0  0  0  0
  183.2460  176.8470  136.3610 C   0  0  0  0  0  2  0  0  0  0  0  0
  182.8160  178.0130  135.6730 O   0  0  0  0  0  0  0  0  0  0  0  0
  180.9940  179.2850  136.2300 O   0  0  0  0  0  0  0  0  0  0  0  0
  181.4680  178.3470  135.5410 C   0  0  0  0  0  0  0  0  0  0  0  0
  180.5720  177.6150  134.5990 C   0  0  0  0  0  1  0  0  0  0  0  0
  186.7740  178.2770  137.0690 C   0  0  2  0  0  3  0  0  0  0  0  0
  187.2360  177.8770  135.6620 C   0  0  2  0  0  3  0  0  0  0  0  0
  186.2780  178.4240  134.6130 C   0  0  0  0  0  1  0  0  0  0  0  0
  187.2980  176.3880  135.5250 C   0  0  0  0  0  3  0  0  0  0  0  0
  189.5900  176.4210  134.9150 O   0  0  0  0  0  1  0  0  0  0  0  0
  188.4050  175.7400  135.1720 C   0  0  0  0  0  3  0  0  0  0  0  0
  187.9280  178.5330  137.9190 N   0  0  0  0  0  2  0  0  0  0  0  0
  189.3350  176.6110  138.4770 C   0  0  1  0  0  3  0  0  0  0  0  0
  188.2070  177.8830  140.2520 C   0  0  0  0  0  2  0  0  0  0  0  0
  189.3490  177.0870  140.8490 C   0  0  1  0  0  3  0  0  0  0  0  0
  188.0770  177.4000  138.8230 C   0  0  1  0  0  3  0  0  0  0  0  0
  190.5430  177.4210  138.7130 N   0  0  0  0  0  0  0  0  0  0  0  0
  191.6100  176.8060  137.9440 C   0  0  0  0  0  1  0  0  0  0  0  0
  190.1070  176.4230  139.7060 C   0  0  2  0  0  3  0  0  0  0  0  0
  190.2670  177.9910  141.6620 C   0  0  0  0  0  2  0  0  0  0  0  0
  190.8540  179.3860  144.0470 O   0  0  0  0  0  0  0  0  0  0  0  0
  190.9010  178.1260  144.0910 C   0  0  0  0  0  0  0  0  0  0  0  0
  190.6840  175.9970  142.9680 O   0  0  0  0  0  1  0  0  0  0  0  0
  190.6280  177.3480  142.9170 N   0  0  0  0  0  0  0  0  0  0  0  0
  191.2070  177.4550  145.3890 C   0  0  0  0  0  2  0  0  0  0  0  0
  189.9510  176.8590  146.0040 C   0  0  0  0  0  2  0  0  0  0  0  0
  189.1980  177.9120  146.7950 C   0  0  0  0  0  1  0  0  0  0  0  0
  2 19  1  1  0  0  0
  2  3  1  0  0  0  0
  2  9  1  0  0  0  0
  3  1  1  6  0  0  0
  3  4  1  0  0  0  0
  4 10  1  0  0  0  0
  5 13  1  0  0  0  0
  5  9  1  0  0  0  0
  5  8  1  1  0  0  0
  8  6  1  0  0  0  0
  9 11  1  6  0  0  0
 10  7  1  0  0  0  0
 11  6  2  0  0  0  0
 11 12  1  0  0  0  0
 12  7  1  0  0  0  0
 13 14  1  1  0  0  0
 15 16  1  1  0  0  0
 15 14  1  0  0  0  0
 15 13  1  0  0  0  0
 18 16  1  0  0  0  0
 18 17  1  0  0  0  0
 20 19  1  0  0  0  0
 22 20  1  0  0  0  0
 22 21  2  0  0  0  0
 23 22  1  0  0  0  0
 24  1  1  1  0  0  0
 24 30  1  0  0  0  0
 25 26  1  6  0  0  0
 25 24  1  0  0  0  0
 27 25  1  0  0  0  0
 28 29  1  0  0  0  0
 29 27  2  0  0  0  0
 31 35  1  6  0  0  0
 31 34  1  0  0  0  0
 31 37  1  0  0  0  0
 32 33  1  0  0  0  0
 33 38  1  6  0  0  0
 34 30  1  6  0  0  0
 34 32  1  0  0  0  0
 36 35  1  0  0  0  0
 37 35  1  6  0  0  0
 37 33  1  0  0  0  0
 38 42  1  0  0  0  0
 39 40  2  0  0  0  0
 40 43  1  0  0  0  0
 42 41  1  0  0  0  0
 42 40  1  0  0  0  0
 43 44  1  0  0  0  0
 44 45  1  0  0  0  0
M  END
>  <MODEL>
5

>  <REMARK>
 VINA RESULT:      -6.3      2.426      6.119
  Name = 
  16 active torsions:
  status: ('A' for Active; 'I' for Inactive)
    1  A    between atoms: C_1  and  C_19
    2  A    between atoms: N_2  and  C_22
    3  A    between atoms: N_2  and  C_27
    4  A    between atoms: C_3  and  C_5
    5  A    between atoms: C_5  and  C_33
    6  A    between atoms: C_7  and  C_16
    7  A    between atoms: C_8  and  C_11
    8  A    between atoms: C_9  and  O_38
    9  A    between atoms: C_11  and  O_38
   10  A    between atoms: C_13  and  C_40
   11  A    between atoms: C_19  and  C_22
   12  A    between atoms: C_22  and  C_40
   13  A    between atoms: C_23  and  C_26
   14  A    between atoms: C_26  and  N_45
   15  A    between atoms: C_28  and  C_43
   16  A    between atoms: C_29  and  C_43
                            x       y       z     vdW  Elec       q    Type
                         _______ _______ _______ _____ _____    ______ ____

>  <TORSDO>
F 16

$$$$
=
 OpenBabel10222416443D

 45 49  0  0  1  0  0  0  0  0999 V2000
  183.2960  177.7220  140.7060 C   0  0  0  0  0  2  0  0  0  0  0  0
  181.1640  178.3870  139.4000 C   0  0  2  0  0  3  0  0  0  0  0  0
  182.1910  177.3290  139.7120 C   0  0  2  0  0  3  0  0  0  0  0  0
  181.6580  175.9060  139.7990 C   0  0  0  0  0  2  0  0  0  0  0  0
  179.8690  179.7510  137.7060 C   0  0  1  0  0  3  0  0  0  0  0  0
  179.7030  178.0230  136.1550 N   0  0  0  0  0  0  0  0  0  0  0  0
  182.2110  175.7320  137.3460 C   0  0  0  0  0  2  0  0  0  0  0  0
  179.3090  179.2950  136.4850 O   0  0  0  0  0  0  0  0  0  0  0  0
  180.6200  178.5290  138.1690 C   0  0  2  0  0  3  0  0  0  0  0  0
  182.3180  175.0630  138.7130 C   0  0  0  0  0  2  0  0  0  0  0  0
  180.4830  177.5460  137.0620 C   0  0  0  0  0  0  0  0  0  0  0  0
  180.7630  176.0730  137.0580 C   0  0  0  0  0  2  0  0  0  0  0  0
  180.8420  180.8760  137.3640 C   0  0  1  0  0  3  0  0  0  0  0  0
  180.1480  181.8480  136.4290 C   0  0  0  0  0  2  0  0  0  0  0  0
  180.3530  182.2140  137.8810 C   0  0  2  0  0  3  0  0  0  0  0  0
  181.5190  183.1820  137.9690 C   0  0  0  0  0  2  0  0  0  0  0  0
  180.0780  185.1740  137.7080 C   0  0  0  0  0  1  0  0  0  0  0  0
  181.2550  184.4160  137.1300 C   0  0  0  0  0  2  0  0  0  0  0  0
  180.7400  179.3290  140.4900 C   0  0  0  0  0  2  0  0  0  0  0  0
  180.3700  178.6220  141.6650 O   0  0  0  0  0  0  0  0  0  0  0  0
  180.3090  180.5020  142.9730 O   0  0  0  0  0  0  0  0  0  0  0  0
  180.2440  179.2480  142.9050 C   0  0  0  0  0  0  0  0  0  0  0  0
  180.0330  178.4650  144.1570 C   0  0  0  0  0  1  0  0  0  0  0  0
  183.7860  179.1660  140.5810 C   0  0  2  0  0  3  0  0  0  0  0  0
  184.6520  179.3500  139.3280 C   0  0  2  0  0  3  0  0  0  0  0  0
  183.9950  180.3330  138.3690 C   0  0  0  0  0  1  0  0  0  0  0  0
  184.8470  178.0460  138.6200 C   0  0  0  0  0  3  0  0  0  0  0  0
  187.0310  178.6300  137.9000 O   0  0  0  0  0  1  0  0  0  0  0  0
  185.9620  177.7410  137.9620 C   0  0  0  0  0  3  0  0  0  0  0  0
  184.5570  179.4960  141.7730 N   0  0  0  0  0  2  0  0  0  0  0  0
  186.2230  177.7260  142.0480 C   0  0  1  0  0  3  0  0  0  0  0  0
  184.8830  178.4820  143.9650 C   0  0  0  0  0  2  0  0  0  0  0  0
  186.1200  177.7640  144.4650 C   0  0  1  0  0  3  0  0  0  0  0  0
  184.8560  178.2520  142.4690 C   0  0  1  0  0  3  0  0  0  0  0  0
  187.2920  178.6460  142.4780 N   0  0  0  0  0  0  0  0  0  0  0  0
  188.4530  178.3390  141.6630 C   0  0  0  0  0  1  0  0  0  0  0  0
  186.9910  177.4320  143.2590 C   0  0  2  0  0  3  0  0  0  0  0  0
  186.8760  178.6280  145.4650 C   0  0  0  0  0  2  0  0  0  0  0  0
  189.6450  178.1660  145.1440 O   0  0  0  0  0  0  0  0  0  0  0  0
  189.0800  177.6170  146.1300 C   0  0  0  0  0  0  0  0  0  0  0  0
  187.0730  177.1990  147.4080 O   0  0  0  0  0  1  0  0  0  0  0  0
  187.6750  177.7940  146.3520 N   0  0  0  0  0  0  0  0  0  0  0  0
  189.9020  176.8130  147.0820 C   0  0  0  0  0  2  0  0  0  0  0  0
  191.3530  176.7530  146.6340 C   0  0  0  0  0  2  0  0  0  0  0  0
  192.0820  175.6290  147.3460 C   0  0  0  0  0  1  0  0  0  0  0  0
  2  3  1  0  0  0  0
  2 19  1  6  0  0  0
  3  4  1  0  0  0  0
  3  1  1  1  0  0  0
  5  8  1  6  0  0  0
  5  9  1  0  0  0  0
  6  8  1  0  0  0  0
  6 11  2  0  0  0  0
  7 10  1  0  0  0  0
  9 11  1  1  0  0  0
  9  2  1  0  0  0  0
 10  4  1  0  0  0  0
 12 11  1  0  0  0  0
 12  7  1  0  0  0  0
 13 14  1  6  0  0  0
 13  5  1  0  0  0  0
 13 15  1  0  0  0  0
 14 15  1  0  0  0  0
 15 16  1  6  0  0  0
 18 17  1  0  0  0  0
 18 16  1  0  0  0  0
 19 20  1  0  0  0  0
 20 22  1  0  0  0  0
 22 21  2  0  0  0  0
 22 23  1  0  0  0  0
 24  1  1  1  0  0  0
 24 30  1  0  0  0  0
 25 26  1  6  0  0  0
 25 24  1  0  0  0  0
 27 25  1  0  0  0  0
 28 29  1  0  0  0  0
 29 27  2  0  0  0  0
 31 34  1  0  0  0  0
 31 35  1  6  0  0  0
 31 37  1  0  0  0  0
 32 33  1  0  0  0  0
 33 38  1  1  0  0  0
 34 30  1  6  0  0  0
 34 32  1  0  0  0  0
 36 35  1  0  0  0  0
 37 35  1  1  0  0  0
 37 33  1  0  0  0  0
 38 42  1  0  0  0  0
 39 40  2  0  0  0  0
 40 42  1  0  0  0  0
 40 43  1  0  0  0  0
 42 41  1  0  0  0  0
 44 43  1  0  0  0  0
 44 45  1  0  0  0  0
M  END
>  <MODEL>
6

>  <REMARK>
 VINA RESULT:      -6.2      3.096      7.306
  Name = 
  16 active torsions:
  status: ('A' for Active; 'I' for Inactive)
    1  A    between atoms: C_1  and  C_19
    2  A    between atoms: N_2  and  C_22
    3  A    between atoms: N_2  and  C_27
    4  A    between atoms: C_3  and  C_5
    5  A    between atoms: C_5  and  C_33
    6  A    between atoms: C_7  and  C_16
    7  A    between atoms: C_8  and  C_11
    8  A    between atoms: C_9  and  O_38
    9  A    between atoms: C_11  and  O_38
   10  A    between atoms: C_13  and  C_40
   11  A    between atoms: C_19  and  C_22
   12  A    between atoms: C_22  and  C_40
   13  A    between atoms: C_23  and  C_26
   14  A    between atoms: C_26  and  N_45
   15  A    between atoms: C_28  and  C_43
   16  A    between atoms: C_29  and  C_43
                            x       y       z     vdW  Elec       q    Type
                         _______ _______ _______ _____ _____    ______ ____

>  <TORSDO>
F 16

$$$$
=
 OpenBabel10222416443D

 45 49  0  0  1  0  0  0  0  0999 V2000
  187.9880  176.3780  142.7660 C   0  0  0  0  0  2  0  0  0  0  0  0
  186.2990  178.3040  143.1220 C   0  0  2  0  0  3  0  0  0  0  0  0
  187.3140  177.3690  143.7280 C   0  0  2  0  0  3  0  0  0  0  0  0
  188.1830  177.9670  144.8240 C   0  0  0  0  0  2  0  0  0  0  0  0
  183.9820  179.3240  143.1260 C   0  0  1  0  0  3  0  0  0  0  0  0
  183.7990  179.3730  145.4460 N   0  0  0  0  0  0  0  0  0  0  0  0
  186.4330  177.1270  146.4330 C   0  0  0  0  0  2  0  0  0  0  0  0
  183.2340  179.7500  144.2540 O   0  0  0  0  0  0  0  0  0  0  0  0
  185.1810  178.6870  143.7810 C   0  0  2  0  0  3  0  0  0  0  0  0
  187.9260  177.2160  146.1260 C   0  0  0  0  0  2  0  0  0  0  0  0
  184.8950  178.7300  145.2390 C   0  0  0  0  0  0  0  0  0  0  0  0
  185.8230  178.5140  146.3980 C   0  0  0  0  0  2  0  0  0  0  0  0
  183.1480  178.2710  142.4030 C   0  0  1  0  0  3  0  0  0  0  0  0
  181.6810  178.5540  142.6620 C   0  0  0  0  0  2  0  0  0  0  0  0
  182.2880  178.8870  141.3180 C   0  0  2  0  0  3  0  0  0  0  0  0
  181.8720  177.8140  140.3290 C   0  0  0  0  0  2  0  0  0  0  0  0
  181.5080  179.9440  139.1270 C   0  0  0  0  0  1  0  0  0  0  0  0
  181.3940  178.4370  139.0330 C   0  0  0  0  0  2  0  0  0  0  0  0
  186.5280  178.8190  141.7290 C   0  0  0  0  0  2  0  0  0  0  0  0
  185.8010  178.0580  140.7750 O   0  0  0  0  0  0  0  0  0  0  0  0
  184.9530  179.8360  139.6040 O   0  0  0  0  0  0  0  0  0  0  0  0
  185.2830  178.6230  139.6090 C   0  0  0  0  0  0  0  0  0  0  0  0
  185.1100  177.8200  138.3630 C   0  0  0  0  0  1  0  0  0  0  0  0
  189.4370  176.7180  142.4060 C   0  0  2  0  0  3  0  0  0  0  0  0
  190.1300  177.4650  143.5530 C   0  0  2  0  0  3  0  0  0  0  0  0
  190.5250  178.8670  143.1110 C   0  0  0  0  0  1  0  0  0  0  0  0
  191.3610  176.7360  143.9960 C   0  0  0  0  0  3  0  0  0  0  0  0
  190.9120  177.1340  146.2910 O   0  0  0  0  0  1  0  0  0  0  0  0
  191.7000  176.6020  145.2750 C   0  0  0  0  0  3  0  0  0  0  0  0
  189.4320  177.5420  141.2050 N   0  0  0  0  0  2  0  0  0  0  0  0
  188.7130  177.4560  138.8690 C   0  0  1  0  0  3  0  0  0  0  0  0
  190.5480  176.0240  139.6590 C   0  0  0  0  0  2  0  0  0  0  0  0
  190.6130  176.1410  138.1510 C   0  0  1  0  0  3  0  0  0  0  0  0
  189.2350  176.6620  140.0610 C   0  0  1  0  0  3  0  0  0  0  0  0
  189.7190  178.4290  138.4070 N   0  0  0  0  0  0  0  0  0  0  0  0
  189.0040  179.4220  137.6250 C   0  0  0  0  0  1  0  0  0  0  0  0
  189.5500  177.1410  137.7100 C   0  0  2  0  0  3  0  0  0  0  0  0
  192.0000  176.5850  137.7040 C   0  0  0  0  0  2  0  0  0  0  0  0
  194.5470  176.7640  136.4970 O   0  0  0  0  0  0  0  0  0  0  0  0
  194.0840  175.6070  136.6950 C   0  0  0  0  0  0  0  0  0  0  0  0
  192.2960  174.1930  137.4970 O   0  0  0  0  0  1  0  0  0  0  0  0
  192.7910  175.4360  137.2920 N   0  0  0  0  0  0  0  0  0  0  0  0
  194.9140  174.4200  136.3340 C   0  0  0  0  0  2  0  0  0  0  0  0
  196.0390  174.2170  137.3360 C   0  0  0  0  0  2  0  0  0  0  0  0
  195.6770  173.1250  138.3260 C   0  0  0  0  0  1  0  0  0  0  0  0
  2 19  1  6  0  0  0
  2  3  1  0  0  0  0
  2  9  1  0  0  0  0
  3  1  1  6  0  0  0
  3  4  1  0  0  0  0
  4 10  1  0  0  0  0
  5  9  1  0  0  0  0
  5  8  1  1  0  0  0
  8  6  1  0  0  0  0
  9 11  1  1  0  0  0
 10  7  1  0  0  0  0
 11  6  2  0  0  0  0
 11 12  1  0  0  0  0
 12  7  1  0  0  0  0
 13 14  1  1  0  0  0
 13  5  1  0  0  0  0
 15 16  1  6  0  0  0
 15 13  1  0  0  0  0
 15 14  1  0  0  0  0
 18 17  1  0  0  0  0
 18 16  1  0  0  0  0
 20 19  1  0  0  0  0
 21 22  2  0  0  0  0
 22 20  1  0  0  0  0
 23 22  1  0  0  0  0
 24  1  1  1  0  0  0
 24 25  1  0  0  0  0
 25 26  1  6  0  0  0
 25 27  1  0  0  0  0
 27 29  2  0  0  0  0
 29 28  1  0  0  0  0
 30 24  1  0  0  0  0
 31 35  1  1  0  0  0
 31 34  1  0  0  0  0
 32 34  1  0  0  0  0
 33 38  1  1  0  0  0
 33 32  1  0  0  0  0
 34 30  1  1  0  0  0
 36 35  1  0  0  0  0
 37 33  1  0  0  0  0
 37 35  1  1  0  0  0
 37 31  1  0  0  0  0
 39 40  2  0  0  0  0
 40 42  1  0  0  0  0
 42 41  1  0  0  0  0
 42 38  1  0  0  0  0
 43 40  1  0  0  0  0
 43 44  1  0  0  0  0
 44 45  1  0  0  0  0
M  END
>  <MODEL>
7

>  <REMARK>
 VINA RESULT:      -6.2      2.346      4.374
  Name = 
  16 active torsions:
  status: ('A' for Active; 'I' for Inactive)
    1  A    between atoms: C_1  and  C_19
    2  A    between atoms: N_2  and  C_22
    3  A    between atoms: N_2  and  C_27
    4  A    between atoms: C_3  and  C_5
    5  A    between atoms: C_5  and  C_33
    6  A    between atoms: C_7  and  C_16
    7  A    between atoms: C_8  and  C_11
    8  A    between atoms: C_9  and  O_38
    9  A    between atoms: C_11  and  O_38
   10  A    between atoms: C_13  and  C_40
   11  A    between atoms: C_19  and  C_22
   12  A    between atoms: C_22  and  C_40
   13  A    between atoms: C_23  and  C_26
   14  A    between atoms: C_26  and  N_45
   15  A    between atoms: C_28  and  C_43
   16  A    between atoms: C_29  and  C_43
                            x       y       z     vdW  Elec       q    Type
                         _______ _______ _______ _____ _____    ______ ____

>  <TORSDO>
F 16

$$$$
=
 OpenBabel10222416443D

 45 49  0  0  1  0  0  0  0  0999 V2000
  187.0990  177.7530  141.4770 C   0  0  0  0  0  2  0  0  0  0  0  0
  186.7280  177.2420  143.9850 C   0  0  2  0  0  3  0  0  0  0  0  0
  186.2330  177.9240  142.7350 C   0  0  2  0  0  3  0  0  0  0  0  0
  184.7240  177.9190  142.5410 C   0  0  0  0  0  2  0  0  0  0  0  0
  187.3380  177.3420  146.4400 C   0  0  1  0  0  3  0  0  0  0  0  0
  185.6620  178.8610  146.9920 N   0  0  0  0  0  0  0  0  0  0  0  0
  184.7320  180.1280  143.7530 C   0  0  0  0  0  2  0  0  0  0  0  0
  186.6450  178.0310  147.4690 O   0  0  0  0  0  0  0  0  0  0  0  0
  186.5800  177.7870  145.2150 C   0  0  2  0  0  3  0  0  0  0  0  0
  184.2190  179.3570  142.5400 C   0  0  0  0  0  2  0  0  0  0  0  0
  185.6020  178.7920  145.7070 C   0  0  0  0  0  0  0  0  0  0  0  0
  184.3990  179.3650  145.0200 C   0  0  0  0  0  2  0  0  0  0  0  0
  188.7630  177.8860  146.4120 C   0  0  1  0  0  3  0  0  0  0  0  0
  189.2930  177.9270  147.8320 C   0  0  0  0  0  2  0  0  0  0  0  0
  189.7660  176.8520  146.8800 C   0  0  2  0  0  3  0  0  0  0  0  0
  191.1510  177.2270  146.3870 C   0  0  0  0  0  2  0  0  0  0  0  0
  192.4330  175.6270  147.7700 C   0  0  0  0  0  1  0  0  0  0  0  0
  192.0560  176.0110  146.3540 C   0  0  0  0  0  2  0  0  0  0  0  0
  187.4240  175.9170  143.8610 C   0  0  0  0  0  2  0  0  0  0  0  0
  188.3940  175.9410  142.8240 O   0  0  0  0  0  0  0  0  0  0  0  0
  190.4670  175.0480  143.2200 O   0  0  0  0  0  0  0  0  0  0  0  0
  189.7590  176.0780  143.0820 C   0  0  0  0  0  0  0  0  0  0  0  0
  190.4000  177.4190  143.2000 C   0  0  0  0  0  1  0  0  0  0  0  0
  186.7630  178.7120  140.3320 C   0  0  2  0  0  3  0  0  0  0  0  0
  185.4120  178.3610  139.6960 C   0  0  2  0  0  3  0  0  0  0  0  0
  185.6160  177.4960  138.4590 C   0  0  0  0  0  1  0  0  0  0  0  0
  184.6730  179.6000  139.2970 C   0  0  0  0  0  3  0  0  0  0  0  0
  182.5700  178.5030  139.3470 O   0  0  0  0  0  1  0  0  0  0  0  0
  183.3520  179.6350  139.1390 C   0  0  0  0  0  3  0  0  0  0  0  0
  187.8210  178.6280  139.3350 N   0  0  0  0  0  2  0  0  0  0  0  0
  188.4650  176.4860  138.3440 C   0  0  1  0  0  3  0  0  0  0  0  0
  190.0180  177.6900  139.8190 C   0  0  0  0  0  2  0  0  0  0  0  0
  190.7890  176.6890  138.9850 C   0  0  1  0  0  3  0  0  0  0  0  0
  188.5560  177.3920  139.5670 C   0  0  1  0  0  3  0  0  0  0  0  0
  189.1450  177.0970  137.1880 N   0  0  0  0  0  0  0  0  0  0  0  0
  188.6240  176.4350  136.0050 C   0  0  0  0  0  1  0  0  0  0  0  0
  189.8200  176.0610  137.9900 C   0  0  2  0  0  3  0  0  0  0  0  0
  191.9480  177.3660  138.2660 C   0  0  0  0  0  2  0  0  0  0  0  0
  192.8090  175.5250  136.3050 O   0  0  0  0  0  0  0  0  0  0  0  0
  193.5320  175.6520  137.3310 C   0  0  0  0  0  0  0  0  0  0  0  0
  193.9300  176.6870  139.4780 O   0  0  0  0  0  1  0  0  0  0  0  0
  193.1540  176.5580  138.3760 N   0  0  0  0  0  0  0  0  0  0  0  0
  194.8030  174.8760  137.4250 C   0  0  0  0  0  2  0  0  0  0  0  0
  194.5500  173.4790  137.9690 C   0  0  0  0  0  2  0  0  0  0  0  0
  194.6830  172.4470  136.8640 C   0  0  0  0  0  1  0  0  0  0  0  0
  2 19  1  6  0  0  0
  2  9  1  0  0  0  0
  3  1  1  6  0  0  0
  3  2  1  0  0  0  0
  4  3  1  0  0  0  0
  5  8  1  1  0  0  0
  6  8  1  0  0  0  0
  7 12  1  0  0  0  0
  9 11  1  1  0  0  0
  9  5  1  0  0  0  0
 10  4  1  0  0  0  0
 10  7  1  0  0  0  0
 11  6  2  0  0  0  0
 12 11  1  0  0  0  0
 13  5  1  0  0  0  0
 13 15  1  0  0  0  0
 13 14  1  1  0  0  0
 15 16  1  6  0  0  0
 15 14  1  0  0  0  0
 18 16  1  0  0  0  0
 18 17  1  0  0  0  0
 20 22  1  0  0  0  0
 20 19  1  0  0  0  0
 22 23  1  0  0  0  0
 22 21  2  0  0  0  0
 24  1  1  1  0  0  0
 25 26  1  6  0  0  0
 25 24  1  0  0  0  0
 27 25  1  0  0  0  0
 29 27  2  0  0  0  0
 29 28  1  0  0  0  0
 30 24  1  0  0  0  0
 31 35  1  6  0  0  0
 31 34  1  0  0  0  0
 33 38  1  6  0  0  0
 33 32  1  0  0  0  0
 34 30  1  6  0  0  0
 34 32  1  0  0  0  0
 36 35  1  0  0  0  0
 37 35  1  6  0  0  0
 37 31  1  0  0  0  0
 37 33  1  0  0  0  0
 38 42  1  0  0  0  0
 39 40  2  0  0  0  0
 40 43  1  0  0  0  0
 40 42  1  0  0  0  0
 42 41  1  0  0  0  0
 43 44  1  0  0  0  0
 45 44  1  0  0  0  0
M  END
>  <MODEL>
8

>  <REMARK>
 VINA RESULT:      -6.2      2.693      6.624
  Name = 
  16 active torsions:
  status: ('A' for Active; 'I' for Inactive)
    1  A    between atoms: C_1  and  C_19
    2  A    between atoms: N_2  and  C_22
    3  A    between atoms: N_2  and  C_27
    4  A    between atoms: C_3  and  C_5
    5  A    between atoms: C_5  and  C_33
    6  A    between atoms: C_7  and  C_16
    7  A    between atoms: C_8  and  C_11
    8  A    between atoms: C_9  and  O_38
    9  A    between atoms: C_11  and  O_38
   10  A    between atoms: C_13  and  C_40
   11  A    between atoms: C_19  and  C_22
   12  A    between atoms: C_22  and  C_40
   13  A    between atoms: C_23  and  C_26
   14  A    between atoms: C_26  and  N_45
   15  A    between atoms: C_28  and  C_43
   16  A    between atoms: C_29  and  C_43
                            x       y       z     vdW  Elec       q    Type
                         _______ _______ _______ _____ _____    ______ ____

>  <TORSDO>
F 16

$$$$
=
 OpenBabel10222416443D

 45 49  0  0  1  0  0  0  0  0999 V2000
  183.1400  179.3990  140.7160 C   0  0  0  0  0  2  0  0  0  0  0  0
  183.6590  178.5400  138.3320 C   0  0  2  0  0  3  0  0  0  0  0  0
  182.8350  179.4470  139.2100 C   0  0  2  0  0  3  0  0  0  0  0  0
  182.5030  180.8080  138.6160 C   0  0  0  0  0  2  0  0  0  0  0  0
  183.7940  176.7610  136.5360 C   0  0  1  0  0  3  0  0  0  0  0  0
  181.9690  177.5630  135.3340 N   0  0  0  0  0  0  0  0  0  0  0  0
  180.3990  179.7240  137.7480 C   0  0  0  0  0  2  0  0  0  0  0  0
  183.0130  176.6730  135.3550 O   0  0  0  0  0  0  0  0  0  0  0  0
  183.1450  177.9250  137.2420 C   0  0  2  0  0  3  0  0  0  0  0  0
  180.9900  180.9300  138.4730 C   0  0  0  0  0  2  0  0  0  0  0  0
  181.9710  178.2820  136.4030 C   0  0  0  0  0  0  0  0  0  0  0  0
  181.1220  179.5170  136.4310 C   0  0  0  0  0  2  0  0  0  0  0  0
  183.5740  175.4720  137.3210 C   0  0  1  0  0  3  0  0  0  0  0  0
  182.9030  174.4610  136.4120 C   0  0  0  0  0  2  0  0  0  0  0  0
  184.3710  174.3210  136.7410 C   0  0  2  0  0  3  0  0  0  0  0  0
  184.5240  173.2310  137.7860 C   0  0  0  0  0  2  0  0  0  0  0  0
  184.9020  171.6660  135.9090 C   0  0  0  0  0  1  0  0  0  0  0  0
  184.1540  171.8800  137.2080 C   0  0  0  0  0  2  0  0  0  0  0  0
  185.0980  178.2980  138.6870 C   0  0  0  0  0  2  0  0  0  0  0  0
  185.9670  179.0400  137.8430 O   0  0  0  0  0  0  0  0  0  0  0  0
  188.0400  179.2670  136.8940 O   0  0  0  0  0  0  0  0  0  0  0  0
  187.1410  178.4980  137.3180 C   0  0  0  0  0  0  0  0  0  0  0  0
  187.3560  177.0230  137.2470 C   0  0  0  0  0  1  0  0  0  0  0  0
  182.6690  178.1270  141.4250 C   0  0  2  0  0  3  0  0  0  0  0  0
  181.1390  178.0180  141.4070 C   0  0  2  0  0  3  0  0  0  0  0  0
  180.6690  177.3480  140.1230 C   0  0  0  0  0  1  0  0  0  0  0  0
  180.5080  179.3730  141.5000 C   0  0  0  0  0  3  0  0  0  0  0  0
  179.9200  179.0710  143.7790 O   0  0  0  0  0  1  0  0  0  0  0  0
  179.9460  179.8330  142.6150 C   0  0  0  0  0  3  0  0  0  0  0  0
  183.1510  178.1610  142.7990 N   0  0  0  0  0  2  0  0  0  0  0  0
  184.8130  179.2690  144.2110 C   0  0  1  0  0  3  0  0  0  0  0  0
  185.5230  177.8580  142.3280 C   0  0  0  0  0  2  0  0  0  0  0  0
  186.6750  178.0260  143.2960 C   0  0  1  0  0  3  0  0  0  0  0  0
  184.4510  178.8170  142.8010 C   0  0  1  0  0  3  0  0  0  0  0  0
  184.9940  178.1080  145.1020 N   0  0  0  0  0  0  0  0  0  0  0  0
  184.8650  178.6070  146.4600 C   0  0  0  0  0  1  0  0  0  0  0  0
  186.1620  178.7870  144.5120 C   0  0  2  0  0  3  0  0  0  0  0  0
  187.2420  176.6700  143.6980 C   0  0  0  0  0  2  0  0  0  0  0  0
  189.6680  176.3100  142.2960 O   0  0  0  0  0  0  0  0  0  0  0  0
  189.7490  176.6400  143.5110 C   0  0  0  0  0  0  0  0  0  0  0  0
  188.6530  177.1780  145.5970 O   0  0  0  0  0  1  0  0  0  0  0  0
  188.5610  176.8290  144.2920 N   0  0  0  0  0  0  0  0  0  0  0  0
  191.0950  176.8680  144.1150 C   0  0  0  0  0  2  0  0  0  0  0  0
  191.7290  178.1370  143.5690 C   0  0  0  0  0  2  0  0  0  0  0  0
  190.9160  179.3530  143.9750 C   0  0  0  0  0  1  0  0  0  0  0  0
  2 19  1  1  0  0  0
  2  3  1  0  0  0  0
  3  1  1  1  0  0  0
  4  3  1  0  0  0  0
  5  8  1  6  0  0  0
  5  9  1  0  0  0  0
  5 13  1  0  0  0  0
  6  8  1  0  0  0  0
  6 11  2  0  0  0  0
  7 10  1  0  0  0  0
  9 11  1  6  0  0  0
  9  2  1  0  0  0  0
 10  4  1  0  0  0  0
 11 12  1  0  0  0  0
 12  7  1  0  0  0  0
 13 14  1  6  0  0  0
 14 15  1  0  0  0  0
 15 13  1  0  0  0  0
 15 16  1  1  0  0  0
 17 18  1  0  0  0  0
 18 16  1  0  0  0  0
 20 19  1  0  0  0  0
 21 22  2  0  0  0  0
 22 20  1  0  0  0  0
 23 22  1  0  0  0  0
 24  1  1  1  0  0  0
 24 30  1  0  0  0  0
 25 26  1  6  0  0  0
 25 24  1  0  0  0  0
 25 27  1  0  0  0  0
 27 29  2  0  0  0  0
 29 28  1  0  0  0  0
 31 37  1  0  0  0  0
 31 35  1  1  0  0  0
 32 34  1  0  0  0  0
 32 33  1  0  0  0  0
 33 38  1  1  0  0  0
 33 37  1  0  0  0  0
 34 30  1  1  0  0  0
 34 31  1  0  0  0  0
 35 36  1  0  0  0  0
 37 35  1  1  0  0  0
 38 42  1  0  0  0  0
 39 40  2  0  0  0  0
 40 43  1  0  0  0  0
 40 42  1  0  0  0  0
 42 41  1  0  0  0  0
 44 45  1  0  0  0  0
 44 43  1  0  0  0  0
M  END
>  <MODEL>
9

>  <REMARK>
 VINA RESULT:      -6.2      2.579      5.487
  Name = 
  16 active torsions:
  status: ('A' for Active; 'I' for Inactive)
    1  A    between atoms: C_1  and  C_19
    2  A    between atoms: N_2  and  C_22
    3  A    between atoms: N_2  and  C_27
    4  A    between atoms: C_3  and  C_5
    5  A    between atoms: C_5  and  C_33
    6  A    between atoms: C_7  and  C_16
    7  A    between atoms: C_8  and  C_11
    8  A    between atoms: C_9  and  O_38
    9  A    between atoms: C_11  and  O_38
   10  A    between atoms: C_13  and  C_40
   11  A    between atoms: C_19  and  C_22
   12  A    between atoms: C_22  and  C_40
   13  A    between atoms: C_23  and  C_26
   14  A    between atoms: C_26  and  N_45
   15  A    between atoms: C_28  and  C_43
   16  A    between atoms: C_29  and  C_43
                            x       y       z     vdW  Elec       q    Type
                         _______ _______ _______ _____ _____    ______ ____

>  <TORSDO>
F 16

$$$$
