=
 OpenBabel10222419333D

 26 28  0  0  1  0  0  0  0  0999 V2000
  185.6520  178.7940  145.7810 N   0  0  0  0  0  2  0  0  0  0  0  0
  186.7660  177.9270  145.5440 C   0  0  0  0  0  0  0  0  0  0  0  0
  183.4010  179.1880  145.4020 O   0  0  0  0  0  0  0  0  0  0  0  0
  184.5360  178.9690  144.9000 C   0  0  0  0  0  0  0  0  0  0  0  0
  186.7110  177.0380  144.6500 O   0  0  0  0  0  0  0  0  0  0  0  0
  183.9940  178.1970  141.2380 C   0  0  0  0  0  0  0  0  0  0  0  0
  185.0560  178.9260  140.6680 C   0  0  0  0  0  0  0  0  0  0  0  0
  184.6840  178.9590  143.4290 C   0  0  0  0  0  0  0  0  0  0  0  0
  184.4130  178.2140  138.4980 C   0  0  0  0  0  3  0  0  0  0  0  0
  185.2380  178.9160  139.3210 N   0  0  0  0  0  0  0  0  0  0  0  0
  183.3490  177.4770  139.0280 C   0  0  0  0  0  3  0  0  0  0  0  0
  185.7360  179.6600  142.8200 C   0  0  0  0  0  3  0  0  0  0  0  0
  185.8970  179.6330  141.4690 N   0  0  0  0  0  0  0  0  0  0  0  0
  183.1400  177.4690  140.4090 C   0  0  0  0  0  3  0  0  0  0  0  0
  183.8170  178.2130  142.6190 C   0  0  0  0  0  3  0  0  0  0  0  0
  187.9890  178.0660  146.3830 C   0  0  1  0  0  3  0  0  0  0  0  0
  187.6390  178.1150  147.7210 F   0  0  0  0  0  0  0  0  0  0  0  0
  188.9310  176.9010  146.1200 C   0  0  0  0  0  2  0  0  0  0  0  0
  190.2560  177.0990  146.8370 C   0  0  0  0  0  2  0  0  0  0  0  0
  191.4200  177.0210  145.8430 C   0  0  0  0  0  2  0  0  0  0  0  0
  190.9900  176.9620  144.4390 N   0  0  0  0  0  0  0  0  0  0  0  0
  191.5980  178.0540  143.6840 C   0  0  0  0  0  3  0  0  0  0  0  0
  191.1610  179.3850  144.2700 C   0  0  0  0  0  2  0  0  0  0  0  0
  190.5130  178.8710  143.0050 C   0  0  0  0  0  2  0  0  0  0  0  0
  190.4530  175.2660  142.8560 N   0  0  0  0  0  1  0  0  0  0  0  0
  191.4200  175.6980  143.8500 C   0  0  0  0  0  2  0  0  0  0  0  0
  2  1  1  0  0  0  0
  2 16  1  0  0  0  0
  4  3  2  0  0  0  0
  4  1  1  0  0  0  0
  5  2  2  0  0  0  0
  6 15  1  0  0  0  0
  7  6  1  0  0  0  0
  7 13  1  0  0  0  0
  8  4  1  0  0  0  0
  9 11  2  0  0  0  0
  9 10  1  0  0  0  0
 10  7  2  0  0  0  0
 11 14  1  0  0  0  0
 12  8  1  0  0  0  0
 13 12  2  0  0  0  0
 14  6  2  0  0  0  0
 15  8  2  0  0  0  0
 16 17  1  1  0  0  0
 18 16  1  0  0  0  0
 18 19  1  0  0  0  0
 20 19  1  0  0  0  0
 21 20  1  0  0  0  0
 22 23  1  0  0  0  0
 22 21  1  0  0  0  0
 24 22  1  0  0  0  0
 24 23  1  0  0  0  0
 25 26  1  0  0  0  0
 26 21  1  0  0  0  0
M  END
>  <MODEL>
1

>  <REMARK>
 VINA RESULT:      -7.4      0.000      0.000
  Name = 
  8 active torsions:
  status: ('A' for Active; 'I' for Inactive)
    1  A    between atoms: C_1  and  C_10
    2  A    between atoms: C_1  and  C_21
    3  A    between atoms: C_3  and  C_21
    4  A    between atoms: C_3  and  C_23
    5  A    between atoms: C_5  and  N_18
    6  A    between atoms: C_8  and  C_14
    7  A    between atoms: N_18  and  C_23
    8  A    between atoms: N_18  and  C_24
                            x       y       z     vdW  Elec       q    Type
                         _______ _______ _______ _____ _____    ______ ____

>  <TORSDO>
F 8

$$$$
=
 OpenBabel10222419333D

 26 28  0  0  1  0  0  0  0  0999 V2000
  189.9490  177.7220  145.7480 N   0  0  0  0  0  2  0  0  0  0  0  0
  189.9090  177.6910  144.3180 C   0  0  0  0  0  0  0  0  0  0  0  0
  189.0600  176.8900  147.7190 O   0  0  0  0  0  0  0  0  0  0  0  0
  188.8390  177.4540  146.6140 C   0  0  0  0  0  0  0  0  0  0  0  0
  188.9430  177.1550  143.7110 O   0  0  0  0  0  0  0  0  0  0  0  0
  185.6940  178.2340  144.6640 C   0  0  0  0  0  0  0  0  0  0  0  0
  184.8750  178.7270  145.6970 C   0  0  0  0  0  0  0  0  0  0  0  0
  187.4600  177.8680  146.2780 C   0  0  0  0  0  0  0  0  0  0  0  0
  183.1090  179.0940  144.1550 C   0  0  0  0  0  3  0  0  0  0  0  0
  183.6100  179.1440  145.4190 N   0  0  0  0  0  0  0  0  0  0  0  0
  183.8940  178.6110  143.1030 C   0  0  0  0  0  3  0  0  0  0  0  0
  186.6140  178.3800  147.2740 C   0  0  0  0  0  3  0  0  0  0  0  0
  185.3530  178.7900  146.9680 N   0  0  0  0  0  0  0  0  0  0  0  0
  185.1970  178.1780  143.3620 C   0  0  0  0  0  3  0  0  0  0  0  0
  186.9880  177.8100  144.9600 C   0  0  0  0  0  3  0  0  0  0  0  0
  191.0390  178.2810  143.5450 C   0  0  1  0  0  3  0  0  0  0  0  0
  191.9580  178.8470  144.4130 F   0  0  0  0  0  0  0  0  0  0  0  0
  191.7000  177.2060  142.6960 C   0  0  0  0  0  2  0  0  0  0  0  0
  191.6870  177.5890  141.2260 C   0  0  0  0  0  2  0  0  0  0  0  0
  190.5960  176.8140  140.4800 C   0  0  0  0  0  2  0  0  0  0  0  0
  189.7420  177.6660  139.6400 N   0  0  0  0  0  0  0  0  0  0  0  0
  189.1560  176.8760  138.5610 C   0  0  0  0  0  3  0  0  0  0  0  0
  190.1930  175.9120  138.0130 C   0  0  0  0  0  2  0  0  0  0  0  0
  189.8730  177.1810  137.2570 C   0  0  0  0  0  2  0  0  0  0  0  0
  187.4910  178.4430  139.6140 N   0  0  0  0  0  1  0  0  0  0  0  0
  188.6590  178.2190  140.4480 C   0  0  0  0  0  2  0  0  0  0  0  0
  1  4  1  0  0  0  0
  2  1  1  0  0  0  0
  4  3  2  0  0  0  0
  5  2  2  0  0  0  0
  6 15  1  0  0  0  0
  6  7  1  0  0  0  0
  7 13  1  0  0  0  0
  8  4  1  0  0  0  0
  8 12  1  0  0  0  0
  9 10  1  0  0  0  0
 10  7  2  0  0  0  0
 11 14  1  0  0  0  0
 11  9  2  0  0  0  0
 13 12  2  0  0  0  0
 14  6  2  0  0  0  0
 15  8  2  0  0  0  0
 16  2  1  0  0  0  0
 16 17  1  1  0  0  0
 18 16  1  0  0  0  0
 19 18  1  0  0  0  0
 20 19  1  0  0  0  0
 21 26  1  0  0  0  0
 21 20  1  0  0  0  0
 22 21  1  0  0  0  0
 23 22  1  0  0  0  0
 24 23  1  0  0  0  0
 24 22  1  0  0  0  0
 25 26  1  0  0  0  0
M  END
>  <MODEL>
2

>  <REMARK>
 VINA RESULT:      -7.4      2.883      5.069
  Name = 
  8 active torsions:
  status: ('A' for Active; 'I' for Inactive)
    1  A    between atoms: C_1  and  C_10
    2  A    between atoms: C_1  and  C_21
    3  A    between atoms: C_3  and  C_21
    4  A    between atoms: C_3  and  C_23
    5  A    between atoms: C_5  and  N_18
    6  A    between atoms: C_8  and  C_14
    7  A    between atoms: N_18  and  C_23
    8  A    between atoms: N_18  and  C_24
                            x       y       z     vdW  Elec       q    Type
                         _______ _______ _______ _____ _____    ______ ____

>  <TORSDO>
F 8

$$$$
=
 OpenBabel10222419333D

 26 28  0  0  1  0  0  0  0  0999 V2000
  189.5640  177.6150  146.5660 N   0  0  0  0  0  2  0  0  0  0  0  0
  189.8120  177.2240  145.2120 C   0  0  0  0  0  0  0  0  0  0  0  0
  188.2270  177.3360  148.4380 O   0  0  0  0  0  0  0  0  0  0  0  0
  188.2830  177.6080  147.2090 C   0  0  0  0  0  0  0  0  0  0  0  0
  188.9470  176.5800  144.5580 O   0  0  0  0  0  0  0  0  0  0  0  0
  185.7580  178.1640  144.4480 C   0  0  0  0  0  0  0  0  0  0  0  0
  184.6960  178.7190  145.1880 C   0  0  0  0  0  0  0  0  0  0  0  0
  187.0400  177.9650  146.4920 C   0  0  0  0  0  0  0  0  0  0  0  0
  183.3970  178.9250  143.2140 C   0  0  0  0  0  3  0  0  0  0  0  0
  183.5490  179.0850  144.5570 N   0  0  0  0  0  0  0  0  0  0  0  0
  184.4300  178.3780  142.4460 C   0  0  0  0  0  3  0  0  0  0  0  0
  185.9620  178.5340  147.1870 C   0  0  0  0  0  3  0  0  0  0  0  0
  184.8250  178.8920  146.5310 N   0  0  0  0  0  0  0  0  0  0  0  0
  185.6190  177.9960  143.0710 C   0  0  0  0  0  3  0  0  0  0  0  0
  186.9300  177.7930  145.1050 C   0  0  0  0  0  3  0  0  0  0  0  0
  191.1200  177.5650  144.5840 C   0  0  1  0  0  3  0  0  0  0  0  0
  191.8480  176.4090  144.3590 F   0  0  0  0  0  0  0  0  0  0  0  0
  190.8880  178.3110  143.2790 C   0  0  0  0  0  2  0  0  0  0  0  0
  191.2880  177.4610  142.0860 C   0  0  0  0  0  2  0  0  0  0  0  0
  190.0510  176.8430  141.4280 C   0  0  0  0  0  2  0  0  0  0  0  0
  190.0560  176.9390  139.9620 N   0  0  0  0  0  0  0  0  0  0  0  0
  189.3850  178.1650  139.5390 C   0  0  0  0  0  3  0  0  0  0  0  0
  188.0760  178.3170  140.2940 C   0  0  0  0  0  2  0  0  0  0  0  0
  188.0680  177.8210  138.8650 C   0  0  0  0  0  2  0  0  0  0  0  0
  191.5940  176.0430  138.3790 N   0  0  0  0  0  1  0  0  0  0  0  0
  191.4340  176.9770  139.4800 C   0  0  0  0  0  2  0  0  0  0  0  0
  1  4  1  0  0  0  0
  2  1  1  0  0  0  0
  4  3  2  0  0  0  0
  5  2  2  0  0  0  0
  6 15  1  0  0  0  0
  6  7  1  0  0  0  0
  7 13  1  0  0  0  0
  8 12  1  0  0  0  0
  8  4  1  0  0  0  0
  9 10  1  0  0  0  0
 10  7  2  0  0  0  0
 11 14  1  0  0  0  0
 11  9  2  0  0  0  0
 13 12  2  0  0  0  0
 14  6  2  0  0  0  0
 15  8  2  0  0  0  0
 16 17  1  6  0  0  0
 16  2  1  0  0  0  0
 18 16  1  0  0  0  0
 19 18  1  0  0  0  0
 20 19  1  0  0  0  0
 21 20  1  0  0  0  0
 22 21  1  0  0  0  0
 22 23  1  0  0  0  0
 24 22  1  0  0  0  0
 24 23  1  0  0  0  0
 25 26  1  0  0  0  0
 26 21  1  0  0  0  0
M  END
>  <MODEL>
3

>  <REMARK>
 VINA RESULT:      -7.2      2.740      4.494
  Name = 
  8 active torsions:
  status: ('A' for Active; 'I' for Inactive)
    1  A    between atoms: C_1  and  C_10
    2  A    between atoms: C_1  and  C_21
    3  A    between atoms: C_3  and  C_21
    4  A    between atoms: C_3  and  C_23
    5  A    between atoms: C_5  and  N_18
    6  A    between atoms: C_8  and  C_14
    7  A    between atoms: N_18  and  C_23
    8  A    between atoms: N_18  and  C_24
                            x       y       z     vdW  Elec       q    Type
                         _______ _______ _______ _____ _____    ______ ____

>  <TORSDO>
F 8

$$$$
=
 OpenBabel10222419333D

 26 28  0  0  1  0  0  0  0  0999 V2000
  188.4920  177.5760  140.0990 N   0  0  0  0  0  2  0  0  0  0  0  0
  189.2800  177.7370  141.2820 C   0  0  0  0  0  0  0  0  0  0  0  0
  186.9690  178.5510  138.6510 O   0  0  0  0  0  0  0  0  0  0  0  0
  187.2450  178.2320  139.8390 C   0  0  0  0  0  0  0  0  0  0  0  0
  189.0610  178.6900  142.0790 O   0  0  0  0  0  0  0  0  0  0  0  0
  185.5890  178.4500  143.2310 C   0  0  0  0  0  0  0  0  0  0  0  0
  184.3210  178.9380  142.8600 C   0  0  0  0  0  0  0  0  0  0  0  0
  186.2540  178.4920  140.9040 C   0  0  1  0  0  3  0  0  0  0  0  0
  183.6240  178.9250  145.1280 C   0  0  0  0  0  3  0  0  0  0  0  0
  183.3750  179.1610  143.8110 N   0  0  0  0  0  0  0  0  0  0  0  0
  184.8720  178.4390  145.5340 C   0  0  0  0  0  3  0  0  0  0  0  0
  184.9730  178.9640  140.5780 C   0  0  0  0  0  3  0  0  0  0  0  0
  184.0460  179.1790  141.5500 N   0  0  0  0  0  0  0  0  0  0  0  0
  185.8600  178.2010  144.5760 C   0  0  0  0  0  2  0  0  0  0  0  0
  186.5490  178.2240  142.2480 C   0  0  0  0  0  3  0  0  0  0  0  0
  190.3870  176.7780  141.5560 C   0  0  1  0  0  3  0  0  0  0  0  0
  191.5660  177.4700  141.7780 F   0  0  0  0  0  0  0  0  0  0  0  0
  190.0390  175.9180  142.7620 C   0  0  0  0  0  2  0  0  0  0  0  0
  190.8280  176.3500  143.9860 C   0  0  0  0  0  2  0  0  0  0  0  0
  189.9200  177.0860  144.9770 C   0  0  0  0  0  2  0  0  0  0  0  0
  190.5410  177.3050  146.2910 N   0  0  0  0  0  0  0  0  0  0  0  0
  189.6420  176.8520  147.3490 C   0  0  0  0  0  3  0  0  0  0  0  0
  188.2510  177.4140  147.1140 C   0  0  0  0  0  2  0  0  0  0  0  0
  189.1530  178.0470  148.1490 C   0  0  0  0  0  2  0  0  0  0  0  0
  192.1320  176.3320  147.7720 N   0  0  0  0  0  1  0  0  0  0  0  0
  191.7800  176.5380  146.3780 C   0  0  0  0  0  2  0  0  0  0  0  0
  1  2  1  0  0  0  0
  2 16  1  0  0  0  0
  2  5  2  0  0  0  0
  3  4  2  0  0  0  0
  4  1  1  0  0  0  0
  6 14  1  0  0  0  0
  7  6  1  0  0  0  0
  7 10  2  0  0  0  0
  8  4  1  6  0  0  0
  8 15  1  0  0  0  0
  9 11  2  0  0  0  0
 10  9  1  0  0  0  0
 12  8  1  0  0  0  0
 12 13  2  0  0  0  0
 13  7  1  0  0  0  0
 14 11  1  0  0  0  0
 15  6  2  0  0  0  0
 16 17  1  1  0  0  0
 16 18  1  0  0  0  0
 18 19  1  0  0  0  0
 19 20  1  0  0  0  0
 20 21  1  0  0  0  0
 21 26  1  0  0  0  0
 21 22  1  0  0  0  0
 22 24  1  0  0  0  0
 23 22  1  0  0  0  0
 23 24  1  0  0  0  0
 26 25  1  0  0  0  0
M  END
>  <MODEL>
4

>  <REMARK>
 VINA RESULT:      -7.1      2.743      4.666
  Name = 
  8 active torsions:
  status: ('A' for Active; 'I' for Inactive)
    1  A    between atoms: C_1  and  C_10
    2  A    between atoms: C_1  and  C_21
    3  A    between atoms: C_3  and  C_21
    4  A    between atoms: C_3  and  C_23
    5  A    between atoms: C_5  and  N_18
    6  A    between atoms: C_8  and  C_14
    7  A    between atoms: N_18  and  C_23
    8  A    between atoms: N_18  and  C_24
                            x       y       z     vdW  Elec       q    Type
                         _______ _______ _______ _____ _____    ______ ____

>  <TORSDO>
F 8

$$$$
=
 OpenBabel10222419333D

 26 28  0  0  1  0  0  0  0  0999 V2000
  183.8600  178.5100  142.2450 N   0  0  0  0  0  2  0  0  0  0  0  0
  185.0250  179.0500  141.6140 C   0  0  0  0  0  0  0  0  0  0  0  0
  182.3510  178.7000  143.9930 O   0  0  0  0  0  0  0  0  0  0  0  0
  183.5580  178.5990  143.6430 C   0  0  0  0  0  0  0  0  0  0  0  0
  185.7510  179.8910  142.2130 O   0  0  0  0  0  0  0  0  0  0  0  0
  186.8030  177.8240  145.4230 C   0  0  0  0  0  0  0  0  0  0  0  0
  186.5150  178.3360  146.7030 C   0  0  0  0  0  0  0  0  0  0  0  0
  184.6060  178.5190  144.6830 C   0  0  1  0  0  3  0  0  0  0  0  0
  188.6620  177.6830  147.4730 C   0  0  0  0  0  3  0  0  0  0  0  0
  187.4460  178.2520  147.6910 N   0  0  0  0  0  0  0  0  0  0  0  0
  188.9830  177.1630  146.2150 C   0  0  0  0  0  3  0  0  0  0  0  0
  184.3570  179.0030  145.9760 C   0  0  0  0  0  3  0  0  0  0  0  0
  185.3060  178.9060  146.9460 N   0  0  0  0  0  0  0  0  0  0  0  0
  188.0450  177.2350  145.1830 C   0  0  0  0  0  2  0  0  0  0  0  0
  185.8420  177.9140  144.4180 C   0  0  0  0  0  3  0  0  0  0  0  0
  185.3640  178.6280  140.2260 C   0  0  1  0  0  3  0  0  0  0  0  0
  184.7630  179.4810  139.3150 F   0  0  0  0  0  0  0  0  0  0  0  0
  186.8740  178.6280  140.0400 C   0  0  0  0  0  2  0  0  0  0  0  0
  187.5660  177.9440  141.2060 C   0  0  0  0  0  2  0  0  0  0  0  0
  189.0680  178.2430  141.1880 C   0  0  0  0  0  2  0  0  0  0  0  0
  189.9010  177.0530  140.9650 N   0  0  0  0  0  0  0  0  0  0  0  0
  190.8090  177.2810  139.8440 C   0  0  0  0  0  3  0  0  0  0  0  0
  190.0060  177.5110  138.5750 C   0  0  0  0  0  2  0  0  0  0  0  0
  190.6520  176.1670  138.8240 C   0  0  0  0  0  2  0  0  0  0  0  0
  190.1800  175.6140  142.8420 N   0  0  0  0  0  1  0  0  0  0  0  0
  190.6990  176.7850  142.1580 C   0  0  0  0  0  2  0  0  0  0  0  0
  1  4  1  0  0  0  0
  2  5  2  0  0  0  0
  2  1  1  0  0  0  0
  4  3  2  0  0  0  0
  6  7  1  0  0  0  0
  7 13  1  0  0  0  0
  7 10  2  0  0  0  0
  8  4  1  1  0  0  0
  8 12  1  0  0  0  0
  9 10  1  0  0  0  0
 11  9  2  0  0  0  0
 12 13  2  0  0  0  0
 14  6  1  0  0  0  0
 14 11  1  0  0  0  0
 15  8  1  0  0  0  0
 15  6  2  0  0  0  0
 16 17  1  6  0  0  0
 16  2  1  0  0  0  0
 18 16  1  0  0  0  0
 18 19  1  0  0  0  0
 20 19  1  0  0  0  0
 21 20  1  0  0  0  0
 21 26  1  0  0  0  0
 22 21  1  0  0  0  0
 23 24  1  0  0  0  0
 23 22  1  0  0  0  0
 24 22  1  0  0  0  0
 26 25  1  0  0  0  0
M  END
>  <MODEL>
5

>  <REMARK>
 VINA RESULT:      -6.9      2.864      5.590
  Name = 
  8 active torsions:
  status: ('A' for Active; 'I' for Inactive)
    1  A    between atoms: C_1  and  C_10
    2  A    between atoms: C_1  and  C_21
    3  A    between atoms: C_3  and  C_21
    4  A    between atoms: C_3  and  C_23
    5  A    between atoms: C_5  and  N_18
    6  A    between atoms: C_8  and  C_14
    7  A    between atoms: N_18  and  C_23
    8  A    between atoms: N_18  and  C_24
                            x       y       z     vdW  Elec       q    Type
                         _______ _______ _______ _____ _____    ______ ____

>  <TORSDO>
F 8

$$$$
=
 OpenBabel10222419333D

 26 28  0  0  1  0  0  0  0  0999 V2000
  183.8090  178.7380  143.1960 N   0  0  0  0  0  2  0  0  0  0  0  0
  184.6270  179.0910  142.0760 C   0  0  0  0  0  0  0  0  0  0  0  0
  183.4300  179.0030  145.4660 O   0  0  0  0  0  0  0  0  0  0  0  0
  184.2470  178.6880  144.5590 C   0  0  0  0  0  0  0  0  0  0  0  0
  185.7440  179.6530  142.2450 O   0  0  0  0  0  0  0  0  0  0  0  0
  187.4020  178.0400  146.5410 C   0  0  0  0  0  0  0  0  0  0  0  0
  188.1820  177.3910  145.5650 C   0  0  0  0  0  0  0  0  0  0  0  0
  185.6000  178.2260  144.9360 C   0  0  1  0  0  3  0  0  0  0  0  0
  189.9740  177.1760  147.1050 C   0  0  0  0  0  3  0  0  0  0  0  0
  189.4420  176.9790  145.8680 N   0  0  0  0  0  0  0  0  0  0  0  0
  189.2290  177.8180  148.1000 C   0  0  0  0  0  3  0  0  0  0  0  0
  186.4180  177.5880  143.9900 C   0  0  0  0  0  3  0  0  0  0  0  0
  187.6740  177.1860  144.3200 N   0  0  0  0  0  0  0  0  0  0  0  0
  187.9330  178.2530  147.8130 C   0  0  0  0  0  2  0  0  0  0  0  0
  186.1130  178.4600  146.2190 C   0  0  0  0  0  3  0  0  0  0  0  0
  184.1360  178.8110  140.6980 C   0  0  1  0  0  3  0  0  0  0  0  0
  185.1760  178.3410  139.9140 F   0  0  0  0  0  0  0  0  0  0  0  0
  183.0060  177.7940  140.7490 C   0  0  0  0  0  2  0  0  0  0  0  0
  181.8750  178.1880  139.8140 C   0  0  0  0  0  2  0  0  0  0  0  0
  180.7230  178.8190  140.6030 C   0  0  0  0  0  2  0  0  0  0  0  0
  180.1230  177.9120  141.5920 N   0  0  0  0  0  0  0  0  0  0  0  0
  179.4640  178.6840  142.6420 C   0  0  0  0  0  3  0  0  0  0  0  0
  180.4270  179.7210  143.1930 C   0  0  0  0  0  2  0  0  0  0  0  0
  180.1690  178.4480  143.9670 C   0  0  0  0  0  2  0  0  0  0  0  0
  179.3060  175.6890  141.3430 N   0  0  0  0  0  1  0  0  0  0  0  0
  179.1230  177.0720  140.9400 C   0  0  0  0  0  2  0  0  0  0  0  0
  1  4  1  0  0  0  0
  2  5  2  0  0  0  0
  2  1  1  0  0  0  0
  4  3  2  0  0  0  0
  6 14  1  0  0  0  0
  7 10  2  0  0  0  0
  7  6  1  0  0  0  0
  8  4  1  6  0  0  0
  8 15  1  0  0  0  0
  9 11  2  0  0  0  0
 10  9  1  0  0  0  0
 12 13  2  0  0  0  0
 12  8  1  0  0  0  0
 13  7  1  0  0  0  0
 14 11  1  0  0  0  0
 15  6  2  0  0  0  0
 16 17  1  6  0  0  0
 16 18  1  0  0  0  0
 16  2  1  0  0  0  0
 19 20  1  0  0  0  0
 19 18  1  0  0  0  0
 20 21  1  0  0  0  0
 21 22  1  0  0  0  0
 22 23  1  0  0  0  0
 22 24  1  0  0  0  0
 23 24  1  0  0  0  0
 26 25  1  0  0  0  0
 26 21  1  0  0  0  0
M  END
>  <MODEL>
6

>  <REMARK>
 VINA RESULT:      -6.8      3.250      8.234
  Name = 
  8 active torsions:
  status: ('A' for Active; 'I' for Inactive)
    1  A    between atoms: C_1  and  C_10
    2  A    between atoms: C_1  and  C_21
    3  A    between atoms: C_3  and  C_21
    4  A    between atoms: C_3  and  C_23
    5  A    between atoms: C_5  and  N_18
    6  A    between atoms: C_8  and  C_14
    7  A    between atoms: N_18  and  C_23
    8  A    between atoms: N_18  and  C_24
                            x       y       z     vdW  Elec       q    Type
                         _______ _______ _______ _____ _____    ______ ____

>  <TORSDO>
F 8

$$$$
=
 OpenBabel10222419333D

 26 28  0  0  1  0  0  0  0  0999 V2000
  190.5310  176.7950  140.9500 N   0  0  0  0  0  2  0  0  0  0  0  0
  189.5390  177.3220  141.8370 C   0  0  0  0  0  0  0  0  0  0  0  0
  191.7890  177.1500  139.0370 O   0  0  0  0  0  0  0  0  0  0  0  0
  190.6410  177.1020  139.5540 C   0  0  0  0  0  0  0  0  0  0  0  0
  188.8420  178.3190  141.5050 O   0  0  0  0  0  0  0  0  0  0  0  0
  187.6040  176.4310  137.4030 C   0  0  0  0  0  0  0  0  0  0  0  0
  187.2700  177.7450  137.0250 C   0  0  0  0  0  0  0  0  0  0  0  0
  189.4540  177.3040  138.6960 C   0  0  0  0  0  0  0  0  0  0  0  0
  185.4370  176.9390  135.7520 C   0  0  0  0  0  3  0  0  0  0  0  0
  186.2020  177.9660  136.2130 N   0  0  0  0  0  0  0  0  0  0  0  0
  185.7390  175.6200  136.1060 C   0  0  0  0  0  3  0  0  0  0  0  0
  189.0940  178.5960  138.2830 C   0  0  0  0  0  3  0  0  0  0  0  0
  188.0200  178.7880  137.4690 N   0  0  0  0  0  0  0  0  0  0  0  0
  186.8320  175.3660  136.9380 C   0  0  0  0  0  3  0  0  0  0  0  0
  188.7010  176.2160  138.2350 C   0  0  0  0  0  3  0  0  0  0  0  0
  189.3520  176.6950  143.1750 C   0  0  1  0  0  3  0  0  0  0  0  0
  188.2220  175.8950  143.1660 F   0  0  0  0  0  0  0  0  0  0  0  0
  190.5820  175.8750  143.5380 C   0  0  0  0  0  2  0  0  0  0  0  0
  191.4340  176.5980  144.5670 C   0  0  0  0  0  2  0  0  0  0  0  0
  190.5590  177.4800  145.4640 C   0  0  0  0  0  2  0  0  0  0  0  0
  190.6300  177.1210  146.8880 N   0  0  0  0  0  0  0  0  0  0  0  0
  189.3230  176.6690  147.3550 C   0  0  0  0  0  3  0  0  0  0  0  0
  188.2310  177.4880  146.6890 C   0  0  0  0  0  2  0  0  0  0  0  0
  188.6350  177.7900  148.1140 C   0  0  0  0  0  2  0  0  0  0  0  0
  192.5390  176.3870  148.1090 N   0  0  0  0  0  1  0  0  0  0  0  0
  191.5870  176.0340  147.0700 C   0  0  0  0  0  2  0  0  0  0  0  0
  1  2  1  0  0  0  0
  2 16  1  0  0  0  0
  3  4  2  0  0  0  0
  4  1  1  0  0  0  0
  5  2  2  0  0  0  0
  6 15  1  0  0  0  0
  7  6  1  0  0  0  0
  7 13  1  0  0  0  0
  8  4  1  0  0  0  0
  9 11  2  0  0  0  0
  9 10  1  0  0  0  0
 10  7  2  0  0  0  0
 11 14  1  0  0  0  0
 12  8  1  0  0  0  0
 13 12  2  0  0  0  0
 14  6  2  0  0  0  0
 15  8  2  0  0  0  0
 16 17  1  6  0  0  0
 16 18  1  0  0  0  0
 18 19  1  0  0  0  0
 19 20  1  0  0  0  0
 20 21  1  0  0  0  0
 21 26  1  0  0  0  0
 21 22  1  0  0  0  0
 22 24  1  0  0  0  0
 23 22  1  0  0  0  0
 23 24  1  0  0  0  0
 26 25  1  0  0  0  0
M  END
>  <MODEL>
7

>  <REMARK>
 VINA RESULT:      -6.8      3.834      5.263
  Name = 
  8 active torsions:
  status: ('A' for Active; 'I' for Inactive)
    1  A    between atoms: C_1  and  C_10
    2  A    between atoms: C_1  and  C_21
    3  A    between atoms: C_3  and  C_21
    4  A    between atoms: C_3  and  C_23
    5  A    between atoms: C_5  and  N_18
    6  A    between atoms: C_8  and  C_14
    7  A    between atoms: N_18  and  C_23
    8  A    between atoms: N_18  and  C_24
                            x       y       z     vdW  Elec       q    Type
                         _______ _______ _______ _____ _____    ______ ____

>  <TORSDO>
F 8

$$$$
=
 OpenBabel10222419333D

 26 28  0  0  1  0  0  0  0  0999 V2000
  184.7020  178.7420  144.8810 N   0  0  0  0  0  2  0  0  0  0  0  0
  185.8710  178.0910  145.3890 C   0  0  0  0  0  0  0  0  0  0  0  0
  182.9900  178.6880  143.3220 O   0  0  0  0  0  0  0  0  0  0  0  0
  184.2330  178.6660  143.5290 C   0  0  0  0  0  0  0  0  0  0  0  0
  186.4320  177.1710  144.7340 O   0  0  0  0  0  0  0  0  0  0  0  0
  187.3560  178.2490  141.4390 C   0  0  0  0  0  0  0  0  0  0  0  0
  186.8640  178.6240  140.1750 C   0  0  0  0  0  0  0  0  0  0  0  0
  185.1560  178.6220  142.3750 C   0  0  0  0  0  0  0  0  0  0  0  0
  189.0000  178.2620  139.2080 C   0  0  0  0  0  3  0  0  0  0  0  0
  187.6930  178.6230  139.0970 N   0  0  0  0  0  0  0  0  0  0  0  0
  189.5250  177.8840  140.4480 C   0  0  0  0  0  3  0  0  0  0  0  0
  184.7110  179.0030  141.1000 C   0  0  0  0  0  3  0  0  0  0  0  0
  185.5620  178.9930  140.0380 N   0  0  0  0  0  0  0  0  0  0  0  0
  188.6950  177.8780  141.5710 C   0  0  0  0  0  3  0  0  0  0  0  0
  186.4990  178.2540  142.5370 C   0  0  0  0  0  3  0  0  0  0  0  0
  186.4100  178.4940  146.7180 C   0  0  1  0  0  3  0  0  0  0  0  0
  185.3660  178.7160  147.6010 F   0  0  0  0  0  0  0  0  0  0  0  0
  187.3370  177.4120  147.2500 C   0  0  0  0  0  2  0  0  0  0  0  0
  188.7370  177.9570  147.4760 C   0  0  0  0  0  2  0  0  0  0  0  0
  189.5380  177.9370  146.1700 C   0  0  0  0  0  2  0  0  0  0  0  0
  190.3940  176.7510  146.0250 N   0  0  0  0  0  0  0  0  0  0  0  0
  191.5950  177.0920  145.2660 C   0  0  0  0  0  3  0  0  0  0  0  0
  191.2510  178.1190  144.2010 C   0  0  0  0  0  2  0  0  0  0  0  0
  191.4220  176.6670  143.8180 C   0  0  0  0  0  2  0  0  0  0  0  0
  192.2300  176.4770  147.5180 N   0  0  0  0  0  1  0  0  0  0  0  0
  190.8010  176.2790  147.3450 C   0  0  0  0  0  2  0  0  0  0  0  0
  1  2  1  0  0  0  0
  2 16  1  0  0  0  0
  3  4  2  0  0  0  0
  4  1  1  0  0  0  0
  5  2  2  0  0  0  0
  6 14  2  0  0  0  0
  6 15  1  0  0  0  0
  7  6  1  0  0  0  0
  8 15  2  0  0  0  0
  8  4  1  0  0  0  0
  9 11  2  0  0  0  0
 10  9  1  0  0  0  0
 10  7  2  0  0  0  0
 11 14  1  0  0  0  0
 12  8  1  0  0  0  0
 13  7  1  0  0  0  0
 13 12  2  0  0  0  0
 16 18  1  0  0  0  0
 16 17  1  1  0  0  0
 18 19  1  0  0  0  0
 20 19  1  0  0  0  0
 21 20  1  0  0  0  0
 21 26  1  0  0  0  0
 22 21  1  0  0  0  0
 23 22  1  0  0  0  0
 24 23  1  0  0  0  0
 24 22  1  0  0  0  0
 26 25  1  0  0  0  0
M  END
>  <MODEL>
8

>  <REMARK>
 VINA RESULT:      -6.7      1.861      2.872
  Name = 
  8 active torsions:
  status: ('A' for Active; 'I' for Inactive)
    1  A    between atoms: C_1  and  C_10
    2  A    between atoms: C_1  and  C_21
    3  A    between atoms: C_3  and  C_21
    4  A    between atoms: C_3  and  C_23
    5  A    between atoms: C_5  and  N_18
    6  A    between atoms: C_8  and  C_14
    7  A    between atoms: N_18  and  C_23
    8  A    between atoms: N_18  and  C_24
                            x       y       z     vdW  Elec       q    Type
                         _______ _______ _______ _____ _____    ______ ____

>  <TORSDO>
F 8

$$$$
=
 OpenBabel10222419333D

 26 28  0  0  1  0  0  0  0  0999 V2000
  189.5110  177.7140  141.3300 N   0  0  0  0  0  2  0  0  0  0  0  0
  189.9970  176.8350  142.3500 C   0  0  0  0  0  0  0  0  0  0  0  0
  188.7910  177.9090  139.1370 O   0  0  0  0  0  0  0  0  0  0  0  0
  189.7040  177.5350  139.9220 C   0  0  0  0  0  0  0  0  0  0  0  0
  190.4070  175.6780  142.0620 O   0  0  0  0  0  0  0  0  0  0  0  0
  192.1260  175.3850  137.9700 C   0  0  0  0  0  0  0  0  0  0  0  0
  193.3490  175.9390  138.3920 C   0  0  0  0  0  0  0  0  0  0  0  0
  190.9550  176.9820  139.3610 C   0  0  0  0  0  0  0  0  0  0  0  0
  194.5420  174.4010  137.0360 C   0  0  0  0  0  3  0  0  0  0  0  0
  194.5210  175.4360  137.9190 N   0  0  0  0  0  0  0  0  0  0  0  0
  193.3470  173.8240  136.5950 C   0  0  0  0  0  3  0  0  0  0  0  0
  192.1970  177.4940  139.7660 C   0  0  0  0  0  3  0  0  0  0  0  0
  193.3540  176.9710  139.2770 N   0  0  0  0  0  0  0  0  0  0  0  0
  192.1300  174.3210  137.0670 C   0  0  0  0  0  3  0  0  0  0  0  0
  190.9320  175.9070  138.4620 C   0  0  0  0  0  3  0  0  0  0  0  0
  189.9910  177.2920  143.7680 C   0  0  1  0  0  3  0  0  0  0  0  0
  190.0060  178.6760  143.8170 F   0  0  0  0  0  0  0  0  0  0  0  0
  188.7640  176.7460  144.4820 C   0  0  0  0  0  2  0  0  0  0  0  0
  187.5380  176.8130  143.5870 C   0  0  0  0  0  2  0  0  0  0  0  0
  186.5040  177.7830  144.1670 C   0  0  0  0  0  2  0  0  0  0  0  0
  185.5160  178.2440  143.1810 N   0  0  0  0  0  0  0  0  0  0  0  0
  184.7150  179.3270  143.7460 C   0  0  0  0  0  3  0  0  0  0  0  0
  184.3490  178.9960  145.1820 C   0  0  0  0  0  2  0  0  0  0  0  0
  183.3270  178.8120  144.0840 C   0  0  0  0  0  2  0  0  0  0  0  0
  185.2490  179.3710  141.1000 N   0  0  0  0  0  1  0  0  0  0  0  0
  186.2060  178.7500  141.9980 C   0  0  0  0  0  2  0  0  0  0  0  0
  1  2  1  0  0  0  0
  2 16  1  0  0  0  0
  3  4  2  0  0  0  0
  4  1  1  0  0  0  0
  5  2  2  0  0  0  0
  6  7  1  0  0  0  0
  6 15  1  0  0  0  0
  7 13  1  0  0  0  0
  8 12  1  0  0  0  0
  8  4  1  0  0  0  0
  9 10  1  0  0  0  0
 10  7  2  0  0  0  0
 11  9  2  0  0  0  0
 11 14  1  0  0  0  0
 13 12  2  0  0  0  0
 14  6  2  0  0  0  0
 15  8  2  0  0  0  0
 16 17  1  6  0  0  0
 16 18  1  0  0  0  0
 19 20  1  0  0  0  0
 19 18  1  0  0  0  0
 21 22  1  0  0  0  0
 21 20  1  0  0  0  0
 22 24  1  0  0  0  0
 22 23  1  0  0  0  0
 24 23  1  0  0  0  0
 25 26  1  0  0  0  0
 26 21  1  0  0  0  0
M  END
>  <MODEL>
9

>  <REMARK>
 VINA RESULT:      -6.7      4.340      7.386
  Name = 
  8 active torsions:
  status: ('A' for Active; 'I' for Inactive)
    1  A    between atoms: C_1  and  C_10
    2  A    between atoms: C_1  and  C_21
    3  A    between atoms: C_3  and  C_21
    4  A    between atoms: C_3  and  C_23
    5  A    between atoms: C_5  and  N_18
    6  A    between atoms: C_8  and  C_14
    7  A    between atoms: N_18  and  C_23
    8  A    between atoms: N_18  and  C_24
                            x       y       z     vdW  Elec       q    Type
                         _______ _______ _______ _____ _____    ______ ____

>  <TORSDO>
F 8

$$$$
