=
 OpenBabel10222415253D

 47 55  0  0  1  0  0  0  0  0999 V2000
  191.2780  176.2740  145.4280 C   0  0  0  0  0  3  0  0  0  0  0  0
  183.4640  179.3090  145.1190 N   0  0  0  0  0  0  0  0  0  0  0  0
  191.7240  176.6270  147.5530 N   0  0  0  0  0  0  0  0  0  0  0  0
  186.1650  177.7480  143.3550 C   0  0  0  0  0  2  0  0  0  0  0  0
  188.3370  177.9420  147.7570 C   0  0  0  0  0  3  0  0  0  0  0  0
  184.7430  178.7580  145.0200 N   0  0  0  0  0  0  0  0  0  0  0  0
  187.1150  177.6030  144.3710 C   0  0  0  0  0  0  0  0  0  0  0  0
  189.5820  177.5720  148.2180 N   0  0  0  0  0  0  0  0  0  0  0  0
  183.7670  178.6370  142.9780 C   0  0  0  0  0  0  0  0  0  0  0  0
  184.9610  178.3510  143.7480 C   0  0  0  0  0  0  0  0  0  0  0  0
  188.9340  177.1520  145.5580 N   0  0  0  0  0  0  0  0  0  0  0  0
  183.5830  178.4280  141.6730 C   0  0  0  0  0  2  0  0  0  0  0  0
  190.4620  177.0080  147.3380 C   0  0  0  0  0  0  0  0  0  0  0  0
  192.4580  176.7040  148.8060 C   0  0  0  0  0  1  0  0  0  0  0  0
  188.3940  177.0700  144.3200 C   0  0  0  0  0  0  0  0  0  0  0  0
  186.8770  178.0210  145.6770 C   0  0  0  0  0  0  0  0  0  0  0  0
  190.1550  176.7990  146.0340 C   0  0  0  0  0  0  0  0  0  0  0  0
  185.6590  178.6190  146.0210 C   0  0  0  0  0  0  0  0  0  0  0  0
  182.8330  179.2520  143.8640 N   0  0  0  0  0  0  0  0  0  0  0  0
  188.0260  177.7240  146.3930 C   0  0  0  0  0  0  0  0  0  0  0  0
  192.2270  176.1810  146.4030 N   0  0  0  0  0  0  0  0  0  0  0  0
  185.4150  179.0150  147.1900 O   0  0  0  0  0  0  0  0  0  0  0  0
  182.3390  178.6820  141.0100 N   0  0  0  0  0  2  0  0  0  0  0  0
  181.9060  178.0380  139.8050 C   0  0  0  0  0  0  0  0  0  0  0  0
  180.7100  178.1880  139.4200 O   0  0  0  0  0  0  0  0  0  0  0  0
  183.4280  177.1360  136.5380 C   0  0  0  0  0  3  0  0  0  0  0  0
  182.8040  177.8170  137.5040 C   0  0  0  0  0  3  0  0  0  0  0  0
  184.1780  175.8800  136.8990 C   0  0  0  0  0  2  0  0  0  0  0  0
  182.8820  177.3180  138.9270 C   0  0  2  0  0  3  0  0  0  0  0  0
  183.3070  175.0130  137.8160 C   0  0  0  0  0  2  0  0  0  0  0  0
  182.7530  175.7830  139.0370 C   0  0  0  0  0  2  0  0  0  0  0  0
  189.0410  176.4440  143.1230 C   0  0  0  0  0  2  0  0  0  0  0  0
  189.9400  177.4630  142.4450 C   0  0  2  0  0  3  0  0  0  0  0  0
  189.9050  178.7920  143.1760 C   0  0  0  0  0  1  0  0  0  0  0  0
  188.2150  177.9630  138.8010 S   0  0  0  0  0  0  0  0  0  0  0  0
  190.1160  176.1390  137.8010 N   0  0  0  0  0  2  0  0  0  0  0  0
  190.1970  176.8310  140.0740 N   0  0  0  0  0  0  0  0  0  0  0  0
  188.3590  178.2990  140.5990 C   0  0  0  0  0  2  0  0  0  0  0  0
  189.6400  176.8940  138.9190 C   0  0  0  0  0  0  0  0  0  0  0  0
  189.5730  177.6150  141.0450 N   0  0  0  0  0  0  0  0  0  0  0  0
  191.6030  174.5890  136.5400 C   0  0  2  0  0  0  0  0  0  0  0  0
  191.2430  175.2200  137.8950 C   0  0  1  0  0  0  0  0  0  0  0  0
  192.6180  176.0220  137.0580 S   0  0  0  0  0  0  0  0  0  0  0  0
  190.7570  173.9210  137.5230 N   0  0  0  0  0  2  0  0  0  0  0  0
  192.6290  173.6540  136.3830 O   0  0  0  0  0  0  0  0  0  0  0  0
  192.0920  172.6550  135.5730 C   0  0  0  0  0  2  0  0  0  0  0  0
  193.0130  171.4510  135.5830 C   0  0  0  0  0  1  0  0  0  0  0  0
  1 17  1  0  0  0  0
  1 21  2  0  0  0  0
  3 14  1  0  0  0  0
  4 10  1  0  0  0  0
  4  7  1  0  0  0  0
  5  8  2  0  0  0  0
  6  2  1  0  0  0  0
  6 18  1  0  0  0  0
  7 16  1  0  0  0  0
  9 10  2  0  0  0  0
  9 19  1  0  0  0  0
 10  6  1  0  0  0  0
 11 17  1  0  0  0  0
 11 20  1  0  0  0  0
 12  9  1  0  0  0  0
 13  3  1  0  0  0  0
 13  8  1  0  0  0  0
 15  7  2  0  0  0  0
 15 11  1  0  0  0  0
 16 18  1  0  0  0  0
 16 20  2  0  0  0  0
 17 13  2  0  0  0  0
 18 22  2  0  0  0  0
 19  2  2  0  0  0  0
 20  5  1  0  0  0  0
 21  3  1  0  0  0  0
 23 12  1  0  0  0  0
 24 23  1  0  0  0  0
 25 24  2  0  0  0  0
 26 28  1  0  0  0  0
 26 27  2  0  0  0  0
 27 29  1  0  0  0  0
 28 30  1  0  0  0  0
 29 31  1  0  0  0  0
 29 24  1  1  0  0  0
 30 31  1  0  0  0  0
 32 15  1  0  0  0  0
 33 32  1  0  0  0  0
 33 34  1  1  0  0  0
 35 39  1  0  0  0  0
 35 38  1  0  0  0  0
 36 39  1  0  0  0  0
 37 40  1  0  0  0  0
 38 40  1  0  0  0  0
 39 37  2  0  0  0  0
 40 33  1  0  0  0  0
 41 45  1  1  0  0  0
 41 43  1  0  0  0  0
 41 44  1  0  0  0  0
 41 42  1  0  0  0  0
 42 36  1  6  0  0  0
 43 42  1  0  0  0  0
 44 42  1  0  0  0  0
 46 47  1  0  0  0  0
 46 45  1  0  0  0  0
M  END
>  <MODEL>
1

>  <REMARK>
 VINA RESULT:     -10.8      0.000      0.000
  Name = 
  8 active torsions:
  status: ('A' for Active; 'I' for Inactive)
    1  A    between atoms: C_1  and  O_21
    2  A    between atoms: N_2  and  C_25
    3  A    between atoms: C_3  and  N_10
    4  A    between atoms: C_9  and  C_28
    5  A    between atoms: C_13  and  C_32
    6  A    between atoms: C_13  and  C_40
    7  A    between atoms: C_15  and  O_21
    8  A    between atoms: C_40  and  N_41
                            x       y       z     vdW  Elec       q    Type
                         _______ _______ _______ _____ _____    ______ ____

>  <TORSDO>
F 8

$$$$
=
 OpenBabel10222415253D

 47 55  0  0  1  0  0  0  0  0999 V2000
  191.1260  176.2550  144.8640 C   0  0  0  0  0  3  0  0  0  0  0  0
  183.2710  179.1900  145.0950 N   0  0  0  0  0  0  0  0  0  0  0  0
  191.6410  176.4200  146.9960 N   0  0  0  0  0  0  0  0  0  0  0  0
  185.9280  177.8370  143.1070 C   0  0  0  0  0  2  0  0  0  0  0  0
  188.2480  177.6610  147.4330 C   0  0  0  0  0  3  0  0  0  0  0  0
  184.5520  178.6700  144.9030 N   0  0  0  0  0  0  0  0  0  0  0  0
  186.9150  177.6130  144.0720 C   0  0  0  0  0  0  0  0  0  0  0  0
  189.5130  177.2690  147.8160 N   0  0  0  0  0  0  0  0  0  0  0  0
  183.5080  178.7210  142.8920 C   0  0  0  0  0  0  0  0  0  0  0  0
  184.7320  178.3830  143.5930 C   0  0  0  0  0  0  0  0  0  0  0  0
  188.7790  177.0840  145.1520 N   0  0  0  0  0  0  0  0  0  0  0  0
  183.2820  178.6280  141.5810 C   0  0  0  0  0  2  0  0  0  0  0  0
  190.3680  176.8000  146.8600 C   0  0  0  0  0  0  0  0  0  0  0  0
  192.4170  176.3940  148.2260 C   0  0  0  0  0  1  0  0  0  0  0  0
  188.1960  177.1070  143.9310 C   0  0  0  0  0  0  0  0  0  0  0  0
  186.7170  177.9070  145.4180 C   0  0  0  0  0  0  0  0  0  0  0  0
  190.0190  176.7070  145.5530 C   0  0  0  0  0  0  0  0  0  0  0  0
  185.5040  178.4540  145.8560 C   0  0  0  0  0  0  0  0  0  0  0  0
  182.5980  179.2380  143.8620 N   0  0  0  0  0  0  0  0  0  0  0  0
  187.8930  177.5640  146.0660 C   0  0  0  0  0  0  0  0  0  0  0  0
  192.1090  176.0880  145.7940 N   0  0  0  0  0  0  0  0  0  0  0  0
  185.2970  178.7380  147.0640 O   0  0  0  0  0  0  0  0  0  0  0  0
  182.0130  178.9230  140.9860 N   0  0  0  0  0  2  0  0  0  0  0  0
  181.2940  178.0460  140.1100 C   0  0  0  0  0  0  0  0  0  0  0  0
  180.0970  178.3200  139.8050 O   0  0  0  0  0  0  0  0  0  0  0  0
  183.1510  176.4280  137.3280 C   0  0  0  0  0  3  0  0  0  0  0  0
  182.6830  177.3480  138.1770 C   0  0  0  0  0  3  0  0  0  0  0  0
  182.9510  174.9700  137.6490 C   0  0  0  0  0  2  0  0  0  0  0  0
  181.9850  176.8990  139.4390 C   0  0  2  0  0  3  0  0  0  0  0  0
  181.5000  174.7390  138.0860 C   0  0  0  0  0  2  0  0  0  0  0  0
  181.0430  175.6950  139.2120 C   0  0  0  0  0  2  0  0  0  0  0  0
  188.8090  176.6010  142.6600 C   0  0  0  0  0  2  0  0  0  0  0  0
  189.5660  177.7300  141.9820 C   0  0  2  0  0  3  0  0  0  0  0  0
  188.6090  178.7350  141.3690 C   0  0  0  0  0  1  0  0  0  0  0  0
  192.5420  176.8780  139.3520 S   0  0  0  0  0  0  0  0  0  0  0  0
  190.5740  175.7070  137.7110 N   0  0  0  0  0  2  0  0  0  0  0  0
  189.9990  176.5550  139.8560 N   0  0  0  0  0  0  0  0  0  0  0  0
  191.9020  177.5790  140.9230 C   0  0  0  0  0  2  0  0  0  0  0  0
  190.8890  176.3320  138.9590 C   0  0  0  0  0  0  0  0  0  0  0  0
  190.4910  177.2010  140.9910 N   0  0  0  0  0  0  0  0  0  0  0  0
  189.0550  175.0750  135.8410 C   0  0  2  0  0  0  0  0  0  0  0  0
  189.2200  175.3060  137.3520 C   0  0  1  0  0  0  0  0  0  0  0  0
  189.3190  173.5790  136.8620 S   0  0  0  0  0  0  0  0  0  0  0  0
  188.6940  176.3300  136.4930 N   0  0  0  0  0  2  0  0  0  0  0  0
  187.8410  174.7140  135.2530 O   0  0  0  0  0  0  0  0  0  0  0  0
  187.3890  175.8660  134.6110 C   0  0  0  0  0  2  0  0  0  0  0  0
  185.8740  175.9100  134.6660 C   0  0  0  0  0  1  0  0  0  0  0  0
  1 17  1  0  0  0  0
  1 21  2  0  0  0  0
  3 14  1  0  0  0  0
  4 10  1  0  0  0  0
  4  7  1  0  0  0  0
  5  8  2  0  0  0  0
  6  2  1  0  0  0  0
  6 18  1  0  0  0  0
  7 16  1  0  0  0  0
  9 10  2  0  0  0  0
  9 19  1  0  0  0  0
 10  6  1  0  0  0  0
 11 17  1  0  0  0  0
 11 20  1  0  0  0  0
 12  9  1  0  0  0  0
 13  3  1  0  0  0  0
 13  8  1  0  0  0  0
 15  7  2  0  0  0  0
 15 11  1  0  0  0  0
 16 18  1  0  0  0  0
 16 20  2  0  0  0  0
 17 13  2  0  0  0  0
 18 22  2  0  0  0  0
 19  2  2  0  0  0  0
 20  5  1  0  0  0  0
 21  3  1  0  0  0  0
 23 12  1  0  0  0  0
 24 23  1  0  0  0  0
 25 24  2  0  0  0  0
 26 28  1  0  0  0  0
 26 27  2  0  0  0  0
 27 29  1  0  0  0  0
 28 30  1  0  0  0  0
 29 24  1  6  0  0  0
 30 31  1  0  0  0  0
 31 29  1  0  0  0  0
 32 15  1  0  0  0  0
 33 34  1  6  0  0  0
 33 32  1  0  0  0  0
 35 38  1  0  0  0  0
 36 39  1  0  0  0  0
 37 40  1  0  0  0  0
 38 40  1  0  0  0  0
 39 35  1  0  0  0  0
 39 37  2  0  0  0  0
 40 33  1  0  0  0  0
 41 45  1  1  0  0  0
 41 44  1  0  0  0  0
 41 43  1  0  0  0  0
 41 42  1  0  0  0  0
 42 36  1  1  0  0  0
 43 42  1  0  0  0  0
 44 42  1  0  0  0  0
 46 47  1  0  0  0  0
 46 45  1  0  0  0  0
M  END
>  <MODEL>
2

>  <REMARK>
 VINA RESULT:     -10.4      1.645      2.213
  Name = 
  8 active torsions:
  status: ('A' for Active; 'I' for Inactive)
    1  A    between atoms: C_1  and  O_21
    2  A    between atoms: N_2  and  C_25
    3  A    between atoms: C_3  and  N_10
    4  A    between atoms: C_9  and  C_28
    5  A    between atoms: C_13  and  C_32
    6  A    between atoms: C_13  and  C_40
    7  A    between atoms: C_15  and  O_21
    8  A    between atoms: C_40  and  N_41
                            x       y       z     vdW  Elec       q    Type
                         _______ _______ _______ _____ _____    ______ ____

>  <TORSDO>
F 8

$$$$
=
 OpenBabel10222415253D

 47 55  0  0  1  0  0  0  0  0999 V2000
  190.6540  177.7820  143.7810 C   0  0  0  0  0  3  0  0  0  0  0  0
  182.4590  178.7870  142.3030 N   0  0  0  0  0  0  0  0  0  0  0  0
  190.5770  177.2310  145.9090 N   0  0  0  0  0  0  0  0  0  0  0  0
  185.7900  178.8390  140.9830 C   0  0  0  0  0  2  0  0  0  0  0  0
  186.9660  177.5150  145.5650 C   0  0  0  0  0  3  0  0  0  0  0  0
  183.8440  178.6430  142.3930 N   0  0  0  0  0  0  0  0  0  0  0  0
  186.5410  178.4700  142.1030 C   0  0  0  0  0  0  0  0  0  0  0  0
  188.1620  177.2670  146.2040 N   0  0  0  0  0  0  0  0  0  0  0  0
  183.3390  179.2380  140.2660 C   0  0  0  0  0  0  0  0  0  0  0  0
  184.4060  178.9120  141.1920 C   0  0  0  0  0  0  0  0  0  0  0  0
  188.1680  177.9560  143.5210 N   0  0  0  0  0  0  0  0  0  0  0  0
  183.4670  179.6030  138.9890 C   0  0  0  0  0  2  0  0  0  0  0  0
  189.3190  177.3730  145.4860 C   0  0  0  0  0  0  0  0  0  0  0  0
  191.0120  176.8990  147.2570 C   0  0  0  0  0  1  0  0  0  0  0  0
  187.9110  178.3200  142.2430 C   0  0  0  0  0  0  0  0  0  0  0  0
  185.9520  178.1900  143.3330 C   0  0  0  0  0  0  0  0  0  0  0  0
  189.3330  177.7110  144.1730 C   0  0  0  0  0  0  0  0  0  0  0  0
  184.5640  178.2790  143.4930 C   0  0  0  0  0  0  0  0  0  0  0  0
  182.1130  179.1600  140.9920 N   0  0  0  0  0  0  0  0  0  0  0  0
  186.9890  177.8700  144.1940 C   0  0  0  0  0  0  0  0  0  0  0  0
  191.3930  177.4760  144.8860 N   0  0  0  0  0  0  0  0  0  0  0  0
  184.0020  178.0400  144.5930 O   0  0  0  0  0  0  0  0  0  0  0  0
  182.3460  179.8410  138.1290 N   0  0  0  0  0  2  0  0  0  0  0  0
  181.5810  178.8190  137.4780 C   0  0  0  0  0  0  0  0  0  0  0  0
  180.4950  179.1290  136.9080 O   0  0  0  0  0  0  0  0  0  0  0  0
  183.3950  176.1030  135.7080 C   0  0  0  0  0  3  0  0  0  0  0  0
  183.0140  177.3140  136.1250 C   0  0  0  0  0  3  0  0  0  0  0  0
  182.9060  174.8880  136.4540 C   0  0  0  0  0  2  0  0  0  0  0  0
  182.1210  177.4290  137.3370 C   0  0  2  0  0  3  0  0  0  0  0  0
  181.4000  175.0180  136.7080 C   0  0  0  0  0  2  0  0  0  0  0  0
  181.0080  176.3580  137.3720 C   0  0  0  0  0  2  0  0  0  0  0  0
  188.9300  178.4630  141.1530 C   0  0  0  0  0  2  0  0  0  0  0  0
  189.0600  177.1450  140.4100 C   0  0  2  0  0  3  0  0  0  0  0  0
  190.4630  176.5830  140.5400 C   0  0  0  0  0  1  0  0  0  0  0  0
  187.6560  178.2240  136.7540 S   0  0  0  0  0  0  0  0  0  0  0  0
  187.2900  175.4790  136.2330 N   0  0  0  0  0  2  0  0  0  0  0  0
  188.2950  176.1910  138.2670 N   0  0  0  0  0  0  0  0  0  0  0  0
  188.3420  178.5970  138.4150 C   0  0  0  0  0  2  0  0  0  0  0  0
  187.7720  176.4830  137.1310 C   0  0  0  0  0  0  0  0  0  0  0  0
  188.6770  177.3050  139.0150 N   0  0  0  0  0  0  0  0  0  0  0  0
  186.1740  173.2780  135.8950 C   0  0  2  0  0  0  0  0  0  0  0  0
  187.3260  174.0570  136.5510 C   0  0  1  0  0  0  0  0  0  0  0  0
  187.7860  173.2140  135.0300 S   0  0  0  0  0  0  0  0  0  0  0  0
  186.1220  173.7590  137.2730 N   0  0  0  0  0  2  0  0  0  0  0  0
  185.9810  171.9070  136.0770 O   0  0  0  0  0  0  0  0  0  0  0  0
  184.7250  171.6400  135.5330 C   0  0  0  0  0  2  0  0  0  0  0  0
  183.7580  171.2960  136.6490 C   0  0  0  0  0  1  0  0  0  0  0  0
  1 17  1  0  0  0  0
  1 21  2  0  0  0  0
  2  6  1  0  0  0  0
  3 14  1  0  0  0  0
  4 10  1  0  0  0  0
  4  7  1  0  0  0  0
  5  8  2  0  0  0  0
  6 18  1  0  0  0  0
  7 15  2  0  0  0  0
  7 16  1  0  0  0  0
  9 19  1  0  0  0  0
  9 10  2  0  0  0  0
 10  6  1  0  0  0  0
 11 17  1  0  0  0  0
 11 20  1  0  0  0  0
 12  9  1  0  0  0  0
 13  3  1  0  0  0  0
 13  8  1  0  0  0  0
 15 11  1  0  0  0  0
 16 18  1  0  0  0  0
 16 20  2  0  0  0  0
 17 13  2  0  0  0  0
 18 22  2  0  0  0  0
 19  2  2  0  0  0  0
 20  5  1  0  0  0  0
 21  3  1  0  0  0  0
 23 12  1  0  0  0  0
 24 23  1  0  0  0  0
 25 24  2  0  0  0  0
 26 27  2  0  0  0  0
 26 28  1  0  0  0  0
 27 29  1  0  0  0  0
 28 30  1  0  0  0  0
 29 31  1  0  0  0  0
 29 24  1  6  0  0  0
 30 31  1  0  0  0  0
 32 15  1  0  0  0  0
 33 34  1  6  0  0  0
 33 32  1  0  0  0  0
 35 39  1  0  0  0  0
 35 38  1  0  0  0  0
 36 39  1  0  0  0  0
 37 40  1  0  0  0  0
 38 40  1  0  0  0  0
 39 37  2  0  0  0  0
 40 33  1  0  0  0  0
 41 45  1  1  0  0  0
 41 42  1  0  0  0  0
 41 44  1  0  0  0  0
 42 36  1  6  0  0  0
 42 44  1  0  0  0  0
 43 41  1  0  0  0  0
 43 42  1  0  0  0  0
 46 45  1  0  0  0  0
 46 47  1  0  0  0  0
M  END
>  <MODEL>
3

>  <REMARK>
 VINA RESULT:      -9.0      2.546      3.422
  Name = 
  8 active torsions:
  status: ('A' for Active; 'I' for Inactive)
    1  A    between atoms: C_1  and  O_21
    2  A    between atoms: N_2  and  C_25
    3  A    between atoms: C_3  and  N_10
    4  A    between atoms: C_9  and  C_28
    5  A    between atoms: C_13  and  C_32
    6  A    between atoms: C_13  and  C_40
    7  A    between atoms: C_15  and  O_21
    8  A    between atoms: C_40  and  N_41
                            x       y       z     vdW  Elec       q    Type
                         _______ _______ _______ _____ _____    ______ ____

>  <TORSDO>
F 8

$$$$
=
 OpenBabel10222415253D

 47 55  0  0  1  0  0  0  0  0999 V2000
  188.6270  176.8610  146.5770 C   0  0  0  0  0  3  0  0  0  0  0  0
  190.1800  177.8780  138.3960 N   0  0  0  0  0  0  0  0  0  0  0  0
  190.6880  176.8650  147.3440 N   0  0  0  0  0  0  0  0  0  0  0  0
  187.7200  177.5090  140.9760 C   0  0  0  0  0  2  0  0  0  0  0  0
  191.6790  177.3880  143.8810 C   0  0  0  0  0  3  0  0  0  0  0  0
  189.7670  177.7210  139.7210 N   0  0  0  0  0  0  0  0  0  0  0  0
  188.5220  177.4310  142.1190 C   0  0  0  0  0  0  0  0  0  0  0  0
  191.8550  177.2290  145.2390 N   0  0  0  0  0  0  0  0  0  0  0  0
  187.9170  177.7880  138.4140 C   0  0  0  0  0  0  0  0  0  0  0  0
  188.4170  177.6570  139.7680 C   0  0  0  0  0  0  0  0  0  0  0  0
  189.2910  177.2470  144.1910 N   0  0  0  0  0  0  0  0  0  0  0  0
  186.6440  177.7370  138.0190 C   0  0  0  0  0  2  0  0  0  0  0  0
  190.7490  177.0820  146.0280 C   0  0  0  0  0  0  0  0  0  0  0  0
  191.8100  176.7580  148.2630 C   0  0  0  0  0  1  0  0  0  0  0  0
  188.1610  177.2710  143.4470 C   0  0  0  0  0  0  0  0  0  0  0  0
  189.9110  177.5040  142.0580 C   0  0  0  0  0  0  0  0  0  0  0  0
  189.4900  177.0880  145.5240 C   0  0  0  0  0  0  0  0  0  0  0  0
  190.5620  177.6500  140.8270 C   0  0  0  0  0  0  0  0  0  0  0  0
  189.0520  177.9190  137.5580 N   0  0  0  0  0  0  0  0  0  0  0  0
  190.3610  177.3890  143.3630 C   0  0  0  0  0  0  0  0  0  0  0  0
  189.4080  176.7300  147.6860 N   0  0  0  0  0  0  0  0  0  0  0  0
  191.8150  177.7120  140.7380 O   0  0  0  0  0  0  0  0  0  0  0  0
  186.2400  177.9450  136.6600 N   0  0  0  0  0  2  0  0  0  0  0  0
  185.8220  176.9100  135.7620 C   0  0  0  0  0  0  0  0  0  0  0  0
  185.2970  177.2270  134.6550 O   0  0  0  0  0  0  0  0  0  0  0  0
  186.6060  173.4040  134.8130 C   0  0  0  0  0  3  0  0  0  0  0  0
  186.5230  174.7380  134.7910 C   0  0  0  0  0  3  0  0  0  0  0  0
  186.2880  172.6750  136.0920 C   0  0  0  0  0  2  0  0  0  0  0  0
  186.1310  175.4730  136.0510 C   0  0  2  0  0  3  0  0  0  0  0  0
  184.9900  173.2330  136.6880 C   0  0  0  0  0  2  0  0  0  0  0  0
  184.9980  174.7720  136.8320 C   0  0  0  0  0  2  0  0  0  0  0  0
  186.7620  177.2100  143.9790 C   0  0  0  0  0  2  0  0  0  0  0  0
  186.3210  178.6020  144.3990 C   0  0  2  0  0  3  0  0  0  0  0  0
  186.5230  178.8100  145.8880 C   0  0  0  0  0  1  0  0  0  0  0  0
  182.2980  178.9800  143.9860 S   0  0  0  0  0  0  0  0  0  0  0  0
  182.6580  178.3740  141.2570 N   0  0  0  0  0  2  0  0  0  0  0  0
  184.5380  178.5970  142.6950 N   0  0  0  0  0  0  0  0  0  0  0  0
  183.8480  179.0030  144.9680 C   0  0  0  0  0  2  0  0  0  0  0  0
  183.2650  178.6280  142.5270 C   0  0  0  0  0  0  0  0  0  0  0  0
  184.9400  178.8390  144.0090 N   0  0  0  0  0  0  0  0  0  0  0  0
  182.5720  178.0160  138.7940 C   0  0  2  0  0  0  0  0  0  0  0  0
  183.4300  178.0310  140.0700 C   0  0  1  0  0  0  0  0  0  0  0  0
  183.5470  179.5360  139.0930 S   0  0  0  0  0  0  0  0  0  0  0  0
  182.8820  176.8090  139.5530 N   0  0  0  0  0  2  0  0  0  0  0  0
  183.0830  177.6860  137.5360 O   0  0  0  0  0  0  0  0  0  0  0  0
  181.9920  177.2050  136.8140 C   0  0  0  0  0  2  0  0  0  0  0  0
  181.9500  177.8820  135.4580 C   0  0  0  0  0  1  0  0  0  0  0  0
  1 21  2  0  0  0  0
  2  6  1  0  0  0  0
  3 21  1  0  0  0  0
  3 14  1  0  0  0  0
  4  7  1  0  0  0  0
  5  8  2  0  0  0  0
  6 10  1  0  0  0  0
  6 18  1  0  0  0  0
  7 15  2  0  0  0  0
  8 13  1  0  0  0  0
  9 10  2  0  0  0  0
 10  4  1  0  0  0  0
 11 17  1  0  0  0  0
 12  9  1  0  0  0  0
 13  3  1  0  0  0  0
 15 32  1  0  0  0  0
 15 11  1  0  0  0  0
 16  7  1  0  0  0  0
 16 20  2  0  0  0  0
 17 13  2  0  0  0  0
 17  1  1  0  0  0  0
 18 16  1  0  0  0  0
 19  2  2  0  0  0  0
 19  9  1  0  0  0  0
 20  5  1  0  0  0  0
 20 11  1  0  0  0  0
 22 18  2  0  0  0  0
 23 12  1  0  0  0  0
 24 23  1  0  0  0  0
 25 24  2  0  0  0  0
 26 28  1  0  0  0  0
 27 26  2  0  0  0  0
 27 29  1  0  0  0  0
 28 30  1  0  0  0  0
 29 24  1  6  0  0  0
 29 31  1  0  0  0  0
 30 31  1  0  0  0  0
 32 33  1  0  0  0  0
 33 34  1  1  0  0  0
 35 38  1  0  0  0  0
 36 39  1  0  0  0  0
 37 40  1  0  0  0  0
 39 37  2  0  0  0  0
 39 35  1  0  0  0  0
 40 33  1  0  0  0  0
 40 38  1  0  0  0  0
 41 45  1  6  0  0  0
 41 43  1  0  0  0  0
 41 44  1  0  0  0  0
 41 42  1  0  0  0  0
 42 36  1  1  0  0  0
 43 42  1  0  0  0  0
 44 42  1  0  0  0  0
 46 45  1  0  0  0  0
 47 46  1  0  0  0  0
M  END
>  <MODEL>
4

>  <REMARK>
 VINA RESULT:      -8.9      3.099      6.341
  Name = 
  8 active torsions:
  status: ('A' for Active; 'I' for Inactive)
    1  A    between atoms: C_1  and  O_21
    2  A    between atoms: N_2  and  C_25
    3  A    between atoms: C_3  and  N_10
    4  A    between atoms: C_9  and  C_28
    5  A    between atoms: C_13  and  C_32
    6  A    between atoms: C_13  and  C_40
    7  A    between atoms: C_15  and  O_21
    8  A    between atoms: C_40  and  N_41
                            x       y       z     vdW  Elec       q    Type
                         _______ _______ _______ _____ _____    ______ ____

>  <TORSDO>
F 8

$$$$
=
 OpenBabel10222415253D

 47 55  0  0  1  0  0  0  0  0999 V2000
  182.3170  177.6820  137.2120 C   0  0  0  0  0  3  0  0  0  0  0  0
  183.4440  179.1990  145.3850 N   0  0  0  0  0  0  0  0  0  0  0  0
  180.2960  178.5140  136.9610 N   0  0  0  0  0  0  0  0  0  0  0  0
  184.8130  177.8880  142.3440 C   0  0  0  0  0  2  0  0  0  0  0  0
  180.5140  179.3740  140.4900 C   0  0  0  0  0  3  0  0  0  0  0  0
  183.4070  178.8960  144.0230 N   0  0  0  0  0  0  0  0  0  0  0  0
  183.7790  178.1430  141.4380 C   0  0  0  0  0  0  0  0  0  0  0  0
  179.9470  179.3040  139.2360 N   0  0  0  0  0  0  0  0  0  0  0  0
  185.4070  178.2120  144.8390 C   0  0  0  0  0  0  0  0  0  0  0  0
  184.5650  178.2970  143.6620 C   0  0  0  0  0  0  0  0  0  0  0  0
  182.4920  178.2910  139.6370 N   0  0  0  0  0  0  0  0  0  0  0  0
  186.6160  177.6540  144.9230 C   0  0  0  0  0  2  0  0  0  0  0  0
  180.6650  178.7310  138.2250 C   0  0  0  0  0  0  0  0  0  0  0  0
  179.0250  178.8680  136.3490 C   0  0  0  0  0  1  0  0  0  0  0  0
  183.6940  177.8580  140.0850 C   0  0  0  0  0  0  0  0  0  0  0  0
  182.5940  178.7640  141.8190 C   0  0  0  0  0  0  0  0  0  0  0  0
  181.9120  178.2310  138.4120 C   0  0  0  0  0  0  0  0  0  0  0  0
  182.3910  179.1540  143.1490 C   0  0  0  0  0  0  0  0  0  0  0  0
  184.6740  178.7820  145.9220 N   0  0  0  0  0  0  0  0  0  0  0  0
  181.8150  178.8460  140.6770 C   0  0  0  0  0  0  0  0  0  0  0  0
  181.2880  177.8790  136.3390 N   0  0  0  0  0  0  0  0  0  0  0  0
  181.3280  179.7110  143.5280 O   0  0  0  0  0  0  0  0  0  0  0  0
  187.4040  177.6770  146.1190 N   0  0  0  0  0  2  0  0  0  0  0  0
  188.8320  177.7890  146.1580 C   0  0  0  0  0  0  0  0  0  0  0  0
  189.4060  178.0030  147.2650 O   0  0  0  0  0  0  0  0  0  0  0  0
  191.6680  176.2430  144.3220 C   0  0  0  0  0  3  0  0  0  0  0  0
  190.6960  176.4520  145.2150 C   0  0  0  0  0  3  0  0  0  0  0  0
  191.7050  177.0850  143.0730 C   0  0  0  0  0  2  0  0  0  0  0  0
  189.6560  177.5120  144.9380 C   0  0  2  0  0  3  0  0  0  0  0  0
  191.5020  178.5590  143.4450 C   0  0  0  0  0  2  0  0  0  0  0  0
  190.2520  178.7980  144.3240 C   0  0  0  0  0  2  0  0  0  0  0  0
  184.7720  177.2440  139.2440 C   0  0  0  0  0  2  0  0  0  0  0  0
  185.7870  178.3100  138.8690 C   0  0  2  0  0  3  0  0  0  0  0  0
  185.7490  178.5990  137.3810 C   0  0  0  0  0  1  0  0  0  0  0  0
  189.5140  177.8880  140.4280 S   0  0  0  0  0  0  0  0  0  0  0  0
  190.2000  176.5130  138.0650 N   0  0  0  0  0  2  0  0  0  0  0  0
  187.9650  177.2400  138.4250 N   0  0  0  0  0  0  0  0  0  0  0  0
  187.7760  178.4720  140.4880 C   0  0  0  0  0  2  0  0  0  0  0  0
  189.1770  177.1480  138.8390 C   0  0  0  0  0  0  0  0  0  0  0  0
  187.1200  177.9200  139.3030 N   0  0  0  0  0  0  0  0  0  0  0  0
  191.0550  174.9770  136.3010 C   0  0  2  0  0  0  0  0  0  0  0  0
  189.9530  175.9540  136.7420 C   0  0  1  0  0  0  0  0  0  0  0  0
  189.5400  174.2220  136.9970 S   0  0  0  0  0  0  0  0  0  0  0  0
  191.0340  176.3800  135.8990 N   0  0  0  0  0  2  0  0  0  0  0  0
  191.0540  174.3380  135.0590 O   0  0  0  0  0  0  0  0  0  0  0  0
  192.3780  173.9570  134.8440 C   0  0  0  0  0  2  0  0  0  0  0  0
  192.9500  173.3850  136.1260 C   0  0  0  0  0  1  0  0  0  0  0  0
  1 17  1  0  0  0  0
  2 19  2  0  0  0  0
  3 13  1  0  0  0  0
  4 10  1  0  0  0  0
  5 20  1  0  0  0  0
  6  2  1  0  0  0  0
  7 16  1  0  0  0  0
  7  4  1  0  0  0  0
  8  5  2  0  0  0  0
  9 12  1  0  0  0  0
  9 19  1  0  0  0  0
 10  6  1  0  0  0  0
 10  9  2  0  0  0  0
 11 15  1  0  0  0  0
 11 20  1  0  0  0  0
 12 23  1  0  0  0  0
 13 17  2  0  0  0  0
 13  8  1  0  0  0  0
 14  3  1  0  0  0  0
 15  7  2  0  0  0  0
 16 18  1  0  0  0  0
 17 11  1  0  0  0  0
 18 22  2  0  0  0  0
 18  6  1  0  0  0  0
 20 16  2  0  0  0  0
 21  3  1  0  0  0  0
 21  1  2  0  0  0  0
 23 24  1  0  0  0  0
 24 25  2  0  0  0  0
 26 27  2  0  0  0  0
 28 30  1  0  0  0  0
 28 26  1  0  0  0  0
 29 27  1  0  0  0  0
 29 24  1  1  0  0  0
 30 31  1  0  0  0  0
 31 29  1  0  0  0  0
 32 15  1  0  0  0  0
 33 34  1  6  0  0  0
 33 32  1  0  0  0  0
 33 40  1  0  0  0  0
 35 38  1  0  0  0  0
 36 39  1  0  0  0  0
 37 39  2  0  0  0  0
 37 40  1  0  0  0  0
 39 35  1  0  0  0  0
 40 38  1  0  0  0  0
 41 45  1  6  0  0  0
 41 42  1  0  0  0  0
 41 43  1  0  0  0  0
 42 43  1  0  0  0  0
 42 36  1  1  0  0  0
 44 41  1  0  0  0  0
 44 42  1  0  0  0  0
 46 45  1  0  0  0  0
 46 47  1  0  0  0  0
M  END
>  <MODEL>
5

>  <REMARK>
 VINA RESULT:      -8.5      2.182      7.971
  Name = 
  8 active torsions:
  status: ('A' for Active; 'I' for Inactive)
    1  A    between atoms: C_1  and  O_21
    2  A    between atoms: N_2  and  C_25
    3  A    between atoms: C_3  and  N_10
    4  A    between atoms: C_9  and  C_28
    5  A    between atoms: C_13  and  C_32
    6  A    between atoms: C_13  and  C_40
    7  A    between atoms: C_15  and  O_21
    8  A    between atoms: C_40  and  N_41
                            x       y       z     vdW  Elec       q    Type
                         _______ _______ _______ _____ _____    ______ ____

>  <TORSDO>
F 8

$$$$
=
 OpenBabel10222415253D

 47 55  0  0  1  0  0  0  0  0999 V2000
  181.7760  179.2900  141.2020 C   0  0  0  0  0  3  0  0  0  0  0  0
  189.5670  177.2500  143.5480 N   0  0  0  0  0  0  0  0  0  0  0  0
  180.7800  179.2440  143.1630 N   0  0  0  0  0  0  0  0  0  0  0  0
  187.3600  178.1410  140.8690 C   0  0  0  0  0  2  0  0  0  0  0  0
  184.0630  178.4170  144.4990 C   0  0  0  0  0  3  0  0  0  0  0  0
  188.3300  177.6110  143.0120 N   0  0  0  0  0  0  0  0  0  0  0  0
  186.1550  178.3340  141.5520 C   0  0  0  0  0  0  0  0  0  0  0  0
  182.7140  178.7010  144.5370 N   0  0  0  0  0  0  0  0  0  0  0  0
  189.8270  177.5090  141.3140 C   0  0  0  0  0  0  0  0  0  0  0  0
  188.4470  177.7690  141.6730 C   0  0  0  0  0  0  0  0  0  0  0  0
  184.0480  178.7460  142.1100 N   0  0  0  0  0  0  0  0  0  0  0  0
  190.3530  177.5180  140.0870 C   0  0  0  0  0  2  0  0  0  0  0  0
  182.0760  178.9940  143.3650 C   0  0  0  0  0  0  0  0  0  0  0  0
  179.7320  179.2870  144.1700 C   0  0  0  0  0  1  0  0  0  0  0  0
  184.9070  178.6860  141.0650 C   0  0  0  0  0  0  0  0  0  0  0  0
  186.0480  178.1750  142.9300 C   0  0  0  0  0  0  0  0  0  0  0  0
  182.7200  179.0180  142.1720 C   0  0  0  0  0  0  0  0  0  0  0  0
  187.1620  177.8000  143.6910 C   0  0  0  0  0  0  0  0  0  0  0  0
  190.5190  177.1740  142.5160 N   0  0  0  0  0  0  0  0  0  0  0  0
  184.7260  178.4410  143.2490 C   0  0  0  0  0  0  0  0  0  0  0  0
  180.5880  179.4250  141.8570 N   0  0  0  0  0  0  0  0  0  0  0  0
  187.0970  177.6400  144.9380 O   0  0  0  0  0  0  0  0  0  0  0  0
  191.7490  177.3140  139.8360 N   0  0  0  0  0  2  0  0  0  0  0  0
  192.2860  176.6670  138.6760 C   0  0  0  0  0  0  0  0  0  0  0  0
  193.5320  176.7200  138.4600 O   0  0  0  0  0  0  0  0  0  0  0  0
  191.5410  173.6520  136.6370 C   0  0  0  0  0  3  0  0  0  0  0  0
  192.0520  174.4580  137.5720 C   0  0  0  0  0  3  0  0  0  0  0  0
  190.3580  174.1250  135.8330 C   0  0  0  0  0  2  0  0  0  0  0  0
  191.4190  175.8100  137.8060 C   0  0  2  0  0  3  0  0  0  0  0  0
  190.6080  175.5610  135.3550 C   0  0  0  0  0  2  0  0  0  0  0  0
  191.0130  176.5210  136.4970 C   0  0  0  0  0  2  0  0  0  0  0  0
  184.5760  179.0170  139.6420 C   0  0  0  0  0  2  0  0  0  0  0  0
  184.4710  177.7330  138.8380 C   0  0  2  0  0  3  0  0  0  0  0  0
  185.5190  177.6900  137.7420 C   0  0  0  0  0  1  0  0  0  0  0  0
  181.0020  176.6820  137.0040 S   0  0  0  0  0  0  0  0  0  0  0  0
  180.4980  179.4340  136.6760 N   0  0  0  0  0  2  0  0  0  0  0  0
  182.4160  178.7000  137.8740 N   0  0  0  0  0  0  0  0  0  0  0  0
  182.5810  176.2950  137.8560 C   0  0  0  0  0  2  0  0  0  0  0  0
  181.3470  178.4200  137.2190 C   0  0  0  0  0  0  0  0  0  0  0  0
  183.1280  177.5780  138.2980 N   0  0  0  0  0  0  0  0  0  0  0  0
  179.6000  181.7420  136.4090 C   0  0  2  0  0  0  0  0  0  0  0  0
  180.7960  180.8560  136.7950 C   0  0  1  0  0  0  0  0  0  0  0  0
  179.8450  181.4540  138.2000 S   0  0  0  0  0  0  0  0  0  0  0  0
  180.6780  181.4200  135.4800 N   0  0  0  0  0  2  0  0  0  0  0  0
  179.6530  183.1380  136.4140 O   0  0  0  0  0  0  0  0  0  0  0  0
  180.3730  183.4810  135.2710 C   0  0  0  0  0  2  0  0  0  0  0  0
  180.8750  184.9050  135.4020 C   0  0  0  0  0  1  0  0  0  0  0  0
  1 21  2  0  0  0  0
  1 17  1  0  0  0  0
  3 13  1  0  0  0  0
  3 14  1  0  0  0  0
  4  7  1  0  0  0  0
  4 10  1  0  0  0  0
  5  8  2  0  0  0  0
  6  2  1  0  0  0  0
  6 18  1  0  0  0  0
  7 16  1  0  0  0  0
  9 10  2  0  0  0  0
  9 19  1  0  0  0  0
 10  6  1  0  0  0  0
 11 17  1  0  0  0  0
 11 20  1  0  0  0  0
 12  9  1  0  0  0  0
 13  8  1  0  0  0  0
 15  7  2  0  0  0  0
 15 11  1  0  0  0  0
 16 20  2  0  0  0  0
 16 18  1  0  0  0  0
 17 13  2  0  0  0  0
 18 22  2  0  0  0  0
 19  2  2  0  0  0  0
 20  5  1  0  0  0  0
 21  3  1  0  0  0  0
 23 12  1  0  0  0  0
 24 23  1  0  0  0  0
 25 24  2  0  0  0  0
 26 27  2  0  0  0  0
 27 29  1  0  0  0  0
 28 26  1  0  0  0  0
 29 24  1  6  0  0  0
 30 28  1  0  0  0  0
 30 31  1  0  0  0  0
 31 29  1  0  0  0  0
 32 15  1  0  0  0  0
 33 34  1  6  0  0  0
 33 32  1  0  0  0  0
 35 39  1  0  0  0  0
 35 38  1  0  0  0  0
 36 39  1  0  0  0  0
 37 40  1  0  0  0  0
 38 40  1  0  0  0  0
 39 37  2  0  0  0  0
 40 33  1  0  0  0  0
 41 45  1  1  0  0  0
 41 42  1  0  0  0  0
 41 43  1  0  0  0  0
 42 36  1  6  0  0  0
 42 43  1  0  0  0  0
 44 41  1  0  0  0  0
 44 42  1  0  0  0  0
 46 47  1  0  0  0  0
 46 45  1  0  0  0  0
M  END
>  <MODEL>
6

>  <REMARK>
 VINA RESULT:      -8.5      3.450      9.342
  Name = 
  8 active torsions:
  status: ('A' for Active; 'I' for Inactive)
    1  A    between atoms: C_1  and  O_21
    2  A    between atoms: N_2  and  C_25
    3  A    between atoms: C_3  and  N_10
    4  A    between atoms: C_9  and  C_28
    5  A    between atoms: C_13  and  C_32
    6  A    between atoms: C_13  and  C_40
    7  A    between atoms: C_15  and  O_21
    8  A    between atoms: C_40  and  N_41
                            x       y       z     vdW  Elec       q    Type
                         _______ _______ _______ _____ _____    ______ ____

>  <TORSDO>
F 8

$$$$
=
 OpenBabel10222415253D

 47 55  0  0  1  0  0  0  0  0999 V2000
  180.2870  173.5010  136.4840 C   0  0  0  0  0  3  0  0  0  0  0  0
  188.6710  173.4320  136.7380 N   0  0  0  0  0  0  0  0  0  0  0  0
  179.9240  171.4370  135.8160 N   0  0  0  0  0  0  0  0  0  0  0  0
  185.6530  175.2890  137.2710 C   0  0  0  0  0  2  0  0  0  0  0  0
  183.5440  171.0700  135.8990 C   0  0  0  0  0  3  0  0  0  0  0  0
  187.2840  173.5890  136.7590 N   0  0  0  0  0  0  0  0  0  0  0  0
  184.6790  174.3370  136.9560 C   0  0  0  0  0  0  0  0  0  0  0  0
  182.2340  170.6780  135.7210 N   0  0  0  0  0  0  0  0  0  0  0  0
  188.2210  175.5470  137.4110 C   0  0  0  0  0  0  0  0  0  0  0  0
  186.9780  174.8480  137.1510 C   0  0  0  0  0  0  0  0  0  0  0  0
  182.7800  173.2570  136.5710 N   0  0  0  0  0  0  0  0  0  0  0  0
  188.3640  176.8210  137.7800 C   0  0  0  0  0  2  0  0  0  0  0  0
  181.2420  171.5830  135.9700 C   0  0  0  0  0  0  0  0  0  0  0  0
  179.2250  170.2460  135.3600 C   0  0  0  0  0  1  0  0  0  0  0  0
  183.2980  174.4470  136.9550 C   0  0  0  0  0  0  0  0  0  0  0  0
  185.0050  173.0430  136.5580 C   0  0  0  0  0  0  0  0  0  0  0  0
  181.4990  172.8480  136.3850 C   0  0  0  0  0  0  0  0  0  0  0  0
  186.3450  172.6490  136.4510 C   0  0  0  0  0  0  0  0  0  0  0  0
  189.2830  174.6330  137.1360 N   0  0  0  0  0  0  0  0  0  0  0  0
  183.8030  172.3940  136.3300 C   0  0  0  0  0  0  0  0  0  0  0  0
  179.3370  172.5920  136.1240 N   0  0  0  0  0  0  0  0  0  0  0  0
  186.6730  171.4900  136.0880 O   0  0  0  0  0  0  0  0  0  0  0  0
  189.6360  177.4080  138.0800 N   0  0  0  0  0  2  0  0  0  0  0  0
  190.3050  177.3130  139.3440 C   0  0  0  0  0  0  0  0  0  0  0  0
  191.5070  177.6930  139.4370 O   0  0  0  0  0  0  0  0  0  0  0  0
  188.0870  177.9350  142.2600 C   0  0  0  0  0  3  0  0  0  0  0  0
  188.6520  178.0230  141.0510 C   0  0  0  0  0  3  0  0  0  0  0  0
  188.3870  176.7350  143.1200 C   0  0  0  0  0  2  0  0  0  0  0  0
  189.5570  176.9100  140.5780 C   0  0  2  0  0  3  0  0  0  0  0  0
  189.8970  176.4670  143.1110 C   0  0  0  0  0  2  0  0  0  0  0  0
  190.4930  176.3800  141.6870 C   0  0  0  0  0  2  0  0  0  0  0  0
  182.5090  175.6480  137.3770 C   0  0  0  0  0  2  0  0  0  0  0  0
  182.5870  175.7980  138.8870 C   0  0  2  0  0  3  0  0  0  0  0  0
  181.2550  175.4710  139.5360 C   0  0  0  0  0  1  0  0  0  0  0  0
  184.2670  179.4770  139.2580 S   0  0  0  0  0  0  0  0  0  0  0  0
  184.2590  179.0520  142.0430 N   0  0  0  0  0  2  0  0  0  0  0  0
  183.2890  177.4470  140.5810 N   0  0  0  0  0  0  0  0  0  0  0  0
  183.5790  178.0880  138.2760 C   0  0  0  0  0  2  0  0  0  0  0  0
  183.8910  178.5690  140.7480 C   0  0  0  0  0  0  0  0  0  0  0  0
  183.0410  177.1330  139.2450 N   0  0  0  0  0  0  0  0  0  0  0  0
  184.3200  179.1080  144.5330 C   0  0  2  0  0  0  0  0  0  0  0  0
  184.0090  178.2960  143.2640 C   0  0  1  0  0  0  0  0  0  0  0  0
  182.5610  179.0400  144.0290 S   0  0  0  0  0  0  0  0  0  0  0  0
  185.2680  178.1690  143.9430 N   0  0  0  0  0  2  0  0  0  0  0  0
  184.1870  178.5880  145.8220 O   0  0  0  0  0  0  0  0  0  0  0  0
  185.4810  178.2470  146.2130 C   0  0  0  0  0  2  0  0  0  0  0  0
  185.9410  179.1950  147.3030 C   0  0  0  0  0  1  0  0  0  0  0  0
  2  6  1  0  0  0  0
  2 19  2  0  0  0  0
  3 13  1  0  0  0  0
  3 21  1  0  0  0  0
  5 20  1  0  0  0  0
  6 10  1  0  0  0  0
  7  4  1  0  0  0  0
  8  5  2  0  0  0  0
  8 13  1  0  0  0  0
  9 12  1  0  0  0  0
 10  4  1  0  0  0  0
 10  9  2  0  0  0  0
 11 15  1  0  0  0  0
 12 23  1  0  0  0  0
 13 17  2  0  0  0  0
 14  3  1  0  0  0  0
 15  7  2  0  0  0  0
 15 32  1  0  0  0  0
 16  7  1  0  0  0  0
 17  1  1  0  0  0  0
 17 11  1  0  0  0  0
 18 16  1  0  0  0  0
 18  6  1  0  0  0  0
 19  9  1  0  0  0  0
 20 16  2  0  0  0  0
 20 11  1  0  0  0  0
 21  1  2  0  0  0  0
 22 18  2  0  0  0  0
 23 24  1  0  0  0  0
 24 25  2  0  0  0  0
 26 28  1  0  0  0  0
 27 26  2  0  0  0  0
 29 24  1  6  0  0  0
 29 27  1  0  0  0  0
 29 31  1  0  0  0  0
 30 28  1  0  0  0  0
 31 30  1  0  0  0  0
 32 33  1  0  0  0  0
 33 40  1  0  0  0  0
 33 34  1  1  0  0  0
 35 39  1  0  0  0  0
 37 39  2  0  0  0  0
 38 40  1  0  0  0  0
 38 35  1  0  0  0  0
 39 36  1  0  0  0  0
 40 37  1  0  0  0  0
 41 45  1  1  0  0  0
 42 36  1  6  0  0  0
 42 44  1  0  0  0  0
 42 43  1  0  0  0  0
 42 41  1  0  0  0  0
 43 41  1  0  0  0  0
 44 41  1  0  0  0  0
 45 46  1  0  0  0  0
 46 47  1  0  0  0  0
M  END
>  <MODEL>
7

>  <REMARK>
 VINA RESULT:      -8.4      3.757     10.991
  Name = 
  8 active torsions:
  status: ('A' for Active; 'I' for Inactive)
    1  A    between atoms: C_1  and  O_21
    2  A    between atoms: N_2  and  C_25
    3  A    between atoms: C_3  and  N_10
    4  A    between atoms: C_9  and  C_28
    5  A    between atoms: C_13  and  C_32
    6  A    between atoms: C_13  and  C_40
    7  A    between atoms: C_15  and  O_21
    8  A    between atoms: C_40  and  N_41
                            x       y       z     vdW  Elec       q    Type
                         _______ _______ _______ _____ _____    ______ ____

>  <TORSDO>
F 8

$$$$
=
 OpenBabel10222415253D

 47 55  0  0  1  0  0  0  0  0999 V2000
  182.2700  178.6750  136.7080 C   0  0  0  0  0  3  0  0  0  0  0  0
  183.2220  179.0890  145.0320 N   0  0  0  0  0  0  0  0  0  0  0  0
  180.2140  179.4360  136.5370 N   0  0  0  0  0  0  0  0  0  0  0  0
  184.6910  178.2820  141.8650 C   0  0  0  0  0  2  0  0  0  0  0  0
  180.3460  179.8050  140.1550 C   0  0  0  0  0  3  0  0  0  0  0  0
  183.2160  178.9780  143.6410 N   0  0  0  0  0  0  0  0  0  0  0  0
  183.6570  178.6110  140.9840 C   0  0  0  0  0  0  0  0  0  0  0  0
  179.7980  179.8840  138.8930 N   0  0  0  0  0  0  0  0  0  0  0  0
  185.2380  178.2830  144.3920 C   0  0  0  0  0  0  0  0  0  0  0  0
  184.4070  178.4910  143.2220 C   0  0  0  0  0  0  0  0  0  0  0  0
  182.3860  178.9470  139.1970 N   0  0  0  0  0  0  0  0  0  0  0  0
  186.4730  177.7770  144.4200 C   0  0  0  0  0  2  0  0  0  0  0  0
  180.5560  179.4930  137.8260 C   0  0  0  0  0  0  0  0  0  0  0  0
  178.9340  179.8110  135.9570 C   0  0  0  0  0  1  0  0  0  0  0  0
  183.6020  178.5140  139.6030 C   0  0  0  0  0  0  0  0  0  0  0  0
  182.4370  179.1160  141.4260 C   0  0  0  0  0  0  0  0  0  0  0  0
  181.8240  179.0310  137.9650 C   0  0  0  0  0  0  0  0  0  0  0  0
  182.1990  179.3060  142.7930 C   0  0  0  0  0  0  0  0  0  0  0  0
  184.4640  178.6610  145.5300 N   0  0  0  0  0  0  0  0  0  0  0  0
  181.6690  179.3190  140.2910 C   0  0  0  0  0  0  0  0  0  0  0  0
  181.2440  178.9430  135.8520 N   0  0  0  0  0  0  0  0  0  0  0  0
  181.1060  179.7540  143.2250 O   0  0  0  0  0  0  0  0  0  0  0  0
  187.2440  177.6710  145.6230 N   0  0  0  0  0  2  0  0  0  0  0  0
  188.6700  177.7930  145.6950 C   0  0  0  0  0  0  0  0  0  0  0  0
  189.2260  177.8840  146.8280 O   0  0  0  0  0  0  0  0  0  0  0  0
  191.2680  176.1940  143.5740 C   0  0  0  0  0  3  0  0  0  0  0  0
  190.2910  176.3720  144.4700 C   0  0  0  0  0  3  0  0  0  0  0  0
  191.5730  177.3000  142.5980 C   0  0  0  0  0  2  0  0  0  0  0  0
  189.5140  177.6670  144.4640 C   0  0  2  0  0  3  0  0  0  0  0  0
  191.6450  178.6360  143.3480 C   0  0  0  0  0  2  0  0  0  0  0  0
  190.4060  178.9060  144.2310 C   0  0  0  0  0  2  0  0  0  0  0  0
  184.7190  178.0760  138.7060 C   0  0  0  0  0  2  0  0  0  0  0  0
  184.2100  177.0100  137.7510 C   0  0  2  0  0  3  0  0  0  0  0  0
  183.7120  175.7940  138.5090 C   0  0  0  0  0  1  0  0  0  0  0  0
  186.5670  175.5490  134.7830 S   0  0  0  0  0  0  0  0  0  0  0  0
  188.7320  175.7800  136.5720 N   0  0  0  0  0  2  0  0  0  0  0  0
  186.5690  176.5400  137.2020 N   0  0  0  0  0  0  0  0  0  0  0  0
  184.9520  176.0810  135.4730 C   0  0  0  0  0  2  0  0  0  0  0  0
  187.3420  176.0100  136.3240 C   0  0  0  0  0  0  0  0  0  0  0  0
  185.2410  176.6540  136.7880 N   0  0  0  0  0  0  0  0  0  0  0  0
  190.8470  176.4840  137.6840 C   0  0  2  0  0  0  0  0  0  0  0  0
  189.3670  176.0990  137.8450 C   0  0  1  0  0  0  0  0  0  0  0  0
  189.6640  177.8730  137.8290 S   0  0  0  0  0  0  0  0  0  0  0  0
  190.4130  175.1370  138.0430 N   0  0  0  0  0  2  0  0  0  0  0  0
  191.6730  176.8010  138.7650 O   0  0  0  0  0  0  0  0  0  0  0  0
  192.9110  176.2400  138.4550 C   0  0  0  0  0  2  0  0  0  0  0  0
  193.1560  176.3580  136.9630 C   0  0  0  0  0  1  0  0  0  0  0  0
  1 17  1  0  0  0  0
  2 19  2  0  0  0  0
  3 13  1  0  0  0  0
  4 10  1  0  0  0  0
  5 20  1  0  0  0  0
  6  2  1  0  0  0  0
  7 16  1  0  0  0  0
  7  4  1  0  0  0  0
  8  5  2  0  0  0  0
  9 12  1  0  0  0  0
  9 19  1  0  0  0  0
 10  6  1  0  0  0  0
 10  9  2  0  0  0  0
 11 15  1  0  0  0  0
 11 20  1  0  0  0  0
 12 23  1  0  0  0  0
 13 17  2  0  0  0  0
 13  8  1  0  0  0  0
 14  3  1  0  0  0  0
 15  7  2  0  0  0  0
 16 18  1  0  0  0  0
 17 11  1  0  0  0  0
 18 22  2  0  0  0  0
 18  6  1  0  0  0  0
 20 16  2  0  0  0  0
 21  3  1  0  0  0  0
 21  1  2  0  0  0  0
 23 24  1  0  0  0  0
 24 25  2  0  0  0  0
 26 27  2  0  0  0  0
 28 30  1  0  0  0  0
 28 26  1  0  0  0  0
 29 27  1  0  0  0  0
 29 24  1  1  0  0  0
 30 31  1  0  0  0  0
 31 29  1  0  0  0  0
 32 15  1  0  0  0  0
 33 34  1  1  0  0  0
 33 32  1  0  0  0  0
 35 38  1  0  0  0  0
 35 39  1  0  0  0  0
 38 40  1  0  0  0  0
 39 36  1  0  0  0  0
 39 37  2  0  0  0  0
 40 37  1  0  0  0  0
 40 33  1  0  0  0  0
 41 43  1  0  0  0  0
 41 42  1  0  0  0  0
 41 44  1  0  0  0  0
 41 45  1  1  0  0  0
 42 36  1  6  0  0  0
 42 44  1  0  0  0  0
 43 42  1  0  0  0  0
 46 45  1  0  0  0  0
 47 46  1  0  0  0  0
M  END
>  <MODEL>
8

>  <REMARK>
 VINA RESULT:      -8.0      2.518      8.357
  Name = 
  8 active torsions:
  status: ('A' for Active; 'I' for Inactive)
    1  A    between atoms: C_1  and  O_21
    2  A    between atoms: N_2  and  C_25
    3  A    between atoms: C_3  and  N_10
    4  A    between atoms: C_9  and  C_28
    5  A    between atoms: C_13  and  C_32
    6  A    between atoms: C_13  and  C_40
    7  A    between atoms: C_15  and  O_21
    8  A    between atoms: C_40  and  N_41
                            x       y       z     vdW  Elec       q    Type
                         _______ _______ _______ _____ _____    ______ ____

>  <TORSDO>
F 8

$$$$
=
 OpenBabel10222415253D

 47 55  0  0  1  0  0  0  0  0999 V2000
  190.5100  175.9680  136.0380 C   0  0  0  0  0  3  0  0  0  0  0  0
  190.6350  178.1170  144.1450 N   0  0  0  0  0  0  0  0  0  0  0  0
  192.6710  175.9700  135.6250 N   0  0  0  0  0  0  0  0  0  0  0  0
  188.6600  177.2200  141.2930 C   0  0  0  0  0  2  0  0  0  0  0  0
  193.0570  176.8390  139.1380 C   0  0  0  0  0  3  0  0  0  0  0  0
  190.4580  177.7400  142.8130 N   0  0  0  0  0  0  0  0  0  0  0  0
  189.6470  176.9970  140.3280 C   0  0  0  0  0  0  0  0  0  0  0  0
  193.4630  176.5310  137.8570 N   0  0  0  0  0  0  0  0  0  0  0  0
  188.4130  177.8900  143.7770 C   0  0  0  0  0  0  0  0  0  0  0  0
  189.1370  177.6020  142.5550 C   0  0  0  0  0  0  0  0  0  0  0  0
  190.7610  176.5410  138.4640 N   0  0  0  0  0  0  0  0  0  0  0  0
  187.0890  177.9060  143.9420 C   0  0  0  0  0  3  0  0  0  0  0  0
  192.5090  176.2410  136.9230 C   0  0  0  0  0  0  0  0  0  0  0  0
  193.9280  175.8960  134.8990 C   0  0  0  0  0  1  0  0  0  0  0  0
  189.5200  176.6290  138.9980 C   0  0  0  0  0  0  0  0  0  0  0  0
  191.0030  177.1370  140.6060 C   0  0  0  0  0  0  0  0  0  0  0  0
  191.1840  176.2440  137.2100 C   0  0  0  0  0  0  0  0  0  0  0  0
  191.4310  177.5220  141.8820 C   0  0  0  0  0  0  0  0  0  0  0  0
  189.3820  178.2220  144.7710 N   0  0  0  0  0  0  0  0  0  0  0  0
  191.6710  176.8430  139.4280 C   0  0  0  0  0  0  0  0  0  0  0  0
  191.4670  175.8040  135.0800 N   0  0  0  0  0  0  0  0  0  0  0  0
  192.6490  177.6650  142.1640 O   0  0  0  0  0  0  0  0  0  0  0  0
  186.4630  178.1380  145.2100 N   0  0  0  0  0  0  0  0  0  0  0  0
  185.0760  178.4430  145.3960 C   0  0  0  0  0  0  0  0  0  0  0  0
  184.5910  178.4290  146.5640 O   0  0  0  0  0  0  0  0  0  0  0  0
  181.8750  178.9110  143.5670 C   0  0  0  0  0  3  0  0  0  0  0  0
  182.7650  178.7600  144.5530 C   0  0  0  0  0  3  0  0  0  0  0  0
  182.3720  179.2180  142.1780 C   0  0  0  0  0  2  0  0  0  0  0  0
  184.2360  178.9190  144.2500 C   0  0  2  0  0  3  0  0  0  0  0  0
  183.5370  178.2810  141.8350 C   0  0  0  0  0  2  0  0  0  0  0  0
  184.6490  178.2740  142.9090 C   0  0  0  0  0  2  0  0  0  0  0  0
  188.2390  176.3100  138.2890 C   0  0  0  0  0  2  0  0  0  0  0  0
  187.9160  177.4240  137.3080 C   0  0  2  0  0  3  0  0  0  0  0  0
  187.8130  178.7610  138.0170 C   0  0  0  0  0  1  0  0  0  0  0  0
  184.8910  176.8470  134.6590 S   0  0  0  0  0  0  0  0  0  0  0  0
  183.1150  177.4460  136.7620 N   0  0  0  0  0  2  0  0  0  0  0  0
  185.4550  177.3270  137.1650 N   0  0  0  0  0  0  0  0  0  0  0  0
  186.6660  176.9080  135.1230 C   0  0  0  0  0  2  0  0  0  0  0  0
  184.4670  177.2330  136.3490 C   0  0  0  0  0  0  0  0  0  0  0  0
  186.6990  177.1160  136.5710 N   0  0  0  0  0  0  0  0  0  0  0  0
  181.4670  178.6500  138.1910 C   0  0  2  0  0  0  0  0  0  0  0  0
  182.7570  177.8160  138.1260 C   0  0  1  0  0  0  0  0  0  0  0  0
  181.2890  176.8620  138.5380 S   0  0  0  0  0  0  0  0  0  0  0  0
  182.7990  179.2490  138.1950 N   0  0  0  0  0  2  0  0  0  0  0  0
  180.9410  179.1470  139.3850 O   0  0  0  0  0  0  0  0  0  0  0  0
  180.5360  180.4490  139.0920 C   0  0  0  0  0  2  0  0  0  0  0  0
  179.6590  180.9660  140.2150 C   0  0  0  0  0  1  0  0  0  0  0  0
  1 17  1  0  0  0  0
  2 19  2  0  0  0  0
  3 13  1  0  0  0  0
  4 10  1  0  0  0  0
  5 20  1  0  0  0  0
  6  2  1  0  0  0  0
  7 16  1  0  0  0  0
  7  4  1  0  0  0  0
  8  5  2  0  0  0  0
  9 12  1  0  0  0  0
  9 19  1  0  0  0  0
 10  6  1  0  0  0  0
 10  9  2  0  0  0  0
 11 15  1  0  0  0  0
 11 20  1  0  0  0  0
 12 23  2  0  0  0  0
 13 17  2  0  0  0  0
 13  8  1  0  0  0  0
 14  3  1  0  0  0  0
 15  7  2  0  0  0  0
 16 18  1  0  0  0  0
 17 11  1  0  0  0  0
 18 22  2  0  0  0  0
 18  6  1  0  0  0  0
 20 16  2  0  0  0  0
 21  3  1  0  0  0  0
 21  1  2  0  0  0  0
 23 24  1  0  0  0  0
 24 25  2  0  0  0  0
 26 27  2  0  0  0  0
 28 26  1  0  0  0  0
 29 27  1  0  0  0  0
 29 24  1  1  0  0  0
 30 28  1  0  0  0  0
 30 31  1  0  0  0  0
 31 29  1  0  0  0  0
 32 15  1  0  0  0  0
 33 34  1  1  0  0  0
 33 32  1  0  0  0  0
 35 38  1  0  0  0  0
 35 39  1  0  0  0  0
 38 40  1  0  0  0  0
 39 36  1  0  0  0  0
 39 37  2  0  0  0  0
 40 37  1  0  0  0  0
 40 33  1  0  0  0  0
 41 44  1  0  0  0  0
 41 43  1  0  0  0  0
 41 45  1  1  0  0  0
 42 36  1  6  0  0  0
 42 41  1  0  0  0  0
 42 44  1  0  0  0  0
 42 43  1  0  0  0  0
 46 45  1  0  0  0  0
 46 47  1  0  0  0  0
M  END
>  <MODEL>
9

>  <REMARK>
 VINA RESULT:      -8.0      3.003      8.366
  Name = 
  8 active torsions:
  status: ('A' for Active; 'I' for Inactive)
    1  A    between atoms: C_1  and  O_21
    2  A    between atoms: N_2  and  C_25
    3  A    between atoms: C_3  and  N_10
    4  A    between atoms: C_9  and  C_28
    5  A    between atoms: C_13  and  C_32
    6  A    between atoms: C_13  and  C_40
    7  A    between atoms: C_15  and  O_21
    8  A    between atoms: C_40  and  N_41
                            x       y       z     vdW  Elec       q    Type
                         _______ _______ _______ _____ _____    ______ ____

>  <TORSDO>
F 8

$$$$
