=
 OpenBabel10222415373D

 40 44  0  0  1  0  0  0  0  0999 V2000
  189.3860  177.2990  134.8570 C   0  0  0  0  0  1  0  0  0  0  0  0
  185.1350  176.4990  137.0850 N   0  0  0  0  0  0  0  0  0  0  0  0
  182.8930  177.0830  138.7070 N   0  0  0  0  0  0  0  0  0  0  0  0
  182.9750  175.8740  137.9440 C   0  0  0  0  0  0  0  0  0  0  0  0
  183.5260  177.1020  139.9960 C   0  0  0  0  0  3  0  0  0  0  0  0
  187.6410  175.1000  134.5940 S   0  0  0  0  0  0  0  0  0  0  0  0
  181.1980  180.4840  138.7310 C   0  0  0  0  0  2  0  0  0  0  0  0
  182.2650  179.4510  139.0340 C   0  0  2  0  0  3  0  0  0  0  0  0
  181.9230  178.1300  138.3380 C   0  0  1  0  0  3  0  0  0  0  0  0
  183.0220  173.6020  136.3880 N   0  0  0  0  0  0  0  0  0  0  0  0
  181.8890  178.3600  136.8310 C   0  0  0  0  0  2  0  0  0  0  0  0
  185.2450  173.0300  134.7330 O   0  0  0  0  0  1  0  0  0  0  0  0
  181.9410  174.9950  137.9530 N   0  0  0  0  0  0  0  0  0  0  0  0
  186.1950  176.2420  136.2800 C   0  0  0  0  0  0  0  0  0  0  0  0
  184.0930  175.6130  137.1510 C   0  0  0  0  0  0  0  0  0  0  0  0
  188.1240  176.6020  135.2190 C   0  0  0  0  0  0  0  0  0  0  0  0
  186.2450  175.0870  135.5180 C   0  0  0  0  0  0  0  0  0  0  0  0
  182.3710  179.2250  140.5330 C   0  0  0  0  0  2  0  0  0  0  0  0
  183.3570  178.1190  140.8460 C   0  0  0  0  0  0  0  0  0  0  0  0
  184.1010  174.4310  136.3670 C   0  0  0  0  0  0  0  0  0  0  0  0
  187.2330  177.0980  136.1140 N   0  0  0  0  0  0  0  0  0  0  0  0
  181.9520  173.8750  137.1810 C   0  0  0  0  0  3  0  0  0  0  0  0
  181.1420  180.7170  137.2230 C   0  0  1  0  0  3  0  0  0  0  0  0
  185.1990  174.1640  135.5320 C   0  0  0  0  0  0  0  0  0  0  0  0
  180.8400  179.4100  136.4910 C   0  0  0  0  0  2  0  0  0  0  0  0
  183.9790  178.0420  142.1340 N   0  0  0  0  0  0  0  0  0  0  0  0
  185.1730  178.4810  142.4340 C   0  0  0  0  0  0  0  0  0  0  0  0
  184.8900  178.6080  144.8140 N   0  0  0  0  0  0  0  0  0  0  0  0
  185.6700  178.3690  143.8100 C   0  0  0  0  0  3  0  0  0  0  0  0
  186.7570  178.2240  146.5290 C   0  0  0  0  0  1  0  0  0  0  0  0
  184.4690  178.5360  147.0910 O   0  0  0  0  0  0  0  0  0  0  0  0
  185.3220  178.4820  146.1750 C   0  0  0  0  0  0  0  0  0  0  0  0
  186.0940  179.0230  141.3920 C   0  0  0  0  0  2  0  0  0  0  0  0
  187.3930  178.3820  141.4960 N   0  0  0  0  0  2  0  0  0  0  0  0
  188.2430  178.2390  140.3660 C   0  0  0  0  0  0  0  0  0  0  0  0
  187.8100  178.4890  139.2140 O   0  0  0  0  0  0  0  0  0  0  0  0
  189.5600  177.8360  140.5520 O   0  0  0  0  0  0  0  0  0  0  0  0
  190.1360  176.7800  139.7960 C   0  0  0  0  0  1  0  0  0  0  0  0
  179.8720  181.9530  136.8280 S   0  0  0  0  0  0  0  0  0  0  0  0
  180.9530  183.3240  137.3000 C   0  0  0  0  0  1  0  0  0  0  0  0
  1 16  1  0  0  0  0
  2 15  1  0  0  0  0
  3  5  1  0  0  0  0
  4 13  1  0  0  0  0
  4  3  1  0  0  0  0
  5 19  2  0  0  0  0
  6 16  1  0  0  0  0
  6 17  1  0  0  0  0
  8  7  1  1  0  0  0
  8 18  1  0  0  0  0
  9 11  1  6  0  0  0
  9  3  1  0  0  0  0
  9  8  1  0  0  0  0
 10 22  1  0  0  0  0
 12 24  1  0  0  0  0
 14  2  2  0  0  0  0
 15  4  2  0  0  0  0
 16 21  2  0  0  0  0
 17 24  2  0  0  0  0
 17 14  1  0  0  0  0
 18 19  1  0  0  0  0
 19 26  1  0  0  0  0
 20 10  2  0  0  0  0
 20 15  1  0  0  0  0
 21 14  1  0  0  0  0
 22 13  2  0  0  0  0
 23 39  1  1  0  0  0
 23  7  1  0  0  0  0
 24 20  1  0  0  0  0
 25 11  1  0  0  0  0
 25 23  1  0  0  0  0
 26 27  2  0  0  0  0
 27 29  1  0  0  0  0
 28 32  1  0  0  0  0
 29 28  2  0  0  0  0
 32 30  1  0  0  0  0
 32 31  2  0  0  0  0
 33 34  1  0  0  0  0
 33 27  1  0  0  0  0
 35 37  1  0  0  0  0
 35 34  1  0  0  0  0
 36 35  2  0  0  0  0
 38 37  1  0  0  0  0
 39 40  1  0  0  0  0
M  END
>  <MODEL>
1

>  <REMARK>
 VINA RESULT:      -7.2      0.000      0.000
  Name = 
  7 active torsions:
  status: ('A' for Active; 'I' for Inactive)
    1  A    between atoms: N_1  and  C_31
    2  A    between atoms: N_7  and  C_34
    3  A    between atoms: C_13  and  C_26
    4  A    between atoms: C_13  and  C_34
    5  A    between atoms: O_14  and  C_16
    6  A    between atoms: N_19  and  C_36
    7  A    between atoms: S_27  and  C_37
                            x       y       z     vdW  Elec       q    Type
                         _______ _______ _______ _____ _____    ______ ____

>  <TORSDO>
F 7

$$$$
=
 OpenBabel10222415373D

 40 44  0  0  1  0  0  0  0  0999 V2000
  179.6720  173.5540  139.9500 C   0  0  0  0  0  1  0  0  0  0  0  0
  182.5470  177.4680  139.6560 N   0  0  0  0  0  0  0  0  0  0  0  0
  184.9620  178.9380  139.7270 N   0  0  0  0  0  0  0  0  0  0  0  0
  183.7290  179.5350  139.3100 C   0  0  0  0  0  0  0  0  0  0  0  0
  185.2350  178.8860  141.1360 C   0  0  0  0  0  3  0  0  0  0  0  0
  179.0160  176.1670  139.1190 S   0  0  0  0  0  0  0  0  0  0  0  0
  188.2360  177.5890  138.3500 C   0  0  0  0  0  2  0  0  0  0  0  0
  187.0820  177.7340  139.3220 C   0  0  2  0  0  3  0  0  0  0  0  0
  186.0400  178.7020  138.7500 C   0  0  1  0  0  3  0  0  0  0  0  0
  181.4140  180.6930  138.3680 N   0  0  0  0  0  0  0  0  0  0  0  0
  185.5010  178.1320  137.4440 C   0  0  0  0  0  2  0  0  0  0  0  0
  179.0030  179.2170  138.2580 O   0  0  0  0  0  1  0  0  0  0  0  0
  183.7080  180.8280  138.8940 N   0  0  0  0  0  0  0  0  0  0  0  0
  181.4000  176.7480  139.5870 C   0  0  0  0  0  0  0  0  0  0  0  0
  182.5530  178.7860  139.2840 C   0  0  0  0  0  0  0  0  0  0  0  0
  180.0700  174.9600  139.6800 C   0  0  0  0  0  0  0  0  0  0  0  0
  180.2230  177.3280  139.1470 C   0  0  0  0  0  0  0  0  0  0  0  0
  187.5800  178.2530  140.6600 C   0  0  0  0  0  2  0  0  0  0  0  0
  186.4260  178.5060  141.6070 C   0  0  0  0  0  0  0  0  0  0  0  0
  181.3700  179.4060  138.8060 C   0  0  0  0  0  0  0  0  0  0  0  0
  181.3290  175.4260  139.8790 N   0  0  0  0  0  0  0  0  0  0  0  0
  182.5720  181.4040  138.4190 C   0  0  0  0  0  3  0  0  0  0  0  0
  187.7110  177.0300  137.0290 C   0  0  1  0  0  3  0  0  0  0  0  0
  180.1810  178.6610  138.7350 C   0  0  0  0  0  0  0  0  0  0  0  0
  186.6400  177.9520  136.4480 C   0  0  0  0  0  2  0  0  0  0  0  0
  186.6390  178.5290  143.0240 N   0  0  0  0  0  0  0  0  0  0  0  0
  187.3730  177.6850  143.7010 C   0  0  0  0  0  0  0  0  0  0  0  0
  186.6020  178.4100  145.8550 N   0  0  0  0  0  0  0  0  0  0  0  0
  187.5320  177.8520  145.1490 C   0  0  0  0  0  3  0  0  0  0  0  0
  187.7180  177.8220  148.0870 C   0  0  0  0  0  1  0  0  0  0  0  0
  185.8770  179.3080  147.8640 O   0  0  0  0  0  0  0  0  0  0  0  0
  186.7000  178.5680  147.2760 C   0  0  0  0  0  0  0  0  0  0  0  0
  187.9930  176.4920  143.0540 C   0  0  0  0  0  2  0  0  0  0  0  0
  189.2250  176.1420  143.7380 N   0  0  0  0  0  2  0  0  0  0  0  0
  190.4920  176.5610  143.2470 C   0  0  0  0  0  0  0  0  0  0  0  0
  190.5880  177.0780  142.1080 O   0  0  0  0  0  0  0  0  0  0  0  0
  191.6170  176.4050  144.0490 O   0  0  0  0  0  0  0  0  0  0  0  0
  191.6070  176.7380  145.4290 C   0  0  0  0  0  1  0  0  0  0  0  0
  189.0730  176.8420  135.8440 S   0  0  0  0  0  0  0  0  0  0  0  0
  190.1290  176.0360  137.0700 C   0  0  0  0  0  1  0  0  0  0  0  0
  3  5  1  0  0  0  0
  4  3  1  0  0  0  0
  5 19  2  0  0  0  0
  6 17  1  0  0  0  0
  6 16  1  0  0  0  0
  8  7  1  6  0  0  0
  8 18  1  0  0  0  0
  9 11  1  6  0  0  0
  9  8  1  0  0  0  0
  9  3  1  0  0  0  0
 10 22  2  0  0  0  0
 10 20  1  0  0  0  0
 12 24  1  0  0  0  0
 13  4  2  0  0  0  0
 14  2  2  0  0  0  0
 14 21  1  0  0  0  0
 15  4  1  0  0  0  0
 15  2  1  0  0  0  0
 16 21  2  0  0  0  0
 16  1  1  0  0  0  0
 17 14  1  0  0  0  0
 18 19  1  0  0  0  0
 19 26  1  0  0  0  0
 20 15  2  0  0  0  0
 22 13  1  0  0  0  0
 23 39  1  6  0  0  0
 23  7  1  0  0  0  0
 24 20  1  0  0  0  0
 24 17  2  0  0  0  0
 25 23  1  0  0  0  0
 25 11  1  0  0  0  0
 26 27  2  0  0  0  0
 27 29  1  0  0  0  0
 28 32  1  0  0  0  0
 29 28  2  0  0  0  0
 32 31  2  0  0  0  0
 32 30  1  0  0  0  0
 33 27  1  0  0  0  0
 33 34  1  0  0  0  0
 35 34  1  0  0  0  0
 35 37  1  0  0  0  0
 36 35  2  0  0  0  0
 37 38  1  0  0  0  0
 39 40  1  0  0  0  0
M  END
>  <MODEL>
2

>  <REMARK>
 VINA RESULT:      -6.6      3.028      6.126
  Name = 
  7 active torsions:
  status: ('A' for Active; 'I' for Inactive)
    1  A    between atoms: N_1  and  C_31
    2  A    between atoms: N_7  and  C_34
    3  A    between atoms: C_13  and  C_26
    4  A    between atoms: C_13  and  C_34
    5  A    between atoms: O_14  and  C_16
    6  A    between atoms: N_19  and  C_36
    7  A    between atoms: S_27  and  C_37
                            x       y       z     vdW  Elec       q    Type
                         _______ _______ _______ _____ _____    ______ ____

>  <TORSDO>
F 7

$$$$
=
 OpenBabel10222415373D

 40 44  0  0  1  0  0  0  0  0999 V2000
  184.4440  171.4790  136.7310 C   0  0  0  0  0  1  0  0  0  0  0  0
  187.0420  175.5490  137.3340 N   0  0  0  0  0  0  0  0  0  0  0  0
  189.1850  177.1640  138.2280 N   0  0  0  0  0  0  0  0  0  0  0  0
  188.1740  177.6730  137.3500 C   0  0  0  0  0  0  0  0  0  0  0  0
  188.9100  177.1720  139.6370 C   0  0  0  0  0  3  0  0  0  0  0  0
  184.0340  174.0220  135.5830 S   0  0  0  0  0  0  0  0  0  0  0  0
  192.7930  175.9730  138.2450 C   0  0  0  0  0  2  0  0  0  0  0  0
  191.3530  176.0790  138.7060 C   0  0  2  0  0  3  0  0  0  0  0  0
  190.5610  176.9630  137.7380 C   0  0  1  0  0  3  0  0  0  0  0  0
  186.3340  178.6590  135.5540 N   0  0  0  0  0  0  0  0  0  0  0  0
  190.5790  176.3220  136.3550 C   0  0  0  0  0  2  0  0  0  0  0  0
  184.2100  177.0370  134.6250 O   0  0  0  0  0  1  0  0  0  0  0  0
  188.2540  178.9480  136.8910 N   0  0  0  0  0  0  0  0  0  0  0  0
  186.0390  174.7600  136.8780 C   0  0  0  0  0  0  0  0  0  0  0  0
  187.1290  176.8530  136.9240 C   0  0  0  0  0  0  0  0  0  0  0  0
  184.8520  172.8990  136.5590 C   0  0  0  0  0  0  0  0  0  0  0  0
  185.0880  175.2540  136.0010 C   0  0  0  0  0  0  0  0  0  0  0  0
  191.2880  176.6670  140.1050 C   0  0  0  0  0  2  0  0  0  0  0  0
  189.8520  176.8790  140.5380 C   0  0  0  0  0  0  0  0  0  0  0  0
  186.1860  177.3850  136.0080 C   0  0  0  0  0  0  0  0  0  0  0  0
  185.9220  173.4450  137.1890 N   0  0  0  0  0  0  0  0  0  0  0  0
  187.3550  179.4400  135.9970 C   0  0  0  0  0  3  0  0  0  0  0  0
  192.8290  175.3440  136.8540 C   0  0  1  0  0  3  0  0  0  0  0  0
  185.1460  176.5680  135.5360 C   0  0  0  0  0  0  0  0  0  0  0  0
  192.0150  176.1810  135.8690 C   0  0  0  0  0  2  0  0  0  0  0  0
  189.5160  176.9580  141.9280 N   0  0  0  0  0  0  0  0  0  0  0  0
  188.5200  177.6350  142.4370 C   0  0  0  0  0  0  0  0  0  0  0  0
  189.2110  177.2590  144.7050 N   0  0  0  0  0  0  0  0  0  0  0  0
  188.2710  177.5950  143.8820 C   0  0  0  0  0  3  0  0  0  0  0  0
  187.7650  177.7410  146.7660 C   0  0  0  0  0  1  0  0  0  0  0  0
  189.9580  176.8300  146.8550 O   0  0  0  0  0  0  0  0  0  0  0  0
  189.0240  177.2350  146.1250 C   0  0  0  0  0  0  0  0  0  0  0  0
  187.6680  178.5270  141.5970 C   0  0  0  0  0  2  0  0  0  0  0  0
  186.3680  178.7000  142.2190 N   0  0  0  0  0  2  0  0  0  0  0  0
  185.2180  179.0390  141.4540 C   0  0  0  0  0  0  0  0  0  0  0  0
  185.3380  179.3850  140.2540 O   0  0  0  0  0  0  0  0  0  0  0  0
  183.9630  178.9670  142.0460 O   0  0  0  0  0  0  0  0  0  0  0  0
  183.7970  178.6500  143.4210 C   0  0  0  0  0  1  0  0  0  0  0  0
  194.5430  175.2020  136.2750 S   0  0  0  0  0  0  0  0  0  0  0  0
  195.0860  174.4520  137.8280 C   0  0  0  0  0  1  0  0  0  0  0  0
  3  5  1  0  0  0  0
  4  3  1  0  0  0  0
  5 19  2  0  0  0  0
  6 17  1  0  0  0  0
  6 16  1  0  0  0  0
  8  7  1  6  0  0  0
  8 18  1  0  0  0  0
  9 11  1  6  0  0  0
  9  3  1  0  0  0  0
  9  8  1  0  0  0  0
 10 22  2  0  0  0  0
 10 20  1  0  0  0  0
 12 24  1  0  0  0  0
 13  4  2  0  0  0  0
 14 21  1  0  0  0  0
 14  2  2  0  0  0  0
 15  2  1  0  0  0  0
 15  4  1  0  0  0  0
 16  1  1  0  0  0  0
 16 21  2  0  0  0  0
 17 14  1  0  0  0  0
 18 19  1  0  0  0  0
 19 26  1  0  0  0  0
 20 15  2  0  0  0  0
 22 13  1  0  0  0  0
 23 39  1  6  0  0  0
 23  7  1  0  0  0  0
 24 17  2  0  0  0  0
 24 20  1  0  0  0  0
 25 11  1  0  0  0  0
 25 23  1  0  0  0  0
 26 27  2  0  0  0  0
 27 29  1  0  0  0  0
 28 32  1  0  0  0  0
 29 28  2  0  0  0  0
 32 30  1  0  0  0  0
 32 31  2  0  0  0  0
 33 34  1  0  0  0  0
 33 27  1  0  0  0  0
 35 37  1  0  0  0  0
 35 34  1  0  0  0  0
 36 35  2  0  0  0  0
 37 38  1  0  0  0  0
 39 40  1  0  0  0  0
M  END
>  <MODEL>
3

>  <REMARK>
 VINA RESULT:      -6.4      3.574      7.147
  Name = 
  7 active torsions:
  status: ('A' for Active; 'I' for Inactive)
    1  A    between atoms: N_1  and  C_31
    2  A    between atoms: N_7  and  C_34
    3  A    between atoms: C_13  and  C_26
    4  A    between atoms: C_13  and  C_34
    5  A    between atoms: O_14  and  C_16
    6  A    between atoms: N_19  and  C_36
    7  A    between atoms: S_27  and  C_37
                            x       y       z     vdW  Elec       q    Type
                         _______ _______ _______ _____ _____    ______ ____

>  <TORSDO>
F 7

$$$$
=
 OpenBabel10222415373D

 40 44  0  0  1  0  0  0  0  0999 V2000
  189.3400  176.6920  135.0940 C   0  0  0  0  0  1  0  0  0  0  0  0
  184.9070  176.3210  137.0670 N   0  0  0  0  0  0  0  0  0  0  0  0
  182.5560  177.1930  138.3750 N   0  0  0  0  0  0  0  0  0  0  0  0
  182.6730  175.8710  137.8380 C   0  0  0  0  0  0  0  0  0  0  0  0
  183.0840  177.4290  139.6890 C   0  0  0  0  0  3  0  0  0  0  0  0
  187.5730  174.4940  135.0660 S   0  0  0  0  0  0  0  0  0  0  0  0
  180.9410  180.5610  137.6780 C   0  0  0  0  0  2  0  0  0  0  0  0
  181.9570  179.5870  138.2400 C   0  0  2  0  0  3  0  0  0  0  0  0
  181.6420  178.1690  137.7530 C   0  0  1  0  0  3  0  0  0  0  0  0
  182.7930  173.3650  136.7020 N   0  0  0  0  0  0  0  0  0  0  0  0
  181.7340  178.1370  136.2320 C   0  0  0  0  0  2  0  0  0  0  0  0
  185.1280  172.4990  135.3590 O   0  0  0  0  0  1  0  0  0  0  0  0
  181.6220  175.0140  137.9120 N   0  0  0  0  0  0  0  0  0  0  0  0
  186.0220  175.9210  136.4070 C   0  0  0  0  0  0  0  0  0  0  0  0
  183.8440  175.4680  137.1970 C   0  0  0  0  0  0  0  0  0  0  0  0
  188.0370  176.0780  135.4640 C   0  0  0  0  0  0  0  0  0  0  0  0
  186.1070  174.6510  135.8610 C   0  0  0  0  0  0  0  0  0  0  0  0
  181.9380  179.6220  139.7590 C   0  0  0  0  0  2  0  0  0  0  0  0
  182.8700  178.5780  140.3370 C   0  0  0  0  0  0  0  0  0  0  0  0
  183.8880  174.1690  136.6290 C   0  0  0  0  0  0  0  0  0  0  0  0
  187.0890  176.7280  136.1850 N   0  0  0  0  0  0  0  0  0  0  0  0
  181.6700  173.7790  137.3460 C   0  0  0  0  0  3  0  0  0  0  0  0
  181.0100  180.5320  136.1520 C   0  0  1  0  0  3  0  0  0  0  0  0
  185.0430  173.7530  135.9460 C   0  0  0  0  0  0  0  0  0  0  0  0
  180.7390  179.1220  135.6320 C   0  0  0  0  0  2  0  0  0  0  0  0
  183.3860  178.7190  141.6650 N   0  0  0  0  0  0  0  0  0  0  0  0
  182.6780  178.9550  142.7390 C   0  0  0  0  0  0  0  0  0  0  0  0
  184.4280  178.3800  144.2790 N   0  0  0  0  0  0  0  0  0  0  0  0
  183.3390  179.0380  144.0460 C   0  0  0  0  0  3  0  0  0  0  0  0
  186.4230  177.7370  145.7550 C   0  0  0  0  0  1  0  0  0  0  0  0
  184.6070  179.0910  146.4760 O   0  0  0  0  0  0  0  0  0  0  0  0
  185.1240  178.4540  145.5290 C   0  0  0  0  0  0  0  0  0  0  0  0
  181.2130  179.2290  142.6680 C   0  0  0  0  0  2  0  0  0  0  0  0
  180.4760  177.9790  142.6250 N   0  0  0  0  0  2  0  0  0  0  0  0
  179.4470  177.7570  141.6700 C   0  0  0  0  0  0  0  0  0  0  0  0
  179.0210  178.7070  140.9680 O   0  0  0  0  0  0  0  0  0  0  0  0
  178.9310  176.4760  141.5120 O   0  0  0  0  0  0  0  0  0  0  0  0
  179.2770  175.6580  140.4040 C   0  0  0  0  0  1  0  0  0  0  0  0
  179.8040  181.6920  135.4480 S   0  0  0  0  0  0  0  0  0  0  0  0
  180.1370  182.9300  136.7240 C   0  0  0  0  0  1  0  0  0  0  0  0
  1 16  1  0  0  0  0
  2 15  1  0  0  0  0
  3  5  1  0  0  0  0
  4 13  1  0  0  0  0
  4  3  1  0  0  0  0
  5 19  2  0  0  0  0
  6 16  1  0  0  0  0
  6 17  1  0  0  0  0
  8  7  1  6  0  0  0
  8 18  1  0  0  0  0
  9 11  1  6  0  0  0
  9  8  1  0  0  0  0
  9  3  1  0  0  0  0
 10 22  1  0  0  0  0
 12 24  1  0  0  0  0
 14  2  2  0  0  0  0
 15  4  2  0  0  0  0
 16 21  2  0  0  0  0
 17 24  2  0  0  0  0
 17 14  1  0  0  0  0
 18 19  1  0  0  0  0
 19 26  1  0  0  0  0
 20 10  2  0  0  0  0
 20 15  1  0  0  0  0
 21 14  1  0  0  0  0
 22 13  2  0  0  0  0
 23 39  1  6  0  0  0
 23  7  1  0  0  0  0
 24 20  1  0  0  0  0
 25 23  1  0  0  0  0
 25 11  1  0  0  0  0
 26 27  2  0  0  0  0
 27 29  1  0  0  0  0
 28 32  1  0  0  0  0
 29 28  2  0  0  0  0
 32 30  1  0  0  0  0
 32 31  2  0  0  0  0
 33 27  1  0  0  0  0
 34 33  1  0  0  0  0
 35 34  1  0  0  0  0
 36 35  2  0  0  0  0
 37 35  1  0  0  0  0
 38 37  1  0  0  0  0
 39 40  1  0  0  0  0
M  END
>  <MODEL>
4

>  <REMARK>
 VINA RESULT:      -5.8      2.355      3.536
  Name = 
  7 active torsions:
  status: ('A' for Active; 'I' for Inactive)
    1  A    between atoms: N_1  and  C_31
    2  A    between atoms: N_7  and  C_34
    3  A    between atoms: C_13  and  C_26
    4  A    between atoms: C_13  and  C_34
    5  A    between atoms: O_14  and  C_16
    6  A    between atoms: N_19  and  C_36
    7  A    between atoms: S_27  and  C_37
                            x       y       z     vdW  Elec       q    Type
                         _______ _______ _______ _____ _____    ______ ____

>  <TORSDO>
F 7

$$$$
=
 OpenBabel10222415373D

 40 44  0  0  1  0  0  0  0  0999 V2000
  179.8030  173.3550  139.4060 C   0  0  0  0  0  1  0  0  0  0  0  0
  182.6200  177.3220  139.4760 N   0  0  0  0  0  0  0  0  0  0  0  0
  185.0090  178.8170  139.7070 N   0  0  0  0  0  0  0  0  0  0  0  0
  183.7740  179.4270  139.3160 C   0  0  0  0  0  0  0  0  0  0  0  0
  185.2590  178.6580  141.1130 C   0  0  0  0  0  3  0  0  0  0  0  0
  179.1200  176.0170  138.7720 S   0  0  0  0  0  0  0  0  0  0  0  0
  188.3280  177.6290  138.2880 C   0  0  0  0  0  2  0  0  0  0  0  0
  187.1550  177.6800  139.2470 C   0  0  2  0  0  3  0  0  0  0  0  0
  186.1080  178.6750  138.7350 C   0  0  1  0  0  3  0  0  0  0  0  0
  181.4580  180.6220  138.4260 N   0  0  0  0  0  0  0  0  0  0  0  0
  185.6000  178.2030  137.3770 C   0  0  0  0  0  2  0  0  0  0  0  0
  179.0720  179.1250  138.1550 O   0  0  0  0  0  1  0  0  0  0  0  0
  183.7400  180.7480  139.0030 N   0  0  0  0  0  0  0  0  0  0  0  0
  181.4860  176.5940  139.3290 C   0  0  0  0  0  0  0  0  0  0  0  0
  182.6110  178.6650  139.2090 C   0  0  0  0  0  0  0  0  0  0  0  0
  180.1830  174.7850  139.2560 C   0  0  0  0  0  0  0  0  0  0  0  0
  180.3070  177.1900  138.9140 C   0  0  0  0  0  0  0  0  0  0  0  0
  187.6210  178.0980  140.6310 C   0  0  0  0  0  2  0  0  0  0  0  0
  186.4470  178.2590  141.5740 C   0  0  0  0  0  0  0  0  0  0  0  0
  181.4270  179.3040  138.7590 C   0  0  0  0  0  0  0  0  0  0  0  0
  181.4310  175.2520  139.5140 N   0  0  0  0  0  0  0  0  0  0  0  0
  182.6030  181.3440  138.5540 C   0  0  0  0  0  3  0  0  0  0  0  0
  187.8340  177.1700  136.9180 C   0  0  1  0  0  3  0  0  0  0  0  0
  180.2510  178.5490  138.6080 C   0  0  0  0  0  0  0  0  0  0  0  0
  186.7590  178.1190  136.3920 C   0  0  0  0  0  2  0  0  0  0  0  0
  186.6350  178.1720  142.9910 N   0  0  0  0  0  0  0  0  0  0  0  0
  185.8440  178.6780  143.9000 C   0  0  0  0  0  0  0  0  0  0  0  0
  187.2970  178.0320  145.6980 N   0  0  0  0  0  0  0  0  0  0  0  0
  186.1420  178.4790  145.3230 C   0  0  0  0  0  3  0  0  0  0  0  0
  188.9190  177.1760  147.4890 C   0  0  0  0  0  1  0  0  0  0  0  0
  186.8360  178.2180  147.9610 O   0  0  0  0  0  0  0  0  0  0  0  0
  187.6440  177.8510  147.0770 C   0  0  0  0  0  0  0  0  0  0  0  0
  184.6760  179.5330  143.5350 C   0  0  0  0  0  2  0  0  0  0  0  0
  183.5010  179.1090  144.2740 N   0  0  0  0  0  2  0  0  0  0  0  0
  182.2130  179.0840  143.6710 C   0  0  0  0  0  0  0  0  0  0  0  0
  182.0330  179.6120  142.5460 O   0  0  0  0  0  0  0  0  0  0  0  0
  181.1640  178.4570  144.3330 O   0  0  0  0  0  0  0  0  0  0  0  0
  179.8410  178.4630  143.8180 C   0  0  0  0  0  1  0  0  0  0  0  0
  189.2190  177.0960  135.7460 S   0  0  0  0  0  0  0  0  0  0  0  0
  190.4070  176.7180  137.0580 C   0  0  0  0  0  1  0  0  0  0  0  0
  3  5  1  0  0  0  0
  4  3  1  0  0  0  0
  5 19  2  0  0  0  0
  6 17  1  0  0  0  0
  6 16  1  0  0  0  0
  8  7  1  6  0  0  0
  8 18  1  0  0  0  0
  9 11  1  6  0  0  0
  9  8  1  0  0  0  0
  9  3  1  0  0  0  0
 10 22  2  0  0  0  0
 10 20  1  0  0  0  0
 12 24  1  0  0  0  0
 13  4  2  0  0  0  0
 14  2  2  0  0  0  0
 14 21  1  0  0  0  0
 15  4  1  0  0  0  0
 15  2  1  0  0  0  0
 16  1  1  0  0  0  0
 16 21  2  0  0  0  0
 17 14  1  0  0  0  0
 18 19  1  0  0  0  0
 19 26  1  0  0  0  0
 20 15  2  0  0  0  0
 22 13  1  0  0  0  0
 23 39  1  6  0  0  0
 23  7  1  0  0  0  0
 24 20  1  0  0  0  0
 24 17  2  0  0  0  0
 25 23  1  0  0  0  0
 25 11  1  0  0  0  0
 26 27  2  0  0  0  0
 27 29  1  0  0  0  0
 28 32  1  0  0  0  0
 29 28  2  0  0  0  0
 32 30  1  0  0  0  0
 32 31  2  0  0  0  0
 33 27  1  0  0  0  0
 33 34  1  0  0  0  0
 35 34  1  0  0  0  0
 35 37  1  0  0  0  0
 36 35  2  0  0  0  0
 38 37  1  0  0  0  0
 39 40  1  0  0  0  0
M  END
>  <MODEL>
5

>  <REMARK>
 VINA RESULT:      -5.8      3.315      6.501
  Name = 
  7 active torsions:
  status: ('A' for Active; 'I' for Inactive)
    1  A    between atoms: N_1  and  C_31
    2  A    between atoms: N_7  and  C_34
    3  A    between atoms: C_13  and  C_26
    4  A    between atoms: C_13  and  C_34
    5  A    between atoms: O_14  and  C_16
    6  A    between atoms: N_19  and  C_36
    7  A    between atoms: S_27  and  C_37
                            x       y       z     vdW  Elec       q    Type
                         _______ _______ _______ _____ _____    ______ ____

>  <TORSDO>
F 7

$$$$
=
 OpenBabel10222415373D

 40 44  0  0  1  0  0  0  0  0999 V2000
  196.8390  179.1440  134.8310 C   0  0  0  0  0  1  0  0  0  0  0  0
  193.2970  176.2230  136.4420 N   0  0  0  0  0  0  0  0  0  0  0  0
  190.8050  175.5390  137.5920 N   0  0  0  0  0  0  0  0  0  0  0  0
  191.6690  174.5490  137.0220 C   0  0  0  0  0  0  0  0  0  0  0  0
  191.0490  175.9340  138.9500 C   0  0  0  0  0  3  0  0  0  0  0  0
  196.6160  176.3430  134.5940 S   0  0  0  0  0  0  0  0  0  0  0  0
  187.6100  177.4700  136.8840 C   0  0  0  0  0  2  0  0  0  0  0  0
  188.9710  177.1920  137.4910 C   0  0  2  0  0  3  0  0  0  0  0  0
  189.5310  175.8790  136.9340 C   0  0  1  0  0  3  0  0  0  0  0  0
  193.2280  172.6250  135.8160 N   0  0  0  0  0  0  0  0  0  0  0  0
  189.6930  176.0120  135.4240 C   0  0  0  0  0  2  0  0  0  0  0  0
  195.7040  173.3090  134.6290 O   0  0  0  0  0  1  0  0  0  0  0  0
  191.2790  173.2490  136.9860 N   0  0  0  0  0  0  0  0  0  0  0  0
  194.4720  176.5620  135.8570 C   0  0  0  0  0  0  0  0  0  0  0  0
  192.8910  174.9150  136.4600 C   0  0  0  0  0  0  0  0  0  0  0  0
  196.0910  177.8830  135.0790 C   0  0  0  0  0  0  0  0  0  0  0  0
  195.2810  175.5990  135.2770 C   0  0  0  0  0  0  0  0  0  0  0  0
  188.8670  177.1020  139.0040 C   0  0  0  0  0  2  0  0  0  0  0  0
  190.1980  176.7190  139.6170 C   0  0  0  0  0  0  0  0  0  0  0  0
  193.6840  173.9060  135.8540 C   0  0  0  0  0  0  0  0  0  0  0  0
  194.9100  177.8400  135.7450 N   0  0  0  0  0  0  0  0  0  0  0  0
  192.0380  172.2940  136.3840 C   0  0  0  0  0  3  0  0  0  0  0  0
  187.7530  177.5930  135.3690 C   0  0  1  0  0  3  0  0  0  0  0  0
  194.9030  174.2560  135.2500 C   0  0  0  0  0  0  0  0  0  0  0  0
  188.3450  176.3130  134.7830 C   0  0  0  0  0  2  0  0  0  0  0  0
  190.4840  177.0290  140.9860 N   0  0  0  0  0  0  0  0  0  0  0  0
  189.7680  177.8000  141.7610 C   0  0  0  0  0  0  0  0  0  0  0  0
  190.0100  177.0540  144.0300 N   0  0  0  0  0  0  0  0  0  0  0  0
  190.1620  178.0000  143.1600 C   0  0  0  0  0  3  0  0  0  0  0  0
  189.4170  177.1110  146.5240 C   0  0  0  0  0  1  0  0  0  0  0  0
  191.6070  177.4420  145.6630 O   0  0  0  0  0  0  0  0  0  0  0  0
  190.4080  177.1920  145.4000 C   0  0  0  0  0  0  0  0  0  0  0  0
  188.5940  178.5610  141.2420 C   0  0  0  0  0  2  0  0  0  0  0  0
  187.4550  178.3780  142.1230 N   0  0  0  0  0  2  0  0  0  0  0  0
  186.1370  178.7180  141.7130 C   0  0  0  0  0  0  0  0  0  0  0  0
  185.9530  179.3640  140.6520 O   0  0  0  0  0  0  0  0  0  0  0  0
  185.0570  178.3130  142.4890 O   0  0  0  0  0  0  0  0  0  0  0  0
  185.1510  178.1950  143.9010 C   0  0  0  0  0  1  0  0  0  0  0  0
  186.1370  177.9280  134.6130 S   0  0  0  0  0  0  0  0  0  0  0  0
  185.2520  177.1140  135.9640 C   0  0  0  0  0  1  0  0  0  0  0  0
  1 16  1  0  0  0  0
  2 15  1  0  0  0  0
  3  5  1  0  0  0  0
  4  3  1  0  0  0  0
  5 19  2  0  0  0  0
  6 16  1  0  0  0  0
  6 17  1  0  0  0  0
  8  7  1  6  0  0  0
  8 18  1  0  0  0  0
  9 11  1  6  0  0  0
  9  8  1  0  0  0  0
  9  3  1  0  0  0  0
 10 20  2  0  0  0  0
 10 22  1  0  0  0  0
 12 24  1  0  0  0  0
 13  4  1  0  0  0  0
 14  2  2  0  0  0  0
 15  4  2  0  0  0  0
 16 21  2  0  0  0  0
 17 14  1  0  0  0  0
 18 19  1  0  0  0  0
 19 26  1  0  0  0  0
 20 15  1  0  0  0  0
 21 14  1  0  0  0  0
 22 13  2  0  0  0  0
 23 39  1  6  0  0  0
 23  7  1  0  0  0  0
 24 17  2  0  0  0  0
 24 20  1  0  0  0  0
 25 23  1  0  0  0  0
 25 11  1  0  0  0  0
 26 27  2  0  0  0  0
 27 29  1  0  0  0  0
 28 32  1  0  0  0  0
 29 28  2  0  0  0  0
 32 31  2  0  0  0  0
 32 30  1  0  0  0  0
 33 27  1  0  0  0  0
 33 34  1  0  0  0  0
 35 34  1  0  0  0  0
 35 37  1  0  0  0  0
 36 35  2  0  0  0  0
 37 38  1  0  0  0  0
 39 40  1  0  0  0  0
M  END
>  <MODEL>
6

>  <REMARK>
 VINA RESULT:      -5.7      4.604      7.486
  Name = 
  7 active torsions:
  status: ('A' for Active; 'I' for Inactive)
    1  A    between atoms: N_1  and  C_31
    2  A    between atoms: N_7  and  C_34
    3  A    between atoms: C_13  and  C_26
    4  A    between atoms: C_13  and  C_34
    5  A    between atoms: O_14  and  C_16
    6  A    between atoms: N_19  and  C_36
    7  A    between atoms: S_27  and  C_37
                            x       y       z     vdW  Elec       q    Type
                         _______ _______ _______ _____ _____    ______ ____

>  <TORSDO>
F 7

$$$$
=
 OpenBabel10222415373D

 40 44  0  0  1  0  0  0  0  0999 V2000
  190.3260  176.3640  143.9620 C   0  0  0  0  0  1  0  0  0  0  0  0
  189.0010  176.6500  139.2890 N   0  0  0  0  0  0  0  0  0  0  0  0
  188.9480  175.9530  136.5490 N   0  0  0  0  0  0  0  0  0  0  0  0
  188.0630  176.9390  137.0920 C   0  0  0  0  0  0  0  0  0  0  0  0
  190.2650  176.3780  136.1650 C   0  0  0  0  0  3  0  0  0  0  0  0
  188.3360  177.9790  142.7870 S   0  0  0  0  0  0  0  0  0  0  0  0
  189.0150  172.3520  135.3380 C   0  0  0  0  0  2  0  0  0  0  0  0
  189.5600  173.6450  135.9120 C   0  0  2  0  0  3  0  0  0  0  0  0
  188.4210  174.6540  136.0910 C   0  0  1  0  0  3  0  0  0  0  0  0
  186.2460  178.7400  138.1130 N   0  0  0  0  0  0  0  0  0  0  0  0
  187.4040  174.0820  137.0710 C   0  0  0  0  0  2  0  0  0  0  0  0
  186.2680  179.4140  140.8610 O   0  0  0  0  0  1  0  0  0  0  0  0
  187.1380  177.5340  136.2950 N   0  0  0  0  0  0  0  0  0  0  0  0
  189.0050  176.9530  140.6100 C   0  0  0  0  0  0  0  0  0  0  0  0
  188.1100  177.2620  138.4480 C   0  0  0  0  0  0  0  0  0  0  0  0
  189.5710  176.8140  142.7630 C   0  0  0  0  0  0  0  0  0  0  0  0
  188.1190  177.8810  141.1300 C   0  0  0  0  0  0  0  0  0  0  0  0
  190.6180  174.2280  134.9910 C   0  0  0  0  0  2  0  0  0  0  0  0
  191.0950  175.5730  135.4960 C   0  0  0  0  0  0  0  0  0  0  0  0
  187.1730  178.2010  138.9500 C   0  0  0  0  0  0  0  0  0  0  0  0
  189.8130  176.3450  141.5140 N   0  0  0  0  0  0  0  0  0  0  0  0
  186.2320  178.4170  136.7920 C   0  0  0  0  0  3  0  0  0  0  0  0
  187.9840  171.7710  136.3020 C   0  0  1  0  0  3  0  0  0  0  0  0
  187.1770  178.5150  140.3190 C   0  0  0  0  0  0  0  0  0  0  0  0
  186.8500  172.7680  136.5350 C   0  0  0  0  0  2  0  0  0  0  0  0
  192.3740  176.0860  135.1030 N   0  0  0  0  0  0  0  0  0  0  0  0
  193.5310  175.6930  135.5680 C   0  0  0  0  0  0  0  0  0  0  0  0
  195.1560  177.4540  135.4360 N   0  0  0  0  0  0  0  0  0  0  0  0
  194.7680  176.2830  135.0460 C   0  0  0  0  0  3  0  0  0  0  0  0
  197.5680  177.2370  134.5940 C   0  0  0  0  0  1  0  0  0  0  0  0
  196.4560  179.3080  134.9460 O   0  0  0  0  0  0  0  0  0  0  0  0
  196.3720  178.0580  134.9770 C   0  0  0  0  0  0  0  0  0  0  0  0
  193.6330  174.7110  136.6870 C   0  0  0  0  0  2  0  0  0  0  0  0
  194.3200  175.3150  137.8150 N   0  0  0  0  0  2  0  0  0  0  0  0
  195.0860  174.5340  138.7220 C   0  0  0  0  0  0  0  0  0  0  0  0
  195.0290  173.2810  138.6810 O   0  0  0  0  0  0  0  0  0  0  0  0
  195.9090  175.1730  139.6430 O   0  0  0  0  0  0  0  0  0  0  0  0
  197.2950  174.8800  139.7410 C   0  0  0  0  0  1  0  0  0  0  0  0
  187.3140  170.2180  135.6420 S   0  0  0  0  0  0  0  0  0  0  0  0
  185.6970  170.9640  135.3220 C   0  0  0  0  0  1  0  0  0  0  0  0
  2 14  2  0  0  0  0
  3  4  1  0  0  0  0
  4 15  1  0  0  0  0
  5  3  1  0  0  0  0
  7  8  1  0  0  0  0
  7 23  1  0  0  0  0
  8 18  1  6  0  0  0
  8  9  1  0  0  0  0
  9  3  1  0  0  0  0
  9 11  1  1  0  0  0
 10 20  1  0  0  0  0
 13 22  1  0  0  0  0
 13  4  2  0  0  0  0
 14 17  1  0  0  0  0
 14 21  1  0  0  0  0
 15 20  2  0  0  0  0
 15  2  1  0  0  0  0
 16  6  1  0  0  0  0
 16  1  1  0  0  0  0
 17  6  1  0  0  0  0
 18 19  1  0  0  0  0
 19  5  2  0  0  0  0
 20 24  1  0  0  0  0
 21 16  2  0  0  0  0
 22 10  2  0  0  0  0
 23 39  1  6  0  0  0
 23 25  1  0  0  0  0
 24 12  1  0  0  0  0
 24 17  2  0  0  0  0
 25 11  1  0  0  0  0
 26 19  1  0  0  0  0
 26 27  2  0  0  0  0
 27 33  1  0  0  0  0
 29 28  2  0  0  0  0
 29 27  1  0  0  0  0
 30 32  1  0  0  0  0
 31 32  2  0  0  0  0
 32 28  1  0  0  0  0
 33 34  1  0  0  0  0
 34 35  1  0  0  0  0
 35 37  1  0  0  0  0
 36 35  2  0  0  0  0
 37 38  1  0  0  0  0
 40 39  1  0  0  0  0
M  END
>  <MODEL>
7

>  <REMARK>
 VINA RESULT:      -5.7      4.699      9.660
  Name = 
  7 active torsions:
  status: ('A' for Active; 'I' for Inactive)
    1  A    between atoms: N_1  and  C_31
    2  A    between atoms: N_7  and  C_34
    3  A    between atoms: C_13  and  C_26
    4  A    between atoms: C_13  and  C_34
    5  A    between atoms: O_14  and  C_16
    6  A    between atoms: N_19  and  C_36
    7  A    between atoms: S_27  and  C_37
                            x       y       z     vdW  Elec       q    Type
                         _______ _______ _______ _____ _____    ______ ____

>  <TORSDO>
F 7

$$$$
=
 OpenBabel10222415373D

 40 44  0  0  1  0  0  0  0  0999 V2000
  180.9100  178.9390  143.3670 C   0  0  0  0  0  1  0  0  0  0  0  0
  182.0030  178.0970  138.7010 N   0  0  0  0  0  0  0  0  0  0  0  0
  183.1300  176.7350  136.4940 N   0  0  0  0  0  0  0  0  0  0  0  0
  182.2670  177.8640  136.3210 C   0  0  0  0  0  0  0  0  0  0  0  0
  184.5220  176.9900  136.7380 C   0  0  0  0  0  3  0  0  0  0  0  0
  179.9980  180.2930  141.0680 S   0  0  0  0  0  0  0  0  0  0  0  0
  183.1720  172.9450  136.2150 C   0  0  0  0  0  2  0  0  0  0  0  0
  183.5850  174.3150  136.7150 C   0  0  2  0  0  3  0  0  0  0  0  0
  182.6770  175.3870  136.1030 C   0  0  1  0  0  3  0  0  0  0  0  0
  180.5040  179.9440  135.9280 N   0  0  0  0  0  0  0  0  0  0  0  0
  181.2400  175.1270  136.5420 C   0  0  0  0  0  2  0  0  0  0  0  0
  179.3420  181.2870  138.1310 O   0  0  0  0  0  1  0  0  0  0  0  0
  181.9360  178.2790  135.0710 N   0  0  0  0  0  0  0  0  0  0  0  0
  181.4340  178.7220  139.7610 C   0  0  0  0  0  0  0  0  0  0  0  0
  181.7240  178.5160  137.4270 C   0  0  0  0  0  0  0  0  0  0  0  0
  180.8910  179.1060  141.8900 C   0  0  0  0  0  0  0  0  0  0  0  0
  180.5720  179.7900  139.5780 C   0  0  0  0  0  0  0  0  0  0  0  0
  185.0310  174.5990  136.3450 C   0  0  0  0  0  2  0  0  0  0  0  0
  185.4260  176.0060  136.7420 C   0  0  0  0  0  0  0  0  0  0  0  0
  180.8270  179.5920  137.2020 C   0  0  0  0  0  0  0  0  0  0  0  0
  181.6120  178.3270  141.0460 N   0  0  0  0  0  0  0  0  0  0  0  0
  181.0600  179.2990  134.8680 C   0  0  0  0  0  3  0  0  0  0  0  0
  181.7290  172.6730  136.6350 C   0  0  1  0  0  3  0  0  0  0  0  0
  180.2390  180.2410  138.3010 C   0  0  0  0  0  0  0  0  0  0  0  0
  180.7980  173.7460  136.0740 C   0  0  0  0  0  2  0  0  0  0  0  0
  186.8030  176.3450  136.9410 N   0  0  0  0  0  0  0  0  0  0  0  0
  187.2500  177.3230  137.6860 C   0  0  0  0  0  0  0  0  0  0  0  0
  189.4100  176.7280  138.5470 N   0  0  0  0  0  0  0  0  0  0  0  0
  188.6950  177.5320  137.8290 C   0  0  0  0  0  3  0  0  0  0  0  0
  191.4570  177.2290  140.0060 C   0  0  0  0  0  1  0  0  0  0  0  0
  191.5580  176.7550  137.6800 O   0  0  0  0  0  0  0  0  0  0  0  0
  190.8290  176.8740  138.6910 C   0  0  0  0  0  0  0  0  0  0  0  0
  186.3270  178.2980  138.3370 C   0  0  0  0  0  2  0  0  0  0  0  0
  186.5850  178.3490  139.7640 N   0  0  0  0  0  2  0  0  0  0  0  0
  185.6770  178.9750  140.6610 C   0  0  0  0  0  0  0  0  0  0  0  0
  184.7280  179.6660  140.2180 O   0  0  0  0  0  0  0  0  0  0  0  0
  185.8450  178.8000  142.0300 O   0  0  0  0  0  0  0  0  0  0  0  0
  184.7470  178.5410  142.8940 C   0  0  0  0  0  1  0  0  0  0  0  0
  181.2050  171.0360  136.0520 S   0  0  0  0  0  0  0  0  0  0  0  0
  179.5340  171.2530  136.7100 C   0  0  0  0  0  1  0  0  0  0  0  0
  2 14  2  0  0  0  0
  3  5  1  0  0  0  0
  4  3  1  0  0  0  0
  4 15  1  0  0  0  0
  5 19  2  0  0  0  0
  6 16  1  0  0  0  0
  7 23  1  0  0  0  0
  8  7  1  6  0  0  0
  9  3  1  0  0  0  0
  9 11  1  1  0  0  0
  9  8  1  0  0  0  0
 10 20  1  0  0  0  0
 12 24  1  0  0  0  0
 13  4  2  0  0  0  0
 14 21  1  0  0  0  0
 15  2  1  0  0  0  0
 16  1  1  0  0  0  0
 17 14  1  0  0  0  0
 17  6  1  0  0  0  0
 18  8  1  0  0  0  0
 18 19  1  0  0  0  0
 19 26  1  0  0  0  0
 20 15  2  0  0  0  0
 20 24  1  0  0  0  0
 21 16  2  0  0  0  0
 22 13  1  0  0  0  0
 22 10  2  0  0  0  0
 23 39  1  6  0  0  0
 24 17  2  0  0  0  0
 25 11  1  0  0  0  0
 25 23  1  0  0  0  0
 26 27  2  0  0  0  0
 27 29  1  0  0  0  0
 27 33  1  0  0  0  0
 28 32  1  0  0  0  0
 29 28  2  0  0  0  0
 31 32  2  0  0  0  0
 32 30  1  0  0  0  0
 33 34  1  0  0  0  0
 34 35  1  0  0  0  0
 35 37  1  0  0  0  0
 36 35  2  0  0  0  0
 37 38  1  0  0  0  0
 39 40  1  0  0  0  0
M  END
>  <MODEL>
8

>  <REMARK>
 VINA RESULT:      -5.7      2.977      7.157
  Name = 
  7 active torsions:
  status: ('A' for Active; 'I' for Inactive)
    1  A    between atoms: N_1  and  C_31
    2  A    between atoms: N_7  and  C_34
    3  A    between atoms: C_13  and  C_26
    4  A    between atoms: C_13  and  C_34
    5  A    between atoms: O_14  and  C_16
    6  A    between atoms: N_19  and  C_36
    7  A    between atoms: S_27  and  C_37
                            x       y       z     vdW  Elec       q    Type
                         _______ _______ _______ _____ _____    ______ ____

>  <TORSDO>
F 7

$$$$
=
 OpenBabel10222415373D

 40 44  0  0  1  0  0  0  0  0999 V2000
  187.4790  178.6630  141.2460 C   0  0  0  0  0  1  0  0  0  0  0  0
  182.6190  178.5540  141.4480 N   0  0  0  0  0  0  0  0  0  0  0  0
  179.9770  178.2490  140.4850 N   0  0  0  0  0  0  0  0  0  0  0  0
  180.2540  178.4320  141.8780 C   0  0  0  0  0  0  0  0  0  0  0  0
  179.8820  179.4230  139.6630 C   0  0  0  0  0  3  0  0  0  0  0  0
  185.8010  178.8440  143.5060 S   0  0  0  0  0  0  0  0  0  0  0  0
  178.9990  175.5760  137.9680 C   0  0  0  0  0  2  0  0  0  0  0  0
  179.6150  176.8670  138.4680 C   0  0  2  0  0  3  0  0  0  0  0  0
  179.4790  176.9520  139.9920 C   0  0  1  0  0  3  0  0  0  0  0  0
  180.7420  178.6430  144.5800 N   0  0  0  0  0  0  0  0  0  0  0  0
  180.2300  175.7840  140.6210 C   0  0  0  0  0  2  0  0  0  0  0  0
  183.3850  178.9110  145.5540 O   0  0  0  0  0  1  0  0  0  0  0  0
  179.2380  178.4190  142.7790 N   0  0  0  0  0  0  0  0  0  0  0  0
  183.8890  178.6620  141.9080 C   0  0  0  0  0  0  0  0  0  0  0  0
  181.5670  178.5790  142.3250 C   0  0  0  0  0  0  0  0  0  0  0  0
  186.1190  178.6790  141.8460 C   0  0  0  0  0  0  0  0  0  0  0  0
  184.1450  178.8020  143.2620 C   0  0  0  0  0  0  0  0  0  0  0  0
  178.9310  178.0620  137.8270 C   0  0  0  0  0  2  0  0  0  0  0  0
  179.4610  179.3610  138.3970 C   0  0  0  0  0  0  0  0  0  0  0  0
  181.7940  178.6980  143.7200 C   0  0  0  0  0  0  0  0  0  0  0  0
  184.9830  178.5830  141.1100 N   0  0  0  0  0  0  0  0  0  0  0  0
  179.4710  178.5140  144.1150 C   0  0  0  0  0  3  0  0  0  0  0  0
  179.7320  174.3940  138.5990 C   0  0  1  0  0  3  0  0  0  0  0  0
  183.1110  178.8100  144.1980 C   0  0  0  0  0  0  0  0  0  0  0  0
  179.6500  174.4670  140.1220 C   0  0  0  0  0  2  0  0  0  0  0  0
  179.3440  180.5820  137.6560 N   0  0  0  0  0  0  0  0  0  0  0  0
  180.1930  181.0190  136.7640 C   0  0  0  0  0  0  0  0  0  0  0  0
  180.0530  183.4130  136.6550 N   0  0  0  0  0  0  0  0  0  0  0  0
  179.9260  182.2740  136.0530 C   0  0  0  0  0  3  0  0  0  0  0  0
  179.3600  185.8800  136.7370 C   0  0  0  0  0  1  0  0  0  0  0  0
  179.9860  184.7330  134.7520 O   0  0  0  0  0  0  0  0  0  0  0  0
  179.8320  184.6650  135.9940 C   0  0  0  0  0  0  0  0  0  0  0  0
  181.4840  180.3190  136.5010 C   0  0  0  0  0  2  0  0  0  0  0  0
  181.3040  179.3220  135.4610 N   0  0  0  0  0  2  0  0  0  0  0  0
  181.7670  177.9880  135.6230 C   0  0  0  0  0  0  0  0  0  0  0  0
  182.5130  177.6910  136.5890 O   0  0  0  0  0  0  0  0  0  0  0  0
  181.3730  177.0150  134.7120 O   0  0  0  0  0  0  0  0  0  0  0  0
  181.5810  175.6310  134.9530 C   0  0  0  0  0  1  0  0  0  0  0  0
  179.0170  172.8300  138.0160 S   0  0  0  0  0  0  0  0  0  0  0  0
  180.5550  172.3460  137.1950 C   0  0  0  0  0  1  0  0  0  0  0  0
  1 16  1  0  0  0  0
  2 14  2  0  0  0  0
  2 15  1  0  0  0  0
  3  4  1  0  0  0  0
  4 15  2  0  0  0  0
  4 13  1  0  0  0  0
  5  3  1  0  0  0  0
  7  8  1  0  0  0  0
  7 23  1  0  0  0  0
  8 18  1  6  0  0  0
  8  9  1  0  0  0  0
  9  3  1  0  0  0  0
  9 11  1  1  0  0  0
 13 22  2  0  0  0  0
 14 17  1  0  0  0  0
 15 20  1  0  0  0  0
 16  6  1  0  0  0  0
 17  6  1  0  0  0  0
 17 24  2  0  0  0  0
 18 19  1  0  0  0  0
 19  5  2  0  0  0  0
 20 24  1  0  0  0  0
 20 10  2  0  0  0  0
 21 16  2  0  0  0  0
 21 14  1  0  0  0  0
 22 10  1  0  0  0  0
 23 39  1  6  0  0  0
 23 25  1  0  0  0  0
 24 12  1  0  0  0  0
 25 11  1  0  0  0  0
 26 19  1  0  0  0  0
 27 26  2  0  0  0  0
 29 28  2  0  0  0  0
 29 27  1  0  0  0  0
 31 32  2  0  0  0  0
 32 28  1  0  0  0  0
 32 30  1  0  0  0  0
 33 27  1  0  0  0  0
 34 35  1  0  0  0  0
 34 33  1  0  0  0  0
 35 36  2  0  0  0  0
 37 38  1  0  0  0  0
 37 35  1  0  0  0  0
 40 39  1  0  0  0  0
M  END
>  <MODEL>
9

>  <REMARK>
 VINA RESULT:      -5.5      4.240      8.346
  Name = 
  7 active torsions:
  status: ('A' for Active; 'I' for Inactive)
    1  A    between atoms: N_1  and  C_31
    2  A    between atoms: N_7  and  C_34
    3  A    between atoms: C_13  and  C_26
    4  A    between atoms: C_13  and  C_34
    5  A    between atoms: O_14  and  C_16
    6  A    between atoms: N_19  and  C_36
    7  A    between atoms: S_27  and  C_37
                            x       y       z     vdW  Elec       q    Type
                         _______ _______ _______ _____ _____    ______ ____

>  <TORSDO>
F 7

$$$$
