=
 OpenBabel10222416383D

 30 36  0  0  1  0  0  0  0  0999 V2000
  192.3900  175.1660  147.2020 C   0  0  0  0  0  3  0  0  0  0  0  0
  189.4570  177.2200  144.9290 C   0  0  0  0  0  0  0  0  0  0  0  0
  189.0070  178.0660  147.1340 C   0  0  0  0  0  0  0  0  0  0  0  0
  185.9670  178.3670  145.1050 C   0  0  0  0  0  0  0  0  0  0  0  0
  192.2170  175.0350  145.6750 C   0  0  0  0  0  3  0  0  0  0  0  0
  190.3800  176.2370  144.3030 C   0  0  1  0  0  3  0  0  0  0  0  0
  186.4190  177.5970  142.8790 N   0  0  0  0  0  0  0  0  0  0  0  0
  187.7350  177.3840  143.1560 C   0  0  0  0  0  0  0  0  0  0  0  0
  188.1870  177.5840  144.4850 C   0  0  0  0  0  0  0  0  0  0  0  0
  191.6500  176.4310  147.6560 C   0  0  0  0  0  2  0  0  0  0  0  0
  189.8770  177.4790  146.2140 C   0  0  0  0  0  0  0  0  0  0  0  0
  190.8350  176.6970  142.9680 C   0  0  0  0  0  3  0  0  0  0  0  0
  185.5340  178.0570  143.8020 C   0  0  0  0  0  0  0  0  0  0  0  0
  183.3120  178.7730  144.3930 C   0  0  0  0  0  3  0  0  0  0  0  0
  184.2010  178.2640  143.4450 C   0  0  0  0  0  3  0  0  0  0  0  0
  189.3630  178.2940  148.3210 O   0  0  0  0  0  0  0  0  0  0  0  0
  185.0380  178.8750  146.0220 C   0  0  0  0  0  3  0  0  0  0  0  0
  191.4830  176.2130  145.2580 N   0  0  0  0  0  0  0  0  0  0  0  0
  183.7430  179.0660  145.6490 N   0  0  0  0  0  0  0  0  0  0  0  0
  187.7410  178.3690  146.7320 N   0  0  0  0  0  2  0  0  0  0  0  0
  190.0120  177.0460  141.9730 C   0  0  0  0  0  0  0  0  0  0  0  0
  188.5300  177.1370  142.0970 C   0  0  0  0  0  2  0  0  0  0  0  0
  187.3030  178.1300  145.4550 C   0  0  0  0  0  0  0  0  0  0  0  0
  191.0620  176.9200  146.3960 C   0  0  2  0  0  3  0  0  0  0  0  0
  191.8130  177.7420  140.5760 O   0  0  0  0  0  0  0  0  0  0  0  0
  190.6130  177.3620  140.6560 C   0  0  0  0  0  0  0  0  0  0  0  0
  189.8250  177.2180  139.3940 C   0  0  0  0  0  2  0  0  0  0  0  0
  188.0040  178.6430  139.0060 O   0  0  0  0  0  0  0  0  0  0  0  0
  189.3570  178.5780  138.9110 C   0  0  2  0  0  3  0  0  0  0  0  0
  188.5280  178.4230  137.7430 N   0  0  0  0  0  2  0  0  0  0  0  0
  1 10  1  0  0  0  0
  2 11  2  0  0  0  0
  3 16  2  0  0  0  0
  4 23  1  0  0  0  0
  4 17  1  0  0  0  0
  5  1  2  0  0  0  0
  6 12  1  6  0  0  0
  6  2  1  0  0  0  0
  6 18  1  0  0  0  0
  7  8  2  0  0  0  0
  7 13  1  0  0  0  0
  8  9  1  0  0  0  0
  9  2  1  0  0  0  0
  9 23  2  0  0  0  0
 11 24  1  0  0  0  0
 11  3  1  0  0  0  0
 13  4  2  0  0  0  0
 14 19  1  0  0  0  0
 15 13  1  0  0  0  0
 15 14  2  0  0  0  0
 18  5  1  0  0  0  0
 18 24  1  0  0  0  0
 19 17  2  0  0  0  0
 20  3  1  0  0  0  0
 21 22  1  0  0  0  0
 21 12  2  0  0  0  0
 22  8  1  0  0  0  0
 23 20  1  0  0  0  0
 24 10  1  1  0  0  0
 25 26  2  0  0  0  0
 26 21  1  0  0  0  0
 27 26  1  0  0  0  0
 29 28  1  0  0  0  0
 29 27  1  1  0  0  0
 30 29  1  0  0  0  0
 30 28  1  0  0  0  0
M  END
>  <MODEL>
1

>  <REMARK>
 VINA RESULT:     -10.7      0.000      0.000
  Name = 
  3 active torsions:
  status: ('A' for Active; 'I' for Inactive)
    1  A    between atoms: C_7  and  C_13
    2  A    between atoms: C_7  and  C_23
    3  A    between atoms: C_23  and  C_26
                            x       y       z     vdW  Elec       q    Type
                         _______ _______ _______ _____ _____    ______ ____

>  <TORSDO>
F 3

$$$$
=
 OpenBabel10222416383D

 30 36  0  0  1  0  0  0  0  0999 V2000
  187.5740  178.6560  148.1840 C   0  0  0  0  0  3  0  0  0  0  0  0
  187.0300  177.9430  144.0390 C   0  0  0  0  0  0  0  0  0  0  0  0
  189.0340  176.6850  144.4630 C   0  0  0  0  0  0  0  0  0  0  0  0
  188.9280  177.5860  140.9090 C   0  0  0  0  0  0  0  0  0  0  0  0
  186.4000  179.2040  147.3490 C   0  0  0  0  0  3  0  0  0  0  0  0
  186.1090  178.8240  144.8050 C   0  0  1  0  0  3  0  0  0  0  0  0
  186.8970  178.7770  140.4530 N   0  0  0  0  0  0  0  0  0  0  0  0
  186.4460  178.6170  141.7270 C   0  0  0  0  0  0  0  0  0  0  0  0
  187.2990  177.9920  142.6720 C   0  0  0  0  0  0  0  0  0  0  0  0
  188.2230  177.5120  147.3930 C   0  0  0  0  0  2  0  0  0  0  0  0
  187.8560  177.2810  144.9170 C   0  0  0  0  0  0  0  0  0  0  0  0
  184.7000  178.6300  144.3860 C   0  0  0  0  0  3  0  0  0  0  0  0
  188.0970  178.3040  140.0270 C   0  0  0  0  0  0  0  0  0  0  0  0
  189.7100  177.9680  138.2700 C   0  0  0  0  0  3  0  0  0  0  0  0
  188.4900  178.4920  138.7020 C   0  0  0  0  0  3  0  0  0  0  0  0
  189.8160  176.0910  145.2520 O   0  0  0  0  0  0  0  0  0  0  0  0
  190.1430  177.0790  140.4300 C   0  0  0  0  0  3  0  0  0  0  0  0
  186.3230  178.3620  146.1720 N   0  0  0  0  0  0  0  0  0  0  0  0
  190.5030  177.2780  139.1330 N   0  0  0  0  0  0  0  0  0  0  0  0
  189.3430  176.7810  143.1390 N   0  0  0  0  0  2  0  0  0  0  0  0
  184.2700  178.7350  143.1240 C   0  0  0  0  0  0  0  0  0  0  0  0
  185.1580  178.9440  141.9450 C   0  0  0  0  0  2  0  0  0  0  0  0
  188.5310  177.4260  142.2430 C   0  0  0  0  0  0  0  0  0  0  0  0
  187.4310  177.5000  146.1510 C   0  0  2  0  0  3  0  0  0  0  0  0
  182.3700  178.5200  141.7020 O   0  0  0  0  0  0  0  0  0  0  0  0
  182.8120  178.6390  142.8780 C   0  0  0  0  0  0  0  0  0  0  0  0
  181.8360  178.6570  144.0090 C   0  0  0  0  0  2  0  0  0  0  0  0
  179.5640  179.0060  144.4700 O   0  0  0  0  0  0  0  0  0  0  0  0
  180.4160  178.6460  143.4750 C   0  0  2  0  0  3  0  0  0  0  0  0
  179.6390  177.6550  144.1740 N   0  0  0  0  0  2  0  0  0  0  0  0
  2  6  1  0  0  0  0
  2 11  2  0  0  0  0
  3 11  1  0  0  0  0
  3 16  2  0  0  0  0
  4 23  2  0  0  0  0
  5  1  2  0  0  0  0
  6 12  1  6  0  0  0
  6 18  1  0  0  0  0
  7  8  1  0  0  0  0
  8 22  1  0  0  0  0
  8  9  2  0  0  0  0
  9  2  1  0  0  0  0
 10  1  1  0  0  0  0
 11 24  1  0  0  0  0
 13  7  2  0  0  0  0
 13  4  1  0  0  0  0
 14 15  2  0  0  0  0
 14 19  1  0  0  0  0
 15 13  1  0  0  0  0
 17  4  1  0  0  0  0
 18  5  1  0  0  0  0
 19 17  2  0  0  0  0
 20  3  1  0  0  0  0
 21 12  2  0  0  0  0
 22 21  1  0  0  0  0
 23  9  1  0  0  0  0
 23 20  1  0  0  0  0
 24 18  1  0  0  0  0
 24 10  1  1  0  0  0
 25 26  2  0  0  0  0
 26 21  1  0  0  0  0
 26 27  1  0  0  0  0
 29 27  1  1  0  0  0
 29 30  1  0  0  0  0
 29 28  1  0  0  0  0
 30 28  1  0  0  0  0
M  END
>  <MODEL>
2

>  <REMARK>
 VINA RESULT:      -9.7      2.864      6.433
  Name = 
  3 active torsions:
  status: ('A' for Active; 'I' for Inactive)
    1  A    between atoms: C_7  and  C_13
    2  A    between atoms: C_7  and  C_23
    3  A    between atoms: C_23  and  C_26
                            x       y       z     vdW  Elec       q    Type
                         _______ _______ _______ _____ _____    ______ ____

>  <TORSDO>
F 3

$$$$
=
 OpenBabel10222416383D

 30 36  0  0  1  0  0  0  0  0999 V2000
  184.0020  178.2640  144.6740 C   0  0  0  0  0  3  0  0  0  0  0  0
  187.6110  177.9830  142.4640 C   0  0  0  0  0  0  0  0  0  0  0  0
  186.1610  179.0160  140.8480 C   0  0  0  0  0  0  0  0  0  0  0  0
  188.8620  177.2760  139.0780 C   0  0  0  0  0  0  0  0  0  0  0  0
  185.3230  177.6920  145.2260 C   0  0  0  0  0  3  0  0  0  0  0  0
  187.5050  177.4580  143.8510 C   0  0  1  0  0  3  0  0  0  0  0  0
  190.3610  176.3030  140.6770 N   0  0  0  0  0  0  0  0  0  0  0  0
  189.6820  176.8380  141.7290 C   0  0  0  0  0  0  0  0  0  0  0  0
  188.4870  177.5560  141.4670 C   0  0  0  0  0  0  0  0  0  0  0  0
  184.3270  179.0720  143.4100 C   0  0  0  0  0  2  0  0  0  0  0  0
  186.4880  178.7230  142.1730 C   0  0  0  0  0  0  0  0  0  0  0  0
  188.7360  177.7360  144.6300 C   0  0  0  0  0  3  0  0  0  0  0  0
  189.9840  176.4830  139.3840 C   0  0  0  0  0  0  0  0  0  0  0  0
  190.3570  176.1390  137.0300 C   0  0  0  0  0  3  0  0  0  0  0  0
  190.7350  175.9150  138.3540 C   0  0  0  0  0  3  0  0  0  0  0  0
  185.1280  179.6740  140.5570 O   0  0  0  0  0  0  0  0  0  0  0  0
  188.5210  177.4730  137.7330 C   0  0  0  0  0  3  0  0  0  0  0  0
  186.3690  178.2150  144.3690 N   0  0  0  0  0  0  0  0  0  0  0  0
  189.2700  176.9070  136.7480 N   0  0  0  0  0  0  0  0  0  0  0  0
  186.9740  178.5490  139.8590 N   0  0  0  0  0  2  0  0  0  0  0  0
  189.9660  177.3780  144.2450 C   0  0  0  0  0  0  0  0  0  0  0  0
  190.2900  176.7590  142.9280 C   0  0  0  0  0  2  0  0  0  0  0  0
  188.1040  177.8190  140.1240 C   0  0  0  0  0  0  0  0  0  0  0  0
  185.7830  178.8810  143.2810 C   0  0  2  0  0  3  0  0  0  0  0  0
  192.0720  178.3150  144.8460 O   0  0  0  0  0  0  0  0  0  0  0  0
  191.0830  177.6100  145.1890 C   0  0  0  0  0  0  0  0  0  0  0  0
  191.0580  177.0410  146.5700 C   0  0  0  0  0  2  0  0  0  0  0  0
  191.7580  175.1130  147.7080 O   0  0  0  0  0  0  0  0  0  0  0  0
  192.1180  175.9650  146.7130 C   0  0  2  0  0  3  0  0  0  0  0  0
  192.7300  176.0520  148.0140 N   0  0  0  0  0  2  0  0  0  0  0  0
  1  5  2  0  0  0  0
  2  6  1  0  0  0  0
  3 11  1  0  0  0  0
  4 13  1  0  0  0  0
  4 23  2  0  0  0  0
  6 18  1  0  0  0  0
  6 12  1  1  0  0  0
  7  8  1  0  0  0  0
  8 22  1  0  0  0  0
  9  8  2  0  0  0  0
  9  2  1  0  0  0  0
 10  1  1  0  0  0  0
 11  2  2  0  0  0  0
 11 24  1  0  0  0  0
 13  7  2  0  0  0  0
 14 15  2  0  0  0  0
 15 13  1  0  0  0  0
 16  3  2  0  0  0  0
 17  4  1  0  0  0  0
 18  5  1  0  0  0  0
 19 14  1  0  0  0  0
 19 17  2  0  0  0  0
 20 23  1  0  0  0  0
 20  3  1  0  0  0  0
 21 12  2  0  0  0  0
 21 26  1  0  0  0  0
 22 21  1  0  0  0  0
 23  9  1  0  0  0  0
 24 10  1  6  0  0  0
 24 18  1  0  0  0  0
 25 26  2  0  0  0  0
 26 27  1  0  0  0  0
 28 30  1  0  0  0  0
 29 27  1  1  0  0  0
 29 28  1  0  0  0  0
 29 30  1  0  0  0  0
M  END
>  <MODEL>
3

>  <REMARK>
 VINA RESULT:      -9.4      2.071      7.002
  Name = 
  3 active torsions:
  status: ('A' for Active; 'I' for Inactive)
    1  A    between atoms: C_7  and  C_13
    2  A    between atoms: C_7  and  C_23
    3  A    between atoms: C_23  and  C_26
                            x       y       z     vdW  Elec       q    Type
                         _______ _______ _______ _____ _____    ______ ____

>  <TORSDO>
F 3

$$$$
=
 OpenBabel10222416383D

 30 36  0  0  1  0  0  0  0  0999 V2000
  190.1990  176.2020  137.3950 C   0  0  0  0  0  3  0  0  0  0  0  0
  189.4320  177.5130  141.3550 C   0  0  0  0  0  0  0  0  0  0  0  0
  191.8350  177.4570  141.3460 C   0  0  0  0  0  0  0  0  0  0  0  0
  190.6540  177.1190  144.8010 C   0  0  0  0  0  0  0  0  0  0  0  0
  188.7930  176.4520  137.9760 C   0  0  0  0  0  3  0  0  0  0  0  0
  188.3270  177.1860  140.4150 C   0  0  1  0  0  3  0  0  0  0  0  0
  188.2590  177.2490  144.8370 N   0  0  0  0  0  0  0  0  0  0  0  0
  188.1920  177.4940  143.5000 C   0  0  0  0  0  0  0  0  0  0  0  0
  189.3940  177.4670  142.7470 C   0  0  0  0  0  0  0  0  0  0  0  0
  191.2200  176.8970  138.3070 C   0  0  0  0  0  2  0  0  0  0  0  0
  190.6210  177.5390  140.6630 C   0  0  0  0  0  0  0  0  0  0  0  0
  187.2030  178.1430  140.5470 C   0  0  0  0  0  3  0  0  0  0  0  0
  189.4310  177.0490  145.4960 C   0  0  0  0  0  0  0  0  0  0  0  0
  190.6390  176.6500  147.5410 C   0  0  0  0  0  3  0  0  0  0  0  0
  189.4250  176.8160  146.8720 C   0  0  0  0  0  3  0  0  0  0  0  0
  192.9350  177.4580  140.7320 O   0  0  0  0  0  0  0  0  0  0  0  0
  191.8460  176.9450  145.5160 C   0  0  0  0  0  3  0  0  0  0  0  0
  188.9870  177.3200  139.1210 N   0  0  0  0  0  0  0  0  0  0  0  0
  191.8130  176.7180  146.8570 N   0  0  0  0  0  0  0  0  0  0  0  0
  191.8120  177.3460  142.7040 N   0  0  0  0  0  2  0  0  0  0  0  0
  186.5770  178.4130  141.6990 C   0  0  0  0  0  0  0  0  0  0  0  0
  186.9930  177.8840  143.0280 C   0  0  0  0  0  2  0  0  0  0  0  0
  190.6410  177.3290  143.4160 C   0  0  0  0  0  0  0  0  0  0  0  0
  190.3630  177.4560  139.3680 C   0  0  2  0  0  3  0  0  0  0  0  0
  184.9660  179.7400  140.5480 O   0  0  0  0  0  0  0  0  0  0  0  0
  185.3880  179.2960  141.6510 C   0  0  0  0  0  0  0  0  0  0  0  0
  184.6490  179.6620  142.8970 C   0  0  0  0  0  2  0  0  0  0  0  0
  182.3870  179.4270  143.4720 O   0  0  0  0  0  0  0  0  0  0  0  0
  183.4850  178.7120  143.1130 C   0  0  2  0  0  3  0  0  0  0  0  0
  183.0590  178.7670  144.4880 N   0  0  0  0  0  2  0  0  0  0  0  0
  1  5  2  0  0  0  0
  1 10  1  0  0  0  0
  2  9  1  0  0  0  0
  3 20  1  0  0  0  0
  4 13  2  0  0  0  0
  4 17  1  0  0  0  0
  5 18  1  0  0  0  0
  6 12  1  6  0  0  0
  6  2  1  0  0  0  0
  7 13  1  0  0  0  0
  8  7  2  0  0  0  0
  9 23  2  0  0  0  0
  9  8  1  0  0  0  0
 11  3  1  0  0  0  0
 11  2  2  0  0  0  0
 12 21  2  0  0  0  0
 13 15  1  0  0  0  0
 15 14  2  0  0  0  0
 16  3  2  0  0  0  0
 17 19  2  0  0  0  0
 18 24  1  0  0  0  0
 18  6  1  0  0  0  0
 19 14  1  0  0  0  0
 20 23  1  0  0  0  0
 21 22  1  0  0  0  0
 22  8  1  0  0  0  0
 23  4  1  0  0  0  0
 24 10  1  1  0  0  0
 24 11  1  0  0  0  0
 25 26  2  0  0  0  0
 26 21  1  0  0  0  0
 26 27  1  0  0  0  0
 28 30  1  0  0  0  0
 29 27  1  1  0  0  0
 29 28  1  0  0  0  0
 29 30  1  0  0  0  0
M  END
>  <MODEL>
4

>  <REMARK>
 VINA RESULT:      -9.2      2.274      6.372
  Name = 
  3 active torsions:
  status: ('A' for Active; 'I' for Inactive)
    1  A    between atoms: C_7  and  C_13
    2  A    between atoms: C_7  and  C_23
    3  A    between atoms: C_23  and  C_26
                            x       y       z     vdW  Elec       q    Type
                         _______ _______ _______ _____ _____    ______ ____

>  <TORSDO>
F 3

$$$$
=
 OpenBabel10222416383D

 30 36  0  0  1  0  0  0  0  0999 V2000
  187.1950  178.7950  147.9670 C   0  0  0  0  0  3  0  0  0  0  0  0
  186.8550  177.9760  143.8190 C   0  0  0  0  0  0  0  0  0  0  0  0
  188.8500  176.7530  144.3680 C   0  0  0  0  0  0  0  0  0  0  0  0
  188.9040  177.5660  140.7930 C   0  0  0  0  0  0  0  0  0  0  0  0
  186.0560  179.3090  147.0640 C   0  0  0  0  0  3  0  0  0  0  0  0
  185.8910  178.8650  144.5190 C   0  0  1  0  0  3  0  0  0  0  0  0
  186.8840  178.7220  140.2120 N   0  0  0  0  0  0  0  0  0  0  0  0
  186.3750  178.5880  141.4670 C   0  0  0  0  0  0  0  0  0  0  0  0
  187.1890  177.9960  142.4660 C   0  0  0  0  0  0  0  0  0  0  0  0
  187.8930  177.6400  147.2360 C   0  0  0  0  0  2  0  0  0  0  0  0
  187.6460  177.3450  144.7510 C   0  0  0  0  0  0  0  0  0  0  0  0
  184.5050  178.6440  144.0390 C   0  0  0  0  0  3  0  0  0  0  0  0
  188.1090  178.2530  139.8550 C   0  0  0  0  0  0  0  0  0  0  0  0
  189.8060  177.8940  138.1840 C   0  0  0  0  0  3  0  0  0  0  0  0
  188.5620  178.4140  138.5450 C   0  0  0  0  0  3  0  0  0  0  0  0
  189.6000  176.1870  145.2080 O   0  0  0  0  0  0  0  0  0  0  0  0
  190.1460  177.0620  140.3840 C   0  0  0  0  0  3  0  0  0  0  0  0
  186.0440  178.4380  145.9060 N   0  0  0  0  0  0  0  0  0  0  0  0
  190.5650  177.2340  139.1010 N   0  0  0  0  0  0  0  0  0  0  0  0
  189.2210  176.8200  143.0590 N   0  0  0  0  0  2  0  0  0  0  0  0
  184.1340  178.7150  142.7560 C   0  0  0  0  0  0  0  0  0  0  0  0
  185.0750  178.9050  141.6160 C   0  0  0  0  0  2  0  0  0  0  0  0
  188.4450  177.4340  142.1100 C   0  0  0  0  0  0  0  0  0  0  0  0
  187.1610  177.5890  145.9580 C   0  0  2  0  0  3  0  0  0  0  0  0
  181.8250  178.8040  143.3370 O   0  0  0  0  0  0  0  0  0  0  0  0
  182.6910  178.5960  142.4430 C   0  0  0  0  0  0  0  0  0  0  0  0
  182.2250  178.2530  141.0650 C   0  0  0  0  0  2  0  0  0  0  0  0
  180.0250  178.5850  140.3260 O   0  0  0  0  0  0  0  0  0  0  0  0
  181.1780  179.2480  140.6040 C   0  0  2  0  0  3  0  0  0  0  0  0
  180.8010  178.9650  139.2430 N   0  0  0  0  0  2  0  0  0  0  0  0
  2  6  1  0  0  0  0
  2 11  2  0  0  0  0
  3 11  1  0  0  0  0
  3 16  2  0  0  0  0
  4 23  2  0  0  0  0
  5  1  2  0  0  0  0
  6 12  1  6  0  0  0
  6 18  1  0  0  0  0
  7  8  1  0  0  0  0
  8 22  1  0  0  0  0
  8  9  2  0  0  0  0
  9  2  1  0  0  0  0
 10  1  1  0  0  0  0
 11 24  1  0  0  0  0
 13  7  2  0  0  0  0
 13  4  1  0  0  0  0
 14 15  2  0  0  0  0
 14 19  1  0  0  0  0
 15 13  1  0  0  0  0
 17  4  1  0  0  0  0
 18 24  1  0  0  0  0
 18  5  1  0  0  0  0
 19 17  2  0  0  0  0
 20  3  1  0  0  0  0
 21 12  2  0  0  0  0
 22 21  1  0  0  0  0
 23  9  1  0  0  0  0
 23 20  1  0  0  0  0
 24 10  1  1  0  0  0
 26 21  1  0  0  0  0
 26 25  2  0  0  0  0
 27 26  1  0  0  0  0
 28 29  1  0  0  0  0
 29 27  1  1  0  0  0
 30 28  1  0  0  0  0
 30 29  1  0  0  0  0
M  END
>  <MODEL>
5

>  <REMARK>
 VINA RESULT:      -9.1      3.027      6.179
  Name = 
  3 active torsions:
  status: ('A' for Active; 'I' for Inactive)
    1  A    between atoms: C_7  and  C_13
    2  A    between atoms: C_7  and  C_23
    3  A    between atoms: C_23  and  C_26
                            x       y       z     vdW  Elec       q    Type
                         _______ _______ _______ _____ _____    ______ ____

>  <TORSDO>
F 3

$$$$
=
 OpenBabel10222416383D

 30 36  0  0  1  0  0  0  0  0999 V2000
  189.1620  176.7280  147.4320 C   0  0  0  0  0  3  0  0  0  0  0  0
  186.7300  178.2060  144.2870 C   0  0  0  0  0  0  0  0  0  0  0  0
  185.5920  179.0980  146.2080 C   0  0  0  0  0  0  0  0  0  0  0  0
  183.2100  178.8420  143.4310 C   0  0  0  0  0  0  0  0  0  0  0  0
  189.4310  176.4890  145.9330 C   0  0  0  0  0  3  0  0  0  0  0  0
  187.9050  177.3340  144.0200 C   0  0  1  0  0  3  0  0  0  0  0  0
  184.3470  178.0230  141.4840 N   0  0  0  0  0  0  0  0  0  0  0  0
  185.5530  178.0200  142.1160 C   0  0  0  0  0  0  0  0  0  0  0  0
  185.5950  178.3570  143.4930 C   0  0  0  0  0  0  0  0  0  0  0  0
  188.1740  177.8960  147.5560 C   0  0  0  0  0  2  0  0  0  0  0  0
  186.7470  178.5940  145.6070 C   0  0  0  0  0  0  0  0  0  0  0  0
  188.6460  177.7810  142.8160 C   0  0  0  0  0  3  0  0  0  0  0  0
  183.1930  178.4010  142.0940 C   0  0  0  0  0  0  0  0  0  0  0  0
  180.8220  178.8180  142.0100 C   0  0  0  0  0  3  0  0  0  0  0  0
  181.9930  178.3930  141.3810 C   0  0  0  0  0  3  0  0  0  0  0  0
  185.5790  179.4410  147.4200 O   0  0  0  0  0  0  0  0  0  0  0  0
  182.0100  179.2600  144.0200 C   0  0  0  0  0  3  0  0  0  0  0  0
  188.6980  177.5240  145.2300 N   0  0  0  0  0  0  0  0  0  0  0  0
  180.8530  179.2400  143.3030 N   0  0  0  0  0  0  0  0  0  0  0  0
  184.4570  179.1920  145.4600 N   0  0  0  0  0  2  0  0  0  0  0  0
  188.0900  177.9500  141.6110 C   0  0  0  0  0  0  0  0  0  0  0  0
  186.6310  177.8320  141.3310 C   0  0  0  0  0  2  0  0  0  0  0  0
  184.4180  178.8210  144.1400 C   0  0  0  0  0  0  0  0  0  0  0  0
  187.8970  178.2240  146.1460 C   0  0  2  0  0  3  0  0  0  0  0  0
  188.6640  179.1770  139.6500 O   0  0  0  0  0  0  0  0  0  0  0  0
  188.9830  178.2770  140.4750 C   0  0  0  0  0  0  0  0  0  0  0  0
  190.2880  177.5720  140.2910 C   0  0  0  0  0  2  0  0  0  0  0  0
  190.7340  175.7000  138.9510 O   0  0  0  0  0  0  0  0  0  0  0  0
  190.3870  177.0120  138.8850 C   0  0  2  0  0  3  0  0  0  0  0  0
  191.7400  176.5930  138.6200 N   0  0  0  0  0  2  0  0  0  0  0  0
  1 10  1  0  0  0  0
  2 11  2  0  0  0  0
  3 16  2  0  0  0  0
  4 17  1  0  0  0  0
  4 23  2  0  0  0  0
  5  1  2  0  0  0  0
  6 12  1  6  0  0  0
  6  2  1  0  0  0  0
  6 18  1  0  0  0  0
  7 13  2  0  0  0  0
  7  8  1  0  0  0  0
  8  9  2  0  0  0  0
  9 23  1  0  0  0  0
  9  2  1  0  0  0  0
 11 24  1  0  0  0  0
 11  3  1  0  0  0  0
 13  4  1  0  0  0  0
 14 19  1  0  0  0  0
 15 14  2  0  0  0  0
 15 13  1  0  0  0  0
 18  5  1  0  0  0  0
 18 24  1  0  0  0  0
 19 17  2  0  0  0  0
 20  3  1  0  0  0  0
 21 12  2  0  0  0  0
 22 21  1  0  0  0  0
 22  8  1  0  0  0  0
 23 20  1  0  0  0  0
 24 10  1  1  0  0  0
 25 26  2  0  0  0  0
 26 21  1  0  0  0  0
 27 26  1  0  0  0  0
 29 28  1  0  0  0  0
 29 27  1  1  0  0  0
 30 29  1  0  0  0  0
 30 28  1  0  0  0  0
M  END
>  <MODEL>
6

>  <REMARK>
 VINA RESULT:      -8.7      1.981      3.135
  Name = 
  3 active torsions:
  status: ('A' for Active; 'I' for Inactive)
    1  A    between atoms: C_7  and  C_13
    2  A    between atoms: C_7  and  C_23
    3  A    between atoms: C_23  and  C_26
                            x       y       z     vdW  Elec       q    Type
                         _______ _______ _______ _____ _____    ______ ____

>  <TORSDO>
F 3

$$$$
=
 OpenBabel10222416383D

 30 36  0  0  1  0  0  0  0  0999 V2000
  180.9600  178.6060  142.2210 C   0  0  0  0  0  3  0  0  0  0  0  0
  185.1770  178.5810  142.6710 C   0  0  0  0  0  0  0  0  0  0  0  0
  184.9610  179.3310  140.3970 C   0  0  0  0  0  0  0  0  0  0  0  0
  188.2600  177.7890  140.8290 C   0  0  0  0  0  0  0  0  0  0  0  0
  181.6990  178.2250  143.5190 C   0  0  0  0  0  3  0  0  0  0  0  0
  184.2740  178.1440  143.7680 C   0  0  1  0  0  3  0  0  0  0  0  0
  188.5220  177.1020  143.1120 N   0  0  0  0  0  0  0  0  0  0  0  0
  187.3200  177.6280  143.4710 C   0  0  0  0  0  0  0  0  0  0  0  0
  186.4970  178.1870  142.4600 C   0  0  0  0  0  0  0  0  0  0  0  0
  181.9480  179.3570  141.3170 C   0  0  0  0  0  2  0  0  0  0  0  0
  184.4290  179.1690  141.6770 C   0  0  0  0  0  0  0  0  0  0  0  0
  184.7630  178.6100  145.0890 C   0  0  0  0  0  3  0  0  0  0  0  0
  189.0010  177.1490  141.8410 C   0  0  0  0  0  0  0  0  0  0  0  0
  190.7450  176.6890  140.2440 C   0  0  0  0  0  3  0  0  0  0  0  0
  190.2500  176.6000  141.5460 C   0  0  0  0  0  3  0  0  0  0  0  0
  184.2880  179.8490  139.4670 O   0  0  0  0  0  0  0  0  0  0  0  0
  188.7990  177.8540  139.5370 C   0  0  0  0  0  3  0  0  0  0  0  0
  183.0230  178.8020  143.4050 N   0  0  0  0  0  0  0  0  0  0  0  0
  190.0180  177.3090  139.2760 N   0  0  0  0  0  0  0  0  0  0  0  0
  186.2290  178.8930  140.1590 N   0  0  0  0  0  2  0  0  0  0  0  0
  185.9890  178.3670  145.5650 C   0  0  0  0  0  0  0  0  0  0  0  0
  187.0760  177.6990  144.7930 C   0  0  0  0  0  2  0  0  0  0  0  0
  186.9980  178.3140  141.1350 C   0  0  0  0  0  0  0  0  0  0  0  0
  183.1890  179.3220  142.1110 C   0  0  2  0  0  3  0  0  0  0  0  0
  185.7710  179.8340  147.4300 O   0  0  0  0  0  0  0  0  0  0  0  0
  186.2900  178.7880  146.9530 C   0  0  0  0  0  0  0  0  0  0  0  0
  187.1900  177.9760  147.8270 C   0  0  0  0  0  2  0  0  0  0  0  0
  189.4400  177.3160  147.7760 O   0  0  0  0  0  0  0  0  0  0  0  0
  188.6340  178.3990  147.6280 C   0  0  2  0  0  3  0  0  0  0  0  0
  189.3750  178.1940  148.8460 N   0  0  0  0  0  2  0  0  0  0  0  0
  1  5  2  0  0  0  0
  2  6  1  0  0  0  0
  3 11  1  0  0  0  0
  4 23  2  0  0  0  0
  4 13  1  0  0  0  0
  6 12  1  1  0  0  0
  7  8  1  0  0  0  0
  8 22  1  0  0  0  0
  9  2  1  0  0  0  0
  9  8  2  0  0  0  0
 10  1  1  0  0  0  0
 11 24  1  0  0  0  0
 11  2  2  0  0  0  0
 12 21  2  0  0  0  0
 13  7  2  0  0  0  0
 14 15  2  0  0  0  0
 15 13  1  0  0  0  0
 16  3  2  0  0  0  0
 17  4  1  0  0  0  0
 18  5  1  0  0  0  0
 18  6  1  0  0  0  0
 19 17  2  0  0  0  0
 19 14  1  0  0  0  0
 20  3  1  0  0  0  0
 20 23  1  0  0  0  0
 21 26  1  0  0  0  0
 22 21  1  0  0  0  0
 23  9  1  0  0  0  0
 24 10  1  6  0  0  0
 24 18  1  0  0  0  0
 26 25  2  0  0  0  0
 26 27  1  0  0  0  0
 28 30  1  0  0  0  0
 29 28  1  0  0  0  0
 29 27  1  1  0  0  0
 29 30  1  0  0  0  0
M  END
>  <MODEL>
7

>  <REMARK>
 VINA RESULT:      -8.7      2.674      7.883
  Name = 
  3 active torsions:
  status: ('A' for Active; 'I' for Inactive)
    1  A    between atoms: C_7  and  C_13
    2  A    between atoms: C_7  and  C_23
    3  A    between atoms: C_23  and  C_26
                            x       y       z     vdW  Elec       q    Type
                         _______ _______ _______ _____ _____    ______ ____

>  <TORSDO>
F 3

$$$$
=
 OpenBabel10222416383D

 30 36  0  0  1  0  0  0  0  0999 V2000
  188.7750  179.2230  136.8300 C   0  0  0  0  0  3  0  0  0  0  0  0
  186.6880  178.0990  140.3470 C   0  0  0  0  0  0  0  0  0  0  0  0
  184.9060  178.0960  138.7330 C   0  0  0  0  0  0  0  0  0  0  0  0
  183.4810  178.6070  142.0730 C   0  0  0  0  0  0  0  0  0  0  0  0
  189.4300  179.0320  138.2120 C   0  0  0  0  0  3  0  0  0  0  0  0
  188.1410  178.4130  140.3700 C   0  0  1  0  0  3  0  0  0  0  0  0
  185.2370  178.5370  143.7040 N   0  0  0  0  0  0  0  0  0  0  0  0
  186.1780  178.2380  142.7670 C   0  0  0  0  0  0  0  0  0  0  0  0
  185.7870  178.2040  141.4040 C   0  0  0  0  0  0  0  0  0  0  0  0
  187.4000  178.5430  136.8590 C   0  0  0  0  0  2  0  0  0  0  0  0
  186.2650  178.0140  139.0400 C   0  0  0  0  0  0  0  0  0  0  0  0
  188.8800  177.4890  141.2650 C   0  0  0  0  0  3  0  0  0  0  0  0
  183.9280  178.7360  143.4020 C   0  0  0  0  0  0  0  0  0  0  0  0
  181.6660  179.1910  144.0960 C   0  0  0  0  0  3  0  0  0  0  0  0
  183.0150  179.0260  144.4170 C   0  0  0  0  0  3  0  0  0  0  0  0
  184.4980  178.0410  137.5420 O   0  0  0  0  0  0  0  0  0  0  0  0
  182.1180  178.7810  141.7990 C   0  0  0  0  0  3  0  0  0  0  0  0
  188.5130  178.2080  138.9740 N   0  0  0  0  0  0  0  0  0  0  0  0
  181.2480  179.0650  142.8070 N   0  0  0  0  0  0  0  0  0  0  0  0
  184.0180  178.2630  139.7520 N   0  0  0  0  0  2  0  0  0  0  0  0
  188.5740  177.2840  142.5510 C   0  0  0  0  0  0  0  0  0  0  0  0
  187.3810  177.8580  143.2360 C   0  0  0  0  0  2  0  0  0  0  0  0
  184.4130  178.3390  141.0630 C   0  0  0  0  0  0  0  0  0  0  0  0
  187.3230  178.0500  138.2460 C   0  0  2  0  0  3  0  0  0  0  0  0
  189.9990  175.3970  142.8430 O   0  0  0  0  0  0  0  0  0  0  0  0
  189.4810  176.4290  143.3510 C   0  0  0  0  0  0  0  0  0  0  0  0
  189.8240  176.7770  144.7640 C   0  0  0  0  0  2  0  0  0  0  0  0
  191.9200  176.0140  145.4840 O   0  0  0  0  0  0  0  0  0  0  0  0
  191.3080  177.0680  144.8860 C   0  0  2  0  0  3  0  0  0  0  0  0
  191.6810  177.1250  146.2760 N   0  0  0  0  0  2  0  0  0  0  0  0
  1 10  1  0  0  0  0
  1  5  2  0  0  0  0
  2  6  1  0  0  0  0
  2  9  1  0  0  0  0
  3 11  1  0  0  0  0
  3 20  1  0  0  0  0
  4 13  1  0  0  0  0
  5 18  1  0  0  0  0
  6 12  1  1  0  0  0
  8 22  1  0  0  0  0
  8  7  2  0  0  0  0
  9  8  1  0  0  0  0
 11  2  2  0  0  0  0
 12 21  2  0  0  0  0
 13  7  1  0  0  0  0
 13 15  2  0  0  0  0
 14 15  1  0  0  0  0
 16  3  2  0  0  0  0
 17  4  2  0  0  0  0
 17 19  1  0  0  0  0
 18  6  1  0  0  0  0
 19 14  2  0  0  0  0
 20 23  1  0  0  0  0
 21 22  1  0  0  0  0
 21 26  1  0  0  0  0
 23  9  2  0  0  0  0
 23  4  1  0  0  0  0
 24 10  1  6  0  0  0
 24 18  1  0  0  0  0
 24 11  1  0  0  0  0
 25 26  2  0  0  0  0
 26 27  1  0  0  0  0
 28 30  1  0  0  0  0
 29 27  1  1  0  0  0
 29 28  1  0  0  0  0
 29 30  1  0  0  0  0
M  END
>  <MODEL>
8

>  <REMARK>
 VINA RESULT:      -8.0      2.427      6.505
  Name = 
  3 active torsions:
  status: ('A' for Active; 'I' for Inactive)
    1  A    between atoms: C_7  and  C_13
    2  A    between atoms: C_7  and  C_23
    3  A    between atoms: C_23  and  C_26
                            x       y       z     vdW  Elec       q    Type
                         _______ _______ _______ _____ _____    ______ ____

>  <TORSDO>
F 3

$$$$
=
 OpenBabel10222416383D

 30 36  0  0  1  0  0  0  0  0999 V2000
  184.7440  177.4720  137.5440 C   0  0  0  0  0  3  0  0  0  0  0  0
  186.1620  178.2280  141.4690 C   0  0  0  0  0  0  0  0  0  0  0  0
  188.1400  178.6590  140.1730 C   0  0  0  0  0  0  0  0  0  0  0  0
  189.1300  177.7700  143.5910 C   0  0  0  0  0  0  0  0  0  0  0  0
  183.8810  177.3780  138.8180 C   0  0  0  0  0  3  0  0  0  0  0  0
  184.7680  177.7730  141.2180 C   0  0  1  0  0  3  0  0  0  0  0  0
  187.1650  177.4100  144.9180 N   0  0  0  0  0  0  0  0  0  0  0  0
  186.3370  177.7590  143.8950 C   0  0  0  0  0  0  0  0  0  0  0  0
  186.9110  178.0460  142.6300 C   0  0  0  0  0  0  0  0  0  0  0  0
  186.0090  178.2710  137.8850 C   0  0  0  0  0  2  0  0  0  0  0  0
  186.7520  178.5570  140.2700 C   0  0  0  0  0  0  0  0  0  0  0  0
  183.8040  178.4670  142.1050 C   0  0  0  0  0  3  0  0  0  0  0  0
  188.5180  177.3910  144.8010 C   0  0  0  0  0  0  0  0  0  0  0  0
  190.6970  177.0550  145.7720 C   0  0  0  0  0  3  0  0  0  0  0  0
  189.3070  177.0350  145.8960 C   0  0  0  0  0  3  0  0  0  0  0  0
  188.7030  178.9400  139.0820 O   0  0  0  0  0  0  0  0  0  0  0  0
  190.5290  177.7750  143.5140 C   0  0  0  0  0  3  0  0  0  0  0  0
  184.5750  178.1580  139.8240 N   0  0  0  0  0  0  0  0  0  0  0  0
  191.2750  177.4230  144.5960 N   0  0  0  0  0  0  0  0  0  0  0  0
  188.8900  178.4200  141.2860 N   0  0  0  0  0  2  0  0  0  0  0  0
  183.8980  178.4970  143.4400 C   0  0  0  0  0  0  0  0  0  0  0  0
  185.0430  177.9410  144.2170 C   0  0  0  0  0  2  0  0  0  0  0  0
  188.3240  178.1010  142.4940 C   0  0  0  0  0  0  0  0  0  0  0  0
  185.8290  178.5440  139.3220 C   0  0  2  0  0  3  0  0  0  0  0  0
  182.9650  179.4970  145.3910 O   0  0  0  0  0  0  0  0  0  0  0  0
  182.7910  179.1220  144.1990 C   0  0  0  0  0  0  0  0  0  0  0  0
  181.4540  179.3460  143.5690 C   0  0  0  0  0  2  0  0  0  0  0  0
  179.4740  178.1860  143.0870 O   0  0  0  0  0  0  0  0  0  0  0  0
  180.4890  178.2530  143.9880 C   0  0  2  0  0  3  0  0  0  0  0  0
  179.2010  178.8260  144.2850 N   0  0  0  0  0  2  0  0  0  0  0  0
  1 10  1  0  0  0  0
  1  5  2  0  0  0  0
  2  9  1  0  0  0  0
  3 11  1  0  0  0  0
  3 20  1  0  0  0  0
  4 13  1  0  0  0  0
  5 18  1  0  0  0  0
  6  2  1  0  0  0  0
  6 12  1  1  0  0  0
  8 22  1  0  0  0  0
  8  7  2  0  0  0  0
  9  8  1  0  0  0  0
 11  2  2  0  0  0  0
 12 21  2  0  0  0  0
 13  7  1  0  0  0  0
 13 15  2  0  0  0  0
 14 15  1  0  0  0  0
 16  3  2  0  0  0  0
 17  4  2  0  0  0  0
 17 19  1  0  0  0  0
 18  6  1  0  0  0  0
 19 14  2  0  0  0  0
 20 23  1  0  0  0  0
 21 26  1  0  0  0  0
 21 22  1  0  0  0  0
 23  9  2  0  0  0  0
 23  4  1  0  0  0  0
 24 10  1  6  0  0  0
 24 18  1  0  0  0  0
 24 11  1  0  0  0  0
 26 25  2  0  0  0  0
 27 26  1  0  0  0  0
 28 29  1  0  0  0  0
 28 30  1  0  0  0  0
 29 27  1  6  0  0  0
 29 30  1  0  0  0  0
M  END
>  <MODEL>
9

>  <REMARK>
 VINA RESULT:      -8.0      3.220      7.741
  Name = 
  3 active torsions:
  status: ('A' for Active; 'I' for Inactive)
    1  A    between atoms: C_7  and  C_13
    2  A    between atoms: C_7  and  C_23
    3  A    between atoms: C_23  and  C_26
                            x       y       z     vdW  Elec       q    Type
                         _______ _______ _______ _____ _____    ______ ____

>  <TORSDO>
F 3

$$$$
