=
 OpenBabel10222417463D

 52 57  0  0  1  0  0  0  0  0999 V2000
  184.5850  178.3810  139.2070 C   0  0  2  0  0  3  0  0  0  0  0  0
  182.5460  178.5250  141.1430 S   0  0  0  0  0  0  0  0  0  0  0  0
  184.9400  178.9680  141.6930 C   0  0  0  0  0  3  0  0  0  0  0  0
  184.1340  178.6310  140.6160 C   0  0  0  0  0  0  0  0  0  0  0  0
  182.8320  178.9020  142.7590 C   0  0  0  0  0  3  0  0  0  0  0  0
  184.2060  179.1110  142.8770 C   0  0  0  0  0  0  0  0  0  0  0  0
  184.8430  179.4950  144.1640 C   0  0  0  0  0  2  0  0  0  0  0  0
  184.0140  179.0550  145.2740 N   0  0  0  0  0  2  0  0  0  0  0  0
  184.8770  178.7810  146.3420 N   0  0  0  0  0  2  0  0  0  0  0  0
  188.2630  177.9730  148.7000 N   0  0  0  0  0  1  0  0  0  0  0  0
  187.1750  177.9250  146.6030 C   0  0  0  0  0  0  0  0  0  0  0  0
  186.0260  178.1930  145.7980 N   0  0  0  0  0  2  0  0  0  0  0  0
  187.1580  178.2050  147.8710 N   0  0  0  0  0  0  0  0  0  0  0  0
  188.3940  177.3510  145.9500 C   0  0  0  0  0  2  0  0  0  0  0  0
  188.2190  176.4070  143.6700 C   0  0  0  0  0  2  0  0  0  0  0  0
  188.4040  177.6710  144.4630 C   0  0  2  0  0  3  0  0  0  0  0  0
  189.2280  176.5770  142.5820 C   0  0  0  0  0  2  0  0  0  0  0  0
  189.6390  178.2220  144.0910 O   0  0  0  0  0  0  0  0  0  0  0  0
  189.8060  177.8980  142.7770 N   0  0  0  0  0  2  0  0  0  0  0  0
  183.0420  176.7160  136.0690 C   0  0  0  0  0  2  0  0  0  0  0  0
  182.7200  178.1230  137.1670 S   0  0  0  0  0  0  0  0  0  0  0  0
  183.7210  177.3420  138.4760 C   0  0  1  0  0  3  0  0  0  0  0  0
  183.7230  175.6470  136.9010 C   0  0  2  0  0  3  0  0  0  0  0  0
  184.5660  176.3220  137.8730 N   0  0  0  0  0  2  0  0  0  0  0  0
  182.2840  171.7720  135.4830 O   0  0  0  0  0  1  0  0  0  0  0  0
  185.6190  173.9520  136.8340 C   0  0  0  0  0  2  0  0  0  0  0  0
  184.1420  171.9330  136.9680 C   0  0  0  0  0  2  0  0  0  0  0  0
  183.6700  173.7040  135.2630 C   0  0  0  0  0  2  0  0  0  0  0  0
  184.5530  174.7030  136.0220 C   0  0  1  0  0  3  0  0  0  0  0  0
  183.0480  172.6790  136.2140 C   0  0  1  0  0  3  0  0  0  0  0  0
  184.9880  172.9170  137.7690 C   0  0  0  0  0  2  0  0  0  0  0  0
  185.9660  178.1020  139.1380 O   0  0  0  0  0  0  0  0  0  0  0  0
  186.4620  178.8260  138.1500 O   0  0  0  0  0  0  0  0  0  0  0  0
  189.2530  175.7480  137.8370 C   0  0  2  0  0  3  0  0  0  0  0  0
  187.7370  178.2990  137.9230 C   0  0  1  0  0  3  0  0  0  0  0  0
  188.2080  177.5680  139.1830 C   0  0  0  0  0  2  0  0  0  0  0  0
  188.8720  176.4270  136.5240 C   0  0  0  0  0  2  0  0  0  0  0  0
  187.7200  177.3620  136.7380 C   0  0  0  0  0  0  0  0  0  0  0  0
  186.8360  177.4320  135.8960 O   0  0  0  0  0  0  0  0  0  0  0  0
  189.4990  176.7930  138.9220 C   0  0  0  0  0  2  0  0  0  0  0  0
  190.4040  174.9800  137.6480 O   0  0  0  0  0  0  0  0  0  0  0  0
  191.3120  175.5270  138.4320 O   0  0  0  0  0  0  0  0  0  0  0  0
  192.7420  175.5530  137.5140 P   0  0  1  0  0  0  0  0  0  0  0  0
  193.7530  174.1770  137.9230 N   0  0  0  0  0  2  0  0  0  0  0  0
  192.3750  173.9190  135.4010 C   0  0  0  0  0  2  0  0  0  0  0  0
  192.3430  175.4000  135.7520 C   0  0  0  0  0  2  0  0  0  0  0  0
  194.5830  173.8920  136.7540 C   0  0  2  0  0  3  0  0  0  0  0  0
  193.7690  173.2970  135.5870 C   0  0  0  0  0  2  0  0  0  0  0  0
  193.4900  176.8440  137.7600 O   0  0  0  0  0  0  0  0  0  0  0  0
  196.7980  173.7600  137.9050 C   0  0  0  0  0  1  0  0  0  0  0  0
  195.7640  172.9900  137.1090 C   0  0  0  0  0  3  0  0  0  0  0  0
  195.3300  171.7560  137.8830 C   0  0  0  0  0  1  0  0  0  0  0  0
  1 32  1  1  0  0  0
  1  4  1  0  0  0  0
  2  5  1  0  0  0  0
  3  6  1  0  0  0  0
  4  2  1  0  0  0  0
  4  3  2  0  0  0  0
  5  6  2  0  0  0  0
  6  7  1  0  0  0  0
  7  8  1  0  0  0  0
  8  9  1  0  0  0  0
 11 13  2  0  0  0  0
 12  9  1  0  0  0  0
 12 11  1  0  0  0  0
 13 10  1  0  0  0  0
 14 11  1  0  0  0  0
 15 16  1  0  0  0  0
 16 14  1  1  0  0  0
 17 19  1  0  0  0  0
 17 15  1  0  0  0  0
 18 16  1  0  0  0  0
 19 18  1  0  0  0  0
 20 21  1  0  0  0  0
 21 22  1  0  0  0  0
 22  1  1  6  0  0  0
 23 20  1  6  0  0  0
 23 24  1  0  0  0  0
 24 22  1  0  0  0  0
 26 31  1  0  0  0  0
 27 31  1  0  0  0  0
 28 30  1  0  0  0  0
 29 28  1  1  0  0  0
 29 26  1  0  0  0  0
 29 23  1  0  0  0  0
 30 25  1  6  0  0  0
 30 27  1  0  0  0  0
 33 32  1  0  0  0  0
 34 41  1  6  0  0  0
 34 40  1  0  0  0  0
 35 33  1  1  0  0  0
 35 36  1  0  0  0  0
 37 38  1  0  0  0  0
 37 34  1  0  0  0  0
 38 35  1  0  0  0  0
 39 38  2  0  0  0  0
 40 36  1  0  0  0  0
 41 42  1  0  0  0  0
 43 49  2  1  0  0  0
 43 44  1  0  0  0  0
 43 42  1  0  0  0  0
 45 48  1  0  0  0  0
 45 46  1  0  0  0  0
 46 43  1  0  0  0  0
 47 51  1  1  0  0  0
 47 44  1  0  0  0  0
 48 47  1  0  0  0  0
 51 52  1  0  0  0  0
 51 50  1  0  0  0  0
M  END
>  <MODEL>
1

>  <REMARK>
 VINA RESULT:      -8.0      0.000      0.000
  Name = 
  16 active torsions:
  status: ('A' for Active; 'I' for Inactive)
    1  A    between atoms: O_1  and  O_26
    2  A    between atoms: O_1  and  C_41
    3  A    between atoms: C_3  and  N_8
    4  A    between atoms: C_3  and  C_49
    5  A    between atoms: C_4  and  O_37
    6  A    between atoms: C_6  and  C_22
    7  A    between atoms: C_6  and  C_28
    8  A    between atoms: N_8  and  N_14
    9  A    between atoms: P_13  and  O_21
   10  A    between atoms: N_14  and  N_36
   11  A    between atoms: C_16  and  O_26
   12  A    between atoms: C_18  and  C_41
   13  A    between atoms: O_21  and  O_37
   14  A    between atoms: C_24  and  C_41
   15  A    between atoms: C_25  and  C_40
   16  A    between atoms: C_29  and  C_45
                            x       y       z     vdW  Elec       q    Type
                         _______ _______ _______ _____ _____    ______ ____

>  <TORSDO>
F 16

$$$$
=
 OpenBabel10222417463D

 52 57  0  0  1  0  0  0  0  0999 V2000
  183.8130  178.3240  139.3090 C   0  0  2  0  0  3  0  0  0  0  0  0
  181.6840  178.7850  141.0940 S   0  0  0  0  0  0  0  0  0  0  0  0
  184.0550  178.6210  141.8590 C   0  0  0  0  0  3  0  0  0  0  0  0
  183.2990  178.5620  140.6980 C   0  0  0  0  0  0  0  0  0  0  0  0
  181.8950  178.9630  142.7540 C   0  0  0  0  0  3  0  0  0  0  0  0
  183.2630  178.8390  142.9940 C   0  0  0  0  0  0  0  0  0  0  0  0
  183.8460  178.9670  144.3550 C   0  0  0  0  0  2  0  0  0  0  0  0
  185.0740  178.1940  144.4380 N   0  0  0  0  0  2  0  0  0  0  0  0
  185.7740  178.6610  145.5590 N   0  0  0  0  0  2  0  0  0  0  0  0
  188.2120  177.8510  148.8870 N   0  0  0  0  0  1  0  0  0  0  0  0
  187.9290  177.9790  146.5440 C   0  0  0  0  0  0  0  0  0  0  0  0
  187.1040  178.2500  145.4100 N   0  0  0  0  0  2  0  0  0  0  0  0
  187.4410  178.0920  147.7420 N   0  0  0  0  0  0  0  0  0  0  0  0
  189.3610  177.6020  146.3200 C   0  0  0  0  0  2  0  0  0  0  0  0
  190.5850  176.6470  144.3950 C   0  0  0  0  0  2  0  0  0  0  0  0
  189.7450  177.8020  144.8620 C   0  0  2  0  0  3  0  0  0  0  0  0
  191.6560  177.3400  143.6180 C   0  0  0  0  0  2  0  0  0  0  0  0
  190.5130  178.9650  144.7150 O   0  0  0  0  0  0  0  0  0  0  0  0
  191.3010  178.7520  143.6230 N   0  0  0  0  0  2  0  0  0  0  0  0
  182.2550  176.9850  136.0270 C   0  0  0  0  0  2  0  0  0  0  0  0
  181.9880  178.3260  137.2170 S   0  0  0  0  0  0  0  0  0  0  0  0
  182.9080  177.3940  138.4860 C   0  0  1  0  0  3  0  0  0  0  0  0
  182.8500  175.8190  136.7910 C   0  0  2  0  0  3  0  0  0  0  0  0
  183.7060  176.3700  137.8270 N   0  0  0  0  0  2  0  0  0  0  0  0
  181.7410  171.6690  135.9900 O   0  0  0  0  0  1  0  0  0  0  0  0
  184.9230  174.3670  136.5350 C   0  0  0  0  0  2  0  0  0  0  0  0
  183.7790  172.2120  137.1020 C   0  0  0  0  0  2  0  0  0  0  0  0
  182.7940  173.7180  135.3620 C   0  0  0  0  0  2  0  0  0  0  0  0
  183.6450  174.8920  135.8630 C   0  0  1  0  0  3  0  0  0  0  0  0
  182.4840  172.7360  136.4930 C   0  0  1  0  0  3  0  0  0  0  0  0
  184.6030  173.3710  137.6520 C   0  0  0  0  0  2  0  0  0  0  0  0
  185.1660  177.9230  139.3110 O   0  0  0  0  0  0  0  0  0  0  0  0
  185.7830  178.6270  138.3770 O   0  0  0  0  0  0  0  0  0  0  0  0
  189.0440  177.6380  135.9800 C   0  0  2  0  0  3  0  0  0  0  0  0
  186.7280  177.7530  137.8340 C   0  0  1  0  0  3  0  0  0  0  0  0
  186.5750  177.7330  136.3100 C   0  0  0  0  0  2  0  0  0  0  0  0
  189.2970  177.6010  137.4850 C   0  0  0  0  0  2  0  0  0  0  0  0
  188.1260  178.1730  138.2230 C   0  0  0  0  0  0  0  0  0  0  0  0
  188.3170  178.8850  139.1990 O   0  0  0  0  0  0  0  0  0  0  0  0
  187.7160  176.9610  135.6500 C   0  0  0  0  0  2  0  0  0  0  0  0
  190.0860  176.9880  135.3150 O   0  0  0  0  0  0  0  0  0  0  0  0
  189.7160  175.7230  135.2540 O   0  0  0  0  0  0  0  0  0  0  0  0
  191.1480  174.8260  135.4330 P   0  0  1  0  0  0  0  0  0  0  0  0
  192.5330  175.7870  134.9430 N   0  0  0  0  0  2  0  0  0  0  0  0
  192.2410  175.5140  137.8010 C   0  0  0  0  0  2  0  0  0  0  0  0
  191.3960  174.4100  137.1810 C   0  0  0  0  0  2  0  0  0  0  0  0
  193.6920  175.2700  135.6700 C   0  0  2  0  0  3  0  0  0  0  0  0
  193.6410  175.6110  137.1730 C   0  0  0  0  0  2  0  0  0  0  0  0
  191.0700  173.5610  134.6120 O   0  0  0  0  0  0  0  0  0  0  0  0
  195.1130  177.2570  135.1360 C   0  0  0  0  0  1  0  0  0  0  0  0
  195.0040  175.7470  135.0490 C   0  0  0  0  0  3  0  0  0  0  0  0
  196.2160  175.1050  135.7040 C   0  0  0  0  0  1  0  0  0  0  0  0
  1 32  1  1  0  0  0
  1  4  1  0  0  0  0
  2  5  1  0  0  0  0
  3  6  1  0  0  0  0
  4  2  1  0  0  0  0
  4  3  2  0  0  0  0
  5  6  2  0  0  0  0
  6  7  1  0  0  0  0
  7  8  1  0  0  0  0
  8  9  1  0  0  0  0
 11 13  2  0  0  0  0
 12  9  1  0  0  0  0
 12 11  1  0  0  0  0
 13 10  1  0  0  0  0
 14 11  1  0  0  0  0
 15 16  1  0  0  0  0
 16 14  1  1  0  0  0
 17 19  1  0  0  0  0
 17 15  1  0  0  0  0
 18 16  1  0  0  0  0
 19 18  1  0  0  0  0
 20 21  1  0  0  0  0
 21 22  1  0  0  0  0
 22  1  1  6  0  0  0
 23 20  1  6  0  0  0
 23 24  1  0  0  0  0
 24 22  1  0  0  0  0
 26 31  1  0  0  0  0
 27 31  1  0  0  0  0
 28 30  1  0  0  0  0
 29 28  1  1  0  0  0
 29 26  1  0  0  0  0
 29 23  1  0  0  0  0
 30 25  1  6  0  0  0
 30 27  1  0  0  0  0
 33 32  1  0  0  0  0
 34 41  1  6  0  0  0
 34 37  1  0  0  0  0
 35 38  1  0  0  0  0
 35 33  1  1  0  0  0
 36 35  1  0  0  0  0
 37 38  1  0  0  0  0
 38 39  2  0  0  0  0
 40 34  1  0  0  0  0
 40 36  1  0  0  0  0
 42 41  1  0  0  0  0
 42 43  1  0  0  0  0
 43 49  2  6  0  0  0
 43 46  1  0  0  0  0
 44 43  1  0  0  0  0
 44 47  1  0  0  0  0
 46 45  1  0  0  0  0
 47 51  1  6  0  0  0
 47 48  1  0  0  0  0
 48 45  1  0  0  0  0
 51 50  1  0  0  0  0
 51 52  1  0  0  0  0
M  END
>  <MODEL>
2

>  <REMARK>
 VINA RESULT:      -7.3      1.748      2.158
  Name = 
  16 active torsions:
  status: ('A' for Active; 'I' for Inactive)
    1  A    between atoms: O_1  and  O_26
    2  A    between atoms: O_1  and  C_41
    3  A    between atoms: C_3  and  N_8
    4  A    between atoms: C_3  and  C_49
    5  A    between atoms: C_4  and  O_37
    6  A    between atoms: C_6  and  C_22
    7  A    between atoms: C_6  and  C_28
    8  A    between atoms: N_8  and  N_14
    9  A    between atoms: P_13  and  O_21
   10  A    between atoms: N_14  and  N_36
   11  A    between atoms: C_16  and  O_26
   12  A    between atoms: C_18  and  C_41
   13  A    between atoms: O_21  and  O_37
   14  A    between atoms: C_24  and  C_41
   15  A    between atoms: C_25  and  C_40
   16  A    between atoms: C_29  and  C_45
                            x       y       z     vdW  Elec       q    Type
                         _______ _______ _______ _____ _____    ______ ____

>  <TORSDO>
F 16

$$$$
=
 OpenBabel10222417463D

 52 57  0  0  1  0  0  0  0  0999 V2000
  186.4740  176.6370  135.4670 C   0  0  2  0  0  3  0  0  0  0  0  0
  183.7880  177.3880  135.0770 S   0  0  0  0  0  0  0  0  0  0  0  0
  184.7520  177.0170  137.3490 C   0  0  0  0  0  3  0  0  0  0  0  0
  185.1200  176.9860  136.0130 C   0  0  0  0  0  0  0  0  0  0  0  0
  182.7000  177.6140  136.3410 C   0  0  0  0  0  3  0  0  0  0  0  0
  183.4050  177.3630  137.5170 C   0  0  0  0  0  0  0  0  0  0  0  0
  182.7810  177.4890  138.8610 C   0  0  0  0  0  2  0  0  0  0  0  0
  183.6670  178.2240  139.7480 N   0  0  0  0  0  2  0  0  0  0  0  0
  183.7960  177.4620  140.9170 N   0  0  0  0  0  2  0  0  0  0  0  0
  181.0630  179.0110  143.7120 N   0  0  0  0  0  1  0  0  0  0  0  0
  183.2690  178.8630  142.8760 C   0  0  0  0  0  0  0  0  0  0  0  0
  184.2020  178.3370  141.9320 N   0  0  0  0  0  2  0  0  0  0  0  0
  182.0200  178.5130  142.8170 N   0  0  0  0  0  0  0  0  0  0  0  0
  183.7550  179.8420  143.9000 C   0  0  0  0  0  2  0  0  0  0  0  0
  184.2860  178.0590  145.5300 C   0  0  0  0  0  2  0  0  0  0  0  0
  184.8460  179.2210  144.7590 C   0  0  2  0  0  3  0  0  0  0  0  0
  184.8840  178.2710  146.8820 C   0  0  0  0  0  2  0  0  0  0  0  0
  185.3210  180.1540  145.6920 O   0  0  0  0  0  0  0  0  0  0  0  0
  185.7680  179.4200  146.7510 N   0  0  0  0  0  2  0  0  0  0  0  0
  186.9380  172.7960  135.3190 C   0  0  0  0  0  2  0  0  0  0  0  0
  187.9540  174.2970  135.2710 S   0  0  0  0  0  0  0  0  0  0  0  0
  186.5020  175.2740  134.7600 C   0  0  1  0  0  3  0  0  0  0  0  0
  185.5950  173.1460  134.7110 C   0  0  2  0  0  3  0  0  0  0  0  0
  185.2970  174.5200  135.0740 N   0  0  0  0  0  2  0  0  0  0  0  0
  181.4300  174.3540  135.2520 O   0  0  0  0  0  1  0  0  0  0  0  0
  184.5730  171.9780  136.7280 C   0  0  0  0  0  2  0  0  0  0  0  0
  182.7720  173.6780  137.1030 C   0  0  0  0  0  2  0  0  0  0  0  0
  183.0950  172.6970  134.8230 C   0  0  0  0  0  2  0  0  0  0  0  0
  184.4940  172.2000  135.2100 C   0  0  1  0  0  3  0  0  0  0  0  0
  182.7180  173.9560  135.6060 C   0  0  1  0  0  3  0  0  0  0  0  0
  184.1770  173.2370  137.5020 C   0  0  0  0  0  2  0  0  0  0  0  0
  187.4850  176.7790  136.4410 O   0  0  0  0  0  0  0  0  0  0  0  0
  188.3690  177.6380  135.9630 O   0  0  0  0  0  0  0  0  0  0  0  0
  190.1690  176.8610  139.6390 C   0  0  2  0  0  3  0  0  0  0  0  0
  189.2040  177.9320  137.0440 C   0  0  1  0  0  3  0  0  0  0  0  0
  188.3680  177.9770  138.3260 C   0  0  0  0  0  2  0  0  0  0  0  0
  191.0970  176.8160  138.4290 C   0  0  0  0  0  2  0  0  0  0  0  0
  190.3030  176.9020  137.1610 C   0  0  0  0  0  0  0  0  0  0  0  0
  190.6240  176.2160  136.2010 O   0  0  0  0  0  0  0  0  0  0  0  0
  189.2580  178.0830  139.5640 C   0  0  0  0  0  2  0  0  0  0  0  0
  190.9300  176.9080  140.8100 O   0  0  0  0  0  0  0  0  0  0  0  0
  190.2210  177.6370  141.6490 O   0  0  0  0  0  0  0  0  0  0  0  0
  189.9790  176.6490  143.0100 P   0  0  1  0  0  0  0  0  0  0  0  0
  190.5310  177.4680  144.4620 N   0  0  0  0  0  2  0  0  0  0  0  0
  187.6620  177.4110  144.1600 C   0  0  0  0  0  2  0  0  0  0  0  0
  188.2080  176.3340  143.2320 C   0  0  0  0  0  2  0  0  0  0  0  0
  189.7690  176.9160  145.5810 C   0  0  2  0  0  3  0  0  0  0  0  0
  188.2920  177.3610  145.5610 C   0  0  0  0  0  2  0  0  0  0  0  0
  190.7140  175.3400  142.8350 O   0  0  0  0  0  0  0  0  0  0  0  0
  189.3610  177.6030  147.9500 C   0  0  0  0  0  1  0  0  0  0  0  0
  190.4180  177.2510  146.9230 C   0  0  0  0  0  3  0  0  0  0  0  0
  191.2820  176.1130  147.4420 C   0  0  0  0  0  1  0  0  0  0  0  0
  1  4  1  0  0  0  0
  1 32  1  1  0  0  0
  2  4  1  0  0  0  0
  2  5  1  0  0  0  0
  3  6  1  0  0  0  0
  4  3  2  0  0  0  0
  5  6  2  0  0  0  0
  6  7  1  0  0  0  0
  7  8  1  0  0  0  0
  8  9  1  0  0  0  0
  9 12  1  0  0  0  0
 11 14  1  0  0  0  0
 12 11  1  0  0  0  0
 13 11  2  0  0  0  0
 13 10  1  0  0  0  0
 15 17  1  0  0  0  0
 16 14  1  1  0  0  0
 16 15  1  0  0  0  0
 16 18  1  0  0  0  0
 18 19  1  0  0  0  0
 19 17  1  0  0  0  0
 21 20  1  0  0  0  0
 22 24  1  0  0  0  0
 22 21  1  0  0  0  0
 22  1  1  1  0  0  0
 23 24  1  0  0  0  0
 23 29  1  0  0  0  0
 23 20  1  1  0  0  0
 26 31  1  0  0  0  0
 27 31  1  0  0  0  0
 28 30  1  0  0  0  0
 29 28  1  1  0  0  0
 29 26  1  0  0  0  0
 30 25  1  6  0  0  0
 30 27  1  0  0  0  0
 33 32  1  0  0  0  0
 34 41  1  1  0  0  0
 35 33  1  6  0  0  0
 35 38  1  0  0  0  0
 35 36  1  0  0  0  0
 36 40  1  0  0  0  0
 37 34  1  0  0  0  0
 38 37  1  0  0  0  0
 39 38  2  0  0  0  0
 40 34  1  0  0  0  0
 41 42  1  0  0  0  0
 42 43  1  0  0  0  0
 43 49  2  6  0  0  0
 43 46  1  0  0  0  0
 43 44  1  0  0  0  0
 44 47  1  0  0  0  0
 45 48  1  0  0  0  0
 46 45  1  0  0  0  0
 47 51  1  1  0  0  0
 48 47  1  0  0  0  0
 51 52  1  0  0  0  0
 51 50  1  0  0  0  0
M  END
>  <MODEL>
3

>  <REMARK>
 VINA RESULT:      -6.9      3.068      6.048
  Name = 
  16 active torsions:
  status: ('A' for Active; 'I' for Inactive)
    1  A    between atoms: O_1  and  O_26
    2  A    between atoms: O_1  and  C_41
    3  A    between atoms: C_3  and  N_8
    4  A    between atoms: C_3  and  C_49
    5  A    between atoms: C_4  and  O_37
    6  A    between atoms: C_6  and  C_22
    7  A    between atoms: C_6  and  C_28
    8  A    between atoms: N_8  and  N_14
    9  A    between atoms: P_13  and  O_21
   10  A    between atoms: N_14  and  N_36
   11  A    between atoms: C_16  and  O_26
   12  A    between atoms: C_18  and  C_41
   13  A    between atoms: O_21  and  O_37
   14  A    between atoms: C_24  and  C_41
   15  A    between atoms: C_25  and  C_40
   16  A    between atoms: C_29  and  C_45
                            x       y       z     vdW  Elec       q    Type
                         _______ _______ _______ _____ _____    ______ ____

>  <TORSDO>
F 16

$$$$
=
 OpenBabel10222417463D

 52 57  0  0  1  0  0  0  0  0999 V2000
  184.5160  179.0370  141.5790 C   0  0  2  0  0  3  0  0  0  0  0  0
  187.2220  178.6330  140.9100 S   0  0  0  0  0  0  0  0  0  0  0  0
  185.3930  178.4880  139.2170 C   0  0  0  0  0  3  0  0  0  0  0  0
  185.5830  178.7380  140.5670 C   0  0  0  0  0  0  0  0  0  0  0  0
  187.7420  178.2670  139.3510 C   0  0  0  0  0  3  0  0  0  0  0  0
  186.5990  178.2240  138.5540 C   0  0  0  0  0  0  0  0  0  0  0  0
  186.6580  177.9530  137.0940 C   0  0  0  0  0  2  0  0  0  0  0  0
  187.8530  178.5590  136.5300 N   0  0  0  0  0  2  0  0  0  0  0  0
  188.7030  177.5100  136.1550 N   0  0  0  0  0  2  0  0  0  0  0  0
  190.5090  173.9910  137.5810 N   0  0  0  0  0  1  0  0  0  0  0  0
  190.4120  176.3520  137.5030 C   0  0  0  0  0  0  0  0  0  0  0  0
  189.8050  177.5500  137.0190 N   0  0  0  0  0  2  0  0  0  0  0  0
  189.9570  175.1950  137.1240 N   0  0  0  0  0  0  0  0  0  0  0  0
  191.5490  176.4600  138.4720 C   0  0  0  0  0  2  0  0  0  0  0  0
  192.2960  177.5370  140.5690 C   0  0  0  0  0  2  0  0  0  0  0  0
  191.0970  177.1510  139.7500 C   0  0  2  0  0  3  0  0  0  0  0  0
  191.8670  177.1470  141.9450 C   0  0  0  0  0  2  0  0  0  0  0  0
  190.3230  176.2780  140.5270 O   0  0  0  0  0  0  0  0  0  0  0  0
  190.4930  176.6840  141.8180 N   0  0  0  0  0  2  0  0  0  0  0  0
  184.6910  178.5630  145.4180 C   0  0  0  0  0  2  0  0  0  0  0  0
  183.7390  179.5120  144.2010 S   0  0  0  0  0  0  0  0  0  0  0  0
  185.0800  179.3090  142.9820 C   0  0  1  0  0  3  0  0  0  0  0  0
  186.0780  178.3580  144.8410 C   0  0  2  0  0  3  0  0  0  0  0  0
  185.9330  178.2080  143.4030 N   0  0  0  0  0  2  0  0  0  0  0  0
  188.2490  178.4290  148.6330 O   0  0  0  0  0  1  0  0  0  0  0  0
  188.0900  176.8030  144.7550 C   0  0  0  0  0  2  0  0  0  0  0  0
  189.3630  177.9570  146.5780 C   0  0  0  0  0  2  0  0  0  0  0  0
  186.9820  177.2870  146.9610 C   0  0  0  0  0  2  0  0  0  0  0  0
  186.7600  177.1270  145.4510 C   0  0  1  0  0  3  0  0  0  0  0  0
  188.0530  178.3390  147.2550 C   0  0  1  0  0  3  0  0  0  0  0  0
  189.1600  177.8520  145.0700 C   0  0  0  0  0  2  0  0  0  0  0  0
  183.4950  178.0630  141.5700 O   0  0  0  0  0  0  0  0  0  0  0  0
  182.3570  178.6940  141.3380 O   0  0  0  0  0  0  0  0  0  0  0  0
  180.3020  175.7000  139.2950 C   0  0  2  0  0  3  0  0  0  0  0  0
  181.8310  178.0790  140.1980 C   0  0  1  0  0  3  0  0  0  0  0  0
  182.4640  176.6930  140.0410 C   0  0  0  0  0  2  0  0  0  0  0  0
  179.5940  177.0500  139.3710 C   0  0  0  0  0  2  0  0  0  0  0  0
  180.3280  177.9700  140.2990 C   0  0  0  0  0  0  0  0  0  0  0  0
  179.6960  178.7000  141.0500 O   0  0  0  0  0  0  0  0  0  0  0  0
  181.7730  175.8920  138.9370 C   0  0  0  0  0  2  0  0  0  0  0  0
  179.6800  174.9010  138.3320 O   0  0  0  0  0  0  0  0  0  0  0  0
  180.0310  175.4260  137.1740 O   0  0  0  0  0  0  0  0  0  0  0  0
  180.2610  174.1040  136.1330 P   0  0  1  0  0  0  0  0  0  0  0  0
  181.9740  173.8510  135.8400 N   0  0  0  0  0  2  0  0  0  0  0  0
  180.7980  171.9510  137.6660 C   0  0  0  0  0  2  0  0  0  0  0  0
  179.6390  172.5910  136.9140 C   0  0  0  0  0  2  0  0  0  0  0  0
  182.1490  172.4370  135.5100 C   0  0  2  0  0  3  0  0  0  0  0  0
  181.9430  171.5200  136.7330 C   0  0  0  0  0  2  0  0  0  0  0  0
  179.5360  174.3410  134.8280 O   0  0  0  0  0  0  0  0  0  0  0  0
  184.3240  173.4500  134.8080 C   0  0  0  0  0  1  0  0  0  0  0  0
  183.5050  172.1750  134.8580 C   0  0  0  0  0  3  0  0  0  0  0  0
  184.2870  171.0880  135.5760 C   0  0  0  0  0  1  0  0  0  0  0  0
  1 32  1  1  0  0  0
  3  4  2  0  0  0  0
  4  2  1  0  0  0  0
  4  1  1  0  0  0  0
  5  2  1  0  0  0  0
  6  3  1  0  0  0  0
  6  5  2  0  0  0  0
  7  6  1  0  0  0  0
  8  7  1  0  0  0  0
  9  8  1  0  0  0  0
  9 12  1  0  0  0  0
 11 14  1  0  0  0  0
 12 11  1  0  0  0  0
 13 11  2  0  0  0  0
 13 10  1  0  0  0  0
 15 17  1  0  0  0  0
 16 14  1  6  0  0  0
 16 18  1  0  0  0  0
 16 15  1  0  0  0  0
 18 19  1  0  0  0  0
 19 17  1  0  0  0  0
 21 20  1  0  0  0  0
 22  1  1  6  0  0  0
 22 24  1  0  0  0  0
 22 21  1  0  0  0  0
 23 20  1  1  0  0  0
 23 29  1  0  0  0  0
 24 23  1  0  0  0  0
 26 31  1  0  0  0  0
 27 30  1  0  0  0  0
 28 30  1  0  0  0  0
 29 26  1  6  0  0  0
 29 28  1  0  0  0  0
 30 25  1  1  0  0  0
 31 27  1  0  0  0  0
 33 32  1  0  0  0  0
 34 41  1  6  0  0  0
 34 37  1  0  0  0  0
 35 38  1  0  0  0  0
 35 33  1  1  0  0  0
 36 35  1  0  0  0  0
 37 38  1  0  0  0  0
 38 39  2  0  0  0  0
 40 34  1  0  0  0  0
 40 36  1  0  0  0  0
 42 41  1  0  0  0  0
 43 49  2  6  0  0  0
 43 46  1  0  0  0  0
 43 42  1  0  0  0  0
 44 43  1  0  0  0  0
 46 45  1  0  0  0  0
 47 51  1  1  0  0  0
 47 44  1  0  0  0  0
 47 48  1  0  0  0  0
 48 45  1  0  0  0  0
 50 51  1  0  0  0  0
 51 52  1  0  0  0  0
M  END
>  <MODEL>
4

>  <REMARK>
 VINA RESULT:      -6.8      3.651      9.411
  Name = 
  16 active torsions:
  status: ('A' for Active; 'I' for Inactive)
    1  A    between atoms: O_1  and  O_26
    2  A    between atoms: O_1  and  C_41
    3  A    between atoms: C_3  and  N_8
    4  A    between atoms: C_3  and  C_49
    5  A    between atoms: C_4  and  O_37
    6  A    between atoms: C_6  and  C_22
    7  A    between atoms: C_6  and  C_28
    8  A    between atoms: N_8  and  N_14
    9  A    between atoms: P_13  and  O_21
   10  A    between atoms: N_14  and  N_36
   11  A    between atoms: C_16  and  O_26
   12  A    between atoms: C_18  and  C_41
   13  A    between atoms: O_21  and  O_37
   14  A    between atoms: C_24  and  C_41
   15  A    between atoms: C_25  and  C_40
   16  A    between atoms: C_29  and  C_45
                            x       y       z     vdW  Elec       q    Type
                         _______ _______ _______ _____ _____    ______ ____

>  <TORSDO>
F 16

$$$$
=
 OpenBabel10222417463D

 52 57  0  0  1  0  0  0  0  0999 V2000
  183.7320  178.7530  139.4460 C   0  0  2  0  0  3  0  0  0  0  0  0
  185.8830  178.9790  141.2500 S   0  0  0  0  0  0  0  0  0  0  0  0
  183.5290  178.6500  142.0150 C   0  0  0  0  0  3  0  0  0  0  0  0
  184.2670  178.7750  140.8480 C   0  0  0  0  0  0  0  0  0  0  0  0
  185.6950  178.9150  142.9220 C   0  0  0  0  0  3  0  0  0  0  0  0
  184.3330  178.7330  143.1590 C   0  0  0  0  0  0  0  0  0  0  0  0
  183.7760  178.6010  144.5310 C   0  0  0  0  0  2  0  0  0  0  0  0
  184.6620  179.2480  145.4860 N   0  0  0  0  0  2  0  0  0  0  0  0
  185.1000  178.2550  146.3720 N   0  0  0  0  0  2  0  0  0  0  0  0
  188.5160  178.0750  148.8160 N   0  0  0  0  0  1  0  0  0  0  0  0
  187.4830  177.7290  146.7180 C   0  0  0  0  0  0  0  0  0  0  0  0
  186.3260  177.7850  145.8840 N   0  0  0  0  0  2  0  0  0  0  0  0
  187.4060  178.0980  147.9610 N   0  0  0  0  0  0  0  0  0  0  0  0
  188.7800  177.2740  146.1210 C   0  0  0  0  0  2  0  0  0  0  0  0
  188.6560  176.4370  143.7970 C   0  0  0  0  0  2  0  0  0  0  0  0
  188.8550  177.6570  144.6510 C   0  0  2  0  0  3  0  0  0  0  0  0
  189.7090  176.6170  142.7540 C   0  0  0  0  0  2  0  0  0  0  0  0
  190.1210  178.1790  144.3480 O   0  0  0  0  0  0  0  0  0  0  0  0
  190.3250  177.9070  143.0280 N   0  0  0  0  0  2  0  0  0  0  0  0
  180.2990  179.3290  137.7490 C   0  0  0  0  0  2  0  0  0  0  0  0
  181.5520  180.2780  138.6530 S   0  0  0  0  0  0  0  0  0  0  0  0
  182.1970  178.7410  139.3920 C   0  0  1  0  0  3  0  0  0  0  0  0
  180.3460  177.9090  138.2770 C   0  0  2  0  0  3  0  0  0  0  0  0
  181.7310  177.6110  138.6010 N   0  0  0  0  0  2  0  0  0  0  0  0
  178.9540  173.8950  139.2970 O   0  0  0  0  0  1  0  0  0  0  0  0
  180.9260  176.2590  136.4290 C   0  0  0  0  0  2  0  0  0  0  0  0
  180.8500  174.2260  137.8900 C   0  0  0  0  0  2  0  0  0  0  0  0
  178.9310  175.8320  137.9020 C   0  0  0  0  0  2  0  0  0  0  0  0
  179.8010  176.9130  137.2470 C   0  0  1  0  0  3  0  0  0  0  0  0
  179.7750  174.8790  138.7500 C   0  0  1  0  0  3  0  0  0  0  0  0
  181.7530  175.2940  137.2820 C   0  0  0  0  0  2  0  0  0  0  0  0
  184.3230  177.7320  138.6740 O   0  0  0  0  0  0  0  0  0  0  0  0
  185.1230  178.3170  137.7990 O   0  0  0  0  0  0  0  0  0  0  0  0
  188.0910  176.0910  135.9030 C   0  0  2  0  0  3  0  0  0  0  0  0
  186.2650  177.5130  137.7630 C   0  0  1  0  0  3  0  0  0  0  0  0
  185.9130  176.1720  137.1140 C   0  0  0  0  0  2  0  0  0  0  0  0
  188.5530  177.3990  136.5380 C   0  0  0  0  0  2  0  0  0  0  0  0
  187.3730  178.2000  136.9980 C   0  0  0  0  0  0  0  0  0  0  0  0
  187.3710  179.4130  136.8470 O   0  0  0  0  0  0  0  0  0  0  0  0
  187.1670  175.3370  136.8550 C   0  0  0  0  0  2  0  0  0  0  0  0
  189.2020  175.3030  135.5960 O   0  0  0  0  0  0  0  0  0  0  0  0
  190.2400  175.9920  136.0290 O   0  0  0  0  0  0  0  0  0  0  0  0
  191.0930  174.9300  137.0430 P   0  0  1  0  0  0  0  0  0  0  0  0
  192.4560  174.2310  136.1840 N   0  0  0  0  0  2  0  0  0  0  0  0
  193.1830  176.2940  138.0660 C   0  0  0  0  0  2  0  0  0  0  0  0
  191.7800  175.8440  138.4500 C   0  0  0  0  0  2  0  0  0  0  0  0
  193.4580  173.8740  137.1870 C   0  0  2  0  0  3  0  0  0  0  0  0
  194.1340  175.1130  137.8090 C   0  0  0  0  0  2  0  0  0  0  0  0
  190.1730  173.8390  137.5410 O   0  0  0  0  0  0  0  0  0  0  0  0
  193.8300  171.7930  135.8520 C   0  0  0  0  0  1  0  0  0  0  0  0
  194.5030  172.9130  136.6220 C   0  0  0  0  0  3  0  0  0  0  0  0
  195.5090  173.6200  135.7300 C   0  0  0  0  0  1  0  0  0  0  0  0
  1 32  1  1  0  0  0
  1  4  1  0  0  0  0
  2  5  1  0  0  0  0
  3  6  1  0  0  0  0
  4  2  1  0  0  0  0
  4  3  2  0  0  0  0
  5  6  2  0  0  0  0
  6  7  1  0  0  0  0
  7  8  1  0  0  0  0
  8  9  1  0  0  0  0
 11 13  2  0  0  0  0
 12  9  1  0  0  0  0
 12 11  1  0  0  0  0
 13 10  1  0  0  0  0
 14 11  1  0  0  0  0
 15 16  1  0  0  0  0
 16 14  1  1  0  0  0
 17 19  1  0  0  0  0
 17 15  1  0  0  0  0
 18 16  1  0  0  0  0
 19 18  1  0  0  0  0
 20 21  1  0  0  0  0
 21 22  1  0  0  0  0
 22  1  1  6  0  0  0
 23 20  1  6  0  0  0
 23 24  1  0  0  0  0
 24 22  1  0  0  0  0
 26 31  1  0  0  0  0
 27 30  1  0  0  0  0
 28 30  1  0  0  0  0
 29 26  1  1  0  0  0
 29 28  1  0  0  0  0
 29 23  1  0  0  0  0
 30 25  1  6  0  0  0
 31 27  1  0  0  0  0
 33 32  1  0  0  0  0
 34 41  1  1  0  0  0
 34 37  1  0  0  0  0
 34 40  1  0  0  0  0
 35 33  1  6  0  0  0
 36 35  1  0  0  0  0
 37 38  1  0  0  0  0
 38 35  1  0  0  0  0
 39 38  2  0  0  0  0
 40 36  1  0  0  0  0
 41 42  1  0  0  0  0
 42 43  1  0  0  0  0
 43 49  2  1  0  0  0
 43 46  1  0  0  0  0
 44 43  1  0  0  0  0
 44 47  1  0  0  0  0
 45 46  1  0  0  0  0
 47 51  1  6  0  0  0
 47 48  1  0  0  0  0
 48 45  1  0  0  0  0
 50 51  1  0  0  0  0
 52 51  1  0  0  0  0
M  END
>  <MODEL>
5

>  <REMARK>
 VINA RESULT:      -6.8      2.141      2.793
  Name = 
  16 active torsions:
  status: ('A' for Active; 'I' for Inactive)
    1  A    between atoms: O_1  and  O_26
    2  A    between atoms: O_1  and  C_41
    3  A    between atoms: C_3  and  N_8
    4  A    between atoms: C_3  and  C_49
    5  A    between atoms: C_4  and  O_37
    6  A    between atoms: C_6  and  C_22
    7  A    between atoms: C_6  and  C_28
    8  A    between atoms: N_8  and  N_14
    9  A    between atoms: P_13  and  O_21
   10  A    between atoms: N_14  and  N_36
   11  A    between atoms: C_16  and  O_26
   12  A    between atoms: C_18  and  C_41
   13  A    between atoms: O_21  and  O_37
   14  A    between atoms: C_24  and  C_41
   15  A    between atoms: C_25  and  C_40
   16  A    between atoms: C_29  and  C_45
                            x       y       z     vdW  Elec       q    Type
                         _______ _______ _______ _____ _____    ______ ____

>  <TORSDO>
F 16

$$$$
=
 OpenBabel10222417463D

 52 57  0  0  1  0  0  0  0  0999 V2000
  182.0300  176.9020  139.6130 C   0  0  2  0  0  3  0  0  0  0  0  0
  182.0090  177.8980  136.9790 S   0  0  0  0  0  0  0  0  0  0  0  0
  184.0110  176.7790  137.9660 C   0  0  0  0  0  3  0  0  0  0  0  0
  182.7120  177.1350  138.2970 C   0  0  0  0  0  0  0  0  0  0  0  0
  183.3350  177.8020  135.9460 C   0  0  0  0  0  3  0  0  0  0  0  0
  184.3450  177.1590  136.6600 C   0  0  0  0  0  0  0  0  0  0  0  0
  185.6750  176.8640  136.0640 C   0  0  0  0  0  2  0  0  0  0  0  0
  186.6240  177.8980  136.4440 N   0  0  0  0  0  2  0  0  0  0  0  0
  187.8170  177.6240  135.7630 N   0  0  0  0  0  2  0  0  0  0  0  0
  189.7620  174.3640  137.5700 N   0  0  0  0  0  1  0  0  0  0  0  0
  189.5160  176.6990  137.2920 C   0  0  0  0  0  0  0  0  0  0  0  0
  188.8610  177.8090  136.6790 N   0  0  0  0  0  2  0  0  0  0  0  0
  189.1610  175.4870  136.9870 N   0  0  0  0  0  0  0  0  0  0  0  0
  190.5830  176.9630  138.3090 C   0  0  0  0  0  2  0  0  0  0  0  0
  190.7270  177.2640  140.7600 C   0  0  0  0  0  2  0  0  0  0  0  0
  190.0060  177.6920  139.5120 C   0  0  2  0  0  3  0  0  0  0  0  0
  189.5990  177.0890  141.7230 C   0  0  0  0  0  2  0  0  0  0  0  0
  188.6530  177.3630  139.6780 O   0  0  0  0  0  0  0  0  0  0  0  0
  188.3990  177.5040  141.0110 N   0  0  0  0  0  2  0  0  0  0  0  0
  178.9680  174.6760  138.7980 C   0  0  0  0  0  2  0  0  0  0  0  0
  179.4670  175.9180  140.0210 S   0  0  0  0  0  0  0  0  0  0  0  0
  181.2220  175.5960  139.6460 C   0  0  1  0  0  3  0  0  0  0  0  0
  180.2250  173.9510  138.3590 C   0  0  2  0  0  3  0  0  0  0  0  0
  181.3090  174.9190  138.3600 N   0  0  0  0  0  2  0  0  0  0  0  0
  182.7430  170.7280  136.8210 O   0  0  0  0  0  1  0  0  0  0  0  0
  180.6210  174.2320  135.8610 C   0  0  0  0  0  2  0  0  0  0  0  0
  182.7300  172.8820  135.7980 C   0  0  0  0  0  2  0  0  0  0  0  0
  180.6830  171.9330  136.8820 C   0  0  0  0  0  2  0  0  0  0  0  0
  180.0530  173.3300  136.9670 C   0  0  1  0  0  3  0  0  0  0  0  0
  182.2100  172.0100  136.9350 C   0  0  1  0  0  3  0  0  0  0  0  0
  182.1490  174.2870  135.9110 C   0  0  0  0  0  2  0  0  0  0  0  0
  181.2850  178.0270  140.0260 O   0  0  0  0  0  0  0  0  0  0  0  0
  182.1510  178.9470  140.4150 O   0  0  0  0  0  0  0  0  0  0  0  0
  184.5170  179.0550  143.8430 C   0  0  2  0  0  3  0  0  0  0  0  0
  182.8090  178.3800  141.5100 C   0  0  1  0  0  3  0  0  0  0  0  0
  184.3100  178.6560  141.3900 C   0  0  0  0  0  2  0  0  0  0  0  0
  183.0400  178.7460  144.0710 C   0  0  0  0  0  2  0  0  0  0  0  0
  182.2660  178.9410  142.8030 C   0  0  0  0  0  0  0  0  0  0  0  0
  181.1560  179.4540  142.8470 O   0  0  0  0  0  0  0  0  0  0  0  0
  185.0510  178.2470  142.6630 C   0  0  0  0  0  2  0  0  0  0  0  0
  185.2420  178.7470  144.9960 O   0  0  0  0  0  0  0  0  0  0  0  0
  186.5020  178.9640  144.6760 O   0  0  0  0  0  0  0  0  0  0  0  0
  187.3650  177.6570  145.3350 P   0  0  1  0  0  0  0  0  0  0  0  0
  189.0880  177.9990  145.3240 N   0  0  0  0  0  2  0  0  0  0  0  0
  187.8560  178.2370  147.9230 C   0  0  0  0  0  2  0  0  0  0  0  0
  186.8930  177.4220  147.0700 C   0  0  0  0  0  2  0  0  0  0  0  0
  189.6870  177.2150  146.4030 C   0  0  2  0  0  3  0  0  0  0  0  0
  189.3110  177.7530  147.7990 C   0  0  0  0  0  2  0  0  0  0  0  0
  187.0760  176.3980  144.5510 O   0  0  0  0  0  0  0  0  0  0  0  0
  191.6910  175.7470  146.6830 C   0  0  0  0  0  1  0  0  0  0  0  0
  191.2040  177.1150  146.2510 C   0  0  0  0  0  3  0  0  0  0  0  0
  191.6580  177.3990  144.8290 C   0  0  0  0  0  1  0  0  0  0  0  0
  1 32  1  6  0  0  0
  2  4  1  0  0  0  0
  3  4  2  0  0  0  0
  4  1  1  0  0  0  0
  5  6  2  0  0  0  0
  5  2  1  0  0  0  0
  6  3  1  0  0  0  0
  7  8  1  0  0  0  0
  7  6  1  0  0  0  0
  9  8  1  0  0  0  0
  9 12  1  0  0  0  0
 11 14  1  0  0  0  0
 12 11  1  0  0  0  0
 13 11  2  0  0  0  0
 13 10  1  0  0  0  0
 15 17  1  0  0  0  0
 16 14  1  6  0  0  0
 16 18  1  0  0  0  0
 16 15  1  0  0  0  0
 18 19  1  0  0  0  0
 19 17  1  0  0  0  0
 20 21  1  0  0  0  0
 22  1  1  6  0  0  0
 22 21  1  0  0  0  0
 23 24  1  0  0  0  0
 23 20  1  6  0  0  0
 24 22  1  0  0  0  0
 26 31  1  0  0  0  0
 27 31  1  0  0  0  0
 27 30  1  0  0  0  0
 28 30  1  0  0  0  0
 28 29  1  0  0  0  0
 29 26  1  6  0  0  0
 29 23  1  0  0  0  0
 30 25  1  6  0  0  0
 32 33  1  0  0  0  0
 34 37  1  0  0  0  0
 34 41  1  1  0  0  0
 35 33  1  6  0  0  0
 35 38  1  0  0  0  0
 36 35  1  0  0  0  0
 36 40  1  0  0  0  0
 38 39  2  0  0  0  0
 38 37  1  0  0  0  0
 40 34  1  0  0  0  0
 42 41  1  0  0  0  0
 42 43  1  0  0  0  0
 43 49  2  6  0  0  0
 43 46  1  0  0  0  0
 44 43  1  0  0  0  0
 44 47  1  0  0  0  0
 46 45  1  0  0  0  0
 47 51  1  6  0  0  0
 47 48  1  0  0  0  0
 48 45  1  0  0  0  0
 51 50  1  0  0  0  0
 52 51  1  0  0  0  0
M  END
>  <MODEL>
6

>  <REMARK>
 VINA RESULT:      -6.7      3.478      7.712
  Name = 
  16 active torsions:
  status: ('A' for Active; 'I' for Inactive)
    1  A    between atoms: O_1  and  O_26
    2  A    between atoms: O_1  and  C_41
    3  A    between atoms: C_3  and  N_8
    4  A    between atoms: C_3  and  C_49
    5  A    between atoms: C_4  and  O_37
    6  A    between atoms: C_6  and  C_22
    7  A    between atoms: C_6  and  C_28
    8  A    between atoms: N_8  and  N_14
    9  A    between atoms: P_13  and  O_21
   10  A    between atoms: N_14  and  N_36
   11  A    between atoms: C_16  and  O_26
   12  A    between atoms: C_18  and  C_41
   13  A    between atoms: O_21  and  O_37
   14  A    between atoms: C_24  and  C_41
   15  A    between atoms: C_25  and  C_40
   16  A    between atoms: C_29  and  C_45
                            x       y       z     vdW  Elec       q    Type
                         _______ _______ _______ _____ _____    ______ ____

>  <TORSDO>
F 16

$$$$
=
 OpenBabel10222417463D

 52 57  0  0  1  0  0  0  0  0999 V2000
  182.3730  178.3380  137.5840 C   0  0  2  0  0  3  0  0  0  0  0  0
  183.5280  177.4520  135.1740 S   0  0  0  0  0  0  0  0  0  0  0  0
  184.1020  176.4360  137.3810 C   0  0  0  0  0  3  0  0  0  0  0  0
  183.2960  177.4230  136.8340 C   0  0  0  0  0  0  0  0  0  0  0  0
  184.6620  176.2100  135.0970 C   0  0  0  0  0  3  0  0  0  0  0  0
  184.8580  175.7730  136.4060 C   0  0  0  0  0  0  0  0  0  0  0  0
  185.7790  174.6560  136.7410 C   0  0  0  0  0  2  0  0  0  0  0  0
  186.9600  174.7210  135.8950 N   0  0  0  0  0  2  0  0  0  0  0  0
  188.0190  174.1730  136.6310 N   0  0  0  0  0  2  0  0  0  0  0  0
  191.8090  175.8200  135.8580 N   0  0  0  0  0  1  0  0  0  0  0  0
  189.8340  175.7570  137.1550 C   0  0  0  0  0  0  0  0  0  0  0  0
  188.5440  175.2040  137.4200 N   0  0  0  0  0  2  0  0  0  0  0  0
  190.5340  175.3200  136.1520 N   0  0  0  0  0  0  0  0  0  0  0  0
  190.3660  176.8150  138.0710 C   0  0  0  0  0  2  0  0  0  0  0  0
  188.7900  177.9590  139.5960 C   0  0  0  0  0  2  0  0  0  0  0  0
  189.6690  176.7530  139.4220 C   0  0  2  0  0  3  0  0  0  0  0  0
  189.0780  178.3490  141.0090 C   0  0  0  0  0  2  0  0  0  0  0  0
  190.6130  176.7700  140.4590 O   0  0  0  0  0  0  0  0  0  0  0  0
  189.9770  177.3280  141.5270 N   0  0  0  0  0  2  0  0  0  0  0  0
  179.0820  180.0280  136.4390 C   0  0  0  0  0  2  0  0  0  0  0  0
  179.9190  178.4270  136.2890 S   0  0  0  0  0  0  0  0  0  0  0  0
  181.5200  179.2190  136.6590 C   0  0  1  0  0  3  0  0  0  0  0  0
  180.1610  181.0880  136.5440 C   0  0  2  0  0  3  0  0  0  0  0  0
  181.2700  180.5090  137.2830 N   0  0  0  0  0  2  0  0  0  0  0  0
  180.9120  185.1460  135.1070 O   0  0  0  0  0  1  0  0  0  0  0  0
  180.4610  182.6930  138.4960 C   0  0  0  0  0  2  0  0  0  0  0  0
  181.7640  184.4000  137.2050 C   0  0  0  0  0  2  0  0  0  0  0  0
  179.5900  183.5530  136.2970 C   0  0  0  0  0  2  0  0  0  0  0  0
  179.6370  182.3480  137.2460 C   0  0  1  0  0  3  0  0  0  0  0  0
  180.9990  184.0320  135.9400 C   0  0  1  0  0  3  0  0  0  0  0  0
  181.8610  183.1890  138.1260 C   0  0  0  0  0  2  0  0  0  0  0  0
  183.0530  179.0730  138.5780 O   0  0  0  0  0  0  0  0  0  0  0  0
  182.3340  178.9930  139.6840 O   0  0  0  0  0  0  0  0  0  0  0  0
  184.8020  179.2530  143.0300 C   0  0  2  0  0  3  0  0  0  0  0  0
  183.2100  178.4830  140.6460 C   0  0  1  0  0  3  0  0  0  0  0  0
  184.5460  179.2250  140.5500 C   0  0  0  0  0  2  0  0  0  0  0  0
  183.5070  178.4700  143.2260 C   0  0  0  0  0  2  0  0  0  0  0  0
  182.6190  178.6250  142.0290 C   0  0  0  0  0  0  0  0  0  0  0  0
  181.4140  178.7550  142.1860 O   0  0  0  0  0  0  0  0  0  0  0  0
  185.4660  178.8580  141.7140 C   0  0  0  0  0  2  0  0  0  0  0  0
  185.6690  178.9960  144.0950 O   0  0  0  0  0  0  0  0  0  0  0  0
  186.8310  178.7250  143.5320 O   0  0  0  0  0  0  0  0  0  0  0  0
  187.5040  177.4770  144.4670 P   0  0  1  0  0  0  0  0  0  0  0  0
  189.1290  177.9060  144.9760 N   0  0  0  0  0  2  0  0  0  0  0  0
  187.1450  178.1250  147.0600 C   0  0  0  0  0  2  0  0  0  0  0  0
  186.5290  177.2470  145.9780 C   0  0  0  0  0  2  0  0  0  0  0  0
  189.3990  177.1730  146.2120 C   0  0  2  0  0  3  0  0  0  0  0  0
  188.5860  177.7150  147.4050 C   0  0  0  0  0  2  0  0  0  0  0  0
  187.5270  176.1920  143.6720 O   0  0  0  0  0  0  0  0  0  0  0  0
  191.1980  176.0530  147.5370 C   0  0  0  0  0  1  0  0  0  0  0  0
  190.8920  177.1500  146.5370 C   0  0  0  0  0  3  0  0  0  0  0  0
  191.7470  176.9680  145.2950 C   0  0  0  0  0  1  0  0  0  0  0  0
  1 32  1  1  0  0  0
  2  4  1  0  0  0  0
  4  3  2  0  0  0  0
  4  1  1  0  0  0  0
  5  2  1  0  0  0  0
  5  6  2  0  0  0  0
  6  7  1  0  0  0  0
  6  3  1  0  0  0  0
  8  9  1  0  0  0  0
  8  7  1  0  0  0  0
  9 12  1  0  0  0  0
 10 13  1  0  0  0  0
 11 12  1  0  0  0  0
 11 14  1  0  0  0  0
 13 11  2  0  0  0  0
 15 17  1  0  0  0  0
 16 14  1  6  0  0  0
 16 15  1  0  0  0  0
 16 18  1  0  0  0  0
 17 19  1  0  0  0  0
 18 19  1  0  0  0  0
 21 20  1  0  0  0  0
 21 22  1  0  0  0  0
 22 24  1  0  0  0  0
 22  1  1  1  0  0  0
 23 20  1  1  0  0  0
 23 29  1  0  0  0  0
 23 24  1  0  0  0  0
 27 31  1  0  0  0  0
 29 28  1  6  0  0  0
 29 26  1  0  0  0  0
 30 25  1  6  0  0  0
 30 28  1  0  0  0  0
 30 27  1  0  0  0  0
 31 26  1  0  0  0  0
 32 33  1  0  0  0  0
 34 37  1  0  0  0  0
 34 41  1  1  0  0  0
 35 33  1  6  0  0  0
 35 38  1  0  0  0  0
 36 35  1  0  0  0  0
 36 40  1  0  0  0  0
 38 39  2  0  0  0  0
 38 37  1  0  0  0  0
 40 34  1  0  0  0  0
 42 41  1  0  0  0  0
 42 43  1  0  0  0  0
 43 49  2  6  0  0  0
 43 44  1  0  0  0  0
 43 46  1  0  0  0  0
 44 47  1  0  0  0  0
 45 48  1  0  0  0  0
 46 45  1  0  0  0  0
 47 51  1  1  0  0  0
 47 48  1  0  0  0  0
 51 50  1  0  0  0  0
 52 51  1  0  0  0  0
M  END
>  <MODEL>
7

>  <REMARK>
 VINA RESULT:      -6.7      3.847      8.700
  Name = 
  16 active torsions:
  status: ('A' for Active; 'I' for Inactive)
    1  A    between atoms: O_1  and  O_26
    2  A    between atoms: O_1  and  C_41
    3  A    between atoms: C_3  and  N_8
    4  A    between atoms: C_3  and  C_49
    5  A    between atoms: C_4  and  O_37
    6  A    between atoms: C_6  and  C_22
    7  A    between atoms: C_6  and  C_28
    8  A    between atoms: N_8  and  N_14
    9  A    between atoms: P_13  and  O_21
   10  A    between atoms: N_14  and  N_36
   11  A    between atoms: C_16  and  O_26
   12  A    between atoms: C_18  and  C_41
   13  A    between atoms: O_21  and  O_37
   14  A    between atoms: C_24  and  C_41
   15  A    between atoms: C_25  and  C_40
   16  A    between atoms: C_29  and  C_45
                            x       y       z     vdW  Elec       q    Type
                         _______ _______ _______ _____ _____    ______ ____

>  <TORSDO>
F 16

$$$$
=
 OpenBabel10222417463D

 52 57  0  0  1  0  0  0  0  0999 V2000
  184.1030  179.2950  139.4700 C   0  0  2  0  0  3  0  0  0  0  0  0
  186.0930  178.6280  141.3480 S   0  0  0  0  0  0  0  0  0  0  0  0
  183.7130  179.0060  142.0030 C   0  0  0  0  0  3  0  0  0  0  0  0
  184.5260  179.0010  140.8800 C   0  0  0  0  0  0  0  0  0  0  0  0
  185.7880  178.4610  142.9960 C   0  0  0  0  0  3  0  0  0  0  0  0
  184.4270  178.7090  143.1710 C   0  0  0  0  0  0  0  0  0  0  0  0
  183.7700  178.6280  144.5030 C   0  0  0  0  0  2  0  0  0  0  0  0
  184.5630  179.3490  145.4860 N   0  0  0  0  0  2  0  0  0  0  0  0
  184.9730  178.4110  146.4430 N   0  0  0  0  0  2  0  0  0  0  0  0
  188.3820  178.2510  148.8980 N   0  0  0  0  0  1  0  0  0  0  0  0
  187.3350  177.8160  146.8250 C   0  0  0  0  0  0  0  0  0  0  0  0
  186.1790  177.8650  145.9880 N   0  0  0  0  0  2  0  0  0  0  0  0
  187.2730  178.2640  148.0420 N   0  0  0  0  0  0  0  0  0  0  0  0
  188.6120  177.2750  146.2590 C   0  0  0  0  0  2  0  0  0  0  0  0
  188.9980  176.7540  143.8720 C   0  0  0  0  0  2  0  0  0  0  0  0
  188.8770  177.8610  144.8810 C   0  0  2  0  0  3  0  0  0  0  0  0
  190.1750  177.1990  143.0670 C   0  0  0  0  0  2  0  0  0  0  0  0
  190.0890  178.5670  144.8760 O   0  0  0  0  0  0  0  0  0  0  0  0
  190.5470  178.5040  143.5940 N   0  0  0  0  0  2  0  0  0  0  0  0
  181.2440  176.7210  139.9190 C   0  0  0  0  0  2  0  0  0  0  0  0
  183.0560  176.7510  139.8420 S   0  0  0  0  0  0  0  0  0  0  0  0
  183.0020  178.3500  138.9670 C   0  0  1  0  0  3  0  0  0  0  0  0
  180.7410  177.8580  139.0520 C   0  0  2  0  0  3  0  0  0  0  0  0
  181.6920  178.9510  139.1720 N   0  0  0  0  0  2  0  0  0  0  0  0
  179.6250  182.0370  139.6730 O   0  0  0  0  0  1  0  0  0  0  0  0
  179.0930  178.0730  140.9780 C   0  0  0  0  0  2  0  0  0  0  0  0
  179.6120  180.4730  141.4720 C   0  0  0  0  0  2  0  0  0  0  0  0
  179.0770  179.7780  139.1280 C   0  0  0  0  0  2  0  0  0  0  0  0
  179.3380  178.3070  139.4800 C   0  0  1  0  0  3  0  0  0  0  0  0
  179.9170  180.7140  139.9990 C   0  0  1  0  0  3  0  0  0  0  0  0
  179.9240  179.0260  141.8400 C   0  0  0  0  0  2  0  0  0  0  0  0
  185.2070  179.3770  138.5960 O   0  0  0  0  0  0  0  0  0  0  0  0
  185.2780  178.2260  137.9490 O   0  0  0  0  0  0  0  0  0  0  0  0
  188.9550  176.8650  136.5400 C   0  0  2  0  0  3  0  0  0  0  0  0
  186.4470  178.3140  137.1880 C   0  0  1  0  0  3  0  0  0  0  0  0
  187.6580  178.2870  138.1240 C   0  0  0  0  0  2  0  0  0  0  0  0
  187.8220  176.8760  135.5180 C   0  0  0  0  0  2  0  0  0  0  0  0
  186.5180  177.1810  136.1910 C   0  0  0  0  0  0  0  0  0  0  0  0
  185.5080  176.5850  135.8470 O   0  0  0  0  0  0  0  0  0  0  0  0
  188.9630  178.1660  137.3370 C   0  0  0  0  0  2  0  0  0  0  0  0
  190.1760  176.7050  135.8800 O   0  0  0  0  0  0  0  0  0  0  0  0
  190.2300  175.4260  135.5640 O   0  0  0  0  0  0  0  0  0  0  0  0
  191.1660  174.7010  136.7820 P   0  0  1  0  0  0  0  0  0  0  0  0
  192.5250  173.8420  136.0750 N   0  0  0  0  0  2  0  0  0  0  0  0
  193.2300  176.3540  137.3070 C   0  0  0  0  0  2  0  0  0  0  0  0
  191.8640  175.9780  137.8630 C   0  0  0  0  0  2  0  0  0  0  0  0
  193.5780  173.7970  137.0880 C   0  0  2  0  0  3  0  0  0  0  0  0
  194.2210  175.1780  137.3270 C   0  0  0  0  0  2  0  0  0  0  0  0
  190.3130  173.7530  137.5930 O   0  0  0  0  0  0  0  0  0  0  0  0
  195.5850  173.2860  135.6880 C   0  0  0  0  0  1  0  0  0  0  0  0
  194.6410  172.7540  136.7480 C   0  0  0  0  0  3  0  0  0  0  0  0
  195.4310  172.3210  137.9720 C   0  0  0  0  0  1  0  0  0  0  0  0
  1 32  1  6  0  0  0
  1  4  1  0  0  0  0
  2  5  1  0  0  0  0
  3  6  1  0  0  0  0
  4  2  1  0  0  0  0
  4  3  2  0  0  0  0
  5  6  2  0  0  0  0
  6  7  1  0  0  0  0
  7  8  1  0  0  0  0
  8  9  1  0  0  0  0
 11 13  2  0  0  0  0
 12  9  1  0  0  0  0
 12 11  1  0  0  0  0
 13 10  1  0  0  0  0
 14 11  1  0  0  0  0
 15 16  1  0  0  0  0
 16 14  1  1  0  0  0
 17 19  1  0  0  0  0
 17 15  1  0  0  0  0
 18 16  1  0  0  0  0
 19 18  1  0  0  0  0
 21 20  1  0  0  0  0
 22 24  1  0  0  0  0
 22  1  1  1  0  0  0
 22 21  1  0  0  0  0
 23 24  1  0  0  0  0
 23 29  1  0  0  0  0
 23 20  1  1  0  0  0
 26 31  1  0  0  0  0
 27 31  1  0  0  0  0
 28 30  1  0  0  0  0
 29 28  1  1  0  0  0
 29 26  1  0  0  0  0
 30 25  1  6  0  0  0
 30 27  1  0  0  0  0
 33 32  1  0  0  0  0
 34 41  1  6  0  0  0
 34 40  1  0  0  0  0
 35 33  1  1  0  0  0
 35 36  1  0  0  0  0
 37 38  1  0  0  0  0
 37 34  1  0  0  0  0
 38 35  1  0  0  0  0
 39 38  2  0  0  0  0
 40 36  1  0  0  0  0
 42 41  1  0  0  0  0
 42 43  1  0  0  0  0
 43 49  2  1  0  0  0
 43 46  1  0  0  0  0
 44 43  1  0  0  0  0
 44 47  1  0  0  0  0
 45 48  1  0  0  0  0
 45 46  1  0  0  0  0
 47 51  1  6  0  0  0
 47 48  1  0  0  0  0
 50 51  1  0  0  0  0
 51 52  1  0  0  0  0
M  END
>  <MODEL>
8

>  <REMARK>
 VINA RESULT:      -6.6      2.392      3.946
  Name = 
  16 active torsions:
  status: ('A' for Active; 'I' for Inactive)
    1  A    between atoms: O_1  and  O_26
    2  A    between atoms: O_1  and  C_41
    3  A    between atoms: C_3  and  N_8
    4  A    between atoms: C_3  and  C_49
    5  A    between atoms: C_4  and  O_37
    6  A    between atoms: C_6  and  C_22
    7  A    between atoms: C_6  and  C_28
    8  A    between atoms: N_8  and  N_14
    9  A    between atoms: P_13  and  O_21
   10  A    between atoms: N_14  and  N_36
   11  A    between atoms: C_16  and  O_26
   12  A    between atoms: C_18  and  C_41
   13  A    between atoms: O_21  and  O_37
   14  A    between atoms: C_24  and  C_41
   15  A    between atoms: C_25  and  C_40
   16  A    between atoms: C_29  and  C_45
                            x       y       z     vdW  Elec       q    Type
                         _______ _______ _______ _____ _____    ______ ____

>  <TORSDO>
F 16

$$$$
=
 OpenBabel10222417463D

 52 57  0  0  1  0  0  0  0  0999 V2000
  186.1850  176.9620  136.4260 C   0  0  2  0  0  3  0  0  0  0  0  0
  183.7120  175.9020  135.5950 S   0  0  0  0  0  0  0  0  0  0  0  0
  184.0670  176.8190  137.8900 C   0  0  0  0  0  3  0  0  0  0  0  0
  184.7500  176.6190  136.7000 C   0  0  0  0  0  0  0  0  0  0  0  0
  182.3600  175.8220  136.5950 C   0  0  0  0  0  3  0  0  0  0  0  0
  182.7420  176.3690  137.8190 C   0  0  0  0  0  0  0  0  0  0  0  0
  181.7990  176.4980  138.9610 C   0  0  0  0  0  2  0  0  0  0  0  0
  181.0740  177.7550  138.8590 N   0  0  0  0  0  2  0  0  0  0  0  0
  179.9530  177.6450  139.6930 N   0  0  0  0  0  2  0  0  0  0  0  0
  179.7650  180.8770  142.3760 N   0  0  0  0  0  1  0  0  0  0  0  0
  180.3670  178.6390  141.9110 C   0  0  0  0  0  0  0  0  0  0  0  0
  180.4300  177.5370  141.0050 N   0  0  0  0  0  2  0  0  0  0  0  0
  179.8390  179.7630  141.5300 N   0  0  0  0  0  0  0  0  0  0  0  0
  180.9490  178.4800  143.2820 C   0  0  0  0  0  2  0  0  0  0  0  0
  183.2040  178.6230  142.2760 C   0  0  0  0  0  2  0  0  0  0  0  0
  182.3120  179.1500  143.3650 C   0  0  2  0  0  3  0  0  0  0  0  0
  184.4930  178.4230  143.0040 C   0  0  0  0  0  2  0  0  0  0  0  0
  182.9270  178.8530  144.5900 O   0  0  0  0  0  0  0  0  0  0  0  0
  184.2680  178.9180  144.3540 N   0  0  0  0  0  2  0  0  0  0  0  0
  189.2050  175.1950  134.7670 C   0  0  0  0  0  2  0  0  0  0  0  0
  188.3180  176.7720  134.6590 S   0  0  0  0  0  0  0  0  0  0  0  0
  186.8480  176.0080  135.4210 C   0  0  1  0  0  3  0  0  0  0  0  0
  188.1980  174.1420  135.1860 C   0  0  2  0  0  3  0  0  0  0  0  0
  187.2530  174.7790  136.0880 N   0  0  0  0  0  2  0  0  0  0  0  0
  191.5400  174.5550  137.9710 O   0  0  0  0  0  1  0  0  0  0  0  0
  189.8380  172.2160  134.9150 C   0  0  0  0  0  2  0  0  0  0  0  0
  191.8020  173.4340  135.8830 C   0  0  0  0  0  2  0  0  0  0  0  0
  189.6370  173.3790  137.1380 C   0  0  0  0  0  2  0  0  0  0  0  0
  188.8860  172.9530  135.8690 C   0  0  1  0  0  3  0  0  0  0  0  0
  190.8690  174.2190  136.7960 C   0  0  1  0  0  3  0  0  0  0  0  0
  191.0760  173.0570  134.5960 C   0  0  0  0  0  2  0  0  0  0  0  0
  186.9260  177.1170  137.6170 O   0  0  0  0  0  0  0  0  0  0  0  0
  187.6560  178.2100  137.4820 O   0  0  0  0  0  0  0  0  0  0  0  0
  189.1950  176.9470  141.1420 C   0  0  2  0  0  3  0  0  0  0  0  0
  188.2490  178.4020  138.7330 C   0  0  1  0  0  3  0  0  0  0  0  0
  187.3020  177.8870  139.8210 C   0  0  0  0  0  2  0  0  0  0  0  0
  190.2220  177.4660  140.1400 C   0  0  0  0  0  2  0  0  0  0  0  0
  189.5790  177.6890  138.8050 C   0  0  0  0  0  0  0  0  0  0  0  0
  190.1860  177.3910  137.7860 O   0  0  0  0  0  0  0  0  0  0  0  0
  187.9840  177.8750  141.1880 C   0  0  0  0  0  2  0  0  0  0  0  0
  189.7790  176.8660  142.4090 O   0  0  0  0  0  0  0  0  0  0  0  0
  190.6820  177.8270  142.4310 O   0  0  0  0  0  0  0  0  0  0  0  0
  190.6720  178.4180  144.0230 P   0  0  1  0  0  0  0  0  0  0  0  0
  189.1220  178.0960  144.7820 N   0  0  0  0  0  2  0  0  0  0  0  0
  191.2460  176.3500  145.6560 C   0  0  0  0  0  2  0  0  0  0  0  0
  191.9230  177.5500  145.0080 C   0  0  0  0  0  2  0  0  0  0  0  0
  189.3560  178.0270  146.2240 C   0  0  2  0  0  3  0  0  0  0  0  0
  190.1290  176.7570  146.6320 C   0  0  0  0  0  2  0  0  0  0  0  0
  190.9590  179.9020  144.0250 O   0  0  0  0  0  0  0  0  0  0  0  0
  186.9140  177.4930  146.2540 C   0  0  0  0  0  1  0  0  0  0  0  0
  188.0520  178.1470  147.0120 C   0  0  0  0  0  3  0  0  0  0  0  0
  188.1640  177.5380  148.4000 C   0  0  0  0  0  1  0  0  0  0  0  0
  1  4  1  0  0  0  0
  1 32  1  1  0  0  0
  2  5  1  0  0  0  0
  2  4  1  0  0  0  0
  4  3  2  0  0  0  0
  5  6  2  0  0  0  0
  6  3  1  0  0  0  0
  6  7  1  0  0  0  0
  8  7  1  0  0  0  0
  8  9  1  0  0  0  0
  9 12  1  0  0  0  0
 11 14  1  0  0  0  0
 12 11  1  0  0  0  0
 13 11  2  0  0  0  0
 13 10  1  0  0  0  0
 15 17  1  0  0  0  0
 15 16  1  0  0  0  0
 16 14  1  1  0  0  0
 16 18  1  0  0  0  0
 17 19  1  0  0  0  0
 19 18  1  0  0  0  0
 21 20  1  0  0  0  0
 21 22  1  0  0  0  0
 22 24  1  0  0  0  0
 22  1  1  1  0  0  0
 23 20  1  1  0  0  0
 23 29  1  0  0  0  0
 23 24  1  0  0  0  0
 27 30  1  0  0  0  0
 29 26  1  6  0  0  0
 29 28  1  0  0  0  0
 30 28  1  0  0  0  0
 30 25  1  1  0  0  0
 31 26  1  0  0  0  0
 31 27  1  0  0  0  0
 33 32  1  0  0  0  0
 34 40  1  0  0  0  0
 34 41  1  1  0  0  0
 35 33  1  6  0  0  0
 35 38  1  0  0  0  0
 35 36  1  0  0  0  0
 36 40  1  0  0  0  0
 37 34  1  0  0  0  0
 38 37  1  0  0  0  0
 39 38  2  0  0  0  0
 41 42  1  0  0  0  0
 42 43  1  0  0  0  0
 43 49  2  1  0  0  0
 43 44  1  0  0  0  0
 43 46  1  0  0  0  0
 44 47  1  0  0  0  0
 45 48  1  0  0  0  0
 46 45  1  0  0  0  0
 47 48  1  0  0  0  0
 47 51  1  1  0  0  0
 50 51  1  0  0  0  0
 51 52  1  0  0  0  0
M  END
>  <MODEL>
9

>  <REMARK>
 VINA RESULT:      -6.4      3.045      7.308
  Name = 
  16 active torsions:
  status: ('A' for Active; 'I' for Inactive)
    1  A    between atoms: O_1  and  O_26
    2  A    between atoms: O_1  and  C_41
    3  A    between atoms: C_3  and  N_8
    4  A    between atoms: C_3  and  C_49
    5  A    between atoms: C_4  and  O_37
    6  A    between atoms: C_6  and  C_22
    7  A    between atoms: C_6  and  C_28
    8  A    between atoms: N_8  and  N_14
    9  A    between atoms: P_13  and  O_21
   10  A    between atoms: N_14  and  N_36
   11  A    between atoms: C_16  and  O_26
   12  A    between atoms: C_18  and  C_41
   13  A    between atoms: O_21  and  O_37
   14  A    between atoms: C_24  and  C_41
   15  A    between atoms: C_25  and  C_40
   16  A    between atoms: C_29  and  C_45
                            x       y       z     vdW  Elec       q    Type
                         _______ _______ _______ _____ _____    ______ ____

>  <TORSDO>
F 16

$$$$
