=
 OpenBabel10222418233D

 58 63  0  0  1  0  0  0  0  0999 V2000
  184.5450  179.1880  139.8510 C   0  0  0  0  0  0  0  0  0  0  0  0
  185.9730  178.8680  140.0950 C   0  0  1  0  0  3  0  0  0  0  0  0
  184.2110  180.1120  139.1350 O   0  0  0  0  0  0  0  0  0  0  0  0
  185.4360  179.2200  142.5510 C   0  0  2  0  0  3  0  0  0  0  0  0
  184.5810  178.0950  141.9870 C   0  0  1  0  0  3  0  0  0  0  0  0
  183.6550  178.6670  140.9180 C   0  0  2  0  0  3  0  0  0  0  0  0
  186.0090  178.2730  141.5060 C   0  0  1  0  0  3  0  0  0  0  0  0
  186.5120  177.8410  139.0980 C   0  0  2  0  0  3  0  0  0  0  0  0
  187.7620  177.3650  137.2020 C   0  0  2  0  0  3  0  0  0  0  0  0
  188.2100  176.6070  138.3140 O   0  0  0  0  0  0  0  0  0  0  0  0
  187.8300  177.2870  139.4420 N   0  0  0  0  0  0  0  0  0  0  0  0
  185.4220  178.0380  137.0110 O   0  0  0  0  0  1  0  0  0  0  0  0
  186.6320  178.2860  137.6760 C   0  0  1  0  0  3  0  0  0  0  0  0
  187.3920  176.4360  136.0480 C   0  0  0  0  0  2  0  0  0  0  0  0
  187.3100  175.0580  136.5260 N   0  0  0  0  0  2  0  0  0  0  0  0
  188.6610  174.1980  135.8510 S   0  0  0  0  0  0  0  0  0  0  0  0
  189.3380  175.0390  134.8000 O   0  0  0  0  0  0  0  0  0  0  0  0
  188.1740  172.9200  135.2200 O   0  0  0  0  0  0  0  0  0  0  0  0
  189.8200  173.7810  137.1390 C   0  0  0  0  0  2  0  0  0  0  0  0
  191.2090  173.6820  136.5970 C   0  0  0  0  0  0  0  0  0  0  0  0
  191.3790  173.3800  135.3890 O   0  0  0  0  0  0  0  0  0  0  0  0
  192.3370  173.9360  137.3900 O   0  0  0  0  0  0  0  0  0  0  0  0
  194.6780  174.2120  137.9870 C   0  0  0  0  0  1  0  0  0  0  0  0
  193.6150  174.3660  136.9120 C   0  0  2  0  0  3  0  0  0  0  0  0
  193.5480  175.7780  136.3500 C   0  0  0  0  0  2  0  0  0  0  0  0
  195.0110  177.5780  135.5890 N   0  0  0  0  0  1  0  0  0  0  0  0
  194.8310  176.1400  135.6080 C   0  0  0  0  0  2  0  0  0  0  0  0
  188.8550  178.3170  139.6890 C   0  0  0  0  0  2  0  0  0  0  0  0
  190.2480  177.7160  139.8650 C   0  0  0  0  0  2  0  0  0  0  0  0
  190.6160  177.7820  141.2350 O   0  0  0  0  0  0  0  0  0  0  0  0
  190.0470  176.9620  142.2170 C   0  0  0  0  0  3  0  0  0  0  0  0
  190.3220  175.7290  142.2880 O   0  0  0  0  0  0  0  0  0  0  0  0
  186.0250  178.8800  143.9160 C   0  0  0  0  0  2  0  0  0  0  0  0
  184.9600  179.1470  144.9640 C   0  0  0  0  0  2  0  0  0  0  0  0
  185.0900  178.1750  146.1260 C   0  0  0  0  0  2  0  0  0  0  0  0
  189.0850  177.8160  147.6700 C   0  0  0  0  0  3  0  0  0  0  0  0
  188.7630  177.1970  146.4500 C   0  0  0  0  0  0  0  0  0  0  0  0
  188.1260  178.5510  148.3700 C   0  0  0  0  0  3  0  0  0  0  0  0
  187.4610  177.3240  145.9470 C   0  0  0  0  0  3  0  0  0  0  0  0
  186.4990  178.0730  146.6340 C   0  0  0  0  0  0  0  0  0  0  0  0
  186.8340  178.6790  147.8540 C   0  0  0  0  0  3  0  0  0  0  0  0
  189.7000  176.4610  145.7170 O   0  0  0  0  0  0  0  0  0  0  0  0
  191.3990  176.7290  145.8100 P   0  0  0  0  0  0  0  0  0  0  0  0
  192.2300  175.5320  144.9530 O   0  0  0  0  0  0  0  0  0  0  0  0
  191.8430  176.7130  147.2540 O   0  0  0  0  0  1  0  0  0  0  0  0
  191.7520  178.2420  145.1350 O   0  0  0  0  0  1  0  0  0  0  0  0
  182.7120  177.5950  140.4090 C   0  0  0  0  0  2  0  0  0  0  0  0
  180.6940  176.8850  138.4070 N   0  0  0  0  0  0  0  0  0  0  0  0
  179.7100  176.0760  137.7170 C   0  0  0  0  0  2  0  0  0  0  0  0
  180.2370  174.6550  137.6760 C   0  0  0  0  0  2  0  0  0  0  0  0
  182.4640  175.6900  137.2070 C   0  0  0  0  0  2  0  0  0  0  0  0
  181.9640  176.7250  138.1950 C   0  0  0  0  0  0  0  0  0  0  0  0
  182.9170  177.4510  138.9730 N   0  0  0  0  0  2  0  0  0  0  0  0
  181.5100  174.5990  136.9230 N   0  0  1  0  0  0  0  0  0  0  0  0
  183.6930  173.4520  136.5430 C   0  0  2  0  0  3  0  0  0  0  0  0
  182.2580  173.3210  137.0260 C   0  0  2  0  0  3  0  0  0  0  0  0
  182.6730  172.7300  135.6830 C   0  0  0  0  0  2  0  0  0  0  0  0
  184.5440  172.4280  137.2580 C   0  0  0  0  0  1  0  0  0  0  0  0
  1  6  1  0  0  0  0
  2  1  1  6  0  0  0
  2  7  1  0  0  0  0
  3  1  2  0  0  0  0
  4 33  1  1  0  0  0
  5  4  1  0  0  0  0
  6  5  1  0  0  0  0
  7  5  1  0  0  0  0
  7  4  1  0  0  0  0
  8 11  1  0  0  0  0
  8  2  1  0  0  0  0
  9 13  1  0  0  0  0
  9 10  1  0  0  0  0
 10 11  1  0  0  0  0
 11 28  1  0  0  0  0
 12 13  1  0  0  0  0
 13  8  1  0  0  0  0
 14 15  1  0  0  0  0
 14  9  1  0  0  0  0
 16 15  1  0  0  0  0
 16 19  1  0  0  0  0
 17 16  2  0  0  0  0
 18 16  2  0  0  0  0
 20 19  1  0  0  0  0
 20 22  1  0  0  0  0
 21 20  2  0  0  0  0
 24 22  1  0  0  0  0
 24 23  1  0  0  0  0
 25 24  1  0  0  0  0
 26 27  1  0  0  0  0
 27 25  1  0  0  0  0
 28 29  1  0  0  0  0
 29 30  1  0  0  0  0
 30 31  1  0  0  0  0
 31 32  2  0  0  0  0
 33 34  1  0  0  0  0
 34 35  1  0  0  0  0
 35 40  1  0  0  0  0
 36 38  1  0  0  0  0
 37 36  2  0  0  0  0
 39 37  1  0  0  0  0
 39 40  2  0  0  0  0
 40 41  1  0  0  0  0
 41 38  2  0  0  0  0
 42 43  1  0  0  0  0
 42 37  1  0  0  0  0
 43 45  1  0  0  0  0
 44 43  2  0  0  0  0
 46 43  1  0  0  0  0
 47  6  1  0  0  0  0
 49 48  1  0  0  0  0
 50 49  1  0  0  0  0
 51 52  1  0  0  0  0
 52 48  2  0  0  0  0
 52 53  1  0  0  0  0
 53 47  1  0  0  0  0
 54 56  1  0  0  0  0
 54 51  1  0  0  0  0
 54 50  1  0  0  0  0
 55 56  1  0  0  0  0
 55 58  1  0  0  0  0
 57 55  1  0  0  0  0
 57 56  1  0  0  0  0
M  END
>  <MODEL>
1

>  <REMARK>
 VINA RESULT:      -7.1      0.000      0.000
  Name = 
  23 active torsions:
  status: ('A' for Active; 'I' for Inactive)
    1  A    between atoms: C_2  and  C_9
    2  A    between atoms: C_4  and  C_51
    3  A    between atoms: P_5  and  O_49
    4  A    between atoms: N_10  and  S_11
    5  A    between atoms: N_10  and  C_51
    6  A    between atoms: S_11  and  C_15
    7  A    between atoms: C_12  and  O_49
    8  A    between atoms: C_15  and  C_22
    9  A    between atoms: C_16  and  N_30
   10  A    between atoms: C_16  and  C_32
   11  A    between atoms: C_18  and  C_29
   12  A    between atoms: C_18  and  C_48
   13  A    between atoms: C_20  and  O_38
   14  A    between atoms: C_22  and  O_35
   15  A    between atoms: C_24  and  C_42
   16  A    between atoms: C_24  and  C_54
   17  A    between atoms: C_31  and  N_47
   18  A    between atoms: C_32  and  O_38
   19  A    between atoms: C_33  and  C_54
   20  A    between atoms: O_35  and  C_48
   21  A    between atoms: C_42  and  C_55
   22  A    between atoms: N_46  and  C_53
   23  A    between atoms: C_52  and  C_53
                            x       y       z     vdW  Elec       q    Type
                         _______ _______ _______ _____ _____    ______ ____

>  <TORSDO>
F 23

$$$$
=
 OpenBabel10222418233D

 58 63  0  0  1  0  0  0  0  0999 V2000
  188.7930  178.4450  138.6670 C   0  0  0  0  0  0  0  0  0  0  0  0
  189.7310  177.3520  139.0250 C   0  0  1  0  0  3  0  0  0  0  0  0
  189.1460  179.3950  137.9980 O   0  0  0  0  0  0  0  0  0  0  0  0
  189.1900  177.9330  141.4360 C   0  0  2  0  0  3  0  0  0  0  0  0
  187.9230  177.5180  140.7030 C   0  0  1  0  0  3  0  0  0  0  0  0
  187.6390  178.5300  139.5960 C   0  0  2  0  0  3  0  0  0  0  0  0
  189.2390  176.8370  140.3810 C   0  0  1  0  0  3  0  0  0  0  0  0
  189.7030  176.2100  138.0090 C   0  0  2  0  0  3  0  0  0  0  0  0
  190.1630  175.4260  135.8740 C   0  0  2  0  0  3  0  0  0  0  0  0
  190.7700  174.6080  136.8620 O   0  0  0  0  0  0  0  0  0  0  0  0
  190.9150  175.3790  137.9860 N   0  0  0  0  0  0  0  0  0  0  0  0
  188.0770  176.6070  136.3400 O   0  0  0  0  0  1  0  0  0  0  0  0
  189.4590  176.5880  136.5830 C   0  0  1  0  0  3  0  0  0  0  0  0
  189.2630  174.5820  134.9740 C   0  0  0  0  0  2  0  0  0  0  0  0
  189.3430  173.1770  135.3690 N   0  0  0  0  0  2  0  0  0  0  0  0
  187.7470  172.6900  135.8580 S   0  0  0  0  0  0  0  0  0  0  0  0
  187.3930  173.3250  137.1790 O   0  0  0  0  0  0  0  0  0  0  0  0
  187.7060  171.1920  136.0060 O   0  0  0  0  0  0  0  0  0  0  0  0
  186.5610  173.1640  134.6160 C   0  0  0  0  0  2  0  0  0  0  0  0
  185.1740  172.7880  135.0290 C   0  0  0  0  0  0  0  0  0  0  0  0
  184.6830  171.7060  134.6210 O   0  0  0  0  0  0  0  0  0  0  0  0
  184.4050  173.5980  135.8770 O   0  0  0  0  0  0  0  0  0  0  0  0
  184.4090  175.9260  136.5770 C   0  0  0  0  0  1  0  0  0  0  0  0
  183.9140  174.9050  135.5660 C   0  0  2  0  0  3  0  0  0  0  0  0
  182.4000  174.9060  135.4230 C   0  0  0  0  0  2  0  0  0  0  0  0
  181.5200  173.8350  137.4320 N   0  0  0  0  0  1  0  0  0  0  0  0
  181.7860  173.6440  136.0200 C   0  0  0  0  0  2  0  0  0  0  0  0
  192.1570  176.1550  137.8180 C   0  0  0  0  0  2  0  0  0  0  0  0
  193.3530  175.2670  137.4810 C   0  0  0  0  0  2  0  0  0  0  0  0
  194.3990  175.5220  138.4080 O   0  0  0  0  0  0  0  0  0  0  0  0
  195.5200  174.6920  138.5380 C   0  0  0  0  0  3  0  0  0  0  0  0
  196.4100  174.6390  137.6410 O   0  0  0  0  0  0  0  0  0  0  0  0
  189.2960  177.3040  142.8210 C   0  0  0  0  0  2  0  0  0  0  0  0
  187.9350  176.7370  143.1830 C   0  0  0  0  0  2  0  0  0  0  0  0
  187.1460  177.7240  144.0280 C   0  0  0  0  0  2  0  0  0  0  0  0
  188.2280  177.6060  148.1860 C   0  0  0  0  0  3  0  0  0  0  0  0
  188.9910  176.8770  147.2570 C   0  0  0  0  0  0  0  0  0  0  0  0
  187.1370  178.3710  147.7660 C   0  0  0  0  0  3  0  0  0  0  0  0
  188.6390  176.9260  145.9020 C   0  0  0  0  0  3  0  0  0  0  0  0
  187.5580  177.7040  145.4710 C   0  0  0  0  0  0  0  0  0  0  0  0
  186.8010  178.4190  146.4100 C   0  0  0  0  0  3  0  0  0  0  0  0
  190.0940  176.1080  147.6400 O   0  0  0  0  0  0  0  0  0  0  0  0
  191.6860  176.3640  147.0320 P   0  0  0  0  0  0  0  0  0  0  0  0
  192.7670  176.6200  148.3060 O   0  0  0  0  0  1  0  0  0  0  0  0
  191.6980  177.5650  146.1150 O   0  0  0  0  0  0  0  0  0  0  0  0
  192.1660  174.9940  146.1610 O   0  0  0  0  0  1  0  0  0  0  0  0
  186.3250  178.2080  138.9120 C   0  0  0  0  0  2  0  0  0  0  0  0
  183.6980  177.3470  139.8810 N   0  0  0  0  0  0  0  0  0  0  0  0
  182.3540  176.8080  139.8270 C   0  0  0  0  0  2  0  0  0  0  0  0
  181.7050  177.3280  138.5600 C   0  0  0  0  0  2  0  0  0  0  0  0
  182.8250  179.4970  139.0960 C   0  0  0  0  0  2  0  0  0  0  0  0
  183.9410  178.5770  139.5470 C   0  0  0  0  0  0  0  0  0  0  0  0
  185.2880  179.0510  139.4950 N   0  0  0  0  0  2  0  0  0  0  0  0
  181.6220  178.8060  138.5920 N   0  0  1  0  0  0  0  0  0  0  0  0
  180.6460  180.8340  137.5170 C   0  0  2  0  0  3  0  0  0  0  0  0
  181.2450  179.4530  137.3110 C   0  0  2  0  0  3  0  0  0  0  0  0
  179.7460  179.6730  137.1400 C   0  0  0  0  0  2  0  0  0  0  0  0
  180.9110  181.6700  136.2860 C   0  0  0  0  0  1  0  0  0  0  0  0
  1  6  1  0  0  0  0
  2  1  1  6  0  0  0
  2  7  1  0  0  0  0
  3  1  2  0  0  0  0
  4 33  1  1  0  0  0
  5  4  1  0  0  0  0
  6  5  1  0  0  0  0
  7  5  1  0  0  0  0
  7  4  1  0  0  0  0
  8  2  1  0  0  0  0
  9 13  1  0  0  0  0
  9 10  1  0  0  0  0
 10 11  1  0  0  0  0
 11  8  1  0  0  0  0
 12 13  1  0  0  0  0
 13  8  1  0  0  0  0
 14 15  1  0  0  0  0
 14  9  1  0  0  0  0
 15 16  1  0  0  0  0
 16 18  2  0  0  0  0
 16 17  2  0  0  0  0
 19 20  1  0  0  0  0
 19 16  1  0  0  0  0
 20 22  1  0  0  0  0
 21 20  2  0  0  0  0
 24 22  1  0  0  0  0
 24 23  1  0  0  0  0
 25 24  1  0  0  0  0
 25 27  1  0  0  0  0
 27 26  1  0  0  0  0
 28 11  1  0  0  0  0
 29 28  1  0  0  0  0
 29 30  1  0  0  0  0
 30 31  1  0  0  0  0
 32 31  2  0  0  0  0
 33 34  1  0  0  0  0
 34 35  1  0  0  0  0
 35 40  1  0  0  0  0
 37 42  1  0  0  0  0
 37 36  2  0  0  0  0
 38 36  1  0  0  0  0
 39 37  1  0  0  0  0
 40 39  2  0  0  0  0
 40 41  1  0  0  0  0
 41 38  2  0  0  0  0
 43 42  1  0  0  0  0
 43 44  1  0  0  0  0
 45 43  2  0  0  0  0
 46 43  1  0  0  0  0
 47 53  1  0  0  0  0
 47  6  1  0  0  0  0
 49 48  1  0  0  0  0
 50 54  1  0  0  0  0
 50 49  1  0  0  0  0
 51 52  1  0  0  0  0
 52 48  2  0  0  0  0
 53 52  1  0  0  0  0
 54 51  1  0  0  0  0
 56 55  1  0  0  0  0
 56 54  1  0  0  0  0
 57 56  1  0  0  0  0
 57 55  1  0  0  0  0
 58 55  1  0  0  0  0
M  END
>  <MODEL>
2

>  <REMARK>
 VINA RESULT:      -6.9      2.217      5.480
  Name = 
  23 active torsions:
  status: ('A' for Active; 'I' for Inactive)
    1  A    between atoms: C_2  and  C_9
    2  A    between atoms: C_4  and  C_51
    3  A    between atoms: P_5  and  O_49
    4  A    between atoms: N_10  and  S_11
    5  A    between atoms: N_10  and  C_51
    6  A    between atoms: S_11  and  C_15
    7  A    between atoms: C_12  and  O_49
    8  A    between atoms: C_15  and  C_22
    9  A    between atoms: C_16  and  N_30
   10  A    between atoms: C_16  and  C_32
   11  A    between atoms: C_18  and  C_29
   12  A    between atoms: C_18  and  C_48
   13  A    between atoms: C_20  and  O_38
   14  A    between atoms: C_22  and  O_35
   15  A    between atoms: C_24  and  C_42
   16  A    between atoms: C_24  and  C_54
   17  A    between atoms: C_31  and  N_47
   18  A    between atoms: C_32  and  O_38
   19  A    between atoms: C_33  and  C_54
   20  A    between atoms: O_35  and  C_48
   21  A    between atoms: C_42  and  C_55
   22  A    between atoms: N_46  and  C_53
   23  A    between atoms: C_52  and  C_53
                            x       y       z     vdW  Elec       q    Type
                         _______ _______ _______ _____ _____    ______ ____

>  <TORSDO>
F 23

$$$$
=
 OpenBabel10222418233D

 58 63  0  0  1  0  0  0  0  0999 V2000
  183.3400  177.8580  141.2280 C   0  0  0  0  0  0  0  0  0  0  0  0
  182.4690  178.5820  142.1870 C   0  0  1  0  0  3  0  0  0  0  0  0
  183.0250  176.7770  140.7710 O   0  0  0  0  0  0  0  0  0  0  0  0
  184.4540  178.4940  143.7660 C   0  0  2  0  0  3  0  0  0  0  0  0
  184.8290  179.2470  142.4980 C   0  0  1  0  0  3  0  0  0  0  0  0
  184.7580  178.2870  141.3140 C   0  0  2  0  0  3  0  0  0  0  0  0
  183.4310  179.3810  143.0700 C   0  0  1  0  0  3  0  0  0  0  0  0
  181.5100  179.5430  141.4830 C   0  0  2  0  0  3  0  0  0  0  0  0
  179.7670  179.8880  139.9900 C   0  0  2  0  0  3  0  0  0  0  0  0
  179.4620  180.4270  141.2670 O   0  0  0  0  0  0  0  0  0  0  0  0
  180.2330  179.7540  142.1800 N   0  0  0  0  0  0  0  0  0  0  0  0
  182.0750  179.7790  139.2010 O   0  0  0  0  0  1  0  0  0  0  0  0
  181.1380  179.2080  140.0750 C   0  0  1  0  0  3  0  0  0  0  0  0
  179.6530  180.9730  138.9220 C   0  0  0  0  0  2  0  0  0  0  0  0
  179.2010  180.3860  137.6630 N   0  0  0  0  0  2  0  0  0  0  0  0
  179.8920  181.3310  136.3780 S   0  0  0  0  0  0  0  0  0  0  0  0
  181.1870  181.9550  136.8320 O   0  0  0  0  0  0  0  0  0  0  0  0
  178.9310  182.4210  135.9870 O   0  0  0  0  0  0  0  0  0  0  0  0
  180.1800  180.2990  134.9540 C   0  0  0  0  0  2  0  0  0  0  0  0
  180.1810  178.8530  135.3320 C   0  0  0  0  0  0  0  0  0  0  0  0
  179.3730  178.0700  134.7710 O   0  0  0  0  0  0  0  0  0  0  0  0
  181.0730  178.3320  136.2800 O   0  0  0  0  0  0  0  0  0  0  0  0
  182.1740  176.6640  134.8950 C   0  0  0  0  0  1  0  0  0  0  0  0
  182.3260  177.7050  135.9920 C   0  0  2  0  0  3  0  0  0  0  0  0
  182.9640  177.1410  137.2520 C   0  0  0  0  0  2  0  0  0  0  0  0
  182.3990  174.8880  138.0030 N   0  0  0  0  0  1  0  0  0  0  0  0
  183.2490  175.6500  137.1090 C   0  0  0  0  0  2  0  0  0  0  0  0
  179.5240  178.5020  142.5020 C   0  0  0  0  0  2  0  0  0  0  0  0
  178.9330  177.8380  141.2600 C   0  0  0  0  0  2  0  0  0  0  0  0
  179.0500  176.4280  141.3840 O   0  0  0  0  0  0  0  0  0  0  0  0
  179.6950  175.6300  140.4320 C   0  0  0  0  0  3  0  0  0  0  0  0
  179.1910  175.4280  139.2890 O   0  0  0  0  0  0  0  0  0  0  0  0
  184.9500  179.1910  145.0280 C   0  0  0  0  0  2  0  0  0  0  0  0
  186.2020  178.4730  145.4980 C   0  0  0  0  0  2  0  0  0  0  0  0
  186.5630  177.3400  144.5500 C   0  0  0  0  0  2  0  0  0  0  0  0
  190.7890  176.5740  144.4010 C   0  0  0  0  0  3  0  0  0  0  0  0
  190.0100  176.3460  143.2540 C   0  0  0  0  0  0  0  0  0  0  0  0
  190.2040  177.0570  145.5740 C   0  0  0  0  0  3  0  0  0  0  0  0
  188.6340  176.6050  143.3060 C   0  0  0  0  0  3  0  0  0  0  0  0
  188.0430  177.1050  144.4730 C   0  0  0  0  0  0  0  0  0  0  0  0
  188.8330  177.3210  145.6110 C   0  0  0  0  0  3  0  0  0  0  0  0
  190.5620  175.8720  142.0600 O   0  0  0  0  0  0  0  0  0  0  0  0
  190.8320  176.8660  140.6790 P   0  0  0  0  0  0  0  0  0  0  0  0
  190.7070  175.9510  139.2630 O   0  0  0  0  0  0  0  0  0  0  0  0
  192.2070  177.4890  140.7560 O   0  0  0  0  0  1  0  0  0  0  0  0
  189.6660  178.0940  140.6530 O   0  0  0  0  0  1  0  0  0  0  0  0
  185.2300  178.9740  140.0480 C   0  0  0  0  0  2  0  0  0  0  0  0
  186.5880  178.9210  137.4530 N   0  0  0  0  0  0  0  0  0  0  0  0
  186.8680  178.5210  136.0890 C   0  0  0  0  0  2  0  0  0  0  0  0
  186.6710  177.0210  136.0060 C   0  0  0  0  0  2  0  0  0  0  0  0
  187.7830  176.9350  138.2430 C   0  0  0  0  0  2  0  0  0  0  0  0
  186.9930  178.2090  138.4590 C   0  0  0  0  0  0  0  0  0  0  0  0
  186.6030  178.5600  139.7880 N   0  0  0  0  0  2  0  0  0  0  0  0
  187.6170  176.3250  136.9080 N   0  0  1  0  0  0  0  0  0  0  0  0
  187.7320  174.0480  135.8970 C   0  0  2  0  0  3  0  0  0  0  0  0
  187.3580  174.8790  137.1130 C   0  0  2  0  0  3  0  0  0  0  0  0
  186.2710  174.3050  136.2120 C   0  0  0  0  0  2  0  0  0  0  0  0
  188.0950  172.6520  136.3510 C   0  0  0  0  0  1  0  0  0  0  0  0
  1  6  1  0  0  0  0
  2  1  1  6  0  0  0
  2  7  1  0  0  0  0
  3  1  2  0  0  0  0
  4 33  1  1  0  0  0
  5  7  1  0  0  0  0
  5  4  1  0  0  0  0
  6  5  1  0  0  0  0
  7  4  1  0  0  0  0
  8 11  1  0  0  0  0
  8  2  1  0  0  0  0
  9 13  1  0  0  0  0
  9 10  1  0  0  0  0
 10 11  1  0  0  0  0
 11 28  1  0  0  0  0
 12 13  1  0  0  0  0
 13  8  1  0  0  0  0
 14  9  1  0  0  0  0
 15 14  1  0  0  0  0
 16 17  2  0  0  0  0
 16 15  1  0  0  0  0
 18 16  2  0  0  0  0
 19 20  1  0  0  0  0
 19 16  1  0  0  0  0
 20 22  1  0  0  0  0
 21 20  2  0  0  0  0
 23 24  1  0  0  0  0
 24 22  1  0  0  0  0
 24 25  1  0  0  0  0
 27 25  1  0  0  0  0
 27 26  1  0  0  0  0
 29 30  1  0  0  0  0
 29 28  1  0  0  0  0
 31 30  1  0  0  0  0
 32 31  2  0  0  0  0
 33 34  1  0  0  0  0
 35 34  1  0  0  0  0
 36 38  1  0  0  0  0
 37 39  1  0  0  0  0
 37 36  2  0  0  0  0
 38 41  2  0  0  0  0
 39 40  2  0  0  0  0
 40 35  1  0  0  0  0
 40 41  1  0  0  0  0
 42 37  1  0  0  0  0
 43 45  1  0  0  0  0
 43 42  1  0  0  0  0
 44 43  2  0  0  0  0
 46 43  1  0  0  0  0
 47  6  1  0  0  0  0
 48 52  2  0  0  0  0
 49 48  1  0  0  0  0
 50 49  1  0  0  0  0
 50 54  1  0  0  0  0
 51 52  1  0  0  0  0
 52 53  1  0  0  0  0
 53 47  1  0  0  0  0
 54 56  1  0  0  0  0
 54 51  1  0  0  0  0
 55 57  1  0  0  0  0
 55 58  1  0  0  0  0
 55 56  1  0  0  0  0
 57 56  1  0  0  0  0
M  END
>  <MODEL>
3

>  <REMARK>
 VINA RESULT:      -6.1      3.520      7.783
  Name = 
  23 active torsions:
  status: ('A' for Active; 'I' for Inactive)
    1  A    between atoms: C_2  and  C_9
    2  A    between atoms: C_4  and  C_51
    3  A    between atoms: P_5  and  O_49
    4  A    between atoms: N_10  and  S_11
    5  A    between atoms: N_10  and  C_51
    6  A    between atoms: S_11  and  C_15
    7  A    between atoms: C_12  and  O_49
    8  A    between atoms: C_15  and  C_22
    9  A    between atoms: C_16  and  N_30
   10  A    between atoms: C_16  and  C_32
   11  A    between atoms: C_18  and  C_29
   12  A    between atoms: C_18  and  C_48
   13  A    between atoms: C_20  and  O_38
   14  A    between atoms: C_22  and  O_35
   15  A    between atoms: C_24  and  C_42
   16  A    between atoms: C_24  and  C_54
   17  A    between atoms: C_31  and  N_47
   18  A    between atoms: C_32  and  O_38
   19  A    between atoms: C_33  and  C_54
   20  A    between atoms: O_35  and  C_48
   21  A    between atoms: C_42  and  C_55
   22  A    between atoms: N_46  and  C_53
   23  A    between atoms: C_52  and  C_53
                            x       y       z     vdW  Elec       q    Type
                         _______ _______ _______ _____ _____    ______ ____

>  <TORSDO>
F 23

$$$$
=
 OpenBabel10222418233D

 58 63  0  0  1  0  0  0  0  0999 V2000
  185.3400  178.1440  137.7660 C   0  0  0  0  0  0  0  0  0  0  0  0
  184.2580  178.2900  138.7710 C   0  0  1  0  0  3  0  0  0  0  0  0
  185.9920  179.0960  137.3860 O   0  0  0  0  0  0  0  0  0  0  0  0
  182.7350  177.3080  136.9930 C   0  0  2  0  0  3  0  0  0  0  0  0
  183.8400  176.3200  137.3370 C   0  0  1  0  0  3  0  0  0  0  0  0
  185.1830  176.9240  136.9360 C   0  0  2  0  0  3  0  0  0  0  0  0
  183.2450  177.1950  138.4230 C   0  0  1  0  0  3  0  0  0  0  0  0
  184.7620  178.0790  140.1990 C   0  0  2  0  0  3  0  0  0  0  0  0
  185.2890  178.9590  142.2800 C   0  0  2  0  0  3  0  0  0  0  0  0
  184.3510  177.9000  142.3940 O   0  0  0  0  0  0  0  0  0  0  0  0
  183.7090  177.8020  141.1860 N   0  0  0  0  0  0  0  0  0  0  0  0
  186.9280  178.9860  140.4710 O   0  0  0  0  0  1  0  0  0  0  0  0
  185.5770  179.1840  140.7920 C   0  0  1  0  0  3  0  0  0  0  0  0
  186.5190  178.6640  143.1360 C   0  0  0  0  0  2  0  0  0  0  0  0
  186.9560  177.2870  142.9190 N   0  0  0  0  0  2  0  0  0  0  0  0
  188.6880  177.3140  142.7730 S   0  0  0  0  0  0  0  0  0  0  0  0
  189.1950  178.7300  142.8770 O   0  0  0  0  0  0  0  0  0  0  0  0
  189.0860  176.7470  141.4370 O   0  0  0  0  0  0  0  0  0  0  0  0
  189.4210  176.3100  144.0500 C   0  0  0  0  0  2  0  0  0  0  0  0
  189.8360  177.1460  145.2170 C   0  0  0  0  0  0  0  0  0  0  0  0
  190.7460  178.0000  145.0700 O   0  0  0  0  0  0  0  0  0  0  0  0
  189.2250  177.0250  146.4740 O   0  0  0  0  0  0  0  0  0  0  0  0
  188.3820  177.9630  148.5520 C   0  0  0  0  0  1  0  0  0  0  0  0
  188.2820  177.9420  147.0360 C   0  0  2  0  0  3  0  0  0  0  0  0
  186.8710  177.6530  146.5450 C   0  0  0  0  0  2  0  0  0  0  0  0
  184.6650  178.6750  146.3310 N   0  0  0  0  0  1  0  0  0  0  0  0
  185.8660  178.6330  147.1410 C   0  0  0  0  0  2  0  0  0  0  0  0
  182.6290  178.8050  141.1910 C   0  0  0  0  0  2  0  0  0  0  0  0
  181.2440  178.1620  141.1520 C   0  0  0  0  0  2  0  0  0  0  0  0
  180.4100  178.7920  142.1140 O   0  0  0  0  0  0  0  0  0  0  0  0
  179.5760  179.8750  141.8080 C   0  0  0  0  0  3  0  0  0  0  0  0
  179.7750  181.0210  142.3040 O   0  0  0  0  0  0  0  0  0  0  0  0
  181.3670  176.6420  136.8930 C   0  0  0  0  0  2  0  0  0  0  0  0
  181.0500  176.4420  135.4220 C   0  0  0  0  0  2  0  0  0  0  0  0
  179.8060  175.5850  135.2490 C   0  0  0  0  0  2  0  0  0  0  0  0
  180.5360  171.3670  135.6370 C   0  0  0  0  0  3  0  0  0  0  0  0
  181.5340  172.1880  135.0840 C   0  0  0  0  0  0  0  0  0  0  0  0
  179.3250  171.9130  136.0680 C   0  0  0  0  0  3  0  0  0  0  0  0
  181.2940  173.5640  134.9670 C   0  0  0  0  0  3  0  0  0  0  0  0
  180.0890  174.1200  135.4130 C   0  0  0  0  0  0  0  0  0  0  0  0
  179.1010  173.2870  135.9550 C   0  0  0  0  0  3  0  0  0  0  0  0
  182.7630  171.6790  134.6500 O   0  0  0  0  0  0  0  0  0  0  0  0
  184.0710  171.3240  135.7120 P   0  0  0  0  0  0  0  0  0  0  0  0
  184.5750  169.7240  135.5080 O   0  0  0  0  0  1  0  0  0  0  0  0
  183.6410  171.5360  137.1450 O   0  0  0  0  0  1  0  0  0  0  0  0
  185.3600  172.3630  135.3590 O   0  0  0  0  0  0  0  0  0  0  0  0
  186.3000  175.9240  137.1630 C   0  0  0  0  0  2  0  0  0  0  0  0
  188.1530  174.2380  135.6460 N   0  0  0  0  0  0  0  0  0  0  0  0
  189.1570  173.2220  135.4040 C   0  0  0  0  0  2  0  0  0  0  0  0
  190.1680  173.3030  136.5300 C   0  0  0  0  0  2  0  0  0  0  0  0
  189.9330  175.7830  136.3140 C   0  0  0  0  0  2  0  0  0  0  0  0
  188.4830  175.4200  136.0680 C   0  0  0  0  0  0  0  0  0  0  0  0
  187.4680  176.3650  136.4120 N   0  0  0  0  0  2  0  0  0  0  0  0
  190.8280  174.6290  136.5350 N   0  0  1  0  0  0  0  0  0  0  0  0
  192.4620  176.2030  137.5730 C   0  0  2  0  0  3  0  0  0  0  0  0
  191.6480  174.9300  137.7350 C   0  0  2  0  0  3  0  0  0  0  0  0
  193.1520  174.8550  137.4980 C   0  0  0  0  0  2  0  0  0  0  0  0
  192.7050  176.8050  138.9370 C   0  0  0  0  0  1  0  0  0  0  0  0
  2  1  1  6  0  0  0
  2  8  1  0  0  0  0
  3  1  2  0  0  0  0
  4 33  1  1  0  0  0
  4  5  1  0  0  0  0
  4  7  1  0  0  0  0
  5  7  1  0  0  0  0
  6 47  1  0  0  0  0
  6  5  1  0  0  0  0
  6  1  1  0  0  0  0
  7  2  1  0  0  0  0
  8 13  1  0  0  0  0
  8 11  1  0  0  0  0
  9 10  1  0  0  0  0
  9 14  1  0  0  0  0
 11 28  1  0  0  0  0
 11 10  1  0  0  0  0
 12 13  1  0  0  0  0
 13  9  1  0  0  0  0
 15 14  1  0  0  0  0
 16 17  2  0  0  0  0
 16 15  1  0  0  0  0
 16 19  1  0  0  0  0
 18 16  2  0  0  0  0
 19 20  1  0  0  0  0
 20 22  1  0  0  0  0
 21 20  2  0  0  0  0
 22 24  1  0  0  0  0
 24 23  1  0  0  0  0
 25 24  1  0  0  0  0
 25 27  1  0  0  0  0
 26 27  1  0  0  0  0
 29 28  1  0  0  0  0
 29 30  1  0  0  0  0
 31 30  1  0  0  0  0
 31 32  2  0  0  0  0
 34 33  1  0  0  0  0
 35 40  1  0  0  0  0
 35 34  1  0  0  0  0
 36 38  1  0  0  0  0
 37 36  2  0  0  0  0
 39 37  1  0  0  0  0
 39 40  2  0  0  0  0
 40 41  1  0  0  0  0
 41 38  2  0  0  0  0
 42 37  1  0  0  0  0
 42 43  1  0  0  0  0
 43 45  1  0  0  0  0
 44 43  1  0  0  0  0
 46 43  2  0  0  0  0
 48 52  2  0  0  0  0
 49 48  1  0  0  0  0
 49 50  1  0  0  0  0
 50 54  1  0  0  0  0
 51 54  1  0  0  0  0
 52 51  1  0  0  0  0
 52 53  1  0  0  0  0
 53 47  1  0  0  0  0
 54 56  1  0  0  0  0
 55 56  1  0  0  0  0
 55 58  1  0  0  0  0
 57 55  1  0  0  0  0
 57 56  1  0  0  0  0
M  END
>  <MODEL>
4

>  <REMARK>
 VINA RESULT:      -6.1      3.334      9.989
  Name = 
  23 active torsions:
  status: ('A' for Active; 'I' for Inactive)
    1  A    between atoms: C_2  and  C_9
    2  A    between atoms: C_4  and  C_51
    3  A    between atoms: P_5  and  O_49
    4  A    between atoms: N_10  and  S_11
    5  A    between atoms: N_10  and  C_51
    6  A    between atoms: S_11  and  C_15
    7  A    between atoms: C_12  and  O_49
    8  A    between atoms: C_15  and  C_22
    9  A    between atoms: C_16  and  N_30
   10  A    between atoms: C_16  and  C_32
   11  A    between atoms: C_18  and  C_29
   12  A    between atoms: C_18  and  C_48
   13  A    between atoms: C_20  and  O_38
   14  A    between atoms: C_22  and  O_35
   15  A    between atoms: C_24  and  C_42
   16  A    between atoms: C_24  and  C_54
   17  A    between atoms: C_31  and  N_47
   18  A    between atoms: C_32  and  O_38
   19  A    between atoms: C_33  and  C_54
   20  A    between atoms: O_35  and  C_48
   21  A    between atoms: C_42  and  C_55
   22  A    between atoms: N_46  and  C_53
   23  A    between atoms: C_52  and  C_53
                            x       y       z     vdW  Elec       q    Type
                         _______ _______ _______ _____ _____    ______ ____

>  <TORSDO>
F 23

$$$$
=
 OpenBabel10222418233D

 58 63  0  0  1  0  0  0  0  0999 V2000
  188.9480  177.0220  139.4350 C   0  0  0  0  0  0  0  0  0  0  0  0
  189.8400  176.6720  140.5680 C   0  0  1  0  0  3  0  0  0  0  0  0
  187.9590  176.3660  139.1750 O   0  0  0  0  0  0  0  0  0  0  0  0
  191.6770  176.5040  138.8240 C   0  0  2  0  0  3  0  0  0  0  0  0
  191.0960  177.9100  138.8360 C   0  0  1  0  0  3  0  0  0  0  0  0
  189.6330  177.8440  138.4060 C   0  0  2  0  0  3  0  0  0  0  0  0
  191.2330  177.1390  140.1340 C   0  0  1  0  0  3  0  0  0  0  0  0
  189.4440  177.3910  141.8580 C   0  0  2  0  0  3  0  0  0  0  0  0
  188.4430  177.3300  143.9510 C   0  0  2  0  0  3  0  0  0  0  0  0
  189.7820  177.7930  144.0360 O   0  0  0  0  0  0  0  0  0  0  0  0
  190.4430  177.3150  142.9350 N   0  0  0  0  0  0  0  0  0  0  0  0
  187.1070  177.7360  141.9480 O   0  0  0  0  0  1  0  0  0  0  0  0
  188.1540  176.9740  142.4890 C   0  0  1  0  0  3  0  0  0  0  0  0
  187.4930  178.3570  144.5630 C   0  0  0  0  0  2  0  0  0  0  0  0
  186.4360  177.6750  145.3070 N   0  0  0  0  0  2  0  0  0  0  0  0
  185.3170  178.8920  145.8420 S   0  0  0  0  0  0  0  0  0  0  0  0
  186.0120  179.8700  146.7560 O   0  0  0  0  0  0  0  0  0  0  0  0
  184.1870  178.2370  146.5910 O   0  0  0  0  0  0  0  0  0  0  0  0
  184.6360  179.7500  144.4370 C   0  0  0  0  0  2  0  0  0  0  0  0
  183.7490  178.8500  143.6380 C   0  0  0  0  0  0  0  0  0  0  0  0
  184.2620  178.0660  142.8010 O   0  0  0  0  0  0  0  0  0  0  0  0
  182.3570  178.8360  143.8070 O   0  0  0  0  0  0  0  0  0  0  0  0
  180.1450  179.8130  143.5620 C   0  0  0  0  0  1  0  0  0  0  0  0
  181.3960  179.3110  142.8610 C   0  0  2  0  0  3  0  0  0  0  0  0
  181.0940  178.2580  141.8050 C   0  0  0  0  0  2  0  0  0  0  0  0
  182.4860  177.5700  139.9220 N   0  0  0  0  0  1  0  0  0  0  0  0
  181.6770  178.6500  140.4510 C   0  0  0  0  0  2  0  0  0  0  0  0
  190.8630  175.9380  143.2490 C   0  0  0  0  0  2  0  0  0  0  0  0
  192.0470  175.9010  144.2130 C   0  0  0  0  0  2  0  0  0  0  0  0
  191.5800  175.5750  145.5150 O   0  0  0  0  0  0  0  0  0  0  0  0
  191.8150  176.3830  146.6340 C   0  0  0  0  0  3  0  0  0  0  0  0
  192.4110  175.9370  147.6570 O   0  0  0  0  0  0  0  0  0  0  0  0
  193.2000  176.5010  138.7570 C   0  0  0  0  0  2  0  0  0  0  0  0
  193.6040  176.2310  137.3180 C   0  0  0  0  0  2  0  0  0  0  0  0
  192.4340  175.6700  136.5250 C   0  0  0  0  0  2  0  0  0  0  0  0
  192.9410  171.5480  135.4190 C   0  0  0  0  0  3  0  0  0  0  0  0
  194.0460  172.2700  135.8990 C   0  0  0  0  0  0  0  0  0  0  0  0
  191.6870  172.1540  135.3120 C   0  0  0  0  0  3  0  0  0  0  0  0
  193.8740  173.6120  136.2660 C   0  0  0  0  0  3  0  0  0  0  0  0
  192.6170  174.2210  136.1780 C   0  0  0  0  0  0  0  0  0  0  0  0
  191.5250  173.4890  135.6910 C   0  0  0  0  0  3  0  0  0  0  0  0
  195.3150  171.6940  136.0270 O   0  0  0  0  0  0  0  0  0  0  0  0
  196.3020  171.8770  137.4270 P   0  0  0  0  0  0  0  0  0  0  0  0
  197.3220  170.5410  137.6050 O   0  0  0  0  0  1  0  0  0  0  0  0
  195.4320  172.0120  138.6550 O   0  0  0  0  0  1  0  0  0  0  0  0
  197.2420  173.2750  137.2530 O   0  0  0  0  0  0  0  0  0  0  0  0
  189.0500  179.2390  138.3020 C   0  0  0  0  0  2  0  0  0  0  0  0
  186.2600  178.6290  137.6520 N   0  0  0  0  0  0  0  0  0  0  0  0
  185.0650  177.8300  137.4670 C   0  0  0  0  0  2  0  0  0  0  0  0
  185.4870  176.5170  136.8410 C   0  0  0  0  0  2  0  0  0  0  0  0
  187.0470  177.8920  135.4530 C   0  0  0  0  0  2  0  0  0  0  0  0
  187.1860  178.6710  136.7450 C   0  0  0  0  0  0  0  0  0  0  0  0
  188.4060  179.3690  137.0010 N   0  0  0  0  0  2  0  0  0  0  0  0
  186.1100  176.7530  135.5180 N   0  0  1  0  0  0  0  0  0  0  0  0
  186.8510  174.3960  135.8650 C   0  0  2  0  0  3  0  0  0  0  0  0
  186.7950  175.5820  134.9170 C   0  0  2  0  0  3  0  0  0  0  0  0
  188.1050  175.2060  135.5990 C   0  0  0  0  0  2  0  0  0  0  0  0
  186.9070  173.1230  135.0530 C   0  0  0  0  0  1  0  0  0  0  0  0
  2  1  1  6  0  0  0
  2  8  1  0  0  0  0
  3  1  2  0  0  0  0
  4 33  1  1  0  0  0
  4  5  1  0  0  0  0
  4  7  1  0  0  0  0
  5  7  1  0  0  0  0
  6  5  1  0  0  0  0
  6  1  1  0  0  0  0
  7  2  1  0  0  0  0
  8 13  1  0  0  0  0
  8 11  1  0  0  0  0
  9 10  1  0  0  0  0
  9 14  1  0  0  0  0
 11 28  1  0  0  0  0
 11 10  1  0  0  0  0
 12 13  1  0  0  0  0
 13  9  1  0  0  0  0
 14 15  1  0  0  0  0
 15 16  1  0  0  0  0
 16 18  2  0  0  0  0
 16 17  2  0  0  0  0
 19 16  1  0  0  0  0
 20 22  1  0  0  0  0
 20 19  1  0  0  0  0
 21 20  2  0  0  0  0
 24 23  1  0  0  0  0
 24 22  1  0  0  0  0
 25 24  1  0  0  0  0
 26 27  1  0  0  0  0
 27 25  1  0  0  0  0
 28 29  1  0  0  0  0
 29 30  1  0  0  0  0
 30 31  1  0  0  0  0
 31 32  2  0  0  0  0
 34 33  1  0  0  0  0
 35 34  1  0  0  0  0
 36 37  1  0  0  0  0
 37 42  1  0  0  0  0
 37 39  2  0  0  0  0
 38 36  2  0  0  0  0
 38 41  1  0  0  0  0
 40 39  1  0  0  0  0
 40 35  1  0  0  0  0
 41 40  2  0  0  0  0
 42 43  1  0  0  0  0
 43 44  1  0  0  0  0
 43 45  1  0  0  0  0
 46 43  2  0  0  0  0
 47  6  1  0  0  0  0
 49 48  1  0  0  0  0
 50 49  1  0  0  0  0
 51 54  1  0  0  0  0
 51 52  1  0  0  0  0
 52 53  1  0  0  0  0
 52 48  2  0  0  0  0
 53 47  1  0  0  0  0
 54 50  1  0  0  0  0
 56 54  1  0  0  0  0
 56 57  1  0  0  0  0
 56 55  1  0  0  0  0
 57 55  1  0  0  0  0
 58 55  1  0  0  0  0
M  END
>  <MODEL>
5

>  <REMARK>
 VINA RESULT:      -5.9      3.563      9.496
  Name = 
  23 active torsions:
  status: ('A' for Active; 'I' for Inactive)
    1  A    between atoms: C_2  and  C_9
    2  A    between atoms: C_4  and  C_51
    3  A    between atoms: P_5  and  O_49
    4  A    between atoms: N_10  and  S_11
    5  A    between atoms: N_10  and  C_51
    6  A    between atoms: S_11  and  C_15
    7  A    between atoms: C_12  and  O_49
    8  A    between atoms: C_15  and  C_22
    9  A    between atoms: C_16  and  N_30
   10  A    between atoms: C_16  and  C_32
   11  A    between atoms: C_18  and  C_29
   12  A    between atoms: C_18  and  C_48
   13  A    between atoms: C_20  and  O_38
   14  A    between atoms: C_22  and  O_35
   15  A    between atoms: C_24  and  C_42
   16  A    between atoms: C_24  and  C_54
   17  A    between atoms: C_31  and  N_47
   18  A    between atoms: C_32  and  O_38
   19  A    between atoms: C_33  and  C_54
   20  A    between atoms: O_35  and  C_48
   21  A    between atoms: C_42  and  C_55
   22  A    between atoms: N_46  and  C_53
   23  A    between atoms: C_52  and  C_53
                            x       y       z     vdW  Elec       q    Type
                         _______ _______ _______ _____ _____    ______ ____

>  <TORSDO>
F 23

$$$$
=
 OpenBabel10222418233D

 58 63  0  0  1  0  0  0  0  0999 V2000
  188.9730  177.1140  136.5490 C   0  0  0  0  0  0  0  0  0  0  0  0
  187.9720  177.3180  137.6250 C   0  0  1  0  0  3  0  0  0  0  0  0
  189.7090  178.0090  136.1840 O   0  0  0  0  0  0  0  0  0  0  0  0
  186.2490  176.6300  135.8930 C   0  0  2  0  0  3  0  0  0  0  0  0
  187.2490  175.5040  136.1100 C   0  0  1  0  0  3  0  0  0  0  0  0
  188.6290  175.9750  135.6620 C   0  0  2  0  0  3  0  0  0  0  0  0
  186.8200  176.3690  137.2790 C   0  0  1  0  0  3  0  0  0  0  0  0
  188.5260  176.9610  139.0050 C   0  0  2  0  0  3  0  0  0  0  0  0
  189.7450  177.5660  140.8850 C   0  0  2  0  0  3  0  0  0  0  0  0
  188.4370  177.1410  141.2360 O   0  0  0  0  0  0  0  0  0  0  0  0
  187.6480  177.3150  140.1290 N   0  0  0  0  0  0  0  0  0  0  0  0
  190.8680  176.6510  138.9190 O   0  0  0  0  0  1  0  0  0  0  0  0
  189.8640  177.5280  139.3570 C   0  0  1  0  0  3  0  0  0  0  0  0
  190.7850  176.7340  141.6320 C   0  0  0  0  0  2  0  0  0  0  0  0
  191.7250  177.6150  142.3210 N   0  0  0  0  0  2  0  0  0  0  0  0
  191.3010  177.6000  144.0070 S   0  0  0  0  0  0  0  0  0  0  0  0
  192.2850  178.4250  144.7960 O   0  0  0  0  0  0  0  0  0  0  0  0
  191.3290  176.1830  144.5160 O   0  0  0  0  0  0  0  0  0  0  0  0
  189.6540  178.2420  144.2250 C   0  0  0  0  0  2  0  0  0  0  0  0
  189.0730  177.7980  145.5290 C   0  0  0  0  0  0  0  0  0  0  0  0
  189.8210  177.7030  146.5350 O   0  0  0  0  0  0  0  0  0  0  0  0
  187.7110  177.5010  145.6740 O   0  0  0  0  0  0  0  0  0  0  0  0
  186.0850  178.4080  147.2380 C   0  0  0  0  0  1  0  0  0  0  0  0
  186.6600  178.4590  145.8320 C   0  0  2  0  0  3  0  0  0  0  0  0
  185.5960  178.2940  144.7570 C   0  0  0  0  0  2  0  0  0  0  0  0
  183.5370  179.5110  144.2710 N   0  0  0  0  0  1  0  0  0  0  0  0
  184.2220  178.7130  145.2690 C   0  0  0  0  0  2  0  0  0  0  0  0
  187.2240  178.7270  140.1210 C   0  0  0  0  0  2  0  0  0  0  0  0
  186.0850  178.9940  141.1030 C   0  0  0  0  0  2  0  0  0  0  0  0
  184.9490  179.4570  140.3870 O   0  0  0  0  0  0  0  0  0  0  0  0
  183.9070  178.6130  139.9840 C   0  0  0  0  0  3  0  0  0  0  0  0
  182.8600  178.4770  140.6810 O   0  0  0  0  0  0  0  0  0  0  0  0
  184.8090  176.1310  135.8400 C   0  0  0  0  0  2  0  0  0  0  0  0
  183.9000  177.2830  136.2330 C   0  0  0  0  0  2  0  0  0  0  0  0
  182.4580  176.9860  135.8540 C   0  0  0  0  0  2  0  0  0  0  0  0
  179.9200  176.9910  139.3230 C   0  0  0  0  0  3  0  0  0  0  0  0
  180.0380  178.1640  138.5570 C   0  0  0  0  0  0  0  0  0  0  0  0
  180.6080  175.8310  138.9580 C   0  0  0  0  0  3  0  0  0  0  0  0
  180.8600  178.1540  137.4220 C   0  0  0  0  0  3  0  0  0  0  0  0
  181.5390  176.9910  137.0410 C   0  0  0  0  0  0  0  0  0  0  0  0
  181.4180  175.8310  137.8200 C   0  0  0  0  0  3  0  0  0  0  0  0
  179.3580  179.3410  138.8860 O   0  0  0  0  0  0  0  0  0  0  0  0
  180.1330  180.7310  139.5460 P   0  0  0  0  0  0  0  0  0  0  0  0
  180.4130  180.5180  141.2000 O   0  0  0  0  0  1  0  0  0  0  0  0
  179.2650  181.9500  139.3370 O   0  0  0  0  0  1  0  0  0  0  0  0
  181.6130  180.9590  138.7550 O   0  0  0  0  0  0  0  0  0  0  0  0
  189.6320  174.8430  135.7620 C   0  0  0  0  0  2  0  0  0  0  0  0
  191.9670  173.4490  134.6740 N   0  0  0  0  0  0  0  0  0  0  0  0
  193.0370  172.4760  134.5950 C   0  0  0  0  0  2  0  0  0  0  0  0
  193.5970  172.3010  135.9930 C   0  0  0  0  0  2  0  0  0  0  0  0
  193.3380  174.7780  136.2080 C   0  0  0  0  0  2  0  0  0  0  0  0
  192.0780  174.5120  135.4100 C   0  0  0  0  0  0  0  0  0  0  0  0
  190.9660  175.3950  135.5640 N   0  0  0  0  0  2  0  0  0  0  0  0
  194.1540  173.5800  136.4890 N   0  0  1  0  0  0  0  0  0  0  0  0
  195.8530  174.2500  138.1890 C   0  0  2  0  0  3  0  0  0  0  0  0
  194.4980  173.6090  137.9320 C   0  0  2  0  0  3  0  0  0  0  0  0
  195.6980  172.7460  138.3060 C   0  0  0  0  0  2  0  0  0  0  0  0
  195.8530  174.8530  139.5750 C   0  0  0  0  0  1  0  0  0  0  0  0
  2  1  1  6  0  0  0
  2  8  1  0  0  0  0
  3  1  2  0  0  0  0
  4 33  1  1  0  0  0
  4  5  1  0  0  0  0
  4  7  1  0  0  0  0
  5  7  1  0  0  0  0
  6 47  1  0  0  0  0
  6  5  1  0  0  0  0
  6  1  1  0  0  0  0
  7  2  1  0  0  0  0
  8 13  1  0  0  0  0
  8 11  1  0  0  0  0
  9 10  1  0  0  0  0
  9 14  1  0  0  0  0
 11 10  1  0  0  0  0
 12 13  1  0  0  0  0
 13  9  1  0  0  0  0
 14 15  1  0  0  0  0
 15 16  1  0  0  0  0
 16 19  1  0  0  0  0
 16 18  2  0  0  0  0
 16 17  2  0  0  0  0
 19 20  1  0  0  0  0
 20 22  1  0  0  0  0
 20 21  2  0  0  0  0
 22 24  1  0  0  0  0
 24 23  1  0  0  0  0
 25 27  1  0  0  0  0
 25 24  1  0  0  0  0
 26 27  1  0  0  0  0
 28 11  1  0  0  0  0
 28 29  1  0  0  0  0
 30 29  1  0  0  0  0
 31 30  1  0  0  0  0
 31 32  2  0  0  0  0
 33 34  1  0  0  0  0
 35 34  1  0  0  0  0
 35 40  1  0  0  0  0
 37 42  1  0  0  0  0
 37 36  2  0  0  0  0
 38 36  1  0  0  0  0
 39 37  1  0  0  0  0
 40 39  2  0  0  0  0
 40 41  1  0  0  0  0
 41 38  2  0  0  0  0
 42 43  1  0  0  0  0
 43 44  1  0  0  0  0
 45 43  1  0  0  0  0
 46 43  2  0  0  0  0
 48 52  2  0  0  0  0
 49 48  1  0  0  0  0
 49 50  1  0  0  0  0
 50 54  1  0  0  0  0
 51 54  1  0  0  0  0
 52 53  1  0  0  0  0
 52 51  1  0  0  0  0
 53 47  1  0  0  0  0
 54 56  1  0  0  0  0
 55 57  1  0  0  0  0
 55 58  1  0  0  0  0
 56 55  1  0  0  0  0
 56 57  1  0  0  0  0
M  END
>  <MODEL>
6

>  <REMARK>
 VINA RESULT:      -5.9      3.366     10.141
  Name = 
  23 active torsions:
  status: ('A' for Active; 'I' for Inactive)
    1  A    between atoms: C_2  and  C_9
    2  A    between atoms: C_4  and  C_51
    3  A    between atoms: P_5  and  O_49
    4  A    between atoms: N_10  and  S_11
    5  A    between atoms: N_10  and  C_51
    6  A    between atoms: S_11  and  C_15
    7  A    between atoms: C_12  and  O_49
    8  A    between atoms: C_15  and  C_22
    9  A    between atoms: C_16  and  N_30
   10  A    between atoms: C_16  and  C_32
   11  A    between atoms: C_18  and  C_29
   12  A    between atoms: C_18  and  C_48
   13  A    between atoms: C_20  and  O_38
   14  A    between atoms: C_22  and  O_35
   15  A    between atoms: C_24  and  C_42
   16  A    between atoms: C_24  and  C_54
   17  A    between atoms: C_31  and  N_47
   18  A    between atoms: C_32  and  O_38
   19  A    between atoms: C_33  and  C_54
   20  A    between atoms: O_35  and  C_48
   21  A    between atoms: C_42  and  C_55
   22  A    between atoms: N_46  and  C_53
   23  A    between atoms: C_52  and  C_53
                            x       y       z     vdW  Elec       q    Type
                         _______ _______ _______ _____ _____    ______ ____

>  <TORSDO>
F 23

$$$$
=
 OpenBabel10222418233D

 58 63  0  0  1  0  0  0  0  0999 V2000
  183.3530  177.9440  141.0580 C   0  0  0  0  0  0  0  0  0  0  0  0
  182.6120  178.6780  142.1140 C   0  0  1  0  0  3  0  0  0  0  0  0
  182.8990  176.9450  140.5360 O   0  0  0  0  0  0  0  0  0  0  0  0
  184.6440  178.2470  143.5740 C   0  0  2  0  0  3  0  0  0  0  0  0
  185.0440  179.0550  142.3480 C   0  0  1  0  0  3  0  0  0  0  0  0
  184.8130  178.2080  141.1000 C   0  0  2  0  0  3  0  0  0  0  0  0
  183.6970  179.2930  143.0030 C   0  0  1  0  0  3  0  0  0  0  0  0
  181.7370  179.7920  141.5380 C   0  0  2  0  0  3  0  0  0  0  0  0
  179.9610  180.4420  140.1940 C   0  0  2  0  0  3  0  0  0  0  0  0
  179.8040  180.9250  141.5190 O   0  0  0  0  0  0  0  0  0  0  0  0
  180.5410  180.1050  142.3340 N   0  0  0  0  0  0  0  0  0  0  0  0
  182.1840  180.1130  139.2400 O   0  0  0  0  0  1  0  0  0  0  0  0
  181.2400  179.5990  140.1410 C   0  0  1  0  0  3  0  0  0  0  0  0
  179.9140  181.6030  139.2030 C   0  0  0  0  0  2  0  0  0  0  0  0
  179.4160  181.1350  137.9120 N   0  0  0  0  0  2  0  0  0  0  0  0
  180.1640  182.1160  136.6870 S   0  0  0  0  0  0  0  0  0  0  0  0
  181.5350  182.5510  137.1360 O   0  0  0  0  0  0  0  0  0  0  0  0
  179.3170  183.3360  136.4380 O   0  0  0  0  0  0  0  0  0  0  0  0
  180.2850  181.1970  135.1640 C   0  0  0  0  0  2  0  0  0  0  0  0
  180.1940  179.7270  135.4170 C   0  0  0  0  0  0  0  0  0  0  0  0
  179.3420  179.0470  134.7930 O   0  0  0  0  0  0  0  0  0  0  0  0
  181.0480  179.0720  136.3170 O   0  0  0  0  0  0  0  0  0  0  0  0
  182.3140  177.9150  134.5940 C   0  0  0  0  0  1  0  0  0  0  0  0
  182.3200  178.5010  135.9960 C   0  0  2  0  0  3  0  0  0  0  0  0
  182.7560  177.4960  137.0500 C   0  0  0  0  0  2  0  0  0  0  0  0
  180.8100  176.1820  137.7180 N   0  0  0  0  0  1  0  0  0  0  0  0
  182.0070  176.1760  136.9000 C   0  0  0  0  0  2  0  0  0  0  0  0
  179.7060  178.9280  142.6290 C   0  0  0  0  0  2  0  0  0  0  0  0
  179.5740  177.9970  141.4250 C   0  0  0  0  0  2  0  0  0  0  0  0
  179.3270  176.6740  141.8810 O   0  0  0  0  0  0  0  0  0  0  0  0
  178.9310  175.6360  141.0290 C   0  0  0  0  0  3  0  0  0  0  0  0
  179.7580  174.7720  140.6150 O   0  0  0  0  0  0  0  0  0  0  0  0
  185.2700  178.7800  144.8570 C   0  0  0  0  0  2  0  0  0  0  0  0
  186.4980  177.9410  145.1630 C   0  0  0  0  0  2  0  0  0  0  0  0
  186.8450  177.0440  143.9850 C   0  0  0  0  0  2  0  0  0  0  0  0
  191.0830  176.5080  143.5060 C   0  0  0  0  0  3  0  0  0  0  0  0
  190.5880  177.0090  144.7210 C   0  0  0  0  0  0  0  0  0  0  0  0
  190.2110  176.1740  142.4660 C   0  0  0  0  0  3  0  0  0  0  0  0
  189.2050  177.1750  144.8750 C   0  0  0  0  0  3  0  0  0  0  0  0
  188.3240  176.8270  143.8450 C   0  0  0  0  0  0  0  0  0  0  0  0
  188.8340  176.3340  142.6350 C   0  0  0  0  0  3  0  0  0  0  0  0
  191.4300  177.3460  145.7870 O   0  0  0  0  0  0  0  0  0  0  0  0
  191.2970  176.6480  147.3570 P   0  0  0  0  0  0  0  0  0  0  0  0
  191.9270  177.7000  148.5210 O   0  0  0  0  0  1  0  0  0  0  0  0
  192.0510  175.3400  147.4020 O   0  0  0  0  0  0  0  0  0  0  0  0
  189.6630  176.3610  147.6920 O   0  0  0  0  0  1  0  0  0  0  0  0
  185.3010  178.9420  139.8670 C   0  0  0  0  0  2  0  0  0  0  0  0
  186.6380  179.0100  137.2610 N   0  0  0  0  0  0  0  0  0  0  0  0
  186.8880  178.6980  135.8690 C   0  0  0  0  0  2  0  0  0  0  0  0
  186.6100  177.2210  135.6760 C   0  0  0  0  0  2  0  0  0  0  0  0
  187.7300  176.9100  137.8890 C   0  0  0  0  0  2  0  0  0  0  0  0
  187.0110  178.2050  138.2080 C   0  0  0  0  0  0  0  0  0  0  0  0
  186.6480  178.4760  139.5630 N   0  0  0  0  0  2  0  0  0  0  0  0
  187.5220  176.4110  136.5150 N   0  0  1  0  0  0  0  0  0  0  0  0
  188.4060  174.0800  136.4310 C   0  0  2  0  0  3  0  0  0  0  0  0
  187.1880  174.9690  136.6150 C   0  0  2  0  0  3  0  0  0  0  0  0
  187.3810  174.1910  135.3190 C   0  0  0  0  0  2  0  0  0  0  0  0
  188.1830  172.7840  137.1760 C   0  0  0  0  0  1  0  0  0  0  0  0
  1  6  1  0  0  0  0
  2  1  1  6  0  0  0
  2  7  1  0  0  0  0
  3  1  2  0  0  0  0
  4 33  1  1  0  0  0
  5  7  1  0  0  0  0
  5  4  1  0  0  0  0
  6  5  1  0  0  0  0
  7  4  1  0  0  0  0
  8  2  1  0  0  0  0
  8 11  1  0  0  0  0
  9 10  1  0  0  0  0
 10 11  1  0  0  0  0
 11 28  1  0  0  0  0
 12 13  1  0  0  0  0
 13  9  1  0  0  0  0
 13  8  1  0  0  0  0
 14  9  1  0  0  0  0
 15 14  1  0  0  0  0
 16 17  2  0  0  0  0
 16 15  1  0  0  0  0
 18 16  2  0  0  0  0
 19 20  1  0  0  0  0
 19 16  1  0  0  0  0
 20 22  1  0  0  0  0
 21 20  2  0  0  0  0
 23 24  1  0  0  0  0
 24 22  1  0  0  0  0
 24 25  1  0  0  0  0
 27 25  1  0  0  0  0
 27 26  1  0  0  0  0
 29 30  1  0  0  0  0
 29 28  1  0  0  0  0
 31 30  1  0  0  0  0
 32 31  2  0  0  0  0
 33 34  1  0  0  0  0
 35 34  1  0  0  0  0
 36 37  1  0  0  0  0
 37 39  2  0  0  0  0
 37 42  1  0  0  0  0
 38 41  1  0  0  0  0
 38 36  2  0  0  0  0
 40 35  1  0  0  0  0
 40 39  1  0  0  0  0
 41 40  2  0  0  0  0
 42 43  1  0  0  0  0
 43 45  2  0  0  0  0
 43 46  1  0  0  0  0
 43 44  1  0  0  0  0
 47  6  1  0  0  0  0
 48 52  2  0  0  0  0
 49 48  1  0  0  0  0
 50 49  1  0  0  0  0
 50 54  1  0  0  0  0
 51 52  1  0  0  0  0
 52 53  1  0  0  0  0
 53 47  1  0  0  0  0
 54 56  1  0  0  0  0
 54 51  1  0  0  0  0
 55 56  1  0  0  0  0
 55 58  1  0  0  0  0
 57 55  1  0  0  0  0
 57 56  1  0  0  0  0
M  END
>  <MODEL>
7

>  <REMARK>
 VINA RESULT:      -5.8      4.035      7.890
  Name = 
  23 active torsions:
  status: ('A' for Active; 'I' for Inactive)
    1  A    between atoms: C_2  and  C_9
    2  A    between atoms: C_4  and  C_51
    3  A    between atoms: P_5  and  O_49
    4  A    between atoms: N_10  and  S_11
    5  A    between atoms: N_10  and  C_51
    6  A    between atoms: S_11  and  C_15
    7  A    between atoms: C_12  and  O_49
    8  A    between atoms: C_15  and  C_22
    9  A    between atoms: C_16  and  N_30
   10  A    between atoms: C_16  and  C_32
   11  A    between atoms: C_18  and  C_29
   12  A    between atoms: C_18  and  C_48
   13  A    between atoms: C_20  and  O_38
   14  A    between atoms: C_22  and  O_35
   15  A    between atoms: C_24  and  C_42
   16  A    between atoms: C_24  and  C_54
   17  A    between atoms: C_31  and  N_47
   18  A    between atoms: C_32  and  O_38
   19  A    between atoms: C_33  and  C_54
   20  A    between atoms: O_35  and  C_48
   21  A    between atoms: C_42  and  C_55
   22  A    between atoms: N_46  and  C_53
   23  A    between atoms: C_52  and  C_53
                            x       y       z     vdW  Elec       q    Type
                         _______ _______ _______ _____ _____    ______ ____

>  <TORSDO>
F 23

$$$$
=
 OpenBabel10222418233D

 58 63  0  0  1  0  0  0  0  0999 V2000
  188.4760  176.3840  142.8220 C   0  0  0  0  0  0  0  0  0  0  0  0
  189.1790  177.1400  143.8880 C   0  0  1  0  0  3  0  0  0  0  0  0
  188.0360  175.2680  143.0160 O   0  0  0  0  0  0  0  0  0  0  0  0
  191.1430  177.2090  142.2810 C   0  0  2  0  0  3  0  0  0  0  0  0
  189.9350  177.8920  141.6570 C   0  0  1  0  0  3  0  0  0  0  0  0
  188.8300  176.8580  141.4610 C   0  0  2  0  0  3  0  0  0  0  0  0
  190.1900  178.0210  143.1460 C   0  0  1  0  0  3  0  0  0  0  0  0
  188.2270  178.0280  144.6900 C   0  0  2  0  0  3  0  0  0  0  0  0
  186.2750  178.2580  145.9240 C   0  0  2  0  0  3  0  0  0  0  0  0
  187.4040  178.7020  146.6620 O   0  0  0  0  0  0  0  0  0  0  0  0
  188.5010  178.0720  146.1340 N   0  0  0  0  0  0  0  0  0  0  0  0
  186.2310  178.4260  143.4890 O   0  0  0  0  0  1  0  0  0  0  0  0
  186.7680  177.7210  144.5760 C   0  0  1  0  0  3  0  0  0  0  0  0
  185.2370  179.3730  145.8320 C   0  0  0  0  0  2  0  0  0  0  0  0
  183.8920  178.8020  145.8450 N   0  0  0  0  0  2  0  0  0  0  0  0
  183.1880  179.1090  144.2850 S   0  0  0  0  0  0  0  0  0  0  0  0
  183.8210  178.2170  143.2470 O   0  0  0  0  0  0  0  0  0  0  0  0
  183.4210  180.5470  143.9060 O   0  0  0  0  0  0  0  0  0  0  0  0
  181.4310  178.8220  144.3450 C   0  0  0  0  0  2  0  0  0  0  0  0
  180.7660  179.3070  143.0970 C   0  0  0  0  0  0  0  0  0  0  0  0
  180.3890  180.5040  143.0260 O   0  0  0  0  0  0  0  0  0  0  0  0
  180.5660  178.4730  141.9880 O   0  0  0  0  0  0  0  0  0  0  0  0
  181.2510  179.5530  139.9200 C   0  0  0  0  0  1  0  0  0  0  0  0
  181.4330  178.3680  140.8540 C   0  0  2  0  0  3  0  0  0  0  0  0
  181.2610  177.0320  140.1490 C   0  0  0  0  0  2  0  0  0  0  0  0
  179.8110  175.1160  140.5770 N   0  0  0  0  0  1  0  0  0  0  0  0
  179.8250  176.5300  140.2570 C   0  0  0  0  0  2  0  0  0  0  0  0
  188.5740  176.7400  146.7600 C   0  0  0  0  0  2  0  0  0  0  0  0
  189.6910  176.6490  147.7970 C   0  0  0  0  0  2  0  0  0  0  0  0
  190.9010  177.1260  147.2250 O   0  0  0  0  0  0  0  0  0  0  0  0
  192.0520  176.3380  147.1090 C   0  0  0  0  0  3  0  0  0  0  0  0
  192.0850  175.3260  146.3500 O   0  0  0  0  0  0  0  0  0  0  0  0
  192.4320  177.9970  142.0740 C   0  0  0  0  0  2  0  0  0  0  0  0
  192.9400  177.7040  140.6740 C   0  0  0  0  0  2  0  0  0  0  0  0
  191.9140  176.9080  139.8830 C   0  0  0  0  0  2  0  0  0  0  0  0
  193.4780  175.5560  136.1150 C   0  0  0  0  0  3  0  0  0  0  0  0
  194.3090  175.5400  137.2480 C   0  0  0  0  0  0  0  0  0  0  0  0
  192.1550  175.9930  136.2100 C   0  0  0  0  0  3  0  0  0  0  0  0
  193.7920  175.9750  138.4760 C   0  0  0  0  0  3  0  0  0  0  0  0
  192.4620  176.3980  138.5820 C   0  0  0  0  0  0  0  0  0  0  0  0
  191.6470  176.4140  137.4410 C   0  0  0  0  0  3  0  0  0  0  0  0
  195.6360  175.1020  137.1930 O   0  0  0  0  0  0  0  0  0  0  0  0
  196.3630  174.1220  138.4100 P   0  0  0  0  0  0  0  0  0  0  0  0
  195.2460  172.9990  139.0030 O   0  0  0  0  0  1  0  0  0  0  0  0
  196.8500  174.9920  139.5450 O   0  0  0  0  0  1  0  0  0  0  0  0
  197.6780  173.2970  137.7360 O   0  0  0  0  0  0  0  0  0  0  0  0
  187.6480  177.4790  140.7430 C   0  0  0  0  0  2  0  0  0  0  0  0
  185.9020  177.8570  138.4210 N   0  0  0  0  0  0  0  0  0  0  0  0
  184.9480  177.5160  137.3850 C   0  0  0  0  0  2  0  0  0  0  0  0
  185.2960  176.1280  136.8850 C   0  0  0  0  0  2  0  0  0  0  0  0
  187.6790  176.8620  137.0610 C   0  0  0  0  0  2  0  0  0  0  0  0
  187.1600  177.5640  138.2990 C   0  0  0  0  0  0  0  0  0  0  0  0
  188.0590  177.8030  139.3830 N   0  0  0  0  0  2  0  0  0  0  0  0
  186.6560  176.1160  136.3010 N   0  0  1  0  0  0  0  0  0  0  0  0
  188.7120  174.8130  135.7560 C   0  0  2  0  0  3  0  0  0  0  0  0
  187.2140  174.7730  136.0090 C   0  0  2  0  0  3  0  0  0  0  0  0
  187.7580  174.6150  134.5940 C   0  0  0  0  0  2  0  0  0  0  0  0
  189.3080  173.4770  136.1350 C   0  0  0  0  0  1  0  0  0  0  0  0
  1  3  2  0  0  0  0
  2  1  1  6  0  0  0
  2  8  1  0  0  0  0
  4 33  1  6  0  0  0
  4  7  1  0  0  0  0
  5  4  1  0  0  0  0
  5  7  1  0  0  0  0
  6  5  1  0  0  0  0
  6  1  1  0  0  0  0
  7  2  1  0  0  0  0
  8 11  1  0  0  0  0
  9 10  1  0  0  0  0
 11 10  1  0  0  0  0
 11 28  1  0  0  0  0
 12 13  1  0  0  0  0
 13  8  1  0  0  0  0
 13  9  1  0  0  0  0
 14 15  1  0  0  0  0
 14  9  1  0  0  0  0
 16 19  1  0  0  0  0
 16 15  1  0  0  0  0
 17 16  2  0  0  0  0
 18 16  2  0  0  0  0
 20 19  1  0  0  0  0
 21 20  2  0  0  0  0
 22 20  1  0  0  0  0
 23 24  1  0  0  0  0
 24 22  1  0  0  0  0
 25 27  1  0  0  0  0
 25 24  1  0  0  0  0
 27 26  1  0  0  0  0
 28 29  1  0  0  0  0
 30 29  1  0  0  0  0
 31 30  1  0  0  0  0
 32 31  2  0  0  0  0
 34 33  1  0  0  0  0
 35 34  1  0  0  0  0
 36 38  2  0  0  0  0
 36 37  1  0  0  0  0
 37 39  2  0  0  0  0
 38 41  1  0  0  0  0
 39 40  1  0  0  0  0
 40 35  1  0  0  0  0
 41 40  2  0  0  0  0
 42 37  1  0  0  0  0
 42 43  1  0  0  0  0
 43 44  1  0  0  0  0
 43 45  1  0  0  0  0
 46 43  2  0  0  0  0
 47  6  1  0  0  0  0
 49 48  1  0  0  0  0
 50 49  1  0  0  0  0
 51 52  1  0  0  0  0
 52 48  2  0  0  0  0
 52 53  1  0  0  0  0
 53 47  1  0  0  0  0
 54 50  1  0  0  0  0
 54 51  1  0  0  0  0
 55 56  1  0  0  0  0
 55 58  1  0  0  0  0
 56 54  1  0  0  0  0
 57 55  1  0  0  0  0
 57 56  1  0  0  0  0
M  END
>  <MODEL>
8

>  <REMARK>
 VINA RESULT:      -5.6      3.615      9.250
  Name = 
  23 active torsions:
  status: ('A' for Active; 'I' for Inactive)
    1  A    between atoms: C_2  and  C_9
    2  A    between atoms: C_4  and  C_51
    3  A    between atoms: P_5  and  O_49
    4  A    between atoms: N_10  and  S_11
    5  A    between atoms: N_10  and  C_51
    6  A    between atoms: S_11  and  C_15
    7  A    between atoms: C_12  and  O_49
    8  A    between atoms: C_15  and  C_22
    9  A    between atoms: C_16  and  N_30
   10  A    between atoms: C_16  and  C_32
   11  A    between atoms: C_18  and  C_29
   12  A    between atoms: C_18  and  C_48
   13  A    between atoms: C_20  and  O_38
   14  A    between atoms: C_22  and  O_35
   15  A    between atoms: C_24  and  C_42
   16  A    between atoms: C_24  and  C_54
   17  A    between atoms: C_31  and  N_47
   18  A    between atoms: C_32  and  O_38
   19  A    between atoms: C_33  and  C_54
   20  A    between atoms: O_35  and  C_48
   21  A    between atoms: C_42  and  C_55
   22  A    between atoms: N_46  and  C_53
   23  A    between atoms: C_52  and  C_53
                            x       y       z     vdW  Elec       q    Type
                         _______ _______ _______ _____ _____    ______ ____

>  <TORSDO>
F 23

$$$$
=
 OpenBabel10222418233D

 58 63  0  0  1  0  0  0  0  0999 V2000
  187.2590  176.6030  137.6060 C   0  0  0  0  0  0  0  0  0  0  0  0
  186.8690  177.2480  138.8840 C   0  0  1  0  0  3  0  0  0  0  0  0
  186.7300  175.5790  137.2210 O   0  0  0  0  0  0  0  0  0  0  0  0
  189.3020  176.9630  139.5510 C   0  0  2  0  0  3  0  0  0  0  0  0
  189.2010  177.8280  138.3040 C   0  0  1  0  0  3  0  0  0  0  0  0
  188.6230  176.9900  137.1670 C   0  0  2  0  0  3  0  0  0  0  0  0
  188.1430  177.9360  139.3850 C   0  0  1  0  0  3  0  0  0  0  0  0
  185.7710  178.2940  138.6920 C   0  0  2  0  0  3  0  0  0  0  0  0
  183.5620  178.9460  138.9780 C   0  0  2  0  0  3  0  0  0  0  0  0
  184.4550  179.9010  139.5320 O   0  0  0  0  0  0  0  0  0  0  0  0
  185.6260  179.2430  139.8050 N   0  0  0  0  0  0  0  0  0  0  0  0
  184.2180  177.5940  137.0530 O   0  0  0  0  0  1  0  0  0  0  0  0
  184.3920  177.7780  138.4330 C   0  0  1  0  0  3  0  0  0  0  0  0
  182.6450  179.6150  137.9570 C   0  0  0  0  0  2  0  0  0  0  0  0
  181.7310  178.6280  137.3870 N   0  0  0  0  0  2  0  0  0  0  0  0
  180.1700  178.9000  138.1030 S   0  0  0  0  0  0  0  0  0  0  0  0
  179.3170  179.7360  137.1840 O   0  0  0  0  0  0  0  0  0  0  0  0
  180.3400  179.6250  139.4110 O   0  0  0  0  0  0  0  0  0  0  0  0
  179.3710  177.3400  138.4260 C   0  0  0  0  0  2  0  0  0  0  0  0
  180.3710  176.2900  138.7860 C   0  0  0  0  0  0  0  0  0  0  0  0
  181.1280  176.4740  139.7720 O   0  0  0  0  0  0  0  0  0  0  0  0
  180.4800  175.0890  138.0700 O   0  0  0  0  0  0  0  0  0  0  0  0
  181.7590  175.3840  136.0240 C   0  0  0  0  0  1  0  0  0  0  0  0
  181.6340  174.6490  137.3480 C   0  0  2  0  0  3  0  0  0  0  0  0
  181.6400  173.1370  137.1840 C   0  0  0  0  0  2  0  0  0  0  0  0
  183.1350  171.2440  136.8140 N   0  0  0  0  0  1  0  0  0  0  0  0
  182.9390  172.6550  136.5460 C   0  0  0  0  0  2  0  0  0  0  0  0
  185.4580  178.5900  141.1160 C   0  0  0  0  0  2  0  0  0  0  0  0
  184.5030  179.3600  142.0260 C   0  0  0  0  0  2  0  0  0  0  0  0
  184.4000  178.6860  143.2720 O   0  0  0  0  0  0  0  0  0  0  0  0
  183.4480  179.0190  144.2430 C   0  0  0  0  0  3  0  0  0  0  0  0
  183.7240  178.9850  145.4770 O   0  0  0  0  0  0  0  0  0  0  0  0
  190.2860  177.5220  140.5730 C   0  0  0  0  0  2  0  0  0  0  0  0
  189.8050  177.1190  141.9550 C   0  0  0  0  0  2  0  0  0  0  0  0
  189.0780  178.2710  142.6310 C   0  0  0  0  0  2  0  0  0  0  0  0
  187.6210  177.1300  146.5100 C   0  0  0  0  0  3  0  0  0  0  0  0
  188.9860  177.4210  146.3480 C   0  0  0  0  0  0  0  0  0  0  0  0
  186.7420  177.2200  145.4290 C   0  0  0  0  0  3  0  0  0  0  0  0
  189.4550  177.8010  145.0830 C   0  0  0  0  0  3  0  0  0  0  0  0
  188.5760  177.9100  143.9990 C   0  0  0  0  0  0  0  0  0  0  0  0
  187.2180  177.6090  144.1740 C   0  0  0  0  0  3  0  0  0  0  0  0
  189.8950  177.3500  147.4100 O   0  0  0  0  0  0  0  0  0  0  0  0
  191.4080  176.5320  147.3090 P   0  0  0  0  0  0  0  0  0  0  0  0
  191.1980  174.8750  147.5740 O   0  0  0  0  0  1  0  0  0  0  0  0
  192.3620  177.0880  148.3410 O   0  0  0  0  0  1  0  0  0  0  0  0
  192.0570  176.7700  145.7640 O   0  0  0  0  0  0  0  0  0  0  0  0
  188.6080  177.7880  135.8780 C   0  0  0  0  0  2  0  0  0  0  0  0
  189.4690  175.0380  135.3510 N   0  0  0  0  0  0  0  0  0  0  0  0
  189.9750  173.7090  135.6310 C   0  0  0  0  0  2  0  0  0  0  0  0
  191.0840  173.8500  136.6530 C   0  0  0  0  0  2  0  0  0  0  0  0
  191.7710  175.8740  135.3570 C   0  0  0  0  0  2  0  0  0  0  0  0
  190.2720  176.0490  135.2250 C   0  0  0  0  0  0  0  0  0  0  0  0
  189.7430  177.3670  135.0670 N   0  0  0  0  0  2  0  0  0  0  0  0
  192.1880  174.6730  136.1060 N   0  0  1  0  0  0  0  0  0  0  0  0
  192.8140  176.3650  137.8280 C   0  0  2  0  0  3  0  0  0  0  0  0
  193.2140  175.0990  137.0890 C   0  0  2  0  0  3  0  0  0  0  0  0
  193.8850  176.4270  136.7560 C   0  0  0  0  0  2  0  0  0  0  0  0
  193.4790  176.3690  139.1860 C   0  0  0  0  0  1  0  0  0  0  0  0
  2  1  1  6  0  0  0
  2  7  1  0  0  0  0
  3  1  2  0  0  0  0
  4 33  1  1  0  0  0
  5  7  1  0  0  0  0
  5  4  1  0  0  0  0
  6  1  1  0  0  0  0
  6  5  1  0  0  0  0
  7  4  1  0  0  0  0
  8  2  1  0  0  0  0
  8 11  1  0  0  0  0
  9 10  1  0  0  0  0
 10 11  1  0  0  0  0
 11 28  1  0  0  0  0
 12 13  1  0  0  0  0
 13  8  1  0  0  0  0
 13  9  1  0  0  0  0
 14  9  1  0  0  0  0
 15 14  1  0  0  0  0
 15 16  1  0  0  0  0
 16 19  1  0  0  0  0
 16 18  2  0  0  0  0
 17 16  2  0  0  0  0
 19 20  1  0  0  0  0
 20 21  2  0  0  0  0
 22 20  1  0  0  0  0
 23 24  1  0  0  0  0
 24 22  1  0  0  0  0
 25 24  1  0  0  0  0
 27 26  1  0  0  0  0
 27 25  1  0  0  0  0
 28 29  1  0  0  0  0
 29 30  1  0  0  0  0
 30 31  1  0  0  0  0
 31 32  2  0  0  0  0
 33 34  1  0  0  0  0
 34 35  1  0  0  0  0
 35 40  1  0  0  0  0
 37 36  1  0  0  0  0
 37 42  1  0  0  0  0
 38 36  2  0  0  0  0
 39 37  2  0  0  0  0
 40 41  2  0  0  0  0
 40 39  1  0  0  0  0
 41 38  1  0  0  0  0
 43 42  1  0  0  0  0
 43 44  1  0  0  0  0
 43 45  1  0  0  0  0
 46 43  2  0  0  0  0
 47  6  1  0  0  0  0
 48 49  1  0  0  0  0
 49 50  1  0  0  0  0
 51 54  1  0  0  0  0
 52 48  2  0  0  0  0
 52 51  1  0  0  0  0
 53 52  1  0  0  0  0
 53 47  1  0  0  0  0
 54 50  1  0  0  0  0
 54 56  1  0  0  0  0
 55 58  1  0  0  0  0
 56 55  1  0  0  0  0
 57 56  1  0  0  0  0
 57 55  1  0  0  0  0
M  END
>  <MODEL>
9

>  <REMARK>
 VINA RESULT:      -5.6      2.707      7.831
  Name = 
  23 active torsions:
  status: ('A' for Active; 'I' for Inactive)
    1  A    between atoms: C_2  and  C_9
    2  A    between atoms: C_4  and  C_51
    3  A    between atoms: P_5  and  O_49
    4  A    between atoms: N_10  and  S_11
    5  A    between atoms: N_10  and  C_51
    6  A    between atoms: S_11  and  C_15
    7  A    between atoms: C_12  and  O_49
    8  A    between atoms: C_15  and  C_22
    9  A    between atoms: C_16  and  N_30
   10  A    between atoms: C_16  and  C_32
   11  A    between atoms: C_18  and  C_29
   12  A    between atoms: C_18  and  C_48
   13  A    between atoms: C_20  and  O_38
   14  A    between atoms: C_22  and  O_35
   15  A    between atoms: C_24  and  C_42
   16  A    between atoms: C_24  and  C_54
   17  A    between atoms: C_31  and  N_47
   18  A    between atoms: C_32  and  O_38
   19  A    between atoms: C_33  and  C_54
   20  A    between atoms: O_35  and  C_48
   21  A    between atoms: C_42  and  C_55
   22  A    between atoms: N_46  and  C_53
   23  A    between atoms: C_52  and  C_53
                            x       y       z     vdW  Elec       q    Type
                         _______ _______ _______ _____ _____    ______ ____

>  <TORSDO>
F 23

$$$$
