=
 OpenBabel10222417233D

 57 62  0  0  1  0  0  0  0  0999 V2000
  190.4960  177.1110  139.8470 C   0  0  0  0  0  0  0  0  0  0  0  0
  191.1470  174.3750  137.0560 S   0  0  0  0  0  0  0  0  0  0  0  0
  189.4230  174.1560  136.6370 C   0  0  0  0  0  0  0  0  0  0  0  0
  188.2340  178.6860  141.5340 C   0  0  0  0  0  1  0  0  0  0  0  0
  190.6680  175.9290  137.7340 N   0  0  0  0  0  0  0  0  0  0  0  0
  185.7510  178.8170  139.6840 C   0  0  0  0  0  0  0  0  0  0  0  0
  185.5280  179.2630  140.8430 O   0  0  0  0  0  0  0  0  0  0  0  0
  188.1210  178.1320  140.1500 C   0  0  0  0  0  0  0  0  0  0  0  0
  188.6710  175.2030  136.7550 N   0  0  0  0  0  0  0  0  0  0  0  0
  191.2080  176.3500  139.0030 C   0  0  0  0  0  3  0  0  0  0  0  0
  188.5880  177.1070  138.2550 C   0  0  0  0  0  0  0  0  0  0  0  0
  188.8960  172.8630  136.3040 N   0  0  0  0  0  2  0  0  0  0  0  0
  189.1160  177.4600  139.4690 C   0  0  0  0  0  0  0  0  0  0  0  0
  187.0120  178.2000  139.3680 N   0  0  0  0  0  0  0  0  0  0  0  0
  189.3770  176.3890  137.2020 C   0  0  1  0  0  3  0  0  0  0  0  0
  187.2920  177.5830  138.1940 C   0  0  0  0  0  3  0  0  0  0  0  0
  186.5940  172.3980  136.6820 C   0  0  0  0  0  3  0  0  0  0  0  0
  187.5810  172.6020  135.8710 N   0  0  0  0  0  0  0  0  0  0  0  0
  185.2270  172.1200  136.1690 C   0  0  0  0  0  2  0  0  0  0  0  0
  184.1990  172.2400  137.2840 C   0  0  0  0  0  2  0  0  0  0  0  0
  182.8920  172.8320  136.7690 C   0  0  0  0  0  2  0  0  0  0  0  0
  180.5910  174.4530  136.2070 C   0  0  0  0  0  1  0  0  0  0  0  0
  182.9050  174.3350  136.8410 C   0  0  0  0  0  0  0  0  0  0  0  0
  181.8560  175.0380  136.5850 N   0  0  0  0  0  0  0  0  0  0  0  0
  184.3850  175.1570  137.3120 Cl  0  0  0  0  0  0  0  0  0  0  0  0
  184.6710  178.8950  138.6450 C   0  0  0  0  0  2  0  0  0  0  0  0
  183.2780  178.7650  139.2470 C   0  0  2  0  0  3  0  0  0  0  0  0
  183.0950  177.3510  139.7620 C   0  0  0  0  0  1  0  0  0  0  0  0
  182.2080  179.0810  138.1990 C   0  0  0  0  0  2  0  0  0  0  0  0
  180.6760  180.2100  139.8130 C   0  0  0  0  0  1  0  0  0  0  0  0
  181.4230  180.3650  138.4980 C   0  0  1  0  0  0  0  0  0  0  0  0
  182.2980  181.4510  138.6000 O   0  0  0  0  0  1  0  0  0  0  0  0
  180.3990  180.6140  137.3760 C   0  0  1  0  0  3  0  0  0  0  0  0
  179.1120  180.8370  137.8850 O   0  0  0  0  0  1  0  0  0  0  0  0
  180.8130  181.6900  136.3570 C   0  0  1  0  0  3  0  0  0  0  0  0
  180.6760  181.1650  135.0720 O   0  0  0  0  0  1  0  0  0  0  0  0
  180.9000  184.8480  135.3820 C   0  0  0  0  0  2  0  0  0  0  0  0
  180.6820  183.9100  137.3250 O   0  0  0  0  0  0  0  0  0  0  0  0
  181.5660  184.5600  136.5770 O   0  0  0  0  0  0  0  0  0  0  0  0
  179.9880  183.6940  135.1320 C   0  0  0  0  0  2  0  0  0  0  0  0
  180.0340  183.0110  136.4630 C   0  0  1  0  0  3  0  0  0  0  0  0
  191.0920  177.5620  141.1370 C   0  0  0  0  0  2  0  0  0  0  0  0
  190.9200  176.5470  142.1610 N   0  0  0  0  0  2  0  0  0  0  0  0
  191.7030  176.9790  143.3090 C   0  0  0  0  0  2  0  0  0  0  0  0
  188.9130  177.0030  145.9670 C   0  0  1  0  0  3  0  0  0  0  0  0
  191.0520  176.7910  146.9760 C   0  0  0  0  0  2  0  0  0  0  0  0
  191.7410  177.1930  145.7510 N   0  0  0  0  0  2  0  0  0  0  0  0
  190.9740  176.6860  144.6140 C   0  0  1  0  0  3  0  0  0  0  0  0
  189.5660  177.2780  144.6120 C   0  0  0  0  0  2  0  0  0  0  0  0
  189.7630  177.4740  147.0630 N   0  0  0  0  0  2  0  0  0  0  0  0
  184.6020  178.4090  143.8090 C   0  0  0  0  0  1  0  0  0  0  0  0
  185.0340  178.8270  146.2330 C   0  0  0  0  0  3  0  0  0  0  0  0
  186.7360  177.7240  144.9130 C   0  0  0  0  0  3  0  0  0  0  0  0
  185.8510  178.7390  147.3630 C   0  0  0  0  0  3  0  0  0  0  0  0
  187.5620  177.6370  146.0450 C   0  0  0  0  0  0  0  0  0  0  0  0
  185.4750  178.3200  145.0080 C   0  0  0  0  0  0  0  0  0  0  0  0
  187.1140  178.1420  147.2690 C   0  0  0  0  0  3  0  0  0  0  0  0
  1 42  1  0  0  0  0
  2  5  1  0  0  0  0
  3  9  2  0  0  0  0
  3  2  1  0  0  0  0
  5 10  1  0  0  0  0
  6  7  2  0  0  0  0
  8  4  1  0  0  0  0
 10  1  2  0  0  0  0
 11 13  1  0  0  0  0
 12  3  1  0  0  0  0
 13  1  1  0  0  0  0
 13  8  2  0  0  0  0
 14  6  1  0  0  0  0
 14  8  1  0  0  0  0
 15  9  1  1  0  0  0
 15  5  1  0  0  0  0
 15 11  1  0  0  0  0
 16 11  2  0  0  0  0
 16 14  1  0  0  0  0
 18 12  1  0  0  0  0
 18 17  2  0  0  0  0
 19 17  1  0  0  0  0
 19 20  1  0  0  0  0
 21 23  1  0  0  0  0
 21 20  1  0  0  0  0
 22 24  1  0  0  0  0
 23 25  1  0  0  0  0
 24 23  2  0  0  0  0
 26 27  1  0  0  0  0
 26  6  1  0  0  0  0
 27 28  1  6  0  0  0
 29 31  1  0  0  0  0
 29 27  1  0  0  0  0
 31 32  1  0  0  0  0
 31 30  1  1  0  0  0
 33 34  1  1  0  0  0
 33 31  1  0  0  0  0
 35 36  1  6  0  0  0
 35 33  1  0  0  0  0
 37 39  1  0  0  0  0
 39 38  1  0  0  0  0
 40 37  1  0  0  0  0
 40 41  1  0  0  0  0
 41 35  1  6  0  0  0
 41 38  1  0  0  0  0
 42 43  1  0  0  0  0
 43 44  1  0  0  0  0
 45 55  1  6  0  0  0
 45 50  1  0  0  0  0
 46 50  1  0  0  0  0
 47 46  1  0  0  0  0
 48 44  1  6  0  0  0
 48 47  1  0  0  0  0
 49 48  1  0  0  0  0
 49 45  1  0  0  0  0
 51 56  1  0  0  0  0
 52 54  1  0  0  0  0
 53 56  1  0  0  0  0
 53 55  2  0  0  0  0
 55 57  1  0  0  0  0
 56 52  2  0  0  0  0
 57 54  2  0  0  0  0
M  END
>  <MODEL>
1

>  <REMARK>
 VINA RESULT:      -9.4      0.000      0.000
  Name = 
  17 active torsions:
  status: ('A' for Active; 'I' for Inactive)
    1  A    between atoms: C_1  and  C_22
    2  A    between atoms: C_1  and  C_24
    3  A    between atoms: C_2  and  C_40
    4  A    between atoms: C_4  and  C_44
    5  A    between atoms: N_7  and  N_46
    6  A    between atoms: C_12  and  C_37
    7  A    between atoms: C_14  and  C_54
    8  A    between atoms: C_16  and  C_24
    9  A    between atoms: C_16  and  C_28
   10  A    between atoms: C_17  and  C_39
   11  A    between atoms: C_22  and  C_39
   12  A    between atoms: N_23  and  C_26
   13  A    between atoms: N_23  and  C_40
   14  A    between atoms: C_26  and  C_31
   15  A    between atoms: C_28  and  C_56
   16  A    between atoms: C_44  and  C_45
   17  A    between atoms: C_45  and  C_54
                            x       y       z     vdW  Elec       q    Type
                         _______ _______ _______ _____ _____    ______ ____

>  <TORSDO>
F 17

$$$$
=
 OpenBabel10222417233D

 57 62  0  0  1  0  0  0  0  0999 V2000
  190.9290  177.3330  139.9190 C   0  0  0  0  0  0  0  0  0  0  0  0
  192.4150  174.9520  137.1230 S   0  0  0  0  0  0  0  0  0  0  0  0
  190.8380  174.5780  136.3700 C   0  0  0  0  0  0  0  0  0  0  0  0
  188.2180  178.4840  141.2490 C   0  0  0  0  0  1  0  0  0  0  0  0
  191.6280  176.3750  137.8020 N   0  0  0  0  0  0  0  0  0  0  0  0
  186.1130  178.5010  138.9740 C   0  0  0  0  0  0  0  0  0  0  0  0
  185.6300  178.8130  140.0980 O   0  0  0  0  0  0  0  0  0  0  0  0
  188.4280  178.0490  139.8350 C   0  0  0  0  0  0  0  0  0  0  0  0
  189.9500  175.5190  136.4140 N   0  0  0  0  0  0  0  0  0  0  0  0
  191.8720  176.7370  139.1760 C   0  0  0  0  0  3  0  0  0  0  0  0
  189.3550  177.2580  137.9970 C   0  0  0  0  0  0  0  0  0  0  0  0
  190.5480  173.2700  135.8560 N   0  0  0  0  0  2  0  0  0  0  0  0
  189.6070  177.5570  139.3100 C   0  0  0  0  0  0  0  0  0  0  0  0
  187.4790  178.0620  138.8620 N   0  0  0  0  0  0  0  0  0  0  0  0
  190.4060  176.7320  137.0660 C   0  0  1  0  0  3  0  0  0  0  0  0
  188.0420  177.5890  137.7240 C   0  0  0  0  0  3  0  0  0  0  0  0
  188.3080  172.4780  135.7550 C   0  0  0  0  0  3  0  0  0  0  0  0
  189.3770  172.9030  135.1650 N   0  0  0  0  0  0  0  0  0  0  0  0
  187.1020  172.0970  134.9750 C   0  0  0  0  0  2  0  0  0  0  0  0
  186.0070  171.5780  135.8950 C   0  0  0  0  0  2  0  0  0  0  0  0
  184.6240  171.8310  135.3050 C   0  0  0  0  0  2  0  0  0  0  0  0
  181.7850  172.0310  134.9360 C   0  0  0  0  0  1  0  0  0  0  0  0
  183.7050  172.4650  136.3120 C   0  0  0  0  0  0  0  0  0  0  0  0
  182.4320  172.5400  136.1220 N   0  0  0  0  0  0  0  0  0  0  0  0
  184.3790  173.0990  137.8070 Cl  0  0  0  0  0  0  0  0  0  0  0  0
  185.2370  178.5510  137.7570 C   0  0  0  0  0  2  0  0  0  0  0  0
  184.3170  177.3410  137.6560 C   0  0  2  0  0  3  0  0  0  0  0  0
  184.6800  176.5510  136.4140 C   0  0  0  0  0  1  0  0  0  0  0  0
  182.8530  177.7830  137.5840 C   0  0  0  0  0  2  0  0  0  0  0  0
  181.4440  175.7430  137.8620 C   0  0  0  0  0  1  0  0  0  0  0  0
  181.9350  177.0120  138.5410 C   0  0  1  0  0  0  0  0  0  0  0  0
  182.6350  176.6620  139.7000 O   0  0  0  0  0  1  0  0  0  0  0  0
  180.7180  177.8820  138.9000 C   0  0  1  0  0  3  0  0  0  0  0  0
  179.5100  177.2340  138.6080 O   0  0  0  0  0  1  0  0  0  0  0  0
  180.7380  178.4550  140.3270 C   0  0  1  0  0  3  0  0  0  0  0  0
  181.2280  179.7610  140.2790 O   0  0  0  0  0  1  0  0  0  0  0  0
  179.3530  178.9720  143.2850 C   0  0  0  0  0  2  0  0  0  0  0  0
  179.2660  177.3180  141.8840 O   0  0  0  0  0  0  0  0  0  0  0  0
  179.8080  177.6730  143.0430 O   0  0  0  0  0  0  0  0  0  0  0  0
  179.2550  179.6280  141.9480 C   0  0  0  0  0  2  0  0  0  0  0  0
  179.3790  178.4390  141.0460 C   0  0  1  0  0  3  0  0  0  0  0  0
  191.2210  177.7300  141.3260 C   0  0  0  0  0  2  0  0  0  0  0  0
  191.0740  176.5920  142.2170 N   0  0  0  0  0  2  0  0  0  0  0  0
  191.8350  176.9060  143.4180 C   0  0  0  0  0  2  0  0  0  0  0  0
  188.8570  176.9930  145.8610 C   0  0  1  0  0  3  0  0  0  0  0  0
  190.9160  176.8210  147.0310 C   0  0  0  0  0  2  0  0  0  0  0  0
  191.6930  177.1910  145.8480 N   0  0  0  0  0  2  0  0  0  0  0  0
  191.0130  176.6470  144.6730 C   0  0  1  0  0  3  0  0  0  0  0  0
  189.6080  177.2310  144.5510 C   0  0  0  0  0  2  0  0  0  0  0  0
  189.6230  177.5000  147.0030 N   0  0  0  0  0  2  0  0  0  0  0  0
  184.7700  178.4350  143.3250 C   0  0  0  0  0  1  0  0  0  0  0  0
  184.9620  178.8020  145.7880 C   0  0  0  0  0  3  0  0  0  0  0  0
  186.7900  177.7320  144.6170 C   0  0  0  0  0  3  0  0  0  0  0  0
  185.6670  178.6920  146.9900 C   0  0  0  0  0  3  0  0  0  0  0  0
  187.5020  177.6220  145.8210 C   0  0  0  0  0  0  0  0  0  0  0  0
  185.5220  178.3220  144.6010 C   0  0  0  0  0  0  0  0  0  0  0  0
  186.9350  178.0990  147.0060 C   0  0  0  0  0  3  0  0  0  0  0  0
  1 42  1  0  0  0  0
  2  5  1  0  0  0  0
  3  9  2  0  0  0  0
  3  2  1  0  0  0  0
  5 10  1  0  0  0  0
  6  7  2  0  0  0  0
  8  4  1  0  0  0  0
 10  1  2  0  0  0  0
 11 13  1  0  0  0  0
 12  3  1  0  0  0  0
 13  8  2  0  0  0  0
 13  1  1  0  0  0  0
 14  6  1  0  0  0  0
 14  8  1  0  0  0  0
 15  9  1  1  0  0  0
 15  5  1  0  0  0  0
 15 11  1  0  0  0  0
 16 11  2  0  0  0  0
 16 14  1  0  0  0  0
 18 17  2  0  0  0  0
 18 12  1  0  0  0  0
 19 17  1  0  0  0  0
 19 20  1  0  0  0  0
 21 20  1  0  0  0  0
 21 23  1  0  0  0  0
 22 24  1  0  0  0  0
 23 25  1  0  0  0  0
 24 23  2  0  0  0  0
 26  6  1  0  0  0  0
 27 28  1  6  0  0  0
 27 26  1  0  0  0  0
 29 27  1  0  0  0  0
 29 31  1  0  0  0  0
 31 30  1  6  0  0  0
 31 33  1  0  0  0  0
 31 32  1  0  0  0  0
 33 34  1  1  0  0  0
 33 35  1  0  0  0  0
 35 36  1  6  0  0  0
 38 39  1  0  0  0  0
 39 37  1  0  0  0  0
 40 37  1  0  0  0  0
 41 35  1  1  0  0  0
 41 38  1  0  0  0  0
 41 40  1  0  0  0  0
 42 43  1  0  0  0  0
 43 44  1  0  0  0  0
 45 55  1  6  0  0  0
 45 50  1  0  0  0  0
 47 46  1  0  0  0  0
 48 44  1  6  0  0  0
 48 47  1  0  0  0  0
 49 48  1  0  0  0  0
 49 45  1  0  0  0  0
 50 46  1  0  0  0  0
 51 56  1  0  0  0  0
 52 54  1  0  0  0  0
 53 55  2  0  0  0  0
 54 57  2  0  0  0  0
 55 57  1  0  0  0  0
 56 53  1  0  0  0  0
 56 52  2  0  0  0  0
M  END
>  <MODEL>
2

>  <REMARK>
 VINA RESULT:      -9.0      2.469      3.227
  Name = 
  17 active torsions:
  status: ('A' for Active; 'I' for Inactive)
    1  A    between atoms: C_1  and  C_22
    2  A    between atoms: C_1  and  C_24
    3  A    between atoms: C_2  and  C_40
    4  A    between atoms: C_4  and  C_44
    5  A    between atoms: N_7  and  N_46
    6  A    between atoms: C_12  and  C_37
    7  A    between atoms: C_14  and  C_54
    8  A    between atoms: C_16  and  C_24
    9  A    between atoms: C_16  and  C_28
   10  A    between atoms: C_17  and  C_39
   11  A    between atoms: C_22  and  C_39
   12  A    between atoms: N_23  and  C_26
   13  A    between atoms: N_23  and  C_40
   14  A    between atoms: C_26  and  C_31
   15  A    between atoms: C_28  and  C_56
   16  A    between atoms: C_44  and  C_45
   17  A    between atoms: C_45  and  C_54
                            x       y       z     vdW  Elec       q    Type
                         _______ _______ _______ _____ _____    ______ ____

>  <TORSDO>
F 17

$$$$
=
 OpenBabel10222417233D

 57 62  0  0  1  0  0  0  0  0999 V2000
  189.4150  176.7320  138.1560 C   0  0  0  0  0  0  0  0  0  0  0  0
  188.8210  173.6840  135.6950 S   0  0  0  0  0  0  0  0  0  0  0  0
  187.0430  173.6710  135.8770 C   0  0  0  0  0  0  0  0  0  0  0  0
  188.0140  178.7590  140.2460 C   0  0  0  0  0  1  0  0  0  0  0  0
  188.7570  175.3460  136.2760 N   0  0  0  0  0  0  0  0  0  0  0  0
  185.0860  179.0650  139.2780 C   0  0  0  0  0  0  0  0  0  0  0  0
  185.3070  179.6440  140.3780 O   0  0  0  0  0  0  0  0  0  0  0  0
  187.3930  178.1000  139.0570 C   0  0  0  0  0  0  0  0  0  0  0  0
  186.4840  174.8200  136.0860 N   0  0  0  0  0  0  0  0  0  0  0  0
  189.7260  175.8030  137.2400 C   0  0  0  0  0  3  0  0  0  0  0  0
  187.0980  176.8480  137.2670 C   0  0  0  0  0  0  0  0  0  0  0  0
  186.3050  172.4390  135.9050 N   0  0  0  0  0  2  0  0  0  0  0  0
  188.0320  177.2340  138.1910 C   0  0  0  0  0  0  0  0  0  0  0  0
  186.1010  178.2510  138.6650 N   0  0  0  0  0  0  0  0  0  0  0  0
  187.4160  175.9320  136.1230 C   0  0  1  0  0  3  0  0  0  0  0  0
  185.9110  177.4940  137.5560 C   0  0  0  0  0  3  0  0  0  0  0  0
  184.2850  171.4090  136.6200 C   0  0  0  0  0  3  0  0  0  0  0  0
  184.9030  172.3270  135.9500 N   0  0  0  0  0  0  0  0  0  0  0  0
  182.8010  171.3340  136.6260 C   0  0  0  0  0  2  0  0  0  0  0  0
  182.1970  172.5390  135.9200 C   0  0  0  0  0  2  0  0  0  0  0  0
  181.0460  173.1320  136.7250 C   0  0  0  0  0  2  0  0  0  0  0  0
  179.5560  174.1090  138.9750 C   0  0  0  0  0  1  0  0  0  0  0  0
  181.5120  174.2700  137.5910 C   0  0  0  0  0  0  0  0  0  0  0  0
  180.8230  174.6880  138.5970 N   0  0  0  0  0  0  0  0  0  0  0  0
  183.0540  175.0380  137.2390 Cl  0  0  0  0  0  0  0  0  0  0  0  0
  183.7370  179.1970  138.6350 C   0  0  0  0  0  2  0  0  0  0  0  0
  182.6080  178.7690  139.5640 C   0  0  2  0  0  3  0  0  0  0  0  0
  182.9620  177.4310  140.1830 C   0  0  0  0  0  1  0  0  0  0  0  0
  181.2910  178.6560  138.7910 C   0  0  0  0  0  2  0  0  0  0  0  0
  178.9490  179.5100  138.6820 C   0  0  0  0  0  1  0  0  0  0  0  0
  180.4000  179.8980  138.9180 C   0  0  1  0  0  0  0  0  0  0  0  0
  180.5190  180.4450  140.1990 O   0  0  0  0  0  1  0  0  0  0  0  0
  180.8110  180.9360  137.8590 C   0  0  1  0  0  3  0  0  0  0  0  0
  181.1870  180.3300  136.6530 O   0  0  0  0  0  1  0  0  0  0  0  0
  179.7940  182.0700  137.6450 C   0  0  1  0  0  3  0  0  0  0  0  0
  179.5120  182.6600  138.8780 O   0  0  0  0  0  1  0  0  0  0  0  0
  180.9070  185.1800  137.4930 C   0  0  0  0  0  2  0  0  0  0  0  0
  179.2610  184.1540  136.5230 O   0  0  0  0  0  0  0  0  0  0  0  0
  179.5180  185.0280  137.4890 O   0  0  0  0  0  0  0  0  0  0  0  0
  181.4670  183.8430  137.1370 C   0  0  0  0  0  2  0  0  0  0  0  0
  180.2350  183.1500  136.6430 C   0  0  1  0  0  3  0  0  0  0  0  0
  190.4490  177.2120  139.1180 C   0  0  0  0  0  2  0  0  0  0  0  0
  190.4500  176.3930  140.3170 N   0  0  0  0  0  2  0  0  0  0  0  0
  191.4820  176.9340  141.1880 C   0  0  0  0  0  2  0  0  0  0  0  0
  189.2470  177.1990  144.3150 C   0  0  1  0  0  3  0  0  0  0  0  0
  191.5300  177.5470  144.8660 C   0  0  0  0  0  2  0  0  0  0  0  0
  191.9060  177.7350  143.4660 N   0  0  0  0  0  2  0  0  0  0  0  0
  191.0610  176.8640  142.6500 C   0  0  1  0  0  3  0  0  0  0  0  0
  189.5890  177.2290  142.8250 C   0  0  0  0  0  2  0  0  0  0  0  0
  190.1710  178.0380  145.0820 N   0  0  0  0  0  2  0  0  0  0  0  0
  185.5650  178.6810  147.3930 C   0  0  0  0  0  1  0  0  0  0  0  0
  185.1840  178.4470  144.9350 C   0  0  0  0  0  3  0  0  0  0  0  0
  187.3740  177.9450  145.8340 C   0  0  0  0  0  3  0  0  0  0  0  0
  185.6400  178.1410  143.6500 C   0  0  0  0  0  3  0  0  0  0  0  0
  187.8350  177.6330  144.5460 C   0  0  0  0  0  0  0  0  0  0  0  0
  186.0500  178.3500  146.0280 C   0  0  0  0  0  0  0  0  0  0  0  0
  186.9660  177.7370  143.4560 C   0  0  0  0  0  3  0  0  0  0  0  0
  1 13  1  0  0  0  0
  1 42  1  0  0  0  0
  2  3  1  0  0  0  0
  2  5  1  0  0  0  0
  3 12  1  0  0  0  0
  3  9  2  0  0  0  0
  5 10  1  0  0  0  0
  6  7  2  0  0  0  0
  8  4  1  0  0  0  0
 10  1  2  0  0  0  0
 11 16  2  0  0  0  0
 11 13  1  0  0  0  0
 12 18  1  0  0  0  0
 13  8  2  0  0  0  0
 14  8  1  0  0  0  0
 14  6  1  0  0  0  0
 15  9  1  1  0  0  0
 15  5  1  0  0  0  0
 15 11  1  0  0  0  0
 16 14  1  0  0  0  0
 17 19  1  0  0  0  0
 18 17  2  0  0  0  0
 20 19  1  0  0  0  0
 20 21  1  0  0  0  0
 21 23  1  0  0  0  0
 23 24  2  0  0  0  0
 24 22  1  0  0  0  0
 25 23  1  0  0  0  0
 26  6  1  0  0  0  0
 26 27  1  0  0  0  0
 27 28  1  6  0  0  0
 29 31  1  0  0  0  0
 29 27  1  0  0  0  0
 31 30  1  6  0  0  0
 31 32  1  0  0  0  0
 33 34  1  6  0  0  0
 33 31  1  0  0  0  0
 35 33  1  0  0  0  0
 35 36  1  1  0  0  0
 38 41  1  0  0  0  0
 38 39  1  0  0  0  0
 39 37  1  0  0  0  0
 40 37  1  0  0  0  0
 41 40  1  0  0  0  0
 41 35  1  1  0  0  0
 42 43  1  0  0  0  0
 43 44  1  0  0  0  0
 45 55  1  6  0  0  0
 45 50  1  0  0  0  0
 46 50  1  0  0  0  0
 47 46  1  0  0  0  0
 48 44  1  6  0  0  0
 48 49  1  0  0  0  0
 48 47  1  0  0  0  0
 49 45  1  0  0  0  0
 52 56  1  0  0  0  0
 53 56  2  0  0  0  0
 54 52  2  0  0  0  0
 55 53  1  0  0  0  0
 56 51  1  0  0  0  0
 57 54  1  0  0  0  0
 57 55  2  0  0  0  0
M  END
>  <MODEL>
3

>  <REMARK>
 VINA RESULT:      -7.7      1.498      2.136
  Name = 
  17 active torsions:
  status: ('A' for Active; 'I' for Inactive)
    1  A    between atoms: C_1  and  C_22
    2  A    between atoms: C_1  and  C_24
    3  A    between atoms: C_2  and  C_40
    4  A    between atoms: C_4  and  C_44
    5  A    between atoms: N_7  and  N_46
    6  A    between atoms: C_12  and  C_37
    7  A    between atoms: C_14  and  C_54
    8  A    between atoms: C_16  and  C_24
    9  A    between atoms: C_16  and  C_28
   10  A    between atoms: C_17  and  C_39
   11  A    between atoms: C_22  and  C_39
   12  A    between atoms: N_23  and  C_26
   13  A    between atoms: N_23  and  C_40
   14  A    between atoms: C_26  and  C_31
   15  A    between atoms: C_28  and  C_56
   16  A    between atoms: C_44  and  C_45
   17  A    between atoms: C_45  and  C_54
                            x       y       z     vdW  Elec       q    Type
                         _______ _______ _______ _____ _____    ______ ____

>  <TORSDO>
F 17

$$$$
=
 OpenBabel10222417233D

 57 62  0  0  1  0  0  0  0  0999 V2000
  182.7310  178.7510  141.5030 C   0  0  0  0  0  0  0  0  0  0  0  0
  183.4700  179.0220  145.3860 S   0  0  0  0  0  0  0  0  0  0  0  0
  185.1610  178.4550  145.2710 C   0  0  0  0  0  0  0  0  0  0  0  0
  183.8950  177.7840  138.6470 C   0  0  0  0  0  1  0  0  0  0  0  0
  183.6000  179.4080  143.6710 N   0  0  0  0  0  0  0  0  0  0  0  0
  186.9740  178.0600  138.8640 C   0  0  0  0  0  0  0  0  0  0  0  0
  186.6010  177.5160  137.7880 O   0  0  0  0  0  0  0  0  0  0  0  0
  184.6680  178.2660  139.8330 C   0  0  0  0  0  0  0  0  0  0  0  0
  185.7910  178.7600  144.1810 N   0  0  0  0  0  0  0  0  0  0  0  0
  182.5120  179.0830  142.7830 C   0  0  0  0  0  3  0  0  0  0  0  0
  185.1790  179.0040  141.8470 C   0  0  0  0  0  0  0  0  0  0  0  0
  185.7360  177.6140  146.2820 N   0  0  0  0  0  2  0  0  0  0  0  0
  184.1260  178.6660  141.0380 C   0  0  0  0  0  0  0  0  0  0  0  0
  186.0210  178.3680  139.8960 N   0  0  0  0  0  0  0  0  0  0  0  0
  185.0010  179.5300  143.2390 C   0  0  1  0  0  3  0  0  0  0  0  0
  186.3470  178.8320  141.1270 C   0  0  0  0  0  3  0  0  0  0  0  0
  187.8250  177.3160  147.3790 C   0  0  0  0  0  3  0  0  0  0  0  0
  187.0790  177.1930  146.3300 N   0  0  0  0  0  0  0  0  0  0  0  0
  189.2400  176.8600  147.3710 C   0  0  0  0  0  2  0  0  0  0  0  0
  190.0660  177.6870  146.3970 C   0  0  0  0  0  2  0  0  0  0  0  0
  190.4820  176.8600  145.1850 C   0  0  0  0  0  2  0  0  0  0  0  0
  191.3450  179.1840  143.7390 C   0  0  0  0  0  1  0  0  0  0  0  0
  189.8090  177.3480  143.9310 C   0  0  0  0  0  0  0  0  0  0  0  0
  190.2190  178.3940  143.3000 N   0  0  0  0  0  0  0  0  0  0  0  0
  188.4400  176.4510  143.2900 Cl  0  0  0  0  0  0  0  0  0  0  0  0
  188.4320  178.3430  139.0770 C   0  0  0  0  0  2  0  0  0  0  0  0
  189.2570  178.1120  137.8180 C   0  0  2  0  0  3  0  0  0  0  0  0
  188.8710  179.1480  136.7810 C   0  0  0  0  0  1  0  0  0  0  0  0
  189.0120  176.7050  137.2660 C   0  0  0  0  0  2  0  0  0  0  0  0
  190.0410  174.4630  136.8870 C   0  0  0  0  0  1  0  0  0  0  0  0
  190.3030  175.9610  136.8980 C   0  0  1  0  0  0  0  0  0  0  0  0
  190.7380  176.3530  135.6280 O   0  0  0  0  0  1  0  0  0  0  0  0
  191.3880  176.2640  137.9460 C   0  0  1  0  0  3  0  0  0  0  0  0
  191.1910  175.5340  139.1260 O   0  0  0  0  0  1  0  0  0  0  0  0
  192.8310  176.1460  137.4270 C   0  0  1  0  0  3  0  0  0  0  0  0
  193.6520  176.9720  138.1950 O   0  0  0  0  0  1  0  0  0  0  0  0
  195.6140  174.4540  136.8580 C   0  0  0  0  0  2  0  0  0  0  0  0
  193.5900  174.2590  136.1040 O   0  0  0  0  0  0  0  0  0  0  0  0
  194.7980  174.6770  135.7460 O   0  0  0  0  0  0  0  0  0  0  0  0
  194.7530  174.6930  138.0530 C   0  0  0  0  0  2  0  0  0  0  0  0
  193.3980  174.7170  137.4180 C   0  0  1  0  0  3  0  0  0  0  0  0
  181.5840  178.4560  140.5970 C   0  0  0  0  0  2  0  0  0  0  0  0
  180.3540  179.0080  141.1360 N   0  0  0  0  0  2  0  0  0  0  0  0
  179.4090  179.0730  140.0300 C   0  0  0  0  0  2  0  0  0  0  0  0
  180.6640  181.3050  137.1520 C   0  0  1  0  0  3  0  0  0  0  0  0
  180.3140  179.0760  136.4130 C   0  0  0  0  0  2  0  0  0  0  0  0
  179.5420  178.7330  137.6070 N   0  0  0  0  0  2  0  0  0  0  0  0
  180.1030  179.4740  138.7360 C   0  0  1  0  0  3  0  0  0  0  0  0
  180.0040  180.9780  138.4920 C   0  0  0  0  0  2  0  0  0  0  0  0
  180.1040  180.4820  136.0770 N   0  0  0  0  0  2  0  0  0  0  0  0
  179.4950  185.9990  138.4990 C   0  0  0  0  0  1  0  0  0  0  0  0
  180.2660  185.4700  136.1830 C   0  0  0  0  0  3  0  0  0  0  0  0
  180.0820  183.6750  137.7950 C   0  0  0  0  0  3  0  0  0  0  0  0
  180.7040  184.5600  135.2170 C   0  0  0  0  0  3  0  0  0  0  0  0
  180.5190  182.7570  136.8280 C   0  0  0  0  0  0  0  0  0  0  0  0
  179.9550  185.0300  137.4720 C   0  0  0  0  0  0  0  0  0  0  0  0
  180.8330  183.2040  135.5410 C   0  0  0  0  0  3  0  0  0  0  0  0
  1 10  2  0  0  0  0
  3  2  1  0  0  0  0
  3 12  1  0  0  0  0
  4  8  1  0  0  0  0
  5  2  1  0  0  0  0
  6 26  1  0  0  0  0
  6 14  1  0  0  0  0
  7  6  2  0  0  0  0
  8 14  1  0  0  0  0
  8 13  2  0  0  0  0
  9  3  2  0  0  0  0
 10  5  1  0  0  0  0
 12 18  1  0  0  0  0
 13  1  1  0  0  0  0
 13 11  1  0  0  0  0
 14 16  1  0  0  0  0
 15 11  1  6  0  0  0
 15  5  1  0  0  0  0
 15  9  1  0  0  0  0
 16 11  2  0  0  0  0
 18 17  2  0  0  0  0
 19 17  1  0  0  0  0
 20 19  1  0  0  0  0
 21 20  1  0  0  0  0
 23 21  1  0  0  0  0
 24 22  1  0  0  0  0
 24 23  2  0  0  0  0
 25 23  1  0  0  0  0
 27 28  1  6  0  0  0
 27 26  1  0  0  0  0
 29 27  1  0  0  0  0
 31 30  1  6  0  0  0
 31 29  1  0  0  0  0
 31 33  1  0  0  0  0
 32 31  1  0  0  0  0
 33 34  1  1  0  0  0
 35 33  1  0  0  0  0
 35 36  1  1  0  0  0
 37 40  1  0  0  0  0
 38 41  1  0  0  0  0
 39 38  1  0  0  0  0
 39 37  1  0  0  0  0
 41 35  1  6  0  0  0
 41 40  1  0  0  0  0
 42 43  1  0  0  0  0
 42  1  1  0  0  0  0
 44 43  1  0  0  0  0
 45 55  1  6  0  0  0
 45 49  1  0  0  0  0
 46 47  1  0  0  0  0
 47 48  1  0  0  0  0
 48 44  1  1  0  0  0
 49 48  1  0  0  0  0
 50 46  1  0  0  0  0
 50 45  1  0  0  0  0
 52 56  1  0  0  0  0
 54 57  1  0  0  0  0
 54 52  2  0  0  0  0
 55 53  1  0  0  0  0
 56 53  2  0  0  0  0
 56 51  1  0  0  0  0
 57 55  2  0  0  0  0
M  END
>  <MODEL>
4

>  <REMARK>
 VINA RESULT:      -7.5      4.149     11.357
  Name = 
  17 active torsions:
  status: ('A' for Active; 'I' for Inactive)
    1  A    between atoms: C_1  and  C_22
    2  A    between atoms: C_1  and  C_24
    3  A    between atoms: C_2  and  C_40
    4  A    between atoms: C_4  and  C_44
    5  A    between atoms: N_7  and  N_46
    6  A    between atoms: C_12  and  C_37
    7  A    between atoms: C_14  and  C_54
    8  A    between atoms: C_16  and  C_24
    9  A    between atoms: C_16  and  C_28
   10  A    between atoms: C_17  and  C_39
   11  A    between atoms: C_22  and  C_39
   12  A    between atoms: N_23  and  C_26
   13  A    between atoms: N_23  and  C_40
   14  A    between atoms: C_26  and  C_31
   15  A    between atoms: C_28  and  C_56
   16  A    between atoms: C_44  and  C_45
   17  A    between atoms: C_45  and  C_54
                            x       y       z     vdW  Elec       q    Type
                         _______ _______ _______ _____ _____    ______ ____

>  <TORSDO>
F 17

$$$$
=
 OpenBabel10222417233D

 57 62  0  0  1  0  0  0  0  0999 V2000
  184.9370  174.9270  135.8960 C   0  0  0  0  0  0  0  0  0  0  0  0
  186.4620  171.3960  134.9440 S   0  0  0  0  0  0  0  0  0  0  0  0
  188.1440  171.8250  135.3680 C   0  0  0  0  0  0  0  0  0  0  0  0
  185.6250  177.9450  136.8250 C   0  0  0  0  0  1  0  0  0  0  0  0
  185.9770  172.7370  135.9800 N   0  0  0  0  0  0  0  0  0  0  0  0
  188.2540  177.7380  138.4530 C   0  0  0  0  0  0  0  0  0  0  0  0
  187.8790  178.9290  138.2680 O   0  0  0  0  0  0  0  0  0  0  0  0
  186.4020  176.7010  137.1130 C   0  0  0  0  0  0  0  0  0  0  0  0
  188.2890  172.6690  136.3390 N   0  0  0  0  0  0  0  0  0  0  0  0
  184.9350  173.6330  135.5460 C   0  0  0  0  0  3  0  0  0  0  0  0
  187.0570  174.5960  137.1480 C   0  0  0  0  0  0  0  0  0  0  0  0
  189.2540  171.3450  134.5940 N   0  0  0  0  0  2  0  0  0  0  0  0
  186.0710  175.4290  136.6900 C   0  0  0  0  0  0  0  0  0  0  0  0
  187.5580  176.6470  137.8250 N   0  0  0  0  0  0  0  0  0  0  0  0
  187.0390  173.1130  136.9260 C   0  0  1  0  0  3  0  0  0  0  0  0
  187.9640  175.3540  137.8630 C   0  0  0  0  0  3  0  0  0  0  0  0
  191.0390  172.5340  135.6200 C   0  0  0  0  0  3  0  0  0  0  0  0
  190.6130  171.5480  134.8990 N   0  0  0  0  0  0  0  0  0  0  0  0
  192.4880  172.7040  135.9050 C   0  0  0  0  0  2  0  0  0  0  0  0
  192.7390  173.9980  136.6650 C   0  0  0  0  0  2  0  0  0  0  0  0
  194.2030  174.1260  137.0700 C   0  0  0  0  0  2  0  0  0  0  0  0
  196.3520  174.0390  138.9710 C   0  0  0  0  0  1  0  0  0  0  0  0
  194.3850  175.1510  138.1550 C   0  0  0  0  0  0  0  0  0  0  0  0
  195.3610  175.0890  138.9950 N   0  0  0  0  0  0  0  0  0  0  0  0
  193.2510  176.4900  138.2680 Cl  0  0  0  0  0  0  0  0  0  0  0  0
  189.4640  177.4710  139.2990 C   0  0  0  0  0  2  0  0  0  0  0  0
  189.1210  177.3520  140.7780 C   0  0  2  0  0  3  0  0  0  0  0  0
  188.3390  178.5790  141.2020 C   0  0  0  0  0  1  0  0  0  0  0  0
  190.3970  177.2310  141.6170 C   0  0  0  0  0  2  0  0  0  0  0  0
  188.7150  176.1560  143.1150 C   0  0  0  0  0  1  0  0  0  0  0  0
  190.1930  176.4640  142.9300 C   0  0  1  0  0  0  0  0  0  0  0  0
  190.9050  175.2620  142.8990 O   0  0  0  0  0  1  0  0  0  0  0  0
  190.6670  177.3300  144.1100 C   0  0  1  0  0  3  0  0  0  0  0  0
  190.5320  178.6990  143.8410 O   0  0  0  0  0  1  0  0  0  0  0  0
  190.0610  176.9460  145.4720 C   0  0  1  0  0  3  0  0  0  0  0  0
  191.0790  176.4620  146.2940 O   0  0  0  0  0  1  0  0  0  0  0  0
  188.0570  177.5320  148.0350 C   0  0  0  0  0  2  0  0  0  0  0  0
  187.9350  178.0220  145.9260 O   0  0  0  0  0  0  0  0  0  0  0  0
  187.4280  177.1960  146.8330 O   0  0  0  0  0  0  0  0  0  0  0  0
  189.4470  177.9360  147.6720 C   0  0  0  0  0  2  0  0  0  0  0  0
  189.3140  178.0820  146.1870 C   0  0  1  0  0  3  0  0  0  0  0  0
  183.8260  175.8230  135.4630 C   0  0  0  0  0  2  0  0  0  0  0  0
  182.8350  175.9530  136.5160 N   0  0  0  0  0  2  0  0  0  0  0  0
  181.8280  176.8820  136.0260 C   0  0  0  0  0  2  0  0  0  0  0  0
  182.2370  179.1310  139.1260 C   0  0  1  0  0  3  0  0  0  0  0  0
  180.3130  179.7430  137.8770 C   0  0  0  0  0  2  0  0  0  0  0  0
  180.3380  178.4980  137.1090 N   0  0  0  0  0  2  0  0  0  0  0  0
  181.7350  178.1140  136.9150 C   0  0  1  0  0  3  0  0  0  0  0  0
  182.4180  177.8840  138.2610 C   0  0  0  0  0  2  0  0  0  0  0  0
  180.8230  179.5000  139.2250 N   0  0  0  0  0  2  0  0  0  0  0  0
  181.7230  178.8590  144.1140 C   0  0  0  0  0  1  0  0  0  0  0  0
  183.9430  178.5220  143.0210 C   0  0  0  0  0  3  0  0  0  0  0  0
  182.0140  178.9900  141.6370 C   0  0  0  0  0  3  0  0  0  0  0  0
  184.7470  178.4520  141.8800 C   0  0  0  0  0  3  0  0  0  0  0  0
  182.8180  178.9230  140.4880 C   0  0  0  0  0  0  0  0  0  0  0  0
  182.5760  178.7900  142.9010 C   0  0  0  0  0  0  0  0  0  0  0  0
  184.1830  178.6500  140.6140 C   0  0  0  0  0  3  0  0  0  0  0  0
  1 13  1  0  0  0  0
  2  3  1  0  0  0  0
  2  5  1  0  0  0  0
  3  9  2  0  0  0  0
  4  8  1  0  0  0  0
  5 15  1  0  0  0  0
  6 26  1  0  0  0  0
  7  6  2  0  0  0  0
  8 14  1  0  0  0  0
 10  1  2  0  0  0  0
 10  5  1  0  0  0  0
 11 16  2  0  0  0  0
 12 18  1  0  0  0  0
 12  3  1  0  0  0  0
 13  8  2  0  0  0  0
 13 11  1  0  0  0  0
 14 16  1  0  0  0  0
 14  6  1  0  0  0  0
 15  9  1  6  0  0  0
 15 11  1  0  0  0  0
 17 19  1  0  0  0  0
 18 17  2  0  0  0  0
 19 20  1  0  0  0  0
 20 21  1  0  0  0  0
 21 23  1  0  0  0  0
 22 24  1  0  0  0  0
 23 25  1  0  0  0  0
 23 24  2  0  0  0  0
 26 27  1  0  0  0  0
 27 28  1  1  0  0  0
 27 29  1  0  0  0  0
 29 31  1  0  0  0  0
 31 30  1  1  0  0  0
 31 33  1  0  0  0  0
 32 31  1  0  0  0  0
 33 34  1  6  0  0  0
 33 35  1  0  0  0  0
 35 36  1  1  0  0  0
 38 41  1  0  0  0  0
 38 39  1  0  0  0  0
 39 37  1  0  0  0  0
 40 37  1  0  0  0  0
 41 35  1  6  0  0  0
 41 40  1  0  0  0  0
 42  1  1  0  0  0  0
 42 43  1  0  0  0  0
 44 43  1  0  0  0  0
 45 50  1  0  0  0  0
 45 55  1  1  0  0  0
 46 50  1  0  0  0  0
 47 46  1  0  0  0  0
 48 44  1  6  0  0  0
 48 47  1  0  0  0  0
 48 49  1  0  0  0  0
 49 45  1  0  0  0  0
 53 56  2  0  0  0  0
 54 52  2  0  0  0  0
 55 57  2  0  0  0  0
 55 53  1  0  0  0  0
 56 52  1  0  0  0  0
 56 51  1  0  0  0  0
 57 54  1  0  0  0  0
M  END
>  <MODEL>
5

>  <REMARK>
 VINA RESULT:      -7.0      3.888      9.467
  Name = 
  17 active torsions:
  status: ('A' for Active; 'I' for Inactive)
    1  A    between atoms: C_1  and  C_22
    2  A    between atoms: C_1  and  C_24
    3  A    between atoms: C_2  and  C_40
    4  A    between atoms: C_4  and  C_44
    5  A    between atoms: N_7  and  N_46
    6  A    between atoms: C_12  and  C_37
    7  A    between atoms: C_14  and  C_54
    8  A    between atoms: C_16  and  C_24
    9  A    between atoms: C_16  and  C_28
   10  A    between atoms: C_17  and  C_39
   11  A    between atoms: C_22  and  C_39
   12  A    between atoms: N_23  and  C_26
   13  A    between atoms: N_23  and  C_40
   14  A    between atoms: C_26  and  C_31
   15  A    between atoms: C_28  and  C_56
   16  A    between atoms: C_44  and  C_45
   17  A    between atoms: C_45  and  C_54
                            x       y       z     vdW  Elec       q    Type
                         _______ _______ _______ _____ _____    ______ ____

>  <TORSDO>
F 17

$$$$
=
 OpenBabel10222417233D

 57 62  0  0  1  0  0  0  0  0999 V2000
  190.0360  177.0410  140.1790 C   0  0  0  0  0  0  0  0  0  0  0  0
  191.7730  175.9840  143.5790 S   0  0  0  0  0  0  0  0  0  0  0  0
  190.6000  176.8270  144.6320 C   0  0  0  0  0  0  0  0  0  0  0  0
  187.6980  178.8280  138.8440 C   0  0  0  0  0  1  0  0  0  0  0  0
  190.5280  176.0400  142.3340 N   0  0  0  0  0  0  0  0  0  0  0  0
  185.4610  179.0080  140.9810 C   0  0  0  0  0  0  0  0  0  0  0  0
  185.2330  179.7230  139.9660 O   0  0  0  0  0  0  0  0  0  0  0  0
  187.7110  178.2100  140.2050 C   0  0  0  0  0  0  0  0  0  0  0  0
  189.3850  176.8930  144.1900 N   0  0  0  0  0  0  0  0  0  0  0  0
  190.8870  176.3850  140.9810 C   0  0  0  0  0  3  0  0  0  0  0  0
  188.3530  177.1110  142.0060 C   0  0  0  0  0  0  0  0  0  0  0  0
  191.0180  177.4870  145.8360 N   0  0  0  0  0  2  0  0  0  0  0  0
  188.7380  177.4560  140.7370 C   0  0  0  0  0  0  0  0  0  0  0  0
  186.7140  178.3160  141.1220 N   0  0  0  0  0  0  0  0  0  0  0  0
  189.1880  176.2500  142.9040 C   0  0  1  0  0  3  0  0  0  0  0  0
  187.0930  177.6330  142.2300 C   0  0  0  0  0  3  0  0  0  0  0  0
  189.6220  177.4570  147.7610 C   0  0  0  0  0  3  0  0  0  0  0  0
  190.1630  178.0950  146.7740 N   0  0  0  0  0  0  0  0  0  0  0  0
  188.7200  178.1480  148.7180 C   0  0  0  0  0  2  0  0  0  0  0  0
  187.2730  177.7380  148.4880 C   0  0  0  0  0  2  0  0  0  0  0  0
  186.8320  178.0460  147.0620 C   0  0  0  0  0  2  0  0  0  0  0  0
  184.4870  178.1260  145.4080 C   0  0  0  0  0  1  0  0  0  0  0  0
  185.8930  179.2210  147.0190 C   0  0  0  0  0  0  0  0  0  0  0  0
  184.8450  179.2290  146.2680 N   0  0  0  0  0  0  0  0  0  0  0  0
  186.2160  180.6130  148.0420 Cl  0  0  0  0  0  0  0  0  0  0  0  0
  184.4260  178.9200  142.0650 C   0  0  0  0  0  2  0  0  0  0  0  0
  183.0220  178.7180  141.5110 C   0  0  2  0  0  3  0  0  0  0  0  0
  182.0240  178.8400  142.6460 C   0  0  0  0  0  1  0  0  0  0  0  0
  182.8980  177.3410  140.8530 C   0  0  0  0  0  2  0  0  0  0  0  0
  182.3350  176.1360  138.7420 C   0  0  0  0  0  1  0  0  0  0  0  0
  182.0000  177.3390  139.6080 C   0  0  1  0  0  0  0  0  0  0  0  0
  180.6570  177.2640  139.9860 O   0  0  0  0  0  1  0  0  0  0  0  0
  182.2500  178.6190  138.7920 C   0  0  1  0  0  3  0  0  0  0  0  0
  183.0710  178.3780  137.6820 O   0  0  0  0  0  1  0  0  0  0  0  0
  180.9780  179.3960  138.4130 C   0  0  1  0  0  3  0  0  0  0  0  0
  180.7260  180.3510  139.3990 O   0  0  0  0  0  1  0  0  0  0  0  0
  179.4340  181.6750  136.5800 C   0  0  0  0  0  2  0  0  0  0  0  0
  179.9880  179.6110  136.2080 O   0  0  0  0  0  0  0  0  0  0  0  0
  178.9350  180.3730  136.4820 O   0  0  0  0  0  0  0  0  0  0  0  0
  180.7970  181.5490  137.1740 C   0  0  0  0  0  2  0  0  0  0  0  0
  181.0250  180.0750  137.0350 C   0  0  1  0  0  3  0  0  0  0  0  0
  190.4200  177.3530  138.7720 C   0  0  0  0  0  2  0  0  0  0  0  0
  191.2190  176.2780  138.2120 N   0  0  0  0  0  2  0  0  0  0  0  0
  190.7810  176.1110  136.8340 C   0  0  0  0  0  2  0  0  0  0  0  0
  187.0050  175.3920  136.5720 C   0  0  1  0  0  3  0  0  0  0  0  0
  187.5770  177.3840  135.4130 C   0  0  0  0  0  2  0  0  0  0  0  0
  189.0050  177.0680  135.4430 N   0  0  0  0  0  2  0  0  0  0  0  0
  189.2880  176.3690  136.6960 C   0  0  1  0  0  3  0  0  0  0  0  0
  188.4860  175.0720  136.7780 C   0  0  0  0  0  2  0  0  0  0  0  0
  186.8000  176.1500  135.3340 N   0  0  0  0  0  2  0  0  0  0  0  0
  186.2480  170.6660  135.0540 C   0  0  0  0  0  1  0  0  0  0  0  0
  184.6290  171.8150  136.5680 C   0  0  0  0  0  3  0  0  0  0  0  0
  186.5930  173.0160  135.8260 C   0  0  0  0  0  3  0  0  0  0  0  0
  184.2210  172.9320  137.3030 C   0  0  0  0  0  3  0  0  0  0  0  0
  186.1870  174.1410  136.5600 C   0  0  0  0  0  0  0  0  0  0  0  0
  185.8140  171.8550  135.8290 C   0  0  0  0  0  0  0  0  0  0  0  0
  185.0020  174.0940  137.3010 C   0  0  0  0  0  3  0  0  0  0  0  0
  1 13  1  0  0  0  0
  1 10  2  0  0  0  0
  2  3  1  0  0  0  0
  3 12  1  0  0  0  0
  4  8  1  0  0  0  0
  5 15  1  0  0  0  0
  5  2  1  0  0  0  0
  6 14  1  0  0  0  0
  6 26  1  0  0  0  0
  7  6  2  0  0  0  0
  8 13  2  0  0  0  0
  8 14  1  0  0  0  0
  9  3  2  0  0  0  0
 10  5  1  0  0  0  0
 11 16  2  0  0  0  0
 12 18  1  0  0  0  0
 13 11  1  0  0  0  0
 14 16  1  0  0  0  0
 15 11  1  6  0  0  0
 15  9  1  0  0  0  0
 17 19  1  0  0  0  0
 18 17  2  0  0  0  0
 20 19  1  0  0  0  0
 21 20  1  0  0  0  0
 22 24  1  0  0  0  0
 23 21  1  0  0  0  0
 23 25  1  0  0  0  0
 24 23  2  0  0  0  0
 27 26  1  0  0  0  0
 27 28  1  1  0  0  0
 29 27  1  0  0  0  0
 31 30  1  6  0  0  0
 31 32  1  0  0  0  0
 31 29  1  0  0  0  0
 33 34  1  6  0  0  0
 33 31  1  0  0  0  0
 35 33  1  0  0  0  0
 35 36  1  1  0  0  0
 37 40  1  0  0  0  0
 38 39  1  0  0  0  0
 38 41  1  0  0  0  0
 39 37  1  0  0  0  0
 41 40  1  0  0  0  0
 41 35  1  1  0  0  0
 42  1  1  0  0  0  0
 43 42  1  0  0  0  0
 44 43  1  0  0  0  0
 45 55  1  6  0  0  0
 45 49  1  0  0  0  0
 46 47  1  0  0  0  0
 47 48  1  0  0  0  0
 48 49  1  0  0  0  0
 48 44  1  6  0  0  0
 50 46  1  0  0  0  0
 50 45  1  0  0  0  0
 51 56  1  0  0  0  0
 52 54  1  0  0  0  0
 53 56  1  0  0  0  0
 53 55  2  0  0  0  0
 55 57  1  0  0  0  0
 56 52  2  0  0  0  0
 57 54  2  0  0  0  0
M  END
>  <MODEL>
6

>  <REMARK>
 VINA RESULT:      -6.9      2.687      7.897
  Name = 
  17 active torsions:
  status: ('A' for Active; 'I' for Inactive)
    1  A    between atoms: C_1  and  C_22
    2  A    between atoms: C_1  and  C_24
    3  A    between atoms: C_2  and  C_40
    4  A    between atoms: C_4  and  C_44
    5  A    between atoms: N_7  and  N_46
    6  A    between atoms: C_12  and  C_37
    7  A    between atoms: C_14  and  C_54
    8  A    between atoms: C_16  and  C_24
    9  A    between atoms: C_16  and  C_28
   10  A    between atoms: C_17  and  C_39
   11  A    between atoms: C_22  and  C_39
   12  A    between atoms: N_23  and  C_26
   13  A    between atoms: N_23  and  C_40
   14  A    between atoms: C_26  and  C_31
   15  A    between atoms: C_28  and  C_56
   16  A    between atoms: C_44  and  C_45
   17  A    between atoms: C_45  and  C_54
                            x       y       z     vdW  Elec       q    Type
                         _______ _______ _______ _____ _____    ______ ____

>  <TORSDO>
F 17

$$$$
=
 OpenBabel10222417233D

 57 62  0  0  1  0  0  0  0  0999 V2000
  190.3450  177.0310  137.8030 C   0  0  0  0  0  0  0  0  0  0  0  0
  188.0260  176.9030  134.5940 S   0  0  0  0  0  0  0  0  0  0  0  0
  186.4870  176.9600  135.5010 C   0  0  0  0  0  0  0  0  0  0  0  0
  190.4000  176.9810  141.0340 C   0  0  0  0  0  1  0  0  0  0  0  0
  188.7730  177.5810  136.0380 N   0  0  0  0  0  0  0  0  0  0  0  0
  187.7110  178.2300  141.9340 C   0  0  0  0  0  0  0  0  0  0  0  0
  188.3900  177.7730  142.8950 O   0  0  0  0  0  0  0  0  0  0  0  0
  189.3130  177.4960  140.1460 C   0  0  0  0  0  0  0  0  0  0  0  0
  186.5040  177.6280  136.6100 N   0  0  0  0  0  0  0  0  0  0  0  0
  190.0360  177.0600  136.4990 C   0  0  0  0  0  3  0  0  0  0  0  0
  188.1380  178.0270  138.3580 C   0  0  0  0  0  0  0  0  0  0  0  0
  185.3410  176.2070  135.0740 N   0  0  0  0  0  2  0  0  0  0  0  0
  189.3310  177.4920  138.7660 C   0  0  0  0  0  0  0  0  0  0  0  0
  188.1400  178.0310  140.5760 N   0  0  0  0  0  0  0  0  0  0  0  0
  187.7880  178.2320  136.9150 C   0  0  1  0  0  3  0  0  0  0  0  0
  187.4140  178.3730  139.4830 C   0  0  0  0  0  3  0  0  0  0  0  0
  183.1680  177.1330  135.3460 C   0  0  0  0  0  3  0  0  0  0  0  0
  184.0640  176.2570  135.6640 N   0  0  0  0  0  0  0  0  0  0  0  0
  181.8370  177.1430  136.0070 C   0  0  0  0  0  2  0  0  0  0  0  0
  181.9360  177.7300  137.4080 C   0  0  0  0  0  2  0  0  0  0  0  0
  180.6060  177.6240  138.1460 C   0  0  0  0  0  2  0  0  0  0  0  0
  180.7850  179.1710  140.5570 C   0  0  0  0  0  1  0  0  0  0  0  0
  180.7830  177.0100  139.5080 C   0  0  0  0  0  0  0  0  0  0  0  0
  180.8580  177.7290  140.5750 N   0  0  0  0  0  0  0  0  0  0  0  0
  180.8620  175.2600  139.6550 Cl  0  0  0  0  0  0  0  0  0  0  0  0
  186.4230  178.9450  142.2190 C   0  0  0  0  0  2  0  0  0  0  0  0
  185.6040  178.2550  143.3020 C   0  0  2  0  0  3  0  0  0  0  0  0
  184.1450  178.2580  142.8910 C   0  0  0  0  0  1  0  0  0  0  0  0
  185.7710  178.9750  144.6420 C   0  0  0  0  0  2  0  0  0  0  0  0
  184.9240  177.9430  146.7510 C   0  0  0  0  0  1  0  0  0  0  0  0
  186.1100  178.0320  145.8040 C   0  0  1  0  0  0  0  0  0  0  0  0
  186.3960  176.7530  145.3150 O   0  0  0  0  0  1  0  0  0  0  0  0
  187.3190  178.5840  146.5790 C   0  0  1  0  0  3  0  0  0  0  0  0
  187.0250  178.7770  147.9350 O   0  0  0  0  0  1  0  0  0  0  0  0
  188.6250  177.7970  146.3760 C   0  0  1  0  0  3  0  0  0  0  0  0
  189.5060  178.5750  145.6240 O   0  0  0  0  0  1  0  0  0  0  0  0
  191.4930  176.6240  147.5300 C   0  0  0  0  0  2  0  0  0  0  0  0
  189.4410  175.9470  147.7180 O   0  0  0  0  0  0  0  0  0  0  0  0
  190.5760  175.6660  147.0890 O   0  0  0  0  0  0  0  0  0  0  0  0
  190.7110  177.8780  147.7330 C   0  0  0  0  0  2  0  0  0  0  0  0
  189.3130  177.3450  147.6740 C   0  0  1  0  0  3  0  0  0  0  0  0
  191.6740  176.5200  138.2480 C   0  0  0  0  0  2  0  0  0  0  0  0
  192.2670  175.6800  137.2220 N   0  0  0  0  0  2  0  0  0  0  0  0
  191.7940  174.3260  137.4710 C   0  0  0  0  0  2  0  0  0  0  0  0
  188.6440  173.0820  135.6330 C   0  0  1  0  0  3  0  0  0  0  0  0
  190.6150  172.2360  134.6160 C   0  0  0  0  0  2  0  0  0  0  0  0
  191.4420  172.6010  135.7660 N   0  0  0  0  0  2  0  0  0  0  0  0
  190.9060  173.8360  136.3350 C   0  0  1  0  0  3  0  0  0  0  0  0
  189.4670  173.6310  136.8000 C   0  0  0  0  0  2  0  0  0  0  0  0
  189.2710  171.8850  135.0680 N   0  0  0  0  0  2  0  0  0  0  0  0
  184.3230  170.5870  135.0650 C   0  0  0  0  0  1  0  0  0  0  0  0
  184.6260  172.2500  136.9040 C   0  0  0  0  0  3  0  0  0  0  0  0
  186.4580  171.8470  135.3750 C   0  0  0  0  0  3  0  0  0  0  0  0
  185.4060  173.1820  137.5940 C   0  0  0  0  0  3  0  0  0  0  0  0
  187.2430  172.7840  136.0630 C   0  0  0  0  0  0  0  0  0  0  0  0
  185.1510  171.5810  135.7940 C   0  0  0  0  0  0  0  0  0  0  0  0
  186.7150  173.4470  137.1750 C   0  0  0  0  0  3  0  0  0  0  0  0
  1 42  1  0  0  0  0
  1 13  1  0  0  0  0
  2  3  1  0  0  0  0
  2  5  1  0  0  0  0
  3  9  2  0  0  0  0
  5 10  1  0  0  0  0
  5 15  1  0  0  0  0
  6 26  1  0  0  0  0
  6  7  2  0  0  0  0
  8 14  1  0  0  0  0
  8  4  1  0  0  0  0
 10  1  2  0  0  0  0
 11 13  1  0  0  0  0
 11 16  2  0  0  0  0
 12  3  1  0  0  0  0
 12 18  1  0  0  0  0
 13  8  2  0  0  0  0
 14  6  1  0  0  0  0
 15  9  1  1  0  0  0
 15 11  1  0  0  0  0
 16 14  1  0  0  0  0
 17 18  2  0  0  0  0
 17 19  1  0  0  0  0
 19 20  1  0  0  0  0
 20 21  1  0  0  0  0
 21 23  1  0  0  0  0
 22 24  1  0  0  0  0
 23 25  1  0  0  0  0
 23 24  2  0  0  0  0
 26 27  1  0  0  0  0
 27 28  1  6  0  0  0
 27 29  1  0  0  0  0
 29 31  1  0  0  0  0
 31 33  1  0  0  0  0
 31 30  1  1  0  0  0
 32 31  1  0  0  0  0
 33 34  1  1  0  0  0
 35 36  1  1  0  0  0
 35 33  1  0  0  0  0
 37 40  1  0  0  0  0
 39 37  1  0  0  0  0
 39 38  1  0  0  0  0
 41 35  1  6  0  0  0
 41 38  1  0  0  0  0
 41 40  1  0  0  0  0
 43 44  1  0  0  0  0
 43 42  1  0  0  0  0
 45 55  1  1  0  0  0
 45 49  1  0  0  0  0
 46 50  1  0  0  0  0
 46 47  1  0  0  0  0
 47 48  1  0  0  0  0
 48 49  1  0  0  0  0
 48 44  1  1  0  0  0
 50 45  1  0  0  0  0
 51 56  1  0  0  0  0
 52 54  1  0  0  0  0
 53 56  1  0  0  0  0
 53 55  2  0  0  0  0
 55 57  1  0  0  0  0
 56 52  2  0  0  0  0
 57 54  2  0  0  0  0
M  END
>  <MODEL>
7

>  <REMARK>
 VINA RESULT:      -6.9      4.217      8.928
  Name = 
  17 active torsions:
  status: ('A' for Active; 'I' for Inactive)
    1  A    between atoms: C_1  and  C_22
    2  A    between atoms: C_1  and  C_24
    3  A    between atoms: C_2  and  C_40
    4  A    between atoms: C_4  and  C_44
    5  A    between atoms: N_7  and  N_46
    6  A    between atoms: C_12  and  C_37
    7  A    between atoms: C_14  and  C_54
    8  A    between atoms: C_16  and  C_24
    9  A    between atoms: C_16  and  C_28
   10  A    between atoms: C_17  and  C_39
   11  A    between atoms: C_22  and  C_39
   12  A    between atoms: N_23  and  C_26
   13  A    between atoms: N_23  and  C_40
   14  A    between atoms: C_26  and  C_31
   15  A    between atoms: C_28  and  C_56
   16  A    between atoms: C_44  and  C_45
   17  A    between atoms: C_45  and  C_54
                            x       y       z     vdW  Elec       q    Type
                         _______ _______ _______ _____ _____    ______ ____

>  <TORSDO>
F 17

$$$$
=
 OpenBabel10222417233D

 57 62  0  0  1  0  0  0  0  0999 V2000
  188.2680  177.0460  136.2770 C   0  0  0  0  0  0  0  0  0  0  0  0
  184.8930  175.7280  134.6730 S   0  0  0  0  0  0  0  0  0  0  0  0
  183.9700  175.7370  136.2040 C   0  0  0  0  0  0  0  0  0  0  0  0
  189.7690  177.8040  139.0360 C   0  0  0  0  0  1  0  0  0  0  0  0
  185.9910  176.8610  135.4580 N   0  0  0  0  0  0  0  0  0  0  0  0
  187.5370  178.7470  140.9690 C   0  0  0  0  0  0  0  0  0  0  0  0
  188.6690  178.6680  141.5220 O   0  0  0  0  0  0  0  0  0  0  0  0
  188.3060  177.8870  138.7400 C   0  0  0  0  0  0  0  0  0  0  0  0
  184.2980  176.6510  137.0600 N   0  0  0  0  0  0  0  0  0  0  0  0
  187.4150  176.6980  135.3030 C   0  0  0  0  0  3  0  0  0  0  0  0
  186.3620  177.7470  137.7090 C   0  0  0  0  0  0  0  0  0  0  0  0
  183.0070  174.7150  136.5000 N   0  0  0  0  0  2  0  0  0  0  0  0
  187.7070  177.5460  137.5430 C   0  0  0  0  0  0  0  0  0  0  0  0
  187.3520  178.2980  139.6150 N   0  0  0  0  0  0  0  0  0  0  0  0
  185.3650  177.5260  136.6120 C   0  0  1  0  0  3  0  0  0  0  0  0
  186.1530  178.2280  138.9870 C   0  0  0  0  0  3  0  0  0  0  0  0
  181.1020  175.4090  137.7420 C   0  0  0  0  0  3  0  0  0  0  0  0
  182.1670  174.6850  137.6290 N   0  0  0  0  0  0  0  0  0  0  0  0
  180.2550  175.3420  138.9610 C   0  0  0  0  0  2  0  0  0  0  0  0
  179.9330  176.7390  139.4710 C   0  0  0  0  0  2  0  0  0  0  0  0
  181.1130  177.3360  140.2290 C   0  0  0  0  0  2  0  0  0  0  0  0
  181.0820  180.1390  139.6080 C   0  0  0  0  0  1  0  0  0  0  0  0
  180.6640  178.3910  141.2030 C   0  0  0  0  0  0  0  0  0  0  0  0
  180.6580  179.6430  140.8970 N   0  0  0  0  0  0  0  0  0  0  0  0
  180.1040  177.9030  142.7950 Cl  0  0  0  0  0  0  0  0  0  0  0  0
  186.3720  179.2750  141.7530 C   0  0  0  0  0  2  0  0  0  0  0  0
  185.8900  178.2890  142.8090 C   0  0  2  0  0  3  0  0  0  0  0  0
  184.3780  178.1990  142.7440 C   0  0  0  0  0  1  0  0  0  0  0  0
  186.3260  178.7420  144.2050 C   0  0  0  0  0  2  0  0  0  0  0  0
  186.0370  177.4700  146.3320 C   0  0  0  0  0  1  0  0  0  0  0  0
  186.8770  177.6020  145.0720 C   0  0  1  0  0  0  0  0  0  0  0  0
  186.8280  176.3960  144.3660 O   0  0  0  0  0  1  0  0  0  0  0  0
  188.3270  177.9190  145.4770 C   0  0  1  0  0  3  0  0  0  0  0  0
  188.7430  177.1490  146.5720 O   0  0  0  0  0  1  0  0  0  0  0  0
  189.3410  177.8750  144.3210 C   0  0  1  0  0  3  0  0  0  0  0  0
  190.1700  178.9930  144.4090 O   0  0  0  0  0  1  0  0  0  0  0  0
  191.7910  176.4600  142.6100 C   0  0  0  0  0  2  0  0  0  0  0  0
  189.8130  175.7830  143.1860 O   0  0  0  0  0  0  0  0  0  0  0  0
  190.4980  176.2190  142.1360 O   0  0  0  0  0  0  0  0  0  0  0  0
  191.6310  176.9480  144.0110 C   0  0  0  0  0  2  0  0  0  0  0  0
  190.1970  176.5990  144.2630 C   0  0  1  0  0  3  0  0  0  0  0  0
  189.7380  176.9000  136.0740 C   0  0  0  0  0  2  0  0  0  0  0  0
  190.0250  176.4500  134.7240 N   0  0  0  0  0  2  0  0  0  0  0  0
  191.4630  176.2350  134.6540 C   0  0  0  0  0  2  0  0  0  0  0  0
  193.7580  174.2360  137.0160 C   0  0  1  0  0  3  0  0  0  0  0  0
  192.0770  172.8450  136.0790 C   0  0  0  0  0  2  0  0  0  0  0  0
  191.7380  173.8340  135.0560 N   0  0  0  0  0  2  0  0  0  0  0  0
  191.9080  175.1640  135.6390 C   0  0  1  0  0  3  0  0  0  0  0  0
  193.3550  175.3750  136.0790 C   0  0  0  0  0  2  0  0  0  0  0  0
  193.5010  172.9330  136.3980 N   0  0  0  0  0  2  0  0  0  0  0  0
  198.5920  174.8550  135.8060 C   0  0  0  0  0  1  0  0  0  0  0  0
  197.8780  174.5730  138.1820 C   0  0  0  0  0  3  0  0  0  0  0  0
  196.1970  174.5430  136.4420 C   0  0  0  0  0  3  0  0  0  0  0  0
  196.8840  174.3870  139.1470 C   0  0  0  0  0  3  0  0  0  0  0  0
  195.1960  174.3530  137.4070 C   0  0  0  0  0  0  0  0  0  0  0  0
  197.5360  174.6510  136.8290 C   0  0  0  0  0  0  0  0  0  0  0  0
  195.5430  174.2800  138.7590 C   0  0  0  0  0  3  0  0  0  0  0  0
  1 13  1  0  0  0  0
  2  5  1  0  0  0  0
  2  3  1  0  0  0  0
  3 12  1  0  0  0  0
  3  9  2  0  0  0  0
  5 15  1  0  0  0  0
  6  7  2  0  0  0  0
  6 26  1  0  0  0  0
  8  4  1  0  0  0  0
  8 14  1  0  0  0  0
 10  5  1  0  0  0  0
 10  1  2  0  0  0  0
 11 16  2  0  0  0  0
 12 18  1  0  0  0  0
 13 11  1  0  0  0  0
 13  8  2  0  0  0  0
 14  6  1  0  0  0  0
 15  9  1  1  0  0  0
 15 11  1  0  0  0  0
 16 14  1  0  0  0  0
 17 19  1  0  0  0  0
 18 17  2  0  0  0  0
 19 20  1  0  0  0  0
 20 21  1  0  0  0  0
 21 23  1  0  0  0  0
 22 24  1  0  0  0  0
 23 25  1  0  0  0  0
 24 23  2  0  0  0  0
 26 27  1  0  0  0  0
 27 28  1  1  0  0  0
 27 29  1  0  0  0  0
 29 31  1  0  0  0  0
 31 33  1  0  0  0  0
 31 30  1  1  0  0  0
 32 31  1  0  0  0  0
 33 34  1  1  0  0  0
 35 36  1  1  0  0  0
 35 33  1  0  0  0  0
 37 40  1  0  0  0  0
 38 41  1  0  0  0  0
 39 37  1  0  0  0  0
 39 38  1  0  0  0  0
 40 41  1  0  0  0  0
 41 35  1  6  0  0  0
 42  1  1  0  0  0  0
 43 42  1  0  0  0  0
 44 43  1  0  0  0  0
 45 55  1  6  0  0  0
 46 50  1  0  0  0  0
 47 48  1  0  0  0  0
 47 46  1  0  0  0  0
 48 44  1  6  0  0  0
 48 49  1  0  0  0  0
 49 45  1  0  0  0  0
 50 45  1  0  0  0  0
 51 56  1  0  0  0  0
 52 54  1  0  0  0  0
 53 56  1  0  0  0  0
 53 55  2  0  0  0  0
 55 57  1  0  0  0  0
 56 52  2  0  0  0  0
 57 54  2  0  0  0  0
M  END
>  <MODEL>
8

>  <REMARK>
 VINA RESULT:      -6.8      4.279      9.357
  Name = 
  17 active torsions:
  status: ('A' for Active; 'I' for Inactive)
    1  A    between atoms: C_1  and  C_22
    2  A    between atoms: C_1  and  C_24
    3  A    between atoms: C_2  and  C_40
    4  A    between atoms: C_4  and  C_44
    5  A    between atoms: N_7  and  N_46
    6  A    between atoms: C_12  and  C_37
    7  A    between atoms: C_14  and  C_54
    8  A    between atoms: C_16  and  C_24
    9  A    between atoms: C_16  and  C_28
   10  A    between atoms: C_17  and  C_39
   11  A    between atoms: C_22  and  C_39
   12  A    between atoms: N_23  and  C_26
   13  A    between atoms: N_23  and  C_40
   14  A    between atoms: C_26  and  C_31
   15  A    between atoms: C_28  and  C_56
   16  A    between atoms: C_44  and  C_45
   17  A    between atoms: C_45  and  C_54
                            x       y       z     vdW  Elec       q    Type
                         _______ _______ _______ _____ _____    ______ ____

>  <TORSDO>
F 17

$$$$
=
 OpenBabel10222417233D

 57 62  0  0  1  0  0  0  0  0999 V2000
  191.2380  177.2020  140.1950 C   0  0  0  0  0  0  0  0  0  0  0  0
  191.5470  176.5820  144.0960 S   0  0  0  0  0  0  0  0  0  0  0  0
  189.9370  177.2500  144.4960 C   0  0  0  0  0  0  0  0  0  0  0  0
  189.4330  178.5130  137.8570 C   0  0  0  0  0  1  0  0  0  0  0  0
  190.9320  176.3790  142.4580 N   0  0  0  0  0  0  0  0  0  0  0  0
  186.5120  178.3850  138.8860 C   0  0  0  0  0  0  0  0  0  0  0  0
  186.6260  179.0130  137.7970 O   0  0  0  0  0  0  0  0  0  0  0  0
  188.9700  177.9560  139.1650 C   0  0  0  0  0  0  0  0  0  0  0  0
  189.0170  177.0910  143.5990 N   0  0  0  0  0  0  0  0  0  0  0  0
  191.7650  176.7310  141.3350 C   0  0  0  0  0  3  0  0  0  0  0  0
  188.9590  177.0500  141.1750 C   0  0  0  0  0  0  0  0  0  0  0  0
  189.7230  178.0150  145.6910 N   0  0  0  0  0  2  0  0  0  0  0  0
  189.7810  177.4080  140.1390 C   0  0  0  0  0  0  0  0  0  0  0  0
  187.6790  177.9230  139.5890 N   0  0  0  0  0  0  0  0  0  0  0  0
  189.4610  176.3770  142.4170 C   0  0  1  0  0  3  0  0  0  0  0  0
  187.6590  177.3560  140.8200 C   0  0  0  0  0  3  0  0  0  0  0  0
  187.5990  177.7620  146.7300 C   0  0  0  0  0  3  0  0  0  0  0  0
  188.4810  178.5020  146.1400 N   0  0  0  0  0  0  0  0  0  0  0  0
  186.2990  178.3280  147.1760 C   0  0  0  0  0  2  0  0  0  0  0  0
  185.7270  179.2620  146.1200 C   0  0  0  0  0  2  0  0  0  0  0  0
  184.3820  178.7600  145.6090 C   0  0  0  0  0  2  0  0  0  0  0  0
  182.0060  178.9940  144.0150 C   0  0  0  0  0  1  0  0  0  0  0  0
  184.3790  178.6290  144.1100 C   0  0  0  0  0  0  0  0  0  0  0  0
  183.2970  178.7400  143.4190 N   0  0  0  0  0  0  0  0  0  0  0  0
  185.8970  178.3420  143.2730 Cl  0  0  0  0  0  0  0  0  0  0  0  0
  185.1470  178.1610  139.4670 C   0  0  0  0  0  2  0  0  0  0  0  0
  184.0400  178.3670  138.4400 C   0  0  2  0  0  3  0  0  0  0  0  0
  183.3530  179.6890  138.7170 C   0  0  0  0  0  1  0  0  0  0  0  0
  183.0230  177.2250  138.5120 C   0  0  0  0  0  2  0  0  0  0  0  0
  182.0920  177.0490  136.2030 C   0  0  0  0  0  1  0  0  0  0  0  0
  182.9750  176.3700  137.2380 C   0  0  1  0  0  0  0  0  0  0  0  0
  184.2610  176.2240  136.7100 O   0  0  0  0  0  1  0  0  0  0  0  0
  182.3780  174.9910  137.5660 C   0  0  1  0  0  3  0  0  0  0  0  0
  181.5450  175.0370  138.6930 O   0  0  0  0  0  1  0  0  0  0  0  0
  181.7030  174.2850  136.3780 C   0  0  1  0  0  3  0  0  0  0  0  0
  182.6880  173.6650  135.6070 O   0  0  0  0  0  1  0  0  0  0  0  0
  180.8310  171.1290  135.9160 C   0  0  0  0  0  2  0  0  0  0  0  0
  179.7630  173.0030  135.6880 O   0  0  0  0  0  0  0  0  0  0  0  0
  180.3400  172.0410  134.9770 O   0  0  0  0  0  0  0  0  0  0  0  0
  181.2600  171.9410  137.0920 C   0  0  0  0  0  2  0  0  0  0  0  0
  180.6270  173.2580  136.7650 C   0  0  1  0  0  3  0  0  0  0  0  0
  192.1200  177.5230  139.0370 C   0  0  0  0  0  2  0  0  0  0  0  0
  193.3510  176.7550  139.1050 N   0  0  0  0  0  2  0  0  0  0  0  0
  193.1920  175.6370  138.1860 C   0  0  0  0  0  2  0  0  0  0  0  0
  189.9220  175.0210  136.2440 C   0  0  1  0  0  3  0  0  0  0  0  0
  191.4190  176.3710  134.9900 C   0  0  0  0  0  2  0  0  0  0  0  0
  192.5490  176.0360  135.8560 N   0  0  0  0  0  2  0  0  0  0  0  0
  192.0430  175.8780  137.2180 C   0  0  1  0  0  3  0  0  0  0  0  0
  191.0150  174.7510  137.2790 C   0  0  0  0  0  2  0  0  0  0  0  0
  190.5010  175.2370  134.9160 N   0  0  0  0  0  2  0  0  0  0  0  0
  185.5230  173.0110  137.5940 C   0  0  0  0  0  1  0  0  0  0  0  0
  187.1080  171.7790  136.1080 C   0  0  0  0  0  3  0  0  0  0  0  0
  187.7200  173.9810  136.9050 C   0  0  0  0  0  3  0  0  0  0  0  0
  188.3150  171.6950  135.4090 C   0  0  0  0  0  3  0  0  0  0  0  0
  188.9350  173.8990  136.2080 C   0  0  0  0  0  0  0  0  0  0  0  0
  186.8080  172.9210  136.8560 C   0  0  0  0  0  0  0  0  0  0  0  0
  189.2270  172.7570  135.4570 C   0  0  0  0  0  3  0  0  0  0  0  0
  1 10  2  0  0  0  0
  2  3  1  0  0  0  0
  3 12  1  0  0  0  0
  4  8  1  0  0  0  0
  5  2  1  0  0  0  0
  6 26  1  0  0  0  0
  6 14  1  0  0  0  0
  7  6  2  0  0  0  0
  8 14  1  0  0  0  0
  8 13  2  0  0  0  0
  9  3  2  0  0  0  0
 10  5  1  0  0  0  0
 12 18  1  0  0  0  0
 13  1  1  0  0  0  0
 13 11  1  0  0  0  0
 14 16  1  0  0  0  0
 15 11  1  6  0  0  0
 15  5  1  0  0  0  0
 15  9  1  0  0  0  0
 16 11  2  0  0  0  0
 17 19  1  0  0  0  0
 18 17  2  0  0  0  0
 20 19  1  0  0  0  0
 21 20  1  0  0  0  0
 23 21  1  0  0  0  0
 24 22  1  0  0  0  0
 24 23  2  0  0  0  0
 25 23  1  0  0  0  0
 27 29  1  0  0  0  0
 27 28  1  1  0  0  0
 27 26  1  0  0  0  0
 31 30  1  6  0  0  0
 31 33  1  0  0  0  0
 31 29  1  0  0  0  0
 32 31  1  0  0  0  0
 33 34  1  1  0  0  0
 35 36  1  1  0  0  0
 35 33  1  0  0  0  0
 37 40  1  0  0  0  0
 38 41  1  0  0  0  0
 39 38  1  0  0  0  0
 39 37  1  0  0  0  0
 41 35  1  6  0  0  0
 41 40  1  0  0  0  0
 42 43  1  0  0  0  0
 42  1  1  0  0  0  0
 44 43  1  0  0  0  0
 45 55  1  6  0  0  0
 45 49  1  0  0  0  0
 46 47  1  0  0  0  0
 47 48  1  0  0  0  0
 48 49  1  0  0  0  0
 48 44  1  1  0  0  0
 50 46  1  0  0  0  0
 50 45  1  0  0  0  0
 52 56  1  0  0  0  0
 54 57  1  0  0  0  0
 54 52  2  0  0  0  0
 55 53  1  0  0  0  0
 56 53  2  0  0  0  0
 56 51  1  0  0  0  0
 57 55  2  0  0  0  0
M  END
>  <MODEL>
9

>  <REMARK>
 VINA RESULT:      -6.5      3.361      8.259
  Name = 
  17 active torsions:
  status: ('A' for Active; 'I' for Inactive)
    1  A    between atoms: C_1  and  C_22
    2  A    between atoms: C_1  and  C_24
    3  A    between atoms: C_2  and  C_40
    4  A    between atoms: C_4  and  C_44
    5  A    between atoms: N_7  and  N_46
    6  A    between atoms: C_12  and  C_37
    7  A    between atoms: C_14  and  C_54
    8  A    between atoms: C_16  and  C_24
    9  A    between atoms: C_16  and  C_28
   10  A    between atoms: C_17  and  C_39
   11  A    between atoms: C_22  and  C_39
   12  A    between atoms: N_23  and  C_26
   13  A    between atoms: N_23  and  C_40
   14  A    between atoms: C_26  and  C_31
   15  A    between atoms: C_28  and  C_56
   16  A    between atoms: C_44  and  C_45
   17  A    between atoms: C_45  and  C_54
                            x       y       z     vdW  Elec       q    Type
                         _______ _______ _______ _____ _____    ______ ____

>  <TORSDO>
F 17

$$$$
