=
 OpenBabel10222419533D

 37 39  0  0  1  0  0  0  0  0999 V2000
  187.3420  178.1080  144.1480 C   0  0  2  0  0  3  0  0  0  0  0  0
  188.4430  177.7160  145.0860 C   0  0  0  0  0  0  0  0  0  0  0  0
  191.6150  176.6690  147.6280 N   0  0  0  0  0  1  0  0  0  0  0  0
  190.5340  177.0280  146.7760 C   0  0  0  0  0  0  0  0  0  0  0  0
  190.7790  177.4250  145.4970 N   0  0  0  0  0  0  0  0  0  0  0  0
  188.1730  177.3160  146.4000 C   0  0  0  0  0  3  0  0  0  0  0  0
  189.2220  176.9680  147.2510 C   0  0  0  0  0  3  0  0  0  0  0  0
  189.7700  177.7690  144.6520 C   0  0  0  0  0  3  0  0  0  0  0  0
  185.9720  177.9740  144.8410 C   0  0  1  0  0  3  0  0  0  0  0  0
  185.6700  179.1470  145.7550 C   0  0  0  0  0  2  0  0  0  0  0  0
  184.9730  179.0360  144.4100 C   0  0  2  0  0  3  0  0  0  0  0  0
  183.5720  178.5020  144.6140 C   0  0  0  0  0  2  0  0  0  0  0  0
  182.5780  179.3780  143.8740 C   0  0  0  0  0  2  0  0  0  0  0  0
  181.3560  178.5670  143.4800 C   0  0  1  0  0  3  0  0  0  0  0  0
  180.4010  178.6530  144.4920 O   0  0  0  0  0  1  0  0  0  0  0  0
  180.7720  179.1040  142.1820 C   0  0  0  0  0  2  0  0  0  0  0  0
  180.4330  177.9640  141.2240 C   0  0  1  0  0  3  0  0  0  0  0  0
  179.3180  177.2500  141.6770 O   0  0  0  0  0  1  0  0  0  0  0  0
  180.2700  178.3940  139.8860 O   0  0  0  0  0  0  0  0  0  0  0  0
  181.0650  177.4500  137.9620 O   0  0  0  0  0  1  0  0  0  0  0  0
  181.4300  178.0700  139.1580 C   0  0  1  0  0  3  0  0  0  0  0  0
  182.2150  179.3390  138.8640 C   0  0  0  0  0  2  0  0  0  0  0  0
  184.3680  180.3450  139.1070 O   0  0  0  0  0  1  0  0  0  0  0  0
  183.9140  178.4110  140.4060 C   0  0  0  0  0  1  0  0  0  0  0  0
  183.7020  179.1180  139.0850 C   0  0  1  0  0  3  0  0  0  0  0  0
  187.4910  177.4230  142.7800 C   0  0  0  0  0  2  0  0  0  0  0  0
  187.3470  178.4250  141.6440 C   0  0  0  0  0  2  0  0  0  0  0  0
  188.5220  178.4660  140.8930 O   0  0  0  0  0  0  0  0  0  0  0  0
  189.0740  177.1920  141.0320 C   0  0  0  0  0  2  0  0  0  0  0  0
  191.3000  177.5580  140.2780 O   0  0  0  0  0  0  0  0  0  0  0  0
  190.1810  177.0220  140.0540 C   0  0  0  0  0  0  0  0  0  0  0  0
  189.9830  176.2390  138.9190 O   0  0  0  0  0  0  0  0  0  0  0  0
  188.6920  177.5450  137.5150 C   0  0  0  0  0  0  0  0  0  0  0  0
  189.1000  178.9740  137.1720 C   0  0  0  0  0  2  0  0  0  0  0  0
  187.8900  178.4700  136.6060 C   0  0  2  0  0  3  0  0  0  0  0  0
  188.8780  176.4180  138.1200 N   0  0  0  0  0  0  0  0  0  0  0  0
  186.7910  178.9530  137.3170 O   0  0  0  0  0  1  0  0  0  0  0  0
  1 26  1  6  0  0  0
  1  2  1  0  0  0  0
  2  6  1  0  0  0  0
  4  7  1  0  0  0  0
  4  3  1  0  0  0  0
  5  4  2  0  0  0  0
  6  7  2  0  0  0  0
  8  2  2  0  0  0  0
  8  5  1  0  0  0  0
  9  1  1  6  0  0  0
  9 10  1  0  0  0  0
 11 12  1  1  0  0  0
 11  9  1  0  0  0  0
 11 10  1  0  0  0  0
 13 12  1  0  0  0  0
 14 13  1  0  0  0  0
 14 15  1  1  0  0  0
 16 14  1  0  0  0  0
 17 18  1  1  0  0  0
 17 16  1  0  0  0  0
 19 17  1  0  0  0  0
 21 20  1  6  0  0  0
 21 19  1  0  0  0  0
 22 25  1  0  0  0  0
 22 21  1  0  0  0  0
 25 23  1  0  0  0  0
 25 24  1  1  0  0  0
 27 26  1  0  0  0  0
 28 29  1  0  0  0  0
 28 27  1  0  0  0  0
 31 30  2  0  0  0  0
 31 29  1  0  0  0  0
 32 31  1  0  0  0  0
 33 36  2  0  0  0  0
 34 33  1  0  0  0  0
 35 34  1  0  0  0  0
 35 37  1  1  0  0  0
 35 33  1  0  0  0  0
 36 32  1  0  0  0  0
M  END
>  <MODEL>
1

>  <REMARK>
 VINA RESULT:      -7.3      0.000      0.000
  Name = 
  18 active torsions:
  status: ('A' for Active; 'I' for Inactive)
    1  A    between atoms: C_1  and  C_19
    2  A    between atoms: O_4  and  N_23
    3  A    between atoms: O_4  and  C_31
    4  A    between atoms: C_5  and  C_19
    5  A    between atoms: C_10  and  O_25
    6  A    between atoms: C_10  and  C_33
    7  A    between atoms: C_12  and  C_18
    8  A    between atoms: C_12  and  C_33
    9  A    between atoms: C_17  and  C_19
   10  A    between atoms: C_17  and  C_29
   11  A    between atoms: C_18  and  C_30
   12  A    between atoms: C_20  and  C_28
   13  A    between atoms: O_25  and  C_26
   14  A    between atoms: C_26  and  C_28
   15  A    between atoms: C_29  and  O_37
   16  A    between atoms: C_30  and  C_35
   17  A    between atoms: C_31  and  C_34
   18  A    between atoms: C_34  and  O_37
                            x       y       z     vdW  Elec       q    Type
                         _______ _______ _______ _____ _____    ______ ____

>  <TORSDO>
F 18

$$$$
=
 OpenBabel10222419533D

 37 39  0  0  1  0  0  0  0  0999 V2000
  187.8440  177.8510  144.4330 C   0  0  2  0  0  3  0  0  0  0  0  0
  188.9630  177.4460  145.3440 C   0  0  0  0  0  0  0  0  0  0  0  0
  192.1840  176.3530  147.8040 N   0  0  0  0  0  1  0  0  0  0  0  0
  191.0870  176.7280  146.9800 C   0  0  0  0  0  0  0  0  0  0  0  0
  191.2960  177.0470  145.6730 N   0  0  0  0  0  0  0  0  0  0  0  0
  188.7300  177.1280  146.6870 C   0  0  0  0  0  3  0  0  0  0  0  0
  189.7950  176.7650  147.5110 C   0  0  0  0  0  3  0  0  0  0  0  0
  190.2700  177.4030  144.8530 C   0  0  0  0  0  3  0  0  0  0  0  0
  186.4880  177.7160  145.1540 C   0  0  1  0  0  3  0  0  0  0  0  0
  186.3910  178.6160  146.3720 C   0  0  0  0  0  2  0  0  0  0  0  0
  185.6490  178.9830  145.0990 C   0  0  2  0  0  3  0  0  0  0  0  0
  184.1900  178.6100  145.2430 C   0  0  0  0  0  2  0  0  0  0  0  0
  183.3430  179.5020  144.3530 C   0  0  0  0  0  2  0  0  0  0  0  0
  182.5360  178.6600  143.3820 C   0  0  1  0  0  3  0  0  0  0  0  0
  181.1760  178.8690  143.6110 O   0  0  0  0  0  1  0  0  0  0  0  0
  182.8770  179.0470  141.9510 C   0  0  0  0  0  2  0  0  0  0  0  0
  184.3830  178.9650  141.7080 C   0  0  1  0  0  3  0  0  0  0  0  0
  184.8260  177.6400  141.7840 O   0  0  0  0  0  1  0  0  0  0  0  0
  184.7840  179.5820  140.5000 O   0  0  0  0  0  0  0  0  0  0  0  0
  183.4730  180.5810  138.9170 O   0  0  0  0  0  1  0  0  0  0  0  0
  183.7920  179.3660  139.5250 C   0  0  1  0  0  3  0  0  0  0  0  0
  184.3100  178.3870  138.4840 C   0  0  0  0  0  2  0  0  0  0  0  0
  183.5940  176.7910  136.8570 O   0  0  0  0  0  1  0  0  0  0  0  0
  182.9040  176.4450  139.1010 C   0  0  0  0  0  1  0  0  0  0  0  0
  183.2010  177.4590  138.0170 C   0  0  1  0  0  3  0  0  0  0  0  0
  187.9600  177.1780  143.0560 C   0  0  0  0  0  2  0  0  0  0  0  0
  188.0600  178.2120  141.9450 C   0  0  0  0  0  2  0  0  0  0  0  0
  189.3220  178.1530  141.3510 O   0  0  0  0  0  0  0  0  0  0  0  0
  189.1710  177.2620  140.2880 C   0  0  0  0  0  2  0  0  0  0  0  0
  190.4980  177.3080  138.3150 O   0  0  0  0  0  0  0  0  0  0  0  0
  189.6480  177.9010  139.0330 C   0  0  0  0  0  0  0  0  0  0  0  0
  189.1220  179.1310  138.6430 O   0  0  0  0  0  0  0  0  0  0  0  0
  187.9470  178.4720  136.7660 C   0  0  0  0  0  0  0  0  0  0  0  0
  187.1760  177.1560  136.7400 C   0  0  0  0  0  2  0  0  0  0  0  0
  187.1570  177.9650  135.5640 C   0  0  2  0  0  3  0  0  0  0  0  0
  188.7000  179.3430  137.3520 N   0  0  0  0  0  0  0  0  0  0  0  0
  188.0510  177.4600  134.6210 O   0  0  0  0  0  1  0  0  0  0  0  0
  1 26  1  6  0  0  0
  1  2  1  0  0  0  0
  2  6  1  0  0  0  0
  4  7  1  0  0  0  0
  4  3  1  0  0  0  0
  5  4  2  0  0  0  0
  6  7  2  0  0  0  0
  8  2  2  0  0  0  0
  8  5  1  0  0  0  0
  9  1  1  6  0  0  0
  9 10  1  0  0  0  0
 11  9  1  0  0  0  0
 11 12  1  1  0  0  0
 11 10  1  0  0  0  0
 13 12  1  0  0  0  0
 14 15  1  1  0  0  0
 14 13  1  0  0  0  0
 16 14  1  0  0  0  0
 17 18  1  6  0  0  0
 17 16  1  0  0  0  0
 19 17  1  0  0  0  0
 21 20  1  6  0  0  0
 21 19  1  0  0  0  0
 22 21  1  0  0  0  0
 23 25  1  0  0  0  0
 25 22  1  0  0  0  0
 25 24  1  1  0  0  0
 27 26  1  0  0  0  0
 28 27  1  0  0  0  0
 29 28  1  0  0  0  0
 30 31  2  0  0  0  0
 31 29  1  0  0  0  0
 32 31  1  0  0  0  0
 33 36  2  0  0  0  0
 34 33  1  0  0  0  0
 35 37  1  6  0  0  0
 35 34  1  0  0  0  0
 35 33  1  0  0  0  0
 36 32  1  0  0  0  0
M  END
>  <MODEL>
2

>  <REMARK>
 VINA RESULT:      -7.2      1.605      2.281
  Name = 
  18 active torsions:
  status: ('A' for Active; 'I' for Inactive)
    1  A    between atoms: C_1  and  C_19
    2  A    between atoms: O_4  and  N_23
    3  A    between atoms: O_4  and  C_31
    4  A    between atoms: C_5  and  C_19
    5  A    between atoms: C_10  and  O_25
    6  A    between atoms: C_10  and  C_33
    7  A    between atoms: C_12  and  C_18
    8  A    between atoms: C_12  and  C_33
    9  A    between atoms: C_17  and  C_19
   10  A    between atoms: C_17  and  C_29
   11  A    between atoms: C_18  and  C_30
   12  A    between atoms: C_20  and  C_28
   13  A    between atoms: O_25  and  C_26
   14  A    between atoms: C_26  and  C_28
   15  A    between atoms: C_29  and  O_37
   16  A    between atoms: C_30  and  C_35
   17  A    between atoms: C_31  and  C_34
   18  A    between atoms: C_34  and  O_37
                            x       y       z     vdW  Elec       q    Type
                         _______ _______ _______ _____ _____    ______ ____

>  <TORSDO>
F 18

$$$$
=
 OpenBabel10222419533D

 37 39  0  0  1  0  0  0  0  0999 V2000
  184.6320  178.5550  141.2500 C   0  0  2  0  0  3  0  0  0  0  0  0
  183.4030  178.6400  142.1030 C   0  0  0  0  0  0  0  0  0  0  0  0
  179.8870  178.8390  144.3870 N   0  0  0  0  0  1  0  0  0  0  0  0
  181.0840  178.7660  143.6220 C   0  0  0  0  0  0  0  0  0  0  0  0
  181.0190  178.6290  142.2690 N   0  0  0  0  0  0  0  0  0  0  0  0
  183.4890  178.7750  143.4940 C   0  0  0  0  0  3  0  0  0  0  0  0
  182.3250  178.8410  144.2600 C   0  0  0  0  0  3  0  0  0  0  0  0
  182.1430  178.5640  141.5050 C   0  0  0  0  0  3  0  0  0  0  0  0
  185.8800  178.9500  142.0650 C   0  0  1  0  0  3  0  0  0  0  0  0
  186.2920  177.8710  143.0490 C   0  0  0  0  0  2  0  0  0  0  0  0
  187.0900  178.0770  141.7740 C   0  0  2  0  0  3  0  0  0  0  0  0
  188.3460  178.8600  142.0890 C   0  0  0  0  0  2  0  0  0  0  0  0
  189.2910  178.0020  142.9110 C   0  0  0  0  0  2  0  0  0  0  0  0
  190.6860  178.5990  142.8980 C   0  0  1  0  0  3  0  0  0  0  0  0
  190.7880  179.5530  143.9100 O   0  0  0  0  0  1  0  0  0  0  0  0
  191.7210  177.5060  143.1240 C   0  0  0  0  0  2  0  0  0  0  0  0
  191.3510  176.6460  144.3310 C   0  0  1  0  0  3  0  0  0  0  0  0
  191.7240  175.3130  144.1240 O   0  0  0  0  0  1  0  0  0  0  0  0
  191.8640  177.1500  145.5490 O   0  0  0  0  0  0  0  0  0  0  0  0
  191.6370  176.9240  147.8120 O   0  0  0  0  0  1  0  0  0  0  0  0
  190.9720  176.8290  146.5890 C   0  0  1  0  0  3  0  0  0  0  0  0
  189.7960  177.7920  146.5630 C   0  0  0  0  0  2  0  0  0  0  0  0
  188.5940  178.0880  148.6060 O   0  0  0  0  0  1  0  0  0  0  0  0
  187.3610  177.3750  146.7080 C   0  0  0  0  0  1  0  0  0  0  0  0
  188.6730  177.2980  147.4590 C   0  0  1  0  0  3  0  0  0  0  0  0
  184.4390  179.2660  139.9010 C   0  0  0  0  0  2  0  0  0  0  0  0
  184.8540  178.3720  138.7430 C   0  0  0  0  0  2  0  0  0  0  0  0
  185.9290  178.9430  138.0610 O   0  0  0  0  0  0  0  0  0  0  0  0
  186.5270  177.8760  137.3890 C   0  0  0  0  0  2  0  0  0  0  0  0
  188.0710  177.9380  135.5810 O   0  0  0  0  0  0  0  0  0  0  0  0
  187.7830  178.3390  136.7410 C   0  0  0  0  0  0  0  0  0  0  0  0
  188.6090  179.2420  137.4070 O   0  0  0  0  0  0  0  0  0  0  0  0
  190.0360  177.9590  138.6940 C   0  0  0  0  0  0  0  0  0  0  0  0
  190.8640  176.8380  138.0740 C   0  0  0  0  0  2  0  0  0  0  0  0
  190.9910  177.0650  139.4780 C   0  0  2  0  0  3  0  0  0  0  0  0
  189.1780  178.9210  138.6170 N   0  0  0  0  0  0  0  0  0  0  0  0
  190.2440  176.1240  140.1850 O   0  0  0  0  0  1  0  0  0  0  0  0
  1 26  1  6  0  0  0
  1  2  1  0  0  0  0
  2  6  1  0  0  0  0
  4  7  1  0  0  0  0
  4  3  1  0  0  0  0
  5  4  2  0  0  0  0
  6  7  2  0  0  0  0
  8  2  2  0  0  0  0
  8  5  1  0  0  0  0
  9  1  1  6  0  0  0
  9 10  1  0  0  0  0
 11  9  1  0  0  0  0
 11 12  1  1  0  0  0
 11 10  1  0  0  0  0
 12 13  1  0  0  0  0
 14 13  1  0  0  0  0
 14 16  1  0  0  0  0
 14 15  1  1  0  0  0
 16 17  1  0  0  0  0
 17 18  1  6  0  0  0
 17 19  1  0  0  0  0
 19 21  1  0  0  0  0
 21 20  1  1  0  0  0
 22 21  1  0  0  0  0
 22 25  1  0  0  0  0
 25 24  1  6  0  0  0
 25 23  1  0  0  0  0
 27 26  1  0  0  0  0
 28 27  1  0  0  0  0
 29 28  1  0  0  0  0
 30 31  2  0  0  0  0
 31 29  1  0  0  0  0
 31 32  1  0  0  0  0
 32 36  1  0  0  0  0
 33 35  1  0  0  0  0
 34 33  1  0  0  0  0
 34 35  1  0  0  0  0
 35 37  1  1  0  0  0
 36 33  2  0  0  0  0
M  END
>  <MODEL>
3

>  <REMARK>
 VINA RESULT:      -7.1      3.506      8.063
  Name = 
  18 active torsions:
  status: ('A' for Active; 'I' for Inactive)
    1  A    between atoms: C_1  and  C_19
    2  A    between atoms: O_4  and  N_23
    3  A    between atoms: O_4  and  C_31
    4  A    between atoms: C_5  and  C_19
    5  A    between atoms: C_10  and  O_25
    6  A    between atoms: C_10  and  C_33
    7  A    between atoms: C_12  and  C_18
    8  A    between atoms: C_12  and  C_33
    9  A    between atoms: C_17  and  C_19
   10  A    between atoms: C_17  and  C_29
   11  A    between atoms: C_18  and  C_30
   12  A    between atoms: C_20  and  C_28
   13  A    between atoms: O_25  and  C_26
   14  A    between atoms: C_26  and  C_28
   15  A    between atoms: C_29  and  O_37
   16  A    between atoms: C_30  and  C_35
   17  A    between atoms: C_31  and  C_34
   18  A    between atoms: C_34  and  O_37
                            x       y       z     vdW  Elec       q    Type
                         _______ _______ _______ _____ _____    ______ ____

>  <TORSDO>
F 18

$$$$
=
 OpenBabel10222419533D

 37 39  0  0  1  0  0  0  0  0999 V2000
  187.9930  177.6750  144.5340 C   0  0  2  0  0  3  0  0  0  0  0  0
  189.1640  177.2640  145.3730 C   0  0  0  0  0  0  0  0  0  0  0  0
  192.5260  176.1420  147.6240 N   0  0  0  0  0  1  0  0  0  0  0  0
  191.3820  176.5280  146.8710 C   0  0  0  0  0  0  0  0  0  0  0  0
  191.4900  176.7360  145.5300 N   0  0  0  0  0  0  0  0  0  0  0  0
  189.0370  177.0610  146.7530 C   0  0  0  0  0  3  0  0  0  0  0  0
  190.1500  176.6890  147.5080 C   0  0  0  0  0  3  0  0  0  0  0  0
  190.4170  177.0990  144.7760 C   0  0  0  0  0  3  0  0  0  0  0  0
  186.6870  177.5750  145.3470 C   0  0  1  0  0  3  0  0  0  0  0  0
  186.6910  178.4900  146.5580 C   0  0  0  0  0  2  0  0  0  0  0  0
  185.8700  178.8570  145.3340 C   0  0  2  0  0  3  0  0  0  0  0  0
  184.4180  178.5150  145.5820 C   0  0  0  0  0  2  0  0  0  0  0  0
  183.5350  179.3190  144.6440 C   0  0  0  0  0  2  0  0  0  0  0  0
  183.2090  178.5050  143.4050 C   0  0  1  0  0  3  0  0  0  0  0  0
  182.0900  179.0500  142.7770 O   0  0  0  0  0  1  0  0  0  0  0  0
  184.3900  178.5240  142.4460 C   0  0  0  0  0  2  0  0  0  0  0  0
  183.9280  178.8140  141.0190 C   0  0  1  0  0  3  0  0  0  0  0  0
  184.8580  179.6190  140.3500 O   0  0  0  0  0  1  0  0  0  0  0  0
  183.6270  177.6430  140.2850 O   0  0  0  0  0  0  0  0  0  0  0  0
  182.7140  177.8760  138.2030 O   0  0  0  0  0  1  0  0  0  0  0  0
  182.4330  177.8470  139.5690 C   0  0  1  0  0  3  0  0  0  0  0  0
  181.4610  176.7170  139.8730 C   0  0  0  0  0  2  0  0  0  0  0  0
  179.6130  178.2090  139.6160 O   0  0  0  0  0  1  0  0  0  0  0  0
  179.1930  176.1210  140.6640 C   0  0  0  0  0  1  0  0  0  0  0  0
  180.1730  177.2580  140.4710 C   0  0  1  0  0  3  0  0  0  0  0  0
  188.0040  176.9790  143.1640 C   0  0  0  0  0  2  0  0  0  0  0  0
  187.8590  177.9860  142.0340 C   0  0  0  0  0  2  0  0  0  0  0  0
  189.1150  178.3120  141.5210 O   0  0  0  0  0  0  0  0  0  0  0  0
  189.5710  177.1350  140.9280 C   0  0  0  0  0  2  0  0  0  0  0  0
  191.0830  176.7340  139.1360 O   0  0  0  0  0  0  0  0  0  0  0  0
  190.1440  177.4420  139.5910 C   0  0  0  0  0  0  0  0  0  0  0  0
  189.6130  178.4870  138.8380 O   0  0  0  0  0  0  0  0  0  0  0  0
  187.9370  178.0590  137.3060 C   0  0  0  0  0  0  0  0  0  0  0  0
  186.4900  177.8730  137.7510 C   0  0  0  0  0  2  0  0  0  0  0  0
  186.7800  177.7650  136.3570 C   0  0  2  0  0  3  0  0  0  0  0  0
  189.1860  178.2820  137.5460 N   0  0  0  0  0  0  0  0  0  0  0  0
  186.8370  176.4230  135.9830 O   0  0  0  0  0  1  0  0  0  0  0  0
  1 26  1  6  0  0  0
  1  2  1  0  0  0  0
  2  6  1  0  0  0  0
  4  7  1  0  0  0  0
  4  3  1  0  0  0  0
  5  4  2  0  0  0  0
  6  7  2  0  0  0  0
  8  2  2  0  0  0  0
  8  5  1  0  0  0  0
  9  1  1  6  0  0  0
  9 10  1  0  0  0  0
 11  9  1  0  0  0  0
 11 12  1  1  0  0  0
 11 10  1  0  0  0  0
 13 12  1  0  0  0  0
 14 15  1  6  0  0  0
 14 13  1  0  0  0  0
 16 14  1  0  0  0  0
 17 18  1  6  0  0  0
 17 16  1  0  0  0  0
 19 17  1  0  0  0  0
 21 20  1  6  0  0  0
 21 22  1  0  0  0  0
 21 19  1  0  0  0  0
 22 25  1  0  0  0  0
 23 25  1  0  0  0  0
 25 24  1  6  0  0  0
 27 26  1  0  0  0  0
 28 27  1  0  0  0  0
 29 28  1  0  0  0  0
 30 31  2  0  0  0  0
 31 29  1  0  0  0  0
 32 31  1  0  0  0  0
 33 36  2  0  0  0  0
 33 34  1  0  0  0  0
 35 37  1  1  0  0  0
 35 33  1  0  0  0  0
 35 34  1  0  0  0  0
 36 32  1  0  0  0  0
M  END
>  <MODEL>
4

>  <REMARK>
 VINA RESULT:      -7.1      1.441      2.437
  Name = 
  18 active torsions:
  status: ('A' for Active; 'I' for Inactive)
    1  A    between atoms: C_1  and  C_19
    2  A    between atoms: O_4  and  N_23
    3  A    between atoms: O_4  and  C_31
    4  A    between atoms: C_5  and  C_19
    5  A    between atoms: C_10  and  O_25
    6  A    between atoms: C_10  and  C_33
    7  A    between atoms: C_12  and  C_18
    8  A    between atoms: C_12  and  C_33
    9  A    between atoms: C_17  and  C_19
   10  A    between atoms: C_17  and  C_29
   11  A    between atoms: C_18  and  C_30
   12  A    between atoms: C_20  and  C_28
   13  A    between atoms: O_25  and  C_26
   14  A    between atoms: C_26  and  C_28
   15  A    between atoms: C_29  and  O_37
   16  A    between atoms: C_30  and  C_35
   17  A    between atoms: C_31  and  C_34
   18  A    between atoms: C_34  and  O_37
                            x       y       z     vdW  Elec       q    Type
                         _______ _______ _______ _____ _____    ______ ____

>  <TORSDO>
F 18

$$$$
=
 OpenBabel10222419533D

 37 39  0  0  1  0  0  0  0  0999 V2000
  188.0990  177.6910  144.5250 C   0  0  2  0  0  3  0  0  0  0  0  0
  189.2370  177.2680  145.4030 C   0  0  0  0  0  0  0  0  0  0  0  0
  192.5090  176.1060  147.7620 N   0  0  0  0  0  1  0  0  0  0  0  0
  191.3960  176.5060  146.9720 C   0  0  0  0  0  0  0  0  0  0  0  0
  191.5380  176.6620  145.6270 N   0  0  0  0  0  0  0  0  0  0  0  0
  189.0740  177.1190  146.7860 C   0  0  0  0  0  3  0  0  0  0  0  0
  190.1570  176.7340  147.5770 C   0  0  0  0  0  3  0  0  0  0  0  0
  190.4940  177.0360  144.8390 C   0  0  0  0  0  3  0  0  0  0  0  0
  186.7610  177.5640  145.2800 C   0  0  1  0  0  3  0  0  0  0  0  0
  186.7350  178.3920  146.5520 C   0  0  0  0  0  2  0  0  0  0  0  0
  185.9700  178.8620  145.3270 C   0  0  2  0  0  3  0  0  0  0  0  0
  184.5030  178.5360  145.4960 C   0  0  0  0  0  2  0  0  0  0  0  0
  183.6860  179.3000  144.4700 C   0  0  0  0  0  2  0  0  0  0  0  0
  183.2710  178.3770  143.3380 C   0  0  1  0  0  3  0  0  0  0  0  0
  182.3320  179.0250  142.5360 O   0  0  0  0  0  1  0  0  0  0  0  0
  184.4850  178.0040  142.5000 C   0  0  0  0  0  2  0  0  0  0  0  0
  184.8330  179.1220  141.5180 C   0  0  1  0  0  3  0  0  0  0  0  0
  185.9240  179.8660  141.9810 O   0  0  0  0  0  1  0  0  0  0  0  0
  185.0400  178.6560  140.1990 O   0  0  0  0  0  0  0  0  0  0  0  0
  184.3520  180.4100  138.9050 O   0  0  0  0  0  1  0  0  0  0  0  0
  184.0080  179.1430  139.3750 C   0  0  1  0  0  3  0  0  0  0  0  0
  183.8050  178.1950  138.2040 C   0  0  0  0  0  2  0  0  0  0  0  0
  181.9040  177.4380  139.4370 O   0  0  0  0  0  1  0  0  0  0  0  0
  182.3630  176.3630  137.3710 C   0  0  0  0  0  1  0  0  0  0  0  0
  182.9440  177.0100  138.6100 C   0  0  1  0  0  3  0  0  0  0  0  0
  188.1720  177.0280  143.1400 C   0  0  0  0  0  2  0  0  0  0  0  0
  188.6400  178.0140  142.0820 C   0  0  0  0  0  2  0  0  0  0  0  0
  188.6560  177.3980  140.8300 O   0  0  0  0  0  0  0  0  0  0  0  0
  188.5400  178.4470  139.9180 C   0  0  0  0  0  2  0  0  0  0  0  0
  187.3620  177.0540  138.3920 O   0  0  0  0  0  0  0  0  0  0  0  0
  188.2830  177.8980  138.5600 C   0  0  0  0  0  0  0  0  0  0  0  0
  189.0360  178.3520  137.4790 O   0  0  0  0  0  0  0  0  0  0  0  0
  190.7830  176.8390  137.4810 C   0  0  0  0  0  0  0  0  0  0  0  0
  191.4670  176.4260  138.7790 C   0  0  0  0  0  2  0  0  0  0  0  0
  191.9450  175.8560  137.5610 C   0  0  2  0  0  3  0  0  0  0  0  0
  189.9020  177.5130  136.8180 N   0  0  0  0  0  0  0  0  0  0  0  0
  193.1100  176.5050  137.1530 O   0  0  0  0  0  1  0  0  0  0  0  0
  1 26  1  6  0  0  0
  1  2  1  0  0  0  0
  2  6  1  0  0  0  0
  4  7  1  0  0  0  0
  4  3  1  0  0  0  0
  5  4  2  0  0  0  0
  6  7  2  0  0  0  0
  8  2  2  0  0  0  0
  8  5  1  0  0  0  0
  9  1  1  6  0  0  0
  9 11  1  0  0  0  0
  9 10  1  0  0  0  0
 11 12  1  1  0  0  0
 11 10  1  0  0  0  0
 13 12  1  0  0  0  0
 14 15  1  6  0  0  0
 14 13  1  0  0  0  0
 16 14  1  0  0  0  0
 17 18  1  1  0  0  0
 17 16  1  0  0  0  0
 19 17  1  0  0  0  0
 21 20  1  6  0  0  0
 21 19  1  0  0  0  0
 22 25  1  0  0  0  0
 22 21  1  0  0  0  0
 25 24  1  6  0  0  0
 25 23  1  0  0  0  0
 27 26  1  0  0  0  0
 28 27  1  0  0  0  0
 29 28  1  0  0  0  0
 30 31  2  0  0  0  0
 31 29  1  0  0  0  0
 32 31  1  0  0  0  0
 33 35  1  0  0  0  0
 33 34  1  0  0  0  0
 35 37  1  6  0  0  0
 35 34  1  0  0  0  0
 36 32  1  0  0  0  0
 36 33  2  0  0  0  0
M  END
>  <MODEL>
5

>  <REMARK>
 VINA RESULT:      -7.0      1.760      3.031
  Name = 
  18 active torsions:
  status: ('A' for Active; 'I' for Inactive)
    1  A    between atoms: C_1  and  C_19
    2  A    between atoms: O_4  and  N_23
    3  A    between atoms: O_4  and  C_31
    4  A    between atoms: C_5  and  C_19
    5  A    between atoms: C_10  and  O_25
    6  A    between atoms: C_10  and  C_33
    7  A    between atoms: C_12  and  C_18
    8  A    between atoms: C_12  and  C_33
    9  A    between atoms: C_17  and  C_19
   10  A    between atoms: C_17  and  C_29
   11  A    between atoms: C_18  and  C_30
   12  A    between atoms: C_20  and  C_28
   13  A    between atoms: O_25  and  C_26
   14  A    between atoms: C_26  and  C_28
   15  A    between atoms: C_29  and  O_37
   16  A    between atoms: C_30  and  C_35
   17  A    between atoms: C_31  and  C_34
   18  A    between atoms: C_34  and  O_37
                            x       y       z     vdW  Elec       q    Type
                         _______ _______ _______ _____ _____    ______ ____

>  <TORSDO>
F 18

$$$$
=
 OpenBabel10222419533D

 37 39  0  0  1  0  0  0  0  0999 V2000
  184.6140  178.6560  143.1700 C   0  0  2  0  0  3  0  0  0  0  0  0
  183.1210  178.7070  143.0630 C   0  0  0  0  0  0  0  0  0  0  0  0
  178.9460  178.8190  142.6370 N   0  0  0  0  0  1  0  0  0  0  0  0
  180.3600  178.7750  142.7920 C   0  0  0  0  0  0  0  0  0  0  0  0
  181.1620  178.7280  141.6940 N   0  0  0  0  0  0  0  0  0  0  0  0
  182.3100  178.7490  144.2040 C   0  0  0  0  0  3  0  0  0  0  0  0
  180.9220  178.7850  144.0710 C   0  0  0  0  0  3  0  0  0  0  0  0
  182.5180  178.6920  141.8030 C   0  0  0  0  0  3  0  0  0  0  0  0
  185.0670  179.0550  144.5880 C   0  0  1  0  0  3  0  0  0  0  0  0
  184.3580  178.2550  145.6660 C   0  0  0  0  0  2  0  0  0  0  0  0
  185.8040  177.9440  145.3190 C   0  0  2  0  0  3  0  0  0  0  0  0
  186.7130  178.5620  146.3590 C   0  0  0  0  0  2  0  0  0  0  0  0
  187.4930  177.4710  147.0710 C   0  0  0  0  0  2  0  0  0  0  0  0
  188.9490  177.8750  147.2120 C   0  0  1  0  0  3  0  0  0  0  0  0
  189.1510  178.4400  148.4710 O   0  0  0  0  0  1  0  0  0  0  0  0
  189.8440  176.6550  147.0520 C   0  0  0  0  0  2  0  0  0  0  0  0
  191.2740  177.0690  146.7070 C   0  0  1  0  0  3  0  0  0  0  0  0
  192.1590  176.6870  147.7210 O   0  0  0  0  0  1  0  0  0  0  0  0
  191.6960  176.6000  145.4410 O   0  0  0  0  0  0  0  0  0  0  0  0
  192.0170  178.6930  144.5810 O   0  0  0  0  0  1  0  0  0  0  0  0
  191.2820  177.5140  144.4540 C   0  0  1  0  0  3  0  0  0  0  0  0
  191.5070  176.9100  143.0770 C   0  0  0  0  0  2  0  0  0  0  0  0
  190.1850  174.9300  142.8880 O   0  0  0  0  0  1  0  0  0  0  0  0
  189.0340  176.9890  143.1490 C   0  0  0  0  0  1  0  0  0  0  0  0
  190.2300  176.2820  142.5460 C   0  0  1  0  0  3  0  0  0  0  0  0
  185.2930  179.3870  142.0000 C   0  0  0  0  0  2  0  0  0  0  0  0
  186.0370  178.4140  141.0990 C   0  0  0  0  0  2  0  0  0  0  0  0
  186.3390  179.0270  139.8820 O   0  0  0  0  0  0  0  0  0  0  0  0
  185.6180  178.3020  138.9330 C   0  0  0  0  0  2  0  0  0  0  0  0
  186.0850  177.3360  136.8110 O   0  0  0  0  0  0  0  0  0  0  0  0
  186.4230  178.1740  137.6890 C   0  0  0  0  0  0  0  0  0  0  0  0
  187.5190  179.0110  137.4900 O   0  0  0  0  0  0  0  0  0  0  0  0
  189.4160  177.7150  137.7420 C   0  0  0  0  0  0  0  0  0  0  0  0
  189.6300  176.4580  136.9040 C   0  0  0  0  0  2  0  0  0  0  0  0
  190.6340  176.8050  137.8580 C   0  0  2  0  0  3  0  0  0  0  0  0
  188.7270  178.7490  138.0940 N   0  0  0  0  0  0  0  0  0  0  0  0
  190.5000  176.0190  139.0020 O   0  0  0  0  0  1  0  0  0  0  0  0
  1 26  1  6  0  0  0
  2  1  1  0  0  0  0
  2  6  1  0  0  0  0
  3  4  1  0  0  0  0
  4  7  1  0  0  0  0
  5  8  1  0  0  0  0
  5  4  2  0  0  0  0
  7  6  2  0  0  0  0
  8  2  2  0  0  0  0
  9  1  1  6  0  0  0
  9 11  1  0  0  0  0
  9 10  1  0  0  0  0
 11 10  1  0  0  0  0
 11 12  1  1  0  0  0
 12 13  1  0  0  0  0
 13 14  1  0  0  0  0
 14 15  1  1  0  0  0
 16 14  1  0  0  0  0
 17 16  1  0  0  0  0
 17 18  1  1  0  0  0
 19 17  1  0  0  0  0
 21 20  1  6  0  0  0
 21 19  1  0  0  0  0
 22 21  1  0  0  0  0
 25 23  1  0  0  0  0
 25 22  1  0  0  0  0
 25 24  1  1  0  0  0
 27 26  1  0  0  0  0
 28 27  1  0  0  0  0
 29 28  1  0  0  0  0
 30 31  2  0  0  0  0
 31 29  1  0  0  0  0
 32 31  1  0  0  0  0
 32 36  1  0  0  0  0
 33 35  1  0  0  0  0
 33 36  2  0  0  0  0
 34 33  1  0  0  0  0
 34 35  1  0  0  0  0
 35 37  1  1  0  0  0
M  END
>  <MODEL>
6

>  <REMARK>
 VINA RESULT:      -6.9      3.485      7.773
  Name = 
  18 active torsions:
  status: ('A' for Active; 'I' for Inactive)
    1  A    between atoms: C_1  and  C_19
    2  A    between atoms: O_4  and  N_23
    3  A    between atoms: O_4  and  C_31
    4  A    between atoms: C_5  and  C_19
    5  A    between atoms: C_10  and  O_25
    6  A    between atoms: C_10  and  C_33
    7  A    between atoms: C_12  and  C_18
    8  A    between atoms: C_12  and  C_33
    9  A    between atoms: C_17  and  C_19
   10  A    between atoms: C_17  and  C_29
   11  A    between atoms: C_18  and  C_30
   12  A    between atoms: C_20  and  C_28
   13  A    between atoms: O_25  and  C_26
   14  A    between atoms: C_26  and  C_28
   15  A    between atoms: C_29  and  O_37
   16  A    between atoms: C_30  and  C_35
   17  A    between atoms: C_31  and  C_34
   18  A    between atoms: C_34  and  O_37
                            x       y       z     vdW  Elec       q    Type
                         _______ _______ _______ _____ _____    ______ ____

>  <TORSDO>
F 18

$$$$
=
 OpenBabel10222419533D

 37 39  0  0  1  0  0  0  0  0999 V2000
  183.9910  179.3330  143.9460 C   0  0  2  0  0  3  0  0  0  0  0  0
  184.3750  179.0850  142.5190 C   0  0  0  0  0  0  0  0  0  0  0  0
  185.5770  178.4110  138.5540 N   0  0  0  0  0  1  0  0  0  0  0  0
  185.1620  178.6300  139.8970 C   0  0  0  0  0  0  0  0  0  0  0  0
  186.0280  179.1730  140.7960 N   0  0  0  0  0  0  0  0  0  0  0  0
  183.4730  178.5190  141.6100 C   0  0  0  0  0  3  0  0  0  0  0  0
  183.8650  178.2910  140.2910 C   0  0  0  0  0  3  0  0  0  0  0  0
  185.6640  179.4040  142.0870 C   0  0  0  0  0  3  0  0  0  0  0  0
  185.2350  179.2840  144.8550 C   0  0  1  0  0  3  0  0  0  0  0  0
  184.9470  178.6260  146.1920 C   0  0  0  0  0  2  0  0  0  0  0  0
  185.7260  177.8710  145.1280 C   0  0  2  0  0  3  0  0  0  0  0  0
  187.2010  177.9200  145.4570 C   0  0  0  0  0  2  0  0  0  0  0  0
  187.4300  177.3930  146.8620 C   0  0  0  0  0  2  0  0  0  0  0  0
  188.8120  177.7900  147.3520 C   0  0  1  0  0  3  0  0  0  0  0  0
  188.7200  178.2530  148.6640 O   0  0  0  0  0  1  0  0  0  0  0  0
  189.7450  176.5890  147.3000 C   0  0  0  0  0  2  0  0  0  0  0  0
  191.1260  176.9940  146.7870 C   0  0  1  0  0  3  0  0  0  0  0  0
  192.1060  176.7520  147.7570 O   0  0  0  0  0  1  0  0  0  0  0  0
  191.4550  176.3930  145.5500 O   0  0  0  0  0  0  0  0  0  0  0  0
  191.7850  178.1110  144.0800 O   0  0  0  0  0  1  0  0  0  0  0  0
  190.8770  177.1430  144.5090 C   0  0  1  0  0  3  0  0  0  0  0  0
  190.5230  176.2190  143.3550 C   0  0  0  0  0  2  0  0  0  0  0  0
  190.5560  176.3800  140.9720 O   0  0  0  0  0  1  0  0  0  0  0  0
  188.6010  177.1310  142.0890 C   0  0  0  0  0  1  0  0  0  0  0  0
  190.1100  177.0180  142.1300 C   0  0  1  0  0  3  0  0  0  0  0  0
  182.7940  178.4670  144.3720 C   0  0  0  0  0  2  0  0  0  0  0  0
  181.4770  179.1790  144.1070 C   0  0  0  0  0  2  0  0  0  0  0  0
  180.4100  178.3110  144.3430 O   0  0  0  0  0  0  0  0  0  0  0  0
  179.2930  178.9800  143.8400 C   0  0  0  0  0  2  0  0  0  0  0  0
  179.2310  177.6610  141.8620 O   0  0  0  0  0  0  0  0  0  0  0  0
  179.2410  178.8180  142.3630 C   0  0  0  0  0  0  0  0  0  0  0  0
  179.1640  179.9460  141.5490 O   0  0  0  0  0  0  0  0  0  0  0  0
  180.3370  180.8030  139.7520 C   0  0  0  0  0  0  0  0  0  0  0  0
  179.7130  180.8670  138.3610 C   0  0  0  0  0  2  0  0  0  0  0  0
  181.0490  181.3450  138.5170 C   0  0  2  0  0  3  0  0  0  0  0  0
  180.2970  180.5080  141.0080 N   0  0  0  0  0  0  0  0  0  0  0  0
  181.9560  180.3860  138.0670 O   0  0  0  0  0  1  0  0  0  0  0  0
  1 26  1  1  0  0  0
  2  1  1  0  0  0  0
  3  4  1  0  0  0  0
  4  7  2  0  0  0  0
  4  5  1  0  0  0  0
  5  8  2  0  0  0  0
  6  2  2  0  0  0  0
  7  6  1  0  0  0  0
  8  2  1  0  0  0  0
  9  1  1  6  0  0  0
  9 11  1  0  0  0  0
  9 10  1  0  0  0  0
 11 12  1  1  0  0  0
 11 10  1  0  0  0  0
 12 13  1  0  0  0  0
 13 14  1  0  0  0  0
 14 15  1  1  0  0  0
 16 14  1  0  0  0  0
 17 16  1  0  0  0  0
 17 18  1  1  0  0  0
 19 17  1  0  0  0  0
 21 20  1  6  0  0  0
 21 19  1  0  0  0  0
 22 21  1  0  0  0  0
 23 25  1  0  0  0  0
 25 24  1  6  0  0  0
 25 22  1  0  0  0  0
 27 28  1  0  0  0  0
 27 26  1  0  0  0  0
 29 28  1  0  0  0  0
 30 31  2  0  0  0  0
 31 29  1  0  0  0  0
 32 31  1  0  0  0  0
 33 36  2  0  0  0  0
 34 35  1  0  0  0  0
 34 33  1  0  0  0  0
 35 37  1  6  0  0  0
 35 33  1  0  0  0  0
 36 32  1  0  0  0  0
M  END
>  <MODEL>
7

>  <REMARK>
 VINA RESULT:      -6.9      3.171      8.714
  Name = 
  18 active torsions:
  status: ('A' for Active; 'I' for Inactive)
    1  A    between atoms: C_1  and  C_19
    2  A    between atoms: O_4  and  N_23
    3  A    between atoms: O_4  and  C_31
    4  A    between atoms: C_5  and  C_19
    5  A    between atoms: C_10  and  O_25
    6  A    between atoms: C_10  and  C_33
    7  A    between atoms: C_12  and  C_18
    8  A    between atoms: C_12  and  C_33
    9  A    between atoms: C_17  and  C_19
   10  A    between atoms: C_17  and  C_29
   11  A    between atoms: C_18  and  C_30
   12  A    between atoms: C_20  and  C_28
   13  A    between atoms: O_25  and  C_26
   14  A    between atoms: C_26  and  C_28
   15  A    between atoms: C_29  and  O_37
   16  A    between atoms: C_30  and  C_35
   17  A    between atoms: C_31  and  C_34
   18  A    between atoms: C_34  and  O_37
                            x       y       z     vdW  Elec       q    Type
                         _______ _______ _______ _____ _____    ______ ____

>  <TORSDO>
F 18

$$$$
=
 OpenBabel10222419533D

 37 39  0  0  1  0  0  0  0  0999 V2000
  187.6890  177.8250  144.1780 C   0  0  2  0  0  3  0  0  0  0  0  0
  188.7760  177.4470  145.1370 C   0  0  0  0  0  0  0  0  0  0  0  0
  191.9120  176.4250  147.7340 N   0  0  0  0  0  1  0  0  0  0  0  0
  190.8430  176.7760  146.8630 C   0  0  0  0  0  0  0  0  0  0  0  0
  191.0990  177.0740  145.5600 N   0  0  0  0  0  0  0  0  0  0  0  0
  188.4960  177.1490  146.4760 C   0  0  0  0  0  3  0  0  0  0  0  0
  189.5330  176.8100  147.3450 C   0  0  0  0  0  3  0  0  0  0  0  0
  190.1010  177.4070  144.6960 C   0  0  0  0  0  3  0  0  0  0  0  0
  186.3110  177.7350  144.8640 C   0  0  1  0  0  3  0  0  0  0  0  0
  186.0690  178.8850  145.8240 C   0  0  0  0  0  2  0  0  0  0  0  0
  185.3710  178.8650  144.4760 C   0  0  2  0  0  3  0  0  0  0  0  0
  183.9430  178.3980  144.6570 C   0  0  0  0  0  2  0  0  0  0  0  0
  182.9960  179.3700  143.9770 C   0  0  0  0  0  2  0  0  0  0  0  0
  181.8200  178.6220  143.3760 C   0  0  1  0  0  3  0  0  0  0  0  0
  180.8230  178.4800  144.3410 O   0  0  0  0  0  1  0  0  0  0  0  0
  181.2680  179.3930  142.1850 C   0  0  0  0  0  2  0  0  0  0  0  0
  181.3010  178.5370  140.9200 C   0  0  1  0  0  3  0  0  0  0  0  0
  180.3350  177.5260  140.9800 O   0  0  0  0  0  1  0  0  0  0  0  0
  181.1880  179.2980  139.7330 O   0  0  0  0  0  0  0  0  0  0  0  0
  181.7420  179.1170  137.5230 O   0  0  0  0  0  1  0  0  0  0  0  0
  182.1800  178.8810  138.8270 C   0  0  1  0  0  3  0  0  0  0  0  0
  183.4630  179.6530  139.0890 C   0  0  0  0  0  2  0  0  0  0  0  0
  185.6810  178.9060  138.6080 O   0  0  0  0  0  1  0  0  0  0  0  0
  185.0250  178.9820  140.8880 C   0  0  0  0  0  1  0  0  0  0  0  0
  184.5950  178.7100  139.4620 C   0  0  1  0  0  3  0  0  0  0  0  0
  187.8360  177.0950  142.8340 C   0  0  0  0  0  2  0  0  0  0  0  0
  188.4120  178.0140  141.7670 C   0  0  0  0  0  2  0  0  0  0  0  0
  188.3470  177.3950  140.5190 O   0  0  0  0  0  0  0  0  0  0  0  0
  189.6030  177.6160  139.9500 C   0  0  0  0  0  2  0  0  0  0  0  0
  188.9680  179.4070  138.5190 O   0  0  0  0  0  0  0  0  0  0  0  0
  189.4370  178.2400  138.6100 C   0  0  0  0  0  0  0  0  0  0  0  0
  189.8400  177.5450  137.4720 O   0  0  0  0  0  0  0  0  0  0  0  0
  190.1470  175.2630  137.2780 C   0  0  0  0  0  0  0  0  0  0  0  0
  191.5100  174.6260  137.5310 C   0  0  0  0  0  2  0  0  0  0  0  0
  190.4300  173.7690  137.1600 C   0  0  2  0  0  3  0  0  0  0  0  0
  189.3590  176.2840  137.2070 N   0  0  0  0  0  0  0  0  0  0  0  0
  190.5250  173.4360  135.8100 O   0  0  0  0  0  1  0  0  0  0  0  0
  1 26  1  6  0  0  0
  1  2  1  0  0  0  0
  2  6  1  0  0  0  0
  4  7  1  0  0  0  0
  4  3  1  0  0  0  0
  5  4  2  0  0  0  0
  6  7  2  0  0  0  0
  8  2  2  0  0  0  0
  8  5  1  0  0  0  0
  9  1  1  6  0  0  0
  9 10  1  0  0  0  0
 11 12  1  1  0  0  0
 11  9  1  0  0  0  0
 11 10  1  0  0  0  0
 13 12  1  0  0  0  0
 14 13  1  0  0  0  0
 14 15  1  1  0  0  0
 16 14  1  0  0  0  0
 17 18  1  1  0  0  0
 17 16  1  0  0  0  0
 19 17  1  0  0  0  0
 21 20  1  6  0  0  0
 21 22  1  0  0  0  0
 21 19  1  0  0  0  0
 22 25  1  0  0  0  0
 23 25  1  0  0  0  0
 25 24  1  1  0  0  0
 27 26  1  0  0  0  0
 28 27  1  0  0  0  0
 29 28  1  0  0  0  0
 30 31  2  0  0  0  0
 31 29  1  0  0  0  0
 32 31  1  0  0  0  0
 33 34  1  0  0  0  0
 35 37  1  6  0  0  0
 35 33  1  0  0  0  0
 35 34  1  0  0  0  0
 36 33  2  0  0  0  0
 36 32  1  0  0  0  0
M  END
>  <MODEL>
8

>  <REMARK>
 VINA RESULT:      -6.8      1.568      2.042
  Name = 
  18 active torsions:
  status: ('A' for Active; 'I' for Inactive)
    1  A    between atoms: C_1  and  C_19
    2  A    between atoms: O_4  and  N_23
    3  A    between atoms: O_4  and  C_31
    4  A    between atoms: C_5  and  C_19
    5  A    between atoms: C_10  and  O_25
    6  A    between atoms: C_10  and  C_33
    7  A    between atoms: C_12  and  C_18
    8  A    between atoms: C_12  and  C_33
    9  A    between atoms: C_17  and  C_19
   10  A    between atoms: C_17  and  C_29
   11  A    between atoms: C_18  and  C_30
   12  A    between atoms: C_20  and  C_28
   13  A    between atoms: O_25  and  C_26
   14  A    between atoms: C_26  and  C_28
   15  A    between atoms: C_29  and  O_37
   16  A    between atoms: C_30  and  C_35
   17  A    between atoms: C_31  and  C_34
   18  A    between atoms: C_34  and  O_37
                            x       y       z     vdW  Elec       q    Type
                         _______ _______ _______ _____ _____    ______ ____

>  <TORSDO>
F 18

$$$$
=
 OpenBabel10222419533D

 37 39  0  0  1  0  0  0  0  0999 V2000
  184.8410  179.1690  143.5160 C   0  0  2  0  0  3  0  0  0  0  0  0
  185.3250  178.9740  142.1120 C   0  0  0  0  0  0  0  0  0  0  0  0
  186.7980  178.3940  138.2240 N   0  0  0  0  0  1  0  0  0  0  0  0
  186.2890  178.5850  139.5390 C   0  0  0  0  0  0  0  0  0  0  0  0
  187.1420  178.6250  140.5990 N   0  0  0  0  0  0  0  0  0  0  0  0
  184.4330  178.9300  141.0340 C   0  0  0  0  0  3  0  0  0  0  0  0
  184.9150  178.7360  139.7390 C   0  0  0  0  0  3  0  0  0  0  0  0
  186.6910  178.8130  141.8690 C   0  0  0  0  0  3  0  0  0  0  0  0
  186.0130  179.0530  144.5110 C   0  0  1  0  0  3  0  0  0  0  0  0
  185.5430  178.9950  145.9520 C   0  0  0  0  0  2  0  0  0  0  0  0
  186.0340  177.7330  145.2650 C   0  0  2  0  0  3  0  0  0  0  0  0
  187.4520  177.4420  145.7040 C   0  0  0  0  0  2  0  0  0  0  0  0
  187.5850  177.6830  147.1970 C   0  0  0  0  0  2  0  0  0  0  0  0
  189.0410  177.9090  147.5630 C   0  0  1  0  0  3  0  0  0  0  0  0
  189.1290  178.2520  148.9120 O   0  0  0  0  0  1  0  0  0  0  0  0
  189.8440  176.6410  147.3080 C   0  0  0  0  0  2  0  0  0  0  0  0
  191.2910  176.9750  146.9500 C   0  0  1  0  0  3  0  0  0  0  0  0
  192.1400  176.7290  148.0340 O   0  0  0  0  0  1  0  0  0  0  0  0
  191.7370  176.3220  145.7770 O   0  0  0  0  0  0  0  0  0  0  0  0
  191.5120  178.2440  144.5620 O   0  0  0  0  0  1  0  0  0  0  0  0
  191.1150  176.9100  144.6610 C   0  0  1  0  0  3  0  0  0  0  0  0
  191.5140  176.1570  143.4020 C   0  0  0  0  0  2  0  0  0  0  0  0
  189.1360  176.0770  143.1880 O   0  0  0  0  0  1  0  0  0  0  0  0
  190.3560  177.1080  141.4320 C   0  0  0  0  0  1  0  0  0  0  0  0
  190.3280  176.0020  142.4650 C   0  0  1  0  0  3  0  0  0  0  0  0
  183.6000  178.3130  143.8140 C   0  0  0  0  0  2  0  0  0  0  0  0
  182.4290  179.1760  144.2590 C   0  0  0  0  0  2  0  0  0  0  0  0
  181.2300  178.6180  143.8150 O   0  0  0  0  0  0  0  0  0  0  0  0
  181.0400  179.1560  142.5410 C   0  0  0  0  0  2  0  0  0  0  0  0
  179.3260  177.5160  142.3660 O   0  0  0  0  0  0  0  0  0  0  0  0
  180.1310  178.2750  141.7610 C   0  0  0  0  0  0  0  0  0  0  0  0
  180.1510  178.3250  140.3690 O   0  0  0  0  0  0  0  0  0  0  0  0
  180.9360  176.4020  139.3570 C   0  0  0  0  0  0  0  0  0  0  0  0
  182.4060  176.0050  139.4490 C   0  0  0  0  0  2  0  0  0  0  0  0
  181.5300  175.1550  138.7090 C   0  0  2  0  0  3  0  0  0  0  0  0
  179.9480  177.1920  139.6170 N   0  0  0  0  0  0  0  0  0  0  0  0
  181.6790  175.3890  137.3420 O   0  0  0  0  0  1  0  0  0  0  0  0
  1 26  1  1  0  0  0
  2  1  1  0  0  0  0
  3  4  1  0  0  0  0
  4  7  2  0  0  0  0
  4  5  1  0  0  0  0
  5  8  2  0  0  0  0
  6  2  2  0  0  0  0
  7  6  1  0  0  0  0
  8  2  1  0  0  0  0
  9  1  1  6  0  0  0
  9 11  1  0  0  0  0
  9 10  1  0  0  0  0
 11 12  1  1  0  0  0
 11 10  1  0  0  0  0
 12 13  1  0  0  0  0
 13 14  1  0  0  0  0
 14 15  1  1  0  0  0
 16 14  1  0  0  0  0
 17 16  1  0  0  0  0
 17 18  1  1  0  0  0
 19 17  1  0  0  0  0
 21 20  1  6  0  0  0
 21 19  1  0  0  0  0
 22 21  1  0  0  0  0
 25 24  1  6  0  0  0
 25 23  1  0  0  0  0
 25 22  1  0  0  0  0
 26 27  1  0  0  0  0
 28 27  1  0  0  0  0
 29 28  1  0  0  0  0
 31 30  2  0  0  0  0
 31 29  1  0  0  0  0
 32 31  1  0  0  0  0
 33 34  1  0  0  0  0
 33 36  2  0  0  0  0
 35 37  1  6  0  0  0
 35 33  1  0  0  0  0
 35 34  1  0  0  0  0
 36 32  1  0  0  0  0
M  END
>  <MODEL>
9

>  <REMARK>
 VINA RESULT:      -6.8      3.099      8.498
  Name = 
  18 active torsions:
  status: ('A' for Active; 'I' for Inactive)
    1  A    between atoms: C_1  and  C_19
    2  A    between atoms: O_4  and  N_23
    3  A    between atoms: O_4  and  C_31
    4  A    between atoms: C_5  and  C_19
    5  A    between atoms: C_10  and  O_25
    6  A    between atoms: C_10  and  C_33
    7  A    between atoms: C_12  and  C_18
    8  A    between atoms: C_12  and  C_33
    9  A    between atoms: C_17  and  C_19
   10  A    between atoms: C_17  and  C_29
   11  A    between atoms: C_18  and  C_30
   12  A    between atoms: C_20  and  C_28
   13  A    between atoms: O_25  and  C_26
   14  A    between atoms: C_26  and  C_28
   15  A    between atoms: C_29  and  O_37
   16  A    between atoms: C_30  and  C_35
   17  A    between atoms: C_31  and  C_34
   18  A    between atoms: C_34  and  O_37
                            x       y       z     vdW  Elec       q    Type
                         _______ _______ _______ _____ _____    ______ ____

>  <TORSDO>
F 18

$$$$
