=
 OpenBabel10222418283D

 28 30  0  0  1  0  0  0  0  0999 V2000
  190.2000  176.9010  143.9170 C   0  0  2  0  0  3  0  0  0  0  0  0
  187.8380  177.5510  143.0910 C   0  0  0  0  0  0  0  0  0  0  0  0
  186.0790  177.9240  144.7490 C   0  0  0  0  0  0  0  0  0  0  0  0
  185.5860  178.2930  142.2590 C   0  0  0  0  0  2  0  0  0  0  0  0
  183.4760  178.9250  142.3570 C   0  0  0  0  0  2  0  0  0  0  0  0
  182.9800  179.3020  143.7490 C   0  0  0  0  0  2  0  0  0  0  0  0
  188.3060  177.2940  145.4590 C   0  0  0  0  0  3  0  0  0  0  0  0
  184.1400  179.5250  144.7110 C   0  0  0  0  0  2  0  0  0  0  0  0
  184.2910  177.7890  142.4100 O   0  0  0  0  0  0  0  0  0  0  0  0
  186.4940  177.8790  143.3910 C   0  0  0  0  0  0  0  0  0  0  0  0
  188.7440  177.2480  144.1360 C   0  0  0  0  0  0  0  0  0  0  0  0
  184.6640  178.1770  145.1790 C   0  0  0  0  0  2  0  0  0  0  0  0
  188.2910  177.5180  141.6610 C   0  0  0  0  0  1  0  0  0  0  0  0
  186.9880  177.6210  145.7600 C   0  0  0  0  0  3  0  0  0  0  0  0
  192.4870  175.3370  146.5120 C   0  0  0  0  0  3  0  0  0  0  0  0
  191.2920  177.1560  147.5690 C   0  0  0  0  0  3  0  0  0  0  0  0
  190.9060  176.6520  145.2260 C   0  0  0  0  0  0  0  0  0  0  0  0
  190.6360  177.4250  146.3650 C   0  0  0  0  0  3  0  0  0  0  0  0
  192.2230  176.1120  147.6500 C   0  0  0  0  0  0  0  0  0  0  0  0
  191.8290  175.6050  145.3080 C   0  0  0  0  0  3  0  0  0  0  0  0
  192.8550  174.6870  149.4400 O   0  0  0  0  0  0  0  0  0  0  0  0
  192.9120  175.8340  148.9200 C   0  0  0  0  0  0  0  0  0  0  0  0
  193.6320  176.8350  149.5610 O   0  0  0  0  0  1  0  0  0  0  0  0
  190.9050  177.8590  143.0430 N   0  0  0  0  0  0  0  0  0  0  0  0
  190.8960  180.0220  144.0070 O   0  0  0  0  0  1  0  0  0  0  0  0
  191.6330  178.8420  143.8550 C   0  0  0  0  0  2  0  0  0  0  0  0
  191.6830  177.5320  140.9010 C   0  0  0  0  0  1  0  0  0  0  0  0
  191.8630  177.1530  142.2930 N   0  0  0  0  0  2  0  0  0  0  0  0
  1 24  1  1  0  0  0
  1 11  1  0  0  0  0
  1 17  1  0  0  0  0
  2 10  2  0  0  0  0
  2 11  1  0  0  0  0
  3 12  1  0  0  0  0
  3 14  2  0  0  0  0
  4  9  1  0  0  0  0
  4 10  1  0  0  0  0
  5  9  1  0  0  0  0
  5  6  1  0  0  0  0
  6  8  1  0  0  0  0
  7 14  1  0  0  0  0
  8 12  1  0  0  0  0
 10  3  1  0  0  0  0
 11  7  2  0  0  0  0
 13  2  1  0  0  0  0
 15 19  1  0  0  0  0
 16 19  2  0  0  0  0
 17 20  1  0  0  0  0
 17 18  2  0  0  0  0
 18 16  1  0  0  0  0
 19 22  1  0  0  0  0
 20 15  2  0  0  0  0
 22 21  2  0  0  0  0
 22 23  1  0  0  0  0
 24 26  1  0  0  0  0
 26 25  1  0  0  0  0
 27 28  1  0  0  0  0
 28 24  1  0  0  0  0
M  END
>  <MODEL>
1

>  <REMARK>
 VINA RESULT:      -8.2      0.000      0.000
  Name = 
  6 active torsions:
  status: ('A' for Active; 'I' for Inactive)
    1  A    between atoms: C_5  and  N_10
    2  A    between atoms: C_5  and  C_15
    3  A    between atoms: C_5  and  C_21
    4  A    between atoms: N_10  and  C_16
    5  A    between atoms: N_10  and  N_17
    6  A    between atoms: C_18  and  C_26
                            x       y       z     vdW  Elec       q    Type
                         _______ _______ _______ _____ _____    ______ ____

>  <TORSDO>
F 6

$$$$
=
 OpenBabel10222418283D

 28 30  0  0  1  0  0  0  0  0999 V2000
  190.3010  177.6370  139.6390 C   0  0  2  0  0  3  0  0  0  0  0  0
  192.1940  176.2220  138.5910 C   0  0  0  0  0  0  0  0  0  0  0  0
  191.5900  174.3600  137.1240 C   0  0  0  0  0  0  0  0  0  0  0  0
  194.0600  174.9420  137.4990 C   0  0  0  0  0  2  0  0  0  0  0  0
  195.0270  173.4220  136.2290 C   0  0  0  0  0  2  0  0  0  0  0  0
  194.0950  172.7060  135.2570 C   0  0  0  0  0  2  0  0  0  0  0  0
  189.8620  175.7100  138.1510 C   0  0  0  0  0  3  0  0  0  0  0  0
  192.7750  173.4500  135.1020 C   0  0  0  0  0  2  0  0  0  0  0  0
  194.4130  173.5900  137.4750 O   0  0  0  0  0  0  0  0  0  0  0  0
  192.5880  175.1420  137.7660 C   0  0  0  0  0  0  0  0  0  0  0  0
  190.8190  176.4990  138.7890 C   0  0  0  0  0  0  0  0  0  0  0  0
  191.8880  173.1440  136.2980 C   0  0  0  0  0  2  0  0  0  0  0  0
  193.2400  177.0640  139.2580 C   0  0  0  0  0  1  0  0  0  0  0  0
  190.2440  174.6500  137.3350 C   0  0  0  0  0  3  0  0  0  0  0  0
  191.4520  177.9370  143.2430 C   0  0  0  0  0  3  0  0  0  0  0  0
  190.0540  175.9690  143.0670 C   0  0  0  0  0  3  0  0  0  0  0  0
  190.4670  177.3430  141.1080 C   0  0  0  0  0  0  0  0  0  0  0  0
  189.8650  176.2260  141.7060 C   0  0  0  0  0  3  0  0  0  0  0  0
  190.8470  176.8240  143.8450 C   0  0  0  0  0  0  0  0  0  0  0  0
  191.2640  178.1920  141.8830 C   0  0  0  0  0  3  0  0  0  0  0  0
  192.0290  175.8710  145.6690 O   0  0  0  0  0  0  0  0  0  0  0  0
  191.0410  176.5490  145.2770 C   0  0  0  0  0  0  0  0  0  0  0  0
  190.1370  177.0360  146.2140 O   0  0  0  0  0  1  0  0  0  0  0  0
  188.9350  178.0640  139.2760 N   0  0  0  0  0  0  0  0  0  0  0  0
  186.8420  178.6520  140.2160 O   0  0  0  0  0  1  0  0  0  0  0  0
  188.2110  178.5090  140.4720 C   0  0  0  0  0  2  0  0  0  0  0  0
  188.4310  178.7840  137.1480 C   0  0  0  0  0  1  0  0  0  0  0  0
  189.0300  179.1720  138.4140 N   0  0  0  0  0  2  0  0  0  0  0  0
  1 24  1  1  0  0  0
  1 17  1  0  0  0  0
  2 11  1  0  0  0  0
  2 13  1  0  0  0  0
  3 14  2  0  0  0  0
  3 10  1  0  0  0  0
  4 10  1  0  0  0  0
  5  9  1  0  0  0  0
  6  5  1  0  0  0  0
  7 11  2  0  0  0  0
  8  6  1  0  0  0  0
  8 12  1  0  0  0  0
  9  4  1  0  0  0  0
 10  2  2  0  0  0  0
 11  1  1  0  0  0  0
 12  3  1  0  0  0  0
 14  7  1  0  0  0  0
 15 19  1  0  0  0  0
 16 19  2  0  0  0  0
 17 18  2  0  0  0  0
 17 20  1  0  0  0  0
 18 16  1  0  0  0  0
 19 22  1  0  0  0  0
 20 15  2  0  0  0  0
 22 21  2  0  0  0  0
 22 23  1  0  0  0  0
 24 26  1  0  0  0  0
 25 26  1  0  0  0  0
 27 28  1  0  0  0  0
 28 24  1  0  0  0  0
M  END
>  <MODEL>
2

>  <REMARK>
 VINA RESULT:      -7.4      4.416      8.027
  Name = 
  6 active torsions:
  status: ('A' for Active; 'I' for Inactive)
    1  A    between atoms: C_5  and  N_10
    2  A    between atoms: C_5  and  C_15
    3  A    between atoms: C_5  and  C_21
    4  A    between atoms: N_10  and  C_16
    5  A    between atoms: N_10  and  N_17
    6  A    between atoms: C_18  and  C_26
                            x       y       z     vdW  Elec       q    Type
                         _______ _______ _______ _____ _____    ______ ____

>  <TORSDO>
F 6

$$$$
=
 OpenBabel10222418283D

 28 30  0  0  1  0  0  0  0  0999 V2000
  182.2330  178.7580  141.3070 C   0  0  2  0  0  3  0  0  0  0  0  0
  183.5410  178.1810  139.1530 C   0  0  0  0  0  0  0  0  0  0  0  0
  183.4010  175.9030  138.2740 C   0  0  0  0  0  0  0  0  0  0  0  0
  184.7300  177.6860  136.9960 C   0  0  0  0  0  2  0  0  0  0  0  0
  185.4270  176.5060  135.2690 C   0  0  0  0  0  2  0  0  0  0  0  0
  184.7290  175.1630  135.0820 C   0  0  0  0  0  2  0  0  0  0  0  0
  182.2160  176.5000  140.2990 C   0  0  0  0  0  3  0  0  0  0  0  0
  183.4440  175.0860  135.8960 C   0  0  0  0  0  2  0  0  0  0  0  0
  185.6920  176.7440  136.6220 O   0  0  0  0  0  0  0  0  0  0  0  0
  183.9100  177.2260  138.1770 C   0  0  0  0  0  0  0  0  0  0  0  0
  182.6940  177.8080  140.2260 C   0  0  0  0  0  0  0  0  0  0  0  0
  183.7910  174.7900  137.3460 C   0  0  0  0  0  2  0  0  0  0  0  0
  184.0570  179.5850  139.0490 C   0  0  0  0  0  1  0  0  0  0  0  0
  182.5710  175.5580  139.3390 C   0  0  0  0  0  3  0  0  0  0  0  0
  183.3850  178.9330  144.9200 C   0  0  0  0  0  3  0  0  0  0  0  0
  185.2780  178.2760  143.5650 C   0  0  0  0  0  3  0  0  0  0  0  0
  183.1220  178.6750  142.5240 C   0  0  0  0  0  0  0  0  0  0  0  0
  184.4750  178.3250  142.4210 C   0  0  0  0  0  3  0  0  0  0  0  0
  184.7380  178.5780  144.8210 C   0  0  0  0  0  0  0  0  0  0  0  0
  182.5830  178.9840  143.7770 C   0  0  0  0  0  3  0  0  0  0  0  0
  185.4460  179.3730  146.9430 O   0  0  0  0  0  1  0  0  0  0  0  0
  185.5870  178.5240  146.0220 C   0  0  0  0  0  0  0  0  0  0  0  0
  186.5550  177.5350  146.1530 O   0  0  0  0  0  0  0  0  0  0  0  0
  180.7960  178.6370  141.6210 N   0  0  0  0  0  0  0  0  0  0  0  0
  179.9800  180.8600  141.6070 O   0  0  0  0  0  1  0  0  0  0  0  0
  180.3550  179.7850  142.4210 C   0  0  0  0  0  2  0  0  0  0  0  0
  178.9310  177.7900  140.5710 C   0  0  0  0  0  1  0  0  0  0  0  0
  180.0740  178.6720  140.4140 N   0  0  0  0  0  2  0  0  0  0  0  0
  1 24  1  1  0  0  0
  1 17  1  0  0  0  0
  2 11  1  0  0  0  0
  3 14  2  0  0  0  0
  4 10  1  0  0  0  0
  5  9  1  0  0  0  0
  6  5  1  0  0  0  0
  6  8  1  0  0  0  0
  8 12  1  0  0  0  0
  9  4  1  0  0  0  0
 10  3  1  0  0  0  0
 10  2  2  0  0  0  0
 11  7  2  0  0  0  0
 11  1  1  0  0  0  0
 12  3  1  0  0  0  0
 13  2  1  0  0  0  0
 14  7  1  0  0  0  0
 16 19  2  0  0  0  0
 17 20  1  0  0  0  0
 18 17  2  0  0  0  0
 18 16  1  0  0  0  0
 19 15  1  0  0  0  0
 19 22  1  0  0  0  0
 20 15  2  0  0  0  0
 22 23  2  0  0  0  0
 22 21  1  0  0  0  0
 24 26  1  0  0  0  0
 25 26  1  0  0  0  0
 28 27  1  0  0  0  0
 28 24  1  0  0  0  0
M  END
>  <MODEL>
3

>  <REMARK>
 VINA RESULT:      -7.4      5.644      8.719
  Name = 
  6 active torsions:
  status: ('A' for Active; 'I' for Inactive)
    1  A    between atoms: C_5  and  N_10
    2  A    between atoms: C_5  and  C_15
    3  A    between atoms: C_5  and  C_21
    4  A    between atoms: N_10  and  C_16
    5  A    between atoms: N_10  and  N_17
    6  A    between atoms: C_18  and  C_26
                            x       y       z     vdW  Elec       q    Type
                         _______ _______ _______ _____ _____    ______ ____

>  <TORSDO>
F 6

$$$$
=
 OpenBabel10222418283D

 28 30  0  0  1  0  0  0  0  0999 V2000
  188.9270  177.2310  139.7820 C   0  0  2  0  0  3  0  0  0  0  0  0
  187.8980  177.5740  142.1280 C   0  0  0  0  0  0  0  0  0  0  0  0
  189.2250  176.9620  144.0900 C   0  0  0  0  0  0  0  0  0  0  0  0
  186.9110  178.0280  144.3950 C   0  0  0  0  0  2  0  0  0  0  0  0
  186.7900  178.1010  146.5950 C   0  0  0  0  0  2  0  0  0  0  0  0
  188.1100  177.8650  147.3210 C   0  0  0  0  0  2  0  0  0  0  0  0
  190.1260  176.6470  141.8650 C   0  0  0  0  0  3  0  0  0  0  0  0
  189.2970  178.0040  146.3780 C   0  0  0  0  0  2  0  0  0  0  0  0
  186.6560  177.2260  145.5110 O   0  0  0  0  0  0  0  0  0  0  0  0
  188.0200  177.4710  143.5350 C   0  0  0  0  0  0  0  0  0  0  0  0
  188.9580  177.1480  141.2920 C   0  0  0  0  0  0  0  0  0  0  0  0
  189.4330  176.7310  145.5580 C   0  0  0  0  0  2  0  0  0  0  0  0
  186.6370  178.1270  141.5330 C   0  0  0  0  0  1  0  0  0  0  0  0
  190.2540  176.5490  143.2470 C   0  0  0  0  0  3  0  0  0  0  0  0
  192.6100  176.7660  138.9910 C   0  0  0  0  0  3  0  0  0  0  0  0
  191.3570  175.1630  137.6810 C   0  0  0  0  0  3  0  0  0  0  0  0
  190.1940  176.6800  139.1780 C   0  0  0  0  0  0  0  0  0  0  0  0
  190.1670  175.6400  138.2380 C   0  0  0  0  0  3  0  0  0  0  0  0
  192.5870  175.7220  138.0550 C   0  0  0  0  0  0  0  0  0  0  0  0
  191.4200  177.2430  139.5470 C   0  0  0  0  0  3  0  0  0  0  0  0
  194.1760  174.0130  137.6240 O   0  0  0  0  0  1  0  0  0  0  0  0
  193.8370  175.2160  137.4670 C   0  0  0  0  0  0  0  0  0  0  0  0
  194.6580  176.0630  136.7300 O   0  0  0  0  0  0  0  0  0  0  0  0
  188.5700  178.5710  139.2760 N   0  0  0  0  0  0  0  0  0  0  0  0
  188.9180  180.0770  137.4820 O   0  0  0  0  0  1  0  0  0  0  0  0
  189.3320  178.8700  138.0580 C   0  0  0  0  0  2  0  0  0  0  0  0
  187.0360  177.5320  137.9090 C   0  0  0  0  0  1  0  0  0  0  0  0
  187.2090  178.5620  138.9200 N   0  0  0  0  0  2  0  0  0  0  0  0
  1 24  1  1  0  0  0
  1 11  1  0  0  0  0
  2 10  1  0  0  0  0
  3 12  1  0  0  0  0
  4  9  1  0  0  0  0
  5  6  1  0  0  0  0
  7 14  2  0  0  0  0
  8  6  1  0  0  0  0
  9  5  1  0  0  0  0
 10  3  2  0  0  0  0
 10  4  1  0  0  0  0
 11  7  1  0  0  0  0
 11  2  2  0  0  0  0
 12  8  1  0  0  0  0
 13  2  1  0  0  0  0
 14  3  1  0  0  0  0
 15 20  1  0  0  0  0
 16 19  1  0  0  0  0
 16 18  2  0  0  0  0
 17 20  2  0  0  0  0
 17  1  1  0  0  0  0
 18 17  1  0  0  0  0
 19 15  2  0  0  0  0
 22 21  1  0  0  0  0
 22 19  1  0  0  0  0
 23 22  2  0  0  0  0
 25 26  1  0  0  0  0
 26 24  1  0  0  0  0
 27 28  1  0  0  0  0
 28 24  1  0  0  0  0
M  END
>  <MODEL>
4

>  <REMARK>
 VINA RESULT:      -7.2      3.836      6.643
  Name = 
  6 active torsions:
  status: ('A' for Active; 'I' for Inactive)
    1  A    between atoms: C_5  and  N_10
    2  A    between atoms: C_5  and  C_15
    3  A    between atoms: C_5  and  C_21
    4  A    between atoms: N_10  and  C_16
    5  A    between atoms: N_10  and  N_17
    6  A    between atoms: C_18  and  C_26
                            x       y       z     vdW  Elec       q    Type
                         _______ _______ _______ _____ _____    ______ ____

>  <TORSDO>
F 6

$$$$
=
 OpenBabel10222418283D

 28 30  0  0  1  0  0  0  0  0999 V2000
  180.9770  178.6310  140.2780 C   0  0  2  0  0  3  0  0  0  0  0  0
  181.2940  176.6790  138.6140 C   0  0  0  0  0  0  0  0  0  0  0  0
  180.1030  174.5830  139.0270 C   0  0  0  0  0  0  0  0  0  0  0  0
  181.5340  174.8430  136.9150 C   0  0  0  0  0  2  0  0  0  0  0  0
  181.2230  172.8730  135.9750 C   0  0  0  0  0  2  0  0  0  0  0  0
  180.0720  172.0570  136.5540 C   0  0  0  0  0  2  0  0  0  0  0  0
  179.8620  176.4420  140.5600 C   0  0  0  0  0  3  0  0  0  0  0  0
  179.1470  172.9220  137.3990 C   0  0  0  0  0  2  0  0  0  0  0  0
  181.9430  173.5090  136.9920 O   0  0  0  0  0  0  0  0  0  0  0  0
  180.9940  175.3500  138.2300 C   0  0  0  0  0  0  0  0  0  0  0  0
  180.7290  177.2210  139.7940 C   0  0  0  0  0  0  0  0  0  0  0  0
  179.7790  173.1420  138.7640 C   0  0  0  0  0  2  0  0  0  0  0  0
  182.2190  177.5030  137.7690 C   0  0  0  0  0  1  0  0  0  0  0  0
  179.5590  175.1370  140.1840 C   0  0  0  0  0  3  0  0  0  0  0  0
  182.2130  178.8400  143.8610 C   0  0  0  0  0  3  0  0  0  0  0  0
  184.1390  178.5740  142.4210 C   0  0  0  0  0  3  0  0  0  0  0  0
  181.9100  178.6470  141.4630 C   0  0  0  0  0  0  0  0  0  0  0  0
  183.2990  178.5370  141.3050 C   0  0  0  0  0  3  0  0  0  0  0  0
  183.6020  178.7240  143.7060 C   0  0  0  0  0  0  0  0  0  0  0  0
  181.3730  178.8040  142.7450 C   0  0  0  0  0  3  0  0  0  0  0  0
  184.0400  179.0770  146.0120 O   0  0  0  0  0  1  0  0  0  0  0  0
  184.4910  178.7620  144.8780 C   0  0  0  0  0  0  0  0  0  0  0  0
  185.8390  178.4520  144.7460 O   0  0  0  0  0  0  0  0  0  0  0  0
  179.7380  179.4020  140.4960 N   0  0  0  0  0  0  0  0  0  0  0  0
  179.3110  181.4010  141.6930 O   0  0  0  0  0  1  0  0  0  0  0  0
  180.0510  180.8280  140.6520 C   0  0  0  0  0  2  0  0  0  0  0  0
  179.4300  180.2290  138.3700 C   0  0  0  0  0  1  0  0  0  0  0  0
  178.9310  179.2800  139.3500 N   0  0  0  0  0  2  0  0  0  0  0  0
  1 24  1  1  0  0  0
  1 17  1  0  0  0  0
  2 11  1  0  0  0  0
  3 14  2  0  0  0  0
  4  9  1  0  0  0  0
  4 10  1  0  0  0  0
  5  6  1  0  0  0  0
  5  9  1  0  0  0  0
  6  8  1  0  0  0  0
  8 12  1  0  0  0  0
 10  2  2  0  0  0  0
 10  3  1  0  0  0  0
 11  1  1  0  0  0  0
 11  7  2  0  0  0  0
 12  3  1  0  0  0  0
 13  2  1  0  0  0  0
 14  7  1  0  0  0  0
 16 19  2  0  0  0  0
 17 20  1  0  0  0  0
 18 17  2  0  0  0  0
 18 16  1  0  0  0  0
 19 15  1  0  0  0  0
 19 22  1  0  0  0  0
 20 15  2  0  0  0  0
 22 21  1  0  0  0  0
 23 22  2  0  0  0  0
 24 26  1  0  0  0  0
 26 25  1  0  0  0  0
 27 28  1  0  0  0  0
 28 24  1  0  0  0  0
M  END
>  <MODEL>
5

>  <REMARK>
 VINA RESULT:      -7.1      6.543     10.027
  Name = 
  6 active torsions:
  status: ('A' for Active; 'I' for Inactive)
    1  A    between atoms: C_5  and  N_10
    2  A    between atoms: C_5  and  C_15
    3  A    between atoms: C_5  and  C_21
    4  A    between atoms: N_10  and  C_16
    5  A    between atoms: N_10  and  N_17
    6  A    between atoms: C_18  and  C_26
                            x       y       z     vdW  Elec       q    Type
                         _______ _______ _______ _____ _____    ______ ____

>  <TORSDO>
F 6

$$$$
=
 OpenBabel10222418283D

 28 30  0  0  1  0  0  0  0  0999 V2000
  190.1970  177.6010  142.8260 C   0  0  2  0  0  3  0  0  0  0  0  0
  187.8240  177.9900  143.7720 C   0  0  0  0  0  0  0  0  0  0  0  0
  186.0580  178.7160  142.2430 C   0  0  0  0  0  0  0  0  0  0  0  0
  185.5040  178.2470  144.7030 C   0  0  0  0  0  2  0  0  0  0  0  0
  183.3410  178.6730  144.7150 C   0  0  0  0  0  2  0  0  0  0  0  0
  182.6970  178.7780  143.3370 C   0  0  0  0  0  2  0  0  0  0  0  0
  188.3060  178.3530  141.4210 C   0  0  0  0  0  3  0  0  0  0  0  0
  183.5980  178.1950  142.2560 C   0  0  0  0  0  2  0  0  0  0  0  0
  184.5900  179.3040  144.7300 O   0  0  0  0  0  0  0  0  0  0  0  0
  186.4760  178.3630  143.5540 C   0  0  0  0  0  0  0  0  0  0  0  0
  188.7440  177.9960  142.6960 C   0  0  0  0  0  0  0  0  0  0  0  0
  184.6790  179.2060  141.9120 C   0  0  0  0  0  2  0  0  0  0  0  0
  188.2700  177.5980  145.1490 C   0  0  0  0  0  1  0  0  0  0  0  0
  186.9810  178.7150  141.2000 C   0  0  0  0  0  3  0  0  0  0  0  0
  192.7210  177.2760  140.0090 C   0  0  0  0  0  3  0  0  0  0  0  0
  190.6040  176.4090  139.2190 C   0  0  0  0  0  3  0  0  0  0  0  0
  190.7950  177.2650  141.4830 C   0  0  0  0  0  0  0  0  0  0  0  0
  190.0260  176.6910  140.4600 C   0  0  0  0  0  3  0  0  0  0  0  0
  191.9550  176.6980  138.9860 C   0  0  0  0  0  0  0  0  0  0  0  0
  192.1420  177.5600  141.2480 C   0  0  0  0  0  3  0  0  0  0  0  0
  191.8900  175.8140  136.7840 O   0  0  0  0  0  0  0  0  0  0  0  0
  192.5590  176.3980  137.6780 C   0  0  0  0  0  0  0  0  0  0  0  0
  193.8770  176.7550  137.4150 O   0  0  0  0  0  1  0  0  0  0  0  0
  190.4340  176.5650  143.8500 N   0  0  0  0  0  0  0  0  0  0  0  0
  191.6810  174.5670  143.5930 O   0  0  0  0  0  1  0  0  0  0  0  0
  190.5110  175.2410  143.2200 C   0  0  0  0  0  2  0  0  0  0  0  0
  191.4800  176.7760  145.8890 C   0  0  0  0  0  1  0  0  0  0  0  0
  191.6820  176.8100  144.4500 N   0  0  0  0  0  2  0  0  0  0  0  0
  1 24  1  1  0  0  0
  2 13  1  0  0  0  0
  3 10  2  0  0  0  0
  4  9  1  0  0  0  0
  5  9  1  0  0  0  0
  6  5  1  0  0  0  0
  7 11  1  0  0  0  0
  8  6  1  0  0  0  0
 10  2  1  0  0  0  0
 10  4  1  0  0  0  0
 11  1  1  0  0  0  0
 11  2  2  0  0  0  0
 12  3  1  0  0  0  0
 12  8  1  0  0  0  0
 14  7  2  0  0  0  0
 14  3  1  0  0  0  0
 15 20  1  0  0  0  0
 16 18  2  0  0  0  0
 17  1  1  0  0  0  0
 18 17  1  0  0  0  0
 19 16  1  0  0  0  0
 19 15  2  0  0  0  0
 20 17  2  0  0  0  0
 21 22  2  0  0  0  0
 22 19  1  0  0  0  0
 23 22  1  0  0  0  0
 24 28  1  0  0  0  0
 26 25  1  0  0  0  0
 26 24  1  0  0  0  0
 28 27  1  0  0  0  0
M  END
>  <MODEL>
6

>  <REMARK>
 VINA RESULT:      -7.1      2.833      5.610
  Name = 
  6 active torsions:
  status: ('A' for Active; 'I' for Inactive)
    1  A    between atoms: C_5  and  N_10
    2  A    between atoms: C_5  and  C_15
    3  A    between atoms: C_5  and  C_21
    4  A    between atoms: N_10  and  C_16
    5  A    between atoms: N_10  and  N_17
    6  A    between atoms: C_18  and  C_26
                            x       y       z     vdW  Elec       q    Type
                         _______ _______ _______ _____ _____    ______ ____

>  <TORSDO>
F 6

$$$$
=
 OpenBabel10222418283D

 28 30  0  0  1  0  0  0  0  0999 V2000
  182.7430  178.6320  139.9500 C   0  0  2  0  0  3  0  0  0  0  0  0
  182.3150  176.4540  138.6250 C   0  0  0  0  0  0  0  0  0  0  0  0
  180.4380  175.0320  139.2850 C   0  0  0  0  0  0  0  0  0  0  0  0
  181.8590  174.4050  137.2440 C   0  0  0  0  0  2  0  0  0  0  0  0
  180.8430  172.5580  136.6000 C   0  0  0  0  0  2  0  0  0  0  0  0
  179.4740  172.3210  137.2300 C   0  0  0  0  0  2  0  0  0  0  0  0
  180.9020  177.0740  140.4990 C   0  0  0  0  0  3  0  0  0  0  0  0
  178.9330  173.5890  137.8770 C   0  0  0  0  0  2  0  0  0  0  0  0
  181.7490  173.0450  137.5480 O   0  0  0  0  0  0  0  0  0  0  0  0
  181.5460  175.2810  138.4330 C   0  0  0  0  0  0  0  0  0  0  0  0
  181.9920  177.3490  139.6740 C   0  0  0  0  0  0  0  0  0  0  0  0
  179.6060  173.7840  139.2270 C   0  0  0  0  0  2  0  0  0  0  0  0
  183.4760  176.7350  137.7190 C   0  0  0  0  0  1  0  0  0  0  0  0
  180.1390  175.9260  140.3110 C   0  0  0  0  0  3  0  0  0  0  0  0
  185.1890  178.2370  142.8260 C   0  0  0  0  0  3  0  0  0  0  0  0
  183.0790  178.9910  143.7390 C   0  0  0  0  0  3  0  0  0  0  0  0
  183.3100  178.6440  141.3470 C   0  0  0  0  0  0  0  0  0  0  0  0
  182.5300  179.0090  142.4530 C   0  0  0  0  0  3  0  0  0  0  0  0
  184.4120  178.6070  143.9330 C   0  0  0  0  0  0  0  0  0  0  0  0
  184.6390  178.2530  141.5420 C   0  0  0  0  0  3  0  0  0  0  0  0
  186.2330  178.5220  145.4530 O   0  0  0  0  0  0  0  0  0  0  0  0
  184.9850  178.5910  145.2880 C   0  0  0  0  0  0  0  0  0  0  0  0
  184.1550  178.6500  146.4020 O   0  0  0  0  0  1  0  0  0  0  0  0
  181.9710  179.8460  139.6200 N   0  0  0  0  0  0  0  0  0  0  0  0
  184.1220  180.4920  138.8680 O   0  0  0  0  0  1  0  0  0  0  0  0
  182.7470  180.7090  138.7210 C   0  0  0  0  0  2  0  0  0  0  0  0
  180.9240  179.9920  137.5750 C   0  0  0  0  0  1  0  0  0  0  0  0
  180.8120  179.4580  138.9220 N   0  0  0  0  0  2  0  0  0  0  0  0
  1 24  1  1  0  0  0
  1 17  1  0  0  0  0
  2 11  1  0  0  0  0
  3 14  2  0  0  0  0
  4  9  1  0  0  0  0
  4 10  1  0  0  0  0
  5  6  1  0  0  0  0
  5  9  1  0  0  0  0
  6  8  1  0  0  0  0
  8 12  1  0  0  0  0
 10  2  2  0  0  0  0
 10  3  1  0  0  0  0
 11  1  1  0  0  0  0
 11  7  2  0  0  0  0
 12  3  1  0  0  0  0
 13  2  1  0  0  0  0
 14  7  1  0  0  0  0
 15 19  1  0  0  0  0
 16 19  2  0  0  0  0
 17 20  1  0  0  0  0
 17 18  2  0  0  0  0
 18 16  1  0  0  0  0
 19 22  1  0  0  0  0
 20 15  2  0  0  0  0
 22 21  2  0  0  0  0
 22 23  1  0  0  0  0
 26 25  1  0  0  0  0
 26 24  1  0  0  0  0
 27 28  1  0  0  0  0
 28 24  1  0  0  0  0
M  END
>  <MODEL>
7

>  <REMARK>
 VINA RESULT:      -7.1      5.872      9.025
  Name = 
  6 active torsions:
  status: ('A' for Active; 'I' for Inactive)
    1  A    between atoms: C_5  and  N_10
    2  A    between atoms: C_5  and  C_15
    3  A    between atoms: C_5  and  C_21
    4  A    between atoms: N_10  and  C_16
    5  A    between atoms: N_10  and  N_17
    6  A    between atoms: C_18  and  C_26
                            x       y       z     vdW  Elec       q    Type
                         _______ _______ _______ _____ _____    ______ ____

>  <TORSDO>
F 6

$$$$
=
 OpenBabel10222418283D

 28 30  0  0  1  0  0  0  0  0999 V2000
  189.4620  177.8480  141.0490 C   0  0  2  0  0  3  0  0  0  0  0  0
  191.4860  177.1040  139.6230 C   0  0  0  0  0  0  0  0  0  0  0  0
  191.0880  175.6640  137.6870 C   0  0  0  0  0  0  0  0  0  0  0  0
  193.4610  176.4960  138.1930 C   0  0  0  0  0  2  0  0  0  0  0  0
  194.5740  175.5700  136.5310 C   0  0  0  0  0  2  0  0  0  0  0  0
  193.7080  175.0220  135.4010 C   0  0  0  0  0  2  0  0  0  0  0  0
  189.2360  176.3780  139.0730 C   0  0  0  0  0  3  0  0  0  0  0  0
  192.2860  175.5630  135.4780 C   0  0  0  0  0  2  0  0  0  0  0  0
  194.0080  175.2800  137.7770 O   0  0  0  0  0  0  0  0  0  0  0  0
  191.9920  176.3780  138.5190 C   0  0  0  0  0  0  0  0  0  0  0  0
  190.0980  177.0930  139.9030 C   0  0  0  0  0  0  0  0  0  0  0  0
  191.5190  174.7950  136.5420 C   0  0  0  0  0  2  0  0  0  0  0  0
  192.4300  177.8760  140.4960 C   0  0  0  0  0  1  0  0  0  0  0  0
  189.7270  175.6670  137.9830 C   0  0  0  0  0  3  0  0  0  0  0  0
  190.8490  175.7330  143.8800 C   0  0  0  0  0  3  0  0  0  0  0  0
  191.0090  178.0570  144.5360 C   0  0  0  0  0  3  0  0  0  0  0  0
  190.0890  177.4700  142.3680 C   0  0  0  0  0  0  0  0  0  0  0  0
  190.4480  178.4400  143.3140 C   0  0  0  0  0  3  0  0  0  0  0  0
  191.2150  176.7020  144.8260 C   0  0  0  0  0  0  0  0  0  0  0  0
  190.2870  176.1160  142.6600 C   0  0  0  0  0  3  0  0  0  0  0  0
  192.4310  175.2150  146.2200 O   0  0  0  0  0  0  0  0  0  0  0  0
  191.8060  176.3040  146.1130 C   0  0  0  0  0  0  0  0  0  0  0  0
  191.6820  177.1270  147.2270 O   0  0  0  0  0  1  0  0  0  0  0  0
  187.9880  177.7700  141.0560 N   0  0  0  0  0  0  0  0  0  0  0  0
  186.9460  177.2030  143.1050 O   0  0  0  0  0  1  0  0  0  0  0  0
  187.4630  178.2530  142.3380 C   0  0  0  0  0  2  0  0  0  0  0  0
  186.0450  178.6280  140.1680 C   0  0  0  0  0  1  0  0  0  0  0  0
  187.4940  178.6280  140.0570 N   0  0  0  0  0  2  0  0  0  0  0  0
  1 24  1  1  0  0  0
  1 17  1  0  0  0  0
  2 11  1  0  0  0  0
  2 13  1  0  0  0  0
  3 14  2  0  0  0  0
  3 10  1  0  0  0  0
  4 10  1  0  0  0  0
  5  9  1  0  0  0  0
  6  8  1  0  0  0  0
  6  5  1  0  0  0  0
  7 11  2  0  0  0  0
  8 12  1  0  0  0  0
  9  4  1  0  0  0  0
 10  2  2  0  0  0  0
 11  1  1  0  0  0  0
 12  3  1  0  0  0  0
 14  7  1  0  0  0  0
 15 19  1  0  0  0  0
 16 19  2  0  0  0  0
 17 20  1  0  0  0  0
 17 18  2  0  0  0  0
 18 16  1  0  0  0  0
 19 22  1  0  0  0  0
 20 15  2  0  0  0  0
 22 21  2  0  0  0  0
 22 23  1  0  0  0  0
 24 26  1  0  0  0  0
 26 25  1  0  0  0  0
 28 27  1  0  0  0  0
 28 24  1  0  0  0  0
M  END
>  <MODEL>
8

>  <REMARK>
 VINA RESULT:      -7.0      3.525      7.083
  Name = 
  6 active torsions:
  status: ('A' for Active; 'I' for Inactive)
    1  A    between atoms: C_5  and  N_10
    2  A    between atoms: C_5  and  C_15
    3  A    between atoms: C_5  and  C_21
    4  A    between atoms: N_10  and  C_16
    5  A    between atoms: N_10  and  N_17
    6  A    between atoms: C_18  and  C_26
                            x       y       z     vdW  Elec       q    Type
                         _______ _______ _______ _____ _____    ______ ____

>  <TORSDO>
F 6

$$$$
=
 OpenBabel10222418283D

 28 30  0  0  1  0  0  0  0  0999 V2000
  183.3850  178.6620  139.1140 C   0  0  2  0  0  3  0  0  0  0  0  0
  184.8350  177.0180  137.7440 C   0  0  0  0  0  0  0  0  0  0  0  0
  184.1220  174.6850  137.5800 C   0  0  0  0  0  0  0  0  0  0  0  0
  186.2060  175.4750  136.3110 C   0  0  0  0  0  2  0  0  0  0  0  0
  186.8060  173.6020  135.3160 C   0  0  0  0  0  2  0  0  0  0  0  0
  185.7510  172.5000  135.3270 C   0  0  0  0  0  2  0  0  0  0  0  0
  182.8160  176.2680  138.8640 C   0  0  0  0  0  3  0  0  0  0  0  0
  184.3760  173.0490  135.6860 C   0  0  0  0  0  2  0  0  0  0  0  0
  186.8500  174.2590  136.5500 O   0  0  0  0  0  0  0  0  0  0  0  0
  185.0540  175.7070  137.2590 C   0  0  0  0  0  0  0  0  0  0  0  0
  183.7110  177.2930  138.5600 C   0  0  0  0  0  0  0  0  0  0  0  0
  184.2970  173.2460  137.1910 C   0  0  0  0  0  2  0  0  0  0  0  0
  185.8040  178.1090  137.3960 C   0  0  0  0  0  1  0  0  0  0  0  0
  183.0240  174.9780  138.3850 C   0  0  0  0  0  3  0  0  0  0  0  0
  185.3190  178.9900  142.3630 C   0  0  0  0  0  3  0  0  0  0  0  0
  182.9860  178.6620  142.9140 C   0  0  0  0  0  3  0  0  0  0  0  0
  183.6840  178.7410  140.5900 C   0  0  0  0  0  0  0  0  0  0  0  0
  182.6740  178.6030  141.5520 C   0  0  0  0  0  3  0  0  0  0  0  0
  184.3100  178.8570  143.3280 C   0  0  0  0  0  0  0  0  0  0  0  0
  185.0070  178.9300  141.0030 C   0  0  0  0  0  3  0  0  0  0  0  0
  185.8230  178.7860  145.1550 O   0  0  0  0  0  0  0  0  0  0  0  0
  184.6340  178.9190  144.7620 C   0  0  0  0  0  0  0  0  0  0  0  0
  183.6280  179.1240  145.6990 O   0  0  0  0  0  1  0  0  0  0  0  0
  182.0280  179.1270  138.7640 N   0  0  0  0  0  0  0  0  0  0  0  0
  183.0200  181.2750  138.6670 O   0  0  0  0  0  1  0  0  0  0  0  0
  181.8890  180.5560  139.0700 C   0  0  0  0  0  2  0  0  0  0  0  0
  180.4550  178.6590  137.1510 C   0  0  0  0  0  1  0  0  0  0  0  0
  181.8530  178.9830  137.3760 N   0  0  0  0  0  2  0  0  0  0  0  0
  1 24  1  1  0  0  0
  1 17  1  0  0  0  0
  2 11  1  0  0  0  0
  3 14  2  0  0  0  0
  4  9  1  0  0  0  0
  4 10  1  0  0  0  0
  5  6  1  0  0  0  0
  5  9  1  0  0  0  0
  6  8  1  0  0  0  0
  8 12  1  0  0  0  0
 10  3  1  0  0  0  0
 10  2  2  0  0  0  0
 11  7  2  0  0  0  0
 11  1  1  0  0  0  0
 12  3  1  0  0  0  0
 13  2  1  0  0  0  0
 14  7  1  0  0  0  0
 15 19  1  0  0  0  0
 16 19  2  0  0  0  0
 17 20  1  0  0  0  0
 17 18  2  0  0  0  0
 18 16  1  0  0  0  0
 19 22  1  0  0  0  0
 20 15  2  0  0  0  0
 22 21  2  0  0  0  0
 22 23  1  0  0  0  0
 24 26  1  0  0  0  0
 25 26  1  0  0  0  0
 27 28  1  0  0  0  0
 28 24  1  0  0  0  0
M  END
>  <MODEL>
9

>  <REMARK>
 VINA RESULT:      -6.9      6.156      9.186
  Name = 
  6 active torsions:
  status: ('A' for Active; 'I' for Inactive)
    1  A    between atoms: C_5  and  N_10
    2  A    between atoms: C_5  and  C_15
    3  A    between atoms: C_5  and  C_21
    4  A    between atoms: N_10  and  C_16
    5  A    between atoms: N_10  and  N_17
    6  A    between atoms: C_18  and  C_26
                            x       y       z     vdW  Elec       q    Type
                         _______ _______ _______ _____ _____    ______ ____

>  <TORSDO>
F 6

$$$$
