=
 OpenBabel10222420193D

 27 30  0  0  1  0  0  0  0  0999 V2000
  190.5870  177.8240  143.4920 C   0  0  2  0  0  3  0  0  0  0  0  0
  188.6730  177.6390  142.1890 N   0  0  0  0  0  0  0  0  0  0  0  0
  188.2930  178.0530  143.4980 C   0  0  2  0  0  3  0  0  0  0  0  0
  190.3330  177.2790  146.3090 C   0  0  0  0  0  3  0  0  0  0  0  0
  191.2880  176.4960  145.4740 C   0  0  0  0  0  0  0  0  0  0  0  0
  191.3480  176.6980  144.1440 C   0  0  0  0  0  3  0  0  0  0  0  0
  189.3650  178.1360  144.2840 C   0  0  1  0  0  3  0  0  0  0  0  0
  189.3920  178.0490  145.7490 C   0  0  0  0  0  3  0  0  0  0  0  0
  189.9550  177.4650  142.1860 C   0  0  0  0  0  0  0  0  0  0  0  0
  183.4910  178.4790  142.2270 C   0  0  0  0  0  1  0  0  0  0  0  0
  186.5020  178.2440  145.2580 C   0  0  0  0  0  3  0  0  0  0  0  0
  186.8750  178.1780  143.9070 C   0  0  0  0  0  0  0  0  0  0  0  0
  184.1750  178.4540  144.6280 C   0  0  0  0  0  3  0  0  0  0  0  0
  184.5360  178.3960  143.2810 C   0  0  0  0  0  0  0  0  0  0  0  0
  185.1580  178.3790  145.6180 C   0  0  0  0  0  0  0  0  0  0  0  0
  184.8010  178.4390  146.9580 O   0  0  0  0  0  1  0  0  0  0  0  0
  185.8810  178.2610  142.9220 C   0  0  0  0  0  3  0  0  0  0  0  0
  192.1980  176.7640  139.3420 C   0  0  0  0  0  0  0  0  0  0  0  0
  190.2100  176.2490  140.0990 N   0  0  0  0  0  0  0  0  0  0  0  0
  191.1460  176.0660  139.0800 N   0  0  0  0  0  0  0  0  0  0  0  0
  190.6910  177.0600  140.9820 C   0  0  0  0  0  0  0  0  0  0  0  0
  192.0640  177.5200  140.6220 C   0  0  0  0  0  2  0  0  0  0  0  0
  193.2360  176.3180  137.1620 C   0  0  0  0  0  1  0  0  0  0  0  0
  193.3090  176.7820  138.5010 O   0  0  0  0  0  0  0  0  0  0  0  0
  192.1120  175.4480  146.0990 C   0  0  0  0  0  0  0  0  0  0  0  0
  192.5010  175.5490  147.4670 N   0  0  0  0  0  1  0  0  0  0  0  0
  192.4820  174.4470  145.4290 O   0  0  0  0  0  0  0  0  0  0  0  0
  1  6  1  1  0  0  0
  1  7  1  0  0  0  0
  2  3  1  0  0  0  0
  3 12  1  1  0  0  0
  3  7  1  0  0  0  0
  5 25  1  0  0  0  0
  5  4  1  0  0  0  0
  6  5  2  0  0  0  0
  7  8  1  1  0  0  0
  8  4  2  0  0  0  0
  9  2  2  0  0  0  0
  9  1  1  0  0  0  0
 10 14  1  0  0  0  0
 11 15  1  0  0  0  0
 12 11  2  0  0  0  0
 13 15  2  0  0  0  0
 14 13  1  0  0  0  0
 15 16  1  0  0  0  0
 17 14  2  0  0  0  0
 17 12  1  0  0  0  0
 18 22  1  0  0  0  0
 19 21  2  0  0  0  0
 20 18  2  0  0  0  0
 20 19  1  0  0  0  0
 21  9  1  0  0  0  0
 22 21  1  0  0  0  0
 23 24  1  0  0  0  0
 24 18  1  0  0  0  0
 25 26  1  0  0  0  0
 27 25  2  0  0  0  0
M  END
>  <MODEL>
1

>  <REMARK>
 VINA RESULT:      -9.4      0.000      0.000
  Name = 
  4 active torsions:
  status: ('A' for Active; 'I' for Inactive)
    1  A    between atoms: C_4  and  O_13
    2  A    between atoms: C_5  and  C_16
    3  A    between atoms: C_6  and  C_11
    4  A    between atoms: C_21  and  C_26
                            x       y       z     vdW  Elec       q    Type
                         _______ _______ _______ _____ _____    ______ ____

>  <TORSDO>
F 4

$$$$
=
 OpenBabel10222420193D

 27 30  0  0  1  0  0  0  0  0999 V2000
  188.3530  178.5960  141.3210 C   0  0  2  0  0  3  0  0  0  0  0  0
  187.2130  178.1670  143.3000 N   0  0  0  0  0  0  0  0  0  0  0  0
  188.6110  178.0500  143.5460 C   0  0  2  0  0  3  0  0  0  0  0  0
  190.8550  177.2320  140.9080 C   0  0  0  0  0  3  0  0  0  0  0  0
  189.7400  177.0710  139.9310 C   0  0  0  0  0  0  0  0  0  0  0  0
  188.5450  177.6470  140.1660 C   0  0  0  0  0  3  0  0  0  0  0  0
  189.2950  178.2550  142.4220 C   0  0  1  0  0  3  0  0  0  0  0  0
  190.6480  177.7750  142.1130 C   0  0  0  0  0  3  0  0  0  0  0  0
  187.0540  178.4310  142.0420 C   0  0  0  0  0  0  0  0  0  0  0  0
  188.0450  177.5140  148.4700 C   0  0  0  0  0  1  0  0  0  0  0  0
  190.4220  177.0040  144.9480 C   0  0  0  0  0  3  0  0  0  0  0  0
  189.1480  177.5840  144.8440 C   0  0  0  0  0  0  0  0  0  0  0  0
  190.1360  176.7520  147.3380 C   0  0  0  0  0  3  0  0  0  0  0  0
  188.8710  177.3350  147.2470 C   0  0  0  0  0  0  0  0  0  0  0  0
  190.9130  176.5870  146.1890 C   0  0  0  0  0  0  0  0  0  0  0  0
  192.1730  176.0100  146.2780 O   0  0  0  0  0  1  0  0  0  0  0  0
  188.3810  177.7510  146.0050 C   0  0  0  0  0  3  0  0  0  0  0  0
  183.5420  178.6510  140.9340 C   0  0  0  0  0  0  0  0  0  0  0  0
  185.5360  179.3800  140.4010 N   0  0  0  0  0  0  0  0  0  0  0  0
  184.1760  179.3820  140.0830 N   0  0  0  0  0  0  0  0  0  0  0  0
  185.7300  178.6450  141.4450 C   0  0  0  0  0  0  0  0  0  0  0  0
  184.4560  178.0570  141.9540 C   0  0  0  0  0  2  0  0  0  0  0  0
  181.2950  178.9880  141.8650 C   0  0  0  0  0  1  0  0  0  0  0  0
  182.1630  178.4620  140.8730 O   0  0  0  0  0  0  0  0  0  0  0  0
  189.9290  176.2200  138.7440 C   0  0  0  0  0  0  0  0  0  0  0  0
  189.0290  176.3020  137.6410 N   0  0  0  0  0  1  0  0  0  0  0  0
  190.8930  175.4110  138.6900 O   0  0  0  0  0  0  0  0  0  0  0  0
  1  6  1  6  0  0  0
  1  9  1  0  0  0  0
  1  7  1  0  0  0  0
  2  3  1  0  0  0  0
  3 12  1  6  0  0  0
  4  8  2  0  0  0  0
  5  6  2  0  0  0  0
  5  4  1  0  0  0  0
  7  8  1  6  0  0  0
  7  3  1  0  0  0  0
  9  2  2  0  0  0  0
 11 15  1  0  0  0  0
 12 11  2  0  0  0  0
 12 17  1  0  0  0  0
 14 13  1  0  0  0  0
 14 10  1  0  0  0  0
 15 16  1  0  0  0  0
 15 13  2  0  0  0  0
 17 14  2  0  0  0  0
 18 22  1  0  0  0  0
 19 21  2  0  0  0  0
 20 19  1  0  0  0  0
 20 18  2  0  0  0  0
 21 22  1  0  0  0  0
 21  9  1  0  0  0  0
 24 18  1  0  0  0  0
 24 23  1  0  0  0  0
 25  5  1  0  0  0  0
 26 25  1  0  0  0  0
 27 25  2  0  0  0  0
M  END
>  <MODEL>
2

>  <REMARK>
 VINA RESULT:      -9.3      2.623      6.641
  Name = 
  4 active torsions:
  status: ('A' for Active; 'I' for Inactive)
    1  A    between atoms: C_4  and  O_13
    2  A    between atoms: C_5  and  C_16
    3  A    between atoms: C_6  and  C_11
    4  A    between atoms: C_21  and  C_26
                            x       y       z     vdW  Elec       q    Type
                         _______ _______ _______ _____ _____    ______ ____

>  <TORSDO>
F 4

$$$$
=
 OpenBabel10222420193D

 27 30  0  0  1  0  0  0  0  0999 V2000
  190.6410  177.7840  143.1210 C   0  0  2  0  0  3  0  0  0  0  0  0
  188.7600  177.5850  141.7730 N   0  0  0  0  0  0  0  0  0  0  0  0
  188.3480  178.0180  143.0660 C   0  0  2  0  0  3  0  0  0  0  0  0
  190.3150  177.2780  145.9380 C   0  0  0  0  0  3  0  0  0  0  0  0
  191.2880  176.4810  145.1380 C   0  0  0  0  0  0  0  0  0  0  0  0
  191.3830  176.6650  143.8070 C   0  0  0  0  0  3  0  0  0  0  0  0
  189.4000  178.1090  143.8780 C   0  0  1  0  0  3  0  0  0  0  0  0
  189.3900  178.0420  145.3440 C   0  0  0  0  0  3  0  0  0  0  0  0
  190.0420  177.4090  141.8050 C   0  0  0  0  0  0  0  0  0  0  0  0
  184.8590  178.3550  146.6110 C   0  0  0  0  0  1  0  0  0  0  0  0
  185.9100  178.2050  142.4650 C   0  0  0  0  0  3  0  0  0  0  0  0
  186.9210  178.1510  143.4370 C   0  0  0  0  0  0  0  0  0  0  0  0
  184.2250  178.3650  144.1960 C   0  0  0  0  0  3  0  0  0  0  0  0
  185.2220  178.3050  145.1710 C   0  0  0  0  0  0  0  0  0  0  0  0
  184.5680  178.3140  142.8420 C   0  0  0  0  0  0  0  0  0  0  0  0
  183.5770  178.3710  141.8720 O   0  0  0  0  0  1  0  0  0  0  0  0
  186.5650  178.1950  144.7920 C   0  0  0  0  0  3  0  0  0  0  0  0
  192.3500  176.6700  139.0240 C   0  0  0  0  0  0  0  0  0  0  0  0
  190.3520  176.1520  139.7500 N   0  0  0  0  0  0  0  0  0  0  0  0
  191.3110  175.9560  138.7540 N   0  0  0  0  0  0  0  0  0  0  0  0
  190.8060  176.9860  140.6250 C   0  0  0  0  0  0  0  0  0  0  0  0
  192.1830  177.4510  140.2850 C   0  0  0  0  0  2  0  0  0  0  0  0
  193.4300  176.2200  136.8650 C   0  0  0  0  0  1  0  0  0  0  0  0
  193.4780  176.6810  138.2060 O   0  0  0  0  0  0  0  0  0  0  0  0
  192.0940  175.4410  145.7980 C   0  0  0  0  0  0  0  0  0  0  0  0
  192.4440  175.5570  147.1750 N   0  0  0  0  0  1  0  0  0  0  0  0
  192.4810  174.4320  145.1500 O   0  0  0  0  0  0  0  0  0  0  0  0
  1  6  1  1  0  0  0
  1  7  1  0  0  0  0
  2  9  2  0  0  0  0
  2  3  1  0  0  0  0
  3 12  1  1  0  0  0
  3  7  1  0  0  0  0
  5 25  1  0  0  0  0
  5  4  1  0  0  0  0
  6  5  2  0  0  0  0
  7  8  1  1  0  0  0
  8  4  2  0  0  0  0
  9  1  1  0  0  0  0
 11 15  2  0  0  0  0
 11 12  1  0  0  0  0
 12 17  2  0  0  0  0
 13 14  2  0  0  0  0
 14 10  1  0  0  0  0
 15 13  1  0  0  0  0
 16 15  1  0  0  0  0
 17 14  1  0  0  0  0
 18 22  1  0  0  0  0
 19 21  2  0  0  0  0
 20 18  2  0  0  0  0
 20 19  1  0  0  0  0
 21  9  1  0  0  0  0
 22 21  1  0  0  0  0
 23 24  1  0  0  0  0
 24 18  1  0  0  0  0
 25 26  1  0  0  0  0
 27 25  2  0  0  0  0
M  END
>  <MODEL>
3

>  <REMARK>
 VINA RESULT:      -9.2      1.102      1.675
  Name = 
  4 active torsions:
  status: ('A' for Active; 'I' for Inactive)
    1  A    between atoms: C_4  and  O_13
    2  A    between atoms: C_5  and  C_16
    3  A    between atoms: C_6  and  C_11
    4  A    between atoms: C_21  and  C_26
                            x       y       z     vdW  Elec       q    Type
                         _______ _______ _______ _____ _____    ______ ____

>  <TORSDO>
F 4

$$$$
=
 OpenBabel10222420193D

 27 30  0  0  1  0  0  0  0  0999 V2000
  188.2870  178.6400  141.3220 C   0  0  2  0  0  3  0  0  0  0  0  0
  187.0590  178.2180  143.2490 N   0  0  0  0  0  0  0  0  0  0  0  0
  188.4440  178.0950  143.5570 C   0  0  2  0  0  3  0  0  0  0  0  0
  190.7990  177.2640  141.0210 C   0  0  0  0  0  3  0  0  0  0  0  0
  189.7280  177.1070  139.9960 C   0  0  0  0  0  0  0  0  0  0  0  0
  188.5260  177.6880  140.1780 C   0  0  0  0  0  3  0  0  0  0  0  0
  189.1790  178.2960  142.4640 C   0  0  1  0  0  3  0  0  0  0  0  0
  190.5420  177.8090  142.2160 C   0  0  0  0  0  3  0  0  0  0  0  0
  186.9570  178.4810  141.9860 C   0  0  0  0  0  0  0  0  0  0  0  0
  192.0300  176.0110  146.3230 C   0  0  0  0  0  1  0  0  0  0  0  0
  188.1130  177.7060  146.0230 C   0  0  0  0  0  3  0  0  0  0  0  0
  188.9220  177.6280  144.8780 C   0  0  0  0  0  0  0  0  0  0  0  0
  189.8600  176.6910  147.3540 C   0  0  0  0  0  3  0  0  0  0  0  0
  190.6700  176.6010  146.2210 C   0  0  0  0  0  0  0  0  0  0  0  0
  188.5800  177.2430  147.2560 C   0  0  0  0  0  0  0  0  0  0  0  0
  187.7730  177.3300  148.3820 O   0  0  0  0  0  1  0  0  0  0  0  0
  190.2010  177.0650  144.9870 C   0  0  0  0  0  3  0  0  0  0  0  0
  183.4910  178.7600  140.7530 C   0  0  0  0  0  0  0  0  0  0  0  0
  185.5320  179.3430  140.2180 N   0  0  0  0  0  0  0  0  0  0  0  0
  184.1830  179.3790  139.8590 N   0  0  0  0  0  0  0  0  0  0  0  0
  185.6610  178.7000  141.3310 C   0  0  0  0  0  0  0  0  0  0  0  0
  184.3470  178.2220  141.8510 C   0  0  0  0  0  2  0  0  0  0  0  0
  181.2870  178.6140  141.8240 C   0  0  0  0  0  1  0  0  0  0  0  0
  182.1070  178.6310  140.6660 O   0  0  0  0  0  0  0  0  0  0  0  0
  189.9650  176.2540  138.8190 C   0  0  0  0  0  0  0  0  0  0  0  0
  189.1120  176.3340  137.6800 N   0  0  0  0  0  1  0  0  0  0  0  0
  190.9310  175.4450  138.8070 O   0  0  0  0  0  0  0  0  0  0  0  0
  1  6  1  6  0  0  0
  1  9  1  0  0  0  0
  1  7  1  0  0  0  0
  2  3  1  0  0  0  0
  3 12  1  6  0  0  0
  4  8  2  0  0  0  0
  5  6  2  0  0  0  0
  5  4  1  0  0  0  0
  7  8  1  6  0  0  0
  7  3  1  0  0  0  0
  9  2  2  0  0  0  0
 11 15  1  0  0  0  0
 12 17  1  0  0  0  0
 12 11  2  0  0  0  0
 14 10  1  0  0  0  0
 14 13  1  0  0  0  0
 15 13  2  0  0  0  0
 15 16  1  0  0  0  0
 17 14  2  0  0  0  0
 18 22  1  0  0  0  0
 19 21  2  0  0  0  0
 20 19  1  0  0  0  0
 20 18  2  0  0  0  0
 21 22  1  0  0  0  0
 21  9  1  0  0  0  0
 24 18  1  0  0  0  0
 24 23  1  0  0  0  0
 25  5  1  0  0  0  0
 26 25  1  0  0  0  0
 27 25  2  0  0  0  0
M  END
>  <MODEL>
4

>  <REMARK>
 VINA RESULT:      -9.0      2.635      6.545
  Name = 
  4 active torsions:
  status: ('A' for Active; 'I' for Inactive)
    1  A    between atoms: C_4  and  O_13
    2  A    between atoms: C_5  and  C_16
    3  A    between atoms: C_6  and  C_11
    4  A    between atoms: C_21  and  C_26
                            x       y       z     vdW  Elec       q    Type
                         _______ _______ _______ _____ _____    ______ ____

>  <TORSDO>
F 4

$$$$
=
 OpenBabel10222420193D

 27 30  0  0  1  0  0  0  0  0999 V2000
  188.8460  176.5850  142.0850 C   0  0  2  0  0  3  0  0  0  0  0  0
  190.8630  176.9100  143.1920 N   0  0  0  0  0  0  0  0  0  0  0  0
  189.8290  176.7710  144.1630 C   0  0  2  0  0  3  0  0  0  0  0  0
  186.4600  177.5830  143.3530 C   0  0  0  0  0  3  0  0  0  0  0  0
  186.8390  178.0510  141.9900 C   0  0  0  0  0  0  0  0  0  0  0  0
  187.9950  177.6430  141.4310 C   0  0  0  0  0  3  0  0  0  0  0  0
  188.6510  176.6180  143.5610 C   0  0  1  0  0  3  0  0  0  0  0  0
  187.3280  176.9170  144.1250 C   0  0  0  0  0  3  0  0  0  0  0  0
  190.3150  176.8510  142.0210 C   0  0  0  0  0  0  0  0  0  0  0  0
  188.2330  178.3980  148.5960 C   0  0  0  0  0  1  0  0  0  0  0  0
  191.2870  176.5860  146.2080 C   0  0  0  0  0  3  0  0  0  0  0  0
  190.0740  176.9620  145.6100 C   0  0  0  0  0  0  0  0  0  0  0  0
  190.5020  177.3830  148.3540 C   0  0  0  0  0  3  0  0  0  0  0  0
  189.2940  177.7670  147.7680 C   0  0  0  0  0  0  0  0  0  0  0  0
  191.4990  176.7940  147.5740 C   0  0  0  0  0  0  0  0  0  0  0  0
  192.7020  176.4130  148.1550 O   0  0  0  0  0  1  0  0  0  0  0  0
  189.0830  177.5600  146.4010 C   0  0  0  0  0  3  0  0  0  0  0  0
  191.8680  176.8160  138.6750 C   0  0  0  0  0  0  0  0  0  0  0  0
  192.2770  177.4610  140.7250 N   0  0  0  0  0  0  0  0  0  0  0  0
  192.7550  177.3870  139.4160 N   0  0  0  0  0  0  0  0  0  0  0  0
  191.0990  176.9340  140.7820 C   0  0  0  0  0  0  0  0  0  0  0  0
  190.6520  176.4320  139.4500 C   0  0  0  0  0  2  0  0  0  0  0  0
  193.1560  175.8360  136.8280 C   0  0  0  0  0  1  0  0  0  0  0  0
  192.0630  176.6000  137.3120 O   0  0  0  0  0  0  0  0  0  0  0  0
  185.9790  179.0170  141.2860 C   0  0  0  0  0  0  0  0  0  0  0  0
  185.8040  178.9400  139.8740 N   0  0  0  0  0  1  0  0  0  0  0  0
  185.3860  179.9230  141.9290 O   0  0  0  0  0  0  0  0  0  0  0  0
  1  6  1  6  0  0  0
  1  7  1  0  0  0  0
  2  3  1  0  0  0  0
  3 12  1  1  0  0  0
  4  8  2  0  0  0  0
  5  4  1  0  0  0  0
  6  5  2  0  0  0  0
  7  8  1  6  0  0  0
  7  3  1  0  0  0  0
  9  1  1  0  0  0  0
  9  2  2  0  0  0  0
 11 15  1  0  0  0  0
 12 11  2  0  0  0  0
 12 17  1  0  0  0  0
 14 13  1  0  0  0  0
 14 10  1  0  0  0  0
 15 16  1  0  0  0  0
 15 13  2  0  0  0  0
 17 14  2  0  0  0  0
 18 20  2  0  0  0  0
 18 22  1  0  0  0  0
 19 21  2  0  0  0  0
 20 19  1  0  0  0  0
 21  9  1  0  0  0  0
 22 21  1  0  0  0  0
 23 24  1  0  0  0  0
 24 18  1  0  0  0  0
 25 27  2  0  0  0  0
 25  5  1  0  0  0  0
 26 25  1  0  0  0  0
M  END
>  <MODEL>
5

>  <REMARK>
 VINA RESULT:      -8.9      2.193      5.257
  Name = 
  4 active torsions:
  status: ('A' for Active; 'I' for Inactive)
    1  A    between atoms: C_4  and  O_13
    2  A    between atoms: C_5  and  C_16
    3  A    between atoms: C_6  and  C_11
    4  A    between atoms: C_21  and  C_26
                            x       y       z     vdW  Elec       q    Type
                         _______ _______ _______ _____ _____    ______ ____

>  <TORSDO>
F 4

$$$$
=
 OpenBabel10222420193D

 27 30  0  0  1  0  0  0  0  0999 V2000
  187.9380  176.6110  143.9020 C   0  0  2  0  0  3  0  0  0  0  0  0
  187.1980  177.9290  142.1370 N   0  0  0  0  0  0  0  0  0  0  0  0
  188.3540  177.2110  141.7150 C   0  0  2  0  0  3  0  0  0  0  0  0
  190.7660  176.1020  144.0850 C   0  0  0  0  0  3  0  0  0  0  0  0
  190.0460  176.7570  145.2130 C   0  0  0  0  0  0  0  0  0  0  0  0
  188.7400  177.0660  145.0940 C   0  0  0  0  0  3  0  0  0  0  0  0
  188.8260  176.4700  142.7160 C   0  0  1  0  0  3  0  0  0  0  0  0
  190.2020  175.9800  142.8770 C   0  0  0  0  0  3  0  0  0  0  0  0
  186.9810  177.6330  143.3790 C   0  0  0  0  0  0  0  0  0  0  0  0
  192.1180  176.3360  138.5670 C   0  0  0  0  0  1  0  0  0  0  0  0
  188.4250  178.3080  139.4500 C   0  0  0  0  0  3  0  0  0  0  0  0
  188.9910  177.4420  140.3990 C   0  0  0  0  0  0  0  0  0  0  0  0
  190.2600  177.8780  137.9320 C   0  0  0  0  0  3  0  0  0  0  0  0
  190.8350  177.0200  138.8710 C   0  0  0  0  0  0  0  0  0  0  0  0
  189.0550  178.5230  138.2210 C   0  0  0  0  0  0  0  0  0  0  0  0
  188.4830  179.3780  137.2880 O   0  0  0  0  0  1  0  0  0  0  0  0
  190.2040  176.8060  140.1010 C   0  0  0  0  0  3  0  0  0  0  0  0
  183.8450  178.9500  144.8080 C   0  0  0  0  0  0  0  0  0  0  0  0
  185.9170  178.5230  145.3720 N   0  0  0  0  0  0  0  0  0  0  0  0
  184.6750  179.0030  145.7930 N   0  0  0  0  0  0  0  0  0  0  0  0
  185.8430  178.1790  144.1290 C   0  0  0  0  0  0  0  0  0  0  0  0
  184.4780  178.4040  143.5710 C   0  0  0  0  0  2  0  0  0  0  0  0
  181.5390  179.0020  143.9690 C   0  0  0  0  0  1  0  0  0  0  0  0
  182.5200  179.3640  144.9270 O   0  0  0  0  0  0  0  0  0  0  0  0
  190.7850  177.1320  146.4300 C   0  0  0  0  0  0  0  0  0  0  0  0
  190.0900  177.5030  147.6180 N   0  0  0  0  0  1  0  0  0  0  0  0
  192.0450  177.1270  146.4330 O   0  0  0  0  0  0  0  0  0  0  0  0
  1  6  1  1  0  0  0
  2  9  2  0  0  0  0
  3 12  1  1  0  0  0
  3  2  1  0  0  0  0
  3  7  1  0  0  0  0
  4  5  1  0  0  0  0
  5 25  1  0  0  0  0
  6  5  2  0  0  0  0
  7  8  1  1  0  0  0
  7  1  1  0  0  0  0
  8  4  2  0  0  0  0
  9  1  1  0  0  0  0
  9 21  1  0  0  0  0
 10 14  1  0  0  0  0
 11 12  1  0  0  0  0
 13 15  1  0  0  0  0
 13 14  2  0  0  0  0
 14 17  1  0  0  0  0
 15 11  2  0  0  0  0
 16 15  1  0  0  0  0
 17 12  2  0  0  0  0
 18 24  1  0  0  0  0
 18 20  2  0  0  0  0
 19 20  1  0  0  0  0
 21 19  2  0  0  0  0
 22 21  1  0  0  0  0
 22 18  1  0  0  0  0
 23 24  1  0  0  0  0
 25 27  2  0  0  0  0
 25 26  1  0  0  0  0
M  END
>  <MODEL>
6

>  <REMARK>
 VINA RESULT:      -8.8      2.519      6.905
  Name = 
  4 active torsions:
  status: ('A' for Active; 'I' for Inactive)
    1  A    between atoms: C_4  and  O_13
    2  A    between atoms: C_5  and  C_16
    3  A    between atoms: C_6  and  C_11
    4  A    between atoms: C_21  and  C_26
                            x       y       z     vdW  Elec       q    Type
                         _______ _______ _______ _____ _____    ______ ____

>  <TORSDO>
F 4

$$$$
=
 OpenBabel10222420193D

 27 30  0  0  1  0  0  0  0  0999 V2000
  187.0790  176.9700  144.5150 C   0  0  2  0  0  3  0  0  0  0  0  0
  186.7880  178.0510  142.4790 N   0  0  0  0  0  0  0  0  0  0  0  0
  188.0590  177.4070  142.4740 C   0  0  2  0  0  3  0  0  0  0  0  0
  189.7670  176.7430  145.5250 C   0  0  0  0  0  3  0  0  0  0  0  0
  188.7160  177.4280  146.3300 C   0  0  0  0  0  0  0  0  0  0  0  0
  187.4800  177.6030  145.8230 C   0  0  0  0  0  3  0  0  0  0  0  0
  188.2750  176.8060  143.6430 C   0  0  1  0  0  3  0  0  0  0  0  0
  189.5760  176.4620  144.2310 C   0  0  0  0  0  3  0  0  0  0  0  0
  186.2480  177.8480  143.6370 C   0  0  0  0  0  0  0  0  0  0  0  0
  188.9460  178.5080  137.6930 C   0  0  0  0  0  1  0  0  0  0  0  0
  190.3990  177.3420  141.5460 C   0  0  0  0  0  3  0  0  0  0  0  0
  189.0270  177.5770  141.3670 C   0  0  0  0  0  0  0  0  0  0  0  0
  190.8160  177.8760  139.2220 C   0  0  0  0  0  3  0  0  0  0  0  0
  189.4530  178.1050  139.0310 C   0  0  0  0  0  0  0  0  0  0  0  0
  191.2900  177.4930  140.4800 C   0  0  0  0  0  0  0  0  0  0  0  0
  192.6460  177.2630  140.6700 O   0  0  0  0  0  1  0  0  0  0  0  0
  188.5620  177.9530  140.0990 C   0  0  0  0  0  3  0  0  0  0  0  0
  182.7830  179.0710  143.9730 C   0  0  0  0  0  0  0  0  0  0  0  0
  184.5580  178.6560  145.1840 N   0  0  0  0  0  0  0  0  0  0  0  0
  183.2360  179.1040  145.1790 N   0  0  0  0  0  0  0  0  0  0  0  0
  184.9110  178.3530  143.9790 C   0  0  0  0  0  0  0  0  0  0  0  0
  183.8050  178.5760  143.0040 C   0  0  0  0  0  2  0  0  0  0  0  0
  180.3680  178.6280  143.9250 C   0  0  0  0  0  1  0  0  0  0  0  0
  181.4840  179.4610  143.6540 O   0  0  0  0  0  0  0  0  0  0  0  0
  189.0550  177.9780  147.6540 C   0  0  0  0  0  0  0  0  0  0  0  0
  188.0640  178.6270  148.4470 N   0  0  0  0  0  1  0  0  0  0  0  0
  190.2290  177.8780  148.1000 O   0  0  0  0  0  0  0  0  0  0  0  0
  1  6  1  1  0  0  0
  2  9  2  0  0  0  0
  3 12  1  1  0  0  0
  3  2  1  0  0  0  0
  3  7  1  0  0  0  0
  4  5  1  0  0  0  0
  5 25  1  0  0  0  0
  6  5  2  0  0  0  0
  7  8  1  1  0  0  0
  7  1  1  0  0  0  0
  8  4  2  0  0  0  0
  9 21  1  0  0  0  0
  9  1  1  0  0  0  0
 10 14  1  0  0  0  0
 12 11  1  0  0  0  0
 13 15  1  0  0  0  0
 14 13  2  0  0  0  0
 14 17  1  0  0  0  0
 15 16  1  0  0  0  0
 15 11  2  0  0  0  0
 17 12  2  0  0  0  0
 18 20  2  0  0  0  0
 20 19  1  0  0  0  0
 21 19  2  0  0  0  0
 22 18  1  0  0  0  0
 22 21  1  0  0  0  0
 24 23  1  0  0  0  0
 24 18  1  0  0  0  0
 25 27  2  0  0  0  0
 25 26  1  0  0  0  0
M  END
>  <MODEL>
7

>  <REMARK>
 VINA RESULT:      -8.8      2.861      7.022
  Name = 
  4 active torsions:
  status: ('A' for Active; 'I' for Inactive)
    1  A    between atoms: C_4  and  O_13
    2  A    between atoms: C_5  and  C_16
    3  A    between atoms: C_6  and  C_11
    4  A    between atoms: C_21  and  C_26
                            x       y       z     vdW  Elec       q    Type
                         _______ _______ _______ _____ _____    ______ ____

>  <TORSDO>
F 4

$$$$
=
 OpenBabel10222420193D

 27 30  0  0  1  0  0  0  0  0999 V2000
  185.6160  177.6210  142.6050 C   0  0  2  0  0  3  0  0  0  0  0  0
  187.0200  178.4630  140.9560 N   0  0  0  0  0  0  0  0  0  0  0  0
  187.8130  177.7810  141.9230 C   0  0  2  0  0  3  0  0  0  0  0  0
  186.6750  177.4230  145.2760 C   0  0  0  0  0  3  0  0  0  0  0  0
  185.4520  178.2330  145.0090 C   0  0  0  0  0  0  0  0  0  0  0  0
  185.0040  178.3890  143.7480 C   0  0  0  0  0  3  0  0  0  0  0  0
  187.0420  177.3140  142.9040 C   0  0  1  0  0  3  0  0  0  0  0  0
  187.4570  176.9980  144.2770 C   0  0  0  0  0  3  0  0  0  0  0  0
  185.7890  178.4170  141.3520 C   0  0  0  0  0  0  0  0  0  0  0  0
  192.0230  176.9190  139.3960 C   0  0  0  0  0  1  0  0  0  0  0  0
  190.0620  178.1670  142.9880 C   0  0  0  0  0  3  0  0  0  0  0  0
  189.2930  177.7870  141.8780 C   0  0  0  0  0  0  0  0  0  0  0  0
  192.0980  177.7420  141.7520 C   0  0  0  0  0  3  0  0  0  0  0  0
  191.3430  177.3550  140.6440 C   0  0  0  0  0  0  0  0  0  0  0  0
  191.4580  178.1480  142.9260 C   0  0  0  0  0  0  0  0  0  0  0  0
  192.2080  178.5310  144.0290 O   0  0  0  0  0  1  0  0  0  0  0  0
  189.9460  177.3740  140.7080 C   0  0  0  0  0  3  0  0  0  0  0  0
  182.7050  179.6050  139.7110 C   0  0  0  0  0  0  0  0  0  0  0  0
  184.8790  179.8310  139.6000 N   0  0  0  0  0  0  0  0  0  0  0  0
  183.6450  180.2040  139.0640 N   0  0  0  0  0  0  0  0  0  0  0  0
  184.6910  179.0030  140.5720 C   0  0  0  0  0  0  0  0  0  0  0  0
  183.2410  178.7290  140.7950 C   0  0  0  0  0  2  0  0  0  0  0  0
  180.9420  180.6090  138.3280 C   0  0  0  0  0  1  0  0  0  0  0  0
  181.3580  179.7810  139.4020 O   0  0  0  0  0  0  0  0  0  0  0  0
  184.7780  178.9230  146.1220 C   0  0  0  0  0  0  0  0  0  0  0  0
  185.5230  179.3960  147.2420 N   0  0  0  0  0  1  0  0  0  0  0  0
  183.5320  179.1050  146.0930 O   0  0  0  0  0  0  0  0  0  0  0  0
  1  7  1  0  0  0  0
  1  6  1  1  0  0  0
  2  9  2  0  0  0  0
  2  3  1  0  0  0  0
  3 12  1  1  0  0  0
  3  7  1  0  0  0  0
  5  4  1  0  0  0  0
  5 25  1  0  0  0  0
  6  5  2  0  0  0  0
  7  8  1  1  0  0  0
  8  4  2  0  0  0  0
  9  1  1  0  0  0  0
 10 14  1  0  0  0  0
 12 11  2  0  0  0  0
 13 15  2  0  0  0  0
 14 17  2  0  0  0  0
 14 13  1  0  0  0  0
 15 11  1  0  0  0  0
 15 16  1  0  0  0  0
 17 12  1  0  0  0  0
 18 22  1  0  0  0  0
 19 21  2  0  0  0  0
 20 19  1  0  0  0  0
 20 18  2  0  0  0  0
 21 22  1  0  0  0  0
 21  9  1  0  0  0  0
 23 24  1  0  0  0  0
 24 18  1  0  0  0  0
 25 26  1  0  0  0  0
 27 25  2  0  0  0  0
M  END
>  <MODEL>
8

>  <REMARK>
 VINA RESULT:      -8.4      3.111      7.251
  Name = 
  4 active torsions:
  status: ('A' for Active; 'I' for Inactive)
    1  A    between atoms: C_4  and  O_13
    2  A    between atoms: C_5  and  C_16
    3  A    between atoms: C_6  and  C_11
    4  A    between atoms: C_21  and  C_26
                            x       y       z     vdW  Elec       q    Type
                         _______ _______ _______ _____ _____    ______ ____

>  <TORSDO>
F 4

$$$$
=
 OpenBabel10222420193D

 27 30  0  0  1  0  0  0  0  0999 V2000
  188.5210  176.4780  143.4570 C   0  0  2  0  0  3  0  0  0  0  0  0
  188.4810  177.5550  141.3980 N   0  0  0  0  0  0  0  0  0  0  0  0
  189.6520  176.7470  141.4660 C   0  0  2  0  0  3  0  0  0  0  0  0
  191.0980  175.9090  144.6080 C   0  0  0  0  0  3  0  0  0  0  0  0
  190.1100  176.7410  145.3510 C   0  0  0  0  0  0  0  0  0  0  0  0
  188.9370  177.0720  144.7780 C   0  0  0  0  0  3  0  0  0  0  0  0
  189.7250  176.1410  142.6500 C   0  0  1  0  0  3  0  0  0  0  0  0
  190.9370  175.6350  143.3080 C   0  0  0  0  0  3  0  0  0  0  0  0
  187.8600  177.4460  142.5290 C   0  0  0  0  0  0  0  0  0  0  0  0
  190.9350  175.9740  136.7110 C   0  0  0  0  0  1  0  0  0  0  0  0
  192.0150  177.1340  140.6860 C   0  0  0  0  0  3  0  0  0  0  0  0
  190.6890  176.7670  140.4090 C   0  0  0  0  0  0  0  0  0  0  0  0
  192.6260  176.7520  138.3750 C   0  0  0  0  0  3  0  0  0  0  0  0
  191.3110  176.3790  138.0910 C   0  0  0  0  0  0  0  0  0  0  0  0
  192.9790  177.1290  139.6730 C   0  0  0  0  0  0  0  0  0  0  0  0
  194.2860  177.4980  139.9580 O   0  0  0  0  0  1  0  0  0  0  0  0
  190.3480  176.3840  139.1050 C   0  0  0  0  0  3  0  0  0  0  0  0
  184.6670  178.9020  143.6670 C   0  0  0  0  0  0  0  0  0  0  0  0
  186.0460  178.9600  141.9690 N   0  0  0  0  0  0  0  0  0  0  0  0
  184.8510  179.4380  142.5090 N   0  0  0  0  0  0  0  0  0  0  0  0
  186.5890  178.1310  142.7960 C   0  0  0  0  0  0  0  0  0  0  0  0
  185.7720  177.9670  144.0340 C   0  0  0  0  0  2  0  0  0  0  0  0
  182.2320  179.0030  143.9680 C   0  0  0  0  0  1  0  0  0  0  0  0
  183.5530  179.1890  144.4530 O   0  0  0  0  0  0  0  0  0  0  0  0
  190.4540  177.2620  146.6850 C   0  0  0  0  0  0  0  0  0  0  0  0
  189.4610  177.8760  147.5030 N   0  0  0  0  0  1  0  0  0  0  0  0
  191.6330  177.1660  147.1180 O   0  0  0  0  0  0  0  0  0  0  0  0
  1  6  1  1  0  0  0
  2  3  1  0  0  0  0
  2  9  2  0  0  0  0
  3 12  1  1  0  0  0
  3  7  1  0  0  0  0
  4  5  1  0  0  0  0
  5 25  1  0  0  0  0
  6  5  2  0  0  0  0
  7  8  1  1  0  0  0
  7  1  1  0  0  0  0
  8  4  2  0  0  0  0
  9 21  1  0  0  0  0
  9  1  1  0  0  0  0
 10 14  1  0  0  0  0
 12 11  1  0  0  0  0
 13 15  1  0  0  0  0
 14 13  2  0  0  0  0
 14 17  1  0  0  0  0
 15 16  1  0  0  0  0
 15 11  2  0  0  0  0
 17 12  2  0  0  0  0
 18 22  1  0  0  0  0
 18 24  1  0  0  0  0
 19 20  1  0  0  0  0
 19 21  2  0  0  0  0
 20 18  2  0  0  0  0
 21 22  1  0  0  0  0
 23 24  1  0  0  0  0
 25 27  2  0  0  0  0
 25 26  1  0  0  0  0
M  END
>  <MODEL>
9

>  <REMARK>
 VINA RESULT:      -8.3      1.915      6.884
  Name = 
  4 active torsions:
  status: ('A' for Active; 'I' for Inactive)
    1  A    between atoms: C_4  and  O_13
    2  A    between atoms: C_5  and  C_16
    3  A    between atoms: C_6  and  C_11
    4  A    between atoms: C_21  and  C_26
                            x       y       z     vdW  Elec       q    Type
                         _______ _______ _______ _____ _____    ______ ____

>  <TORSDO>
F 4

$$$$
