=
 OpenBabel10222421243D

 40 45  0  0  1  0  0  0  0  0999 V2000
  189.3710  177.7200  140.6860 C   0  0  1  0  0  3  0  0  0  0  0  0
  185.0960  179.5470  142.0830 O   0  0  0  0  0  0  0  0  0  0  0  0
  185.2410  179.2120  139.7790 N   0  0  0  0  0  2  0  0  0  0  0  0
  190.2360  177.3710  139.1210 S   0  0  0  0  0  0  0  0  0  0  0  0
  188.7660  177.8340  138.1450 C   0  0  2  0  0  3  0  0  0  0  0  0
  187.7520  178.3180  139.0640 N   0  0  0  0  0  0  0  0  0  0  0  0
  187.1230  178.7020  141.3280 N   0  0  0  0  0  2  0  0  0  0  0  0
  185.7870  179.1680  141.1000 C   0  0  0  0  0  0  0  0  0  0  0  0
  188.0390  178.2610  140.3190 C   0  0  0  0  0  0  0  0  0  0  0  0
  186.9520  175.2570  136.5270 C   0  0  0  0  0  0  0  0  0  0  0  0
  185.9170  174.4940  136.1020 N   0  0  0  0  0  0  0  0  0  0  0  0
  188.2630  176.6550  137.3660 C   0  0  0  0  0  0  0  0  0  0  0  0
  188.2210  174.8950  136.2290 C   0  0  0  0  0  0  0  0  0  0  0  0
  186.7550  173.2840  135.2850 S   0  0  0  0  0  0  0  0  0  0  0  0
  189.0990  175.7590  136.7490 N   0  0  0  0  0  0  0  0  0  0  0  0
  188.3650  173.7430  135.4890 C   0  0  0  0  0  0  0  0  0  0  0  0
  186.9260  176.3730  137.2620 N   0  0  0  0  0  2  0  0  0  0  0  0
  189.6000  173.0770  135.0010 C   0  0  0  0  0  1  0  0  0  0  0  0
  183.8460  179.5440  139.5100 C   0  0  0  0  0  2  0  0  0  0  0  0
  183.0160  178.2870  139.2330 C   0  0  1  0  0  3  0  0  0  0  0  0
  183.7800  177.3030  138.3650 C   0  0  1  0  0  3  0  0  0  0  0  0
  183.0930  176.0160  138.3560 C   0  0  0  0  0  2  0  0  0  0  0  0
  182.9540  176.9260  137.2120 N   0  0  0  0  0  2  0  0  0  0  0  0
  182.5580  177.6140  140.5180 C   0  0  0  0  0  2  0  0  0  0  0  0
  181.2570  178.2130  141.0180 C   0  0  0  0  0  2  0  0  0  0  0  0
  180.3210  179.8570  142.5990 C   0  0  0  0  0  2  0  0  0  0  0  0
  181.4700  178.9010  142.3510 C   0  0  0  0  0  3  0  0  0  0  0  0
  180.3460  178.5100  143.2920 C   0  0  0  0  0  2  0  0  0  0  0  0
  189.2080  176.4880  141.4370 N   0  0  0  0  0  2  0  0  0  0  0  0
  190.0310  176.6030  142.6310 C   0  0  0  0  0  2  0  0  0  0  0  0
  187.5810  177.5920  146.0190 C   0  0  0  0  0  0  0  0  0  0  0  0
  189.1830  176.9530  143.8000 C   0  0  0  0  0  0  0  0  0  0  0  0
  187.8060  176.7040  143.7670 C   0  0  0  0  0  3  0  0  0  0  0  0
  187.0110  177.0240  144.8720 C   0  0  0  0  0  3  0  0  0  0  0  0
  189.7650  177.5100  144.9440 C   0  0  0  0  0  3  0  0  0  0  0  0
  188.9670  177.8300  146.0470 C   0  0  0  0  0  3  0  0  0  0  0  0
  186.7400  177.8930  147.1020 O   0  0  0  0  0  0  0  0  0  0  0  0
  185.7480  178.8840  147.1300 C   0  0  0  0  0  0  0  0  0  0  0  0
  184.5770  178.6610  146.7200 O   0  0  0  0  0  0  0  0  0  0  0  0
  186.0550  180.1080  147.6240 F   0  0  0  0  0  0  0  0  0  0  0  0
  1 29  1  6  0  0  0
  3  8  1  0  0  0  0
  4  1  1  0  0  0  0
  5 12  1  1  0  0  0
  5  6  1  0  0  0  0
  5  4  1  0  0  0  0
  6  9  2  0  0  0  0
  8  7  1  0  0  0  0
  8  2  2  0  0  0  0
  9  1  1  0  0  0  0
  9  7  1  0  0  0  0
 10 17  1  0  0  0  0
 11 10  2  0  0  0  0
 13 10  1  0  0  0  0
 13 15  1  0  0  0  0
 14 16  1  0  0  0  0
 14 11  1  0  0  0  0
 15 12  2  0  0  0  0
 16 13  2  0  0  0  0
 17 12  1  0  0  0  0
 18 16  1  0  0  0  0
 19  3  1  0  0  0  0
 20 19  1  1  0  0  0
 20 24  1  0  0  0  0
 21 20  1  1  0  0  0
 22 21  1  0  0  0  0
 23 22  1  0  0  0  0
 23 21  1  0  0  0  0
 24 25  1  0  0  0  0
 25 27  1  0  0  0  0
 26 28  1  0  0  0  0
 27 26  1  0  0  0  0
 27 28  1  0  0  0  0
 29 30  1  0  0  0  0
 30 32  1  0  0  0  0
 31 36  1  0  0  0  0
 31 37  1  0  0  0  0
 32 35  1  0  0  0  0
 33 32  2  0  0  0  0
 33 34  1  0  0  0  0
 34 31  2  0  0  0  0
 35 36  2  0  0  0  0
 37 38  1  0  0  0  0
 38 40  1  0  0  0  0
 39 38  2  0  0  0  0
M  END
>  <MODEL>
1

>  <REMARK>
 VINA RESULT:      -8.2      0.000      0.000
  Name = 
  12 active torsions:
  status: ('A' for Active; 'I' for Inactive)
    1  A    between atoms: C_1  and  O_27
    2  A    between atoms: C_2  and  N_30
    3  A    between atoms: C_3  and  C_18
    4  A    between atoms: C_5  and  C_25
    5  A    between atoms: N_6  and  C_20
    6  A    between atoms: C_8  and  C_21
    7  A    between atoms: C_8  and  C_33
    8  A    between atoms: C_10  and  O_27
    9  A    between atoms: C_11  and  C_22
   10  A    between atoms: C_18  and  C_20
   11  A    between atoms: C_18  and  C_33
   12  A    between atoms: C_25  and  N_30
                            x       y       z     vdW  Elec       q    Type
                         _______ _______ _______ _____ _____    ______ ____

>  <TORSDO>
F 12

$$$$
=
 OpenBabel10222421243D

 40 45  0  0  1  0  0  0  0  0999 V2000
  189.4670  177.7870  140.6930 C   0  0  1  0  0  3  0  0  0  0  0  0
  185.0730  179.4620  141.8970 O   0  0  0  0  0  0  0  0  0  0  0  0
  185.3200  179.1030  139.6060 N   0  0  0  0  0  2  0  0  0  0  0  0
  190.4040  177.4510  139.1680 S   0  0  0  0  0  0  0  0  0  0  0  0
  188.9570  177.8430  138.1290 C   0  0  2  0  0  3  0  0  0  0  0  0
  187.8900  178.2990  139.0010 N   0  0  0  0  0  0  0  0  0  0  0  0
  187.1580  178.6880  141.2330 N   0  0  0  0  0  2  0  0  0  0  0  0
  185.8150  179.0980  140.9470 C   0  0  0  0  0  0  0  0  0  0  0  0
  188.1290  178.2690  140.2680 C   0  0  0  0  0  0  0  0  0  0  0  0
  188.4770  175.1600  135.8660 C   0  0  0  0  0  0  0  0  0  0  0  0
  188.6500  174.3320  134.8090 N   0  0  0  0  0  0  0  0  0  0  0  0
  188.5310  176.6340  137.3500 C   0  0  0  0  0  0  0  0  0  0  0  0
  187.4320  174.9710  136.7040 C   0  0  0  0  0  0  0  0  0  0  0  0
  187.3370  173.3010  135.0200 S   0  0  0  0  0  0  0  0  0  0  0  0
  187.4210  175.8940  137.6710 N   0  0  0  0  0  0  0  0  0  0  0  0
  186.6000  173.9150  136.4080 C   0  0  0  0  0  0  0  0  0  0  0  0
  189.2060  176.2190  136.2320 N   0  0  0  0  0  2  0  0  0  0  0  0
  185.3810  173.4400  137.1110 C   0  0  0  0  0  1  0  0  0  0  0  0
  183.9250  179.3760  139.2790 C   0  0  0  0  0  2  0  0  0  0  0  0
  183.2210  178.1240  138.7450 C   0  0  1  0  0  3  0  0  0  0  0  0
  182.8350  177.1850  139.8740 C   0  0  1  0  0  3  0  0  0  0  0  0
  181.4920  176.6630  139.6430 C   0  0  0  0  0  2  0  0  0  0  0  0
  182.6630  175.8280  139.3420 N   0  0  0  0  0  2  0  0  0  0  0  0
  181.9990  178.4750  137.9080 C   0  0  0  0  0  2  0  0  0  0  0  0
  181.6590  179.9480  138.0240 C   0  0  0  0  0  2  0  0  0  0  0  0
  180.3910  180.2860  140.1120 C   0  0  0  0  0  2  0  0  0  0  0  0
  180.2730  180.1260  138.6110 C   0  0  0  0  0  3  0  0  0  0  0  0
  180.1780  181.5050  139.2380 C   0  0  0  0  0  2  0  0  0  0  0  0
  189.3230  176.5590  141.4550 N   0  0  0  0  0  2  0  0  0  0  0  0
  190.1360  176.7020  142.6530 C   0  0  0  0  0  2  0  0  0  0  0  0
  187.6260  177.5960  146.0240 C   0  0  0  0  0  0  0  0  0  0  0  0
  189.2680  177.0030  143.8220 C   0  0  0  0  0  0  0  0  0  0  0  0
  189.8200  177.5670  144.9780 C   0  0  0  0  0  3  0  0  0  0  0  0
  189.0000  177.8610  146.0720 C   0  0  0  0  0  3  0  0  0  0  0  0
  187.8940  176.7460  143.7580 C   0  0  0  0  0  3  0  0  0  0  0  0
  187.0780  177.0380  144.8550 C   0  0  0  0  0  3  0  0  0  0  0  0
  186.8460  177.9100  147.1490 O   0  0  0  0  0  0  0  0  0  0  0  0
  185.8010  178.8430  147.1980 C   0  0  0  0  0  0  0  0  0  0  0  0
  184.6320  178.5480  146.8250 O   0  0  0  0  0  0  0  0  0  0  0  0
  186.0500  180.0870  147.6720 F   0  0  0  0  0  0  0  0  0  0  0  0
  1 29  1  6  0  0  0
  3  8  1  0  0  0  0
  4  1  1  0  0  0  0
  5 12  1  1  0  0  0
  5  6  1  0  0  0  0
  5  4  1  0  0  0  0
  6  9  2  0  0  0  0
  8  7  1  0  0  0  0
  8  2  2  0  0  0  0
  9  1  1  0  0  0  0
  9  7  1  0  0  0  0
 10 17  1  0  0  0  0
 10 13  1  0  0  0  0
 11 14  1  0  0  0  0
 11 10  2  0  0  0  0
 12 15  2  0  0  0  0
 13 15  1  0  0  0  0
 14 16  1  0  0  0  0
 16 13  2  0  0  0  0
 16 18  1  0  0  0  0
 17 12  1  0  0  0  0
 19  3  1  0  0  0  0
 20 24  1  1  0  0  0
 20 19  1  0  0  0  0
 21 20  1  6  0  0  0
 22 21  1  0  0  0  0
 23 22  1  0  0  0  0
 23 21  1  0  0  0  0
 24 25  1  0  0  0  0
 25 27  1  0  0  0  0
 27 28  1  0  0  0  0
 27 26  1  0  0  0  0
 28 26  1  0  0  0  0
 29 30  1  0  0  0  0
 30 32  1  0  0  0  0
 31 34  1  0  0  0  0
 31 37  1  0  0  0  0
 32 33  1  0  0  0  0
 33 34  2  0  0  0  0
 35 32  2  0  0  0  0
 35 36  1  0  0  0  0
 36 31  2  0  0  0  0
 37 38  1  0  0  0  0
 38 40  1  0  0  0  0
 39 38  2  0  0  0  0
M  END
>  <MODEL>
2

>  <REMARK>
 VINA RESULT:      -8.1      1.280      1.976
  Name = 
  12 active torsions:
  status: ('A' for Active; 'I' for Inactive)
    1  A    between atoms: C_1  and  O_27
    2  A    between atoms: C_2  and  N_30
    3  A    between atoms: C_3  and  C_18
    4  A    between atoms: C_5  and  C_25
    5  A    between atoms: N_6  and  C_20
    6  A    between atoms: C_8  and  C_21
    7  A    between atoms: C_8  and  C_33
    8  A    between atoms: C_10  and  O_27
    9  A    between atoms: C_11  and  C_22
   10  A    between atoms: C_18  and  C_20
   11  A    between atoms: C_18  and  C_33
   12  A    between atoms: C_25  and  N_30
                            x       y       z     vdW  Elec       q    Type
                         _______ _______ _______ _____ _____    ______ ____

>  <TORSDO>
F 12

$$$$
=
 OpenBabel10222421243D

 40 45  0  0  1  0  0  0  0  0999 V2000
  190.0990  177.4890  141.1490 C   0  0  1  0  0  3  0  0  0  0  0  0
  185.5520  179.1650  141.4400 O   0  0  0  0  0  0  0  0  0  0  0  0
  186.1890  178.6150  139.2640 N   0  0  0  0  0  2  0  0  0  0  0  0
  191.2850  177.0430  139.8410 S   0  0  0  0  0  0  0  0  0  0  0  0
  190.0330  177.3130  138.5410 C   0  0  2  0  0  3  0  0  0  0  0  0
  188.8300  177.8180  139.1760 N   0  0  0  0  0  0  0  0  0  0  0  0
  187.7260  178.3820  141.2090 N   0  0  0  0  0  2  0  0  0  0  0  0
  186.4490  178.7360  140.6650 C   0  0  0  0  0  0  0  0  0  0  0  0
  188.8500  177.9030  140.4630 C   0  0  0  0  0  0  0  0  0  0  0  0
  190.0600  174.2920  136.6920 C   0  0  0  0  0  0  0  0  0  0  0  0
  190.5090  173.2380  135.9700 N   0  0  0  0  0  0  0  0  0  0  0  0
  189.7540  176.0320  137.8110 C   0  0  0  0  0  0  0  0  0  0  0  0
  188.7340  174.4330  136.9210 C   0  0  0  0  0  0  0  0  0  0  0  0
  189.0520  172.4650  135.6330 S   0  0  0  0  0  0  0  0  0  0  0  0
  188.4870  175.5380  137.6320 N   0  0  0  0  0  0  0  0  0  0  0  0
  187.9190  173.4600  136.3870 C   0  0  0  0  0  0  0  0  0  0  0  0
  190.7550  175.2960  137.2340 N   0  0  0  0  0  2  0  0  0  0  0  0
  186.4410  173.3200  136.4500 C   0  0  0  0  0  1  0  0  0  0  0  0
  184.8680  178.8280  138.6830 C   0  0  0  0  0  2  0  0  0  0  0  0
  184.1590  177.4990  138.4030 C   0  0  1  0  0  3  0  0  0  0  0  0
  182.7680  177.4790  139.0130 C   0  0  1  0  0  3  0  0  0  0  0  0
  182.8680  177.4320  140.4670 C   0  0  0  0  0  2  0  0  0  0  0  0
  182.5620  178.7020  139.7970 N   0  0  0  0  0  2  0  0  0  0  0  0
  184.0870  177.1960  136.9140 C   0  0  0  0  0  2  0  0  0  0  0  0
  185.4080  176.6560  136.4010 C   0  0  0  0  0  2  0  0  0  0  0  0
  187.2810  177.9770  135.4910 C   0  0  0  0  0  2  0  0  0  0  0  0
  185.8830  177.4640  135.2100 C   0  0  0  0  0  3  0  0  0  0  0  0
  187.0850  176.7720  134.5940 C   0  0  0  0  0  2  0  0  0  0  0  0
  189.8350  176.3280  141.9820 N   0  0  0  0  0  2  0  0  0  0  0  0
  190.5500  176.5290  143.2320 C   0  0  0  0  0  2  0  0  0  0  0  0
  187.7870  177.5800  146.3510 C   0  0  0  0  0  0  0  0  0  0  0  0
  189.5950  176.9010  144.3090 C   0  0  0  0  0  0  0  0  0  0  0  0
  188.2170  176.8030  144.0880 C   0  0  0  0  0  3  0  0  0  0  0  0
  187.3200  177.1430  145.1060 C   0  0  0  0  0  3  0  0  0  0  0  0
  190.0740  177.3250  145.5530 C   0  0  0  0  0  3  0  0  0  0  0  0
  189.1740  177.6660  146.5680 C   0  0  0  0  0  3  0  0  0  0  0  0
  186.8460  177.9070  147.3390 O   0  0  0  0  0  0  0  0  0  0  0  0
  185.6850  178.6720  147.1570 C   0  0  0  0  0  0  0  0  0  0  0  0
  185.6750  179.9180  147.3520 O   0  0  0  0  0  0  0  0  0  0  0  0
  184.5490  178.0570  146.7460 F   0  0  0  0  0  0  0  0  0  0  0  0
  1 29  1  1  0  0  0
  3  8  1  0  0  0  0
  4  1  1  0  0  0  0
  5 12  1  1  0  0  0
  5  6  1  0  0  0  0
  5  4  1  0  0  0  0
  6  9  2  0  0  0  0
  8  7  1  0  0  0  0
  8  2  2  0  0  0  0
  9  1  1  0  0  0  0
  9  7  1  0  0  0  0
 10 13  1  0  0  0  0
 10 17  1  0  0  0  0
 11 10  2  0  0  0  0
 13 15  1  0  0  0  0
 14 11  1  0  0  0  0
 14 16  1  0  0  0  0
 15 12  2  0  0  0  0
 16 18  1  0  0  0  0
 16 13  2  0  0  0  0
 17 12  1  0  0  0  0
 19  3  1  0  0  0  0
 20 24  1  6  0  0  0
 20 19  1  0  0  0  0
 21 20  1  6  0  0  0
 21 23  1  0  0  0  0
 21 22  1  0  0  0  0
 23 22  1  0  0  0  0
 25 24  1  0  0  0  0
 27 26  1  0  0  0  0
 27 25  1  0  0  0  0
 28 27  1  0  0  0  0
 28 26  1  0  0  0  0
 29 30  1  0  0  0  0
 30 32  1  0  0  0  0
 31 36  1  0  0  0  0
 31 37  1  0  0  0  0
 32 35  1  0  0  0  0
 33 32  2  0  0  0  0
 33 34  1  0  0  0  0
 34 31  2  0  0  0  0
 35 36  2  0  0  0  0
 38 37  1  0  0  0  0
 38 39  2  0  0  0  0
 40 38  1  0  0  0  0
M  END
>  <MODEL>
3

>  <REMARK>
 VINA RESULT:      -7.9      1.712      3.450
  Name = 
  12 active torsions:
  status: ('A' for Active; 'I' for Inactive)
    1  A    between atoms: C_1  and  O_27
    2  A    between atoms: C_2  and  N_30
    3  A    between atoms: C_3  and  C_18
    4  A    between atoms: C_5  and  C_25
    5  A    between atoms: N_6  and  C_20
    6  A    between atoms: C_8  and  C_21
    7  A    between atoms: C_8  and  C_33
    8  A    between atoms: C_10  and  O_27
    9  A    between atoms: C_11  and  C_22
   10  A    between atoms: C_18  and  C_20
   11  A    between atoms: C_18  and  C_33
   12  A    between atoms: C_25  and  N_30
                            x       y       z     vdW  Elec       q    Type
                         _______ _______ _______ _____ _____    ______ ____

>  <TORSDO>
F 12

$$$$
=
 OpenBabel10222421243D

 40 45  0  0  1  0  0  0  0  0999 V2000
  190.3650  177.0810  138.3920 C   0  0  1  0  0  3  0  0  0  0  0  0
  190.3510  175.5910  143.0120 O   0  0  0  0  0  0  0  0  0  0  0  0
  188.5130  176.9210  142.4730 N   0  0  0  0  0  2  0  0  0  0  0  0
  189.4060  178.2220  137.3460 S   0  0  0  0  0  0  0  0  0  0  0  0
  188.2200  178.5440  138.6950 C   0  0  2  0  0  3  0  0  0  0  0  0
  188.6850  177.8440  139.8770 N   0  0  0  0  0  0  0  0  0  0  0  0
  190.2970  176.3710  140.8260 N   0  0  0  0  0  2  0  0  0  0  0  0
  189.7400  176.2670  142.1420 C   0  0  0  0  0  0  0  0  0  0  0  0
  189.7400  177.1150  139.7370 C   0  0  0  0  0  0  0  0  0  0  0  0
  185.3200  177.0400  137.3240 C   0  0  0  0  0  0  0  0  0  0  0  0
  184.5270  176.2500  136.5610 N   0  0  0  0  0  0  0  0  0  0  0  0
  186.8470  178.0800  138.3040 C   0  0  0  0  0  0  0  0  0  0  0  0
  184.7610  177.9350  138.1710 C   0  0  0  0  0  0  0  0  0  0  0  0
  183.0100  176.7840  137.0560 S   0  0  0  0  0  0  0  0  0  0  0  0
  185.7000  178.6300  138.8200 N   0  0  0  0  0  0  0  0  0  0  0  0
  183.3850  177.9720  138.1930 C   0  0  0  0  0  0  0  0  0  0  0  0
  186.6540  177.1000  137.3660 N   0  0  0  0  0  2  0  0  0  0  0  0
  182.4710  178.8260  138.9940 C   0  0  0  0  0  1  0  0  0  0  0  0
  187.8350  176.7330  143.7500 C   0  0  0  0  0  2  0  0  0  0  0  0
  186.8410  177.8650  144.0280 C   0  0  1  0  0  3  0  0  0  0  0  0
  185.7780  177.9410  142.9470 C   0  0  1  0  0  3  0  0  0  0  0  0
  184.4940  178.2980  143.5410 C   0  0  0  0  0  2  0  0  0  0  0  0
  185.2850  179.3200  142.8430 N   0  0  0  0  0  2  0  0  0  0  0  0
  186.1920  177.7270  145.3980 C   0  0  0  0  0  2  0  0  0  0  0  0
  187.0170  178.4160  146.4670 C   0  0  0  0  0  2  0  0  0  0  0  0
  189.1120  177.5550  147.4420 C   0  0  0  0  0  2  0  0  0  0  0  0
  187.6060  177.3960  147.4200 C   0  0  0  0  0  3  0  0  0  0  0  0
  188.2760  178.1250  148.5700 C   0  0  0  0  0  2  0  0  0  0  0  0
  190.2810  175.7370  137.8490 N   0  0  0  0  0  2  0  0  0  0  0  0
  190.8050  175.7900  136.4930 C   0  0  0  0  0  2  0  0  0  0  0  0
  194.9760  174.7590  136.5020 C   0  0  0  0  0  0  0  0  0  0  0  0
  192.2460  175.4270  136.4910 C   0  0  0  0  0  0  0  0  0  0  0  0
  193.1100  175.9880  135.5450 C   0  0  0  0  0  3  0  0  0  0  0  0
  194.4680  175.6540  135.5520 C   0  0  0  0  0  3  0  0  0  0  0  0
  192.7450  174.5410  137.4530 C   0  0  0  0  0  3  0  0  0  0  0  0
  194.1030  174.2070  137.4560 C   0  0  0  0  0  3  0  0  0  0  0  0
  196.3470  174.4570  136.4680 O   0  0  0  0  0  0  0  0  0  0  0  0
  197.2210  174.4470  137.5640 C   0  0  0  0  0  0  0  0  0  0  0  0
  198.0380  175.3850  137.7690 O   0  0  0  0  0  0  0  0  0  0  0  0
  197.1750  173.4080  138.4330 F   0  0  0  0  0  0  0  0  0  0  0  0
  1 29  1  6  0  0  0
  1  9  1  0  0  0  0
  3 19  1  0  0  0  0
  4  1  1  0  0  0  0
  4  5  1  0  0  0  0
  5 12  1  6  0  0  0
  5  6  1  0  0  0  0
  7  8  1  0  0  0  0
  8  3  1  0  0  0  0
  8  2  2  0  0  0  0
  9  6  2  0  0  0  0
  9  7  1  0  0  0  0
 10 17  1  0  0  0  0
 10 13  1  0  0  0  0
 11 14  1  0  0  0  0
 11 10  2  0  0  0  0
 12 15  2  0  0  0  0
 13 16  2  0  0  0  0
 13 15  1  0  0  0  0
 14 16  1  0  0  0  0
 16 18  1  0  0  0  0
 17 12  1  0  0  0  0
 20 19  1  6  0  0  0
 20 24  1  0  0  0  0
 21 22  1  0  0  0  0
 21 20  1  1  0  0  0
 23 21  1  0  0  0  0
 23 22  1  0  0  0  0
 24 25  1  0  0  0  0
 25 27  1  0  0  0  0
 26 28  1  0  0  0  0
 27 26  1  0  0  0  0
 27 28  1  0  0  0  0
 30 29  1  0  0  0  0
 31 36  1  0  0  0  0
 32 30  1  0  0  0  0
 32 35  1  0  0  0  0
 33 34  1  0  0  0  0
 33 32  2  0  0  0  0
 34 31  2  0  0  0  0
 35 36  2  0  0  0  0
 37 31  1  0  0  0  0
 37 38  1  0  0  0  0
 38 39  2  0  0  0  0
 38 40  1  0  0  0  0
M  END
>  <MODEL>
4

>  <REMARK>
 VINA RESULT:      -7.9      4.983      8.065
  Name = 
  12 active torsions:
  status: ('A' for Active; 'I' for Inactive)
    1  A    between atoms: C_1  and  O_27
    2  A    between atoms: C_2  and  N_30
    3  A    between atoms: C_3  and  C_18
    4  A    between atoms: C_5  and  C_25
    5  A    between atoms: N_6  and  C_20
    6  A    between atoms: C_8  and  C_21
    7  A    between atoms: C_8  and  C_33
    8  A    between atoms: C_10  and  O_27
    9  A    between atoms: C_11  and  C_22
   10  A    between atoms: C_18  and  C_20
   11  A    between atoms: C_18  and  C_33
   12  A    between atoms: C_25  and  N_30
                            x       y       z     vdW  Elec       q    Type
                         _______ _______ _______ _____ _____    ______ ____

>  <TORSDO>
F 12

$$$$
=
 OpenBabel10222421243D

 40 45  0  0  1  0  0  0  0  0999 V2000
  189.5070  177.7330  140.6320 C   0  0  1  0  0  3  0  0  0  0  0  0
  185.2210  179.5160  142.0520 O   0  0  0  0  0  0  0  0  0  0  0  0
  185.3080  179.0510  139.7680 N   0  0  0  0  0  2  0  0  0  0  0  0
  190.3360  177.3170  139.0650 S   0  0  0  0  0  0  0  0  0  0  0  0
  188.8250  177.6810  138.1090 C   0  0  2  0  0  3  0  0  0  0  0  0
  187.8240  178.1880  139.0290 N   0  0  0  0  0  0  0  0  0  0  0  0
  187.2490  178.6860  141.2850 N   0  0  0  0  0  2  0  0  0  0  0  0
  185.8940  179.1000  141.0720 C   0  0  0  0  0  0  0  0  0  0  0  0
  188.1490  178.2130  140.2760 C   0  0  0  0  0  0  0  0  0  0  0  0
  187.0390  174.9880  136.6560 C   0  0  0  0  0  0  0  0  0  0  0  0
  186.0110  174.1980  136.2650 N   0  0  0  0  0  0  0  0  0  0  0  0
  188.3360  176.4430  137.4160 C   0  0  0  0  0  0  0  0  0  0  0  0
  188.3130  174.5960  136.4260 C   0  0  0  0  0  0  0  0  0  0  0  0
  186.8630  172.9210  135.5760 S   0  0  0  0  0  0  0  0  0  0  0  0
  189.1830  175.4950  136.8990 N   0  0  0  0  0  0  0  0  0  0  0  0
  188.4700  173.3860  135.7880 C   0  0  0  0  0  0  0  0  0  0  0  0
  187.0000  176.1610  137.2960 N   0  0  0  0  0  2  0  0  0  0  0  0
  189.7130  172.6750  135.3940 C   0  0  0  0  0  1  0  0  0  0  0  0
  183.8980  179.3260  139.5240 C   0  0  0  0  0  2  0  0  0  0  0  0
  183.1000  178.0320  139.3310 C   0  0  1  0  0  3  0  0  0  0  0  0
  181.7870  178.0770  140.0940 C   0  0  1  0  0  3  0  0  0  0  0  0
  182.0040  178.6530  141.4160 C   0  0  0  0  0  2  0  0  0  0  0  0
  181.4180  179.4740  140.3480 N   0  0  0  0  0  2  0  0  0  0  0  0
  182.8470  177.7350  137.8610 C   0  0  0  0  0  2  0  0  0  0  0  0
  183.3870  176.3700  137.4770 C   0  0  0  0  0  2  0  0  0  0  0  0
  181.3150  175.0460  137.2970 C   0  0  0  0  0  2  0  0  0  0  0  0
  182.5640  175.2750  138.1230 C   0  0  0  0  0  3  0  0  0  0  0  0
  182.4860  174.0930  137.1750 C   0  0  0  0  0  2  0  0  0  0  0  0
  189.4030  176.5430  141.4580 N   0  0  0  0  0  2  0  0  0  0  0  0
  190.1910  176.7840  142.6570 C   0  0  0  0  0  2  0  0  0  0  0  0
  187.5860  177.5840  145.9790 C   0  0  0  0  0  0  0  0  0  0  0  0
  189.2910  177.0530  143.8090 C   0  0  0  0  0  0  0  0  0  0  0  0
  189.7880  177.6840  144.9550 C   0  0  0  0  0  3  0  0  0  0  0  0
  188.9370  177.9470  146.0330 C   0  0  0  0  0  3  0  0  0  0  0  0
  187.9400  176.6970  143.7390 C   0  0  0  0  0  3  0  0  0  0  0  0
  187.0920  176.9590  144.8200 C   0  0  0  0  0  3  0  0  0  0  0  0
  186.7730  177.8710  147.0870 O   0  0  0  0  0  0  0  0  0  0  0  0
  185.7650  178.8430  147.1460 C   0  0  0  0  0  0  0  0  0  0  0  0
  184.5870  178.5990  146.7660 O   0  0  0  0  0  0  0  0  0  0  0  0
  186.0610  180.0700  147.6380 F   0  0  0  0  0  0  0  0  0  0  0  0
  1 29  1  1  0  0  0
  3  8  1  0  0  0  0
  4  1  1  0  0  0  0
  5 12  1  1  0  0  0
  5  6  1  0  0  0  0
  5  4  1  0  0  0  0
  6  9  2  0  0  0  0
  8  7  1  0  0  0  0
  8  2  2  0  0  0  0
  9  1  1  0  0  0  0
  9  7  1  0  0  0  0
 10 17  1  0  0  0  0
 11 10  2  0  0  0  0
 13 10  1  0  0  0  0
 13 15  1  0  0  0  0
 14 16  1  0  0  0  0
 14 11  1  0  0  0  0
 15 12  2  0  0  0  0
 16 13  2  0  0  0  0
 17 12  1  0  0  0  0
 18 16  1  0  0  0  0
 19  3  1  0  0  0  0
 20 24  1  6  0  0  0
 20 19  1  0  0  0  0
 21 20  1  6  0  0  0
 21 23  1  0  0  0  0
 21 22  1  0  0  0  0
 23 22  1  0  0  0  0
 25 24  1  0  0  0  0
 25 27  1  0  0  0  0
 26 27  1  0  0  0  0
 28 26  1  0  0  0  0
 28 27  1  0  0  0  0
 29 30  1  0  0  0  0
 30 32  1  0  0  0  0
 31 34  1  0  0  0  0
 31 37  1  0  0  0  0
 32 33  1  0  0  0  0
 33 34  2  0  0  0  0
 35 32  2  0  0  0  0
 35 36  1  0  0  0  0
 36 31  2  0  0  0  0
 37 38  1  0  0  0  0
 38 40  1  0  0  0  0
 39 38  2  0  0  0  0
M  END
>  <MODEL>
5

>  <REMARK>
 VINA RESULT:      -7.8      0.945      2.463
  Name = 
  12 active torsions:
  status: ('A' for Active; 'I' for Inactive)
    1  A    between atoms: C_1  and  O_27
    2  A    between atoms: C_2  and  N_30
    3  A    between atoms: C_3  and  C_18
    4  A    between atoms: C_5  and  C_25
    5  A    between atoms: N_6  and  C_20
    6  A    between atoms: C_8  and  C_21
    7  A    between atoms: C_8  and  C_33
    8  A    between atoms: C_10  and  O_27
    9  A    between atoms: C_11  and  C_22
   10  A    between atoms: C_18  and  C_20
   11  A    between atoms: C_18  and  C_33
   12  A    between atoms: C_25  and  N_30
                            x       y       z     vdW  Elec       q    Type
                         _______ _______ _______ _____ _____    ______ ____

>  <TORSDO>
F 12

$$$$
=
 OpenBabel10222421243D

 40 45  0  0  1  0  0  0  0  0999 V2000
  189.3300  177.8290  139.9530 C   0  0  1  0  0  3  0  0  0  0  0  0
  184.8240  179.3780  140.8840 O   0  0  0  0  0  0  0  0  0  0  0  0
  185.0370  178.3870  138.7830 N   0  0  0  0  0  2  0  0  0  0  0  0
  190.2500  177.1480  138.5370 S   0  0  0  0  0  0  0  0  0  0  0  0
  188.7380  177.0860  137.5170 C   0  0  2  0  0  3  0  0  0  0  0  0
  187.6570  177.6780  138.2830 N   0  0  0  0  0  0  0  0  0  0  0  0
  186.9570  178.6350  140.3480 N   0  0  0  0  0  2  0  0  0  0  0  0
  185.5710  178.8200  140.0360 C   0  0  0  0  0  0  0  0  0  0  0  0
  187.9370  178.0430  139.4880 C   0  0  0  0  0  0  0  0  0  0  0  0
  188.6230  173.7330  136.3790 C   0  0  0  0  0  0  0  0  0  0  0  0
  188.9980  172.5600  135.8170 N   0  0  0  0  0  0  0  0  0  0  0  0
  188.4170  175.6680  137.1460 C   0  0  0  0  0  0  0  0  0  0  0  0
  187.3620  173.8830  136.8430 C   0  0  0  0  0  0  0  0  0  0  0  0
  187.5650  171.6900  135.9600 S   0  0  0  0  0  0  0  0  0  0  0  0
  187.1780  175.1100  137.3430 N   0  0  0  0  0  0  0  0  0  0  0  0
  186.5320  172.7930  136.7070 C   0  0  0  0  0  0  0  0  0  0  0  0
  189.3360  174.8520  136.5420 N   0  0  0  0  0  2  0  0  0  0  0  0
  185.1090  172.6280  137.1030 C   0  0  0  0  0  1  0  0  0  0  0  0
  183.6120  178.4250  138.4750 C   0  0  0  0  0  2  0  0  0  0  0  0
  183.2160  177.2960  137.5180 C   0  0  1  0  0  3  0  0  0  0  0  0
  184.1820  177.2010  136.3500 C   0  0  1  0  0  3  0  0  0  0  0  0
  184.0240  175.9140  135.6820 C   0  0  0  0  0  2  0  0  0  0  0  0
  183.4240  177.1190  135.0960 N   0  0  0  0  0  2  0  0  0  0  0  0
  183.1170  175.9560  138.2310 C   0  0  0  0  0  2  0  0  0  0  0  0
  182.2870  176.0680  139.4960 C   0  0  0  0  0  2  0  0  0  0  0  0
  180.3810  174.6560  138.8230 C   0  0  0  0  0  2  0  0  0  0  0  0
  180.8100  176.0690  139.1600 C   0  0  0  0  0  3  0  0  0  0  0  0
  180.0700  175.2340  140.1880 C   0  0  0  0  0  2  0  0  0  0  0  0
  189.3380  176.8710  141.0440 N   0  0  0  0  0  2  0  0  0  0  0  0
  190.0740  177.4780  142.1420 C   0  0  0  0  0  2  0  0  0  0  0  0
  187.5700  177.7150  145.6250 C   0  0  0  0  0  0  0  0  0  0  0  0
  189.2070  177.5690  143.3460 C   0  0  0  0  0  0  0  0  0  0  0  0
  187.8240  177.3960  143.2290 C   0  0  0  0  0  3  0  0  0  0  0  0
  187.0110  177.4700  144.3650 C   0  0  0  0  0  3  0  0  0  0  0  0
  189.7780  177.8030  144.6020 C   0  0  0  0  0  3  0  0  0  0  0  0
  188.9620  177.8780  145.7350 C   0  0  0  0  0  3  0  0  0  0  0  0
  186.7110  177.7790  146.7340 O   0  0  0  0  0  0  0  0  0  0  0  0
  185.7320  178.7550  146.9680 C   0  0  0  0  0  0  0  0  0  0  0  0
  184.5530  178.6280  146.5390 O   0  0  0  0  0  0  0  0  0  0  0  0
  186.0600  179.8560  147.6880 F   0  0  0  0  0  0  0  0  0  0  0  0
  1 29  1  1  0  0  0
  3  8  1  0  0  0  0
  4  1  1  0  0  0  0
  5 12  1  1  0  0  0
  5  6  1  0  0  0  0
  5  4  1  0  0  0  0
  6  9  2  0  0  0  0
  8  7  1  0  0  0  0
  8  2  2  0  0  0  0
  9  1  1  0  0  0  0
  9  7  1  0  0  0  0
 10 17  1  0  0  0  0
 10 13  1  0  0  0  0
 11 14  1  0  0  0  0
 11 10  2  0  0  0  0
 12 15  2  0  0  0  0
 13 15  1  0  0  0  0
 14 16  1  0  0  0  0
 16 13  2  0  0  0  0
 16 18  1  0  0  0  0
 17 12  1  0  0  0  0
 19  3  1  0  0  0  0
 20 24  1  1  0  0  0
 20 19  1  0  0  0  0
 21 20  1  1  0  0  0
 22 21  1  0  0  0  0
 23 22  1  0  0  0  0
 23 21  1  0  0  0  0
 24 25  1  0  0  0  0
 26 27  1  0  0  0  0
 26 28  1  0  0  0  0
 27 25  1  0  0  0  0
 27 28  1  0  0  0  0
 29 30  1  0  0  0  0
 30 32  1  0  0  0  0
 31 36  1  0  0  0  0
 31 37  1  0  0  0  0
 32 35  1  0  0  0  0
 33 32  2  0  0  0  0
 33 34  1  0  0  0  0
 34 31  2  0  0  0  0
 35 36  2  0  0  0  0
 37 38  1  0  0  0  0
 38 40  1  0  0  0  0
 39 38  2  0  0  0  0
M  END
>  <MODEL>
6

>  <REMARK>
 VINA RESULT:      -7.7      1.698      2.248
  Name = 
  12 active torsions:
  status: ('A' for Active; 'I' for Inactive)
    1  A    between atoms: C_1  and  O_27
    2  A    between atoms: C_2  and  N_30
    3  A    between atoms: C_3  and  C_18
    4  A    between atoms: C_5  and  C_25
    5  A    between atoms: N_6  and  C_20
    6  A    between atoms: C_8  and  C_21
    7  A    between atoms: C_8  and  C_33
    8  A    between atoms: C_10  and  O_27
    9  A    between atoms: C_11  and  C_22
   10  A    between atoms: C_18  and  C_20
   11  A    between atoms: C_18  and  C_33
   12  A    between atoms: C_25  and  N_30
                            x       y       z     vdW  Elec       q    Type
                         _______ _______ _______ _____ _____    ______ ____

>  <TORSDO>
F 12

$$$$
=
 OpenBabel10222421243D

 40 45  0  0  1  0  0  0  0  0999 V2000
  189.4190  177.9160  139.7780 C   0  0  1  0  0  3  0  0  0  0  0  0
  185.3550  179.5280  141.8890 O   0  0  0  0  0  0  0  0  0  0  0  0
  185.0570  178.9480  139.6500 N   0  0  0  0  0  2  0  0  0  0  0  0
  189.9750  177.4650  138.1040 S   0  0  0  0  0  0  0  0  0  0  0  0
  188.2950  177.6920  137.4290 C   0  0  2  0  0  3  0  0  0  0  0  0
  187.4470  178.1900  138.4950 N   0  0  0  0  0  0  0  0  0  0  0  0
  187.2600  178.7740  140.7960 N   0  0  0  0  0  2  0  0  0  0  0  0
  185.8650  179.0990  140.8200 C   0  0  0  0  0  0  0  0  0  0  0  0
  187.9910  178.2990  139.6600 C   0  0  0  0  0  0  0  0  0  0  0  0
  187.4850  174.7520  135.6250 C   0  0  0  0  0  0  0  0  0  0  0  0
  187.4820  173.8050  134.6570 N   0  0  0  0  0  0  0  0  0  0  0  0
  187.7690  176.3940  136.8900 C   0  0  0  0  0  0  0  0  0  0  0  0
  186.6230  174.6540  136.6630 C   0  0  0  0  0  0  0  0  0  0  0  0
  186.2670  172.7940  135.2330 S   0  0  0  0  0  0  0  0  0  0  0  0
  186.7640  175.6870  137.5010 N   0  0  0  0  0  0  0  0  0  0  0  0
  185.7850  173.5620  136.6550 C   0  0  0  0  0  0  0  0  0  0  0  0
  188.2350  175.8540  135.7200 N   0  0  0  0  0  2  0  0  0  0  0  0
  184.7360  173.1630  137.6290 C   0  0  0  0  0  1  0  0  0  0  0  0
  183.6100  179.1300  139.6580 C   0  0  0  0  0  2  0  0  0  0  0  0
  182.8870  177.8470  140.0780 C   0  0  1  0  0  3  0  0  0  0  0  0
  181.4000  178.0900  140.2670 C   0  0  1  0  0  3  0  0  0  0  0  0
  181.1580  178.6560  141.5900 C   0  0  0  0  0  2  0  0  0  0  0  0
  181.1560  179.5300  140.4100 N   0  0  0  0  0  2  0  0  0  0  0  0
  183.1150  176.7160  139.0850 C   0  0  0  0  0  2  0  0  0  0  0  0
  181.9880  175.7030  139.1400 C   0  0  0  0  0  2  0  0  0  0  0  0
  180.8560  173.9980  137.7630 C   0  0  0  0  0  2  0  0  0  0  0  0
  181.5130  175.3630  137.7420 C   0  0  0  0  0  3  0  0  0  0  0  0
  180.0000  175.2480  137.7500 C   0  0  0  0  0  2  0  0  0  0  0  0
  189.5450  176.7670  140.6580 N   0  0  0  0  0  2  0  0  0  0  0  0
  190.4410  177.1520  141.7370 C   0  0  0  0  0  2  0  0  0  0  0  0
  188.2300  177.5410  145.4010 C   0  0  0  0  0  0  0  0  0  0  0  0
  189.6790  177.2790  143.0080 C   0  0  0  0  0  0  0  0  0  0  0  0
  190.2080  178.0180  144.0710 C   0  0  0  0  0  3  0  0  0  0  0  0
  189.4850  178.1460  145.2620 C   0  0  0  0  0  3  0  0  0  0  0  0
  188.4210  176.6790  143.1320 C   0  0  0  0  0  3  0  0  0  0  0  0
  187.7010  176.8080  144.3240 C   0  0  0  0  0  3  0  0  0  0  0  0
  187.5440  177.7010  146.6160 O   0  0  0  0  0  0  0  0  0  0  0  0
  188.0620  177.4650  147.8970 C   0  0  0  0  0  0  0  0  0  0  0  0
  188.3180  178.4100  148.6920 O   0  0  0  0  0  0  0  0  0  0  0  0
  188.2780  176.1880  148.2950 F   0  0  0  0  0  0  0  0  0  0  0  0
  1 29  1  1  0  0  0
  3 19  1  0  0  0  0
  3  8  1  0  0  0  0
  4  1  1  0  0  0  0
  5 12  1  1  0  0  0
  5  4  1  0  0  0  0
  5  6  1  0  0  0  0
  6  9  2  0  0  0  0
  7  8  1  0  0  0  0
  8  2  2  0  0  0  0
  9  1  1  0  0  0  0
  9  7  1  0  0  0  0
 10 17  1  0  0  0  0
 10 13  1  0  0  0  0
 11 14  1  0  0  0  0
 11 10  2  0  0  0  0
 12 15  2  0  0  0  0
 13 15  1  0  0  0  0
 14 16  1  0  0  0  0
 16 13  2  0  0  0  0
 16 18  1  0  0  0  0
 17 12  1  0  0  0  0
 19 20  1  0  0  0  0
 20 24  1  6  0  0  0
 21 20  1  1  0  0  0
 21 23  1  0  0  0  0
 21 22  1  0  0  0  0
 23 22  1  0  0  0  0
 24 25  1  0  0  0  0
 27 28  1  0  0  0  0
 27 26  1  0  0  0  0
 27 25  1  0  0  0  0
 28 26  1  0  0  0  0
 29 30  1  0  0  0  0
 30 32  1  0  0  0  0
 31 37  1  0  0  0  0
 32 35  2  0  0  0  0
 32 33  1  0  0  0  0
 33 34  2  0  0  0  0
 34 31  1  0  0  0  0
 35 36  1  0  0  0  0
 36 31  2  0  0  0  0
 37 38  1  0  0  0  0
 38 40  1  0  0  0  0
 38 39  2  0  0  0  0
M  END
>  <MODEL>
7

>  <REMARK>
 VINA RESULT:      -7.7      1.667      2.918
  Name = 
  12 active torsions:
  status: ('A' for Active; 'I' for Inactive)
    1  A    between atoms: C_1  and  O_27
    2  A    between atoms: C_2  and  N_30
    3  A    between atoms: C_3  and  C_18
    4  A    between atoms: C_5  and  C_25
    5  A    between atoms: N_6  and  C_20
    6  A    between atoms: C_8  and  C_21
    7  A    between atoms: C_8  and  C_33
    8  A    between atoms: C_10  and  O_27
    9  A    between atoms: C_11  and  C_22
   10  A    between atoms: C_18  and  C_20
   11  A    between atoms: C_18  and  C_33
   12  A    between atoms: C_25  and  N_30
                            x       y       z     vdW  Elec       q    Type
                         _______ _______ _______ _____ _____    ______ ____

>  <TORSDO>
F 12

$$$$
=
 OpenBabel10222421243D

 40 45  0  0  1  0  0  0  0  0999 V2000
  189.2880  177.9970  140.3960 C   0  0  1  0  0  3  0  0  0  0  0  0
  185.1880  179.4770  142.5330 O   0  0  0  0  0  0  0  0  0  0  0  0
  184.9050  178.9410  140.2810 N   0  0  0  0  0  2  0  0  0  0  0  0
  189.8560  177.5950  138.7130 S   0  0  0  0  0  0  0  0  0  0  0  0
  188.1730  177.8020  138.0390 C   0  0  2  0  0  3  0  0  0  0  0  0
  187.3130  178.2590  139.1150 N   0  0  0  0  0  0  0  0  0  0  0  0
  187.1100  178.7870  141.4280 N   0  0  0  0  0  2  0  0  0  0  0  0
  185.7080  179.0830  141.4550 C   0  0  0  0  0  0  0  0  0  0  0  0
  187.8520  178.3530  140.2830 C   0  0  0  0  0  0  0  0  0  0  0  0
  187.6650  174.5480  136.7340 C   0  0  0  0  0  0  0  0  0  0  0  0
  187.9150  173.2880  136.3070 N   0  0  0  0  0  0  0  0  0  0  0  0
  187.6750  176.5060  137.4710 C   0  0  0  0  0  0  0  0  0  0  0  0
  186.4170  175.0590  136.6260 C   0  0  0  0  0  0  0  0  0  0  0  0
  186.3840  172.8470  135.7660 S   0  0  0  0  0  0  0  0  0  0  0  0
  186.3730  176.3150  137.0830 N   0  0  0  0  0  0  0  0  0  0  0  0
  185.4670  174.2280  136.0750 C   0  0  0  0  0  0  0  0  0  0  0  0
  188.5100  175.4400  137.2610 N   0  0  0  0  0  2  0  0  0  0  0  0
  184.0250  174.4750  135.8160 C   0  0  0  0  0  1  0  0  0  0  0  0
  183.4550  179.0940  140.2900 C   0  0  0  0  0  2  0  0  0  0  0  0
  182.8930  179.1800  138.8680 C   0  0  1  0  0  3  0  0  0  0  0  0
  183.3930  178.0330  138.0070 C   0  0  1  0  0  3  0  0  0  0  0  0
  182.7000  176.8030  138.3740 C   0  0  0  0  0  2  0  0  0  0  0  0
  182.2950  177.5370  137.1690 N   0  0  0  0  0  2  0  0  0  0  0  0
  181.3720  179.2220  138.8600 C   0  0  0  0  0  2  0  0  0  0  0  0
  180.8240  179.5010  140.2470 C   0  0  0  0  0  2  0  0  0  0  0  0
  180.0470  177.2450  140.8680 C   0  0  0  0  0  2  0  0  0  0  0  0
  179.6010  178.6480  140.5140 C   0  0  0  0  0  3  0  0  0  0  0  0
  179.6200  178.2000  141.9640 C   0  0  0  0  0  2  0  0  0  0  0  0
  189.4360  176.8310  141.2500 N   0  0  0  0  0  2  0  0  0  0  0  0
  190.7240  176.9500  141.9160 C   0  0  0  0  0  2  0  0  0  0  0  0
  190.1620  177.0010  146.1750 C   0  0  0  0  0  0  0  0  0  0  0  0
  190.5320  176.9760  143.3890 C   0  0  0  0  0  0  0  0  0  0  0  0
  189.2800  177.2910  143.9290 C   0  0  0  0  0  3  0  0  0  0  0  0
  189.0990  177.3030  145.3160 C   0  0  0  0  0  3  0  0  0  0  0  0
  191.5990  176.6610  144.2390 C   0  0  0  0  0  3  0  0  0  0  0  0
  191.4150  176.6770  145.6250 C   0  0  0  0  0  3  0  0  0  0  0  0
  189.9290  177.0270  147.5590 O   0  0  0  0  0  0  0  0  0  0  0  0
  188.9440  177.7750  148.2200 C   0  0  0  0  0  0  0  0  0  0  0  0
  187.8590  177.2540  148.5980 O   0  0  0  0  0  0  0  0  0  0  0  0
  189.1720  179.0870  148.4700 F   0  0  0  0  0  0  0  0  0  0  0  0
  1 29  1  1  0  0  0
  3 19  1  0  0  0  0
  3  8  1  0  0  0  0
  4  1  1  0  0  0  0
  5 12  1  1  0  0  0
  5  4  1  0  0  0  0
  5  6  1  0  0  0  0
  6  9  2  0  0  0  0
  7  8  1  0  0  0  0
  8  2  2  0  0  0  0
  9  1  1  0  0  0  0
  9  7  1  0  0  0  0
 10 17  1  0  0  0  0
 11 10  2  0  0  0  0
 13 10  1  0  0  0  0
 13 15  1  0  0  0  0
 14 16  1  0  0  0  0
 14 11  1  0  0  0  0
 15 12  2  0  0  0  0
 16 13  2  0  0  0  0
 17 12  1  0  0  0  0
 18 16  1  0  0  0  0
 20 24  1  1  0  0  0
 20 19  1  0  0  0  0
 21 22  1  0  0  0  0
 21 20  1  1  0  0  0
 23 21  1  0  0  0  0
 23 22  1  0  0  0  0
 24 25  1  0  0  0  0
 25 27  1  0  0  0  0
 26 28  1  0  0  0  0
 27 26  1  0  0  0  0
 27 28  1  0  0  0  0
 29 30  1  0  0  0  0
 30 32  1  0  0  0  0
 31 37  1  0  0  0  0
 32 33  2  0  0  0  0
 32 35  1  0  0  0  0
 33 34  1  0  0  0  0
 34 31  2  0  0  0  0
 35 36  2  0  0  0  0
 36 31  1  0  0  0  0
 37 38  1  0  0  0  0
 38 40  1  0  0  0  0
 38 39  2  0  0  0  0
M  END
>  <MODEL>
8

>  <REMARK>
 VINA RESULT:      -7.5      1.565      2.125
  Name = 
  12 active torsions:
  status: ('A' for Active; 'I' for Inactive)
    1  A    between atoms: C_1  and  O_27
    2  A    between atoms: C_2  and  N_30
    3  A    between atoms: C_3  and  C_18
    4  A    between atoms: C_5  and  C_25
    5  A    between atoms: N_6  and  C_20
    6  A    between atoms: C_8  and  C_21
    7  A    between atoms: C_8  and  C_33
    8  A    between atoms: C_10  and  O_27
    9  A    between atoms: C_11  and  C_22
   10  A    between atoms: C_18  and  C_20
   11  A    between atoms: C_18  and  C_33
   12  A    between atoms: C_25  and  N_30
                            x       y       z     vdW  Elec       q    Type
                         _______ _______ _______ _____ _____    ______ ____

>  <TORSDO>
F 12

$$$$
=
 OpenBabel10222421243D

 40 45  0  0  1  0  0  0  0  0999 V2000
  189.1570  178.0620  139.5170 C   0  0  1  0  0  3  0  0  0  0  0  0
  185.2720  179.3080  142.1480 O   0  0  0  0  0  0  0  0  0  0  0  0
  184.7740  178.9320  139.9010 N   0  0  0  0  0  2  0  0  0  0  0  0
  189.5600  177.7930  137.7620 S   0  0  0  0  0  0  0  0  0  0  0  0
  187.8170  178.0180  137.2730 C   0  0  2  0  0  3  0  0  0  0  0  0
  187.0620  178.3800  138.4590 N   0  0  0  0  0  0  0  0  0  0  0  0
  187.0830  178.7360  140.8130 N   0  0  0  0  0  2  0  0  0  0  0  0
  185.6880  179.0030  140.9990 C   0  0  0  0  0  0  0  0  0  0  0  0
  187.7130  178.3990  139.5710 C   0  0  0  0  0  0  0  0  0  0  0  0
  186.1220  175.4700  135.4870 C   0  0  0  0  0  0  0  0  0  0  0  0
  185.2600  174.8580  134.6400 N   0  0  0  0  0  0  0  0  0  0  0  0
  187.2790  176.7570  136.6620 C   0  0  0  0  0  0  0  0  0  0  0  0
  186.9380  174.7270  136.2690 C   0  0  0  0  0  0  0  0  0  0  0  0
  185.6220  173.2460  134.9610 S   0  0  0  0  0  0  0  0  0  0  0  0
  187.6980  175.5070  137.0440 N   0  0  0  0  0  0  0  0  0  0  0  0
  186.8270  173.3610  136.1360 C   0  0  0  0  0  0  0  0  0  0  0  0
  186.2960  176.7770  135.7080 N   0  0  0  0  0  2  0  0  0  0  0  0
  187.5620  172.2760  136.8360 C   0  0  0  0  0  1  0  0  0  0  0  0
  183.3310  179.0570  140.0630 C   0  0  0  0  0  2  0  0  0  0  0  0
  182.6310  179.2530  138.7150 C   0  0  1  0  0  3  0  0  0  0  0  0
  182.2670  177.9210  138.0840 C   0  0  1  0  0  3  0  0  0  0  0  0
  181.7160  178.1400  136.7510 C   0  0  0  0  0  2  0  0  0  0  0  0
  183.1070  177.6950  136.9020 N   0  0  0  0  0  2  0  0  0  0  0  0
  181.3960  180.1340  138.8390 C   0  0  0  0  0  2  0  0  0  0  0  0
  181.6890  181.5540  138.3940 C   0  0  0  0  0  2  0  0  0  0  0  0
  179.6810  182.8550  137.7950 C   0  0  0  0  0  2  0  0  0  0  0  0
  180.7710  181.9510  137.2550 C   0  0  0  0  0  3  0  0  0  0  0  0
  180.8590  183.4520  137.0520 C   0  0  0  0  0  2  0  0  0  0  0  0
  189.4010  176.8410  140.2650 N   0  0  0  0  0  2  0  0  0  0  0  0
  190.4800  177.1210  141.2000 C   0  0  0  0  0  2  0  0  0  0  0  0
  188.9020  177.6130  145.1660 C   0  0  0  0  0  0  0  0  0  0  0  0
  189.9300  177.2980  142.5700 C   0  0  0  0  0  0  0  0  0  0  0  0
  188.7540  176.6380  142.9440 C   0  0  0  0  0  3  0  0  0  0  0  0
  188.2450  176.7970  144.2370 C   0  0  0  0  0  3  0  0  0  0  0  0
  190.6020  178.1060  143.4940 C   0  0  0  0  0  3  0  0  0  0  0  0
  190.0880  178.2650  144.7850 C   0  0  0  0  0  3  0  0  0  0  0  0
  188.3510  177.7380  146.4510 O   0  0  0  0  0  0  0  0  0  0  0  0
  189.0420  177.6170  147.6650 C   0  0  0  0  0  0  0  0  0  0  0  0
  188.6710  178.2300  148.7030 O   0  0  0  0  0  0  0  0  0  0  0  0
  190.1270  176.8080  147.7270 F   0  0  0  0  0  0  0  0  0  0  0  0
  1  9  1  0  0  0  0
  1 29  1  1  0  0  0
  3 19  1  0  0  0  0
  3  8  1  0  0  0  0
  4  1  1  0  0  0  0
  5 12  1  1  0  0  0
  5  4  1  0  0  0  0
  5  6  1  0  0  0  0
  6  9  2  0  0  0  0
  7  8  1  0  0  0  0
  8  2  2  0  0  0  0
  9  7  1  0  0  0  0
 10 17  1  0  0  0  0
 10 13  1  0  0  0  0
 11 14  1  0  0  0  0
 11 10  2  0  0  0  0
 12 15  2  0  0  0  0
 13 15  1  0  0  0  0
 14 16  1  0  0  0  0
 16 13  2  0  0  0  0
 16 18  1  0  0  0  0
 17 12  1  0  0  0  0
 20 24  1  1  0  0  0
 20 19  1  0  0  0  0
 21 20  1  1  0  0  0
 22 23  1  0  0  0  0
 22 21  1  0  0  0  0
 23 21  1  0  0  0  0
 25 24  1  0  0  0  0
 27 26  1  0  0  0  0
 27 25  1  0  0  0  0
 28 27  1  0  0  0  0
 28 26  1  0  0  0  0
 29 30  1  0  0  0  0
 30 32  1  0  0  0  0
 31 37  1  0  0  0  0
 32 33  2  0  0  0  0
 32 35  1  0  0  0  0
 33 34  1  0  0  0  0
 34 31  2  0  0  0  0
 35 36  2  0  0  0  0
 36 31  1  0  0  0  0
 37 38  1  0  0  0  0
 38 40  1  0  0  0  0
 38 39  2  0  0  0  0
M  END
>  <MODEL>
9

>  <REMARK>
 VINA RESULT:      -7.5      2.166      2.697
  Name = 
  12 active torsions:
  status: ('A' for Active; 'I' for Inactive)
    1  A    between atoms: C_1  and  O_27
    2  A    between atoms: C_2  and  N_30
    3  A    between atoms: C_3  and  C_18
    4  A    between atoms: C_5  and  C_25
    5  A    between atoms: N_6  and  C_20
    6  A    between atoms: C_8  and  C_21
    7  A    between atoms: C_8  and  C_33
    8  A    between atoms: C_10  and  O_27
    9  A    between atoms: C_11  and  C_22
   10  A    between atoms: C_18  and  C_20
   11  A    between atoms: C_18  and  C_33
   12  A    between atoms: C_25  and  N_30
                            x       y       z     vdW  Elec       q    Type
                         _______ _______ _______ _____ _____    ______ ____

>  <TORSDO>
F 12

$$$$
