=
 OpenBabel10222415143D

 34 35  0  0  1  0  0  0  0  0999 V2000
  187.6340  178.3330  139.6330 C   0  0  0  0  0  0  0  0  0  0  0  0
  187.0140  178.5110  140.8660 C   0  0  0  0  0  3  0  0  0  0  0  0
  186.9640  178.7140  138.4760 O   0  0  0  0  0  1  0  0  0  0  0  0
  188.9210  177.7780  139.5620 C   0  0  0  0  0  0  0  0  0  0  0  0
  187.6680  178.1460  142.0370 C   0  0  0  0  0  3  0  0  0  0  0  0
  189.5870  177.3800  140.7460 C   0  0  0  0  0  0  0  0  0  0  0  0
  188.9520  177.5830  142.0010 C   0  0  0  0  0  0  0  0  0  0  0  0
  190.2360  175.8900  143.3570 C   0  0  0  0  0  1  0  0  0  0  0  0
  189.6540  177.2950  143.3060 C   0  0  2  0  0  3  0  0  0  0  0  0
  187.4650  177.0320  144.4800 C   0  0  0  0  0  3  0  0  0  0  0  0
  189.5370  177.2500  145.8310 C   0  0  0  0  0  3  0  0  0  0  0  0
  188.8350  177.6270  144.5620 C   0  0  1  0  0  3  0  0  0  0  0  0
  186.6520  178.1150  146.5810 C   0  0  0  0  0  0  0  0  0  0  0  0
  187.7670  178.1850  147.3230 C   0  0  0  0  0  3  0  0  0  0  0  0
  189.0650  177.5400  147.0420 C   0  0  0  0  0  3  0  0  0  0  0  0
  186.5030  177.2910  145.3640 C   0  0  0  0  0  3  0  0  0  0  0  0
  185.4390  178.8060  147.0950 C   0  0  0  0  0  2  0  0  0  0  0  0
  184.4260  178.7530  146.1390 O   0  0  0  0  0  1  0  0  0  0  0  0
  192.0880  177.5380  140.6470 C   0  0  0  0  0  1  0  0  0  0  0  0
  190.8670  176.8120  140.6180 O   0  0  0  0  0  0  0  0  0  0  0  0
  189.5540  177.6010  138.2100 C   0  0  2  0  0  3  0  0  0  0  0  0
  189.4590  178.7790  137.4670 O   0  0  0  0  0  1  0  0  0  0  0  0
  188.9270  176.4330  137.4580 C   0  0  0  0  0  2  0  0  0  0  0  0
  188.0550  173.7310  136.6210 C   0  0  0  0  0  1  0  0  0  0  0  0
  189.9030  175.3680  137.2670 N   0  0  0  0  0  0  0  0  0  0  0  0
  189.4920  174.0500  136.8630 C   0  0  0  0  0  0  0  0  0  0  0  0
  190.3460  173.1370  136.7140 O   0  0  0  0  0  0  0  0  0  0  0  0
  191.2940  175.6460  137.5980 C   0  0  0  0  0  2  0  0  0  0  0  0
  192.1270  175.7290  136.3320 C   0  0  0  0  0  2  0  0  0  0  0  0
  193.5870  175.5380  136.6770 C   0  0  0  0  0  2  0  0  0  0  0  0
  193.8030  174.1300  137.1930 C   0  0  0  0  0  2  0  0  0  0  0  0
  194.7720  174.1490  138.3230 C   0  0  0  0  0  0  0  0  0  0  0  0
  195.2870  172.9590  138.8180 O   0  0  0  0  0  1  0  0  0  0  0  0
  195.1390  175.2470  138.8170 O   0  0  0  0  0  0  0  0  0  0  0  0
  1  2  1  0  0  0  0
  2  5  2  0  0  0  0
  3  1  1  0  0  0  0
  4  1  2  0  0  0  0
  4  6  1  0  0  0  0
  6  7  2  0  0  0  0
  7  5  1  0  0  0  0
  7  9  1  0  0  0  0
  9  8  1  6  0  0  0
 10 12  1  0  0  0  0
 10 16  2  0  0  0  0
 11 15  2  0  0  0  0
 12  9  1  6  0  0  0
 12 11  1  0  0  0  0
 13 17  1  0  0  0  0
 13 14  2  0  0  0  0
 15 14  1  0  0  0  0
 16 13  1  0  0  0  0
 18 17  1  0  0  0  0
 20 19  1  0  0  0  0
 20  6  1  0  0  0  0
 21 22  1  6  0  0  0
 21  4  1  0  0  0  0
 23 21  1  0  0  0  0
 24 26  1  0  0  0  0
 25 23  1  0  0  0  0
 25 28  1  0  0  0  0
 26 25  1  0  0  0  0
 27 26  2  0  0  0  0
 29 30  1  0  0  0  0
 29 28  1  0  0  0  0
 30 31  1  0  0  0  0
 31 32  1  0  0  0  0
 32 34  2  0  0  0  0
 32 33  1  0  0  0  0
M  END
>  <MODEL>
1

>  <REMARK>
 VINA RESULT:      -8.0      0.000      0.000
  Name = 
  12 active torsions:
  status: ('A' for Active; 'I' for Inactive)
    1  A    between atoms: C_2  and  C_5
    2  A    between atoms: C_2  and  C_10
    3  A    between atoms: C_6  and  C_7
    4  A    between atoms: C_6  and  N_19
    5  A    between atoms: C_7  and  C_21
    6  A    between atoms: C_9  and  C_17
    7  A    between atoms: C_10  and  C_27
    8  A    between atoms: C_15  and  C_32
    9  A    between atoms: N_19  and  C_23
   10  A    between atoms: C_23  and  C_27
   11  A    between atoms: O_25  and  C_30
   12  A    between atoms: C_31  and  C_32
                            x       y       z     vdW  Elec       q    Type
                         _______ _______ _______ _____ _____    ______ ____

>  <TORSDO>
F 12

$$$$
=
 OpenBabel10222415143D

 34 35  0  0  1  0  0  0  0  0999 V2000
  187.0870  178.1550  141.9570 C   0  0  0  0  0  0  0  0  0  0  0  0
  186.6390  178.7050  140.7590 C   0  0  0  0  0  3  0  0  0  0  0  0
  186.3030  178.2860  143.0970 O   0  0  0  0  0  1  0  0  0  0  0  0
  188.3120  177.4730  142.0070 C   0  0  0  0  0  0  0  0  0  0  0  0
  187.4010  178.5780  139.6030 C   0  0  0  0  0  3  0  0  0  0  0  0
  189.1070  177.3580  140.8430 C   0  0  0  0  0  0  0  0  0  0  0  0
  188.6330  177.9090  139.6210 C   0  0  0  0  0  0  0  0  0  0  0  0
  188.9370  178.7090  137.2500 C   0  0  0  0  0  1  0  0  0  0  0  0
  189.3720  177.7170  138.3190 C   0  0  2  0  0  3  0  0  0  0  0  0
  188.1660  175.9900  136.9760 C   0  0  0  0  0  3  0  0  0  0  0  0
  190.6470  175.9300  137.0640 C   0  0  0  0  0  3  0  0  0  0  0  0
  189.3850  176.2730  137.7960 C   0  0  1  0  0  3  0  0  0  0  0  0
  188.6780  173.5600  136.6910 C   0  0  0  0  0  0  0  0  0  0  0  0
  190.0190  173.5420  136.6920 C   0  0  0  0  0  3  0  0  0  0  0  0
  190.9240  174.7070  136.6170 C   0  0  0  0  0  3  0  0  0  0  0  0
  187.8530  174.7760  136.5290 C   0  0  0  0  0  3  0  0  0  0  0  0
  187.9720  172.2500  136.7170 C   0  0  0  0  0  2  0  0  0  0  0  0
  186.6110  172.4430  136.4850 O   0  0  0  0  0  1  0  0  0  0  0  0
  191.6090  177.2590  140.6990 C   0  0  0  0  0  1  0  0  0  0  0  0
  190.3350  176.6820  140.9520 O   0  0  0  0  0  0  0  0  0  0  0  0
  188.7590  176.8940  143.3210 C   0  0  2  0  0  3  0  0  0  0  0  0
  187.8590  175.9200  143.7590 O   0  0  0  0  0  1  0  0  0  0  0  0
  188.9300  177.9860  144.3710 C   0  0  0  0  0  2  0  0  0  0  0  0
  191.8700  178.0570  144.0290 C   0  0  0  0  0  1  0  0  0  0  0  0
  189.8100  177.5290  145.4400 N   0  0  0  0  0  0  0  0  0  0  0  0
  191.2400  177.5560  145.2850 C   0  0  0  0  0  0  0  0  0  0  0  0
  191.9860  177.1470  146.2130 O   0  0  0  0  0  0  0  0  0  0  0  0
  189.2000  176.9460  146.6270 C   0  0  0  0  0  2  0  0  0  0  0  0
  188.9540  178.0210  147.6700 C   0  0  0  0  0  2  0  0  0  0  0  0
  187.5330  177.9150  148.1780 C   0  0  0  0  0  2  0  0  0  0  0  0
  186.6830  178.9850  147.5240 C   0  0  0  0  0  2  0  0  0  0  0  0
  185.6700  178.3530  146.6360 C   0  0  0  0  0  0  0  0  0  0  0  0
  184.4580  178.9880  146.3990 O   0  0  0  0  0  1  0  0  0  0  0  0
  185.9200  177.2500  146.0830 O   0  0  0  0  0  0  0  0  0  0  0  0
  1  4  1  0  0  0  0
  1  3  1  0  0  0  0
  2  1  2  0  0  0  0
  4 21  1  0  0  0  0
  5  7  2  0  0  0  0
  5  2  1  0  0  0  0
  6 20  1  0  0  0  0
  6  4  2  0  0  0  0
  7  6  1  0  0  0  0
  9  8  1  6  0  0  0
  9  7  1  0  0  0  0
 10 12  1  0  0  0  0
 11 12  1  0  0  0  0
 12  9  1  6  0  0  0
 13 14  2  0  0  0  0
 13 17  1  0  0  0  0
 15 14  1  0  0  0  0
 15 11  2  0  0  0  0
 16 13  1  0  0  0  0
 16 10  2  0  0  0  0
 18 17  1  0  0  0  0
 19 20  1  0  0  0  0
 21 22  1  1  0  0  0
 21 23  1  0  0  0  0
 23 25  1  0  0  0  0
 24 26  1  0  0  0  0
 25 28  1  0  0  0  0
 26 25  1  0  0  0  0
 26 27  2  0  0  0  0
 28 29  1  0  0  0  0
 29 30  1  0  0  0  0
 31 30  1  0  0  0  0
 32 31  1  0  0  0  0
 33 32  1  0  0  0  0
 34 32  2  0  0  0  0
M  END
>  <MODEL>
2

>  <REMARK>
 VINA RESULT:      -7.6      2.732      8.847
  Name = 
  12 active torsions:
  status: ('A' for Active; 'I' for Inactive)
    1  A    between atoms: C_2  and  C_5
    2  A    between atoms: C_2  and  C_10
    3  A    between atoms: C_6  and  C_7
    4  A    between atoms: C_6  and  N_19
    5  A    between atoms: C_7  and  C_21
    6  A    between atoms: C_9  and  C_17
    7  A    between atoms: C_10  and  C_27
    8  A    between atoms: C_15  and  C_32
    9  A    between atoms: N_19  and  C_23
   10  A    between atoms: C_23  and  C_27
   11  A    between atoms: O_25  and  C_30
   12  A    between atoms: C_31  and  C_32
                            x       y       z     vdW  Elec       q    Type
                         _______ _______ _______ _____ _____    ______ ____

>  <TORSDO>
F 12

$$$$
=
 OpenBabel10222415143D

 34 35  0  0  1  0  0  0  0  0999 V2000
  184.7550  178.7330  145.4720 C   0  0  0  0  0  0  0  0  0  0  0  0
  183.6860  179.3010  144.7850 C   0  0  0  0  0  3  0  0  0  0  0  0
  184.8230  178.8740  146.8540 O   0  0  0  0  0  1  0  0  0  0  0  0
  185.7480  178.0260  144.7770 C   0  0  0  0  0  0  0  0  0  0  0  0
  183.5920  179.1660  143.4040 C   0  0  0  0  0  3  0  0  0  0  0  0
  185.6750  177.9020  143.3690 C   0  0  0  0  0  0  0  0  0  0  0  0
  184.5700  178.4710  142.6790 C   0  0  0  0  0  0  0  0  0  0  0  0
  185.2760  179.1610  140.3600 C   0  0  0  0  0  1  0  0  0  0  0  0
  184.3680  178.2720  141.1970 C   0  0  2  0  0  3  0  0  0  0  0  0
  182.7210  179.4120  139.7050 C   0  0  0  0  0  3  0  0  0  0  0  0
  182.3780  177.0190  140.2680 C   0  0  0  0  0  3  0  0  0  0  0  0
  182.9060  178.3420  140.7330 C   0  0  1  0  0  3  0  0  0  0  0  0
  180.2360  179.1640  139.6020 C   0  0  0  0  0  0  0  0  0  0  0  0
  180.0620  177.8600  139.8610 C   0  0  0  0  0  3  0  0  0  0  0  0
  181.1070  176.8190  139.9230 C   0  0  0  0  0  3  0  0  0  0  0  0
  181.5290  179.7860  139.2450 C   0  0  0  0  0  3  0  0  0  0  0  0
  179.0210  180.0200  139.5350 C   0  0  0  0  0  2  0  0  0  0  0  0
  179.3760  181.3580  139.7060 O   0  0  0  0  0  1  0  0  0  0  0  0
  187.8270  177.7990  142.0870 C   0  0  0  0  0  1  0  0  0  0  0  0
  186.7050  177.2000  142.7190 O   0  0  0  0  0  0  0  0  0  0  0  0
  186.8860  177.4300  145.5580 C   0  0  2  0  0  3  0  0  0  0  0  0
  186.4210  176.8680  146.7490 O   0  0  0  0  0  1  0  0  0  0  0  0
  187.9660  178.4690  145.8340 C   0  0  0  0  0  2  0  0  0  0  0  0
  188.7960  178.1650  148.6590 C   0  0  0  0  0  1  0  0  0  0  0  0
  189.2260  177.8160  146.1680 N   0  0  0  0  0  0  0  0  0  0  0  0
  189.6420  177.6640  147.5370 C   0  0  0  0  0  0  0  0  0  0  0  0
  190.7380  177.1090  147.8080 O   0  0  0  0  0  0  0  0  0  0  0  0
  190.1010  177.4160  145.0740 C   0  0  0  0  0  2  0  0  0  0  0  0
  190.5210  178.6320  144.2690 C   0  0  0  0  0  2  0  0  0  0  0  0
  191.6350  178.2470  143.3200 C   0  0  0  0  0  2  0  0  0  0  0  0
  191.3290  176.8970  142.7060 C   0  0  0  0  0  2  0  0  0  0  0  0
  191.3540  177.0000  141.2210 C   0  0  0  0  0  0  0  0  0  0  0  0
  190.4950  176.2230  140.4550 O   0  0  0  0  0  0  0  0  0  0  0  0
  192.1410  177.8060  140.6610 O   0  0  0  0  0  1  0  0  0  0  0  0
  1  3  1  0  0  0  0
  2  1  1  0  0  0  0
  4  1  2  0  0  0  0
  4 21  1  0  0  0  0
  5  2  2  0  0  0  0
  6  4  1  0  0  0  0
  7  6  2  0  0  0  0
  7  5  1  0  0  0  0
  9  8  1  6  0  0  0
  9  7  1  0  0  0  0
 10 12  1  0  0  0  0
 11 12  1  0  0  0  0
 12  9  1  6  0  0  0
 13 14  2  0  0  0  0
 14 15  1  0  0  0  0
 15 11  2  0  0  0  0
 16 13  1  0  0  0  0
 16 10  2  0  0  0  0
 17 13  1  0  0  0  0
 17 18  1  0  0  0  0
 19 20  1  0  0  0  0
 20  6  1  0  0  0  0
 21 23  1  0  0  0  0
 21 22  1  1  0  0  0
 23 25  1  0  0  0  0
 25 26  1  0  0  0  0
 26 27  2  0  0  0  0
 26 24  1  0  0  0  0
 28 25  1  0  0  0  0
 29 28  1  0  0  0  0
 30 29  1  0  0  0  0
 31 30  1  0  0  0  0
 32 31  1  0  0  0  0
 33 32  2  0  0  0  0
 34 32  1  0  0  0  0
M  END
>  <MODEL>
3

>  <REMARK>
 VINA RESULT:      -7.6      4.207      8.007
  Name = 
  12 active torsions:
  status: ('A' for Active; 'I' for Inactive)
    1  A    between atoms: C_2  and  C_5
    2  A    between atoms: C_2  and  C_10
    3  A    between atoms: C_6  and  C_7
    4  A    between atoms: C_6  and  N_19
    5  A    between atoms: C_7  and  C_21
    6  A    between atoms: C_9  and  C_17
    7  A    between atoms: C_10  and  C_27
    8  A    between atoms: C_15  and  C_32
    9  A    between atoms: N_19  and  C_23
   10  A    between atoms: C_23  and  C_27
   11  A    between atoms: O_25  and  C_30
   12  A    between atoms: C_31  and  C_32
                            x       y       z     vdW  Elec       q    Type
                         _______ _______ _______ _____ _____    ______ ____

>  <TORSDO>
F 12

$$$$
=
 OpenBabel10222415143D

 34 35  0  0  1  0  0  0  0  0999 V2000
  186.2330  177.1970  137.0040 C   0  0  0  0  0  0  0  0  0  0  0  0
  184.9890  176.7990  136.5230 C   0  0  0  0  0  3  0  0  0  0  0  0
  187.3810  176.7580  136.3550 O   0  0  0  0  0  1  0  0  0  0  0  0
  186.3220  178.0330  138.1270 C   0  0  0  0  0  0  0  0  0  0  0  0
  183.8260  177.2330  137.1490 C   0  0  0  0  0  3  0  0  0  0  0  0
  185.1470  178.4610  138.7870 C   0  0  0  0  0  0  0  0  0  0  0  0
  183.8810  178.0640  138.2780 C   0  0  0  0  0  0  0  0  0  0  0  0
  181.5630  177.4800  139.0790 C   0  0  0  0  0  1  0  0  0  0  0  0
  182.5880  178.5830  138.8590 C   0  0  2  0  0  3  0  0  0  0  0  0
  181.1240  179.3420  136.9830 C   0  0  0  0  0  3  0  0  0  0  0  0
  181.2740  180.7360  139.0320 C   0  0  0  0  0  3  0  0  0  0  0  0
  181.9890  179.7870  138.1190 C   0  0  1  0  0  3  0  0  0  0  0  0
  180.7240  181.6530  136.1180 C   0  0  0  0  0  0  0  0  0  0  0  0
  180.7590  182.3930  137.2360 C   0  0  0  0  0  3  0  0  0  0  0  0
  180.7700  181.9000  138.6280 C   0  0  0  0  0  3  0  0  0  0  0  0
  180.6050  180.1800  136.0880 C   0  0  0  0  0  3  0  0  0  0  0  0
  180.6620  182.3730  134.8180 C   0  0  0  0  0  2  0  0  0  0  0  0
  180.9200  183.7290  135.0170 O   0  0  0  0  0  1  0  0  0  0  0  0
  185.1690  178.8450  141.2650 C   0  0  0  0  0  1  0  0  0  0  0  0
  185.2930  179.2820  139.9190 O   0  0  0  0  0  0  0  0  0  0  0  0
  187.6860  178.4380  138.6140 C   0  0  2  0  0  3  0  0  0  0  0  0
  188.3620  179.1640  137.6310 O   0  0  0  0  0  1  0  0  0  0  0  0
  188.4990  177.2220  139.0450 C   0  0  0  0  0  2  0  0  0  0  0  0
  191.3790  176.5630  138.8720 C   0  0  0  0  0  1  0  0  0  0  0  0
  189.4040  177.5740  140.1320 N   0  0  0  0  0  0  0  0  0  0  0  0
  190.8050  177.2580  140.0610 C   0  0  0  0  0  0  0  0  0  0  0  0
  191.5720  177.5580  141.0140 O   0  0  0  0  0  0  0  0  0  0  0  0
  188.8320  178.1610  141.3360 C   0  0  0  0  0  2  0  0  0  0  0  0
  188.3980  177.0680  142.2960 C   0  0  0  0  0  2  0  0  0  0  0  0
  188.8840  177.3990  143.6900 C   0  0  0  0  0  2  0  0  0  0  0  0
  187.7390  177.2540  144.6710 C   0  0  0  0  0  2  0  0  0  0  0  0
  188.2340  177.4610  146.0590 C   0  0  0  0  0  0  0  0  0  0  0  0
  189.5970  177.4330  146.3240 O   0  0  0  0  0  0  0  0  0  0  0  0
  187.4170  177.6820  146.9900 O   0  0  0  0  0  1  0  0  0  0  0  0
  1  4  1  0  0  0  0
  2  1  2  0  0  0  0
  2  5  1  0  0  0  0
  3  1  1  0  0  0  0
  4 21  1  0  0  0  0
  4  6  2  0  0  0  0
  5  7  2  0  0  0  0
  6 20  1  0  0  0  0
  7  6  1  0  0  0  0
  7  9  1  0  0  0  0
  9  8  1  6  0  0  0
 10 12  1  0  0  0  0
 12  9  1  1  0  0  0
 12 11  1  0  0  0  0
 13 14  2  0  0  0  0
 14 15  1  0  0  0  0
 15 11  2  0  0  0  0
 16 13  1  0  0  0  0
 16 10  2  0  0  0  0
 17 18  1  0  0  0  0
 17 13  1  0  0  0  0
 20 19  1  0  0  0  0
 21 22  1  6  0  0  0
 21 23  1  0  0  0  0
 23 25  1  0  0  0  0
 24 26  1  0  0  0  0
 25 28  1  0  0  0  0
 26 25  1  0  0  0  0
 26 27  2  0  0  0  0
 28 29  1  0  0  0  0
 29 30  1  0  0  0  0
 30 31  1  0  0  0  0
 31 32  1  0  0  0  0
 32 33  2  0  0  0  0
 32 34  1  0  0  0  0
M  END
>  <MODEL>
4

>  <REMARK>
 VINA RESULT:      -7.4      4.731      8.423
  Name = 
  12 active torsions:
  status: ('A' for Active; 'I' for Inactive)
    1  A    between atoms: C_2  and  C_5
    2  A    between atoms: C_2  and  C_10
    3  A    between atoms: C_6  and  C_7
    4  A    between atoms: C_6  and  N_19
    5  A    between atoms: C_7  and  C_21
    6  A    between atoms: C_9  and  C_17
    7  A    between atoms: C_10  and  C_27
    8  A    between atoms: C_15  and  C_32
    9  A    between atoms: N_19  and  C_23
   10  A    between atoms: C_23  and  C_27
   11  A    between atoms: O_25  and  C_30
   12  A    between atoms: C_31  and  C_32
                            x       y       z     vdW  Elec       q    Type
                         _______ _______ _______ _____ _____    ______ ____

>  <TORSDO>
F 12

$$$$
=
 OpenBabel10222415143D

 34 35  0  0  1  0  0  0  0  0999 V2000
  184.3900  178.6560  145.4150 C   0  0  0  0  0  0  0  0  0  0  0  0
  185.3150  178.1640  146.3320 C   0  0  0  0  0  3  0  0  0  0  0  0
  183.1790  179.1560  145.8790 O   0  0  0  0  0  1  0  0  0  0  0  0
  184.6820  178.6490  144.0430 C   0  0  0  0  0  0  0  0  0  0  0  0
  186.5370  177.6670  145.8930 C   0  0  0  0  0  3  0  0  0  0  0  0
  185.9120  178.1240  143.5830 C   0  0  0  0  0  0  0  0  0  0  0  0
  186.8570  177.6400  144.5280 C   0  0  0  0  0  0  0  0  0  0  0  0
  188.1950  175.9560  143.2130 C   0  0  0  0  0  1  0  0  0  0  0  0
  188.2340  177.1810  144.1150 C   0  0  2  0  0  3  0  0  0  0  0  0
  190.6330  176.9230  144.7660 C   0  0  0  0  0  3  0  0  0  0  0  0
  189.0780  178.0640  146.3290 C   0  0  0  0  0  3  0  0  0  0  0  0
  189.2280  177.0120  145.2740 C   0  0  1  0  0  3  0  0  0  0  0  0
  191.6240  176.4240  147.0050 C   0  0  0  0  0  0  0  0  0  0  0  0
  190.8070  177.0820  147.8390 C   0  0  0  0  0  3  0  0  0  0  0  0
  189.7590  178.0560  147.4730 C   0  0  0  0  0  3  0  0  0  0  0  0
  191.6730  176.6260  145.5410 C   0  0  0  0  0  3  0  0  0  0  0  0
  192.6480  175.5280  147.6080 C   0  0  0  0  0  2  0  0  0  0  0  0
  193.2320  176.1540  148.7080 O   0  0  0  0  0  1  0  0  0  0  0  0
  187.0360  179.0000  141.5190 C   0  0  0  0  0  1  0  0  0  0  0  0
  186.1470  178.1230  142.1960 O   0  0  0  0  0  0  0  0  0  0  0  0
  183.6540  179.1890  143.0870 C   0  0  2  0  0  3  0  0  0  0  0  0
  183.0780  180.3550  143.5950 O   0  0  0  0  0  1  0  0  0  0  0  0
  182.5860  178.1440  142.7820 C   0  0  0  0  0  2  0  0  0  0  0  0
  179.8020  179.1330  142.9660 C   0  0  0  0  0  1  0  0  0  0  0  0
  181.8500  178.5080  141.5770 N   0  0  0  0  0  0  0  0  0  0  0  0
  180.4950  178.9870  141.6530 C   0  0  0  0  0  0  0  0  0  0  0  0
  179.8690  179.2850  140.6030 O   0  0  0  0  0  0  0  0  0  0  0  0
  182.4860  178.2730  140.2880 C   0  0  0  0  0  2  0  0  0  0  0  0
  182.8430  179.5940  139.6320 C   0  0  0  0  0  2  0  0  0  0  0  0
  184.2390  179.5090  139.0560 C   0  0  0  0  0  2  0  0  0  0  0  0
  184.5620  178.0670  138.7260 C   0  0  0  0  0  2  0  0  0  0  0  0
  185.7210  178.0080  137.7940 C   0  0  0  0  0  0  0  0  0  0  0  0
  185.5950  177.3740  136.5650 O   0  0  0  0  0  0  0  0  0  0  0  0
  186.8100  178.5520  138.1120 O   0  0  0  0  0  1  0  0  0  0  0  0
  1  3  1  0  0  0  0
  1  2  1  0  0  0  0
  4  1  2  0  0  0  0
  5  2  2  0  0  0  0
  6  4  1  0  0  0  0
  6  7  2  0  0  0  0
  7  5  1  0  0  0  0
  9  8  1  1  0  0  0
  9  7  1  0  0  0  0
 10 12  1  0  0  0  0
 10 16  2  0  0  0  0
 11 15  2  0  0  0  0
 12  9  1  6  0  0  0
 12 11  1  0  0  0  0
 13 17  1  0  0  0  0
 13 14  2  0  0  0  0
 15 14  1  0  0  0  0
 16 13  1  0  0  0  0
 17 18  1  0  0  0  0
 19 20  1  0  0  0  0
 20  6  1  0  0  0  0
 21 22  1  1  0  0  0
 21  4  1  0  0  0  0
 23 21  1  0  0  0  0
 25 26  1  0  0  0  0
 25 23  1  0  0  0  0
 26 24  1  0  0  0  0
 27 26  2  0  0  0  0
 28 25  1  0  0  0  0
 29 28  1  0  0  0  0
 30 29  1  0  0  0  0
 31 30  1  0  0  0  0
 32 34  1  0  0  0  0
 32 31  1  0  0  0  0
 33 32  2  0  0  0  0
M  END
>  <MODEL>
5

>  <REMARK>
 VINA RESULT:      -7.4      4.825      7.624
  Name = 
  12 active torsions:
  status: ('A' for Active; 'I' for Inactive)
    1  A    between atoms: C_2  and  C_5
    2  A    between atoms: C_2  and  C_10
    3  A    between atoms: C_6  and  C_7
    4  A    between atoms: C_6  and  N_19
    5  A    between atoms: C_7  and  C_21
    6  A    between atoms: C_9  and  C_17
    7  A    between atoms: C_10  and  C_27
    8  A    between atoms: C_15  and  C_32
    9  A    between atoms: N_19  and  C_23
   10  A    between atoms: C_23  and  C_27
   11  A    between atoms: O_25  and  C_30
   12  A    between atoms: C_31  and  C_32
                            x       y       z     vdW  Elec       q    Type
                         _______ _______ _______ _____ _____    ______ ____

>  <TORSDO>
F 12

$$$$
=
 OpenBabel10222415143D

 34 35  0  0  1  0  0  0  0  0999 V2000
  191.5960  177.3950  141.4880 C   0  0  0  0  0  0  0  0  0  0  0  0
  192.2330  177.1250  140.2800 C   0  0  0  0  0  3  0  0  0  0  0  0
  192.3570  177.4970  142.6470 O   0  0  0  0  0  1  0  0  0  0  0  0
  190.2040  177.5650  141.5300 C   0  0  0  0  0  0  0  0  0  0  0  0
  191.4950  177.0280  139.1060 C   0  0  0  0  0  3  0  0  0  0  0  0
  189.4390  177.4450  140.3460 C   0  0  0  0  0  0  0  0  0  0  0  0
  190.1020  177.1870  139.1150 C   0  0  0  0  0  0  0  0  0  0  0  0
  188.7250  178.5100  137.4690 C   0  0  0  0  0  1  0  0  0  0  0  0
  189.3620  177.1670  137.8000 C   0  0  2  0  0  3  0  0  0  0  0  0
  187.1080  176.4640  136.9830 C   0  0  0  0  0  3  0  0  0  0  0  0
  188.9720  174.8240  136.9330 C   0  0  0  0  0  3  0  0  0  0  0  0
  188.3730  176.0040  137.6360 C   0  0  1  0  0  3  0  0  0  0  0  0
  185.9340  174.2740  137.2560 C   0  0  0  0  0  0  0  0  0  0  0  0
  186.9410  173.3920  137.1800 C   0  0  0  0  0  3  0  0  0  0  0  0
  188.3350  173.6660  136.7750 C   0  0  0  0  0  3  0  0  0  0  0  0
  186.0290  175.6950  136.8590 C   0  0  0  0  0  3  0  0  0  0  0  0
  184.5920  173.7560  137.6370 C   0  0  0  0  0  2  0  0  0  0  0  0
  184.5620  172.3710  137.4870 O   0  0  0  0  0  1  0  0  0  0  0  0
  187.3910  178.7860  140.8880 C   0  0  0  0  0  1  0  0  0  0  0  0
  188.0460  177.6050  140.4460 O   0  0  0  0  0  0  0  0  0  0  0  0
  189.5550  177.8550  142.8550 C   0  0  2  0  0  3  0  0  0  0  0  0
  190.1650  178.9500  143.4710 O   0  0  0  0  0  1  0  0  0  0  0  0
  189.5930  176.6310  143.7640 C   0  0  0  0  0  2  0  0  0  0  0  0
  191.5750  176.5900  145.9620 C   0  0  0  0  0  1  0  0  0  0  0  0
  189.2000  176.9920  145.1200 N   0  0  0  0  0  0  0  0  0  0  0  0
  190.1530  176.9740  146.1970 C   0  0  0  0  0  0  0  0  0  0  0  0
  189.7950  177.2770  147.3660 O   0  0  0  0  0  0  0  0  0  0  0  0
  187.7930  177.2710  145.3740 C   0  0  0  0  0  2  0  0  0  0  0  0
  186.9580  176.8910  144.1650 C   0  0  0  0  0  2  0  0  0  0  0  0
  185.8110  177.8660  144.0180 C   0  0  0  0  0  2  0  0  0  0  0  0
  185.8530  178.8690  145.1530 C   0  0  0  0  0  2  0  0  0  0  0  0
  184.5870  178.8040  145.9320 C   0  0  0  0  0  0  0  0  0  0  0  0
  184.6040  178.3760  147.2530 O   0  0  0  0  0  1  0  0  0  0  0  0
  183.5030  179.1550  145.4000 O   0  0  0  0  0  0  0  0  0  0  0  0
  1  4  1  0  0  0  0
  1  3  1  0  0  0  0
  2  1  2  0  0  0  0
  4 21  1  0  0  0  0
  5  7  2  0  0  0  0
  5  2  1  0  0  0  0
  6 20  1  0  0  0  0
  6  4  2  0  0  0  0
  7  6  1  0  0  0  0
  9  8  1  1  0  0  0
  9  7  1  0  0  0  0
 10 12  1  0  0  0  0
 11 12  1  0  0  0  0
 12  9  1  6  0  0  0
 13 17  1  0  0  0  0
 14 13  2  0  0  0  0
 15 11  2  0  0  0  0
 15 14  1  0  0  0  0
 16 10  2  0  0  0  0
 16 13  1  0  0  0  0
 18 17  1  0  0  0  0
 20 19  1  0  0  0  0
 21 22  1  1  0  0  0
 21 23  1  0  0  0  0
 23 25  1  0  0  0  0
 24 26  1  0  0  0  0
 25 28  1  0  0  0  0
 25 26  1  0  0  0  0
 26 27  2  0  0  0  0
 29 28  1  0  0  0  0
 30 29  1  0  0  0  0
 30 31  1  0  0  0  0
 31 32  1  0  0  0  0
 32 33  1  0  0  0  0
 34 32  2  0  0  0  0
M  END
>  <MODEL>
6

>  <REMARK>
 VINA RESULT:      -7.3      2.907      8.773
  Name = 
  12 active torsions:
  status: ('A' for Active; 'I' for Inactive)
    1  A    between atoms: C_2  and  C_5
    2  A    between atoms: C_2  and  C_10
    3  A    between atoms: C_6  and  C_7
    4  A    between atoms: C_6  and  N_19
    5  A    between atoms: C_7  and  C_21
    6  A    between atoms: C_9  and  C_17
    7  A    between atoms: C_10  and  C_27
    8  A    between atoms: C_15  and  C_32
    9  A    between atoms: N_19  and  C_23
   10  A    between atoms: C_23  and  C_27
   11  A    between atoms: O_25  and  C_30
   12  A    between atoms: C_31  and  C_32
                            x       y       z     vdW  Elec       q    Type
                         _______ _______ _______ _____ _____    ______ ____

>  <TORSDO>
F 12

$$$$
=
 OpenBabel10222415143D

 34 35  0  0  1  0  0  0  0  0999 V2000
  184.3170  178.9360  144.5330 C   0  0  0  0  0  0  0  0  0  0  0  0
  184.2570  178.8700  145.9230 C   0  0  0  0  0  3  0  0  0  0  0  0
  183.2400  179.4680  143.8340 O   0  0  0  0  0  1  0  0  0  0  0  0
  185.4530  178.4740  143.8520 C   0  0  0  0  0  0  0  0  0  0  0  0
  185.3260  178.3510  146.6450 C   0  0  0  0  0  3  0  0  0  0  0  0
  186.5370  177.9210  144.5740 C   0  0  0  0  0  0  0  0  0  0  0  0
  186.4730  177.8750  145.9940 C   0  0  0  0  0  0  0  0  0  0  0  0
  187.8040  178.2250  148.1060 C   0  0  0  0  0  1  0  0  0  0  0  0
  187.6410  177.4120  146.8300 C   0  0  2  0  0  3  0  0  0  0  0  0
  189.4310  178.5980  145.5540 C   0  0  0  0  0  3  0  0  0  0  0  0
  190.0240  176.5670  146.8540 C   0  0  0  0  0  3  0  0  0  0  0  0
  188.9640  177.2710  146.0630 C   0  0  1  0  0  3  0  0  0  0  0  0
  191.3550  177.6520  144.2680 C   0  0  0  0  0  0  0  0  0  0  0  0
  191.6990  176.5840  145.0020 C   0  0  0  0  0  3  0  0  0  0  0  0
  191.2130  176.2390  146.3530 C   0  0  0  0  0  3  0  0  0  0  0  0
  190.4680  178.7400  144.7310 C   0  0  0  0  0  3  0  0  0  0  0  0
  192.0190  177.8230  142.9480 C   0  0  0  0  0  2  0  0  0  0  0  0
  191.3460  177.0780  141.9810 O   0  0  0  0  0  1  0  0  0  0  0  0
  187.7960  176.1310  143.3520 C   0  0  0  0  0  1  0  0  0  0  0  0
  187.6430  177.4550  143.8420 O   0  0  0  0  0  0  0  0  0  0  0  0
  185.4760  178.5620  142.3510 C   0  0  2  0  0  3  0  0  0  0  0  0
  185.6250  179.8890  141.9410 O   0  0  0  0  0  1  0  0  0  0  0  0
  184.2200  177.9450  141.7460 C   0  0  0  0  0  2  0  0  0  0  0  0
  181.3800  178.4560  141.0910 C   0  0  0  0  0  1  0  0  0  0  0  0
  183.8590  178.6350  140.5130 N   0  0  0  0  0  0  0  0  0  0  0  0
  182.4820  178.8870  140.1820 C   0  0  0  0  0  0  0  0  0  0  0  0
  182.1850  179.4730  139.1080 O   0  0  0  0  0  0  0  0  0  0  0  0
  184.9240  178.9680  139.5770 C   0  0  0  0  0  2  0  0  0  0  0  0
  185.0110  177.9150  138.4870 C   0  0  0  0  0  2  0  0  0  0  0  0
  186.2480  178.1560  137.6510 C   0  0  0  0  0  2  0  0  0  0  0  0
  187.4260  177.4380  138.2770 C   0  0  0  0  0  2  0  0  0  0  0  0
  188.3360  178.4250  138.9190 C   0  0  0  0  0  0  0  0  0  0  0  0
  188.5830  178.3590  140.2840 O   0  0  0  0  0  1  0  0  0  0  0  0
  188.8980  179.3080  138.2200 O   0  0  0  0  0  0  0  0  0  0  0  0
  1  2  1  0  0  0  0
  2  5  2  0  0  0  0
  3  1  1  0  0  0  0
  4  1  2  0  0  0  0
  4  6  1  0  0  0  0
  6  7  2  0  0  0  0
  7  5  1  0  0  0  0
  7  9  1  0  0  0  0
  9  8  1  1  0  0  0
 10 12  1  0  0  0  0
 12  9  1  1  0  0  0
 12 11  1  0  0  0  0
 13 16  1  0  0  0  0
 13 14  2  0  0  0  0
 14 15  1  0  0  0  0
 15 11  2  0  0  0  0
 16 10  2  0  0  0  0
 17 13  1  0  0  0  0
 18 17  1  0  0  0  0
 19 20  1  0  0  0  0
 20  6  1  0  0  0  0
 21 22  1  1  0  0  0
 21  4  1  0  0  0  0
 23 21  1  0  0  0  0
 25 23  1  0  0  0  0
 26 25  1  0  0  0  0
 26 24  1  0  0  0  0
 27 26  2  0  0  0  0
 28 25  1  0  0  0  0
 29 28  1  0  0  0  0
 30 31  1  0  0  0  0
 30 29  1  0  0  0  0
 31 32  1  0  0  0  0
 32 33  1  0  0  0  0
 34 32  2  0  0  0  0
M  END
>  <MODEL>
7

>  <REMARK>
 VINA RESULT:      -7.3      3.644      6.437
  Name = 
  12 active torsions:
  status: ('A' for Active; 'I' for Inactive)
    1  A    between atoms: C_2  and  C_5
    2  A    between atoms: C_2  and  C_10
    3  A    between atoms: C_6  and  C_7
    4  A    between atoms: C_6  and  N_19
    5  A    between atoms: C_7  and  C_21
    6  A    between atoms: C_9  and  C_17
    7  A    between atoms: C_10  and  C_27
    8  A    between atoms: C_15  and  C_32
    9  A    between atoms: N_19  and  C_23
   10  A    between atoms: C_23  and  C_27
   11  A    between atoms: O_25  and  C_30
   12  A    between atoms: C_31  and  C_32
                            x       y       z     vdW  Elec       q    Type
                         _______ _______ _______ _____ _____    ______ ____

>  <TORSDO>
F 12

$$$$
=
 OpenBabel10222415143D

 34 35  0  0  1  0  0  0  0  0999 V2000
  185.6380  178.6240  139.4020 C   0  0  0  0  0  0  0  0  0  0  0  0
  184.4590  178.2810  138.7460 C   0  0  0  0  0  3  0  0  0  0  0  0
  185.5700  179.3930  140.5580 O   0  0  0  0  0  1  0  0  0  0  0  0
  186.8760  178.1950  138.9010 C   0  0  0  0  0  0  0  0  0  0  0  0
  184.5010  177.5050  137.5930 C   0  0  0  0  0  3  0  0  0  0  0  0
  186.9330  177.4250  137.7150 C   0  0  0  0  0  0  0  0  0  0  0  0
  185.7220  177.0650  137.0630 C   0  0  0  0  0  0  0  0  0  0  0  0
  185.1840  176.8320  134.6120 C   0  0  0  0  0  1  0  0  0  0  0  0
  185.7040  176.1460  135.8660 C   0  0  2  0  0  3  0  0  0  0  0  0
  184.9340  174.0020  134.8400 C   0  0  0  0  0  3  0  0  0  0  0  0
  185.6580  174.0070  137.2150 C   0  0  0  0  0  3  0  0  0  0  0  0
  185.0220  174.7910  136.1080 C   0  0  1  0  0  3  0  0  0  0  0  0
  183.5740  172.1620  135.8440 C   0  0  0  0  0  0  0  0  0  0  0  0
  184.0040  172.1390  137.1130 C   0  0  0  0  0  3  0  0  0  0  0  0
  185.1700  172.8550  137.6690 C   0  0  0  0  0  3  0  0  0  0  0  0
  184.2580  172.8610  134.7350 C   0  0  0  0  0  3  0  0  0  0  0  0
  182.4020  171.3110  135.4990 C   0  0  0  0  0  2  0  0  0  0  0  0
  181.2430  172.0860  135.4900 O   0  0  0  0  0  1  0  0  0  0  0  0
  188.8020  177.4980  136.0450 C   0  0  0  0  0  1  0  0  0  0  0  0
  188.2000  177.0360  137.2460 O   0  0  0  0  0  0  0  0  0  0  0  0
  188.1260  178.5890  139.6390 C   0  0  2  0  0  3  0  0  0  0  0  0
  189.0480  179.1710  138.7670 O   0  0  0  0  0  1  0  0  0  0  0  0
  188.7390  177.3920  140.3570 C   0  0  0  0  0  2  0  0  0  0  0  0
  191.6130  177.3400  141.0610 C   0  0  0  0  0  1  0  0  0  0  0  0
  189.1790  177.7710  141.6940 N   0  0  0  0  0  0  0  0  0  0  0  0
  190.5730  177.7490  142.0490 C   0  0  0  0  0  0  0  0  0  0  0  0
  190.9360  178.0680  143.2120 O   0  0  0  0  0  0  0  0  0  0  0  0
  188.1610  178.0740  142.6900 C   0  0  0  0  0  2  0  0  0  0  0  0
  187.6620  176.7930  143.3340 C   0  0  0  0  0  2  0  0  0  0  0  0
  187.1080  177.1020  144.7080 C   0  0  0  0  0  2  0  0  0  0  0  0
  185.9160  178.0270  144.5730 C   0  0  0  0  0  2  0  0  0  0  0  0
  185.4570  178.4580  145.9220 C   0  0  0  0  0  0  0  0  0  0  0  0
  184.1990  179.0250  146.0810 O   0  0  0  0  0  0  0  0  0  0  0  0
  186.2020  178.2910  146.9220 O   0  0  0  0  0  1  0  0  0  0  0  0
  1  3  1  0  0  0  0
  2  1  2  0  0  0  0
  4  1  1  0  0  0  0
  4 21  1  0  0  0  0
  5  2  1  0  0  0  0
  6  4  2  0  0  0  0
  7  5  2  0  0  0  0
  7  6  1  0  0  0  0
  9  8  1  6  0  0  0
  9  7  1  0  0  0  0
 10 12  1  0  0  0  0
 11 15  2  0  0  0  0
 12  9  1  6  0  0  0
 12 11  1  0  0  0  0
 13 14  2  0  0  0  0
 14 15  1  0  0  0  0
 16 10  2  0  0  0  0
 16 13  1  0  0  0  0
 17 13  1  0  0  0  0
 18 17  1  0  0  0  0
 19 20  1  0  0  0  0
 20  6  1  0  0  0  0
 21 22  1  6  0  0  0
 21 23  1  0  0  0  0
 23 25  1  0  0  0  0
 24 26  1  0  0  0  0
 25 26  1  0  0  0  0
 25 28  1  0  0  0  0
 26 27  2  0  0  0  0
 28 29  1  0  0  0  0
 29 30  1  0  0  0  0
 31 30  1  0  0  0  0
 31 32  1  0  0  0  0
 32 33  2  0  0  0  0
 32 34  1  0  0  0  0
M  END
>  <MODEL>
8

>  <REMARK>
 VINA RESULT:      -7.3      3.300      8.847
  Name = 
  12 active torsions:
  status: ('A' for Active; 'I' for Inactive)
    1  A    between atoms: C_2  and  C_5
    2  A    between atoms: C_2  and  C_10
    3  A    between atoms: C_6  and  C_7
    4  A    between atoms: C_6  and  N_19
    5  A    between atoms: C_7  and  C_21
    6  A    between atoms: C_9  and  C_17
    7  A    between atoms: C_10  and  C_27
    8  A    between atoms: C_15  and  C_32
    9  A    between atoms: N_19  and  C_23
   10  A    between atoms: C_23  and  C_27
   11  A    between atoms: O_25  and  C_30
   12  A    between atoms: C_31  and  C_32
                            x       y       z     vdW  Elec       q    Type
                         _______ _______ _______ _____ _____    ______ ____

>  <TORSDO>
F 12

$$$$
=
 OpenBabel10222415143D

 34 35  0  0  1  0  0  0  0  0999 V2000
  185.8870  177.9820  145.5220 C   0  0  0  0  0  0  0  0  0  0  0  0
  184.6030  178.4490  145.7890 C   0  0  0  0  0  3  0  0  0  0  0  0
  186.6980  177.5900  146.5810 O   0  0  0  0  0  1  0  0  0  0  0  0
  186.3520  177.9070  144.2010 C   0  0  0  0  0  0  0  0  0  0  0  0
  183.7700  178.8380  144.7460 C   0  0  0  0  0  3  0  0  0  0  0  0
  185.5220  178.3220  143.1330 C   0  0  0  0  0  0  0  0  0  0  0  0
  184.2060  178.7810  143.4140 C   0  0  0  0  0  0  0  0  0  0  0  0
  181.7800  178.9960  142.7640 C   0  0  0  0  0  1  0  0  0  0  0  0
  183.2290  179.1230  142.3160 C   0  0  2  0  0  3  0  0  0  0  0  0
  182.3190  177.5490  140.6030 C   0  0  0  0  0  3  0  0  0  0  0  0
  183.8760  179.3450  139.8820 C   0  0  0  0  0  3  0  0  0  0  0  0
  183.4850  178.4060  140.9830 C   0  0  1  0  0  3  0  0  0  0  0  0
  183.4490  176.5440  138.6130 C   0  0  0  0  0  0  0  0  0  0  0  0
  184.2520  177.5360  138.2020 C   0  0  0  0  0  3  0  0  0  0  0  0
  184.2480  178.9360  138.6700 C   0  0  0  0  0  3  0  0  0  0  0  0
  182.3370  176.7060  139.5730 C   0  0  0  0  0  3  0  0  0  0  0  0
  183.6000  175.2190  137.9540 C   0  0  0  0  0  2  0  0  0  0  0  0
  182.3770  174.5490  137.9570 O   0  0  0  0  0  1  0  0  0  0  0  0
  187.1400  179.0050  141.3430 C   0  0  0  0  0  1  0  0  0  0  0  0
  186.0430  178.2450  141.8290 O   0  0  0  0  0  0  0  0  0  0  0  0
  187.7460  177.3980  143.9570 C   0  0  2  0  0  3  0  0  0  0  0  0
  187.7900  176.0090  144.0900 O   0  0  0  0  0  1  0  0  0  0  0  0
  188.7450  178.0650  144.8960 C   0  0  0  0  0  2  0  0  0  0  0  0
  189.7700  177.5000  147.6140 C   0  0  0  0  0  1  0  0  0  0  0  0
  189.9130  177.2140  145.0830 N   0  0  0  0  0  0  0  0  0  0  0  0
  190.4230  176.9330  146.3990 C   0  0  0  0  0  0  0  0  0  0  0  0
  191.4400  176.2060  146.5420 O   0  0  0  0  0  0  0  0  0  0  0  0
  190.6130  176.7410  143.8960 C   0  0  0  0  0  2  0  0  0  0  0  0
  191.3970  177.8760  143.2630 C   0  0  0  0  0  2  0  0  0  0  0  0
  191.5410  177.6220  141.7780 C   0  0  0  0  0  2  0  0  0  0  0  0
  190.4100  176.7310  141.3070 C   0  0  0  0  0  2  0  0  0  0  0  0
  190.2670  176.8350  139.8300 C   0  0  0  0  0  0  0  0  0  0  0  0
  189.8630  178.0310  139.2520 O   0  0  0  0  0  1  0  0  0  0  0  0
  190.5310  175.8430  139.1020 O   0  0  0  0  0  0  0  0  0  0  0  0
  1  2  1  0  0  0  0
  1  3  1  0  0  0  0
  4  1  2  0  0  0  0
  5  2  2  0  0  0  0
  6  7  2  0  0  0  0
  6  4  1  0  0  0  0
  7  5  1  0  0  0  0
  9  8  1  1  0  0  0
  9  7  1  0  0  0  0
 10 12  1  0  0  0  0
 11 12  1  0  0  0  0
 12  9  1  1  0  0  0
 13 16  1  0  0  0  0
 14 13  2  0  0  0  0
 14 15  1  0  0  0  0
 15 11  2  0  0  0  0
 16 10  2  0  0  0  0
 17 18  1  0  0  0  0
 17 13  1  0  0  0  0
 19 20  1  0  0  0  0
 20  6  1  0  0  0  0
 21 22  1  1  0  0  0
 21  4  1  0  0  0  0
 21 23  1  0  0  0  0
 23 25  1  0  0  0  0
 25 26  1  0  0  0  0
 26 27  2  0  0  0  0
 26 24  1  0  0  0  0
 28 25  1  0  0  0  0
 29 28  1  0  0  0  0
 30 29  1  0  0  0  0
 31 30  1  0  0  0  0
 32 31  1  0  0  0  0
 33 32  1  0  0  0  0
 34 32  2  0  0  0  0
M  END
>  <MODEL>
9

>  <REMARK>
 VINA RESULT:      -7.3      3.534      7.492
  Name = 
  12 active torsions:
  status: ('A' for Active; 'I' for Inactive)
    1  A    between atoms: C_2  and  C_5
    2  A    between atoms: C_2  and  C_10
    3  A    between atoms: C_6  and  C_7
    4  A    between atoms: C_6  and  N_19
    5  A    between atoms: C_7  and  C_21
    6  A    between atoms: C_9  and  C_17
    7  A    between atoms: C_10  and  C_27
    8  A    between atoms: C_15  and  C_32
    9  A    between atoms: N_19  and  C_23
   10  A    between atoms: C_23  and  C_27
   11  A    between atoms: O_25  and  C_30
   12  A    between atoms: C_31  and  C_32
                            x       y       z     vdW  Elec       q    Type
                         _______ _______ _______ _____ _____    ______ ____

>  <TORSDO>
F 12

$$$$
