=
 OpenBabel10222419383D

 39 44  0  0  1  0  0  0  0  0999 V2000
  181.6800  176.4710  140.2910 O   0  0  0  0  0  1  0  0  0  0  0  0
  185.5300  178.5860  138.4570 N   0  0  0  0  0  0  0  0  0  0  0  0
  188.1320  178.2880  136.0790 C   0  0  0  0  0  3  0  0  0  0  0  0
  182.4860  179.3370  142.4650 C   0  0  0  0  0  2  0  0  0  0  0  0
  184.4810  178.5630  140.7050 C   0  0  2  0  0  3  0  0  0  0  0  0
  186.6210  178.4490  137.6680 C   0  0  0  0  0  0  0  0  0  0  0  0
  187.1490  178.1550  141.6410 N   0  0  0  0  0  0  0  0  0  0  0  0
  184.8310  178.6010  142.1690 C   0  0  0  0  0  0  0  0  0  0  0  0
  186.9810  178.2460  140.3580 C   0  0  0  0  0  0  0  0  0  0  0  0
  188.0540  178.1120  139.5240 N   0  0  0  0  0  0  0  0  0  0  0  0
  182.2730  177.7250  140.4350 C   0  0  2  0  0  0  0  0  0  0  0  0
  183.6710  177.4390  140.4770 O   0  0  0  0  0  0  0  0  0  0  0  0
  180.3620  178.2070  142.0610 C   0  0  0  0  0  0  0  0  0  0  0  0
  187.8490  178.2170  138.1880 C   0  0  0  0  0  0  0  0  0  0  0  0
  181.7580  178.3220  141.7040 N   0  0  0  0  0  0  0  0  0  0  0  0
  179.8740  178.8740  143.1360 F   0  0  0  0  0  0  0  0  0  0  0  0
  186.0780  178.3360  142.5780 C   0  0  0  0  0  3  0  0  0  0  0  0
  188.8210  178.1110  137.1690 N   0  0  0  0  0  0  0  0  0  0  0  0
  185.6880  178.4950  139.8120 C   0  0  0  0  0  0  0  0  0  0  0  0
  179.5690  177.5110  141.3780 O   0  0  0  0  0  0  0  0  0  0  0  0
  183.7120  178.7550  143.1600 C   0  0  1  0  0  3  0  0  0  0  0  0
  186.6910  178.5120  136.3550 C   0  0  0  0  0  3  0  0  0  0  0  0
  181.5290  179.1770  136.8620 C   0  0  0  0  0  0  0  0  0  0  0  0
  181.4580  179.9400  139.5360 C   0  0  0  0  0  3  0  0  0  0  0  0
  181.1330  180.4670  137.2110 C   0  0  0  0  0  3  0  0  0  0  0  0
  181.8830  177.5250  135.1300 C   0  0  0  0  0  3  0  0  0  0  0  0
  182.2480  176.9450  137.4500 C   0  0  0  0  0  3  0  0  0  0  0  0
  181.9020  178.2410  137.8650 C   0  0  0  0  0  0  0  0  0  0  0  0
  182.2380  176.5880  136.0990 C   0  0  0  0  0  3  0  0  0  0  0  0
  181.0880  180.8430  138.5460 C   0  0  0  0  0  3  0  0  0  0  0  0
  181.5310  178.8170  135.5110 C   0  0  0  0  0  3  0  0  0  0  0  0
  181.8970  178.6380  139.2390 C   0  0  0  0  0  0  0  0  0  0  0  0
  184.1050  179.6700  144.3170 C   0  0  0  0  0  2  0  0  0  0  0  0
  184.2420  178.8740  145.6050 C   0  0  0  0  0  2  0  0  0  0  0  0
  185.4360  179.2880  146.3260 N   0  0  0  0  0  2  0  0  0  0  0  0
  186.4050  178.1940  146.3260 C   0  0  0  0  0  0  0  0  0  0  0  0
  185.8040  177.0610  145.8130 F   0  0  0  0  0  0  0  0  0  0  0  0
  187.4930  178.5200  145.5330 F   0  0  0  0  0  0  0  0  0  0  0  0
  186.8320  177.9260  147.6170 F   0  0  0  0  0  0  0  0  0  0  0  0
  2 19  2  0  0  0  0
  3 22  1  0  0  0  0
  3 18  2  0  0  0  0
  4 21  1  0  0  0  0
  5 19  1  6  0  0  0
  5  8  1  0  0  0  0
  6 14  1  0  0  0  0
  6  2  1  0  0  0  0
  7 17  1  0  0  0  0
  8 17  2  0  0  0  0
  8 21  1  0  0  0  0
  9  7  2  0  0  0  0
 10  9  1  0  0  0  0
 11  1  1  6  0  0  0
 11 12  1  0  0  0  0
 11 15  1  0  0  0  0
 12  5  1  0  0  0  0
 13 16  1  0  0  0  0
 14 10  2  0  0  0  0
 15 13  1  0  0  0  0
 15  4  1  0  0  0  0
 18 14  1  0  0  0  0
 19  9  1  0  0  0  0
 20 13  2  0  0  0  0
 21 33  1  1  0  0  0
 22  6  2  0  0  0  0
 23 25  2  0  0  0  0
 23 28  1  0  0  0  0
 25 30  1  0  0  0  0
 26 31  2  0  0  0  0
 26 29  1  0  0  0  0
 27 28  1  0  0  0  0
 28 32  2  0  0  0  0
 29 27  2  0  0  0  0
 30 24  2  0  0  0  0
 31 23  1  0  0  0  0
 32 24  1  0  0  0  0
 32 11  1  0  0  0  0
 33 34  1  0  0  0  0
 34 35  1  0  0  0  0
 35 36  1  0  0  0  0
 36 39  1  0  0  0  0
 37 36  1  0  0  0  0
 38 36  1  0  0  0  0
M  END
>  <MODEL>
1

>  <REMARK>
 VINA RESULT:      -8.0      0.000      0.000
  Name = 
  5 active torsions:
  status: ('A' for Active; 'I' for Inactive)
    1  A    between atoms: C_1  and  C_12
    2  A    between atoms: C_1  and  N_34
    3  A    between atoms: C_5  and  N_34
    4  A    between atoms: C_12  and  C_38
    5  A    between atoms: C_20  and  C_37
                            x       y       z     vdW  Elec       q    Type
                         _______ _______ _______ _____ _____    ______ ____

>  <TORSDO>
F 5

$$$$
=
 OpenBabel10222419383D

 39 44  0  0  1  0  0  0  0  0999 V2000
  186.8560  179.1210  136.8010 O   0  0  0  0  0  1  0  0  0  0  0  0
  183.3810  177.3740  139.5450 N   0  0  0  0  0  0  0  0  0  0  0  0
  179.8890  177.3360  140.1080 C   0  0  0  0  0  3  0  0  0  0  0  0
  188.4660  177.5090  139.7000 C   0  0  0  0  0  2  0  0  0  0  0  0
  185.7490  177.9950  139.9470 C   0  0  2  0  0  3  0  0  0  0  0  0
  182.0740  177.4460  139.8870 C   0  0  0  0  0  0  0  0  0  0  0  0
  184.7250  179.2920  142.2770 N   0  0  0  0  0  0  0  0  0  0  0  0
  186.6520  178.5770  141.0030 C   0  0  0  0  0  0  0  0  0  0  0  0
  183.8670  178.6990  141.5060 C   0  0  0  0  0  0  0  0  0  0  0  0
  182.5370  178.7480  141.8110 N   0  0  0  0  0  0  0  0  0  0  0  0
  186.7950  178.1700  137.8200 C   0  0  2  0  0  0  0  0  0  0  0  0
  185.9040  178.7500  138.7730 O   0  0  0  0  0  0  0  0  0  0  0  0
  189.3100  177.9180  137.4470 C   0  0  0  0  0  0  0  0  0  0  0  0
  181.6630  178.1160  140.9900 C   0  0  0  0  0  0  0  0  0  0  0  0
  188.1800  177.9860  138.3460 N   0  0  0  0  0  0  0  0  0  0  0  0
  190.5420  177.6040  137.9200 F   0  0  0  0  0  0  0  0  0  0  0  0
  186.1400  179.2400  142.0470 C   0  0  0  0  0  3  0  0  0  0  0  0
  180.2600  178.0470  141.1320 N   0  0  0  0  0  0  0  0  0  0  0  0
  184.3020  177.9910  140.3480 C   0  0  0  0  0  0  0  0  0  0  0  0
  189.1750  178.1200  136.2140 O   0  0  0  0  0  0  0  0  0  0  0  0
  188.1340  178.5590  140.7540 C   0  0  1  0  0  3  0  0  0  0  0  0
  181.0390  176.9200  139.2660 C   0  0  0  0  0  3  0  0  0  0  0  0
  184.6380  175.3430  136.1510 C   0  0  0  0  0  0  0  0  0  0  0  0
  187.1200  175.7100  137.3510 C   0  0  0  0  0  3  0  0  0  0  0  0
  185.5110  174.2680  136.2920 C   0  0  0  0  0  3  0  0  0  0  0  0
  182.5250  176.1930  135.3300 C   0  0  0  0  0  3  0  0  0  0  0  0
  184.0940  177.6860  136.4090 C   0  0  0  0  0  3  0  0  0  0  0  0
  185.0020  176.6360  136.6200 C   0  0  0  0  0  0  0  0  0  0  0  0
  182.8700  177.4700  135.7700 C   0  0  0  0  0  3  0  0  0  0  0  0
  186.7540  174.4540  136.8810 C   0  0  0  0  0  3  0  0  0  0  0  0
  183.4060  175.1320  135.5220 C   0  0  0  0  0  3  0  0  0  0  0  0
  186.2650  176.8230  137.2650 C   0  0  0  0  0  0  0  0  0  0  0  0
  188.9160  178.2440  142.0270 C   0  0  0  0  0  2  0  0  0  0  0  0
  190.1440  177.4080  141.7070 C   0  0  0  0  0  2  0  0  0  0  0  0
  191.0510  177.3900  142.8460 N   0  0  0  0  0  2  0  0  0  0  0  0
  190.7810  176.2080  143.6610 C   0  0  0  0  0  0  0  0  0  0  0  0
  190.1090  175.2770  142.8940 F   0  0  0  0  0  0  0  0  0  0  0  0
  191.9700  175.6490  144.1010 F   0  0  0  0  0  0  0  0  0  0  0  0
  189.9910  176.5420  144.7490 F   0  0  0  0  0  0  0  0  0  0  0  0
  2  6  1  0  0  0  0
  2 19  2  0  0  0  0
  3 18  2  0  0  0  0
  4 21  1  0  0  0  0
  5 12  1  6  0  0  0
  5 19  1  0  0  0  0
  5  8  1  0  0  0  0
  6 14  1  0  0  0  0
  8 17  2  0  0  0  0
  9 10  1  0  0  0  0
  9  7  2  0  0  0  0
 11  1  1  6  0  0  0
 11 15  1  0  0  0  0
 11 12  1  0  0  0  0
 13 16  1  0  0  0  0
 13 15  1  0  0  0  0
 14 18  1  0  0  0  0
 14 10  2  0  0  0  0
 15  4  1  0  0  0  0
 17  7  1  0  0  0  0
 19  9  1  0  0  0  0
 20 13  2  0  0  0  0
 21  8  1  0  0  0  0
 21 33  1  1  0  0  0
 22  6  2  0  0  0  0
 22  3  1  0  0  0  0
 23 25  2  0  0  0  0
 23 28  1  0  0  0  0
 25 30  1  0  0  0  0
 26 31  2  0  0  0  0
 26 29  1  0  0  0  0
 27 28  1  0  0  0  0
 28 32  2  0  0  0  0
 29 27  2  0  0  0  0
 30 24  2  0  0  0  0
 31 23  1  0  0  0  0
 32 24  1  0  0  0  0
 32 11  1  0  0  0  0
 34 33  1  0  0  0  0
 34 35  1  0  0  0  0
 35 36  1  0  0  0  0
 36 38  1  0  0  0  0
 36 39  1  0  0  0  0
 37 36  1  0  0  0  0
M  END
>  <MODEL>
2

>  <REMARK>
 VINA RESULT:      -7.4      3.199      6.106
  Name = 
  5 active torsions:
  status: ('A' for Active; 'I' for Inactive)
    1  A    between atoms: C_1  and  C_12
    2  A    between atoms: C_1  and  N_34
    3  A    between atoms: C_5  and  N_34
    4  A    between atoms: C_12  and  C_38
    5  A    between atoms: C_20  and  C_37
                            x       y       z     vdW  Elec       q    Type
                         _______ _______ _______ _____ _____    ______ ____

>  <TORSDO>
F 5

$$$$
=
 OpenBabel10222419383D

 39 44  0  0  1  0  0  0  0  0999 V2000
  187.7360  179.4620  137.0660 O   0  0  0  0  0  1  0  0  0  0  0  0
  186.9110  177.6310  141.3820 N   0  0  0  0  0  0  0  0  0  0  0  0
  185.5010  178.2600  144.5650 C   0  0  0  0  0  3  0  0  0  0  0  0
  189.6650  176.3300  137.3060 C   0  0  0  0  0  2  0  0  0  0  0  0
  188.7140  177.3440  139.7020 C   0  0  2  0  0  3  0  0  0  0  0  0
  186.5180  177.8780  142.6520 C   0  0  0  0  0  0  0  0  0  0  0  0
  190.4650  177.6310  141.9400 N   0  0  0  0  0  0  0  0  0  0  0  0
  190.1970  177.1080  139.5940 C   0  0  0  0  0  0  0  0  0  0  0  0
  189.1920  177.7140  142.1720 C   0  0  0  0  0  0  0  0  0  0  0  0
  188.7500  177.9650  143.4400 N   0  0  0  0  0  0  0  0  0  0  0  0
  187.8920  178.2020  137.6430 C   0  0  2  0  0  0  0  0  0  0  0  0
  188.3950  178.4850  138.9490 O   0  0  0  0  0  0  0  0  0  0  0  0
  188.7800  177.4970  135.3540 C   0  0  0  0  0  0  0  0  0  0  0  0
  187.4140  178.0420  143.6540 C   0  0  0  0  0  0  0  0  0  0  0  0
  188.8550  177.4360  136.7960 N   0  0  0  0  0  0  0  0  0  0  0  0
  189.5590  176.6870  134.5940 F   0  0  0  0  0  0  0  0  0  0  0  0
  190.9990  177.3200  140.6460 C   0  0  0  0  0  3  0  0  0  0  0  0
  186.7620  178.2890  144.8820 N   0  0  0  0  0  0  0  0  0  0  0  0
  188.2500  177.5370  141.1170 C   0  0  1  0  0  3  0  0  0  0  0  0
  187.9820  178.2750  134.7740 O   0  0  0  0  0  0  0  0  0  0  0  0
  190.7700  176.8170  138.2360 C   0  0  1  0  0  3  0  0  0  0  0  0
  185.2920  177.9950  143.1190 C   0  0  0  0  0  2  0  0  0  0  0  0
  184.1350  177.2040  138.2050 C   0  0  0  0  0  0  0  0  0  0  0  0
  186.4720  176.1880  137.0920 C   0  0  0  0  0  3  0  0  0  0  0  0
  184.1410  175.9350  137.6310 C   0  0  0  0  0  3  0  0  0  0  0  0
  182.8860  178.9760  139.2810 C   0  0  0  0  0  3  0  0  0  0  0  0
  185.2350  179.2770  138.7850 C   0  0  0  0  0  3  0  0  0  0  0  0
  185.3200  177.9900  138.2310 C   0  0  0  0  0  0  0  0  0  0  0  0
  184.0340  179.7680  139.3030 C   0  0  0  0  0  3  0  0  0  0  0  0
  185.3050  175.4330  137.0660 C   0  0  0  0  0  3  0  0  0  0  0  0
  182.9380  177.6960  138.7340 C   0  0  0  0  0  3  0  0  0  0  0  0
  186.5310  177.4600  137.6880 C   0  0  0  0  0  0  0  0  0  0  0  0
  191.8640  175.7540  138.3020 C   0  0  0  0  0  2  0  0  0  0  0  0
  193.1680  176.2940  137.7370 C   0  0  0  0  0  2  0  0  0  0  0  0
  194.2990  175.7440  138.4700 N   0  0  0  0  0  2  0  0  0  0  0  0
  194.8160  174.5770  137.7580 C   0  0  0  0  0  0  0  0  0  0  0  0
  194.4060  174.6370  136.4410 F   0  0  0  0  0  0  0  0  0  0  0  0
  196.2020  174.5710  137.7930 F   0  0  0  0  0  0  0  0  0  0  0  0
  194.3300  173.4100  138.3240 F   0  0  0  0  0  0  0  0  0  0  0  0
  2  6  2  0  0  0  0
  3 18  2  0  0  0  0
  4 21  1  0  0  0  0
  5 12  1  6  0  0  0
  5 19  1  0  0  0  0
  6 22  1  0  0  0  0
  6 14  1  0  0  0  0
  7  9  2  0  0  0  0
  8  5  1  0  0  0  0
  8 17  2  0  0  0  0
  9 10  1  0  0  0  0
 10 14  2  0  0  0  0
 11  1  1  6  0  0  0
 11 32  1  0  0  0  0
 11 12  1  0  0  0  0
 13 15  1  0  0  0  0
 14 18  1  0  0  0  0
 15  4  1  0  0  0  0
 15 11  1  0  0  0  0
 16 13  1  0  0  0  0
 17  7  1  0  0  0  0
 19  2  1  6  0  0  0
 19  9  1  0  0  0  0
 20 13  2  0  0  0  0
 21 33  1  1  0  0  0
 21  8  1  0  0  0  0
 22  3  1  0  0  0  0
 23 28  1  0  0  0  0
 23 31  1  0  0  0  0
 24 32  1  0  0  0  0
 25 23  2  0  0  0  0
 26 29  1  0  0  0  0
 27 29  2  0  0  0  0
 28 27  1  0  0  0  0
 30 24  2  0  0  0  0
 30 25  1  0  0  0  0
 31 26  2  0  0  0  0
 32 28  2  0  0  0  0
 34 33  1  0  0  0  0
 34 35  1  0  0  0  0
 36 38  1  0  0  0  0
 36 39  1  0  0  0  0
 36 35  1  0  0  0  0
 37 36  1  0  0  0  0
M  END
>  <MODEL>
3

>  <REMARK>
 VINA RESULT:      -7.3      4.909      7.931
  Name = 
  5 active torsions:
  status: ('A' for Active; 'I' for Inactive)
    1  A    between atoms: C_1  and  C_12
    2  A    between atoms: C_1  and  N_34
    3  A    between atoms: C_5  and  N_34
    4  A    between atoms: C_12  and  C_38
    5  A    between atoms: C_20  and  C_37
                            x       y       z     vdW  Elec       q    Type
                         _______ _______ _______ _____ _____    ______ ____

>  <TORSDO>
F 5

$$$$
=
 OpenBabel10222419383D

 39 44  0  0  1  0  0  0  0  0999 V2000
  188.5010  179.4900  138.9250 O   0  0  0  0  0  1  0  0  0  0  0  0
  184.9340  178.0800  141.7450 N   0  0  0  0  0  0  0  0  0  0  0  0
  181.8550  179.0330  143.2020 C   0  0  0  0  0  3  0  0  0  0  0  0
  189.5580  176.3400  140.5230 C   0  0  0  0  0  2  0  0  0  0  0  0
  187.3650  177.5920  141.6640 C   0  0  2  0  0  3  0  0  0  0  0  0
  183.8330  178.4510  142.4380 C   0  0  0  0  0  0  0  0  0  0  0  0
  187.2660  178.0320  144.4850 N   0  0  0  0  0  0  0  0  0  0  0  0
  188.5410  177.3060  142.5620 C   0  0  0  0  0  0  0  0  0  0  0  0
  186.1570  178.1710  143.8260 C   0  0  0  0  0  0  0  0  0  0  0  0
  185.0220  178.5470  144.4850 N   0  0  0  0  0  0  0  0  0  0  0  0
  188.1450  178.2830  139.5270 C   0  0  2  0  0  0  0  0  0  0  0  0
  187.7030  178.6690  140.8290 O   0  0  0  0  0  0  0  0  0  0  0  0
  190.2440  177.3500  138.4100 C   0  0  0  0  0  0  0  0  0  0  0  0
  183.8770  178.6800  143.7720 C   0  0  0  0  0  0  0  0  0  0  0  0
  189.3620  177.4180  139.5530 N   0  0  0  0  0  0  0  0  0  0  0  0
  191.2620  176.4530  138.3840 F   0  0  0  0  0  0  0  0  0  0  0  0
  188.4840  177.5900  143.8690 C   0  0  0  0  0  3  0  0  0  0  0  0
  182.6070  179.0550  144.2630 N   0  0  0  0  0  0  0  0  0  0  0  0
  186.1120  177.9260  142.4230 C   0  0  1  0  0  3  0  0  0  0  0  0
  190.0770  178.0950  137.4120 O   0  0  0  0  0  0  0  0  0  0  0  0
  189.8310  176.8780  141.9220 C   0  0  1  0  0  3  0  0  0  0  0  0
  182.6110  178.6440  141.9860 C   0  0  0  0  0  2  0  0  0  0  0  0
  184.7650  177.3490  137.7570 C   0  0  0  0  0  0  0  0  0  0  0  0
  187.3630  176.3980  138.0410 C   0  0  0  0  0  3  0  0  0  0  0  0
  185.1440  176.1590  137.1410 C   0  0  0  0  0  3  0  0  0  0  0  0
  183.0570  179.0200  138.1450 C   0  0  0  0  0  3  0  0  0  0  0  0
  185.2640  179.3010  139.0950 C   0  0  0  0  0  3  0  0  0  0  0  0
  185.6980  178.0870  138.5370 C   0  0  0  0  0  0  0  0  0  0  0  0
  183.9600  179.7650  138.9010 C   0  0  0  0  0  3  0  0  0  0  0  0
  186.4440  175.6900  137.2750 C   0  0  0  0  0  3  0  0  0  0  0  0
  183.4580  177.8130  137.5760 C   0  0  0  0  0  3  0  0  0  0  0  0
  187.0260  177.5860  138.7110 C   0  0  0  0  0  0  0  0  0  0  0  0
  190.5330  175.7950  142.7390 C   0  0  0  0  0  2  0  0  0  0  0  0
  191.6630  176.3940  143.5600 C   0  0  0  0  0  2  0  0  0  0  0  0
  191.7780  175.7030  144.8360 N   0  0  0  0  0  2  0  0  0  0  0  0
  191.5490  176.6530  145.9230 C   0  0  0  0  0  0  0  0  0  0  0  0
  191.7710  177.9330  145.4560 F   0  0  0  0  0  0  0  0  0  0  0  0
  190.2400  176.5620  146.3690 F   0  0  0  0  0  0  0  0  0  0  0  0
  192.4180  176.4040  146.9730 F   0  0  0  0  0  0  0  0  0  0  0  0
  2  6  2  0  0  0  0
  3 18  2  0  0  0  0
  4 21  1  0  0  0  0
  5 12  1  6  0  0  0
  5 19  1  0  0  0  0
  5  8  1  0  0  0  0
  6 14  1  0  0  0  0
  8 17  2  0  0  0  0
  9  7  2  0  0  0  0
  9 10  1  0  0  0  0
 11  1  1  6  0  0  0
 11 15  1  0  0  0  0
 11 12  1  0  0  0  0
 13 15  1  0  0  0  0
 14 18  1  0  0  0  0
 14 10  2  0  0  0  0
 15  4  1  0  0  0  0
 16 13  1  0  0  0  0
 17  7  1  0  0  0  0
 19  2  1  6  0  0  0
 19  9  1  0  0  0  0
 20 13  2  0  0  0  0
 21  8  1  0  0  0  0
 21 33  1  1  0  0  0
 22  6  1  0  0  0  0
 22  3  1  0  0  0  0
 23 28  1  0  0  0  0
 24 32  1  0  0  0  0
 25 30  1  0  0  0  0
 25 23  2  0  0  0  0
 26 29  1  0  0  0  0
 28 32  2  0  0  0  0
 28 27  1  0  0  0  0
 29 27  2  0  0  0  0
 30 24  2  0  0  0  0
 31 23  1  0  0  0  0
 31 26  2  0  0  0  0
 32 11  1  0  0  0  0
 33 34  1  0  0  0  0
 34 35  1  0  0  0  0
 35 36  1  0  0  0  0
 36 38  1  0  0  0  0
 36 39  1  0  0  0  0
 37 36  1  0  0  0  0
M  END
>  <MODEL>
4

>  <REMARK>
 VINA RESULT:      -7.2      3.486      6.483
  Name = 
  5 active torsions:
  status: ('A' for Active; 'I' for Inactive)
    1  A    between atoms: C_1  and  C_12
    2  A    between atoms: C_1  and  N_34
    3  A    between atoms: C_5  and  N_34
    4  A    between atoms: C_12  and  C_38
    5  A    between atoms: C_20  and  C_37
                            x       y       z     vdW  Elec       q    Type
                         _______ _______ _______ _____ _____    ______ ____

>  <TORSDO>
F 5

$$$$
=
 OpenBabel10222419383D

 39 44  0  0  1  0  0  0  0  0999 V2000
  181.7820  175.8560  139.7600 O   0  0  0  0  0  1  0  0  0  0  0  0
  185.5350  178.3310  138.1940 N   0  0  0  0  0  0  0  0  0  0  0  0
  188.4360  178.2090  136.1740 C   0  0  0  0  0  3  0  0  0  0  0  0
  181.9330  178.9670  141.7320 C   0  0  0  0  0  2  0  0  0  0  0  0
  184.2180  178.3400  140.2970 C   0  0  2  0  0  3  0  0  0  0  0  0
  186.7260  178.2840  137.5550 C   0  0  0  0  0  0  0  0  0  0  0  0
  186.7740  178.3780  141.5720 N   0  0  0  0  0  0  0  0  0  0  0  0
  184.3700  178.5410  141.7820 C   0  0  0  0  0  0  0  0  0  0  0  0
  186.7610  178.3450  140.2750 C   0  0  0  0  0  0  0  0  0  0  0  0
  187.9410  178.2940  139.5880 N   0  0  0  0  0  0  0  0  0  0  0  0
  182.1870  177.1870  139.8540 C   0  0  2  0  0  0  0  0  0  0  0  0
  183.5940  177.1010  140.0840 O   0  0  0  0  0  0  0  0  0  0  0  0
  180.0390  177.5260  141.1930 C   0  0  0  0  0  0  0  0  0  0  0  0
  187.8970  178.2650  138.2340 C   0  0  0  0  0  0  0  0  0  0  0  0
  181.4420  177.8050  140.9910 N   0  0  0  0  0  0  0  0  0  0  0  0
  179.3360  178.2030  142.1360 F   0  0  0  0  0  0  0  0  0  0  0  0
  185.5780  178.4830  142.3570 C   0  0  0  0  0  3  0  0  0  0  0  0
  188.9960  178.2150  137.3490 N   0  0  0  0  0  0  0  0  0  0  0  0
  185.5280  178.3690  139.5620 C   0  0  0  0  0  0  0  0  0  0  0  0
  179.4340  176.6770  140.4910 O   0  0  0  0  0  0  0  0  0  0  0  0
  183.1230  178.6160  142.6170 C   0  0  1  0  0  3  0  0  0  0  0  0
  186.9550  178.2530  136.2580 C   0  0  0  0  0  3  0  0  0  0  0  0
  181.0360  179.8360  137.1910 C   0  0  0  0  0  0  0  0  0  0  0  0
  182.1920  177.3100  137.3310 C   0  0  0  0  0  3  0  0  0  0  0  0
  181.3610  179.1510  136.0230 C   0  0  0  0  0  3  0  0  0  0  0  0
  180.1780  181.8440  138.2350 C   0  0  0  0  0  3  0  0  0  0  0  0
  180.9780  180.0150  139.6020 C   0  0  0  0  0  3  0  0  0  0  0  0
  181.2880  179.2530  138.4640 C   0  0  0  0  0  0  0  0  0  0  0  0
  180.4310  181.2960  139.4920 C   0  0  0  0  0  3  0  0  0  0  0  0
  181.9480  177.8950  136.0940 C   0  0  0  0  0  3  0  0  0  0  0  0
  180.4780  181.1150  137.0870 C   0  0  0  0  0  3  0  0  0  0  0  0
  181.8540  177.9420  138.5410 C   0  0  0  0  0  0  0  0  0  0  0  0
  183.2450  179.6650  143.7200 C   0  0  0  0  0  2  0  0  0  0  0  0
  183.5450  179.0030  145.0550 C   0  0  0  0  0  2  0  0  0  0  0  0
  184.8030  179.5000  145.5920 N   0  0  0  0  0  2  0  0  0  0  0  0
  185.4310  178.4580  146.4000 C   0  0  0  0  0  0  0  0  0  0  0  0
  186.4300  179.0240  147.1670 F   0  0  0  0  0  0  0  0  0  0  0  0
  184.4970  177.8780  147.2420 F   0  0  0  0  0  0  0  0  0  0  0  0
  185.9910  177.4870  145.5850 F   0  0  0  0  0  0  0  0  0  0  0  0
  2 19  2  0  0  0  0
  3 22  1  0  0  0  0
  3 18  2  0  0  0  0
  4 21  1  0  0  0  0
  5 19  1  6  0  0  0
  5  8  1  0  0  0  0
  6  2  1  0  0  0  0
  6 14  1  0  0  0  0
  7 17  1  0  0  0  0
  8 17  2  0  0  0  0
  8 21  1  0  0  0  0
  9  7  2  0  0  0  0
 10  9  1  0  0  0  0
 11  1  1  6  0  0  0
 11 12  1  0  0  0  0
 11 15  1  0  0  0  0
 12  5  1  0  0  0  0
 13 16  1  0  0  0  0
 14 10  2  0  0  0  0
 15 13  1  0  0  0  0
 15  4  1  0  0  0  0
 18 14  1  0  0  0  0
 19  9  1  0  0  0  0
 20 13  2  0  0  0  0
 21 33  1  1  0  0  0
 22  6  2  0  0  0  0
 23 28  1  0  0  0  0
 24 32  1  0  0  0  0
 25 30  1  0  0  0  0
 25 23  2  0  0  0  0
 26 29  1  0  0  0  0
 28 32  2  0  0  0  0
 28 27  1  0  0  0  0
 29 27  2  0  0  0  0
 30 24  2  0  0  0  0
 31 23  1  0  0  0  0
 31 26  2  0  0  0  0
 32 11  1  0  0  0  0
 33 34  1  0  0  0  0
 34 35  1  0  0  0  0
 35 36  1  0  0  0  0
 36 37  1  0  0  0  0
 36 38  1  0  0  0  0
 39 36  1  0  0  0  0
M  END
>  <MODEL>
5

>  <REMARK>
 VINA RESULT:      -6.9      0.866      2.057
  Name = 
  5 active torsions:
  status: ('A' for Active; 'I' for Inactive)
    1  A    between atoms: C_1  and  C_12
    2  A    between atoms: C_1  and  N_34
    3  A    between atoms: C_5  and  N_34
    4  A    between atoms: C_12  and  C_38
    5  A    between atoms: C_20  and  C_37
                            x       y       z     vdW  Elec       q    Type
                         _______ _______ _______ _____ _____    ______ ____

>  <TORSDO>
F 5

$$$$
=
 OpenBabel10222419383D

 39 44  0  0  1  0  0  0  0  0999 V2000
  181.6090  180.1890  137.9810 O   0  0  0  0  0  1  0  0  0  0  0  0
  183.5380  178.3800  141.9390 N   0  0  0  0  0  0  0  0  0  0  0  0
  184.1680  178.9620  145.3710 C   0  0  0  0  0  3  0  0  0  0  0  0
  183.5410  177.2100  136.9860 C   0  0  0  0  0  2  0  0  0  0  0  0
  184.0670  178.1950  139.5220 C   0  0  2  0  0  3  0  0  0  0  0  0
  183.9290  178.6200  143.2120 C   0  0  0  0  0  0  0  0  0  0  0  0
  186.7600  178.6490  140.3600 N   0  0  0  0  0  0  0  0  0  0  0  0
  185.2330  178.0660  138.5770 C   0  0  0  0  0  0  0  0  0  0  0  0
  185.8480  178.6440  141.2820 C   0  0  0  0  0  0  0  0  0  0  0  0
  186.1970  178.8840  142.5800 N   0  0  0  0  0  0  0  0  0  0  0  0
  182.1560  178.9540  138.3300 C   0  0  2  0  0  0  0  0  0  0  0  0
  183.2950  179.2960  139.1190 O   0  0  0  0  0  0  0  0  0  0  0  0
  181.6180  178.2740  135.9270 C   0  0  0  0  0  0  0  0  0  0  0  0
  185.2230  178.8680  143.5230 C   0  0  0  0  0  0  0  0  0  0  0  0
  182.5090  178.2450  137.0640 N   0  0  0  0  0  0  0  0  0  0  0  0
  181.8750  177.5100  134.8360 F   0  0  0  0  0  0  0  0  0  0  0  0
  186.4750  178.3550  138.9850 C   0  0  0  0  0  3  0  0  0  0  0  0
  185.3780  179.0880  144.9090 N   0  0  0  0  0  0  0  0  0  0  0  0
  184.4860  178.3800  140.9530 C   0  0  1  0  0  3  0  0  0  0  0  0
  180.5790  178.9820  135.9300 O   0  0  0  0  0  0  0  0  0  0  0  0
  184.9420  177.7930  137.1290 C   0  0  1  0  0  3  0  0  0  0  0  0
  183.1870  178.6560  144.3000 C   0  0  0  0  0  2  0  0  0  0  0  0
  179.5560  177.6550  140.9730 C   0  0  0  0  0  0  0  0  0  0  0  0
  180.7290  176.8840  138.5720 C   0  0  0  0  0  3  0  0  0  0  0  0
  179.2280  176.4310  140.3970 C   0  0  0  0  0  3  0  0  0  0  0  0
  179.2080  179.2590  142.7520 C   0  0  0  0  0  3  0  0  0  0  0  0
  180.7490  179.7590  140.9550 C   0  0  0  0  0  3  0  0  0  0  0  0
  180.4940  178.5210  140.3450 C   0  0  0  0  0  0  0  0  0  0  0  0
  180.1130  180.1270  142.1440 C   0  0  0  0  0  3  0  0  0  0  0  0
  179.8050  176.0510  139.1930 C   0  0  0  0  0  3  0  0  0  0  0  0
  178.9320  178.0250  142.1690 C   0  0  0  0  0  3  0  0  0  0  0  0
  181.1230  178.1150  139.1260 C   0  0  0  0  0  0  0  0  0  0  0  0
  185.9470  176.8140  136.5260 C   0  0  0  0  0  2  0  0  0  0  0  0
  185.2800  175.4830  136.2210 C   0  0  0  0  0  2  0  0  0  0  0  0
  186.0940  174.3860  136.7220 N   0  0  0  0  0  2  0  0  0  0  0  0
  185.2360  173.4160  137.3980 C   0  0  0  0  0  0  0  0  0  0  0  0
  184.2250  174.0900  138.0540 F   0  0  0  0  0  0  0  0  0  0  0  0
  184.6700  172.5520  136.4740 F   0  0  0  0  0  0  0  0  0  0  0  0
  185.9650  172.6920  138.3280 F   0  0  0  0  0  0  0  0  0  0  0  0
  2  6  2  0  0  0  0
  4 15  1  0  0  0  0
  4 21  1  0  0  0  0
  5  8  1  6  0  0  0
  5 19  1  0  0  0  0
  6 14  1  0  0  0  0
  6 22  1  0  0  0  0
  7  9  2  0  0  0  0
  8 17  2  0  0  0  0
  9 10  1  0  0  0  0
 10 14  2  0  0  0  0
 11  1  1  6  0  0  0
 11 12  1  0  0  0  0
 11 32  1  0  0  0  0
 12  5  1  0  0  0  0
 13 20  2  0  0  0  0
 13 15  1  0  0  0  0
 14 18  1  0  0  0  0
 15 11  1  0  0  0  0
 16 13  1  0  0  0  0
 17  7  1  0  0  0  0
 18  3  2  0  0  0  0
 19  9  1  6  0  0  0
 19  2  1  0  0  0  0
 21 33  1  1  0  0  0
 21  8  1  0  0  0  0
 22  3  1  0  0  0  0
 23 31  1  0  0  0  0
 24 32  2  0  0  0  0
 24 30  1  0  0  0  0
 25 23  1  0  0  0  0
 27 29  2  0  0  0  0
 28 27  1  0  0  0  0
 28 23  2  0  0  0  0
 29 26  1  0  0  0  0
 30 25  2  0  0  0  0
 31 26  2  0  0  0  0
 32 28  1  0  0  0  0
 34 33  1  0  0  0  0
 34 35  1  0  0  0  0
 35 36  1  0  0  0  0
 36 37  1  0  0  0  0
 36 39  1  0  0  0  0
 38 36  1  0  0  0  0
M  END
>  <MODEL>
6

>  <REMARK>
 VINA RESULT:      -6.8      3.604      6.529
  Name = 
  5 active torsions:
  status: ('A' for Active; 'I' for Inactive)
    1  A    between atoms: C_1  and  C_12
    2  A    between atoms: C_1  and  N_34
    3  A    between atoms: C_5  and  N_34
    4  A    between atoms: C_12  and  C_38
    5  A    between atoms: C_20  and  C_37
                            x       y       z     vdW  Elec       q    Type
                         _______ _______ _______ _____ _____    ______ ____

>  <TORSDO>
F 5

$$$$
=
 OpenBabel10222419383D

 39 44  0  0  1  0  0  0  0  0999 V2000
  181.5260  175.4570  138.9670 O   0  0  0  0  0  1  0  0  0  0  0  0
  184.1700  178.1250  141.8920 N   0  0  0  0  0  0  0  0  0  0  0  0
  186.4090  178.0570  144.6300 C   0  0  0  0  0  3  0  0  0  0  0  0
  180.5460  178.9690  138.4210 C   0  0  0  0  0  2  0  0  0  0  0  0
  182.0120  178.4720  140.7180 C   0  0  2  0  0  3  0  0  0  0  0  0
  184.9100  178.1580  143.0240 C   0  0  0  0  0  0  0  0  0  0  0  0
  181.1190  179.4740  143.2400 N   0  0  0  0  0  0  0  0  0  0  0  0
  180.6740  179.1430  140.8860 C   0  0  0  0  0  0  0  0  0  0  0  0
  182.3420  179.0470  143.1740 C   0  0  0  0  0  0  0  0  0  0  0  0
  183.1250  179.0600  144.2930 N   0  0  0  0  0  0  0  0  0  0  0  0
  181.8620  176.8100  139.0260 C   0  0  2  0  0  0  0  0  0  0  0  0
  181.7890  177.1190  140.4180 O   0  0  0  0  0  0  0  0  0  0  0  0
  180.4220  177.0430  136.9280 C   0  0  0  0  0  0  0  0  0  0  0  0
  184.4000  178.6120  144.1930 C   0  0  0  0  0  0  0  0  0  0  0  0
  180.8640  177.5570  138.2050 N   0  0  0  0  0  0  0  0  0  0  0  0
  179.6310  177.7950  136.1240 F   0  0  0  0  0  0  0  0  0  0  0  0
  180.2570  179.5380  142.0960 C   0  0  0  0  0  3  0  0  0  0  0  0
  185.3610  178.5460  145.2250 N   0  0  0  0  0  0  0  0  0  0  0  0
  182.8780  178.5730  141.9410 C   0  0  1  0  0  3  0  0  0  0  0  0
  180.7780  175.9060  136.5250 O   0  0  0  0  0  0  0  0  0  0  0  0
  179.7490  179.1820  139.7020 C   0  0  1  0  0  3  0  0  0  0  0  0
  186.1620  177.7870  143.1910 C   0  0  0  0  0  2  0  0  0  0  0  0
  185.4170  176.3540  137.4170 C   0  0  0  0  0  0  0  0  0  0  0  0
  183.7510  178.3590  138.3880 C   0  0  0  0  0  3  0  0  0  0  0  0
  185.8420  177.6800  137.4110 C   0  0  0  0  0  3  0  0  0  0  0  0
  185.8590  174.0410  136.8560 C   0  0  0  0  0  3  0  0  0  0  0  0
  183.7470  174.6630  137.8600 C   0  0  0  0  0  3  0  0  0  0  0  0
  184.1320  176.0110  137.9220 C   0  0  0  0  0  0  0  0  0  0  0  0
  184.5970  173.6870  137.3320 C   0  0  0  0  0  3  0  0  0  0  0  0
  185.0070  178.6820  137.8850 C   0  0  0  0  0  3  0  0  0  0  0  0
  186.2680  175.3720  136.9010 C   0  0  0  0  0  3  0  0  0  0  0  0
  183.2840  177.0350  138.4500 C   0  0  0  0  0  0  0  0  0  0  0  0
  179.0100  180.5160  139.6080 C   0  0  0  0  0  2  0  0  0  0  0  0
  179.2780  181.1820  138.2680 C   0  0  0  0  0  2  0  0  0  0  0  0
  179.8950  182.4850  138.4690 N   0  0  0  0  0  2  0  0  0  0  0  0
  181.1840  182.5210  137.7820 C   0  0  0  0  0  0  0  0  0  0  0  0
  181.0890  181.7980  136.6100 F   0  0  0  0  0  0  0  0  0  0  0  0
  181.5250  183.8280  137.4740 F   0  0  0  0  0  0  0  0  0  0  0  0
  182.1700  181.9560  138.5750 F   0  0  0  0  0  0  0  0  0  0  0  0
  2  6  2  0  0  0  0
  3 18  2  0  0  0  0
  4 21  1  0  0  0  0
  5 12  1  1  0  0  0
  5  8  1  0  0  0  0
  5 19  1  0  0  0  0
  6 22  1  0  0  0  0
  6 14  1  0  0  0  0
  8 17  2  0  0  0  0
  9  7  2  0  0  0  0
  9 10  1  0  0  0  0
 11  1  1  6  0  0  0
 11 12  1  0  0  0  0
 13 15  1  0  0  0  0
 14 10  2  0  0  0  0
 14 18  1  0  0  0  0
 15  4  1  0  0  0  0
 15 11  1  0  0  0  0
 16 13  1  0  0  0  0
 17  7  1  0  0  0  0
 19  2  1  1  0  0  0
 19  9  1  0  0  0  0
 20 13  2  0  0  0  0
 21 33  1  6  0  0  0
 21  8  1  0  0  0  0
 22  3  1  0  0  0  0
 23 28  1  0  0  0  0
 24 32  1  0  0  0  0
 25 23  2  0  0  0  0
 25 30  1  0  0  0  0
 26 31  2  0  0  0  0
 26 29  1  0  0  0  0
 27 28  1  0  0  0  0
 28 32  2  0  0  0  0
 29 27  2  0  0  0  0
 30 24  2  0  0  0  0
 31 23  1  0  0  0  0
 32 11  1  0  0  0  0
 34 35  1  0  0  0  0
 34 33  1  0  0  0  0
 36 35  1  0  0  0  0
 36 39  1  0  0  0  0
 37 36  1  0  0  0  0
 38 36  1  0  0  0  0
M  END
>  <MODEL>
7

>  <REMARK>
 VINA RESULT:      -6.7      3.650      6.372
  Name = 
  5 active torsions:
  status: ('A' for Active; 'I' for Inactive)
    1  A    between atoms: C_1  and  C_12
    2  A    between atoms: C_1  and  N_34
    3  A    between atoms: C_5  and  N_34
    4  A    between atoms: C_12  and  C_38
    5  A    between atoms: C_20  and  C_37
                            x       y       z     vdW  Elec       q    Type
                         _______ _______ _______ _____ _____    ______ ____

>  <TORSDO>
F 5

$$$$
=
 OpenBabel10222419383D

 39 44  0  0  1  0  0  0  0  0999 V2000
  189.3640  179.2810  138.8840 O   0  0  0  0  0  1  0  0  0  0  0  0
  184.7910  177.9700  138.7460 N   0  0  0  0  0  0  0  0  0  0  0  0
  181.6320  178.6540  137.3060 C   0  0  0  0  0  3  0  0  0  0  0  0
  188.8340  176.8910  141.6410 C   0  0  0  0  0  2  0  0  0  0  0  0
  186.5390  177.9490  140.5060 C   0  0  2  0  0  3  0  0  0  0  0  0
  183.5410  178.2870  138.3350 C   0  0  0  0  0  0  0  0  0  0  0  0
  184.4900  179.0530  142.1640 N   0  0  0  0  0  0  0  0  0  0  0  0
  186.7170  178.1250  141.9910 C   0  0  0  0  0  0  0  0  0  0  0  0
  184.1830  178.8090  140.9280 C   0  0  0  0  0  0  0  0  0  0  0  0
  182.9330  179.1160  140.4690 N   0  0  0  0  0  0  0  0  0  0  0  0
  188.6320  178.2180  139.4140 C   0  0  2  0  0  0  0  0  0  0  0  0
  187.4170  178.8270  139.8510 O   0  0  0  0  0  0  0  0  0  0  0  0
  190.8600  177.4510  140.4020 C   0  0  0  0  0  0  0  0  0  0  0  0
  182.6370  178.8460  139.1740 C   0  0  0  0  0  0  0  0  0  0  0  0
  189.4320  177.6340  140.5310 N   0  0  0  0  0  0  0  0  0  0  0  0
  191.5540  176.7870  141.3590 F   0  0  0  0  0  0  0  0  0  0  0  0
  185.7640  178.7110  142.7270 C   0  0  0  0  0  3  0  0  0  0  0  0
  181.4120  179.0840  138.5140 N   0  0  0  0  0  0  0  0  0  0  0  0
  185.1340  178.2170  140.0470 C   0  0  0  0  0  0  0  0  0  0  0  0
  191.4830  177.8770  139.3970 O   0  0  0  0  0  0  0  0  0  0  0  0
  188.0600  177.8040  142.5840 C   0  0  1  0  0  3  0  0  0  0  0  0
  183.0090  178.1240  137.1410 C   0  0  0  0  0  3  0  0  0  0  0  0
  187.5670  176.2800  136.1670 C   0  0  0  0  0  0  0  0  0  0  0  0
  188.9250  175.8610  138.5580 C   0  0  0  0  0  3  0  0  0  0  0  0
  188.0900  175.0230  136.4630 C   0  0  0  0  0  3  0  0  0  0  0  0
  186.4110  177.7180  134.6010 C   0  0  0  0  0  3  0  0  0  0  0  0
  187.2080  178.6100  136.7050 C   0  0  0  0  0  3  0  0  0  0  0  0
  187.7190  177.3580  137.0830 C   0  0  0  0  0  0  0  0  0  0  0  0
  186.5630  178.7910  135.4790 C   0  0  0  0  0  3  0  0  0  0  0  0
  188.7760  174.8170  137.6520 C   0  0  0  0  0  3  0  0  0  0  0  0
  186.9110  176.4650  134.9460 C   0  0  0  0  0  3  0  0  0  0  0  0
  188.3900  177.1390  138.3270 C   0  0  0  0  0  0  0  0  0  0  0  0
  187.9270  177.1140  143.9400 C   0  0  0  0  0  2  0  0  0  0  0  0
  189.2060  177.2670  144.7460 C   0  0  0  0  0  2  0  0  0  0  0  0
  189.0070  178.2190  145.8290 N   0  0  0  0  0  2  0  0  0  0  0  0
  188.9150  177.4980  147.0960 C   0  0  0  0  0  0  0  0  0  0  0  0
  189.6920  176.3590  147.0230 F   0  0  0  0  0  0  0  0  0  0  0  0
  189.3820  178.2910  148.1320 F   0  0  0  0  0  0  0  0  0  0  0  0
  187.6040  177.1280  147.3470 F   0  0  0  0  0  0  0  0  0  0  0  0
  2 19  2  0  0  0  0
  3 18  2  0  0  0  0
  4 21  1  0  0  0  0
  5 12  1  6  0  0  0
  5  8  1  0  0  0  0
  6  2  1  0  0  0  0
  6 14  1  0  0  0  0
  7 17  1  0  0  0  0
  8 21  1  0  0  0  0
  8 17  2  0  0  0  0
  9  7  2  0  0  0  0
 10  9  1  0  0  0  0
 11  1  1  6  0  0  0
 11 12  1  0  0  0  0
 11 15  1  0  0  0  0
 13 15  1  0  0  0  0
 13 16  1  0  0  0  0
 14 10  2  0  0  0  0
 15  4  1  0  0  0  0
 18 14  1  0  0  0  0
 19  5  1  0  0  0  0
 19  9  1  0  0  0  0
 20 13  2  0  0  0  0
 21 33  1  1  0  0  0
 22  3  1  0  0  0  0
 22  6  2  0  0  0  0
 23 25  2  0  0  0  0
 23 28  1  0  0  0  0
 25 30  1  0  0  0  0
 26 31  2  0  0  0  0
 26 29  1  0  0  0  0
 27 28  1  0  0  0  0
 28 32  2  0  0  0  0
 29 27  2  0  0  0  0
 30 24  2  0  0  0  0
 31 23  1  0  0  0  0
 32 24  1  0  0  0  0
 32 11  1  0  0  0  0
 33 34  1  0  0  0  0
 34 35  1  0  0  0  0
 35 36  1  0  0  0  0
 36 39  1  0  0  0  0
 36 38  1  0  0  0  0
 37 36  1  0  0  0  0
M  END
>  <MODEL>
8

>  <REMARK>
 VINA RESULT:      -6.4      2.958      6.095
  Name = 
  5 active torsions:
  status: ('A' for Active; 'I' for Inactive)
    1  A    between atoms: C_1  and  C_12
    2  A    between atoms: C_1  and  N_34
    3  A    between atoms: C_5  and  N_34
    4  A    between atoms: C_12  and  C_38
    5  A    between atoms: C_20  and  C_37
                            x       y       z     vdW  Elec       q    Type
                         _______ _______ _______ _____ _____    ______ ____

>  <TORSDO>
F 5

$$$$
=
 OpenBabel10222419383D

 39 44  0  0  1  0  0  0  0  0999 V2000
  188.2660  179.5000  137.1380 O   0  0  0  0  0  1  0  0  0  0  0  0
  187.3190  177.6010  141.3990 N   0  0  0  0  0  0  0  0  0  0  0  0
  185.9370  178.2240  144.5960 C   0  0  0  0  0  3  0  0  0  0  0  0
  190.0070  176.2530  137.2940 C   0  0  0  0  0  2  0  0  0  0  0  0
  189.1080  177.2550  139.7160 C   0  0  2  0  0  3  0  0  0  0  0  0
  186.9370  177.8350  142.6760 C   0  0  0  0  0  0  0  0  0  0  0  0
  190.8650  177.3760  141.9650 N   0  0  0  0  0  0  0  0  0  0  0  0
  190.5750  176.9350  139.6050 C   0  0  0  0  0  0  0  0  0  0  0  0
  189.5980  177.5270  142.1960 C   0  0  0  0  0  0  0  0  0  0  0  0
  189.1670  177.7690  143.4700 N   0  0  0  0  0  0  0  0  0  0  0  0
  188.3460  178.2170  137.6800 C   0  0  2  0  0  0  0  0  0  0  0  0
  188.8600  178.4330  138.9950 O   0  0  0  0  0  0  0  0  0  0  0  0
  189.1990  177.5240  135.3740 C   0  0  0  0  0  0  0  0  0  0  0  0
  187.8370  177.9190  143.6840 C   0  0  0  0  0  0  0  0  0  0  0  0
  189.2640  177.4200  136.8140 N   0  0  0  0  0  0  0  0  0  0  0  0
  189.9320  176.6910  134.5940 F   0  0  0  0  0  0  0  0  0  0  0  0
  191.3840  177.0700  140.6630 C   0  0  0  0  0  3  0  0  0  0  0  0
  187.1970  178.1690  144.9170 N   0  0  0  0  0  0  0  0  0  0  0  0
  188.6510  177.4360  141.1350 C   0  0  1  0  0  3  0  0  0  0  0  0
  188.4500  178.3640  134.8140 O   0  0  0  0  0  0  0  0  0  0  0  0
  191.1340  176.6480  138.2400 C   0  0  1  0  0  3  0  0  0  0  0  0
  185.7180  178.0120  143.1430 C   0  0  0  0  0  2  0  0  0  0  0  0
  185.3380  175.6980  137.4700 C   0  0  0  0  0  0  0  0  0  0  0  0
  185.8600  178.3560  138.1010 C   0  0  0  0  0  3  0  0  0  0  0  0
  184.2970  176.5460  137.8400 C   0  0  0  0  0  3  0  0  0  0  0  0
  186.0700  173.4770  136.8450 C   0  0  0  0  0  3  0  0  0  0  0  0
  187.6840  175.2650  137.0700 C   0  0  0  0  0  3  0  0  0  0  0  0
  186.6750  176.1820  137.4080 C   0  0  0  0  0  0  0  0  0  0  0  0
  187.3880  173.9280  136.7930 C   0  0  0  0  0  3  0  0  0  0  0  0
  184.5590  177.8690  138.1650 C   0  0  0  0  0  3  0  0  0  0  0  0
  185.0470  174.3610  137.1810 C   0  0  0  0  0  3  0  0  0  0  0  0
  186.9430  177.5550  137.7020 C   0  0  0  0  0  0  0  0  0  0  0  0
  192.1640  175.5210  138.2780 C   0  0  0  0  0  2  0  0  0  0  0  0
  193.4790  175.9780  137.6680 C   0  0  0  0  0  2  0  0  0  0  0  0
  194.5900  175.6040  138.5300 N   0  0  0  0  0  2  0  0  0  0  0  0
  195.1910  174.3670  138.0380 C   0  0  0  0  0  0  0  0  0  0  0  0
  195.0590  173.3880  139.0030 F   0  0  0  0  0  0  0  0  0  0  0  0
  194.5450  173.9470  136.8860 F   0  0  0  0  0  0  0  0  0  0  0  0
  196.5380  174.5550  137.7750 F   0  0  0  0  0  0  0  0  0  0  0  0
  2  6  2  0  0  0  0
  3 18  2  0  0  0  0
  4 21  1  0  0  0  0
  5 12  1  6  0  0  0
  5 19  1  0  0  0  0
  6 22  1  0  0  0  0
  6 14  1  0  0  0  0
  7  9  2  0  0  0  0
  8  5  1  0  0  0  0
  8 17  2  0  0  0  0
  9 10  1  0  0  0  0
 10 14  2  0  0  0  0
 11  1  1  6  0  0  0
 11 32  1  0  0  0  0
 11 12  1  0  0  0  0
 13 15  1  0  0  0  0
 14 18  1  0  0  0  0
 15  4  1  0  0  0  0
 15 11  1  0  0  0  0
 16 13  1  0  0  0  0
 17  7  1  0  0  0  0
 19  2  1  6  0  0  0
 19  9  1  0  0  0  0
 20 13  2  0  0  0  0
 21 33  1  1  0  0  0
 21  8  1  0  0  0  0
 22  3  1  0  0  0  0
 23 25  1  0  0  0  0
 24 30  1  0  0  0  0
 25 30  2  0  0  0  0
 26 31  1  0  0  0  0
 27 28  2  0  0  0  0
 28 23  1  0  0  0  0
 28 32  1  0  0  0  0
 29 26  2  0  0  0  0
 29 27  1  0  0  0  0
 31 23  2  0  0  0  0
 32 24  2  0  0  0  0
 34 33  1  0  0  0  0
 34 35  1  0  0  0  0
 36 35  1  0  0  0  0
 36 37  1  0  0  0  0
 38 36  1  0  0  0  0
 39 36  1  0  0  0  0
M  END
>  <MODEL>
9

>  <REMARK>
 VINA RESULT:      -6.3      5.234      8.180
  Name = 
  5 active torsions:
  status: ('A' for Active; 'I' for Inactive)
    1  A    between atoms: C_1  and  C_12
    2  A    between atoms: C_1  and  N_34
    3  A    between atoms: C_5  and  N_34
    4  A    between atoms: C_12  and  C_38
    5  A    between atoms: C_20  and  C_37
                            x       y       z     vdW  Elec       q    Type
                         _______ _______ _______ _____ _____    ______ ____

>  <TORSDO>
F 5

$$$$
