=
 OpenBabel10222416123D

 44 48  0  0  1  0  0  0  0  0999 V2000
  190.0990  177.2510  137.6410 C   0  0  2  0  0  3  0  0  0  0  0  0
  191.3590  176.6620  137.2040 N   0  0  0  0  0  2  0  0  0  0  0  0
  190.7450  174.4790  137.7480 O   0  0  0  0  0  0  0  0  0  0  0  0
  191.6390  175.2650  137.3290 C   0  0  0  0  0  0  0  0  0  0  0  0
  197.4050  174.5600  137.3490 C   0  0  0  0  0  1  0  0  0  0  0  0
  196.0120  174.3310  137.0030 N   0  0  0  0  0  0  0  0  0  0  0  0
  192.9700  174.7540  136.9530 C   0  0  0  0  0  0  0  0  0  0  0  0
  195.7260  174.1790  135.6140 C   0  0  0  0  0  3  0  0  0  0  0  0
  193.7220  174.0640  137.9540 N   0  0  0  0  0  2  0  0  0  0  0  0
  194.5690  174.4030  135.0750 N   0  0  0  0  0  0  0  0  0  0  0  0
  193.3510  174.8610  135.6740 C   0  0  0  0  0  3  0  0  0  0  0  0
  195.1280  173.8420  138.0120 C   0  0  0  0  0  0  0  0  0  0  0  0
  195.5990  173.2370  139.0130 O   0  0  0  0  0  0  0  0  0  0  0  0
  189.7470  176.7730  139.0450 C   0  0  0  0  0  2  0  0  0  0  0  0
  189.8340  177.8600  140.0100 N   0  0  0  0  0  2  0  0  0  0  0  0
  190.7860  177.4440  141.0250 C   0  0  0  0  0  2  0  0  0  0  0  0
  189.0250  175.8390  143.4180 C   0  0  0  0  0  2  0  0  0  0  0  0
  187.8020  176.6560  143.5520 C   0  0  2  0  0  3  0  0  0  0  0  0
  188.7480  176.8730  142.3200 C   0  0  1  0  0  0  0  0  0  0  0  0
  190.1400  177.5210  142.3940 C   0  0  2  0  0  3  0  0  0  0  0  0
  188.9630  178.4010  142.3320 C   0  0  0  0  0  2  0  0  0  0  0  0
  186.5420  178.1300  146.7350 C   0  0  0  0  0  0  0  0  0  0  0  0
  188.9330  176.9670  145.7760 C   0  0  0  0  0  3  0  0  0  0  0  0
  188.8630  177.3070  147.0730 C   0  0  0  0  0  3  0  0  0  0  0  0
  187.8090  178.2760  147.5460 C   0  0  2  0  0  3  0  0  0  0  0  0
  185.3300  178.3380  147.3110 F   0  0  0  0  0  0  0  0  0  0  0  0
  187.5500  178.0730  148.8890 F   0  0  0  0  0  0  0  0  0  0  0  0
  186.6140  177.7790  145.4410 C   0  0  0  0  0  3  0  0  0  0  0  0
  187.9570  177.5620  144.7850 C   0  0  2  0  0  3  0  0  0  0  0  0
  188.9790  176.9050  136.6680 C   0  0  0  0  0  2  0  0  0  0  0  0
  187.7100  176.8210  137.3740 N   0  0  0  0  0  2  0  0  0  0  0  0
  186.7810  177.7040  136.6910 C   0  0  0  0  0  2  0  0  0  0  0  0
  186.1210  178.2300  138.9460 N   0  0  0  0  0  0  0  0  0  0  0  0
  185.8980  178.3680  137.6920 C   0  0  0  0  0  3  0  0  0  0  0  0
  185.1100  179.0080  140.0920 S   0  0  0  0  0  0  0  0  0  0  0  0
  185.9600  179.7140  141.1130 O   0  0  0  0  0  0  0  0  0  0  0  0
  184.2630  180.0250  139.3810 O   0  0  0  0  0  0  0  0  0  0  0  0
  182.5850  177.9910  140.4450 C   0  0  0  0  0  2  0  0  0  0  0  0
  183.2790  178.9990  142.9510 C   0  0  2  0  0  3  0  0  0  0  0  0
  184.0410  177.8070  140.8810 C   0  0  2  0  0  3  0  0  0  0  0  0
  184.1570  177.8750  142.4050 C   0  0  0  0  0  2  0  0  0  0  0  0
  183.2940  178.9630  144.4650 C   0  0  0  0  0  1  0  0  0  0  0  0
  181.9650  178.8200  142.4870 O   0  0  0  0  0  0  0  0  0  0  0  0
  181.9930  179.1250  141.1580 N   0  0  0  0  0  2  0  0  0  0  0  0
  1 30  1  6  0  0  0
  1 14  1  0  0  0  0
  2  4  1  0  0  0  0
  2  1  1  0  0  0  0
  4  3  2  0  0  0  0
  6  5  1  0  0  0  0
  6 12  1  0  0  0  0
  7  4  1  0  0  0  0
  7  9  1  0  0  0  0
  8  6  1  0  0  0  0
  9 12  1  0  0  0  0
 10  8  2  0  0  0  0
 10 11  1  0  0  0  0
 11  7  2  0  0  0  0
 12 13  2  0  0  0  0
 14 15  1  0  0  0  0
 15 16  1  0  0  0  0
 18 17  1  1  0  0  0
 18 29  1  0  0  0  0
 19 21  1  6  0  0  0
 19 20  1  0  0  0  0
 19 17  1  0  0  0  0
 19 18  1  0  0  0  0
 20 16  1  6  0  0  0
 21 20  1  0  0  0  0
 22 26  1  0  0  0  0
 22 25  1  0  0  0  0
 23 24  2  0  0  0  0
 24 25  1  0  0  0  0
 25 27  1  1  0  0  0
 28 22  2  0  0  0  0
 29 28  1  1  0  0  0
 29 23  1  0  0  0  0
 30 31  1  0  0  0  0
 32 31  1  0  0  0  0
 32 34  1  0  0  0  0
 33 35  1  0  0  0  0
 34 33  2  0  0  0  0
 35 36  2  0  0  0  0
 37 35  2  0  0  0  0
 38 40  1  0  0  0  0
 38 44  1  0  0  0  0
 39 42  1  1  0  0  0
 40 35  1  6  0  0  0
 40 41  1  0  0  0  0
 41 39  1  0  0  0  0
 43 39  1  0  0  0  0
 44 43  1  0  0  0  0
M  END
>  <MODEL>
1

>  <REMARK>
 VINA RESULT:      -8.9      0.000      0.000
  Name = 
  13 active torsions:
  status: ('A' for Active; 'I' for Inactive)
    1  A    between atoms: C_1  and  N_17
    2  A    between atoms: C_1  and  C_34
    3  A    between atoms: N_2  and  C_29
    4  A    between atoms: C_8  and  C_33
    5  A    between atoms: C_11  and  S_21
    6  A    between atoms: C_14  and  C_43
    7  A    between atoms: N_17  and  C_42
    8  A    between atoms: N_18  and  C_22
    9  A    between atoms: N_18  and  C_25
   10  A    between atoms: S_21  and  N_26
   11  A    between atoms: C_22  and  C_23
   12  A    between atoms: C_25  and  C_29
   13  A    between atoms: C_29  and  C_42
                            x       y       z     vdW  Elec       q    Type
                         _______ _______ _______ _____ _____    ______ ____

>  <TORSDO>
F 13

$$$$
=
 OpenBabel10222416123D

 44 48  0  0  1  0  0  0  0  0999 V2000
  188.7020  177.2670  137.3590 C   0  0  2  0  0  3  0  0  0  0  0  0
  189.9520  176.5160  137.3540 N   0  0  0  0  0  2  0  0  0  0  0  0
  190.2880  176.7260  135.0560 O   0  0  0  0  0  0  0  0  0  0  0  0
  190.6770  176.2380  136.1530 C   0  0  0  0  0  0  0  0  0  0  0  0
  196.2950  174.7770  136.3710 C   0  0  0  0  0  1  0  0  0  0  0  0
  194.8500  174.6170  136.3900 N   0  0  0  0  0  0  0  0  0  0  0  0
  191.8840  175.3920  136.2120 C   0  0  0  0  0  0  0  0  0  0  0  0
  194.3250  173.5530  135.5990 C   0  0  0  0  0  3  0  0  0  0  0  0
  192.7390  175.5350  137.3480 N   0  0  0  0  0  2  0  0  0  0  0  0
  193.1140  173.5100  135.1400 N   0  0  0  0  0  0  0  0  0  0  0  0
  192.0520  174.4630  135.2630 C   0  0  0  0  0  3  0  0  0  0  0  0
  194.1140  175.1850  137.4750 C   0  0  0  0  0  0  0  0  0  0  0  0
  194.7000  175.4320  138.5630 O   0  0  0  0  0  0  0  0  0  0  0  0
  188.4880  177.9340  138.7130 C   0  0  0  0  0  2  0  0  0  0  0  0
  188.9880  177.1000  139.7980 N   0  0  0  0  0  2  0  0  0  0  0  0
  189.9430  177.9050  140.5390 C   0  0  0  0  0  2  0  0  0  0  0  0
  189.1710  176.0280  143.2380 C   0  0  0  0  0  2  0  0  0  0  0  0
  187.8370  176.5220  143.6310 C   0  0  2  0  0  3  0  0  0  0  0  0
  188.4250  176.9090  142.2290 C   0  0  1  0  0  0  0  0  0  0  0  0
  189.5920  177.8840  142.0130 C   0  0  2  0  0  3  0  0  0  0  0  0
  188.2450  178.4410  142.2060 C   0  0  0  0  0  2  0  0  0  0  0  0
  186.6740  178.0770  146.8120 C   0  0  0  0  0  0  0  0  0  0  0  0
  189.0710  177.0040  145.7670 C   0  0  0  0  0  3  0  0  0  0  0  0
  189.0550  177.4030  147.0490 C   0  0  0  0  0  3  0  0  0  0  0  0
  187.9740  178.3340  147.5390 C   0  0  2  0  0  3  0  0  0  0  0  0
  185.4860  178.2450  147.4490 F   0  0  0  0  0  0  0  0  0  0  0  0
  187.8040  178.1830  148.9030 F   0  0  0  0  0  0  0  0  0  0  0  0
  186.6930  177.6680  145.5340 C   0  0  0  0  0  3  0  0  0  0  0  0
  188.0070  177.4950  144.8100 C   0  0  2  0  0  3  0  0  0  0  0  0
  187.5280  176.3570  137.0260 C   0  0  0  0  0  2  0  0  0  0  0  0
  186.2830  177.1070  137.0730 N   0  0  0  0  0  2  0  0  0  0  0  0
  185.2130  176.1840  136.7370 C   0  0  0  0  0  2  0  0  0  0  0  0
  183.3370  177.4740  137.5190 N   0  0  0  0  0  0  0  0  0  0  0  0
  184.0510  176.4180  137.6410 C   0  0  0  0  0  3  0  0  0  0  0  0
  181.9930  177.7300  138.5520 S   0  0  0  0  0  0  0  0  0  0  0  0
  180.7500  177.9080  137.7240 O   0  0  0  0  0  0  0  0  0  0  0  0
  181.8200  176.5240  139.4320 O   0  0  0  0  0  0  0  0  0  0  0  0
  183.2850  180.1220  138.9370 C   0  0  0  0  0  2  0  0  0  0  0  0
  184.2450  178.4830  140.9800 C   0  0  2  0  0  3  0  0  0  0  0  0
  182.2770  179.1670  139.5830 C   0  0  2  0  0  3  0  0  0  0  0  0
  182.7440  178.7630  140.9840 C   0  0  0  0  0  2  0  0  0  0  0  0
  184.7150  178.2240  142.3950 C   0  0  0  0  0  1  0  0  0  0  0  0
  184.9170  179.5990  140.4540 O   0  0  0  0  0  0  0  0  0  0  0  0
  184.6430  179.6070  139.1190 N   0  0  0  0  0  2  0  0  0  0  0  0
  1 30  1  1  0  0  0
  1 14  1  0  0  0  0
  2  1  1  0  0  0  0
  3  4  2  0  0  0  0
  4  7  1  0  0  0  0
  4  2  1  0  0  0  0
  5  6  1  0  0  0  0
  6 12  1  0  0  0  0
  7  9  1  0  0  0  0
  8  6  1  0  0  0  0
  9 12  1  0  0  0  0
 10 11  1  0  0  0  0
 10  8  2  0  0  0  0
 11  7  2  0  0  0  0
 12 13  2  0  0  0  0
 14 15  1  0  0  0  0
 15 16  1  0  0  0  0
 18 17  1  1  0  0  0
 18 29  1  0  0  0  0
 19 21  1  6  0  0  0
 19 17  1  0  0  0  0
 19 18  1  0  0  0  0
 20 16  1  6  0  0  0
 20 21  1  0  0  0  0
 20 19  1  0  0  0  0
 22 26  1  0  0  0  0
 22 25  1  0  0  0  0
 23 24  2  0  0  0  0
 24 25  1  0  0  0  0
 25 27  1  1  0  0  0
 28 22  2  0  0  0  0
 29 28  1  1  0  0  0
 29 23  1  0  0  0  0
 30 31  1  0  0  0  0
 32 31  1  0  0  0  0
 32 34  1  0  0  0  0
 33 34  2  0  0  0  0
 33 35  1  0  0  0  0
 35 37  2  0  0  0  0
 36 35  2  0  0  0  0
 38 44  1  0  0  0  0
 38 40  1  0  0  0  0
 39 41  1  0  0  0  0
 39 42  1  1  0  0  0
 40 35  1  6  0  0  0
 40 41  1  0  0  0  0
 43 39  1  0  0  0  0
 44 43  1  0  0  0  0
M  END
>  <MODEL>
2

>  <REMARK>
 VINA RESULT:      -8.5      1.784      2.181
  Name = 
  13 active torsions:
  status: ('A' for Active; 'I' for Inactive)
    1  A    between atoms: C_1  and  N_17
    2  A    between atoms: C_1  and  C_34
    3  A    between atoms: N_2  and  C_29
    4  A    between atoms: C_8  and  C_33
    5  A    between atoms: C_11  and  S_21
    6  A    between atoms: C_14  and  C_43
    7  A    between atoms: N_17  and  C_42
    8  A    between atoms: N_18  and  C_22
    9  A    between atoms: N_18  and  C_25
   10  A    between atoms: S_21  and  N_26
   11  A    between atoms: C_22  and  C_23
   12  A    between atoms: C_25  and  C_29
   13  A    between atoms: C_29  and  C_42
                            x       y       z     vdW  Elec       q    Type
                         _______ _______ _______ _____ _____    ______ ____

>  <TORSDO>
F 13

$$$$
=
 OpenBabel10222416123D

 44 48  0  0  1  0  0  0  0  0999 V2000
  190.0270  175.7920  137.6850 C   0  0  2  0  0  3  0  0  0  0  0  0
  188.5850  176.0100  137.6780 N   0  0  0  0  0  2  0  0  0  0  0  0
  188.7420  178.2800  137.1660 O   0  0  0  0  0  0  0  0  0  0  0  0
  188.0040  177.2970  137.4560 C   0  0  0  0  0  0  0  0  0  0  0  0
  182.7380  177.8470  139.8460 C   0  0  0  0  0  1  0  0  0  0  0  0
  183.7630  177.8160  138.8150 N   0  0  0  0  0  0  0  0  0  0  0  0
  186.5420  177.4620  137.5550 C   0  0  0  0  0  0  0  0  0  0  0  0
  183.4490  177.0760  137.6380 C   0  0  0  0  0  3  0  0  0  0  0  0
  186.0500  178.6220  138.2320 N   0  0  0  0  0  2  0  0  0  0  0  0
  184.3310  176.5700  136.8330 N   0  0  0  0  0  0  0  0  0  0  0  0
  185.7610  176.5860  136.9130 C   0  0  0  0  0  3  0  0  0  0  0  0
  184.7710  178.8290  138.8240 C   0  0  0  0  0  0  0  0  0  0  0  0
  184.5510  179.9210  139.4120 O   0  0  0  0  0  0  0  0  0  0  0  0
  190.7080  176.7720  138.6340 C   0  0  0  0  0  2  0  0  0  0  0  0
  190.4350  176.4370  140.0250 N   0  0  0  0  0  2  0  0  0  0  0  0
  190.9910  177.5110  140.8310 C   0  0  0  0  0  2  0  0  0  0  0  0
  189.3370  175.7850  143.2170 C   0  0  0  0  0  2  0  0  0  0  0  0
  188.0260  176.4620  143.2850 C   0  0  2  0  0  3  0  0  0  0  0  0
  188.9850  176.7500  142.0780 C   0  0  1  0  0  0  0  0  0  0  0  0
  190.2910  177.5530  142.1750 C   0  0  2  0  0  3  0  0  0  0  0  0
  189.0260  178.2920  142.0480 C   0  0  0  0  0  2  0  0  0  0  0  0
  186.4750  177.9090  146.3490 C   0  0  0  0  0  0  0  0  0  0  0  0
  189.0060  176.9390  145.5510 C   0  0  0  0  0  3  0  0  0  0  0  0
  188.8390  177.3090  146.8300 C   0  0  0  0  0  3  0  0  0  0  0  0
  187.6790  178.1930  147.2170 C   0  0  2  0  0  3  0  0  0  0  0  0
  185.2200  178.0240  146.8570 F   0  0  0  0  0  0  0  0  0  0  0  0
  187.3690  178.0070  148.5520 F   0  0  0  0  0  0  0  0  0  0  0  0
  186.6460  177.5290  145.0740 C   0  0  0  0  0  3  0  0  0  0  0  0
  188.0350  177.4140  144.4930 C   0  0  2  0  0  3  0  0  0  0  0  0
  190.5980  175.9320  136.2810 C   0  0  0  0  0  2  0  0  0  0  0  0
  190.2400  174.7730  135.4770 N   0  0  0  0  0  2  0  0  0  0  0  0
  191.4380  173.9640  135.3350 C   0  0  0  0  0  2  0  0  0  0  0  0
  193.2880  174.1480  136.8630 N   0  0  0  0  0  0  0  0  0  0  0  0
  192.6000  174.6850  135.9260 C   0  0  0  0  0  3  0  0  0  0  0  0
  194.6340  174.9770  137.5290 S   0  0  0  0  0  0  0  0  0  0  0  0
  195.3590  175.7160  136.4370 O   0  0  0  0  0  0  0  0  0  0  0  0
  194.1380  175.9730  138.5390 O   0  0  0  0  0  0  0  0  0  0  0  0
  196.3790  174.4430  139.5790 C   0  0  0  0  0  2  0  0  0  0  0  0
  197.9490  174.2880  137.2790 C   0  0  2  0  0  3  0  0  0  0  0  0
  195.7280  173.8170  138.3430 C   0  0  2  0  0  3  0  0  0  0  0  0
  196.7960  173.2920  137.3820 C   0  0  0  0  0  2  0  0  0  0  0  0
  199.0580  173.6930  136.4390 C   0  0  0  0  0  1  0  0  0  0  0  0
  198.4300  174.5670  138.5700 O   0  0  0  0  0  0  0  0  0  0  0  0
  197.4710  175.3290  139.1690 N   0  0  0  0  0  2  0  0  0  0  0  0
  1 30  1  6  0  0  0
  1 14  1  0  0  0  0
  2  1  1  0  0  0  0
  3  4  2  0  0  0  0
  4  7  1  0  0  0  0
  4  2  1  0  0  0  0
  6 12  1  0  0  0  0
  6  5  1  0  0  0  0
  7  9  1  0  0  0  0
  8  6  1  0  0  0  0
  9 12  1  0  0  0  0
 10 11  1  0  0  0  0
 10  8  2  0  0  0  0
 11  7  2  0  0  0  0
 12 13  2  0  0  0  0
 14 15  1  0  0  0  0
 15 16  1  0  0  0  0
 18 17  1  1  0  0  0
 18 29  1  0  0  0  0
 19 21  1  6  0  0  0
 19 20  1  0  0  0  0
 19 17  1  0  0  0  0
 19 18  1  0  0  0  0
 20 16  1  6  0  0  0
 21 20  1  0  0  0  0
 22 26  1  0  0  0  0
 22 25  1  0  0  0  0
 23 24  2  0  0  0  0
 24 25  1  0  0  0  0
 25 27  1  1  0  0  0
 28 22  2  0  0  0  0
 29 28  1  1  0  0  0
 29 23  1  0  0  0  0
 31 30  1  0  0  0  0
 32 31  1  0  0  0  0
 32 34  1  0  0  0  0
 33 35  1  0  0  0  0
 34 33  2  0  0  0  0
 35 37  2  0  0  0  0
 36 35  2  0  0  0  0
 39 42  1  6  0  0  0
 39 41  1  0  0  0  0
 39 43  1  0  0  0  0
 40 35  1  6  0  0  0
 40 38  1  0  0  0  0
 41 40  1  0  0  0  0
 43 44  1  0  0  0  0
 44 38  1  0  0  0  0
M  END
>  <MODEL>
3

>  <REMARK>
 VINA RESULT:      -8.2      2.393      8.920
  Name = 
  13 active torsions:
  status: ('A' for Active; 'I' for Inactive)
    1  A    between atoms: C_1  and  N_17
    2  A    between atoms: C_1  and  C_34
    3  A    between atoms: N_2  and  C_29
    4  A    between atoms: C_8  and  C_33
    5  A    between atoms: C_11  and  S_21
    6  A    between atoms: C_14  and  C_43
    7  A    between atoms: N_17  and  C_42
    8  A    between atoms: N_18  and  C_22
    9  A    between atoms: N_18  and  C_25
   10  A    between atoms: S_21  and  N_26
   11  A    between atoms: C_22  and  C_23
   12  A    between atoms: C_25  and  C_29
   13  A    between atoms: C_29  and  C_42
                            x       y       z     vdW  Elec       q    Type
                         _______ _______ _______ _____ _____    ______ ____

>  <TORSDO>
F 13

$$$$
=
 OpenBabel10222416123D

 44 48  0  0  1  0  0  0  0  0999 V2000
  189.7450  176.0450  137.9640 C   0  0  2  0  0  3  0  0  0  0  0  0
  188.3880  176.4730  138.2820 N   0  0  0  0  0  2  0  0  0  0  0  0
  188.8480  178.7470  138.0390 O   0  0  0  0  0  0  0  0  0  0  0  0
  188.0130  177.8520  138.3490 C   0  0  0  0  0  0  0  0  0  0  0  0
  183.1710  178.0410  141.5530 C   0  0  0  0  0  1  0  0  0  0  0  0
  184.1080  178.3670  140.4900 N   0  0  0  0  0  0  0  0  0  0  0  0
  186.6460  178.2140  138.7680 C   0  0  0  0  0  0  0  0  0  0  0  0
  183.5640  178.4440  139.1750 C   0  0  0  0  0  3  0  0  0  0  0  0
  186.4950  178.9050  140.0100 N   0  0  0  0  0  2  0  0  0  0  0  0
  184.2510  178.2860  138.0870 N   0  0  0  0  0  0  0  0  0  0  0  0
  185.6410  177.9820  137.9160 C   0  0  0  0  0  3  0  0  0  0  0  0
  185.3380  179.0050  140.8360 C   0  0  0  0  0  0  0  0  0  0  0  0
  185.4290  179.6350  141.9230 O   0  0  0  0  0  0  0  0  0  0  0  0
  190.7490  176.7350  138.8820 C   0  0  0  0  0  2  0  0  0  0  0  0
  190.4930  176.4140  140.2790 N   0  0  0  0  0  2  0  0  0  0  0  0
  190.9450  177.5550  141.0590 C   0  0  0  0  0  2  0  0  0  0  0  0
  188.9280  175.9220  143.2210 C   0  0  0  0  0  2  0  0  0  0  0  0
  187.7480  176.8030  143.3250 C   0  0  2  0  0  3  0  0  0  0  0  0
  188.7900  177.0340  142.1750 C   0  0  1  0  0  0  0  0  0  0  0  0
  190.2080  177.5900  142.3830 C   0  0  2  0  0  3  0  0  0  0  0  0
  189.0910  178.5430  142.2990 C   0  0  0  0  0  2  0  0  0  0  0  0
  186.3950  178.0630  146.5600 C   0  0  0  0  0  0  0  0  0  0  0  0
  188.8110  176.9580  145.5970 C   0  0  0  0  0  3  0  0  0  0  0  0
  188.7030  177.2090  146.9120 C   0  0  0  0  0  3  0  0  0  0  0  0
  187.6360  178.1490  147.4180 C   0  0  2  0  0  3  0  0  0  0  0  0
  185.1660  178.2370  147.1120 F   0  0  0  0  0  0  0  0  0  0  0  0
  187.3360  177.8560  148.7350 F   0  0  0  0  0  0  0  0  0  0  0  0
  186.5060  177.8010  145.2490 C   0  0  0  0  0  3  0  0  0  0  0  0
  187.8670  177.6230  144.6200 C   0  0  2  0  0  3  0  0  0  0  0  0
  190.0720  176.3370  136.5070 C   0  0  0  0  0  2  0  0  0  0  0  0
  189.0570  175.7600  135.6390 N   0  0  0  0  0  2  0  0  0  0  0  0
  189.4140  174.3680  135.4300 C   0  0  0  0  0  2  0  0  0  0  0  0
  187.1070  174.0240  136.0230 N   0  0  0  0  0  0  0  0  0  0  0  0
  188.2400  173.5010  135.7330 C   0  0  0  0  0  3  0  0  0  0  0  0
  185.7560  173.0210  136.3570 S   0  0  0  0  0  0  0  0  0  0  0  0
  186.0040  171.6440  135.8040 O   0  0  0  0  0  0  0  0  0  0  0  0
  185.5830  172.9200  137.8460 O   0  0  0  0  0  0  0  0  0  0  0  0
  183.8670  175.0130  136.3790 C   0  0  0  0  0  2  0  0  0  0  0  0
  182.4390  172.7000  137.0080 C   0  0  2  0  0  3  0  0  0  0  0  0
  184.2750  173.7320  135.6450 C   0  0  2  0  0  3  0  0  0  0  0  0
  183.1220  172.7260  135.6420 C   0  0  0  0  0  2  0  0  0  0  0  0
  181.2180  171.8090  136.9470 C   0  0  0  0  0  1  0  0  0  0  0  0
  182.0550  174.0070  137.3520 O   0  0  0  0  0  0  0  0  0  0  0  0
  183.2090  174.6720  137.6420 N   0  0  0  0  0  2  0  0  0  0  0  0
  1 30  1  6  0  0  0
  1  2  1  0  0  0  0
  1 14  1  0  0  0  0
  2  4  1  0  0  0  0
  3  4  2  0  0  0  0
  4  7  1  0  0  0  0
  6 12  1  0  0  0  0
  6  5  1  0  0  0  0
  7  9  1  0  0  0  0
  8  6  1  0  0  0  0
  9 12  1  0  0  0  0
 10  8  2  0  0  0  0
 11 10  1  0  0  0  0
 11  7  2  0  0  0  0
 12 13  2  0  0  0  0
 14 15  1  0  0  0  0
 15 16  1  0  0  0  0
 18 17  1  1  0  0  0
 18 29  1  0  0  0  0
 19 21  1  6  0  0  0
 19 20  1  0  0  0  0
 19 17  1  0  0  0  0
 19 18  1  0  0  0  0
 20 16  1  6  0  0  0
 21 20  1  0  0  0  0
 22 26  1  0  0  0  0
 22 25  1  0  0  0  0
 23 24  2  0  0  0  0
 24 25  1  0  0  0  0
 25 27  1  1  0  0  0
 28 22  2  0  0  0  0
 29 28  1  1  0  0  0
 29 23  1  0  0  0  0
 31 30  1  0  0  0  0
 32 31  1  0  0  0  0
 32 34  1  0  0  0  0
 33 35  1  0  0  0  0
 34 33  2  0  0  0  0
 35 37  2  0  0  0  0
 36 35  2  0  0  0  0
 38 44  1  0  0  0  0
 39 42  1  6  0  0  0
 39 43  1  0  0  0  0
 40 35  1  1  0  0  0
 40 38  1  0  0  0  0
 41 40  1  0  0  0  0
 41 39  1  0  0  0  0
 43 44  1  0  0  0  0
M  END
>  <MODEL>
4

>  <REMARK>
 VINA RESULT:      -8.1      3.237      6.682
  Name = 
  13 active torsions:
  status: ('A' for Active; 'I' for Inactive)
    1  A    between atoms: C_1  and  N_17
    2  A    between atoms: C_1  and  C_34
    3  A    between atoms: N_2  and  C_29
    4  A    between atoms: C_8  and  C_33
    5  A    between atoms: C_11  and  S_21
    6  A    between atoms: C_14  and  C_43
    7  A    between atoms: N_17  and  C_42
    8  A    between atoms: N_18  and  C_22
    9  A    between atoms: N_18  and  C_25
   10  A    between atoms: S_21  and  N_26
   11  A    between atoms: C_22  and  C_23
   12  A    between atoms: C_25  and  C_29
   13  A    between atoms: C_29  and  C_42
                            x       y       z     vdW  Elec       q    Type
                         _______ _______ _______ _____ _____    ______ ____

>  <TORSDO>
F 13

$$$$
=
 OpenBabel10222416123D

 44 48  0  0  1  0  0  0  0  0999 V2000
  190.3200  176.3810  137.4190 C   0  0  2  0  0  3  0  0  0  0  0  0
  189.3030  175.3670  137.1650 N   0  0  0  0  0  2  0  0  0  0  0  0
  190.3140  174.5700  135.2210 O   0  0  0  0  0  0  0  0  0  0  0  0
  189.3340  174.5190  136.0150 C   0  0  0  0  0  0  0  0  0  0  0  0
  184.1230  172.0030  136.5300 C   0  0  0  0  0  1  0  0  0  0  0  0
  185.4470  172.2860  135.9980 N   0  0  0  0  0  0  0  0  0  0  0  0
  188.2230  173.5800  135.7730 C   0  0  0  0  0  0  0  0  0  0  0  0
  186.2660  171.1530  135.7180 C   0  0  0  0  0  3  0  0  0  0  0  0
  186.9850  174.1230  135.3080 N   0  0  0  0  0  2  0  0  0  0  0  0
  187.5610  171.1810  135.6670 N   0  0  0  0  0  0  0  0  0  0  0  0
  188.4650  172.2690  135.8910 C   0  0  0  0  0  3  0  0  0  0  0  0
  185.6800  173.5550  135.3870 C   0  0  0  0  0  0  0  0  0  0  0  0
  184.7070  174.2240  134.9460 O   0  0  0  0  0  0  0  0  0  0  0  0
  190.9760  176.1490  138.7750 C   0  0  0  0  0  2  0  0  0  0  0  0
  190.1140  176.5940  139.8620 N   0  0  0  0  0  2  0  0  0  0  0  0
  190.9120  177.4800  140.6920 C   0  0  0  0  0  2  0  0  0  0  0  0
  189.5090  175.7350  143.2200 C   0  0  0  0  0  2  0  0  0  0  0  0
  188.2030  176.3960  143.4120 C   0  0  2  0  0  3  0  0  0  0  0  0
  189.0410  176.6960  142.1200 C   0  0  1  0  0  0  0  0  0  0  0  0
  190.3410  177.5140  142.0960 C   0  0  2  0  0  3  0  0  0  0  0  0
  189.0620  178.2380  142.0890 C   0  0  0  0  0  2  0  0  0  0  0  0
  186.8570  177.9380  146.5270 C   0  0  0  0  0  0  0  0  0  0  0  0
  189.2950  176.8190  145.6370 C   0  0  0  0  0  3  0  0  0  0  0  0
  189.1980  177.2000  146.9200 C   0  0  0  0  0  3  0  0  0  0  0  0
  188.1080  178.1520  147.3470 C   0  0  2  0  0  3  0  0  0  0  0  0
  185.6310  178.1280  147.0800 F   0  0  0  0  0  0  0  0  0  0  0  0
  187.8380  177.9870  148.6930 F   0  0  0  0  0  0  0  0  0  0  0  0
  186.9560  177.5460  145.2470 C   0  0  0  0  0  3  0  0  0  0  0  0
  188.3140  177.3490  144.6140 C   0  0  2  0  0  3  0  0  0  0  0  0
  189.7130  177.7760  137.3560 C   0  0  0  0  0  2  0  0  0  0  0  0
  188.6230  177.8060  136.3940 N   0  0  0  0  0  2  0  0  0  0  0  0
  187.6720  178.8030  136.8550 C   0  0  0  0  0  2  0  0  0  0  0  0
  185.7970  177.5880  137.7500 N   0  0  0  0  0  0  0  0  0  0  0  0
  186.2900  178.2500  136.7710 C   0  0  0  0  0  3  0  0  0  0  0  0
  184.2010  176.9660  137.6520 S   0  0  0  0  0  0  0  0  0  0  0  0
  183.6760  177.1480  136.2540 O   0  0  0  0  0  0  0  0  0  0  0  0
  184.2320  175.4980  137.9700 O   0  0  0  0  0  0  0  0  0  0  0  0
  183.1060  179.3060  138.5810 C   0  0  0  0  0  2  0  0  0  0  0  0
  184.7380  178.4320  140.6670 C   0  0  2  0  0  3  0  0  0  0  0  0
  183.1460  177.7970  138.8370 C   0  0  2  0  0  3  0  0  0  0  0  0
  183.5880  177.5080  140.2740 C   0  0  0  0  0  2  0  0  0  0  0  0
  185.0690  178.2330  142.1310 C   0  0  0  0  0  1  0  0  0  0  0  0
  184.3510  179.7650  140.4460 O   0  0  0  0  0  0  0  0  0  0  0  0
  184.3280  179.9280  139.0930 N   0  0  0  0  0  2  0  0  0  0  0  0
  1 30  1  1  0  0  0
  1 14  1  0  0  0  0
  2  1  1  0  0  0  0
  3  4  2  0  0  0  0
  4  2  1  0  0  0  0
  6  5  1  0  0  0  0
  7 11  2  0  0  0  0
  7  4  1  0  0  0  0
  8  6  1  0  0  0  0
  9 12  1  0  0  0  0
  9  7  1  0  0  0  0
 10  8  2  0  0  0  0
 10 11  1  0  0  0  0
 12  6  1  0  0  0  0
 13 12  2  0  0  0  0
 14 15  1  0  0  0  0
 15 16  1  0  0  0  0
 18 17  1  1  0  0  0
 18 29  1  0  0  0  0
 19 21  1  6  0  0  0
 19 17  1  0  0  0  0
 19 18  1  0  0  0  0
 20 16  1  6  0  0  0
 20 19  1  0  0  0  0
 21 20  1  0  0  0  0
 22 26  1  0  0  0  0
 22 25  1  0  0  0  0
 23 24  2  0  0  0  0
 24 25  1  0  0  0  0
 25 27  1  1  0  0  0
 28 22  2  0  0  0  0
 29 28  1  1  0  0  0
 29 23  1  0  0  0  0
 31 32  1  0  0  0  0
 31 30  1  0  0  0  0
 34 32  1  0  0  0  0
 34 33  2  0  0  0  0
 35 33  1  0  0  0  0
 35 37  2  0  0  0  0
 36 35  2  0  0  0  0
 38 40  1  0  0  0  0
 38 44  1  0  0  0  0
 39 42  1  1  0  0  0
 40 35  1  6  0  0  0
 40 41  1  0  0  0  0
 41 39  1  0  0  0  0
 43 39  1  0  0  0  0
 44 43  1  0  0  0  0
M  END
>  <MODEL>
5

>  <REMARK>
 VINA RESULT:      -8.1      2.850      4.667
  Name = 
  13 active torsions:
  status: ('A' for Active; 'I' for Inactive)
    1  A    between atoms: C_1  and  N_17
    2  A    between atoms: C_1  and  C_34
    3  A    between atoms: N_2  and  C_29
    4  A    between atoms: C_8  and  C_33
    5  A    between atoms: C_11  and  S_21
    6  A    between atoms: C_14  and  C_43
    7  A    between atoms: N_17  and  C_42
    8  A    between atoms: N_18  and  C_22
    9  A    between atoms: N_18  and  C_25
   10  A    between atoms: S_21  and  N_26
   11  A    between atoms: C_22  and  C_23
   12  A    between atoms: C_25  and  C_29
   13  A    between atoms: C_29  and  C_42
                            x       y       z     vdW  Elec       q    Type
                         _______ _______ _______ _____ _____    ______ ____

>  <TORSDO>
F 13

$$$$
=
 OpenBabel10222416123D

 44 48  0  0  1  0  0  0  0  0999 V2000
  187.3010  178.0530  137.7340 C   0  0  2  0  0  3  0  0  0  0  0  0
  186.1120  178.5710  138.3990 N   0  0  0  0  0  2  0  0  0  0  0  0
  184.7850  176.7270  137.8710 O   0  0  0  0  0  0  0  0  0  0  0  0
  184.8630  177.8740  138.3910 C   0  0  0  0  0  0  0  0  0  0  0  0
  179.9970  178.4190  141.5180 C   0  0  0  0  0  1  0  0  0  0  0  0
  181.1390  178.8090  140.7070 N   0  0  0  0  0  0  0  0  0  0  0  0
  183.6770  178.5010  139.0050 C   0  0  0  0  0  0  0  0  0  0  0  0
  180.8700  179.7040  139.6310 C   0  0  0  0  0  3  0  0  0  0  0  0
  183.6010  178.5190  140.4320 N   0  0  0  0  0  2  0  0  0  0  0  0
  181.6090  179.8210  138.5730 N   0  0  0  0  0  0  0  0  0  0  0  0
  182.8000  179.1160  138.2020 C   0  0  0  0  0  3  0  0  0  0  0  0
  182.4490  178.6650  141.2580 C   0  0  0  0  0  0  0  0  0  0  0  0
  182.5960  178.6140  142.5080 O   0  0  0  0  0  0  0  0  0  0  0  0
  188.5500  178.3800  138.5460 C   0  0  0  0  0  2  0  0  0  0  0  0
  188.7690  177.3960  139.5960 N   0  0  0  0  0  2  0  0  0  0  0  0
  189.9450  177.8260  140.3340 C   0  0  0  0  0  2  0  0  0  0  0  0
  189.5650  176.0490  143.1800 C   0  0  0  0  0  2  0  0  0  0  0  0
  188.1740  176.3370  143.5830 C   0  0  2  0  0  3  0  0  0  0  0  0
  188.6570  176.7140  142.1390 C   0  0  1  0  0  0  0  0  0  0  0  0
  189.6350  177.8550  141.8170 C   0  0  2  0  0  3  0  0  0  0  0  0
  188.2170  178.1880  142.0170 C   0  0  0  0  0  2  0  0  0  0  0  0
  186.6930  178.0620  146.5360 C   0  0  0  0  0  0  0  0  0  0  0  0
  189.2180  177.0650  145.7510 C   0  0  0  0  0  3  0  0  0  0  0  0
  189.0840  177.5620  146.9910 C   0  0  0  0  0  3  0  0  0  0  0  0
  187.9180  178.4580  147.3270 C   0  0  2  0  0  3  0  0  0  0  0  0
  185.4530  178.2040  147.0730 F   0  0  0  0  0  0  0  0  0  0  0  0
  187.6580  178.4050  148.6840 F   0  0  0  0  0  0  0  0  0  0  0  0
  186.8300  177.5560  145.3010 C   0  0  0  0  0  3  0  0  0  0  0  0
  188.2010  177.4090  144.6850 C   0  0  2  0  0  3  0  0  0  0  0  0
  187.4200  178.6240  136.3270 C   0  0  0  0  0  2  0  0  0  0  0  0
  187.1660  177.5850  135.3410 N   0  0  0  0  0  2  0  0  0  0  0  0
  187.4950  176.3140  135.9640 C   0  0  0  0  0  2  0  0  0  0  0  0
  189.7490  175.6590  136.4930 N   0  0  0  0  0  0  0  0  0  0  0  0
  188.8820  175.9200  135.5880 C   0  0  0  0  0  3  0  0  0  0  0  0
  191.3400  175.1910  136.0540 S   0  0  0  0  0  0  0  0  0  0  0  0
  191.2970  173.8600  135.3550 O   0  0  0  0  0  0  0  0  0  0  0  0
  191.9030  176.2150  135.1090 O   0  0  0  0  0  0  0  0  0  0  0  0
  193.1620  176.4100  137.7060 C   0  0  0  0  0  2  0  0  0  0  0  0
  194.5590  174.2610  136.6050 C   0  0  2  0  0  3  0  0  0  0  0  0
  192.3790  175.1090  137.5100 C   0  0  2  0  0  3  0  0  0  0  0  0
  193.3330  173.9130  137.4460 C   0  0  0  0  0  2  0  0  0  0  0  0
  195.5540  173.1220  136.6680 C   0  0  0  0  0  1  0  0  0  0  0  0
  195.1460  175.4320  137.1130 O   0  0  0  0  0  0  0  0  0  0  0  0
  194.2990  176.4480  136.7830 N   0  0  0  0  0  2  0  0  0  0  0  0
  1 30  1  6  0  0  0
  1  2  1  0  0  0  0
  1 14  1  0  0  0  0
  3  4  2  0  0  0  0
  4  2  1  0  0  0  0
  4  7  1  0  0  0  0
  6 12  1  0  0  0  0
  6  5  1  0  0  0  0
  7  9  1  0  0  0  0
  8  6  1  0  0  0  0
  9 12  1  0  0  0  0
 10  8  2  0  0  0  0
 11 10  1  0  0  0  0
 11  7  2  0  0  0  0
 12 13  2  0  0  0  0
 14 15  1  0  0  0  0
 15 16  1  0  0  0  0
 18 17  1  1  0  0  0
 18 29  1  0  0  0  0
 19 21  1  6  0  0  0
 19 17  1  0  0  0  0
 19 18  1  0  0  0  0
 20 16  1  6  0  0  0
 20 21  1  0  0  0  0
 20 19  1  0  0  0  0
 22 26  1  0  0  0  0
 22 25  1  0  0  0  0
 23 24  2  0  0  0  0
 24 25  1  0  0  0  0
 25 27  1  1  0  0  0
 28 22  2  0  0  0  0
 29 28  1  1  0  0  0
 29 23  1  0  0  0  0
 31 32  1  0  0  0  0
 31 30  1  0  0  0  0
 34 32  1  0  0  0  0
 34 33  2  0  0  0  0
 35 33  1  0  0  0  0
 36 35  2  0  0  0  0
 37 35  2  0  0  0  0
 39 42  1  1  0  0  0
 39 43  1  0  0  0  0
 39 41  1  0  0  0  0
 40 35  1  6  0  0  0
 40 38  1  0  0  0  0
 41 40  1  0  0  0  0
 44 43  1  0  0  0  0
 44 38  1  0  0  0  0
M  END
>  <MODEL>
6

>  <REMARK>
 VINA RESULT:      -8.0      2.148      8.872
  Name = 
  13 active torsions:
  status: ('A' for Active; 'I' for Inactive)
    1  A    between atoms: C_1  and  N_17
    2  A    between atoms: C_1  and  C_34
    3  A    between atoms: N_2  and  C_29
    4  A    between atoms: C_8  and  C_33
    5  A    between atoms: C_11  and  S_21
    6  A    between atoms: C_14  and  C_43
    7  A    between atoms: N_17  and  C_42
    8  A    between atoms: N_18  and  C_22
    9  A    between atoms: N_18  and  C_25
   10  A    between atoms: S_21  and  N_26
   11  A    between atoms: C_22  and  C_23
   12  A    between atoms: C_25  and  C_29
   13  A    between atoms: C_29  and  C_42
                            x       y       z     vdW  Elec       q    Type
                         _______ _______ _______ _____ _____    ______ ____

>  <TORSDO>
F 13

$$$$
=
 OpenBabel10222416123D

 44 48  0  0  1  0  0  0  0  0999 V2000
  188.3100  178.0720  138.6930 C   0  0  2  0  0  3  0  0  0  0  0  0
  186.8940  178.4040  138.8020 N   0  0  0  0  0  2  0  0  0  0  0  0
  186.2120  176.8390  137.2130 O   0  0  0  0  0  0  0  0  0  0  0  0
  185.8940  177.7780  137.9940 C   0  0  0  0  0  0  0  0  0  0  0  0
  180.6920  179.7790  136.3550 C   0  0  0  0  0  1  0  0  0  0  0  0
  181.7220  179.2280  137.2210 N   0  0  0  0  0  0  0  0  0  0  0  0
  184.4930  178.2300  138.0920 C   0  0  0  0  0  0  0  0  0  0  0  0
  181.8480  179.8270  138.5080 C   0  0  0  0  0  3  0  0  0  0  0  0
  183.5060  177.4920  137.3670 N   0  0  0  0  0  2  0  0  0  0  0  0
  182.9260  179.7990  139.2270 N   0  0  0  0  0  0  0  0  0  0  0  0
  184.2080  179.2270  138.9380 C   0  0  0  0  0  3  0  0  0  0  0  0
  182.2110  177.9140  136.9490 C   0  0  0  0  0  0  0  0  0  0  0  0
  181.5060  177.1130  136.2790 O   0  0  0  0  0  0  0  0  0  0  0  0
  189.0080  178.2720  140.0330 C   0  0  0  0  0  2  0  0  0  0  0  0
  190.4090  177.8800  139.9630 N   0  0  0  0  0  2  0  0  0  0  0  0
  190.5600  176.7140  140.8180 C   0  0  0  0  0  2  0  0  0  0  0  0
  190.2330  178.5980  143.6020 C   0  0  0  0  0  2  0  0  0  0  0  0
  190.4680  177.6370  144.6980 C   0  0  2  0  0  3  0  0  0  0  0  0
  190.8400  177.2410  143.2270 C   0  0  1  0  0  0  0  0  0  0  0  0
  189.8180  176.9380  142.1200 C   0  0  2  0  0  3  0  0  0  0  0  0
  190.1550  175.8670  143.0690 C   0  0  0  0  0  2  0  0  0  0  0  0
  187.9260  177.5180  147.4210 C   0  0  0  0  0  0  0  0  0  0  0  0
  187.9810  178.0020  144.6370 C   0  0  0  0  0  3  0  0  0  0  0  0
  186.8160  178.1470  145.2880 C   0  0  0  0  0  3  0  0  0  0  0  0
  186.6260  177.5260  146.6500 C   0  0  2  0  0  3  0  0  0  0  0  0
  187.9240  177.6580  148.7720 F   0  0  0  0  0  0  0  0  0  0  0  0
  185.6520  178.2140  147.3500 F   0  0  0  0  0  0  0  0  0  0  0  0
  189.0900  177.3830  146.7670 C   0  0  0  0  0  3  0  0  0  0  0  0
  189.1050  177.2080  145.2670 C   0  0  2  0  0  3  0  0  0  0  0  0
  188.9770  178.9170  137.6160 C   0  0  0  0  0  2  0  0  0  0  0  0
  189.3500  178.0830  136.4840 N   0  0  0  0  0  2  0  0  0  0  0  0
  189.5680  176.7400  136.9940 C   0  0  0  0  0  2  0  0  0  0  0  0
  191.9160  176.2360  137.1540 N   0  0  0  0  0  0  0  0  0  0  0  0
  190.8460  176.2020  136.4500 C   0  0  0  0  0  3  0  0  0  0  0  0
  193.3810  175.6020  136.5280 S   0  0  0  0  0  0  0  0  0  0  0  0
  193.1600  175.1260  135.1180 O   0  0  0  0  0  0  0  0  0  0  0  0
  194.4150  176.6930  136.5130 O   0  0  0  0  0  0  0  0  0  0  0  0
  195.0440  174.7440  138.5360 C   0  0  0  0  0  2  0  0  0  0  0  0
  195.9140  173.3550  136.2790 C   0  0  2  0  0  3  0  0  0  0  0  0
  193.9620  174.2630  137.5650 C   0  0  2  0  0  3  0  0  0  0  0  0
  194.4780  173.0920  136.7250 C   0  0  0  0  0  2  0  0  0  0  0  0
  196.4560  172.1310  135.5710 C   0  0  0  0  0  1  0  0  0  0  0  0
  196.7010  173.6360  137.4090 O   0  0  0  0  0  0  0  0  0  0  0  0
  196.3200  174.8750  137.8300 N   0  0  0  0  0  2  0  0  0  0  0  0
  1 30  1  6  0  0  0
  1  2  1  0  0  0  0
  1 14  1  0  0  0  0
  3  4  2  0  0  0  0
  4  7  1  0  0  0  0
  4  2  1  0  0  0  0
  5  6  1  0  0  0  0
  6  8  1  0  0  0  0
  7 11  2  0  0  0  0
  8 10  2  0  0  0  0
  9  7  1  0  0  0  0
 11 10  1  0  0  0  0
 12  6  1  0  0  0  0
 12  9  1  0  0  0  0
 13 12  2  0  0  0  0
 15 14  1  0  0  0  0
 15 16  1  0  0  0  0
 18 17  1  6  0  0  0
 18 29  1  0  0  0  0
 19 21  1  6  0  0  0
 19 17  1  0  0  0  0
 19 18  1  0  0  0  0
 20 16  1  6  0  0  0
 20 21  1  0  0  0  0
 20 19  1  0  0  0  0
 22 26  1  0  0  0  0
 23 24  2  0  0  0  0
 24 25  1  0  0  0  0
 25 27  1  1  0  0  0
 25 22  1  0  0  0  0
 28 22  2  0  0  0  0
 29 23  1  6  0  0  0
 29 28  1  0  0  0  0
 31 32  1  0  0  0  0
 31 30  1  0  0  0  0
 34 32  1  0  0  0  0
 34 33  2  0  0  0  0
 35 33  1  0  0  0  0
 36 35  2  0  0  0  0
 37 35  2  0  0  0  0
 39 42  1  1  0  0  0
 39 41  1  0  0  0  0
 39 43  1  0  0  0  0
 40 35  1  6  0  0  0
 40 38  1  0  0  0  0
 41 40  1  0  0  0  0
 43 44  1  0  0  0  0
 44 38  1  0  0  0  0
M  END
>  <MODEL>
7

>  <REMARK>
 VINA RESULT:      -7.8      2.684      9.237
  Name = 
  13 active torsions:
  status: ('A' for Active; 'I' for Inactive)
    1  A    between atoms: C_1  and  N_17
    2  A    between atoms: C_1  and  C_34
    3  A    between atoms: N_2  and  C_29
    4  A    between atoms: C_8  and  C_33
    5  A    between atoms: C_11  and  S_21
    6  A    between atoms: C_14  and  C_43
    7  A    between atoms: N_17  and  C_42
    8  A    between atoms: N_18  and  C_22
    9  A    between atoms: N_18  and  C_25
   10  A    between atoms: S_21  and  N_26
   11  A    between atoms: C_22  and  C_23
   12  A    between atoms: C_25  and  C_29
   13  A    between atoms: C_29  and  C_42
                            x       y       z     vdW  Elec       q    Type
                         _______ _______ _______ _____ _____    ______ ____

>  <TORSDO>
F 13

$$$$
=
 OpenBabel10222416123D

 44 48  0  0  1  0  0  0  0  0999 V2000
  183.4100  178.4200  139.6370 C   0  0  2  0  0  3  0  0  0  0  0  0
  182.7330  179.5320  138.9820 N   0  0  0  0  0  2  0  0  0  0  0  0
  180.7650  179.3050  140.2130 O   0  0  0  0  0  0  0  0  0  0  0  0
  181.3840  179.8970  139.2850 C   0  0  0  0  0  0  0  0  0  0  0  0
  180.7740  184.4260  135.6990 C   0  0  0  0  0  1  0  0  0  0  0  0
  180.3960  183.3280  136.5730 N   0  0  0  0  0  0  0  0  0  0  0  0
  180.7310  180.9730  138.5170 C   0  0  0  0  0  0  0  0  0  0  0  0
  179.3890  183.6130  137.5410 C   0  0  0  0  0  3  0  0  0  0  0  0
  180.8380  180.9290  137.0920 N   0  0  0  0  0  2  0  0  0  0  0  0
  179.2290  182.9570  138.6470 N   0  0  0  0  0  0  0  0  0  0  0  0
  179.9830  181.8620  139.1820 C   0  0  0  0  0  3  0  0  0  0  0  0
  180.6850  181.9930  136.1560 C   0  0  0  0  0  0  0  0  0  0  0  0
  180.8600  181.7460  134.9330 O   0  0  0  0  0  0  0  0  0  0  0  0
  184.9210  178.6150  139.5900 C   0  0  0  0  0  2  0  0  0  0  0  0
  185.3570  179.5980  140.5730 N   0  0  0  0  0  2  0  0  0  0  0  0
  184.7350  179.2330  141.8340 C   0  0  0  0  0  2  0  0  0  0  0  0
  187.2940  177.2920  142.8790 C   0  0  0  0  0  2  0  0  0  0  0  0
  186.8580  176.8360  144.2140 C   0  0  2  0  0  3  0  0  0  0  0  0
  185.8200  177.5050  143.2460 C   0  0  1  0  0  0  0  0  0  0  0  0
  185.8060  178.9970  142.8810 C   0  0  2  0  0  3  0  0  0  0  0  0
  185.1770  178.5830  144.1430 C   0  0  0  0  0  2  0  0  0  0  0  0
  187.9550  177.5130  147.7100 C   0  0  0  0  0  0  0  0  0  0  0  0
  189.0620  177.6430  145.1130 C   0  0  0  0  0  3  0  0  0  0  0  0
  189.8590  177.9030  146.1620 C   0  0  0  0  0  3  0  0  0  0  0  0
  189.2600  178.2470  147.5030 C   0  0  2  0  0  3  0  0  0  0  0  0
  187.5820  177.1120  148.9540 F   0  0  0  0  0  0  0  0  0  0  0  0
  190.1540  177.9390  148.5120 F   0  0  0  0  0  0  0  0  0  0  0  0
  187.1650  177.2450  146.6590 C   0  0  0  0  0  3  0  0  0  0  0  0
  187.5590  177.7010  145.2740 C   0  0  2  0  0  3  0  0  0  0  0  0
  183.0260  177.0990  138.9840 C   0  0  0  0  0  2  0  0  0  0  0  0
  183.0870  177.2190  137.5360 N   0  0  0  0  0  2  0  0  0  0  0  0
  183.2000  175.8740  136.9990 C   0  0  0  0  0  2  0  0  0  0  0  0
  185.4430  176.3530  136.2710 N   0  0  0  0  0  0  0  0  0  0  0  0
  184.6380  175.5250  136.8260 C   0  0  0  0  0  3  0  0  0  0  0  0
  187.1010  175.9510  136.0890 S   0  0  0  0  0  0  0  0  0  0  0  0
  187.5110  175.0040  137.1830 O   0  0  0  0  0  0  0  0  0  0  0  0
  187.2920  175.2690  134.7630 O   0  0  0  0  0  0  0  0  0  0  0  0
  189.5750  177.1200  135.8680 C   0  0  0  0  0  2  0  0  0  0  0  0
  188.8380  177.5600  138.5220 C   0  0  2  0  0  3  0  0  0  0  0  0
  188.1000  177.4370  136.1290 C   0  0  2  0  0  3  0  0  0  0  0  0
  187.9380  178.1800  137.4560 C   0  0  0  0  0  2  0  0  0  0  0  0
  188.7730  178.3910  139.7850 C   0  0  0  0  0  1  0  0  0  0  0  0
  190.1590  177.5280  138.0430 O   0  0  0  0  0  0  0  0  0  0  0  0
  190.1840  176.5650  137.0790 N   0  0  0  0  0  2  0  0  0  0  0  0
  1 30  1  6  0  0  0
  2  4  1  0  0  0  0
  2  1  1  0  0  0  0
  4  3  2  0  0  0  0
  5  6  1  0  0  0  0
  6  8  1  0  0  0  0
  7 11  2  0  0  0  0
  7  4  1  0  0  0  0
  8 10  2  0  0  0  0
  9  7  1  0  0  0  0
 10 11  1  0  0  0  0
 12  6  1  0  0  0  0
 12  9  1  0  0  0  0
 13 12  2  0  0  0  0
 14  1  1  0  0  0  0
 14 15  1  0  0  0  0
 15 16  1  0  0  0  0
 18 17  1  6  0  0  0
 18 29  1  0  0  0  0
 19 17  1  6  0  0  0
 19 21  1  0  0  0  0
 19 18  1  0  0  0  0
 20 16  1  6  0  0  0
 20 19  1  0  0  0  0
 20 21  1  0  0  0  0
 22 26  1  0  0  0  0
 23 24  2  0  0  0  0
 24 25  1  0  0  0  0
 25 22  1  0  0  0  0
 25 27  1  1  0  0  0
 28 22  2  0  0  0  0
 29 23  1  1  0  0  0
 29 28  1  0  0  0  0
 31 30  1  0  0  0  0
 32 31  1  0  0  0  0
 33 34  2  0  0  0  0
 34 32  1  0  0  0  0
 35 33  1  0  0  0  0
 35 36  2  0  0  0  0
 37 35  2  0  0  0  0
 38 40  1  0  0  0  0
 38 44  1  0  0  0  0
 39 42  1  1  0  0  0
 40 35  1  1  0  0  0
 40 41  1  0  0  0  0
 41 39  1  0  0  0  0
 43 39  1  0  0  0  0
 44 43  1  0  0  0  0
M  END
>  <MODEL>
8

>  <REMARK>
 VINA RESULT:      -7.7      3.473      9.337
  Name = 
  13 active torsions:
  status: ('A' for Active; 'I' for Inactive)
    1  A    between atoms: C_1  and  N_17
    2  A    between atoms: C_1  and  C_34
    3  A    between atoms: N_2  and  C_29
    4  A    between atoms: C_8  and  C_33
    5  A    between atoms: C_11  and  S_21
    6  A    between atoms: C_14  and  C_43
    7  A    between atoms: N_17  and  C_42
    8  A    between atoms: N_18  and  C_22
    9  A    between atoms: N_18  and  C_25
   10  A    between atoms: S_21  and  N_26
   11  A    between atoms: C_22  and  C_23
   12  A    between atoms: C_25  and  C_29
   13  A    between atoms: C_29  and  C_42
                            x       y       z     vdW  Elec       q    Type
                         _______ _______ _______ _____ _____    ______ ____

>  <TORSDO>
F 13

$$$$
=
 OpenBabel10222416123D

 44 48  0  0  1  0  0  0  0  0999 V2000
  189.6860  176.6230  137.1090 C   0  0  2  0  0  3  0  0  0  0  0  0
  191.0940  176.3110  136.8970 N   0  0  0  0  0  2  0  0  0  0  0  0
  190.9710  174.2040  137.8890 O   0  0  0  0  0  0  0  0  0  0  0  0
  191.6890  175.0950  137.3570 C   0  0  0  0  0  0  0  0  0  0  0  0
  197.2890  174.4350  138.7560 C   0  0  0  0  0  1  0  0  0  0  0  0
  196.0930  174.4760  137.9300 N   0  0  0  0  0  0  0  0  0  0  0  0
  193.1400  174.8870  137.1910 C   0  0  0  0  0  0  0  0  0  0  0  0
  196.2040  175.1790  136.6960 C   0  0  0  0  0  3  0  0  0  0  0  0
  193.7170  173.7280  137.7970 N   0  0  0  0  0  2  0  0  0  0  0  0
  195.2040  175.6950  136.0530 N   0  0  0  0  0  0  0  0  0  0  0  0
  193.8120  175.7250  136.3930 C   0  0  0  0  0  3  0  0  0  0  0  0
  195.0780  173.4950  138.1510 C   0  0  0  0  0  0  0  0  0  0  0  0
  195.3730  172.4090  138.7170 O   0  0  0  0  0  0  0  0  0  0  0  0
  188.8590  176.1880  135.9040 C   0  0  0  0  0  2  0  0  0  0  0  0
  187.9050  175.1480  136.2650 N   0  0  0  0  0  2  0  0  0  0  0  0
  186.6440  175.4990  135.6340 C   0  0  0  0  0  2  0  0  0  0  0  0
  183.4740  175.7560  136.7690 C   0  0  0  0  0  2  0  0  0  0  0  0
  183.1910  177.2020  136.6750 C   0  0  2  0  0  3  0  0  0  0  0  0
  184.4480  176.6100  135.9480 C   0  0  1  0  0  0  0  0  0  0  0  0
  185.7090  176.1000  136.6640 C   0  0  2  0  0  3  0  0  0  0  0  0
  185.5780  177.5450  136.4260 C   0  0  0  0  0  2  0  0  0  0  0  0
  182.0850  179.4530  139.4320 C   0  0  0  0  0  0  0  0  0  0  0  0
  183.0430  176.8090  139.1540 C   0  0  0  0  0  3  0  0  0  0  0  0
  182.6590  177.2250  140.3720 C   0  0  0  0  0  3  0  0  0  0  0  0
  182.5330  178.6990  140.6630 C   0  0  2  0  0  3  0  0  0  0  0  0
  181.2930  180.5510  139.5490 F   0  0  0  0  0  0  0  0  0  0  0  0
  181.6440  178.8990  141.7040 F   0  0  0  0  0  0  0  0  0  0  0  0
  182.4610  179.0290  138.2160 C   0  0  0  0  0  3  0  0  0  0  0  0
  183.3560  177.8210  138.0740 C   0  0  2  0  0  3  0  0  0  0  0  0
  189.4990  178.1110  137.3700 C   0  0  0  0  0  2  0  0  0  0  0  0
  189.6680  178.3960  138.7860 N   0  0  0  0  0  2  0  0  0  0  0  0
  188.3520  178.3220  139.3980 C   0  0  0  0  0  2  0  0  0  0  0  0
  189.2090  176.8820  141.1260 N   0  0  0  0  0  0  0  0  0  0  0  0
  188.4870  177.8950  140.8200 C   0  0  0  0  0  3  0  0  0  0  0  0
  189.3720  176.4040  142.7660 S   0  0  0  0  0  0  0  0  0  0  0  0
  188.0530  175.8890  143.2710 O   0  0  0  0  0  0  0  0  0  0  0  0
  190.3880  175.3000  142.8510 O   0  0  0  0  0  0  0  0  0  0  0  0
  191.4210  177.6640  144.0890 C   0  0  0  0  0  2  0  0  0  0  0  0
  189.6230  176.9690  146.1040 C   0  0  2  0  0  3  0  0  0  0  0  0
  189.9320  177.7880  143.7550 C   0  0  2  0  0  3  0  0  0  0  0  0
  189.1050  177.9280  145.0340 C   0  0  0  0  0  2  0  0  0  0  0  0
  188.8890  177.2180  147.4040 C   0  0  0  0  0  1  0  0  0  0  0  0
  190.9990  177.1870  146.2880 O   0  0  0  0  0  0  0  0  0  0  0  0
  191.6070  176.6950  145.1710 N   0  0  0  0  0  2  0  0  0  0  0  0
  1 14  1  6  0  0  0
  1 30  1  0  0  0  0
  2  1  1  0  0  0  0
  2  4  1  0  0  0  0
  4  3  2  0  0  0  0
  6 12  1  0  0  0  0
  6  5  1  0  0  0  0
  7  4  1  0  0  0  0
  7  9  1  0  0  0  0
  8  6  1  0  0  0  0
  9 12  1  0  0  0  0
 10 11  1  0  0  0  0
 10  8  2  0  0  0  0
 11  7  2  0  0  0  0
 12 13  2  0  0  0  0
 14 15  1  0  0  0  0
 16 15  1  0  0  0  0
 18 17  1  1  0  0  0
 18 29  1  0  0  0  0
 19 21  1  6  0  0  0
 19 20  1  0  0  0  0
 19 18  1  0  0  0  0
 19 17  1  0  0  0  0
 20 16  1  6  0  0  0
 21 20  1  0  0  0  0
 22 26  1  0  0  0  0
 22 25  1  0  0  0  0
 23 24  2  0  0  0  0
 24 25  1  0  0  0  0
 25 27  1  1  0  0  0
 28 22  2  0  0  0  0
 29 28  1  6  0  0  0
 29 23  1  0  0  0  0
 30 31  1  0  0  0  0
 31 32  1  0  0  0  0
 32 34  1  0  0  0  0
 33 35  1  0  0  0  0
 34 33  2  0  0  0  0
 35 37  2  0  0  0  0
 35 36  2  0  0  0  0
 38 44  1  0  0  0  0
 39 43  1  0  0  0  0
 39 42  1  1  0  0  0
 40 35  1  1  0  0  0
 40 38  1  0  0  0  0
 40 41  1  0  0  0  0
 41 39  1  0  0  0  0
 44 43  1  0  0  0  0
M  END
>  <MODEL>
9

>  <REMARK>
 VINA RESULT:      -7.7      3.196      6.177
  Name = 
  13 active torsions:
  status: ('A' for Active; 'I' for Inactive)
    1  A    between atoms: C_1  and  N_17
    2  A    between atoms: C_1  and  C_34
    3  A    between atoms: N_2  and  C_29
    4  A    between atoms: C_8  and  C_33
    5  A    between atoms: C_11  and  S_21
    6  A    between atoms: C_14  and  C_43
    7  A    between atoms: N_17  and  C_42
    8  A    between atoms: N_18  and  C_22
    9  A    between atoms: N_18  and  C_25
   10  A    between atoms: S_21  and  N_26
   11  A    between atoms: C_22  and  C_23
   12  A    between atoms: C_25  and  C_29
   13  A    between atoms: C_29  and  C_42
                            x       y       z     vdW  Elec       q    Type
                         _______ _______ _______ _____ _____    ______ ____

>  <TORSDO>
F 13

$$$$
