=
 OpenBabel10222420593D

 51 57  0  0  1  0  0  0  0  0999 V2000
  191.8210  176.3910  137.5520 C   0  0  2  0  0  3  0  0  0  0  0  0
  189.2950  176.5770  137.2060 N   0  0  0  0  0  0  0  0  0  0  0  0
  186.8510  176.7810  136.6310 C   0  0  1  0  0  0  0  0  0  0  0  0
  187.5220  175.8010  135.6900 C   0  0  0  0  0  2  0  0  0  0  0  0
  187.9910  175.8990  137.1400 C   0  0  1  0  0  3  0  0  0  0  0  0
  188.2810  178.8030  137.0910 C   0  0  0  0  0  2  0  0  0  0  0  0
  190.2650  174.6810  138.1710 O   0  0  0  0  0  0  0  0  0  0  0  0
  187.0870  178.2640  136.3300 C   0  0  0  0  0  2  0  0  0  0  0  0
  190.4310  175.8260  137.6650 C   0  0  0  0  0  0  0  0  0  0  0  0
  189.4920  177.9580  136.7530 C   0  0  0  0  0  2  0  0  0  0  0  0
  185.5300  176.3570  137.0850 N   0  0  0  0  0  2  0  0  0  0  0  0
  184.7540  177.5330  137.4580 C   0  0  0  0  0  2  0  0  0  0  0  0
  182.9460  176.2840  138.6780 C   0  0  0  0  0  2  0  0  0  0  0  0
  181.7260  176.9170  138.0210 C   0  0  0  0  0  2  0  0  0  0  0  0
  184.0760  177.3150  138.8060 C   0  0  2  0  0  3  0  0  0  0  0  0
  183.5980  178.6420  139.3480 C   0  0  0  0  0  0  0  0  0  0  0  0
  181.2030  178.0300  138.9200 C   0  0  0  0  0  2  0  0  0  0  0  0
  182.2970  178.9780  139.3330 C   0  0  0  0  0  3  0  0  0  0  0  0
  184.5820  179.5790  139.8030 N   0  0  0  0  0  2  0  0  0  0  0  0
  185.5920  179.2750  140.8100 C   0  0  2  0  0  3  0  0  0  0  0  0
  186.6280  178.5310  140.2430 O   0  0  0  0  0  1  0  0  0  0  0  0
  184.9690  178.5240  141.9810 C   0  0  0  0  0  2  0  0  0  0  0  0
  184.8220  179.3900  143.2310 C   0  0  0  0  0  2  0  0  0  0  0  0
  184.3020  178.5870  144.4140 C   0  0  0  0  0  2  0  0  0  0  0  0
  184.5960  178.7530  146.7840 O   0  0  0  0  0  1  0  0  0  0  0  0
  185.2840  178.6240  145.5760 C   0  0  0  0  0  2  0  0  0  0  0  0
  192.7170  174.8890  135.7250 C   0  0  0  0  0  3  0  0  0  0  0  0
  193.6490  173.9570  135.2660 C   0  0  0  0  0  3  0  0  0  0  0  0
  194.7570  173.9970  137.4240 C   0  0  0  0  0  0  0  0  0  0  0  0
  194.6730  173.5040  136.1080 C   0  0  0  0  0  0  0  0  0  0  0  0
  192.8030  175.3850  137.0330 C   0  0  0  0  0  0  0  0  0  0  0  0
  196.0190  173.4700  138.5260 Cl  0  0  0  0  0  0  0  0  0  0  0  0
  193.8220  174.9330  137.8760 C   0  0  0  0  0  3  0  0  0  0  0  0
  196.6260  173.1580  134.7230 N   0  0  0  0  0  1  0  0  0  0  0  0
  195.6700  172.5080  135.6010 C   0  0  2  0  0  3  0  0  0  0  0  0
  194.7430  170.5860  135.8400 O   0  0  0  0  0  1  0  0  0  0  0  0
  195.0220  171.4790  134.9130 O   0  0  0  0  0  0  0  0  0  0  0  0
  192.2910  177.0090  138.8600 C   0  0  0  0  0  2  0  0  0  0  0  0
  191.0960  177.3930  139.7170 C   0  0  0  0  0  2  0  0  0  0  0  0
  191.4470  177.2930  141.1910 C   0  0  0  0  0  2  0  0  0  0  0  0
  189.3580  177.8150  142.3770 N   0  0  0  0  0  2  0  0  0  0  0  0
  191.4150  177.1910  145.5920 C   0  0  2  0  0  3  0  0  0  0  0  0
  189.0300  176.8650  146.0420 O   0  0  0  0  0  0  0  0  0  0  0  0
  187.5800  176.5350  144.2830 O   0  0  0  0  0  0  0  0  0  0  0  0
  190.2290  177.4710  146.5270 C   0  0  0  0  0  2  0  0  0  0  0  0
  188.6990  176.9490  144.6910 C   0  0  0  0  0  0  0  0  0  0  0  0
  190.6490  176.3790  143.3690 N   0  0  1  0  0  0  0  0  0  0  0  0
  190.2700  176.7460  142.0050 C   0  0  2  0  0  3  0  0  0  0  0  0
  191.1460  177.5590  144.1120 C   0  0  1  0  0  3  0  0  0  0  0  0
  189.7290  177.4690  143.7400 C   0  0  1  0  0  0  0  0  0  0  0  0
  191.8310  175.8640  145.7230 O   0  0  0  0  0  1  0  0  0  0  0  0
  1  9  1  0  0  0  0
  1 38  1  1  0  0  0
  2  9  1  0  0  0  0
  3 11  1  1  0  0  0
  3  5  1  0  0  0  0
  4  3  1  0  0  0  0
  5  4  1  6  0  0  0
  5  2  1  0  0  0  0
  8  3  1  0  0  0  0
  8  6  1  0  0  0  0
  9  7  2  0  0  0  0
 10  6  1  0  0  0  0
 10  2  1  0  0  0  0
 11 12  1  0  0  0  0
 13 15  1  0  0  0  0
 14 13  1  0  0  0  0
 14 17  1  0  0  0  0
 15 12  1  6  0  0  0
 15 16  1  0  0  0  0
 16 19  1  0  0  0  0
 17 18  1  0  0  0  0
 18 16  2  0  0  0  0
 19 20  1  0  0  0  0
 20 21  1  6  0  0  0
 20 22  1  0  0  0  0
 22 23  1  0  0  0  0
 23 24  1  0  0  0  0
 24 26  1  0  0  0  0
 26 25  1  0  0  0  0
 27 31  1  0  0  0  0
 28 27  2  0  0  0  0
 28 30  1  0  0  0  0
 29 33  1  0  0  0  0
 29 32  1  0  0  0  0
 30 29  2  0  0  0  0
 31  1  1  0  0  0  0
 31 33  2  0  0  0  0
 35 34  1  6  0  0  0
 35 30  1  0  0  0  0
 37 35  1  0  0  0  0
 37 36  1  0  0  0  0
 38 39  1  0  0  0  0
 39 40  1  0  0  0  0
 40 48  1  0  0  0  0
 41 50  1  0  0  0  0
 42 51  1  6  0  0  0
 42 45  1  0  0  0  0
 43 45  1  0  0  0  0
 44 46  2  0  0  0  0
 46 43  1  0  0  0  0
 47 50  1  0  0  0  0
 47 49  1  0  0  0  0
 48 41  1  0  0  0  0
 48 47  1  0  0  0  0
 49 42  1  0  0  0  0
 50 49  1  0  0  0  0
 50 46  1  0  0  0  0
M  END
>  <MODEL>
1

>  <REMARK>
 VINA RESULT:      -7.7      0.000      0.000
  Name = 
  17 active torsions:
  status: ('A' for Active; 'I' for Inactive)
    1  A    between atoms: C_4  and  C_25
    2  A    between atoms: C_4  and  N_33
    3  A    between atoms: C_6  and  C_11
    4  A    between atoms: C_7  and  C_27
    5  A    between atoms: C_7  and  O_45
    6  A    between atoms: C_8  and  C_41
    7  A    between atoms: C_8  and  C_42
    8  A    between atoms: C_10  and  C_12
    9  A    between atoms: C_10  and  C_30
   10  A    between atoms: C_11  and  C_30
   11  A    between atoms: C_12  and  N_37
   12  A    between atoms: C_17  and  C_38
   13  A    between atoms: C_17  and  C_41
   14  A    between atoms: C_22  and  N_33
   15  A    between atoms: C_32  and  C_42
   16  A    between atoms: C_36  and  N_37
   17  A    between atoms: C_42  and  C_44
                            x       y       z     vdW  Elec       q    Type
                         _______ _______ _______ _____ _____    ______ ____

>  <TORSDO>
F 17

$$$$
=
 OpenBabel10222420593D

 51 57  0  0  1  0  0  0  0  0999 V2000
  191.5660  175.9460  137.2990 C   0  0  2  0  0  3  0  0  0  0  0  0
  190.6140  176.8940  139.4740 N   0  0  0  0  0  0  0  0  0  0  0  0
  189.5680  177.6180  141.6470 C   0  0  1  0  0  0  0  0  0  0  0  0
  190.1770  176.2390  141.8020 C   0  0  0  0  0  2  0  0  0  0  0  0
  190.8400  177.2600  140.8800 C   0  0  1  0  0  3  0  0  0  0  0  0
  188.3830  177.9020  139.4430 C   0  0  0  0  0  2  0  0  0  0  0  0
  192.9180  176.7110  139.1190 O   0  0  0  0  0  0  0  0  0  0  0  0
  188.2150  177.6740  140.9310 C   0  0  0  0  0  2  0  0  0  0  0  0
  191.7510  176.5330  138.6720 C   0  0  0  0  0  0  0  0  0  0  0  0
  189.2740  176.8120  138.8830 C   0  0  0  0  0  2  0  0  0  0  0  0
  189.7970  178.4980  142.7890 N   0  0  0  0  0  2  0  0  0  0  0  0
  189.2100  177.8970  143.9800 C   0  0  0  0  0  2  0  0  0  0  0  0
  191.4360  177.9710  145.1440 C   0  0  0  0  0  2  0  0  0  0  0  0
  191.6100  176.4850  145.4330 C   0  0  0  0  0  2  0  0  0  0  0  0
  189.9530  178.3580  145.2280 C   0  0  2  0  0  3  0  0  0  0  0  0
  189.2710  177.7990  146.4550 C   0  0  0  0  0  0  0  0  0  0  0  0
  191.1650  176.2040  146.8620 C   0  0  0  0  0  2  0  0  0  0  0  0
  189.8030  176.7770  147.1480 C   0  0  0  0  0  3  0  0  0  0  0  0
  187.9890  178.3290  146.8150 N   0  0  0  0  0  2  0  0  0  0  0  0
  186.7410  177.5810  146.7150 C   0  0  2  0  0  3  0  0  0  0  0  0
  186.6760  176.9180  145.4880 O   0  0  0  0  0  1  0  0  0  0  0  0
  185.5460  178.5130  146.8860 C   0  0  0  0  0  2  0  0  0  0  0  0
  185.2250  179.3040  145.6200 C   0  0  0  0  0  2  0  0  0  0  0  0
  183.8880  178.8900  145.0220 C   0  0  0  0  0  2  0  0  0  0  0  0
  184.6690  178.0400  142.9250 O   0  0  0  0  0  1  0  0  0  0  0  0
  183.8930  179.0440  143.5090 C   0  0  0  0  0  2  0  0  0  0  0  0
  192.9970  173.8930  136.9300 C   0  0  0  0  0  3  0  0  0  0  0  0
  194.1610  173.2930  136.4480 C   0  0  0  0  0  3  0  0  0  0  0  0
  194.9680  175.4560  135.7000 C   0  0  0  0  0  0  0  0  0  0  0  0
  195.1540  174.0670  135.8310 C   0  0  0  0  0  0  0  0  0  0  0  0
  192.8080  175.2750  136.7960 C   0  0  0  0  0  0  0  0  0  0  0  0
  196.1750  176.4780  134.9350 Cl  0  0  0  0  0  0  0  0  0  0  0  0
  193.7980  176.0490  136.1830 C   0  0  0  0  0  3  0  0  0  0  0  0
  196.1530  172.0000  135.0660 N   0  0  0  0  0  1  0  0  0  0  0  0
  196.3960  173.4100  135.3120 C   0  0  2  0  0  3  0  0  0  0  0  0
  198.4780  173.9040  135.4930 O   0  0  0  0  0  1  0  0  0  0  0  0
  197.4420  173.5560  136.2270 O   0  0  0  0  0  0  0  0  0  0  0  0
  191.0440  176.9740  136.3060 C   0  0  0  0  0  2  0  0  0  0  0  0
  190.2960  176.2800  135.1800 C   0  0  0  0  0  2  0  0  0  0  0  0
  189.2930  175.2880  135.7410 C   0  0  0  0  0  2  0  0  0  0  0  0
  187.2480  176.6400  135.9200 N   0  0  0  0  0  2  0  0  0  0  0  0
  185.6730  173.4560  137.4490 C   0  0  2  0  0  3  0  0  0  0  0  0
  183.9260  174.8910  136.5080 O   0  0  0  0  0  0  0  0  0  0  0  0
  184.4990  176.5280  134.9920 O   0  0  0  0  0  0  0  0  0  0  0  0
  184.2960  174.1080  137.6440 C   0  0  0  0  0  2  0  0  0  0  0  0
  184.8560  175.7360  135.9060 C   0  0  0  0  0  0  0  0  0  0  0  0
  186.9270  174.5200  135.5830 N   0  0  1  0  0  0  0  0  0  0  0  0
  187.8870  175.5530  135.1960 C   0  0  2  0  0  3  0  0  0  0  0  0
  186.7880  174.4560  137.0550 C   0  0  1  0  0  3  0  0  0  0  0  0
  186.2880  175.6240  136.3210 C   0  0  1  0  0  0  0  0  0  0  0  0
  185.5840  172.4010  136.5370 O   0  0  0  0  0  1  0  0  0  0  0  0
  1 38  1  6  0  0  0
  1  9  1  0  0  0  0
  2  5  1  0  0  0  0
  3  4  1  0  0  0  0
  3 11  1  1  0  0  0
  5  3  1  0  0  0  0
  5  4  1  1  0  0  0
  6  8  1  0  0  0  0
  8  3  1  0  0  0  0
  9  7  2  0  0  0  0
  9  2  1  0  0  0  0
 10  6  1  0  0  0  0
 10  2  1  0  0  0  0
 11 12  1  0  0  0  0
 13 15  1  0  0  0  0
 13 14  1  0  0  0  0
 14 17  1  0  0  0  0
 15 12  1  6  0  0  0
 15 16  1  0  0  0  0
 16 19  1  0  0  0  0
 16 18  2  0  0  0  0
 17 18  1  0  0  0  0
 20 21  1  6  0  0  0
 20 19  1  0  0  0  0
 20 22  1  0  0  0  0
 23 22  1  0  0  0  0
 24 23  1  0  0  0  0
 25 26  1  0  0  0  0
 26 24  1  0  0  0  0
 28 27  2  0  0  0  0
 29 30  2  0  0  0  0
 29 33  1  0  0  0  0
 30 28  1  0  0  0  0
 31 27  1  0  0  0  0
 31  1  1  0  0  0  0
 32 29  1  0  0  0  0
 33 31  2  0  0  0  0
 35 34  1  1  0  0  0
 35 30  1  0  0  0  0
 35 37  1  0  0  0  0
 36 37  1  0  0  0  0
 39 40  1  0  0  0  0
 39 38  1  0  0  0  0
 41 50  1  0  0  0  0
 42 51  1  6  0  0  0
 42 45  1  0  0  0  0
 43 45  1  0  0  0  0
 44 46  2  0  0  0  0
 46 50  1  0  0  0  0
 46 43  1  0  0  0  0
 47 50  1  0  0  0  0
 47 49  1  0  0  0  0
 48 47  1  0  0  0  0
 48 40  1  0  0  0  0
 48 41  1  0  0  0  0
 49 42  1  0  0  0  0
 50 49  1  0  0  0  0
M  END
>  <MODEL>
2

>  <REMARK>
 VINA RESULT:      -7.2      2.541      6.769
  Name = 
  17 active torsions:
  status: ('A' for Active; 'I' for Inactive)
    1  A    between atoms: C_4  and  C_25
    2  A    between atoms: C_4  and  N_33
    3  A    between atoms: C_6  and  C_11
    4  A    between atoms: C_7  and  C_27
    5  A    between atoms: C_7  and  O_45
    6  A    between atoms: C_8  and  C_41
    7  A    between atoms: C_8  and  C_42
    8  A    between atoms: C_10  and  C_12
    9  A    between atoms: C_10  and  C_30
   10  A    between atoms: C_11  and  C_30
   11  A    between atoms: C_12  and  N_37
   12  A    between atoms: C_17  and  C_38
   13  A    between atoms: C_17  and  C_41
   14  A    between atoms: C_22  and  N_33
   15  A    between atoms: C_32  and  C_42
   16  A    between atoms: C_36  and  N_37
   17  A    between atoms: C_42  and  C_44
                            x       y       z     vdW  Elec       q    Type
                         _______ _______ _______ _____ _____    ______ ____

>  <TORSDO>
F 17

$$$$
=
 OpenBabel10222420593D

 51 57  0  0  1  0  0  0  0  0999 V2000
  191.0050  175.9530  137.7650 C   0  0  2  0  0  3  0  0  0  0  0  0
  188.7530  175.3190  136.7340 N   0  0  0  0  0  0  0  0  0  0  0  0
  186.6020  174.8160  135.5250 C   0  0  1  0  0  0  0  0  0  0  0  0
  187.7800  174.5750  134.6040 C   0  0  0  0  0  2  0  0  0  0  0  0
  187.9170  174.2900  136.0970 C   0  0  1  0  0  3  0  0  0  0  0  0
  186.8860  176.8930  136.9220 C   0  0  0  0  0  2  0  0  0  0  0  0
  190.2980  173.6950  137.4000 O   0  0  0  0  0  0  0  0  0  0  0  0
  186.1960  176.2800  135.7200 C   0  0  0  0  0  2  0  0  0  0  0  0
  190.0150  174.9220  137.2950 C   0  0  0  0  0  0  0  0  0  0  0  0
  188.3830  176.7380  136.7520 C   0  0  0  0  0  2  0  0  0  0  0  0
  185.5550  173.8030  135.4260 N   0  0  0  0  0  2  0  0  0  0  0  0
  184.2930  174.3770  135.8780 C   0  0  0  0  0  2  0  0  0  0  0  0
  184.0370  172.2000  137.1070 C   0  0  0  0  0  2  0  0  0  0  0  0
  182.9330  171.5730  136.2650 C   0  0  0  0  0  2  0  0  0  0  0  0
  183.8500  173.7220  137.1800 C   0  0  2  0  0  3  0  0  0  0  0  0
  182.4240  174.1210  137.4840 C   0  0  0  0  0  0  0  0  0  0  0  0
  181.5930  171.8160  136.9470 C   0  0  0  0  0  2  0  0  0  0  0  0
  181.4030  173.2640  137.3100 C   0  0  0  0  0  3  0  0  0  0  0  0
  182.1720  175.4760  137.8800 N   0  0  0  0  0  2  0  0  0  0  0  0
  181.8980  175.8850  139.2530 C   0  0  2  0  0  3  0  0  0  0  0  0
  180.5970  176.3810  139.3560 O   0  0  0  0  0  1  0  0  0  0  0  0
  182.9100  176.9300  139.7100 C   0  0  0  0  0  2  0  0  0  0  0  0
  183.6970  177.5400  138.5510 C   0  0  0  0  0  2  0  0  0  0  0  0
  184.2400  178.9170  138.9040 C   0  0  0  0  0  2  0  0  0  0  0  0
  186.3930  178.7440  139.9360 O   0  0  0  0  0  1  0  0  0  0  0  0
  185.0290  178.8780  140.2050 C   0  0  0  0  0  2  0  0  0  0  0  0
  192.8720  176.0900  136.0630 C   0  0  0  0  0  3  0  0  0  0  0  0
  194.1770  175.7980  135.6650 C   0  0  0  0  0  3  0  0  0  0  0  0
  194.5510  174.6150  137.7490 C   0  0  0  0  0  0  0  0  0  0  0  0
  195.0250  175.0610  136.5010 C   0  0  0  0  0  0  0  0  0  0  0  0
  192.4000  175.6510  137.3080 C   0  0  0  0  0  0  0  0  0  0  0  0
  195.5680  173.6880  138.8430 Cl  0  0  0  0  0  0  0  0  0  0  0  0
  193.2440  174.9120  138.1420 C   0  0  0  0  0  3  0  0  0  0  0  0
  196.7030  173.3420  136.2050 N   0  0  0  0  0  1  0  0  0  0  0  0
  196.4260  174.7610  136.0650 C   0  0  2  0  0  3  0  0  0  0  0  0
  198.3090  175.7920  135.9840 O   0  0  0  0  0  1  0  0  0  0  0  0
  197.3400  175.4960  136.8250 O   0  0  0  0  0  0  0  0  0  0  0  0
  190.9420  176.1580  139.2710 C   0  0  0  0  0  2  0  0  0  0  0  0
  191.6910  177.4210  139.6590 C   0  0  0  0  0  2  0  0  0  0  0  0
  191.7990  177.5310  141.1690 C   0  0  0  0  0  2  0  0  0  0  0  0
  189.6000  177.9180  142.1970 N   0  0  0  0  0  2  0  0  0  0  0  0
  191.4120  177.2300  145.5440 C   0  0  2  0  0  3  0  0  0  0  0  0
  189.0140  176.7920  145.7790 O   0  0  0  0  0  0  0  0  0  0  0  0
  187.7280  176.4850  143.8930 O   0  0  0  0  0  0  0  0  0  0  0  0
  190.1420  177.4210  146.3870 C   0  0  0  0  0  2  0  0  0  0  0  0
  188.7910  176.9230  144.4100 C   0  0  0  0  0  0  0  0  0  0  0  0
  190.8660  176.4900  143.2330 N   0  0  1  0  0  0  0  0  0  0  0  0
  190.5840  176.9030  141.8580 C   0  0  2  0  0  3  0  0  0  0  0  0
  191.2490  177.6540  144.0630 C   0  0  1  0  0  3  0  0  0  0  0  0
  189.8730  177.5260  143.5710 C   0  0  1  0  0  0  0  0  0  0  0  0
  191.8720  175.9150  145.6530 O   0  0  0  0  0  1  0  0  0  0  0  0
  1 38  1  1  0  0  0
  2 10  1  0  0  0  0
  2  9  1  0  0  0  0
  3 11  1  6  0  0  0
  3  8  1  0  0  0  0
  3  5  1  0  0  0  0
  4  3  1  0  0  0  0
  5  4  1  6  0  0  0
  5  2  1  0  0  0  0
  8  6  1  0  0  0  0
  9  7  2  0  0  0  0
  9  1  1  0  0  0  0
 10  6  1  0  0  0  0
 11 12  1  0  0  0  0
 13 15  1  0  0  0  0
 14 17  1  0  0  0  0
 14 13  1  0  0  0  0
 15 12  1  6  0  0  0
 15 16  1  0  0  0  0
 16 19  1  0  0  0  0
 17 18  1  0  0  0  0
 18 16  2  0  0  0  0
 19 20  1  0  0  0  0
 20 21  1  6  0  0  0
 20 22  1  0  0  0  0
 23 24  1  0  0  0  0
 23 22  1  0  0  0  0
 24 26  1  0  0  0  0
 25 26  1  0  0  0  0
 27 31  1  0  0  0  0
 28 27  2  0  0  0  0
 28 30  1  0  0  0  0
 29 33  1  0  0  0  0
 29 32  1  0  0  0  0
 30 29  2  0  0  0  0
 31  1  1  0  0  0  0
 31 33  2  0  0  0  0
 35 34  1  1  0  0  0
 35 30  1  0  0  0  0
 35 37  1  0  0  0  0
 36 37  1  0  0  0  0
 38 39  1  0  0  0  0
 39 40  1  0  0  0  0
 40 48  1  0  0  0  0
 41 50  1  0  0  0  0
 42 51  1  6  0  0  0
 42 45  1  0  0  0  0
 43 45  1  0  0  0  0
 44 46  2  0  0  0  0
 46 43  1  0  0  0  0
 47 50  1  0  0  0  0
 47 49  1  0  0  0  0
 48 41  1  0  0  0  0
 48 47  1  0  0  0  0
 49 42  1  0  0  0  0
 50 49  1  0  0  0  0
 50 46  1  0  0  0  0
M  END
>  <MODEL>
3

>  <REMARK>
 VINA RESULT:      -7.1      2.311      3.307
  Name = 
  17 active torsions:
  status: ('A' for Active; 'I' for Inactive)
    1  A    between atoms: C_4  and  C_25
    2  A    between atoms: C_4  and  N_33
    3  A    between atoms: C_6  and  C_11
    4  A    between atoms: C_7  and  C_27
    5  A    between atoms: C_7  and  O_45
    6  A    between atoms: C_8  and  C_41
    7  A    between atoms: C_8  and  C_42
    8  A    between atoms: C_10  and  C_12
    9  A    between atoms: C_10  and  C_30
   10  A    between atoms: C_11  and  C_30
   11  A    between atoms: C_12  and  N_37
   12  A    between atoms: C_17  and  C_38
   13  A    between atoms: C_17  and  C_41
   14  A    between atoms: C_22  and  N_33
   15  A    between atoms: C_32  and  C_42
   16  A    between atoms: C_36  and  N_37
   17  A    between atoms: C_42  and  C_44
                            x       y       z     vdW  Elec       q    Type
                         _______ _______ _______ _____ _____    ______ ____

>  <TORSDO>
F 17

$$$$
=
 OpenBabel10222420593D

 51 57  0  0  1  0  0  0  0  0999 V2000
  191.8650  176.0410  137.5930 C   0  0  2  0  0  3  0  0  0  0  0  0
  190.7230  176.8120  139.7460 N   0  0  0  0  0  0  0  0  0  0  0  0
  189.5090  177.3510  141.8860 C   0  0  1  0  0  0  0  0  0  0  0  0
  190.2410  176.0320  142.0260 C   0  0  0  0  0  2  0  0  0  0  0  0
  190.8450  177.1450  141.1740 C   0  0  1  0  0  3  0  0  0  0  0  0
  188.4080  177.6020  139.6340 C   0  0  0  0  0  2  0  0  0  0  0  0
  193.0480  176.8640  139.5040 O   0  0  0  0  0  0  0  0  0  0  0  0
  188.1920  177.3040  141.1040 C   0  0  0  0  0  2  0  0  0  0  0  0
  191.9260  176.5910  138.9920 C   0  0  0  0  0  0  0  0  0  0  0  0
  189.4260  176.6240  139.0860 C   0  0  0  0  0  2  0  0  0  0  0  0
  189.5960  178.2060  143.0660 N   0  0  0  0  0  2  0  0  0  0  0  0
  188.6460  177.7350  144.0670 C   0  0  0  0  0  2  0  0  0  0  0  0
  190.4840  178.4370  145.6320 C   0  0  0  0  0  2  0  0  0  0  0  0
  191.0550  177.0650  145.9690 C   0  0  0  0  0  2  0  0  0  0  0  0
  188.9650  178.3450  145.4270 C   0  0  2  0  0  3  0  0  0  0  0  0
  188.2770  177.5450  146.5100 C   0  0  0  0  0  0  0  0  0  0  0  0
  190.4630  176.5950  147.2910 C   0  0  0  0  0  2  0  0  0  0  0  0
  188.9620  176.7060  147.3040 C   0  0  0  0  0  3  0  0  0  0  0  0
  186.8500  177.6370  146.6130 N   0  0  0  0  0  2  0  0  0  0  0  0
  186.0910  178.8530  146.3450 C   0  0  2  0  0  3  0  0  0  0  0  0
  186.1340  179.7010  147.4520 O   0  0  0  0  0  1  0  0  0  0  0  0
  184.6480  178.5120  145.9840 C   0  0  0  0  0  2  0  0  0  0  0  0
  184.2600  178.9850  144.5840 C   0  0  0  0  0  2  0  0  0  0  0  0
  185.0020  178.2120  143.5040 C   0  0  0  0  0  2  0  0  0  0  0  0
  185.6760  179.6300  141.6970 O   0  0  0  0  0  1  0  0  0  0  0  0
  184.6750  178.7520  142.1200 C   0  0  0  0  0  2  0  0  0  0  0  0
  193.8630  174.5170  137.3050 C   0  0  0  0  0  3  0  0  0  0  0  0
  195.1280  174.2580  136.7750 C   0  0  0  0  0  3  0  0  0  0  0  0
  195.1360  176.4430  135.7200 C   0  0  0  0  0  0  0  0  0  0  0  0
  195.7740  175.2160  135.9810 C   0  0  0  0  0  0  0  0  0  0  0  0
  193.2250  175.7370  137.0420 C   0  0  0  0  0  0  0  0  0  0  0  0
  195.8930  177.6820  134.7310 Cl  0  0  0  0  0  0  0  0  0  0  0  0
  193.8680  176.6940  136.2530 C   0  0  0  0  0  3  0  0  0  0  0  0
  197.3800  173.4940  135.4280 N   0  0  0  0  0  1  0  0  0  0  0  0
  197.1280  174.9230  135.4130 C   0  0  2  0  0  3  0  0  0  0  0  0
  197.6940  175.5340  137.3920 O   0  0  0  0  0  1  0  0  0  0  0  0
  198.1160  175.5840  136.1460 O   0  0  0  0  0  0  0  0  0  0  0  0
  191.0730  176.9450  136.6600 C   0  0  0  0  0  2  0  0  0  0  0  0
  190.5700  176.1510  135.4650 C   0  0  0  0  0  2  0  0  0  0  0  0
  189.1010  176.4450  135.2150 C   0  0  0  0  0  2  0  0  0  0  0  0
  187.4080  174.7010  134.8500 N   0  0  0  0  0  2  0  0  0  0  0  0
  184.9440  177.2260  136.4350 C   0  0  2  0  0  3  0  0  0  0  0  0
  184.0850  174.9450  136.6760 O   0  0  0  0  0  0  0  0  0  0  0  0
  185.5200  173.1610  136.4310 O   0  0  0  0  0  0  0  0  0  0  0  0
  183.7390  176.2820  136.3110 C   0  0  0  0  0  2  0  0  0  0  0  0
  185.2750  174.3800  136.2250 C   0  0  0  0  0  0  0  0  0  0  0  0
  187.0790  175.9580  136.5890 N   0  0  1  0  0  0  0  0  0  0  0  0
  188.2060  175.3810  135.8570 C   0  0  2  0  0  3  0  0  0  0  0  0
  186.2040  176.7330  135.6810 C   0  0  1  0  0  3  0  0  0  0  0  0
  186.2760  175.2730  135.5610 C   0  0  1  0  0  0  0  0  0  0  0  0
  185.2200  177.4830  137.7800 O   0  0  0  0  0  1  0  0  0  0  0  0
  1 38  1  6  0  0  0
  1  9  1  0  0  0  0
  2  5  1  0  0  0  0
  3  4  1  0  0  0  0
  3 11  1  1  0  0  0
  5  3  1  0  0  0  0
  5  4  1  1  0  0  0
  6  8  1  0  0  0  0
  8  3  1  0  0  0  0
  9  7  2  0  0  0  0
  9  2  1  0  0  0  0
 10  6  1  0  0  0  0
 10  2  1  0  0  0  0
 11 12  1  0  0  0  0
 13 14  1  0  0  0  0
 14 17  1  0  0  0  0
 15 12  1  6  0  0  0
 15 13  1  0  0  0  0
 15 16  1  0  0  0  0
 16 19  1  0  0  0  0
 16 18  2  0  0  0  0
 17 18  1  0  0  0  0
 20 19  1  0  0  0  0
 20 21  1  1  0  0  0
 22 20  1  0  0  0  0
 23 22  1  0  0  0  0
 24 23  1  0  0  0  0
 25 26  1  0  0  0  0
 26 24  1  0  0  0  0
 28 27  2  0  0  0  0
 29 30  2  0  0  0  0
 29 33  1  0  0  0  0
 30 28  1  0  0  0  0
 31 27  1  0  0  0  0
 31  1  1  0  0  0  0
 32 29  1  0  0  0  0
 33 31  2  0  0  0  0
 35 34  1  1  0  0  0
 35 30  1  0  0  0  0
 35 37  1  0  0  0  0
 37 36  1  0  0  0  0
 39 38  1  0  0  0  0
 40 39  1  0  0  0  0
 40 48  1  0  0  0  0
 41 50  1  0  0  0  0
 41 48  1  0  0  0  0
 42 51  1  1  0  0  0
 45 42  1  0  0  0  0
 45 43  1  0  0  0  0
 46 44  2  0  0  0  0
 46 43  1  0  0  0  0
 48 47  1  0  0  0  0
 49 42  1  0  0  0  0
 49 47  1  0  0  0  0
 50 49  1  0  0  0  0
 50 46  1  0  0  0  0
 50 47  1  0  0  0  0
M  END
>  <MODEL>
4

>  <REMARK>
 VINA RESULT:      -7.1      2.632      6.838
  Name = 
  17 active torsions:
  status: ('A' for Active; 'I' for Inactive)
    1  A    between atoms: C_4  and  C_25
    2  A    between atoms: C_4  and  N_33
    3  A    between atoms: C_6  and  C_11
    4  A    between atoms: C_7  and  C_27
    5  A    between atoms: C_7  and  O_45
    6  A    between atoms: C_8  and  C_41
    7  A    between atoms: C_8  and  C_42
    8  A    between atoms: C_10  and  C_12
    9  A    between atoms: C_10  and  C_30
   10  A    between atoms: C_11  and  C_30
   11  A    between atoms: C_12  and  N_37
   12  A    between atoms: C_17  and  C_38
   13  A    between atoms: C_17  and  C_41
   14  A    between atoms: C_22  and  N_33
   15  A    between atoms: C_32  and  C_42
   16  A    between atoms: C_36  and  N_37
   17  A    between atoms: C_42  and  C_44
                            x       y       z     vdW  Elec       q    Type
                         _______ _______ _______ _____ _____    ______ ____

>  <TORSDO>
F 17

$$$$
=
 OpenBabel10222420593D

 51 57  0  0  1  0  0  0  0  0999 V2000
  188.4370  177.3180  143.6710 C   0  0  2  0  0  3  0  0  0  0  0  0
  189.1880  177.1380  141.2340 N   0  0  0  0  0  0  0  0  0  0  0  0
  190.0850  177.1330  138.8810 C   0  0  1  0  0  0  0  0  0  0  0  0
  191.2330  177.1390  139.8700 C   0  0  0  0  0  2  0  0  0  0  0  0
  189.9430  176.3970  140.2120 C   0  0  1  0  0  3  0  0  0  0  0  0
  188.2050  178.6560  139.5830 C   0  0  0  0  0  2  0  0  0  0  0  0
  189.3280  175.3200  142.6980 O   0  0  0  0  0  0  0  0  0  0  0  0
  189.3910  178.4800  138.6560 C   0  0  0  0  0  2  0  0  0  0  0  0
  189.0080  176.5290  142.5230 C   0  0  0  0  0  0  0  0  0  0  0  0
  188.6800  178.4960  141.0120 C   0  0  0  0  0  2  0  0  0  0  0  0
  190.2930  176.2490  137.7370 N   0  0  0  0  0  2  0  0  0  0  0  0
  189.9360  176.9590  136.5150 C   0  0  0  0  0  2  0  0  0  0  0  0
  189.3610  175.4440  134.5950 C   0  0  0  0  0  2  0  0  0  0  0  0
  189.0310  174.1770  135.3740 C   0  0  0  0  0  2  0  0  0  0  0  0
  190.4810  176.2230  135.2970 C   0  0  2  0  0  3  0  0  0  0  0  0
  191.6330  175.3390  135.7180 C   0  0  0  0  0  0  0  0  0  0  0  0
  190.2540  173.2700  135.3840 C   0  0  0  0  0  2  0  0  0  0  0  0
  191.4940  174.0060  135.8150 C   0  0  0  0  0  3  0  0  0  0  0  0
  192.8630  175.9690  136.1000 N   0  0  0  0  0  2  0  0  0  0  0  0
  193.8240  175.3840  137.0270 C   0  0  2  0  0  3  0  0  0  0  0  0
  194.0480  176.2500  138.0980 O   0  0  0  0  0  1  0  0  0  0  0  0
  195.1320  175.0670  136.3090 C   0  0  0  0  0  2  0  0  0  0  0  0
  195.8090  173.8050  136.8420 C   0  0  0  0  0  2  0  0  0  0  0  0
  194.8060  172.8540  137.4780 C   0  0  0  0  0  2  0  0  0  0  0  0
  194.2140  170.6130  136.8830 O   0  0  0  0  0  1  0  0  0  0  0  0
  195.2630  171.4090  137.3500 C   0  0  0  0  0  2  0  0  0  0  0  0
  190.6090  176.7920  144.8560 C   0  0  0  0  0  3  0  0  0  0  0  0
  191.3620  176.6940  146.0270 C   0  0  0  0  0  3  0  0  0  0  0  0
  189.4370  177.3970  147.3260 C   0  0  0  0  0  0  0  0  0  0  0  0
  190.7850  176.9940  147.2680 C   0  0  0  0  0  0  0  0  0  0  0  0
  189.2690  177.1980  144.9120 C   0  0  0  0  0  0  0  0  0  0  0  0
  188.6580  177.7880  148.8520 Cl  0  0  0  0  0  0  0  0  0  0  0  0
  188.6900  177.4950  146.1490 C   0  0  0  0  0  3  0  0  0  0  0  0
  191.9220  178.2160  149.0190 N   0  0  0  0  0  1  0  0  0  0  0  0
  191.6050  176.8910  148.5170 C   0  0  2  0  0  3  0  0  0  0  0  0
  193.6130  176.5800  149.2120 O   0  0  0  0  0  1  0  0  0  0  0  0
  192.7860  176.1870  148.2660 O   0  0  0  0  0  0  0  0  0  0  0  0
  186.9820  176.9630  143.9360 C   0  0  0  0  0  2  0  0  0  0  0  0
  186.1860  178.2200  144.2480 C   0  0  0  0  0  2  0  0  0  0  0  0
  184.8840  178.2300  143.4650 C   0  0  0  0  0  2  0  0  0  0  0  0
  185.2180  179.5190  141.4000 N   0  0  0  0  0  2  0  0  0  0  0  0
  181.6590  178.3270  140.4710 C   0  0  2  0  0  3  0  0  0  0  0  0
  182.9100  178.9030  138.4460 O   0  0  0  0  0  0  0  0  0  0  0  0
  185.2060  179.0470  138.5350 O   0  0  0  0  0  0  0  0  0  0  0  0
  181.6590  179.0550  139.1180 C   0  0  0  0  0  2  0  0  0  0  0  0
  184.1050  179.0450  139.1470 C   0  0  0  0  0  0  0  0  0  0  0  0
  183.9690  177.7560  141.1960 N   0  0  1  0  0  0  0  0  0  0  0  0
  185.1440  178.1790  141.9570 C   0  0  2  0  0  3  0  0  0  0  0  0
  182.8500  178.7070  141.3850 C   0  0  1  0  0  3  0  0  0  0  0  0
  184.0450  179.1190  140.6400 C   0  0  1  0  0  0  0  0  0  0  0  0
  181.5810  176.9460  140.2770 O   0  0  0  0  0  1  0  0  0  0  0  0
  1 38  1  1  0  0  0
  1 31  1  0  0  0  0
  2  9  1  0  0  0  0
  3 11  1  6  0  0  0
  3  4  1  0  0  0  0
  3  5  1  0  0  0  0
  5  4  1  1  0  0  0
  5  2  1  0  0  0  0
  6 10  1  0  0  0  0
  8  3  1  0  0  0  0
  8  6  1  0  0  0  0
  9  7  2  0  0  0  0
  9  1  1  0  0  0  0
 10  2  1  0  0  0  0
 12 11  1  0  0  0  0
 13 15  1  0  0  0  0
 13 14  1  0  0  0  0
 14 17  1  0  0  0  0
 15 16  1  0  0  0  0
 15 12  1  1  0  0  0
 16 18  2  0  0  0  0
 16 19  1  0  0  0  0
 17 18  1  0  0  0  0
 19 20  1  0  0  0  0
 20 21  1  1  0  0  0
 22 23  1  0  0  0  0
 22 20  1  0  0  0  0
 23 24  1  0  0  0  0
 25 26  1  0  0  0  0
 26 24  1  0  0  0  0
 27 31  2  0  0  0  0
 27 28  1  0  0  0  0
 28 30  2  0  0  0  0
 29 32  1  0  0  0  0
 30 29  1  0  0  0  0
 30 35  1  0  0  0  0
 31 33  1  0  0  0  0
 33 29  2  0  0  0  0
 35 34  1  6  0  0  0
 37 35  1  0  0  0  0
 37 36  1  0  0  0  0
 38 39  1  0  0  0  0
 40 39  1  0  0  0  0
 41 48  1  0  0  0  0
 42 51  1  6  0  0  0
 42 49  1  0  0  0  0
 43 45  1  0  0  0  0
 43 46  1  0  0  0  0
 44 46  2  0  0  0  0
 45 42  1  0  0  0  0
 46 50  1  0  0  0  0
 47 49  1  0  0  0  0
 47 48  1  0  0  0  0
 48 40  1  0  0  0  0
 50 47  1  0  0  0  0
 50 49  1  0  0  0  0
 50 41  1  0  0  0  0
M  END
>  <MODEL>
5

>  <REMARK>
 VINA RESULT:      -7.1      2.960      9.643
  Name = 
  17 active torsions:
  status: ('A' for Active; 'I' for Inactive)
    1  A    between atoms: C_4  and  C_25
    2  A    between atoms: C_4  and  N_33
    3  A    between atoms: C_6  and  C_11
    4  A    between atoms: C_7  and  C_27
    5  A    between atoms: C_7  and  O_45
    6  A    between atoms: C_8  and  C_41
    7  A    between atoms: C_8  and  C_42
    8  A    between atoms: C_10  and  C_12
    9  A    between atoms: C_10  and  C_30
   10  A    between atoms: C_11  and  C_30
   11  A    between atoms: C_12  and  N_37
   12  A    between atoms: C_17  and  C_38
   13  A    between atoms: C_17  and  C_41
   14  A    between atoms: C_22  and  N_33
   15  A    between atoms: C_32  and  C_42
   16  A    between atoms: C_36  and  N_37
   17  A    between atoms: C_42  and  C_44
                            x       y       z     vdW  Elec       q    Type
                         _______ _______ _______ _____ _____    ______ ____

>  <TORSDO>
F 17

$$$$
=
 OpenBabel10222420593D

 51 57  0  0  1  0  0  0  0  0999 V2000
  190.6180  175.9560  137.9780 C   0  0  2  0  0  3  0  0  0  0  0  0
  188.1170  176.1120  137.4720 N   0  0  0  0  0  0  0  0  0  0  0  0
  185.7120  176.3930  136.7790 C   0  0  1  0  0  0  0  0  0  0  0  0
  186.5490  175.9850  135.5840 C   0  0  0  0  0  2  0  0  0  0  0  0
  186.9010  175.4530  136.9710 C   0  0  1  0  0  3  0  0  0  0  0  0
  186.8810  178.0830  138.2370 C   0  0  0  0  0  2  0  0  0  0  0  0
  189.2150  174.0520  137.6050 O   0  0  0  0  0  0  0  0  0  0  0  0
  185.8080  177.8660  137.1900 C   0  0  0  0  0  2  0  0  0  0  0  0
  189.2920  175.3110  137.6760 C   0  0  0  0  0  0  0  0  0  0  0  0
  188.1960  177.5590  137.6980 C   0  0  0  0  0  2  0  0  0  0  0  0
  184.4150  175.7260  136.8520 N   0  0  0  0  0  2  0  0  0  0  0  0
  183.4550  176.6170  137.4910 C   0  0  0  0  0  2  0  0  0  0  0  0
  181.6230  175.2530  138.5380 C   0  0  0  0  0  2  0  0  0  0  0  0
  180.4730  176.2440  138.4030 C   0  0  0  0  0  2  0  0  0  0  0  0
  182.9410  175.9990  138.7860 C   0  0  2  0  0  3  0  0  0  0  0  0
  182.8150  177.0750  139.8400 C   0  0  0  0  0  0  0  0  0  0  0  0
  180.3110  176.9950  139.7180 C   0  0  0  0  0  2  0  0  0  0  0  0
  181.6170  177.5620  140.2050 C   0  0  0  0  0  3  0  0  0  0  0  0
  184.0190  177.6310  140.3840 N   0  0  0  0  0  2  0  0  0  0  0  0
  184.1640  179.0260  140.7830 C   0  0  2  0  0  3  0  0  0  0  0  0
  184.5480  179.8020  139.6880 O   0  0  0  0  0  1  0  0  0  0  0  0
  185.1770  179.1550  141.9150 C   0  0  0  0  0  2  0  0  0  0  0  0
  184.9160  178.1760  143.0590 C   0  0  0  0  0  2  0  0  0  0  0  0
  185.0550  178.8470  144.4170 C   0  0  0  0  0  2  0  0  0  0  0  0
  182.6800  178.9580  144.1410 O   0  0  0  0  0  1  0  0  0  0  0  0
  183.7020  179.0030  145.0930 C   0  0  0  0  0  2  0  0  0  0  0  0
  191.8720  177.0270  139.8960 C   0  0  0  0  0  3  0  0  0  0  0  0
  191.9120  177.5030  141.2080 C   0  0  0  0  0  3  0  0  0  0  0  0
  189.5930  176.8570  141.5150 C   0  0  0  0  0  0  0  0  0  0  0  0
  190.7770  177.4210  142.0260 C   0  0  0  0  0  0  0  0  0  0  0  0
  190.6920  176.4690  139.3840 C   0  0  0  0  0  0  0  0  0  0  0  0
  188.1380  176.7290  142.4910 Cl  0  0  0  0  0  0  0  0  0  0  0  0
  189.5600  176.3850  140.2000 C   0  0  0  0  0  3  0  0  0  0  0  0
  191.3330  179.3030  143.4410 N   0  0  0  0  0  1  0  0  0  0  0  0
  190.8310  177.9410  143.4290 C   0  0  2  0  0  3  0  0  0  0  0  0
  191.8310  177.8170  145.3260 O   0  0  0  0  0  1  0  0  0  0  0  0
  191.6510  177.1300  144.2170 O   0  0  0  0  0  0  0  0  0  0  0  0
  190.9670  177.0380  136.9680 C   0  0  0  0  0  2  0  0  0  0  0  0
  191.4100  176.4080  135.6580 C   0  0  0  0  0  2  0  0  0  0  0  0
  192.4860  175.3660  135.9080 C   0  0  0  0  0  2  0  0  0  0  0  0
  194.8030  175.2080  135.1030 N   0  0  0  0  0  2  0  0  0  0  0  0
  195.6530  174.2190  138.7440 C   0  0  2  0  0  3  0  0  0  0  0  0
  197.6360  175.1310  137.6340 O   0  0  0  0  0  0  0  0  0  0  0  0
  197.3870  176.3830  135.7170 O   0  0  0  0  0  0  0  0  0  0  0  0
  197.1540  174.0700  138.4600 C   0  0  0  0  0  2  0  0  0  0  0  0
  196.9030  175.5430  136.5230 C   0  0  0  0  0  0  0  0  0  0  0  0
  194.5850  175.8250  137.1730 N   0  0  1  0  0  0  0  0  0  0  0  0
  193.8810  175.9990  135.9030 C   0  0  2  0  0  3  0  0  0  0  0  0
  194.7890  174.3890  137.4690 C   0  0  1  0  0  3  0  0  0  0  0  0
  195.5120  175.0190  136.3580 C   0  0  1  0  0  0  0  0  0  0  0  0
  195.4320  175.2550  139.6540 O   0  0  0  0  0  1  0  0  0  0  0  0
  1 38  1  6  0  0  0
  1 31  1  0  0  0  0
  2  9  1  0  0  0  0
  2 10  1  0  0  0  0
  3 11  1  1  0  0  0
  3  5  1  0  0  0  0
  3  8  1  0  0  0  0
  4  3  1  0  0  0  0
  5  4  1  6  0  0  0
  5  2  1  0  0  0  0
  7  9  2  0  0  0  0
  8  6  1  0  0  0  0
  9  1  1  0  0  0  0
 10  6  1  0  0  0  0
 11 12  1  0  0  0  0
 13 15  1  0  0  0  0
 14 13  1  0  0  0  0
 14 17  1  0  0  0  0
 15 12  1  6  0  0  0
 15 16  1  0  0  0  0
 16 18  2  0  0  0  0
 16 19  1  0  0  0  0
 17 18  1  0  0  0  0
 19 20  1  0  0  0  0
 20 21  1  6  0  0  0
 20 22  1  0  0  0  0
 22 23  1  0  0  0  0
 23 24  1  0  0  0  0
 24 26  1  0  0  0  0
 25 26  1  0  0  0  0
 27 28  1  0  0  0  0
 28 30  2  0  0  0  0
 29 30  1  0  0  0  0
 29 32  1  0  0  0  0
 30 35  1  0  0  0  0
 31 27  2  0  0  0  0
 31 33  1  0  0  0  0
 33 29  2  0  0  0  0
 35 34  1  6  0  0  0
 35 37  1  0  0  0  0
 37 36  1  0  0  0  0
 39 40  1  0  0  0  0
 39 38  1  0  0  0  0
 41 48  1  0  0  0  0
 41 50  1  0  0  0  0
 42 51  1  1  0  0  0
 43 45  1  0  0  0  0
 44 46  2  0  0  0  0
 45 42  1  0  0  0  0
 46 43  1  0  0  0  0
 47 49  1  0  0  0  0
 48 40  1  0  0  0  0
 48 47  1  0  0  0  0
 49 42  1  0  0  0  0
 50 46  1  0  0  0  0
 50 47  1  0  0  0  0
 50 49  1  0  0  0  0
M  END
>  <MODEL>
6

>  <REMARK>
 VINA RESULT:      -6.9      2.465      6.318
  Name = 
  17 active torsions:
  status: ('A' for Active; 'I' for Inactive)
    1  A    between atoms: C_4  and  C_25
    2  A    between atoms: C_4  and  N_33
    3  A    between atoms: C_6  and  C_11
    4  A    between atoms: C_7  and  C_27
    5  A    between atoms: C_7  and  O_45
    6  A    between atoms: C_8  and  C_41
    7  A    between atoms: C_8  and  C_42
    8  A    between atoms: C_10  and  C_12
    9  A    between atoms: C_10  and  C_30
   10  A    between atoms: C_11  and  C_30
   11  A    between atoms: C_12  and  N_37
   12  A    between atoms: C_17  and  C_38
   13  A    between atoms: C_17  and  C_41
   14  A    between atoms: C_22  and  N_33
   15  A    between atoms: C_32  and  C_42
   16  A    between atoms: C_36  and  N_37
   17  A    between atoms: C_42  and  C_44
                            x       y       z     vdW  Elec       q    Type
                         _______ _______ _______ _____ _____    ______ ____

>  <TORSDO>
F 17

$$$$
=
 OpenBabel10222420593D

 51 57  0  0  1  0  0  0  0  0999 V2000
  182.2610  178.6990  138.5790 C   0  0  2  0  0  3  0  0  0  0  0  0
  183.6800  178.5870  140.7030 N   0  0  0  0  0  0  0  0  0  0  0  0
  185.0940  178.7150  142.7820 C   0  0  1  0  0  0  0  0  0  0  0  0
  183.9940  179.7550  142.8420 C   0  0  0  0  0  2  0  0  0  0  0  0
  183.7310  178.4140  142.1620 C   0  0  1  0  0  3  0  0  0  0  0  0
  186.1190  178.5330  140.4880 C   0  0  0  0  0  2  0  0  0  0  0  0
  181.4790  177.7990  140.6550 O   0  0  0  0  0  0  0  0  0  0  0  0
  186.2950  179.0640  141.8960 C   0  0  0  0  0  2  0  0  0  0  0  0
  182.4360  178.3350  140.0290 C   0  0  0  0  0  0  0  0  0  0  0  0
  184.8220  179.0770  139.9240 C   0  0  0  0  0  2  0  0  0  0  0  0
  185.3310  178.0280  144.0490 N   0  0  0  0  0  2  0  0  0  0  0  0
  186.7670  177.9410  144.2830 C   0  0  0  0  0  2  0  0  0  0  0  0
  186.0930  177.4550  146.6550 C   0  0  0  0  0  2  0  0  0  0  0  0
  186.5230  178.7640  147.3040 C   0  0  0  0  0  2  0  0  0  0  0  0
  187.0520  177.0880  145.5130 C   0  0  2  0  0  3  0  0  0  0  0  0
  188.5050  177.2350  145.9010 C   0  0  0  0  0  0  0  0  0  0  0  0
  187.8980  178.5780  147.9310 C   0  0  0  0  0  2  0  0  0  0  0  0
  188.8770  177.9690  146.9640 C   0  0  0  0  0  3  0  0  0  0  0  0
  189.4940  176.6410  145.0500 N   0  0  0  0  0  2  0  0  0  0  0  0
  190.5380  177.3940  144.3650 C   0  0  2  0  0  3  0  0  0  0  0  0
  190.1620  178.7330  144.2400 O   0  0  0  0  0  1  0  0  0  0  0  0
  190.8240  176.7860  142.9960 C   0  0  0  0  0  2  0  0  0  0  0  0
  189.5560  176.5390  142.1800 C   0  0  0  0  0  2  0  0  0  0  0  0
  189.5150  177.4050  140.9290 C   0  0  0  0  0  2  0  0  0  0  0  0
  190.7470  176.0210  139.4140 O   0  0  0  0  0  1  0  0  0  0  0  0
  190.7810  177.2350  140.1040 C   0  0  0  0  0  2  0  0  0  0  0  0
  179.9880  179.8050  138.4620 C   0  0  0  0  0  3  0  0  0  0  0  0
  179.1970  180.9420  138.2950 C   0  0  0  0  0  3  0  0  0  0  0  0
  181.1930  182.2870  137.9850 C   0  0  0  0  0  0  0  0  0  0  0  0
  179.7900  182.1890  138.0550 C   0  0  0  0  0  0  0  0  0  0  0  0
  181.3850  179.9020  138.3980 C   0  0  0  0  0  0  0  0  0  0  0  0
  181.9950  183.8220  137.6900 Cl  0  0  0  0  0  0  0  0  0  0  0  0
  181.9780  181.1440  138.1560 C   0  0  0  0  0  3  0  0  0  0  0  0
  179.3180  184.1280  136.6870 N   0  0  0  0  0  1  0  0  0  0  0  0
  178.9310  183.4030  137.8840 C   0  0  2  0  0  3  0  0  0  0  0  0
  179.2660  185.4350  138.4940 O   0  0  0  0  0  1  0  0  0  0  0  0
  179.0420  184.2390  138.9980 O   0  0  0  0  0  0  0  0  0  0  0  0
  181.7700  177.5210  137.7520 C   0  0  0  0  0  2  0  0  0  0  0  0
  182.0320  177.7720  136.2760 C   0  0  0  0  0  2  0  0  0  0  0  0
  183.1890  176.9170  135.7900 C   0  0  0  0  0  2  0  0  0  0  0  0
  185.6050  177.3580  135.8880 N   0  0  0  0  0  2  0  0  0  0  0  0
  185.9200  173.6070  136.7740 C   0  0  2  0  0  3  0  0  0  0  0  0
  187.8750  174.8330  137.5940 O   0  0  0  0  0  0  0  0  0  0  0  0
  187.7660  177.1230  137.8140 O   0  0  0  0  0  0  0  0  0  0  0  0
  187.4500  173.6600  136.8970 C   0  0  0  0  0  2  0  0  0  0  0  0
  187.3020  176.0690  137.3010 C   0  0  0  0  0  0  0  0  0  0  0  0
  184.8910  175.8220  137.2460 N   0  0  1  0  0  0  0  0  0  0  0  0
  184.4200  177.0880  136.6860 C   0  0  2  0  0  3  0  0  0  0  0  0
  185.2960  174.8890  136.1690 C   0  0  1  0  0  3  0  0  0  0  0  0
  186.0870  176.0970  136.4290 C   0  0  1  0  0  0  0  0  0  0  0  0
  185.3460  173.2890  138.0070 O   0  0  0  0  0  1  0  0  0  0  0  0
  1 38  1  6  0  0  0
  1  9  1  0  0  0  0
  2  5  1  0  0  0  0
  3  4  1  0  0  0  0
  3 11  1  1  0  0  0
  5  3  1  0  0  0  0
  5  4  1  1  0  0  0
  6  8  1  0  0  0  0
  8  3  1  0  0  0  0
  9  7  2  0  0  0  0
  9  2  1  0  0  0  0
 10  6  1  0  0  0  0
 10  2  1  0  0  0  0
 11 12  1  0  0  0  0
 13 14  1  0  0  0  0
 14 17  1  0  0  0  0
 15 12  1  6  0  0  0
 15 16  1  0  0  0  0
 15 13  1  0  0  0  0
 16 18  2  0  0  0  0
 18 17  1  0  0  0  0
 19 16  1  0  0  0  0
 20 21  1  6  0  0  0
 20 19  1  0  0  0  0
 22 20  1  0  0  0  0
 23 22  1  0  0  0  0
 24 23  1  0  0  0  0
 25 26  1  0  0  0  0
 26 24  1  0  0  0  0
 28 27  2  0  0  0  0
 29 30  2  0  0  0  0
 29 33  1  0  0  0  0
 30 28  1  0  0  0  0
 31 27  1  0  0  0  0
 31  1  1  0  0  0  0
 32 29  1  0  0  0  0
 33 31  2  0  0  0  0
 35 34  1  6  0  0  0
 35 30  1  0  0  0  0
 35 37  1  0  0  0  0
 36 37  1  0  0  0  0
 39 38  1  0  0  0  0
 40 39  1  0  0  0  0
 40 48  1  0  0  0  0
 41 50  1  0  0  0  0
 41 48  1  0  0  0  0
 42 45  1  0  0  0  0
 42 51  1  1  0  0  0
 45 43  1  0  0  0  0
 46 43  1  0  0  0  0
 46 44  2  0  0  0  0
 48 47  1  0  0  0  0
 49 50  1  0  0  0  0
 49 42  1  0  0  0  0
 49 47  1  0  0  0  0
 50 47  1  0  0  0  0
 50 46  1  0  0  0  0
M  END
>  <MODEL>
7

>  <REMARK>
 VINA RESULT:      -6.9      4.448     11.008
  Name = 
  17 active torsions:
  status: ('A' for Active; 'I' for Inactive)
    1  A    between atoms: C_4  and  C_25
    2  A    between atoms: C_4  and  N_33
    3  A    between atoms: C_6  and  C_11
    4  A    between atoms: C_7  and  C_27
    5  A    between atoms: C_7  and  O_45
    6  A    between atoms: C_8  and  C_41
    7  A    between atoms: C_8  and  C_42
    8  A    between atoms: C_10  and  C_12
    9  A    between atoms: C_10  and  C_30
   10  A    between atoms: C_11  and  C_30
   11  A    between atoms: C_12  and  N_37
   12  A    between atoms: C_17  and  C_38
   13  A    between atoms: C_17  and  C_41
   14  A    between atoms: C_22  and  N_33
   15  A    between atoms: C_32  and  C_42
   16  A    between atoms: C_36  and  N_37
   17  A    between atoms: C_42  and  C_44
                            x       y       z     vdW  Elec       q    Type
                         _______ _______ _______ _____ _____    ______ ____

>  <TORSDO>
F 17

$$$$
=
 OpenBabel10222420593D

 51 57  0  0  1  0  0  0  0  0999 V2000
  187.9530  177.6770  140.4080 C   0  0  2  0  0  3  0  0  0  0  0  0
  185.7580  178.0070  139.1400 N   0  0  0  0  0  0  0  0  0  0  0  0
  183.5400  178.1070  137.9520 C   0  0  1  0  0  0  0  0  0  0  0  0
  183.3600  177.5000  139.3280 C   0  0  0  0  0  2  0  0  0  0  0  0
  184.4080  178.5900  139.1120 C   0  0  1  0  0  3  0  0  0  0  0  0
  185.6260  177.2820  136.8050 C   0  0  0  0  0  2  0  0  0  0  0  0
  186.3320  179.3480  140.9680 O   0  0  0  0  0  0  0  0  0  0  0  0
  184.1170  177.1740  136.8820 C   0  0  0  0  0  2  0  0  0  0  0  0
  186.6460  178.3940  140.2010 C   0  0  0  0  0  0  0  0  0  0  0  0
  186.2020  176.9950  138.1760 C   0  0  0  0  0  2  0  0  0  0  0  0
  182.4860  179.0440  137.5740 N   0  0  0  0  0  2  0  0  0  0  0  0
  181.1950  178.3730  137.6690 C   0  0  0  0  0  2  0  0  0  0  0  0
  179.4500  180.0220  136.9260 C   0  0  0  0  0  2  0  0  0  0  0  0
  180.3610  181.0950  136.3430 C   0  0  0  0  0  2  0  0  0  0  0  0
  180.1230  179.3510  138.1320 C   0  0  2  0  0  3  0  0  0  0  0  0
  180.7330  180.3490  139.0900 C   0  0  0  0  0  0  0  0  0  0  0  0
  180.5720  182.1840  137.3870 C   0  0  0  0  0  2  0  0  0  0  0  0
  180.9910  181.6130  138.7150 C   0  0  0  0  0  3  0  0  0  0  0  0
  181.1150  179.8870  140.3920 N   0  0  0  0  0  2  0  0  0  0  0  0
  180.1760  179.6600  141.4840 C   0  0  2  0  0  3  0  0  0  0  0  0
  179.7880  180.8780  142.0460 O   0  0  0  0  0  1  0  0  0  0  0  0
  180.7960  178.7530  142.5410 C   0  0  0  0  0  2  0  0  0  0  0  0
  182.2970  178.9820  142.7120 C   0  0  0  0  0  2  0  0  0  0  0  0
  182.6640  179.2460  144.1650 C   0  0  0  0  0  2  0  0  0  0  0  0
  185.0440  179.2920  143.9150 O   0  0  0  0  0  1  0  0  0  0  0  0
  183.9930  178.5980  144.5210 C   0  0  0  0  0  2  0  0  0  0  0  0
  187.6330  177.0310  142.8330 C   0  0  0  0  0  3  0  0  0  0  0  0
  188.0590  177.0480  144.1620 C   0  0  0  0  0  3  0  0  0  0  0  0
  189.9860  178.3800  143.5290 C   0  0  0  0  0  0  0  0  0  0  0  0
  189.2350  177.7210  144.5210 C   0  0  0  0  0  0  0  0  0  0  0  0
  188.3820  177.6830  141.8440 C   0  0  0  0  0  0  0  0  0  0  0  0
  191.4690  179.2390  143.9160 Cl  0  0  0  0  0  0  0  0  0  0  0  0
  189.5540  178.3570  142.2000 C   0  0  0  0  0  3  0  0  0  0  0  0
  190.7830  176.7930  146.1330 N   0  0  0  0  0  1  0  0  0  0  0  0
  189.6850  177.7260  145.9490 C   0  0  2  0  0  3  0  0  0  0  0  0
  189.1450  176.5130  147.6370 O   0  0  0  0  0  1  0  0  0  0  0  0
  188.6270  177.3810  146.7930 O   0  0  0  0  0  0  0  0  0  0  0  0
  189.0460  178.2120  139.4950 C   0  0  0  0  0  2  0  0  0  0  0  0
  189.6860  177.0710  138.7220 C   0  0  0  0  0  2  0  0  0  0  0  0
  191.0990  177.4390  138.3070 C   0  0  0  0  0  2  0  0  0  0  0  0
  193.4400  176.6910  138.2730 N   0  0  0  0  0  2  0  0  0  0  0  0
  192.2500  174.1670  135.5950 C   0  0  2  0  0  3  0  0  0  0  0  0
  194.2860  173.3470  136.6800 O   0  0  0  0  0  0  0  0  0  0  0  0
  194.9280  174.2340  138.7050 O   0  0  0  0  0  0  0  0  0  0  0  0
  193.6420  173.5420  135.4200 C   0  0  0  0  0  2  0  0  0  0  0  0
  194.2500  174.3460  137.6490 C   0  0  0  0  0  0  0  0  0  0  0  0
  191.9710  175.1450  137.8650 N   0  0  1  0  0  0  0  0  0  0  0  0
  192.0940  176.3420  138.6980 C   0  0  2  0  0  3  0  0  0  0  0  0
  192.2490  175.4620  136.4460 C   0  0  1  0  0  3  0  0  0  0  0  0
  193.3330  175.5090  137.4330 C   0  0  1  0  0  0  0  0  0  0  0  0
  191.3540  173.2210  136.0990 O   0  0  0  0  0  1  0  0  0  0  0  0
  1 38  1  6  0  0  0
  1 31  1  0  0  0  0
  2  9  1  0  0  0  0
  3 11  1  6  0  0  0
  3  5  1  0  0  0  0
  3  4  1  0  0  0  0
  5  2  1  0  0  0  0
  5  4  1  1  0  0  0
  6  8  1  0  0  0  0
  6 10  1  0  0  0  0
  8  3  1  0  0  0  0
  9  1  1  0  0  0  0
  9  7  2  0  0  0  0
 10  2  1  0  0  0  0
 11 12  1  0  0  0  0
 13 15  1  0  0  0  0
 14 13  1  0  0  0  0
 14 17  1  0  0  0  0
 15 12  1  6  0  0  0
 15 16  1  0  0  0  0
 16 19  1  0  0  0  0
 17 18  1  0  0  0  0
 18 16  2  0  0  0  0
 19 20  1  0  0  0  0
 20 21  1  1  0  0  0
 20 22  1  0  0  0  0
 22 23  1  0  0  0  0
 23 24  1  0  0  0  0
 24 26  1  0  0  0  0
 25 26  1  0  0  0  0
 27 28  1  0  0  0  0
 28 30  2  0  0  0  0
 29 32  1  0  0  0  0
 29 30  1  0  0  0  0
 30 35  1  0  0  0  0
 31 33  1  0  0  0  0
 31 27  2  0  0  0  0
 33 29  2  0  0  0  0
 35 34  1  6  0  0  0
 35 37  1  0  0  0  0
 37 36  1  0  0  0  0
 39 38  1  0  0  0  0
 40 48  1  0  0  0  0
 40 39  1  0  0  0  0
 41 48  1  0  0  0  0
 42 51  1  1  0  0  0
 42 49  1  0  0  0  0
 43 46  1  0  0  0  0
 45 42  1  0  0  0  0
 45 43  1  0  0  0  0
 46 44  2  0  0  0  0
 47 48  1  0  0  0  0
 49 50  1  0  0  0  0
 49 47  1  0  0  0  0
 50 46  1  0  0  0  0
 50 47  1  0  0  0  0
 50 41  1  0  0  0  0
M  END
>  <MODEL>
8

>  <REMARK>
 VINA RESULT:      -6.7      2.759      7.331
  Name = 
  17 active torsions:
  status: ('A' for Active; 'I' for Inactive)
    1  A    between atoms: C_4  and  C_25
    2  A    between atoms: C_4  and  N_33
    3  A    between atoms: C_6  and  C_11
    4  A    between atoms: C_7  and  C_27
    5  A    between atoms: C_7  and  O_45
    6  A    between atoms: C_8  and  C_41
    7  A    between atoms: C_8  and  C_42
    8  A    between atoms: C_10  and  C_12
    9  A    between atoms: C_10  and  C_30
   10  A    between atoms: C_11  and  C_30
   11  A    between atoms: C_12  and  N_37
   12  A    between atoms: C_17  and  C_38
   13  A    between atoms: C_17  and  C_41
   14  A    between atoms: C_22  and  N_33
   15  A    between atoms: C_32  and  C_42
   16  A    between atoms: C_36  and  N_37
   17  A    between atoms: C_42  and  C_44
                            x       y       z     vdW  Elec       q    Type
                         _______ _______ _______ _____ _____    ______ ____

>  <TORSDO>
F 17

$$$$
=
 OpenBabel10222420593D

 51 57  0  0  1  0  0  0  0  0999 V2000
  191.6300  176.3970  138.1110 C   0  0  2  0  0  3  0  0  0  0  0  0
  189.2900  176.4840  137.0850 N   0  0  0  0  0  0  0  0  0  0  0  0
  187.0840  176.6770  135.8850 C   0  0  1  0  0  0  0  0  0  0  0  0
  188.1430  176.1540  134.9360 C   0  0  0  0  0  2  0  0  0  0  0  0
  188.1940  175.7690  136.4130 C   0  0  1  0  0  3  0  0  0  0  0  0
  187.9520  178.5140  137.3740 C   0  0  0  0  0  2  0  0  0  0  0  0
  190.3070  174.4560  137.6510 O   0  0  0  0  0  0  0  0  0  0  0  0
  187.1150  178.1850  136.1550 C   0  0  0  0  0  2  0  0  0  0  0  0
  190.3860  175.7160  137.6080 C   0  0  0  0  0  0  0  0  0  0  0  0
  189.3420  177.9470  137.1740 C   0  0  0  0  0  2  0  0  0  0  0  0
  185.7910  176.0120  135.7550 N   0  0  0  0  0  2  0  0  0  0  0  0
  184.7470  177.0210  135.6230 C   0  0  0  0  0  2  0  0  0  0  0  0
  182.4100  176.1630  135.2800 C   0  0  0  0  0  2  0  0  0  0  0  0
  181.7800  177.4100  134.6710 C   0  0  0  0  0  2  0  0  0  0  0  0
  183.4720  176.5570  136.3160 C   0  0  2  0  0  3  0  0  0  0  0  0
  182.9940  177.6340  137.2630 C   0  0  0  0  0  0  0  0  0  0  0  0
  181.0570  178.1830  135.7660 C   0  0  0  0  0  2  0  0  0  0  0  0
  181.9350  178.4070  136.9680 C   0  0  0  0  0  3  0  0  0  0  0  0
  183.7560  177.8730  138.4530 N   0  0  0  0  0  2  0  0  0  0  0  0
  183.6960  179.1090  139.2240 C   0  0  2  0  0  3  0  0  0  0  0  0
  184.9440  179.7350  139.2290 O   0  0  0  0  0  1  0  0  0  0  0  0
  183.2300  178.8270  140.6490 C   0  0  0  0  0  2  0  0  0  0  0  0
  182.2750  177.6370  140.7350 C   0  0  0  0  0  2  0  0  0  0  0  0
  180.8480  178.0820  141.0210 C   0  0  0  0  0  2  0  0  0  0  0  0
  180.0450  180.3300  141.1940 O   0  0  0  0  0  1  0  0  0  0  0  0
  180.8270  179.3660  141.8360 C   0  0  0  0  0  2  0  0  0  0  0  0
  193.2190  176.2190  136.1500 C   0  0  0  0  0  3  0  0  0  0  0  0
  194.3830  175.7130  135.5710 C   0  0  0  0  0  3  0  0  0  0  0  0
  194.8610  174.4790  137.6050 C   0  0  0  0  0  0  0  0  0  0  0  0
  195.2110  174.8410  136.2910 C   0  0  0  0  0  0  0  0  0  0  0  0
  192.8710  175.8640  137.4610 C   0  0  0  0  0  0  0  0  0  0  0  0
  195.8590  173.3920  138.5580 Cl  0  0  0  0  0  0  0  0  0  0  0  0
  193.6940  174.9930  138.1790 C   0  0  0  0  0  3  0  0  0  0  0  0
  196.3930  172.8640  135.5500 N   0  0  0  0  0  1  0  0  0  0  0  0
  196.4620  174.3100  135.6610 C   0  0  2  0  0  3  0  0  0  0  0  0
  197.7070  175.9680  136.2200 O   0  0  0  0  0  1  0  0  0  0  0  0
  197.5790  174.6720  136.4170 O   0  0  0  0  0  0  0  0  0  0  0  0
  191.7300  176.3510  139.6280 C   0  0  0  0  0  2  0  0  0  0  0  0
  192.4160  177.6050  140.1440 C   0  0  0  0  0  2  0  0  0  0  0  0
  192.2690  177.7060  141.6520 C   0  0  0  0  0  2  0  0  0  0  0  0
  189.9270  177.9860  142.3420 N   0  0  0  0  0  2  0  0  0  0  0  0
  191.2350  177.2580  145.9080 C   0  0  2  0  0  3  0  0  0  0  0  0
  188.8470  176.7320  145.7620 O   0  0  0  0  0  0  0  0  0  0  0  0
  187.8750  176.4390  143.6950 O   0  0  0  0  0  0  0  0  0  0  0  0
  189.8460  177.3810  146.5520 C   0  0  0  0  0  2  0  0  0  0  0  0
  188.8300  176.8970  144.3790 C   0  0  0  0  0  0  0  0  0  0  0  0
  191.0740  176.5710  143.5230 N   0  0  1  0  0  0  0  0  0  0  0  0
  190.9890  177.0160  142.1320 C   0  0  2  0  0  3  0  0  0  0  0  0
  191.2820  177.7220  144.4300 C   0  0  1  0  0  3  0  0  0  0  0  0
  190.0030  177.5620  143.7310 C   0  0  1  0  0  0  0  0  0  0  0  0
  191.7230  175.9580  146.0530 O   0  0  0  0  0  1  0  0  0  0  0  0
  1 38  1  1  0  0  0
  2 10  1  0  0  0  0
  2  9  1  0  0  0  0
  3 11  1  6  0  0  0
  3  8  1  0  0  0  0
  3  5  1  0  0  0  0
  4  3  1  0  0  0  0
  5  4  1  6  0  0  0
  5  2  1  0  0  0  0
  8  6  1  0  0  0  0
  9  7  2  0  0  0  0
  9  1  1  0  0  0  0
 10  6  1  0  0  0  0
 12 11  1  0  0  0  0
 13 15  1  0  0  0  0
 14 13  1  0  0  0  0
 14 17  1  0  0  0  0
 15 12  1  6  0  0  0
 15 16  1  0  0  0  0
 16 19  1  0  0  0  0
 17 18  1  0  0  0  0
 18 16  2  0  0  0  0
 19 20  1  0  0  0  0
 20 21  1  1  0  0  0
 20 22  1  0  0  0  0
 22 23  1  0  0  0  0
 23 24  1  0  0  0  0
 24 26  1  0  0  0  0
 25 26  1  0  0  0  0
 27 31  1  0  0  0  0
 28 27  2  0  0  0  0
 28 30  1  0  0  0  0
 29 33  1  0  0  0  0
 29 32  1  0  0  0  0
 30 29  2  0  0  0  0
 31  1  1  0  0  0  0
 31 33  2  0  0  0  0
 35 34  1  1  0  0  0
 35 30  1  0  0  0  0
 35 37  1  0  0  0  0
 36 37  1  0  0  0  0
 38 39  1  0  0  0  0
 39 40  1  0  0  0  0
 40 48  1  0  0  0  0
 41 50  1  0  0  0  0
 42 51  1  6  0  0  0
 42 45  1  0  0  0  0
 43 45  1  0  0  0  0
 44 46  2  0  0  0  0
 46 43  1  0  0  0  0
 47 50  1  0  0  0  0
 47 49  1  0  0  0  0
 48 41  1  0  0  0  0
 48 47  1  0  0  0  0
 49 42  1  0  0  0  0
 50 46  1  0  0  0  0
 50 49  1  0  0  0  0
M  END
>  <MODEL>
9

>  <REMARK>
 VINA RESULT:      -6.7      1.936      2.380
  Name = 
  17 active torsions:
  status: ('A' for Active; 'I' for Inactive)
    1  A    between atoms: C_4  and  C_25
    2  A    between atoms: C_4  and  N_33
    3  A    between atoms: C_6  and  C_11
    4  A    between atoms: C_7  and  C_27
    5  A    between atoms: C_7  and  O_45
    6  A    between atoms: C_8  and  C_41
    7  A    between atoms: C_8  and  C_42
    8  A    between atoms: C_10  and  C_12
    9  A    between atoms: C_10  and  C_30
   10  A    between atoms: C_11  and  C_30
   11  A    between atoms: C_12  and  N_37
   12  A    between atoms: C_17  and  C_38
   13  A    between atoms: C_17  and  C_41
   14  A    between atoms: C_22  and  N_33
   15  A    between atoms: C_32  and  C_42
   16  A    between atoms: C_36  and  N_37
   17  A    between atoms: C_42  and  C_44
                            x       y       z     vdW  Elec       q    Type
                         _______ _______ _______ _____ _____    ______ ____

>  <TORSDO>
F 17

$$$$
