=
 OpenBabel10222416293D

 32 36  0  0  1  0  0  0  0  0999 V2000
  188.0290  176.6980  143.2290 C   0  0  0  0  0  0  0  0  0  0  0  0
  186.9310  176.6110  143.9320 C   0  0  0  0  0  3  0  0  0  0  0  0
  189.1200  176.7680  142.5170 C   0  0  0  0  0  0  0  0  0  0  0  0
  186.8950  177.3800  146.2440 C   0  0  0  0  0  3  0  0  0  0  0  0
  185.2710  179.5570  145.7180 C   0  0  0  0  0  3  0  0  0  0  0  0
  186.4700  177.5990  144.9310 C   0  0  0  0  0  0  0  0  0  0  0  0
  186.5000  178.2460  147.2640 C   0  0  0  0  0  3  0  0  0  0  0  0
  185.6410  178.7190  144.6610 C   0  0  0  0  0  0  0  0  0  0  0  0
  185.7010  179.3080  146.9830 N   0  0  0  0  0  0  0  0  0  0  0  0
  185.1590  179.0810  143.2890 C   0  0  0  0  0  2  0  0  0  0  0  0
  183.9310  178.2690  142.8980 C   0  0  0  0  0  3  0  0  0  0  0  0
  183.8720  178.0790  141.3940 C   0  0  0  0  0  1  0  0  0  0  0  0
  182.6850  179.0050  143.3460 C   0  0  0  0  0  1  0  0  0  0  0  0
  190.2430  175.8330  142.8100 C   0  0  0  0  0  2  0  0  0  0  0  0
  191.3320  176.5530  143.5820 C   0  0  0  0  0  2  0  0  0  0  0  0
  191.5780  175.8570  144.8320 N   0  0  0  0  0  2  0  0  0  0  0  0
  191.8900  176.2790  147.2400 C   0  0  0  0  0  2  0  0  0  0  0  0
  191.6080  176.8670  145.8750 C   0  0  2  0  0  0  0  0  0  0  0  0
  190.4610  176.5430  146.8220 C   0  0  2  0  0  3  0  0  0  0  0  0
  190.3630  177.7280  145.8890 C   0  0  0  0  0  2  0  0  0  0  0  0
  189.3570  177.9770  141.6730 C   0  0  0  0  0  2  0  0  0  0  0  0
  190.7950  176.4740  137.2450 C   0  0  0  0  0  0  0  0  0  0  0  0
  189.7690  177.2960  139.2750 C   0  0  0  0  0  0  0  0  0  0  0  0
  191.6690  176.6660  138.2990 C   0  0  0  0  0  0  0  0  0  0  0  0
  192.5680  175.7210  135.8770 N   0  0  0  0  0  0  0  0  0  0  0  0
  194.7680  175.6100  136.7120 F   0  0  0  0  0  0  0  0  0  0  0  0
  193.0250  176.3830  138.1470 C   0  0  0  0  0  3  0  0  0  0  0  0
  191.2390  175.9960  136.0190 C   0  0  0  0  0  3  0  0  0  0  0  0
  191.1050  177.1300  139.4410 N   0  0  0  0  0  0  0  0  0  0  0  0
  188.8960  177.7470  140.3120 N   0  0  0  0  0  2  0  0  0  0  0  0
  189.2390  176.8850  137.7200 S   0  0  0  0  0  0  0  0  0  0  0  0
  193.4590  175.9020  136.9010 C   0  0  0  0  0  0  0  0  0  0  0  0
  1  2  2  0  0  0  0
  2  6  1  0  0  0  0
  3 14  1  0  0  0  0
  3  1  2  0  0  0  0
  4  7  1  0  0  0  0
  5  9  1  0  0  0  0
  6  4  2  0  0  0  0
  8  6  1  0  0  0  0
  8  5  2  0  0  0  0
  9  7  2  0  0  0  0
 10  8  1  0  0  0  0
 11 10  1  0  0  0  0
 11 13  1  0  0  0  0
 12 11  1  0  0  0  0
 14 15  1  0  0  0  0
 15 16  1  0  0  0  0
 18 16  1  6  0  0  0
 18 20  1  0  0  0  0
 18 19  1  0  0  0  0
 18 17  1  0  0  0  0
 19 20  1  1  0  0  0
 19 17  1  0  0  0  0
 21  3  1  0  0  0  0
 22 31  1  0  0  0  0
 22 24  1  0  0  0  0
 23 29  2  0  0  0  0
 23 30  1  0  0  0  0
 24 29  1  0  0  0  0
 25 28  1  0  0  0  0
 25 32  2  0  0  0  0
 26 32  1  0  0  0  0
 27 24  2  0  0  0  0
 28 22  2  0  0  0  0
 30 21  1  0  0  0  0
 31 23  1  0  0  0  0
 32 27  1  0  0  0  0
M  END
>  <MODEL>
1

>  <REMARK>
 VINA RESULT:      -8.7      0.000      0.000
  Name = 
  9 active torsions:
  status: ('A' for Active; 'I' for Inactive)
    1  A    between atoms: C_3  and  N_25
    2  A    between atoms: C_9  and  C_20
    3  A    between atoms: C_10  and  C_13
    4  A    between atoms: C_10  and  C_23
    5  A    between atoms: C_21  and  C_24
    6  A    between atoms: C_21  and  C_27
    7  A    between atoms: C_24  and  C_31
    8  A    between atoms: N_25  and  C_27
    9  A    between atoms: N_26  and  C_31
                            x       y       z     vdW  Elec       q    Type
                         _______ _______ _______ _____ _____    ______ ____

>  <TORSDO>
F 9

$$$$
=
 OpenBabel10222416293D

 32 36  0  0  1  0  0  0  0  0999 V2000
  188.4100  176.5280  143.3830 C   0  0  0  0  0  0  0  0  0  0  0  0
  187.2070  176.4190  143.8810 C   0  0  0  0  0  3  0  0  0  0  0  0
  189.6090  176.6190  142.8770 C   0  0  0  0  0  0  0  0  0  0  0  0
  186.9040  177.8240  145.8500 C   0  0  0  0  0  3  0  0  0  0  0  0
  184.7290  179.1800  144.8090 C   0  0  0  0  0  3  0  0  0  0  0  0
  186.4600  177.4960  144.5660 C   0  0  0  0  0  0  0  0  0  0  0  0
  186.2550  178.8150  146.5860 C   0  0  0  0  0  3  0  0  0  0  0  0
  185.3480  178.1960  144.0300 C   0  0  0  0  0  0  0  0  0  0  0  0
  185.1880  179.4670  146.0560 N   0  0  0  0  0  0  0  0  0  0  0  0
  184.8080  177.9640  142.6520 C   0  0  0  0  0  2  0  0  0  0  0  0
  185.1440  179.1210  141.7200 C   0  0  0  0  0  3  0  0  0  0  0  0
  184.2860  179.0670  140.4700 C   0  0  0  0  0  1  0  0  0  0  0  0
  186.6010  179.0260  141.3160 C   0  0  0  0  0  1  0  0  0  0  0  0
  190.7380  175.9090  143.5460 C   0  0  0  0  0  2  0  0  0  0  0  0
  191.7280  176.9150  144.1000 C   0  0  0  0  0  2  0  0  0  0  0  0
  191.1950  177.4940  145.3200 N   0  0  0  0  0  2  0  0  0  0  0  0
  189.9000  176.7450  147.2790 C   0  0  0  0  0  2  0  0  0  0  0  0
  190.9250  176.3900  146.2250 C   0  0  2  0  0  0  0  0  0  0  0  0
  191.3720  176.8460  147.6060 C   0  0  2  0  0  3  0  0  0  0  0  0
  192.1830  175.8230  146.8450 C   0  0  0  0  0  2  0  0  0  0  0  0
  189.8910  177.6810  141.8660 C   0  0  0  0  0  2  0  0  0  0  0  0
  189.8040  177.0480  137.0160 C   0  0  0  0  0  0  0  0  0  0  0  0
  190.1490  177.1610  139.4070 C   0  0  0  0  0  0  0  0  0  0  0  0
  188.7320  177.5490  137.7320 C   0  0  0  0  0  0  0  0  0  0  0  0
  188.6150  177.3270  134.9930 N   0  0  0  0  0  0  0  0  0  0  0  0
  186.4310  178.2080  134.9930 F   0  0  0  0  0  0  0  0  0  0  0  0
  187.5730  177.9490  137.0720 C   0  0  0  0  0  3  0  0  0  0  0  0
  189.7550  176.9330  135.6320 C   0  0  0  0  0  3  0  0  0  0  0  0
  188.9140  177.6140  139.0740 N   0  0  0  0  0  0  0  0  0  0  0  0
  190.6430  177.1330  140.7470 N   0  0  0  0  0  2  0  0  0  0  0  0
  191.0540  176.6620  138.0660 S   0  0  0  0  0  0  0  0  0  0  0  0
  187.5370  177.8260  135.6740 C   0  0  0  0  0  0  0  0  0  0  0  0
  1  2  2  0  0  0  0
  2  6  1  0  0  0  0
  3  1  2  0  0  0  0
  3 14  1  0  0  0  0
  4  7  1  0  0  0  0
  5  9  1  0  0  0  0
  6  4  2  0  0  0  0
  8  6  1  0  0  0  0
  8  5  2  0  0  0  0
  9  7  2  0  0  0  0
 10  8  1  0  0  0  0
 11 10  1  0  0  0  0
 12 11  1  0  0  0  0
 13 11  1  0  0  0  0
 14 15  1  0  0  0  0
 15 16  1  0  0  0  0
 17 19  1  0  0  0  0
 18 16  1  6  0  0  0
 18 20  1  0  0  0  0
 18 17  1  0  0  0  0
 18 19  1  0  0  0  0
 19 20  1  1  0  0  0
 21  3  1  0  0  0  0
 22 24  1  0  0  0  0
 22 31  1  0  0  0  0
 23 30  1  0  0  0  0
 24 29  1  0  0  0  0
 25 28  1  0  0  0  0
 25 32  2  0  0  0  0
 26 32  1  0  0  0  0
 27 24  2  0  0  0  0
 28 22  2  0  0  0  0
 29 23  2  0  0  0  0
 30 21  1  0  0  0  0
 31 23  1  0  0  0  0
 32 27  1  0  0  0  0
M  END
>  <MODEL>
2

>  <REMARK>
 VINA RESULT:      -8.6      2.259      2.794
  Name = 
  9 active torsions:
  status: ('A' for Active; 'I' for Inactive)
    1  A    between atoms: C_3  and  N_25
    2  A    between atoms: C_9  and  C_20
    3  A    between atoms: C_10  and  C_13
    4  A    between atoms: C_10  and  C_23
    5  A    between atoms: C_21  and  C_24
    6  A    between atoms: C_21  and  C_27
    7  A    between atoms: C_24  and  C_31
    8  A    between atoms: N_25  and  C_27
    9  A    between atoms: N_26  and  C_31
                            x       y       z     vdW  Elec       q    Type
                         _______ _______ _______ _____ _____    ______ ____

>  <TORSDO>
F 9

$$$$
=
 OpenBabel10222416293D

 32 36  0  0  1  0  0  0  0  0999 V2000
  187.4800  177.5920  142.6700 C   0  0  0  0  0  0  0  0  0  0  0  0
  187.7580  176.8050  143.6750 C   0  0  0  0  0  3  0  0  0  0  0  0
  187.2000  178.3620  141.6550 C   0  0  0  0  0  0  0  0  0  0  0  0
  186.8250  177.5530  145.7990 C   0  0  0  0  0  3  0  0  0  0  0  0
  189.2870  177.8070  147.0340 C   0  0  0  0  0  3  0  0  0  0  0  0
  187.9760  177.2380  145.0710 C   0  0  0  0  0  0  0  0  0  0  0  0
  186.9260  177.9890  147.1200 C   0  0  0  0  0  3  0  0  0  0  0  0
  189.2390  177.3630  145.7070 C   0  0  0  0  0  0  0  0  0  0  0  0
  188.1450  178.1080  147.7060 N   0  0  0  0  0  0  0  0  0  0  0  0
  190.5380  177.0150  145.0470 C   0  0  0  0  0  2  0  0  0  0  0  0
  190.7690  177.8530  143.7960 C   0  0  0  0  0  3  0  0  0  0  0  0
  191.6670  177.1180  142.8190 C   0  0  0  0  0  1  0  0  0  0  0  0
  191.4360  179.1550  144.1870 C   0  0  0  0  0  1  0  0  0  0  0  0
  188.2320  178.5840  140.6020 C   0  0  0  0  0  2  0  0  0  0  0  0
  188.9280  177.2790  140.2730 C   0  0  0  0  0  2  0  0  0  0  0  0
  189.3100  177.2750  138.8730 N   0  0  0  0  0  2  0  0  0  0  0  0
  187.2630  177.2340  137.5000 C   0  0  0  0  0  2  0  0  0  0  0  0
  188.3260  178.0780  138.1680 C   0  0  2  0  0  0  0  0  0  0  0  0
  188.4490  177.7150  136.6950 C   0  0  2  0  0  3  0  0  0  0  0  0
  188.9570  179.0480  137.1940 C   0  0  0  0  0  2  0  0  0  0  0  0
  186.0100  179.2610  141.7350 C   0  0  0  0  0  2  0  0  0  0  0  0
  181.2130  178.3690  141.3810 C   0  0  0  0  0  0  0  0  0  0  0  0
  183.6070  178.6730  141.2220 C   0  0  0  0  0  0  0  0  0  0  0  0
  181.8360  178.6870  142.5730 C   0  0  0  0  0  0  0  0  0  0  0  0
  179.1150  178.3040  142.4660 N   0  0  0  0  0  0  0  0  0  0  0  0
  178.9400  178.7380  144.7750 F   0  0  0  0  0  0  0  0  0  0  0  0
  181.0910  178.8180  143.7430 C   0  0  0  0  0  3  0  0  0  0  0  0
  179.8390  178.1750  141.3160 C   0  0  0  0  0  3  0  0  0  0  0  0
  183.1790  178.8570  142.4960 N   0  0  0  0  0  0  0  0  0  0  0  0
  184.9700  178.8130  140.8200 N   0  0  0  0  0  2  0  0  0  0  0  0
  182.3510  178.2910  140.1510 S   0  0  0  0  0  0  0  0  0  0  0  0
  179.7030  178.6170  143.6620 C   0  0  0  0  0  0  0  0  0  0  0  0
  1  2  2  0  0  0  0
  2  6  1  0  0  0  0
  3 21  1  0  0  0  0
  3  1  2  0  0  0  0
  4  7  1  0  0  0  0
  5  9  1  0  0  0  0
  6  8  1  0  0  0  0
  6  4  2  0  0  0  0
  7  9  2  0  0  0  0
  8  5  2  0  0  0  0
 10  8  1  0  0  0  0
 11 13  1  0  0  0  0
 11 10  1  0  0  0  0
 12 11  1  0  0  0  0
 14  3  1  0  0  0  0
 15 14  1  0  0  0  0
 16 15  1  0  0  0  0
 17 18  1  0  0  0  0
 18 16  1  1  0  0  0
 19 20  1  6  0  0  0
 19 17  1  0  0  0  0
 19 18  1  0  0  0  0
 20 18  1  0  0  0  0
 22 24  1  0  0  0  0
 23 29  2  0  0  0  0
 24 27  2  0  0  0  0
 25 32  2  0  0  0  0
 28 22  2  0  0  0  0
 28 25  1  0  0  0  0
 29 24  1  0  0  0  0
 30 23  1  0  0  0  0
 30 21  1  0  0  0  0
 31 23  1  0  0  0  0
 31 22  1  0  0  0  0
 32 27  1  0  0  0  0
 32 26  1  0  0  0  0
M  END
>  <MODEL>
3

>  <REMARK>
 VINA RESULT:      -8.4      4.303      8.498
  Name = 
  9 active torsions:
  status: ('A' for Active; 'I' for Inactive)
    1  A    between atoms: C_3  and  N_25
    2  A    between atoms: C_9  and  C_20
    3  A    between atoms: C_10  and  C_13
    4  A    between atoms: C_10  and  C_23
    5  A    between atoms: C_21  and  C_24
    6  A    between atoms: C_21  and  C_27
    7  A    between atoms: C_24  and  C_31
    8  A    between atoms: N_25  and  C_27
    9  A    between atoms: N_26  and  C_31
                            x       y       z     vdW  Elec       q    Type
                         _______ _______ _______ _____ _____    ______ ____

>  <TORSDO>
F 9

$$$$
=
 OpenBabel10222416293D

 32 36  0  0  1  0  0  0  0  0999 V2000
  186.8610  177.8340  142.5780 C   0  0  0  0  0  0  0  0  0  0  0  0
  186.7110  177.1650  143.6900 C   0  0  0  0  0  3  0  0  0  0  0  0
  187.0130  178.4860  141.4580 C   0  0  0  0  0  0  0  0  0  0  0  0
  184.9830  178.0520  145.1600 C   0  0  0  0  0  3  0  0  0  0  0  0
  186.7260  178.5790  147.2430 C   0  0  0  0  0  3  0  0  0  0  0  0
  186.3360  177.7430  144.9970 C   0  0  0  0  0  0  0  0  0  0  0  0
  184.5300  178.6180  146.3520 C   0  0  0  0  0  3  0  0  0  0  0  0
  187.2290  178.0080  146.0680 C   0  0  0  0  0  0  0  0  0  0  0  0
  185.4040  178.8700  147.3610 N   0  0  0  0  0  0  0  0  0  0  0  0
  188.6910  177.6810  146.0280 C   0  0  0  0  0  2  0  0  0  0  0  0
  189.1640  177.0820  147.3460 C   0  0  0  0  0  3  0  0  0  0  0  0
  189.3200  178.1620  148.4000 C   0  0  0  0  0  1  0  0  0  0  0  0
  190.5040  176.4100  147.1330 C   0  0  0  0  0  1  0  0  0  0  0  0
  188.3830  178.6610  140.8960 C   0  0  0  0  0  2  0  0  0  0  0  0
  189.0360  177.3080  140.6900 C   0  0  0  0  0  2  0  0  0  0  0  0
  190.3910  177.3430  141.2080 N   0  0  0  0  0  2  0  0  0  0  0  0
  191.2490  178.2590  143.3300 C   0  0  0  0  0  2  0  0  0  0  0  0
  190.2880  177.3050  142.6560 C   0  0  2  0  0  0  0  0  0  0  0  0
  191.6290  176.8040  143.1710 C   0  0  2  0  0  3  0  0  0  0  0  0
  190.4170  175.9040  143.2130 C   0  0  0  0  0  2  0  0  0  0  0  0
  185.8860  179.3230  140.9490 C   0  0  0  0  0  2  0  0  0  0  0  0
  181.2260  177.8570  141.2130 C   0  0  0  0  0  0  0  0  0  0  0  0
  183.5600  178.3460  140.8100 C   0  0  0  0  0  0  0  0  0  0  0  0
  181.8360  178.6160  142.1940 C   0  0  0  0  0  0  0  0  0  0  0  0
  179.1800  177.9300  142.3920 N   0  0  0  0  0  0  0  0  0  0  0  0
  179.0120  179.0810  144.4400 F   0  0  0  0  0  0  0  0  0  0  0  0
  181.1100  179.0450  143.3030 C   0  0  0  0  0  3  0  0  0  0  0  0
  179.8850  177.5060  141.3030 C   0  0  0  0  0  3  0  0  0  0  0  0
  183.1450  178.8930  141.9790 N   0  0  0  0  0  0  0  0  0  0  0  0
  184.8850  178.4900  140.2980 N   0  0  0  0  0  2  0  0  0  0  0  0
  182.3340  177.5000  140.0050 S   0  0  0  0  0  0  0  0  0  0  0  0
  179.7560  178.6810  143.3820 C   0  0  0  0  0  0  0  0  0  0  0  0
  1  2  2  0  0  0  0
  2  6  1  0  0  0  0
  3  1  2  0  0  0  0
  4  7  1  0  0  0  0
  5  9  1  0  0  0  0
  6  4  2  0  0  0  0
  6  8  1  0  0  0  0
  7  9  2  0  0  0  0
  8  5  2  0  0  0  0
 10  8  1  0  0  0  0
 10 11  1  0  0  0  0
 11 12  1  0  0  0  0
 13 11  1  0  0  0  0
 14  3  1  0  0  0  0
 15 14  1  0  0  0  0
 15 16  1  0  0  0  0
 18 16  1  6  0  0  0
 18 19  1  0  0  0  0
 18 20  1  0  0  0  0
 18 17  1  0  0  0  0
 19 20  1  1  0  0  0
 19 17  1  0  0  0  0
 21  3  1  0  0  0  0
 22 28  2  0  0  0  0
 22 24  1  0  0  0  0
 23 29  2  0  0  0  0
 24 27  2  0  0  0  0
 25 32  2  0  0  0  0
 27 32  1  0  0  0  0
 28 25  1  0  0  0  0
 29 24  1  0  0  0  0
 30 23  1  0  0  0  0
 30 21  1  0  0  0  0
 31 23  1  0  0  0  0
 31 22  1  0  0  0  0
 32 26  1  0  0  0  0
M  END
>  <MODEL>
4

>  <REMARK>
 VINA RESULT:      -8.4      4.263      7.727
  Name = 
  9 active torsions:
  status: ('A' for Active; 'I' for Inactive)
    1  A    between atoms: C_3  and  N_25
    2  A    between atoms: C_9  and  C_20
    3  A    between atoms: C_10  and  C_13
    4  A    between atoms: C_10  and  C_23
    5  A    between atoms: C_21  and  C_24
    6  A    between atoms: C_21  and  C_27
    7  A    between atoms: C_24  and  C_31
    8  A    between atoms: N_25  and  C_27
    9  A    between atoms: N_26  and  C_31
                            x       y       z     vdW  Elec       q    Type
                         _______ _______ _______ _____ _____    ______ ____

>  <TORSDO>
F 9

$$$$
=
 OpenBabel10222416293D

 32 36  0  0  1  0  0  0  0  0999 V2000
  188.4530  177.0380  142.4420 C   0  0  0  0  0  0  0  0  0  0  0  0
  187.9300  176.4710  143.4960 C   0  0  0  0  0  3  0  0  0  0  0  0
  188.9700  177.5900  141.3790 C   0  0  0  0  0  0  0  0  0  0  0  0
  186.4710  177.1280  145.3350 C   0  0  0  0  0  3  0  0  0  0  0  0
  188.5080  178.2600  146.8270 C   0  0  0  0  0  3  0  0  0  0  0  0
  187.7720  177.1030  144.8230 C   0  0  0  0  0  0  0  0  0  0  0  0
  186.2150  177.7170  146.5730 C   0  0  0  0  0  3  0  0  0  0  0  0
  188.8170  177.6790  145.5910 C   0  0  0  0  0  0  0  0  0  0  0  0
  187.2300  178.2690  147.2880 N   0  0  0  0  0  0  0  0  0  0  0  0
  190.2550  177.6750  145.1700 C   0  0  0  0  0  2  0  0  0  0  0  0
  190.9020  176.3160  145.4070 C   0  0  0  0  0  3  0  0  0  0  0  0
  191.8530  176.3760  146.5880 C   0  0  0  0  0  1  0  0  0  0  0  0
  191.6810  175.9150  144.1720 C   0  0  0  0  0  1  0  0  0  0  0  0
  190.3020  177.1270  140.8920 C   0  0  0  0  0  2  0  0  0  0  0  0
  190.3690  177.2350  139.3820 C   0  0  0  0  0  2  0  0  0  0  0  0
  190.6090  175.9210  138.8150 N   0  0  0  0  0  2  0  0  0  0  0  0
  191.2590  175.0040  136.6210 C   0  0  0  0  0  2  0  0  0  0  0  0
  191.4260  176.1180  137.6310 C   0  0  2  0  0  0  0  0  0  0  0  0
  192.4160  174.9630  137.5930 C   0  0  2  0  0  3  0  0  0  0  0  0
  192.8840  176.3520  137.9610 C   0  0  0  0  0  2  0  0  0  0  0  0
  188.4000  178.8760  140.8810 C   0  0  0  0  0  2  0  0  0  0  0  0
  183.5170  178.6210  141.0660 C   0  0  0  0  0  0  0  0  0  0  0  0
  185.8960  178.6330  140.6330 C   0  0  0  0  0  0  0  0  0  0  0  0
  184.3090  178.7720  142.1890 C   0  0  0  0  0  0  0  0  0  0  0  0
  181.5670  178.7410  142.3940 N   0  0  0  0  0  0  0  0  0  0  0  0
  181.7160  179.0270  144.7270 F   0  0  0  0  0  0  0  0  0  0  0  0
  183.7260  178.9110  143.4460 C   0  0  0  0  0  3  0  0  0  0  0  0
  182.1310  178.6060  141.1590 C   0  0  0  0  0  3  0  0  0  0  0  0
  185.6450  178.7780  141.9570 N   0  0  0  0  0  0  0  0  0  0  0  0
  187.2120  178.6290  140.0760 N   0  0  0  0  0  2  0  0  0  0  0  0
  184.4880  178.4900  139.7040 S   0  0  0  0  0  0  0  0  0  0  0  0
  182.3240  178.8910  143.5250 C   0  0  0  0  0  0  0  0  0  0  0  0
  1  2  2  0  0  0  0
  2  6  1  0  0  0  0
  3  1  2  0  0  0  0
  4  7  1  0  0  0  0
  5  9  1  0  0  0  0
  6  4  2  0  0  0  0
  6  8  1  0  0  0  0
  7  9  2  0  0  0  0
  8  5  2  0  0  0  0
 10 11  1  0  0  0  0
 10  8  1  0  0  0  0
 11 12  1  0  0  0  0
 13 11  1  0  0  0  0
 14  3  1  0  0  0  0
 15 14  1  0  0  0  0
 16 15  1  0  0  0  0
 17 18  1  0  0  0  0
 18 20  1  0  0  0  0
 18 16  1  1  0  0  0
 19 17  1  6  0  0  0
 19 18  1  0  0  0  0
 19 20  1  0  0  0  0
 21  3  1  0  0  0  0
 22 28  2  0  0  0  0
 22 24  1  0  0  0  0
 23 29  2  0  0  0  0
 24 27  2  0  0  0  0
 25 32  2  0  0  0  0
 27 32  1  0  0  0  0
 28 25  1  0  0  0  0
 29 24  1  0  0  0  0
 30 23  1  0  0  0  0
 30 21  1  0  0  0  0
 31 23  1  0  0  0  0
 31 22  1  0  0  0  0
 32 26  1  0  0  0  0
M  END
>  <MODEL>
5

>  <REMARK>
 VINA RESULT:      -8.2      3.403      7.480
  Name = 
  9 active torsions:
  status: ('A' for Active; 'I' for Inactive)
    1  A    between atoms: C_3  and  N_25
    2  A    between atoms: C_9  and  C_20
    3  A    between atoms: C_10  and  C_13
    4  A    between atoms: C_10  and  C_23
    5  A    between atoms: C_21  and  C_24
    6  A    between atoms: C_21  and  C_27
    7  A    between atoms: C_24  and  C_31
    8  A    between atoms: N_25  and  C_27
    9  A    between atoms: N_26  and  C_31
                            x       y       z     vdW  Elec       q    Type
                         _______ _______ _______ _____ _____    ______ ____

>  <TORSDO>
F 9

$$$$
=
 OpenBabel10222416293D

 32 36  0  0  1  0  0  0  0  0999 V2000
  184.6940  178.4410  141.9700 C   0  0  0  0  0  0  0  0  0  0  0  0
  185.3830  178.3190  143.0730 C   0  0  0  0  0  3  0  0  0  0  0  0
  183.9930  178.5720  140.8770 C   0  0  0  0  0  0  0  0  0  0  0  0
  187.5290  177.8810  142.0050 C   0  0  0  0  0  3  0  0  0  0  0  0
  188.6670  176.7650  144.2670 C   0  0  0  0  0  3  0  0  0  0  0  0
  186.7630  177.8010  143.1720 C   0  0  0  0  0  0  0  0  0  0  0  0
  188.8390  177.4030  141.9910 C   0  0  0  0  0  3  0  0  0  0  0  0
  187.3490  177.2330  144.3330 C   0  0  0  0  0  0  0  0  0  0  0  0
  189.3770  176.8570  143.1120 N   0  0  0  0  0  0  0  0  0  0  0  0
  186.6450  177.1320  145.6520 C   0  0  0  0  0  2  0  0  0  0  0  0
  186.9660  178.3210  146.5480 C   0  0  0  0  0  3  0  0  0  0  0  0
  187.6820  177.8640  147.8050 C   0  0  0  0  0  1  0  0  0  0  0  0
  185.6750  179.0070  146.9430 C   0  0  0  0  0  1  0  0  0  0  0  0
  182.8360  177.6620  140.6410 C   0  0  0  0  0  2  0  0  0  0  0  0
  181.5450  178.4570  140.6200 C   0  0  0  0  0  2  0  0  0  0  0  0
  180.7340  178.0890  141.7670 N   0  0  0  0  0  2  0  0  0  0  0  0
  181.6370  178.7490  143.9630 C   0  0  0  0  0  2  0  0  0  0  0  0
  180.8610  179.1650  142.7330 C   0  0  2  0  0  0  0  0  0  0  0  0
  180.1260  178.7100  143.9850 C   0  0  2  0  0  3  0  0  0  0  0  0
  179.5280  179.7790  143.1000 C   0  0  0  0  0  2  0  0  0  0  0  0
  184.5510  179.3780  139.7510 C   0  0  0  0  0  2  0  0  0  0  0  0
  187.6160  176.8890  136.8610 C   0  0  0  0  0  0  0  0  0  0  0  0
  185.8500  178.0500  138.0370 C   0  0  0  0  0  0  0  0  0  0  0  0
  188.0410  177.6620  137.9260 C   0  0  0  0  0  0  0  0  0  0  0  0
  189.8400  176.2200  136.4250 N   0  0  0  0  0  0  0  0  0  0  0  0
  191.6150  177.0030  137.7610 F   0  0  0  0  0  0  0  0  0  0  0  0
  189.3930  177.7210  138.2550 C   0  0  0  0  0  3  0  0  0  0  0  0
  188.5160  176.1570  136.0980 C   0  0  0  0  0  3  0  0  0  0  0  0
  187.0590  178.3190  138.5910 N   0  0  0  0  0  0  0  0  0  0  0  0
  184.6200  178.5770  138.5370 N   0  0  0  0  0  2  0  0  0  0  0  0
  185.9480  177.0010  136.7120 S   0  0  0  0  0  0  0  0  0  0  0  0
  190.2920  176.9770  137.4730 C   0  0  0  0  0  0  0  0  0  0  0  0
  1  2  2  0  0  0  0
  2  6  1  0  0  0  0
  3  1  2  0  0  0  0
  4  6  1  0  0  0  0
  5  8  1  0  0  0  0
  6  8  2  0  0  0  0
  7  4  2  0  0  0  0
  7  9  1  0  0  0  0
  8 10  1  0  0  0  0
  9  5  2  0  0  0  0
 10 11  1  0  0  0  0
 11 13  1  0  0  0  0
 11 12  1  0  0  0  0
 14  3  1  0  0  0  0
 15 14  1  0  0  0  0
 15 16  1  0  0  0  0
 17 19  1  0  0  0  0
 18 16  1  6  0  0  0
 18 20  1  0  0  0  0
 18 17  1  0  0  0  0
 18 19  1  0  0  0  0
 19 20  1  1  0  0  0
 21  3  1  0  0  0  0
 22 24  1  0  0  0  0
 23 30  1  0  0  0  0
 23 29  2  0  0  0  0
 24 27  2  0  0  0  0
 24 29  1  0  0  0  0
 25 32  2  0  0  0  0
 28 25  1  0  0  0  0
 28 22  2  0  0  0  0
 30 21  1  0  0  0  0
 31 22  1  0  0  0  0
 31 23  1  0  0  0  0
 32 26  1  0  0  0  0
 32 27  1  0  0  0  0
M  END
>  <MODEL>
6

>  <REMARK>
 VINA RESULT:      -8.2      2.583      6.289
  Name = 
  9 active torsions:
  status: ('A' for Active; 'I' for Inactive)
    1  A    between atoms: C_3  and  N_25
    2  A    between atoms: C_9  and  C_20
    3  A    between atoms: C_10  and  C_13
    4  A    between atoms: C_10  and  C_23
    5  A    between atoms: C_21  and  C_24
    6  A    between atoms: C_21  and  C_27
    7  A    between atoms: C_24  and  C_31
    8  A    between atoms: N_25  and  C_27
    9  A    between atoms: N_26  and  C_31
                            x       y       z     vdW  Elec       q    Type
                         _______ _______ _______ _____ _____    ______ ____

>  <TORSDO>
F 9

$$$$
=
 OpenBabel10222416293D

 32 36  0  0  1  0  0  0  0  0999 V2000
  187.9360  177.1920  142.7660 C   0  0  0  0  0  0  0  0  0  0  0  0
  187.2050  176.7560  143.7580 C   0  0  0  0  0  3  0  0  0  0  0  0
  188.6640  177.6090  141.7680 C   0  0  0  0  0  0  0  0  0  0  0  0
  187.0690  177.2590  146.1390 C   0  0  0  0  0  3  0  0  0  0  0  0
  185.2830  179.3470  145.8120 C   0  0  0  0  0  3  0  0  0  0  0  0
  186.6490  177.5880  144.8470 C   0  0  0  0  0  0  0  0  0  0  0  0
  186.5880  177.9740  147.2360 C   0  0  0  0  0  3  0  0  0  0  0  0
  185.7380  178.6620  144.6790 C   0  0  0  0  0  0  0  0  0  0  0  0
  185.7110  178.9940  147.0530 N   0  0  0  0  0  0  0  0  0  0  0  0
  185.2500  179.1350  143.3440 C   0  0  0  0  0  2  0  0  0  0  0  0
  184.0670  178.3080  142.8570 C   0  0  0  0  0  3  0  0  0  0  0  0
  184.1190  178.1350  141.3510 C   0  0  0  0  0  1  0  0  0  0  0  0
  182.7810  179.0200  143.2230 C   0  0  0  0  0  1  0  0  0  0  0  0
  190.1120  177.2540  141.7230 C   0  0  0  0  0  2  0  0  0  0  0  0
  190.8290  177.8430  142.9220 C   0  0  0  0  0  2  0  0  0  0  0  0
  191.1890  176.7790  143.8400 N   0  0  0  0  0  2  0  0  0  0  0  0
  191.8400  176.3990  146.1870 C   0  0  0  0  0  2  0  0  0  0  0  0
  191.4350  177.4010  145.1280 C   0  0  2  0  0  0  0  0  0  0  0  0
  190.3960  176.8360  146.0860 C   0  0  2  0  0  3  0  0  0  0  0  0
  190.2780  178.2590  145.5910 C   0  0  0  0  0  2  0  0  0  0  0  0
  188.1360  178.6960  140.8900 C   0  0  0  0  0  2  0  0  0  0  0  0
  187.0880  177.8130  136.1930 C   0  0  0  0  0  0  0  0  0  0  0  0
  187.9520  178.2590  138.4080 C   0  0  0  0  0  0  0  0  0  0  0  0
  186.1710  177.6540  137.2150 C   0  0  0  0  0  0  0  0  0  0  0  0
  185.4490  177.2280  134.5960 N   0  0  0  0  0  0  0  0  0  0  0  0
  183.2540  176.6940  135.2640 F   0  0  0  0  0  0  0  0  0  0  0  0
  184.8610  177.2730  136.9300 C   0  0  0  0  0  3  0  0  0  0  0  0
  186.7340  177.6010  134.8670 C   0  0  0  0  0  3  0  0  0  0  0  0
  186.6450  177.8990  138.4610 N   0  0  0  0  0  0  0  0  0  0  0  0
  188.7210  178.6070  139.5600 N   0  0  0  0  0  2  0  0  0  0  0  0
  188.5670  178.2830  136.8310 S   0  0  0  0  0  0  0  0  0  0  0  0
  184.5180  177.0610  135.5850 C   0  0  0  0  0  0  0  0  0  0  0  0
  1  2  2  0  0  0  0
  2  6  1  0  0  0  0
  3  1  2  0  0  0  0
  4  7  1  0  0  0  0
  5  9  1  0  0  0  0
  6  4  2  0  0  0  0
  8  6  1  0  0  0  0
  8  5  2  0  0  0  0
  9  7  2  0  0  0  0
 10  8  1  0  0  0  0
 11 13  1  0  0  0  0
 11 10  1  0  0  0  0
 12 11  1  0  0  0  0
 14  3  1  0  0  0  0
 14 15  1  0  0  0  0
 15 16  1  0  0  0  0
 18 16  1  6  0  0  0
 18 20  1  0  0  0  0
 18 19  1  0  0  0  0
 18 17  1  0  0  0  0
 19 20  1  1  0  0  0
 19 17  1  0  0  0  0
 21  3  1  0  0  0  0
 22 31  1  0  0  0  0
 22 24  1  0  0  0  0
 23 29  2  0  0  0  0
 23 30  1  0  0  0  0
 24 29  1  0  0  0  0
 25 28  1  0  0  0  0
 25 32  2  0  0  0  0
 26 32  1  0  0  0  0
 27 24  2  0  0  0  0
 28 22  2  0  0  0  0
 30 21  1  0  0  0  0
 31 23  1  0  0  0  0
 32 27  1  0  0  0  0
M  END
>  <MODEL>
7

>  <REMARK>
 VINA RESULT:      -8.1      3.186      3.801
  Name = 
  9 active torsions:
  status: ('A' for Active; 'I' for Inactive)
    1  A    between atoms: C_3  and  N_25
    2  A    between atoms: C_9  and  C_20
    3  A    between atoms: C_10  and  C_13
    4  A    between atoms: C_10  and  C_23
    5  A    between atoms: C_21  and  C_24
    6  A    between atoms: C_21  and  C_27
    7  A    between atoms: C_24  and  C_31
    8  A    between atoms: N_25  and  C_27
    9  A    between atoms: N_26  and  C_31
                            x       y       z     vdW  Elec       q    Type
                         _______ _______ _______ _____ _____    ______ ____

>  <TORSDO>
F 9

$$$$
=
 OpenBabel10222416293D

 32 36  0  0  1  0  0  0  0  0999 V2000
  188.1820  177.1940  142.9910 C   0  0  0  0  0  0  0  0  0  0  0  0
  187.3510  176.7130  143.8770 C   0  0  0  0  0  3  0  0  0  0  0  0
  189.0140  177.6570  142.0990 C   0  0  0  0  0  0  0  0  0  0  0  0
  185.4740  178.2160  144.2740 C   0  0  0  0  0  3  0  0  0  0  0  0
  185.9510  178.4390  146.9890 C   0  0  0  0  0  3  0  0  0  0  0  0
  186.5480  177.5130  144.8260 C   0  0  0  0  0  0  0  0  0  0  0  0
  184.6660  179.0140  145.0840 C   0  0  0  0  0  3  0  0  0  0  0  0
  186.7890  177.6240  146.2200 C   0  0  0  0  0  0  0  0  0  0  0  0
  184.9190  179.1110  146.4140 N   0  0  0  0  0  0  0  0  0  0  0  0
  187.8810  176.8860  146.9340 C   0  0  0  0  0  2  0  0  0  0  0  0
  189.1460  177.7290  147.0400 C   0  0  0  0  0  3  0  0  0  0  0  0
  190.3700  176.9000  146.7000 C   0  0  0  0  0  1  0  0  0  0  0  0
  189.2820  178.2430  148.4570 C   0  0  0  0  0  1  0  0  0  0  0  0
  190.4780  177.4570  142.2950 C   0  0  0  0  0  2  0  0  0  0  0  0
  191.1910  177.4910  140.9580 C   0  0  0  0  0  2  0  0  0  0  0  0
  190.7420  176.3750  140.1440 N   0  0  0  0  0  2  0  0  0  0  0  0
  189.7460  176.3150  137.8910 C   0  0  0  0  0  2  0  0  0  0  0  0
  190.8950  176.7790  138.7580 C   0  0  2  0  0  0  0  0  0  0  0  0
  191.0160  175.4970  137.9470 C   0  0  2  0  0  3  0  0  0  0  0  0
  192.2290  176.3680  138.1750 C   0  0  0  0  0  2  0  0  0  0  0  0
  188.5230  178.6520  141.1000 C   0  0  0  0  0  2  0  0  0  0  0  0
  184.1360  178.2790  138.9660 C   0  0  0  0  0  0  0  0  0  0  0  0
  186.1310  178.6400  140.2850 C   0  0  0  0  0  0  0  0  0  0  0  0
  185.3220  178.0000  138.3110 C   0  0  0  0  0  0  0  0  0  0  0  0
  182.9010  177.6610  137.0500 N   0  0  0  0  0  0  0  0  0  0  0  0
  183.9970  176.9290  135.0970 F   0  0  0  0  0  0  0  0  0  0  0  0
  185.3050  177.5420  136.9960 C   0  0  0  0  0  3  0  0  0  0  0  0
  182.9090  178.1100  138.3380 C   0  0  0  0  0  3  0  0  0  0  0  0
  186.4460  178.2010  139.0410 N   0  0  0  0  0  0  0  0  0  0  0  0
  187.1040  178.9130  141.2940 N   0  0  0  0  0  2  0  0  0  0  0  0
  184.4630  178.7990  140.5280 S   0  0  0  0  0  0  0  0  0  0  0  0
  184.0570  177.3770  136.3730 C   0  0  0  0  0  0  0  0  0  0  0  0
  1  2  2  0  0  0  0
  2  6  1  0  0  0  0
  3 14  1  0  0  0  0
  3  1  2  0  0  0  0
  4  6  2  0  0  0  0
  4  7  1  0  0  0  0
  6  8  1  0  0  0  0
  7  9  2  0  0  0  0
  8 10  1  0  0  0  0
  8  5  2  0  0  0  0
  9  5  1  0  0  0  0
 10 11  1  0  0  0  0
 11 13  1  0  0  0  0
 12 11  1  0  0  0  0
 15 14  1  0  0  0  0
 16 15  1  0  0  0  0
 17 18  1  0  0  0  0
 18 16  1  1  0  0  0
 19 17  1  6  0  0  0
 19 20  1  0  0  0  0
 19 18  1  0  0  0  0
 20 18  1  0  0  0  0
 21 30  1  0  0  0  0
 21  3  1  0  0  0  0
 22 31  1  0  0  0  0
 23 31  1  0  0  0  0
 23 30  1  0  0  0  0
 24 22  2  0  0  0  0
 24 29  1  0  0  0  0
 25 28  2  0  0  0  0
 26 32  1  0  0  0  0
 27 24  1  0  0  0  0
 28 22  1  0  0  0  0
 29 23  2  0  0  0  0
 32 27  2  0  0  0  0
 32 25  1  0  0  0  0
M  END
>  <MODEL>
8

>  <REMARK>
 VINA RESULT:      -8.1      3.187      6.084
  Name = 
  9 active torsions:
  status: ('A' for Active; 'I' for Inactive)
    1  A    between atoms: C_3  and  N_25
    2  A    between atoms: C_9  and  C_20
    3  A    between atoms: C_10  and  C_13
    4  A    between atoms: C_10  and  C_23
    5  A    between atoms: C_21  and  C_24
    6  A    between atoms: C_21  and  C_27
    7  A    between atoms: C_24  and  C_31
    8  A    between atoms: N_25  and  C_27
    9  A    between atoms: N_26  and  C_31
                            x       y       z     vdW  Elec       q    Type
                         _______ _______ _______ _____ _____    ______ ____

>  <TORSDO>
F 9

$$$$
=
 OpenBabel10222416293D

 32 36  0  0  1  0  0  0  0  0999 V2000
  188.0900  177.3500  142.2280 C   0  0  0  0  0  0  0  0  0  0  0  0
  188.5480  176.5180  143.1250 C   0  0  0  0  0  3  0  0  0  0  0  0
  187.6280  178.1660  141.3200 C   0  0  0  0  0  0  0  0  0  0  0  0
  190.3620  176.8490  144.7190 C   0  0  0  0  0  3  0  0  0  0  0  0
  188.6840  177.5390  146.8080 C   0  0  0  0  0  3  0  0  0  0  0  0
  188.9830  176.8810  144.4900 C   0  0  0  0  0  0  0  0  0  0  0  0
  190.8720  177.1580  145.9800 C   0  0  0  0  0  3  0  0  0  0  0  0
  188.1240  177.2400  145.5610 C   0  0  0  0  0  0  0  0  0  0  0  0
  190.0300  177.4930  146.9920 N   0  0  0  0  0  0  0  0  0  0  0  0
  186.6350  177.3510  145.4270 C   0  0  0  0  0  2  0  0  0  0  0  0
  186.1270  178.6880  145.9490 C   0  0  0  0  0  3  0  0  0  0  0  0
  185.4740  178.5180  147.3080 C   0  0  0  0  0  1  0  0  0  0  0  0
  185.1020  179.2420  144.9810 C   0  0  0  0  0  1  0  0  0  0  0  0
  188.4670  178.4820  140.1290 C   0  0  0  0  0  2  0  0  0  0  0  0
  189.0330  177.2050  139.5400 C   0  0  0  0  0  2  0  0  0  0  0  0
  188.3540  176.9060  138.2920 N   0  0  0  0  0  2  0  0  0  0  0  0
  186.5060  178.1680  137.2580 C   0  0  0  0  0  2  0  0  0  0  0  0
  187.9450  178.1780  137.7230 C   0  0  2  0  0  0  0  0  0  0  0  0
  187.6130  177.9100  136.2620 C   0  0  2  0  0  3  0  0  0  0  0  0
  188.8770  178.6530  136.6290 C   0  0  0  0  0  2  0  0  0  0  0  0
  186.4470  179.0190  141.6480 C   0  0  0  0  0  2  0  0  0  0  0  0
  181.5980  178.7090  141.0760 C   0  0  0  0  0  0  0  0  0  0  0  0
  184.0140  178.7800  141.0070 C   0  0  0  0  0  0  0  0  0  0  0  0
  182.2110  178.7600  142.3140 C   0  0  0  0  0  0  0  0  0  0  0  0
  179.4700  178.6880  142.1020 N   0  0  0  0  0  0  0  0  0  0  0  0
  179.2650  178.7570  144.4480 F   0  0  0  0  0  0  0  0  0  0  0  0
  181.4440  178.7760  143.4770 C   0  0  0  0  0  3  0  0  0  0  0  0
  180.2140  178.6730  140.9580 C   0  0  0  0  0  3  0  0  0  0  0  0
  183.5660  178.7980  142.2860 N   0  0  0  0  0  0  0  0  0  0  0  0
  185.3970  178.8380  140.6550 N   0  0  0  0  0  2  0  0  0  0  0  0
  182.7620  178.7120  139.8680 S   0  0  0  0  0  0  0  0  0  0  0  0
  180.0470  178.7380  143.3430 C   0  0  0  0  0  0  0  0  0  0  0  0
  1  2  2  0  0  0  0
  2  6  1  0  0  0  0
  3 21  1  0  0  0  0
  3  1  2  0  0  0  0
  4  7  1  0  0  0  0
  5  9  1  0  0  0  0
  6  4  2  0  0  0  0
  6  8  1  0  0  0  0
  7  9  2  0  0  0  0
  8  5  2  0  0  0  0
 10  8  1  0  0  0  0
 10 11  1  0  0  0  0
 11 12  1  0  0  0  0
 13 11  1  0  0  0  0
 14  3  1  0  0  0  0
 15 14  1  0  0  0  0
 16 15  1  0  0  0  0
 17 18  1  0  0  0  0
 18 16  1  1  0  0  0
 19 20  1  6  0  0  0
 19 17  1  0  0  0  0
 19 18  1  0  0  0  0
 20 18  1  0  0  0  0
 22 24  1  0  0  0  0
 23 29  2  0  0  0  0
 24 27  2  0  0  0  0
 25 32  2  0  0  0  0
 28 22  2  0  0  0  0
 28 25  1  0  0  0  0
 29 24  1  0  0  0  0
 30 23  1  0  0  0  0
 30 21  1  0  0  0  0
 31 23  1  0  0  0  0
 31 22  1  0  0  0  0
 32 27  1  0  0  0  0
 32 26  1  0  0  0  0
M  END
>  <MODEL>
9

>  <REMARK>
 VINA RESULT:      -8.1      4.251      8.222
  Name = 
  9 active torsions:
  status: ('A' for Active; 'I' for Inactive)
    1  A    between atoms: C_3  and  N_25
    2  A    between atoms: C_9  and  C_20
    3  A    between atoms: C_10  and  C_13
    4  A    between atoms: C_10  and  C_23
    5  A    between atoms: C_21  and  C_24
    6  A    between atoms: C_21  and  C_27
    7  A    between atoms: C_24  and  C_31
    8  A    between atoms: N_25  and  C_27
    9  A    between atoms: N_26  and  C_31
                            x       y       z     vdW  Elec       q    Type
                         _______ _______ _______ _____ _____    ______ ____

>  <TORSDO>
F 9

$$$$
