=
 OpenBabel10222418393D

 66 72  0  0  1  0  0  0  0  0999 V2000
  188.8120  176.9920  141.7390 N   0  0  0  0  0  0  0  0  0  0  0  0
  191.5720  177.5010  141.2400 N   0  0  0  0  0  0  0  0  0  0  0  0
  190.7790  176.8540  140.2470 C   0  0  0  0  0  0  0  0  0  0  0  0
  191.0570  178.0010  142.3230 C   0  0  0  0  0  0  0  0  0  0  0  0
  189.2860  176.9200  140.3460 C   0  0  2  0  0  3  0  0  0  0  0  0
  188.9240  179.2450  142.7470 C   0  0  0  0  0  1  0  0  0  0  0  0
  189.5820  177.8810  142.6340 C   0  0  1  0  0  3  0  0  0  0  0  0
  191.3460  176.1950  139.2360 C   0  0  0  0  0  3  0  0  0  0  0  0
  188.6690  177.9920  139.4220 C   0  0  2  0  0  3  0  0  0  0  0  0
  187.3240  178.5260  139.9090 C   0  0  0  0  0  1  0  0  0  0  0  0
  188.6520  177.5730  137.9450 C   0  0  2  0  0  3  0  0  0  0  0  0
  189.9840  177.8890  137.2820 C   0  0  0  0  0  1  0  0  0  0  0  0
  187.5600  178.2270  137.2290 N   0  0  0  0  0  2  0  0  0  0  0  0
  187.2830  176.0840  136.1400 C   0  0  0  0  0  1  0  0  0  0  0  0
  186.5710  177.2310  136.8300 C   0  0  2  0  0  3  0  0  0  0  0  0
  185.3360  177.9700  135.7040 S   0  0  0  0  0  0  0  0  0  0  0  0
  182.7250  177.8290  136.9540 C   0  0  1  0  0  3  0  0  0  0  0  0
  181.3510  170.9250  135.8460 C   0  0  0  0  0  0  0  0  0  0  0  0
  183.9050  175.1850  134.5940 C   0  0  0  0  0  2  0  0  0  0  0  0
  179.5550  171.1030  137.4550 O   0  0  0  0  0  1  0  0  0  0  0  0
  183.6050  175.5800  136.0250 C   0  0  1  0  0  3  0  0  0  0  0  0
  184.2910  173.4140  134.5940 S   0  0  0  0  0  0  0  0  0  0  0  0
  181.1320  175.7450  135.4870 C   0  0  0  0  0  1  0  0  0  0  0  0
  183.8900  177.0570  136.3660 C   0  0  1  0  0  0  0  0  0  0  0  0
  184.3800  178.2970  138.4720 O   0  0  0  0  0  1  0  0  0  0  0  0
  181.0360  169.6290  135.6080 F   0  0  0  0  0  0  0  0  0  0  0  0
  182.4280  171.5060  135.1760 C   0  0  0  0  0  3  0  0  0  0  0  0
  182.0240  173.6210  136.3250 C   0  0  0  0  0  0  0  0  0  0  0  0
  180.9410  173.0140  136.9880 C   0  0  0  0  0  3  0  0  0  0  0  0
  182.2690  177.0810  138.2020 C   0  0  1  0  0  3  0  0  0  0  0  0
  182.7800  172.8400  135.4060 C   0  0  0  0  0  0  0  0  0  0  0  0
  182.1710  175.1300  136.4300 C   0  0  1  0  0  0  0  0  0  0  0  0
  181.8580  175.6210  137.8790 C   0  0  0  0  0  2  0  0  0  0  0  0
  183.7420  177.2070  137.8760 C   0  0  1  0  0  0  0  0  0  0  0  0
  180.6180  171.6750  136.7690 C   0  0  0  0  0  0  0  0  0  0  0  0
  189.9750  175.4930  143.1020 O   0  0  0  0  0  1  0  0  0  0  0  0
  188.8360  175.6470  142.3070 C   0  0  0  0  0  2  0  0  0  0  0  0
  191.8660  178.6780  143.2380 O   0  0  0  0  0  0  0  0  0  0  0  0
  192.4390  178.0320  144.3700 C   0  0  0  0  0  2  0  0  0  0  0  0
  191.4420  177.0570  144.9770 C   0  0  0  0  0  2  0  0  0  0  0  0
  190.1640  176.6580  146.9300 C   0  0  0  0  0  2  0  0  0  0  0  0
  189.2830  177.1880  145.8950 C   0  0  2  0  0  3  0  0  0  0  0  0
  190.6540  177.7070  146.0180 N   0  0  0  0  0  0  0  0  0  0  0  0
  188.3200  178.2000  146.4970 C   0  0  2  0  0  3  0  0  0  0  0  0
  188.0340  177.8600  147.8230 O   0  0  0  0  0  1  0  0  0  0  0  0
  186.0670  179.0000  146.3830 O   0  0  0  0  0  1  0  0  0  0  0  0
  186.4950  176.9240  145.2930 C   0  0  0  0  0  1  0  0  0  0  0  0
  187.0360  178.2950  145.6700 C   0  0  2  0  0  3  0  0  0  0  0  0
  192.8300  176.0700  139.0810 C   0  0  0  0  0  2  0  0  0  0  0  0
  193.7760  177.9470  137.9590 O   0  0  0  0  0  0  0  0  0  0  0  0
  193.3000  176.7850  137.8610 C   0  0  0  0  0  0  0  0  0  0  0  0
  193.2090  176.1490  136.6230 O   0  0  0  0  0  0  0  0  0  0  0  0
  193.3480  174.7390  136.4830 C   0  0  1  0  0  3  0  0  0  0  0  0
  192.4230  174.2100  135.3840 C   0  0  1  0  0  3  0  0  0  0  0  0
  192.6030  172.8350  135.2180 O   0  0  0  0  0  1  0  0  0  0  0  0
  190.9460  174.5200  135.6540 C   0  0  0  0  0  2  0  0  0  0  0  0
  190.1140  173.2730  135.9590 C   0  0  2  0  0  3  0  0  0  0  0  0
  189.4190  172.8530  134.8220 O   0  0  0  0  0  1  0  0  0  0  0  0
  188.5010  172.3140  137.5330 N   0  0  0  0  0  1  0  0  0  0  0  0
  189.1420  173.5450  137.0990 C   0  0  0  0  0  2  0  0  0  0  0  0
  194.8080  174.3660  136.2230 C   0  0  0  0  0  2  0  0  0  0  0  0
  195.5420  174.1890  137.4720 N   0  0  0  0  0  2  0  0  0  0  0  0
  196.7710  174.8580  137.3440 N   0  0  0  0  0  2  0  0  0  0  0  0
  197.7710  175.1020  139.8150 S   0  0  0  0  0  0  0  0  0  0  0  0
  199.0360  173.9930  137.7740 N   0  0  0  0  0  1  0  0  0  0  0  0
  197.8610  174.6420  138.2450 C   0  0  0  0  0  0  0  0  0  0  0  0
  1 37  1  0  0  0  0
  1  7  1  0  0  0  0
  2  4  2  0  0  0  0
  3  5  1  0  0  0  0
  3  2  1  0  0  0  0
  4  7  1  0  0  0  0
  4 38  1  0  0  0  0
  5  9  1  6  0  0  0
  5  1  1  0  0  0  0
  7  6  1  6  0  0  0
  8  3  2  0  0  0  0
  9 10  1  1  0  0  0
 11 12  1  6  0  0  0
 11  9  1  0  0  0  0
 13 11  1  0  0  0  0
 15 14  1  6  0  0  0
 15 13  1  0  0  0  0
 16 24  1  0  0  0  0
 16 15  1  0  0  0  0
 17 34  1  0  0  0  0
 17 30  1  0  0  0  0
 18 35  1  0  0  0  0
 19 21  1  0  0  0  0
 21 24  1  0  0  0  0
 21 32  1  0  0  0  0
 22 19  1  0  0  0  0
 22 31  1  0  0  0  0
 23 32  1  0  0  0  0
 24 17  1  0  0  0  0
 24 34  1  0  0  0  0
 26 18  1  0  0  0  0
 27 31  1  0  0  0  0
 27 18  2  0  0  0  0
 28 32  1  0  0  0  0
 28 29  1  0  0  0  0
 31 28  2  0  0  0  0
 32 33  1  0  0  0  0
 33 30  1  0  0  0  0
 34 30  1  0  0  0  0
 34 25  1  0  0  0  0
 35 29  2  0  0  0  0
 35 20  1  0  0  0  0
 37 36  1  0  0  0  0
 38 39  1  0  0  0  0
 39 40  1  0  0  0  0
 40 43  1  0  0  0  0
 42 43  1  0  0  0  0
 42 44  1  0  0  0  0
 42 41  1  0  0  0  0
 43 41  1  0  0  0  0
 44 45  1  0  0  0  0
 47 48  1  0  0  0  0
 48 46  1  0  0  0  0
 48 44  1  0  0  0  0
 49  8  1  0  0  0  0
 51 50  2  0  0  0  0
 51 49  1  0  0  0  0
 52 51  1  0  0  0  0
 53 52  1  0  0  0  0
 54 56  1  0  0  0  0
 54 53  1  0  0  0  0
 55 54  1  0  0  0  0
 56 57  1  0  0  0  0
 57 60  1  0  0  0  0
 58 57  1  0  0  0  0
 60 59  1  0  0  0  0
 61 53  1  0  0  0  0
 61 62  1  0  0  0  0
 63 62  1  0  0  0  0
 63 66  1  0  0  0  0
 65 66  1  0  0  0  0
 66 64  2  0  0  0  0
M  END
>  <MODEL>
1

>  <REMARK>
 VINA RESULT:      -3.2      0.000      0.000
  Name = 
  25 active torsions:
  status: ('A' for Active; 'I' for Inactive)
    1  A    between atoms: C_1  and  C_5
    2  A    between atoms: C_1  and  C_20
    3  A    between atoms: C_2  and  C_35
    4  A    between atoms: C_2  and  C_64
    5  A    between atoms: N_3  and  C_60
    6  A    between atoms: C_5  and  C_53
    7  A    between atoms: C_5  and  O_58
    8  A    between atoms: S_9  and  C_23
    9  A    between atoms: S_9  and  C_28
   10  A    between atoms: C_10  and  O_32
   11  A    between atoms: C_10  and  C_54
   12  A    between atoms: C_13  and  C_20
   13  A    between atoms: C_13  and  C_48
   14  A    between atoms: C_19  and  N_40
   15  A    between atoms: C_19  and  C_43
   16  A    between atoms: C_23  and  N_40
   17  A    between atoms: C_27  and  C_49
   18  A    between atoms: C_27  and  C_51
   19  A    between atoms: C_31  and  O_32
   20  A    between atoms: C_35  and  O_58
   21  A    between atoms: C_37  and  C_43
   22  A    between atoms: N_41  and  C_53
   23  A    between atoms: N_41  and  N_59
   24  A    between atoms: C_47  and  N_59
   25  A    between atoms: C_54  and  N_62
                            x       y       z     vdW  Elec       q    Type
                         _______ _______ _______ _____ _____    ______ ____

>  <TORSDO>
F 25

$$$$
=
 OpenBabel10222418393D

 66 72  0  0  1  0  0  0  0  0999 V2000
  185.2130  177.7900  145.7070 N   0  0  0  0  0  0  0  0  0  0  0  0
  187.8180  178.1660  144.6100 N   0  0  0  0  0  0  0  0  0  0  0  0
  186.7180  177.8850  143.7470 C   0  0  0  0  0  0  0  0  0  0  0  0
  187.6630  178.3980  145.8790 C   0  0  0  0  0  0  0  0  0  0  0  0
  185.3210  178.0550  144.2610 C   0  0  2  0  0  3  0  0  0  0  0  0
  185.9160  179.6660  147.1510 C   0  0  0  0  0  1  0  0  0  0  0  0
  186.3050  178.3310  146.5430 C   0  0  1  0  0  3  0  0  0  0  0  0
  186.9150  177.4760  142.4930 C   0  0  0  0  0  3  0  0  0  0  0  0
  184.6780  179.3880  143.8230 C   0  0  2  0  0  3  0  0  0  0  0  0
  185.2650  180.6150  144.5170 C   0  0  0  0  0  1  0  0  0  0  0  0
  183.1430  179.3530  143.8580 C   0  0  2  0  0  3  0  0  0  0  0  0
  182.6420  177.9250  144.0200 C   0  0  0  0  0  1  0  0  0  0  0  0
  182.5790  179.9560  142.6540 N   0  0  0  0  0  2  0  0  0  0  0  0
  183.4560  178.6910  140.7870 C   0  0  0  0  0  1  0  0  0  0  0  0
  182.2570  178.9120  141.6880 C   0  0  2  0  0  3  0  0  0  0  0  0
  180.8020  179.3880  140.6900 S   0  0  0  0  0  0  0  0  0  0  0  0
  178.9440  177.1980  140.3070 C   0  0  1  0  0  3  0  0  0  0  0  0
  183.0040  173.0270  136.1940 C   0  0  0  0  0  0  0  0  0  0  0  0
  181.9020  177.6630  138.0730 C   0  0  0  0  0  2  0  0  0  0  0  0
  181.4480  171.2250  136.6180 O   0  0  0  0  0  1  0  0  0  0  0  0
  181.2540  176.8680  139.1880 C   0  0  1  0  0  3  0  0  0  0  0  0
  183.4270  176.7980  137.6100 S   0  0  0  0  0  0  0  0  0  0  0  0
  179.4750  176.0280  137.5880 C   0  0  0  0  0  1  0  0  0  0  0  0
  180.3680  177.6920  140.1450 C   0  0  1  0  0  0  0  0  0  0  0  0
  179.5980  177.3960  142.4970 O   0  0  0  0  0  1  0  0  0  0  0  0
  183.7300  172.2340  135.3700 F   0  0  0  0  0  0  0  0  0  0  0  0
  183.4170  174.3400  136.4250 C   0  0  0  0  0  3  0  0  0  0  0  0
  181.5080  174.6970  137.9050 C   0  0  0  0  0  0  0  0  0  0  0  0
  181.1110  173.3700  137.6550 C   0  0  0  0  0  3  0  0  0  0  0  0
  179.0190  175.7490  140.7770 C   0  0  1  0  0  3  0  0  0  0  0  0
  182.6910  175.1800  137.2750 C   0  0  0  0  0  0  0  0  0  0  0  0
  180.5300  175.6140  138.6200 C   0  0  1  0  0  0  0  0  0  0  0  0
  179.8030  174.8590  139.7770 C   0  0  0  0  0  2  0  0  0  0  0  0
  179.9910  176.7800  141.3070 C   0  0  1  0  0  0  0  0  0  0  0  0
  181.8590  172.5350  136.8260 C   0  0  0  0  0  0  0  0  0  0  0  0
  186.4290  175.7950  145.7000 O   0  0  0  0  0  1  0  0  0  0  0  0
  185.1610  176.3450  145.9100 C   0  0  0  0  0  2  0  0  0  0  0  0
  188.7640  178.7260  146.6730 O   0  0  0  0  0  0  0  0  0  0  0  0
  188.9850  178.1360  147.9490 C   0  0  0  0  0  2  0  0  0  0  0  0
  190.2770  177.3340  147.9390 C   0  0  0  0  0  2  0  0  0  0  0  0
  191.8020  176.1090  146.6040 C   0  0  0  0  0  2  0  0  0  0  0  0
  191.4020  177.3080  145.8760 C   0  0  2  0  0  3  0  0  0  0  0  0
  190.4120  176.5900  146.6920 N   0  0  0  0  0  0  0  0  0  0  0  0
  191.1650  176.9740  144.4110 C   0  0  2  0  0  3  0  0  0  0  0  0
  191.4110  175.6160  144.1830 O   0  0  0  0  0  1  0  0  0  0  0  0
  191.9470  179.1780  143.9030 O   0  0  0  0  0  1  0  0  0  0  0  0
  191.6340  177.7250  142.0390 C   0  0  0  0  0  1  0  0  0  0  0  0
  192.0340  177.8460  143.5020 C   0  0  2  0  0  3  0  0  0  0  0  0
  188.2790  177.2650  141.9150 C   0  0  0  0  0  2  0  0  0  0  0  0
  188.0520  179.0330  140.3330 O   0  0  0  0  0  0  0  0  0  0  0  0
  188.3680  177.8310  140.5390 C   0  0  0  0  0  0  0  0  0  0  0  0
  188.8070  177.0160  139.4950 O   0  0  0  0  0  0  0  0  0  0  0  0
  189.9700  177.3200  138.7340 C   0  0  1  0  0  3  0  0  0  0  0  0
  191.0910  176.3220  139.0350 C   0  0  1  0  0  3  0  0  0  0  0  0
  190.7720  175.0630  138.5200 O   0  0  0  0  0  1  0  0  0  0  0  0
  192.4520  176.7820  138.5010 C   0  0  0  0  0  2  0  0  0  0  0  0
  193.1460  175.7310  137.6320 C   0  0  2  0  0  3  0  0  0  0  0  0
  194.4460  175.4930  138.0880 O   0  0  0  0  0  1  0  0  0  0  0  0
  192.5970  175.1500  135.3170 N   0  0  0  0  0  1  0  0  0  0  0  0
  193.1720  176.1740  136.1760 C   0  0  0  0  0  2  0  0  0  0  0  0
  189.6400  177.3670  137.2410 C   0  0  0  0  0  2  0  0  0  0  0  0
  188.2010  177.2710  137.0130 N   0  0  0  0  0  2  0  0  0  0  0  0
  187.8700  175.9070  136.9450 N   0  0  0  0  0  2  0  0  0  0  0  0
  187.0810  173.7670  135.5430 S   0  0  0  0  0  0  0  0  0  0  0  0
  186.1760  176.2280  135.1870 N   0  0  0  0  0  1  0  0  0  0  0  0
  187.0520  175.3660  135.9050 C   0  0  0  0  0  0  0  0  0  0  0  0
  1 37  1  0  0  0  0
  1  7  1  0  0  0  0
  2  4  2  0  0  0  0
  3  5  1  0  0  0  0
  3  2  1  0  0  0  0
  4  7  1  0  0  0  0
  4 38  1  0  0  0  0
  5  9  1  1  0  0  0
  5  1  1  0  0  0  0
  7  6  1  6  0  0  0
  8  3  2  0  0  0  0
  9 11  1  0  0  0  0
  9 10  1  1  0  0  0
 11 12  1  6  0  0  0
 13 11  1  0  0  0  0
 15 14  1  6  0  0  0
 15 13  1  0  0  0  0
 16 15  1  0  0  0  0
 17 30  1  0  0  0  0
 17 34  1  0  0  0  0
 18 27  2  0  0  0  0
 18 35  1  0  0  0  0
 19 21  1  0  0  0  0
 20 35  1  0  0  0  0
 21 24  1  0  0  0  0
 22 19  1  0  0  0  0
 23 32  1  0  0  0  0
 24 17  1  0  0  0  0
 24 16  1  0  0  0  0
 24 34  1  0  0  0  0
 26 18  1  0  0  0  0
 27 31  1  0  0  0  0
 28 32  1  0  0  0  0
 29 28  1  0  0  0  0
 30 34  1  0  0  0  0
 31 22  1  0  0  0  0
 31 28  2  0  0  0  0
 32 21  1  0  0  0  0
 32 33  1  0  0  0  0
 33 30  1  0  0  0  0
 34 25  1  0  0  0  0
 35 29  2  0  0  0  0
 36 37  1  0  0  0  0
 38 39  1  0  0  0  0
 40 39  1  0  0  0  0
 41 43  1  0  0  0  0
 42 41  1  0  0  0  0
 42 43  1  0  0  0  0
 43 40  1  0  0  0  0
 44 42  1  0  0  0  0
 45 44  1  0  0  0  0
 47 48  1  0  0  0  0
 48 46  1  0  0  0  0
 48 44  1  0  0  0  0
 49  8  1  0  0  0  0
 50 51  2  0  0  0  0
 51 49  1  0  0  0  0
 52 51  1  0  0  0  0
 53 54  1  0  0  0  0
 53 52  1  0  0  0  0
 55 54  1  0  0  0  0
 56 54  1  0  0  0  0
 57 58  1  0  0  0  0
 57 56  1  0  0  0  0
 59 60  1  0  0  0  0
 60 57  1  0  0  0  0
 61 53  1  0  0  0  0
 62 61  1  0  0  0  0
 63 62  1  0  0  0  0
 64 66  2  0  0  0  0
 65 66  1  0  0  0  0
 66 63  1  0  0  0  0
M  END
>  <MODEL>
2

>  <REMARK>
 VINA RESULT:      -2.8      2.843      5.683
  Name = 
  25 active torsions:
  status: ('A' for Active; 'I' for Inactive)
    1  A    between atoms: C_1  and  C_5
    2  A    between atoms: C_1  and  C_20
    3  A    between atoms: C_2  and  C_35
    4  A    between atoms: C_2  and  C_64
    5  A    between atoms: N_3  and  C_60
    6  A    between atoms: C_5  and  C_53
    7  A    between atoms: C_5  and  O_58
    8  A    between atoms: S_9  and  C_23
    9  A    between atoms: S_9  and  C_28
   10  A    between atoms: C_10  and  O_32
   11  A    between atoms: C_10  and  C_54
   12  A    between atoms: C_13  and  C_20
   13  A    between atoms: C_13  and  C_48
   14  A    between atoms: C_19  and  N_40
   15  A    between atoms: C_19  and  C_43
   16  A    between atoms: C_23  and  N_40
   17  A    between atoms: C_27  and  C_49
   18  A    between atoms: C_27  and  C_51
   19  A    between atoms: C_31  and  O_32
   20  A    between atoms: C_35  and  O_58
   21  A    between atoms: C_37  and  C_43
   22  A    between atoms: N_41  and  C_53
   23  A    between atoms: N_41  and  N_59
   24  A    between atoms: C_47  and  N_59
   25  A    between atoms: C_54  and  N_62
                            x       y       z     vdW  Elec       q    Type
                         _______ _______ _______ _____ _____    ______ ____

>  <TORSDO>
F 25

$$$$
=
 OpenBabel10222418393D

 66 72  0  0  1  0  0  0  0  0999 V2000
  188.1940  176.8840  143.2720 N   0  0  0  0  0  0  0  0  0  0  0  0
  189.6380  178.6720  141.5850 N   0  0  0  0  0  0  0  0  0  0  0  0
  188.4380  178.0630  141.1120 C   0  0  0  0  0  0  0  0  0  0  0  0
  190.0380  178.5550  142.8160 C   0  0  0  0  0  0  0  0  0  0  0  0
  187.4980  177.4360  142.0960 C   0  0  2  0  0  3  0  0  0  0  0  0
  188.7930  178.5540  144.9900 C   0  0  0  0  0  1  0  0  0  0  0  0
  189.2840  177.7160  143.8230 C   0  0  1  0  0  3  0  0  0  0  0  0
  188.1410  178.0470  139.8120 C   0  0  0  0  0  3  0  0  0  0  0  0
  186.3040  178.3470  142.4510 C   0  0  2  0  0  3  0  0  0  0  0  0
  185.2120  177.6470  143.2580 C   0  0  0  0  0  1  0  0  0  0  0  0
  185.7580  179.1190  141.2410 C   0  0  2  0  0  3  0  0  0  0  0  0
  185.0030  180.3610  141.6920 C   0  0  0  0  0  1  0  0  0  0  0  0
  184.8960  178.2680  140.4250 N   0  0  0  0  0  2  0  0  0  0  0  0
  182.7580  177.2320  140.8890 C   0  0  0  0  0  1  0  0  0  0  0  0
  183.4980  178.5470  140.7350 C   0  0  2  0  0  3  0  0  0  0  0  0
  182.7340  179.5450  139.4080 S   0  0  0  0  0  0  0  0  0  0  0  0
  180.0650  178.7500  138.6070 C   0  0  1  0  0  3  0  0  0  0  0  0
  181.4540  172.0300  136.6830 C   0  0  0  0  0  0  0  0  0  0  0  0
  183.0780  176.8090  137.5540 C   0  0  0  0  0  2  0  0  0  0  0  0
  179.0720  171.6140  136.7000 O   0  0  0  0  0  1  0  0  0  0  0  0
  181.8490  176.8830  138.4360 C   0  0  1  0  0  3  0  0  0  0  0  0
  183.7920  175.1560  137.7630 S   0  0  0  0  0  0  0  0  0  0  0  0
  180.3470  176.7310  136.3970 C   0  0  0  0  0  1  0  0  0  0  0  0
  181.4790  178.3010  138.9200 C   0  0  1  0  0  0  0  0  0  0  0  0
  180.1890  179.2020  140.8530 O   0  0  0  0  0  1  0  0  0  0  0  0
  181.6920  170.7650  136.2610 F   0  0  0  0  0  0  0  0  0  0  0  0
  182.5260  172.8930  136.9110 C   0  0  0  0  0  3  0  0  0  0  0  0
  180.9810  174.6680  137.5590 C   0  0  0  0  0  0  0  0  0  0  0  0
  179.9150  173.7800  137.3210 C   0  0  0  0  0  3  0  0  0  0  0  0
  179.1170  177.7230  139.2180 C   0  0  1  0  0  3  0  0  0  0  0  0
  182.3110  174.2030  137.3530 C   0  0  0  0  0  0  0  0  0  0  0  0
  180.6530  176.1360  137.7760 C   0  0  1  0  0  0  0  0  0  0  0  0
  179.3800  176.2980  138.6650 C   0  0  0  0  0  2  0  0  0  0  0  0
  180.3700  178.1480  139.9540 C   0  0  1  0  0  0  0  0  0  0  0  0
  180.1460  172.4690  136.9060 C   0  0  0  0  0  0  0  0  0  0  0  0
  190.1510  175.6590  142.9110 O   0  0  0  0  0  1  0  0  0  0  0  0
  188.7550  175.5850  142.9100 C   0  0  0  0  0  2  0  0  0  0  0  0
  191.1890  179.2180  143.2460 O   0  0  0  0  0  0  0  0  0  0  0  0
  191.7230  179.0440  144.5540 C   0  0  0  0  0  2  0  0  0  0  0  0
  191.9000  177.5630  144.8540 C   0  0  0  0  0  2  0  0  0  0  0  0
  191.9780  175.8680  146.5050 C   0  0  0  0  0  2  0  0  0  0  0  0
  190.6040  176.3410  146.3860 C   0  0  2  0  0  3  0  0  0  0  0  0
  191.7140  177.2990  146.2760 N   0  0  0  0  0  0  0  0  0  0  0  0
  189.9750  176.4730  147.7650 C   0  0  2  0  0  3  0  0  0  0  0  0
  188.8930  175.5950  147.8850 O   0  0  0  0  0  1  0  0  0  0  0  0
  190.4880  178.5520  148.8340 O   0  0  0  0  0  1  0  0  0  0  0  0
  188.1750  177.9860  148.7020 C   0  0  0  0  0  1  0  0  0  0  0  0
  189.5400  177.9150  148.0330 C   0  0  2  0  0  3  0  0  0  0  0  0
  189.0380  178.6350  138.7690 C   0  0  0  0  0  2  0  0  0  0  0  0
  187.1660  179.0280  137.3480 O   0  0  0  0  0  0  0  0  0  0  0  0
  188.3670  178.6570  137.4390 C   0  0  0  0  0  0  0  0  0  0  0  0
  189.0840  178.2650  136.3080 O   0  0  0  0  0  0  0  0  0  0  0  0
  188.8430  177.0250  135.6510 C   0  0  1  0  0  3  0  0  0  0  0  0
  190.1390  176.2200  135.5220 C   0  0  1  0  0  3  0  0  0  0  0  0
  191.1790  177.0410  135.0790 O   0  0  0  0  0  1  0  0  0  0  0  0
  190.5350  175.5240  136.8280 C   0  0  0  0  0  2  0  0  0  0  0  0
  192.0490  175.4050  137.0140 C   0  0  2  0  0  3  0  0  0  0  0  0
  192.4160  174.0760  137.2450 O   0  0  0  0  0  1  0  0  0  0  0  0
  191.5040  176.3600  139.2020 N   0  0  0  0  0  1  0  0  0  0  0  0
  192.5180  176.2880  138.1620 C   0  0  0  0  0  2  0  0  0  0  0  0
  187.7540  176.2340  136.3770 C   0  0  0  0  0  2  0  0  0  0  0  0
  187.1700  175.2160  135.5090 N   0  0  0  0  0  2  0  0  0  0  0  0
  187.2120  173.9920  136.1980 N   0  0  0  0  0  2  0  0  0  0  0  0
  185.3340  172.9430  134.6050 S   0  0  0  0  0  0  0  0  0  0  0  0
  186.2180  171.8320  136.8380 N   0  0  0  0  0  1  0  0  0  0  0  0
  186.2900  172.9310  135.9370 C   0  0  0  0  0  0  0  0  0  0  0  0
  1  7  1  0  0  0  0
  2  4  2  0  0  0  0
  3  2  1  0  0  0  0
  3  5  1  0  0  0  0
  4 38  1  0  0  0  0
  4  7  1  0  0  0  0
  5  9  1  1  0  0  0
  5  1  1  0  0  0  0
  7  6  1  1  0  0  0
  8  3  2  0  0  0  0
  9 10  1  6  0  0  0
 11 12  1  1  0  0  0
 11  9  1  0  0  0  0
 13 15  1  0  0  0  0
 13 11  1  0  0  0  0
 15 14  1  6  0  0  0
 16 15  1  0  0  0  0
 17 24  1  0  0  0  0
 17 30  1  0  0  0  0
 17 34  1  0  0  0  0
 18 35  2  0  0  0  0
 18 27  1  0  0  0  0
 19 22  1  0  0  0  0
 19 21  1  0  0  0  0
 20 35  1  0  0  0  0
 21 24  1  0  0  0  0
 23 32  1  0  0  0  0
 24 16  1  0  0  0  0
 24 34  1  0  0  0  0
 26 18  1  0  0  0  0
 27 31  2  0  0  0  0
 28 32  1  0  0  0  0
 29 28  2  0  0  0  0
 30 34  1  0  0  0  0
 31 28  1  0  0  0  0
 31 22  1  0  0  0  0
 32 21  1  0  0  0  0
 32 33  1  0  0  0  0
 33 30  1  0  0  0  0
 34 25  1  0  0  0  0
 35 29  1  0  0  0  0
 37 36  1  0  0  0  0
 37  1  1  0  0  0  0
 38 39  1  0  0  0  0
 39 40  1  0  0  0  0
 40 43  1  0  0  0  0
 42 41  1  0  0  0  0
 42 44  1  0  0  0  0
 43 42  1  0  0  0  0
 43 41  1  0  0  0  0
 44 45  1  0  0  0  0
 44 48  1  0  0  0  0
 48 47  1  0  0  0  0
 48 46  1  0  0  0  0
 49  8  1  0  0  0  0
 50 51  2  0  0  0  0
 51 49  1  0  0  0  0
 52 51  1  0  0  0  0
 53 52  1  0  0  0  0
 53 61  1  0  0  0  0
 54 53  1  0  0  0  0
 54 56  1  0  0  0  0
 55 54  1  0  0  0  0
 56 57  1  0  0  0  0
 57 58  1  0  0  0  0
 57 60  1  0  0  0  0
 60 59  1  0  0  0  0
 62 63  1  0  0  0  0
 62 61  1  0  0  0  0
 64 66  2  0  0  0  0
 66 63  1  0  0  0  0
 66 65  1  0  0  0  0
M  END
>  <MODEL>
3

>  <REMARK>
 VINA RESULT:      -2.2      2.963      4.695
  Name = 
  25 active torsions:
  status: ('A' for Active; 'I' for Inactive)
    1  A    between atoms: C_1  and  C_5
    2  A    between atoms: C_1  and  C_20
    3  A    between atoms: C_2  and  C_35
    4  A    between atoms: C_2  and  C_64
    5  A    between atoms: N_3  and  C_60
    6  A    between atoms: C_5  and  C_53
    7  A    between atoms: C_5  and  O_58
    8  A    between atoms: S_9  and  C_23
    9  A    between atoms: S_9  and  C_28
   10  A    between atoms: C_10  and  O_32
   11  A    between atoms: C_10  and  C_54
   12  A    between atoms: C_13  and  C_20
   13  A    between atoms: C_13  and  C_48
   14  A    between atoms: C_19  and  N_40
   15  A    between atoms: C_19  and  C_43
   16  A    between atoms: C_23  and  N_40
   17  A    between atoms: C_27  and  C_49
   18  A    between atoms: C_27  and  C_51
   19  A    between atoms: C_31  and  O_32
   20  A    between atoms: C_35  and  O_58
   21  A    between atoms: C_37  and  C_43
   22  A    between atoms: N_41  and  C_53
   23  A    between atoms: N_41  and  N_59
   24  A    between atoms: C_47  and  N_59
   25  A    between atoms: C_54  and  N_62
                            x       y       z     vdW  Elec       q    Type
                         _______ _______ _______ _____ _____    ______ ____

>  <TORSDO>
F 25

$$$$
=
 OpenBabel10222418393D

 66 72  0  0  1  0  0  0  0  0999 V2000
  189.4430  177.1840  136.7670 N   0  0  0  0  0  0  0  0  0  0  0  0
  186.8890  175.9320  136.5720 N   0  0  0  0  0  0  0  0  0  0  0  0
  187.9320  175.3070  137.3180 C   0  0  0  0  0  0  0  0  0  0  0  0
  187.0080  177.1300  136.0810 C   0  0  0  0  0  0  0  0  0  0  0  0
  189.1230  176.1150  137.7290 C   0  0  2  0  0  3  0  0  0  0  0  0
  188.0560  179.2160  136.9900 C   0  0  0  0  0  1  0  0  0  0  0  0
  188.2860  177.9260  136.2230 C   0  0  1  0  0  3  0  0  0  0  0  0
  187.8570  174.0190  137.6570 C   0  0  0  0  0  3  0  0  0  0  0  0
  189.0470  176.5990  139.1930 C   0  0  2  0  0  3  0  0  0  0  0  0
  187.8330  177.4760  139.4910 C   0  0  0  0  0  1  0  0  0  0  0  0
  190.3660  177.2040  139.6940 C   0  0  2  0  0  3  0  0  0  0  0  0
  191.5290  176.2630  139.4180 C   0  0  0  0  0  1  0  0  0  0  0  0
  190.2900  177.5140  141.1200 N   0  0  0  0  0  2  0  0  0  0  0  0
  189.8790  175.6320  142.5840 C   0  0  0  0  0  1  0  0  0  0  0  0
  190.9420  176.4570  141.8850 C   0  0  2  0  0  3  0  0  0  0  0  0
  192.0900  177.1720  143.1150 S   0  0  0  0  0  0  0  0  0  0  0  0
  191.4040  177.2870  145.9280 C   0  0  1  0  0  3  0  0  0  0  0  0
  184.4200  178.5620  145.3020 C   0  0  0  0  0  0  0  0  0  0  0  0
  189.1370  178.6820  143.3070 C   0  0  0  0  0  2  0  0  0  0  0  0
  184.1850  177.9940  147.6400 O   0  0  0  0  0  1  0  0  0  0  0  0
  189.4050  177.5800  144.3120 C   0  0  1  0  0  3  0  0  0  0  0  0
  187.4720  178.4120  142.6420 S   0  0  0  0  0  0  0  0  0  0  0  0
  189.1230  179.2230  146.2240 C   0  0  0  0  0  1  0  0  0  0  0  0
  190.8930  177.2200  144.5020 C   0  0  1  0  0  0  0  0  0  0  0  0
  192.1070  175.1950  145.3000 O   0  0  0  0  0  1  0  0  0  0  0  0
  183.1010  178.8540  145.2190 F   0  0  0  0  0  0  0  0  0  0  0  0
  185.2230  178.6770  144.1660 C   0  0  0  0  0  3  0  0  0  0  0  0
  187.1710  177.9590  145.4510 C   0  0  0  0  0  0  0  0  0  0  0  0
  186.3420  177.8520  146.5830 C   0  0  0  0  0  3  0  0  0  0  0  0
  190.5290  176.3620  146.7680 C   0  0  1  0  0  3  0  0  0  0  0  0
  186.5880  178.3760  144.2200 C   0  0  0  0  0  0  0  0  0  0  0  0
  188.6750  177.8730  145.6550 C   0  0  1  0  0  0  0  0  0  0  0  0
  189.0330  176.7670  146.6970 C   0  0  0  0  0  2  0  0  0  0  0  0
  190.9450  175.9660  145.3670 C   0  0  1  0  0  0  0  0  0  0  0  0
  184.9780  178.1290  146.5080 C   0  0  0  0  0  0  0  0  0  0  0  0
  191.1550  177.4850  135.2060 O   0  0  0  0  0  1  0  0  0  0  0  0
  190.1710  176.5950  135.6460 C   0  0  0  0  0  2  0  0  0  0  0  0
  185.9390  177.7220  135.4070 O   0  0  0  0  0  0  0  0  0  0  0  0
  184.5850  177.5150  135.7960 C   0  0  0  0  0  2  0  0  0  0  0  0
  184.4310  177.7370  137.2930 C   0  0  0  0  0  2  0  0  0  0  0  0
  183.3750  179.2020  138.8240 C   0  0  0  0  0  2  0  0  0  0  0  0
  182.7030  177.9080  138.8750 C   0  0  2  0  0  3  0  0  0  0  0  0
  183.1810  178.4280  137.5850 N   0  0  0  0  0  0  0  0  0  0  0  0
  181.1970  178.1050  138.9560 C   0  0  2  0  0  3  0  0  0  0  0  0
  180.8520  179.3720  138.4730 O   0  0  0  0  0  1  0  0  0  0  0  0
  181.7790  177.8330  141.2610 O   0  0  0  0  0  1  0  0  0  0  0  0
  179.8320  176.6680  140.5310 C   0  0  0  0  0  1  0  0  0  0  0  0
  180.6950  177.9130  140.3890 C   0  0  2  0  0  3  0  0  0  0  0  0
  186.7080  173.1440  137.2670 C   0  0  0  0  0  2  0  0  0  0  0  0
  187.7880  172.1430  135.3930 O   0  0  0  0  0  0  0  0  0  0  0  0
  186.7860  172.7720  135.8260 C   0  0  0  0  0  0  0  0  0  0  0  0
  185.7400  173.1270  134.9740 O   0  0  0  0  0  0  0  0  0  0  0  0
  184.4260  172.5980  135.1270 C   0  0  1  0  0  3  0  0  0  0  0  0
  184.1590  172.2250  136.5870 C   0  0  1  0  0  3  0  0  0  0  0  0
  183.6760  173.3300  137.2920 O   0  0  0  0  0  1  0  0  0  0  0  0
  183.1920  171.0440  136.7290 C   0  0  0  0  0  2  0  0  0  0  0  0
  181.7380  171.4760  136.9300 C   0  0  2  0  0  3  0  0  0  0  0  0
  181.3070  171.1720  138.2240 O   0  0  0  0  0  1  0  0  0  0  0  0
  181.4930  169.6510  135.3150 N   0  0  0  0  0  1  0  0  0  0  0  0
  180.8350  170.8070  135.9040 C   0  0  0  0  0  2  0  0  0  0  0  0
  183.3850  173.5840  134.5950 C   0  0  0  0  0  2  0  0  0  0  0  0
  183.0960  174.6300  135.5710 N   0  0  0  0  0  2  0  0  0  0  0  0
  182.1050  175.4620  135.0250 N   0  0  0  0  0  2  0  0  0  0  0  0
  179.8630  176.9090  135.2370 S   0  0  0  0  0  0  0  0  0  0  0  0
  180.3880  174.7200  136.6270 N   0  0  0  0  0  1  0  0  0  0  0  0
  180.8320  175.6530  135.6480 C   0  0  0  0  0  0  0  0  0  0  0  0
  1  5  1  0  0  0  0
  2  3  1  0  0  0  0
  3  8  2  0  0  0  0
  3  5  1  0  0  0  0
  4  7  1  0  0  0  0
  4  2  2  0  0  0  0
  5  9  1  1  0  0  0
  7  1  1  0  0  0  0
  7  6  1  1  0  0  0
  9 10  1  6  0  0  0
  9 11  1  0  0  0  0
 11 12  1  1  0  0  0
 11 13  1  0  0  0  0
 13 15  1  0  0  0  0
 15 14  1  1  0  0  0
 15 16  1  0  0  0  0
 16 24  1  0  0  0  0
 17 30  1  0  0  0  0
 18 35  1  0  0  0  0
 19 21  1  0  0  0  0
 21 24  1  0  0  0  0
 21 32  1  0  0  0  0
 22 19  1  0  0  0  0
 22 31  1  0  0  0  0
 24 34  1  0  0  0  0
 24 17  1  0  0  0  0
 25 34  1  0  0  0  0
 26 18  1  0  0  0  0
 27 31  1  0  0  0  0
 27 18  2  0  0  0  0
 28 32  1  0  0  0  0
 28 29  1  0  0  0  0
 31 28  2  0  0  0  0
 32 23  1  0  0  0  0
 32 33  1  0  0  0  0
 33 30  1  0  0  0  0
 34 17  1  0  0  0  0
 34 30  1  0  0  0  0
 35 29  2  0  0  0  0
 35 20  1  0  0  0  0
 36 37  1  0  0  0  0
 37  1  1  0  0  0  0
 38 39  1  0  0  0  0
 38  4  1  0  0  0  0
 39 40  1  0  0  0  0
 40 43  1  0  0  0  0
 41 42  1  0  0  0  0
 42 44  1  0  0  0  0
 43 41  1  0  0  0  0
 43 42  1  0  0  0  0
 44 48  1  0  0  0  0
 45 44  1  0  0  0  0
 48 47  1  0  0  0  0
 48 46  1  0  0  0  0
 49  8  1  0  0  0  0
 50 51  2  0  0  0  0
 51 49  1  0  0  0  0
 52 53  1  0  0  0  0
 52 51  1  0  0  0  0
 53 54  1  0  0  0  0
 54 56  1  0  0  0  0
 54 55  1  0  0  0  0
 56 57  1  0  0  0  0
 57 58  1  0  0  0  0
 59 60  1  0  0  0  0
 60 57  1  0  0  0  0
 61 53  1  0  0  0  0
 61 62  1  0  0  0  0
 63 62  1  0  0  0  0
 63 66  1  0  0  0  0
 64 66  2  0  0  0  0
 66 65  1  0  0  0  0
M  END
>  <MODEL>
4

>  <REMARK>
 VINA RESULT:      -2.2      3.572     10.080
  Name = 
  25 active torsions:
  status: ('A' for Active; 'I' for Inactive)
    1  A    between atoms: C_1  and  C_5
    2  A    between atoms: C_1  and  C_20
    3  A    between atoms: C_2  and  C_35
    4  A    between atoms: C_2  and  C_64
    5  A    between atoms: N_3  and  C_60
    6  A    between atoms: C_5  and  C_53
    7  A    between atoms: C_5  and  O_58
    8  A    between atoms: S_9  and  C_23
    9  A    between atoms: S_9  and  C_28
   10  A    between atoms: C_10  and  O_32
   11  A    between atoms: C_10  and  C_54
   12  A    between atoms: C_13  and  C_20
   13  A    between atoms: C_13  and  C_48
   14  A    between atoms: C_19  and  N_40
   15  A    between atoms: C_19  and  C_43
   16  A    between atoms: C_23  and  N_40
   17  A    between atoms: C_27  and  C_49
   18  A    between atoms: C_27  and  C_51
   19  A    between atoms: C_31  and  O_32
   20  A    between atoms: C_35  and  O_58
   21  A    between atoms: C_37  and  C_43
   22  A    between atoms: N_41  and  C_53
   23  A    between atoms: N_41  and  N_59
   24  A    between atoms: C_47  and  N_59
   25  A    between atoms: C_54  and  N_62
                            x       y       z     vdW  Elec       q    Type
                         _______ _______ _______ _____ _____    ______ ____

>  <TORSDO>
F 25

$$$$
=
 OpenBabel10222418393D

 66 72  0  0  1  0  0  0  0  0999 V2000
  187.8150  176.9760  143.5020 N   0  0  0  0  0  0  0  0  0  0  0  0
  189.5550  178.5440  141.8760 N   0  0  0  0  0  0  0  0  0  0  0  0
  188.4060  177.9270  141.2980 C   0  0  0  0  0  0  0  0  0  0  0  0
  189.7750  178.5380  143.1570 C   0  0  0  0  0  0  0  0  0  0  0  0
  187.3140  177.4290  142.1930 C   0  0  2  0  0  3  0  0  0  0  0  0
  188.2420  178.7900  145.1220 C   0  0  0  0  0  1  0  0  0  0  0  0
  188.8530  177.8260  144.1220 C   0  0  1  0  0  3  0  0  0  0  0  0
  188.2930  177.7900  139.9760 C   0  0  0  0  0  3  0  0  0  0  0  0
  186.1220  178.4050  142.2870 C   0  0  2  0  0  3  0  0  0  0  0  0
  186.3750  179.7560  141.6200 C   0  0  0  0  0  1  0  0  0  0  0  0
  185.5620  178.5330  143.7100 C   0  0  2  0  0  3  0  0  0  0  0  0
  185.2310  177.1620  144.2820 C   0  0  0  0  0  1  0  0  0  0  0  0
  184.3800  179.3910  143.7320 N   0  0  0  0  0  2  0  0  0  0  0  0
  183.5850  177.8640  142.0320 C   0  0  0  0  0  1  0  0  0  0  0  0
  183.2170  178.6330  143.2860 C   0  0  2  0  0  3  0  0  0  0  0  0
  181.8140  179.7540  142.9440 S   0  0  0  0  0  0  0  0  0  0  0  0
  179.6150  178.6730  141.3980 C   0  0  1  0  0  3  0  0  0  0  0  0
  183.2740  176.4170  135.7140 C   0  0  0  0  0  0  0  0  0  0  0  0
  182.9090  179.4570  139.8210 C   0  0  0  0  0  2  0  0  0  0  0  0
  181.3250  175.1450  135.0600 O   0  0  0  0  0  1  0  0  0  0  0  0
  181.9450  178.3950  140.3080 C   0  0  1  0  0  3  0  0  0  0  0  0
  184.2680  178.6040  138.9760 S   0  0  0  0  0  0  0  0  0  0  0  0
  180.2930  179.0270  138.4910 C   0  0  0  0  0  1  0  0  0  0  0  0
  181.1190  178.7860  141.5510 C   0  0  1  0  0  0  0  0  0  0  0  0
  179.9530  177.5050  143.3430 O   0  0  0  0  0  1  0  0  0  0  0  0
  183.9320  176.0230  134.5980 F   0  0  0  0  0  0  0  0  0  0  0  0
  183.9160  177.2480  136.6340 C   0  0  0  0  0  3  0  0  0  0  0  0
  181.9240  177.2530  138.0450 C   0  0  0  0  0  0  0  0  0  0  0  0
  181.2970  176.4170  137.1020 C   0  0  0  0  0  3  0  0  0  0  0  0
  179.3070  177.2350  140.9950 C   0  0  1  0  0  3  0  0  0  0  0  0
  183.2650  177.6670  137.7980 C   0  0  0  0  0  0  0  0  0  0  0  0
  181.0660  177.8710  139.1360 C   0  0  1  0  0  0  0  0  0  0  0  0
  180.0270  176.8400  139.6790 C   0  0  0  0  0  2  0  0  0  0  0  0
  180.3840  177.5340  142.0150 C   0  0  1  0  0  0  0  0  0  0  0  0
  181.9680  175.9860  135.9590 C   0  0  0  0  0  0  0  0  0  0  0  0
  189.6300  175.7060  142.7610 O   0  0  0  0  0  1  0  0  0  0  0  0
  188.3640  175.6320  143.3470 C   0  0  0  0  0  2  0  0  0  0  0  0
  190.8830  179.2060  143.6820 O   0  0  0  0  0  0  0  0  0  0  0  0
  192.0800  178.5260  144.0430 C   0  0  0  0  0  2  0  0  0  0  0  0
  191.7530  177.1530  144.6090 C   0  0  0  0  0  2  0  0  0  0  0  0
  192.0500  175.9780  146.6430 C   0  0  0  0  0  2  0  0  0  0  0  0
  190.6210  176.1320  146.3970 C   0  0  2  0  0  3  0  0  0  0  0  0
  191.5390  177.2270  146.0500 N   0  0  0  0  0  0  0  0  0  0  0  0
  189.9030  176.4860  147.6910 C   0  0  2  0  0  3  0  0  0  0  0  0
  188.5230  176.3300  147.5320 O   0  0  0  0  0  1  0  0  0  0  0  0
  191.3430  177.8850  148.9940 O   0  0  0  0  0  1  0  0  0  0  0  0
  189.0710  178.5900  148.8260 C   0  0  0  0  0  1  0  0  0  0  0  0
  190.2440  177.9100  148.1360 C   0  0  2  0  0  3  0  0  0  0  0  0
  189.3500  178.2450  139.0200 C   0  0  0  0  0  2  0  0  0  0  0  0
  187.7900  179.2110  137.4990 O   0  0  0  0  0  0  0  0  0  0  0  0
  188.7840  178.4520  137.6570 C   0  0  0  0  0  0  0  0  0  0  0  0
  189.3680  177.8010  136.5710 O   0  0  0  0  0  0  0  0  0  0  0  0
  189.0150  176.4710  136.2060 C   0  0  1  0  0  3  0  0  0  0  0  0
  190.1240  175.4900  136.5920 C   0  0  1  0  0  3  0  0  0  0  0  0
  190.0430  174.3330  135.8130 O   0  0  0  0  0  1  0  0  0  0  0  0
  191.5240  176.1050  136.4800 C   0  0  0  0  0  2  0  0  0  0  0  0
  192.5010  175.5780  137.5330 C   0  0  2  0  0  3  0  0  0  0  0  0
  192.3330  176.2540  138.7450 O   0  0  0  0  0  1  0  0  0  0  0  0
  194.8700  175.2480  138.0580 N   0  0  0  0  0  1  0  0  0  0  0  0
  193.9370  175.7180  137.0470 C   0  0  0  0  0  2  0  0  0  0  0  0
  187.6720  176.0820  136.8270 C   0  0  0  0  0  2  0  0  0  0  0  0
  187.1550  174.8480  136.2420 N   0  0  0  0  0  2  0  0  0  0  0  0
  186.3900  174.1980  137.2250 N   0  0  0  0  0  2  0  0  0  0  0  0
  184.8220  172.8420  135.5310 S   0  0  0  0  0  0  0  0  0  0  0  0
  184.0840  173.6920  137.9250 N   0  0  0  0  0  1  0  0  0  0  0  0
  185.1140  173.6170  136.9460 C   0  0  0  0  0  0  0  0  0  0  0  0
  1  7  1  0  0  0  0
  2  4  2  0  0  0  0
  3  2  1  0  0  0  0
  3  5  1  0  0  0  0
  4 38  1  0  0  0  0
  4  7  1  0  0  0  0
  5  9  1  1  0  0  0
  5  1  1  0  0  0  0
  7  6  1  6  0  0  0
  8  3  2  0  0  0  0
  9 10  1  1  0  0  0
  9 11  1  0  0  0  0
 11 13  1  0  0  0  0
 11 12  1  6  0  0  0
 15 14  1  6  0  0  0
 15 13  1  0  0  0  0
 16 15  1  0  0  0  0
 17 24  1  0  0  0  0
 17 34  1  0  0  0  0
 18 35  2  0  0  0  0
 18 27  1  0  0  0  0
 19 21  1  0  0  0  0
 20 35  1  0  0  0  0
 21 24  1  0  0  0  0
 22 19  1  0  0  0  0
 23 32  1  0  0  0  0
 24 34  1  0  0  0  0
 24 16  1  0  0  0  0
 26 18  1  0  0  0  0
 27 31  2  0  0  0  0
 28 32  1  0  0  0  0
 29 28  2  0  0  0  0
 30 17  1  0  0  0  0
 30 34  1  0  0  0  0
 31 28  1  0  0  0  0
 31 22  1  0  0  0  0
 32 33  1  0  0  0  0
 32 21  1  0  0  0  0
 33 30  1  0  0  0  0
 34 25  1  0  0  0  0
 35 29  1  0  0  0  0
 36 37  1  0  0  0  0
 37  1  1  0  0  0  0
 38 39  1  0  0  0  0
 39 40  1  0  0  0  0
 40 43  1  0  0  0  0
 42 41  1  0  0  0  0
 42 44  1  0  0  0  0
 43 42  1  0  0  0  0
 43 41  1  0  0  0  0
 44 48  1  0  0  0  0
 45 44  1  0  0  0  0
 48 47  1  0  0  0  0
 48 46  1  0  0  0  0
 49  8  1  0  0  0  0
 50 51  2  0  0  0  0
 51 49  1  0  0  0  0
 52 51  1  0  0  0  0
 53 52  1  0  0  0  0
 53 54  1  0  0  0  0
 53 61  1  0  0  0  0
 55 54  1  0  0  0  0
 56 54  1  0  0  0  0
 56 57  1  0  0  0  0
 57 58  1  0  0  0  0
 60 57  1  0  0  0  0
 60 59  1  0  0  0  0
 62 61  1  0  0  0  0
 62 63  1  0  0  0  0
 64 66  2  0  0  0  0
 66 63  1  0  0  0  0
 66 65  1  0  0  0  0
M  END
>  <MODEL>
5

>  <REMARK>
 VINA RESULT:      -2.1      2.934      5.689
  Name = 
  25 active torsions:
  status: ('A' for Active; 'I' for Inactive)
    1  A    between atoms: C_1  and  C_5
    2  A    between atoms: C_1  and  C_20
    3  A    between atoms: C_2  and  C_35
    4  A    between atoms: C_2  and  C_64
    5  A    between atoms: N_3  and  C_60
    6  A    between atoms: C_5  and  C_53
    7  A    between atoms: C_5  and  O_58
    8  A    between atoms: S_9  and  C_23
    9  A    between atoms: S_9  and  C_28
   10  A    between atoms: C_10  and  O_32
   11  A    between atoms: C_10  and  C_54
   12  A    between atoms: C_13  and  C_20
   13  A    between atoms: C_13  and  C_48
   14  A    between atoms: C_19  and  N_40
   15  A    between atoms: C_19  and  C_43
   16  A    between atoms: C_23  and  N_40
   17  A    between atoms: C_27  and  C_49
   18  A    between atoms: C_27  and  C_51
   19  A    between atoms: C_31  and  O_32
   20  A    between atoms: C_35  and  O_58
   21  A    between atoms: C_37  and  C_43
   22  A    between atoms: N_41  and  C_53
   23  A    between atoms: N_41  and  N_59
   24  A    between atoms: C_47  and  N_59
   25  A    between atoms: C_54  and  N_62
                            x       y       z     vdW  Elec       q    Type
                         _______ _______ _______ _____ _____    ______ ____

>  <TORSDO>
F 25

$$$$
=
 OpenBabel10222418393D

 66 72  0  0  1  0  0  0  0  0999 V2000
  185.5030  177.4410  145.7070 N   0  0  0  0  0  0  0  0  0  0  0  0
  188.2370  177.8170  144.9900 N   0  0  0  0  0  0  0  0  0  0  0  0
  187.2930  177.4110  144.0020 C   0  0  0  0  0  0  0  0  0  0  0  0
  187.8790  178.1620  146.1910 C   0  0  0  0  0  0  0  0  0  0  0  0
  185.8290  177.5720  144.2760 C   0  0  2  0  0  3  0  0  0  0  0  0
  185.9240  179.4740  147.0470 C   0  0  0  0  0  1  0  0  0  0  0  0
  186.4370  178.1040  146.6430 C   0  0  1  0  0  3  0  0  0  0  0  0
  187.6940  176.8940  142.8400 C   0  0  0  0  0  3  0  0  0  0  0  0
  185.2280  178.8300  143.6130 C   0  0  2  0  0  3  0  0  0  0  0  0
  184.0700  179.4470  144.3960 C   0  0  0  0  0  1  0  0  0  0  0  0
  184.9100  178.6290  142.1250 C   0  0  2  0  0  3  0  0  0  0  0  0
  185.9880  179.2600  141.2550 C   0  0  0  0  0  1  0  0  0  0  0  0
  183.6000  179.1830  141.7910 N   0  0  0  0  0  2  0  0  0  0  0  0
  184.0420  178.5490  139.4980 C   0  0  0  0  0  1  0  0  0  0  0  0
  183.0490  178.4740  140.6410 C   0  0  2  0  0  3  0  0  0  0  0  0
  181.4560  179.2140  140.1370 S   0  0  0  0  0  0  0  0  0  0  0  0
  179.1160  177.5120  140.2930 C   0  0  1  0  0  3  0  0  0  0  0  0
  181.4280  172.1010  136.2710 C   0  0  0  0  0  0  0  0  0  0  0  0
  181.7110  177.0270  137.6490 C   0  0  0  0  0  2  0  0  0  0  0  0
  179.5940  170.7800  137.1300 O   0  0  0  0  0  1  0  0  0  0  0  0
  181.0850  176.5250  138.9350 C   0  0  1  0  0  3  0  0  0  0  0  0
  182.9080  175.7780  137.1090 S   0  0  0  0  0  0  0  0  0  0  0  0
  178.9320  175.9890  137.7070 C   0  0  0  0  0  1  0  0  0  0  0  0
  180.5710  177.6290  139.8820 C   0  0  1  0  0  0  0  0  0  0  0  0
  180.1360  177.7590  142.3330 O   0  0  0  0  0  1  0  0  0  0  0  0
  181.8160  171.0790  135.4720 F   0  0  0  0  0  0  0  0  0  0  0  0
  182.1570  173.2910  136.2710 C   0  0  0  0  0  3  0  0  0  0  0  0
  180.6370  174.2420  137.9280 C   0  0  0  0  0  0  0  0  0  0  0  0
  179.9170  173.0330  137.9100 C   0  0  0  0  0  3  0  0  0  0  0  0
  178.9360  176.1410  140.9370 C   0  0  1  0  0  3  0  0  0  0  0  0
  181.7830  174.3610  137.0910 C   0  0  0  0  0  0  0  0  0  0  0  0
  180.0160  175.4340  138.6370 C   0  0  1  0  0  0  0  0  0  0  0  0
  179.3310  174.9950  139.9690 C   0  0  0  0  0  2  0  0  0  0  0  0
  180.1870  176.9530  141.1930 C   0  0  1  0  0  0  0  0  0  0  0  0
  180.3170  171.9660  137.1070 C   0  0  0  0  0  0  0  0  0  0  0  0
  186.4520  175.7270  146.9800 O   0  0  0  0  0  1  0  0  0  0  0  0
  185.4560  176.0210  146.0440 C   0  0  0  0  0  2  0  0  0  0  0  0
  188.8340  178.6090  147.1070 O   0  0  0  0  0  0  0  0  0  0  0  0
  189.0000  178.0080  148.3870 C   0  0  0  0  0  2  0  0  0  0  0  0
  190.3820  177.3820  148.4950 C   0  0  0  0  0  2  0  0  0  0  0  0
  192.0350  176.0290  147.4730 C   0  0  0  0  0  2  0  0  0  0  0  0
  191.9460  177.2900  146.7440 C   0  0  2  0  0  3  0  0  0  0  0  0
  190.7220  176.6680  147.2700 N   0  0  0  0  0  0  0  0  0  0  0  0
  192.0230  177.0340  145.2470 C   0  0  2  0  0  3  0  0  0  0  0  0
  191.1370  177.8790  144.5700 O   0  0  0  0  0  1  0  0  0  0  0  0
  192.5650  174.7440  145.6820 O   0  0  0  0  0  1  0  0  0  0  0  0
  191.9130  175.2580  143.4470 C   0  0  0  0  0  1  0  0  0  0  0  0
  191.7310  175.5670  144.9260 C   0  0  2  0  0  3  0  0  0  0  0  0
  189.1370  176.6840  142.5010 C   0  0  0  0  0  2  0  0  0  0  0  0
  188.8130  178.2350  140.7210 O   0  0  0  0  0  0  0  0  0  0  0  0
  189.4550  177.2430  141.1570 C   0  0  0  0  0  0  0  0  0  0  0  0
  190.4690  176.6550  140.3990 O   0  0  0  0  0  0  0  0  0  0  0  0
  190.8400  177.1520  139.1180 C   0  0  1  0  0  3  0  0  0  0  0  0
  192.3390  176.9560  138.8750 C   0  0  1  0  0  3  0  0  0  0  0  0
  193.0620  177.2570  140.0310 O   0  0  0  0  0  1  0  0  0  0  0  0
  192.6800  175.5420  138.3910 C   0  0  0  0  0  2  0  0  0  0  0  0
  193.8640  175.5040  137.4240 C   0  0  2  0  0  3  0  0  0  0  0  0
  193.4430  175.7640  136.1170 O   0  0  0  0  0  1  0  0  0  0  0  0
  195.0180  173.7430  136.1720 N   0  0  0  0  0  1  0  0  0  0  0  0
  194.5660  174.1550  137.4920 C   0  0  0  0  0  2  0  0  0  0  0  0
  189.9980  176.4980  138.0220 C   0  0  0  0  0  2  0  0  0  0  0  0
  189.1050  177.4640  137.3910 N   0  0  0  0  0  2  0  0  0  0  0  0
  187.9140  176.7940  137.0630 N   0  0  0  0  0  2  0  0  0  0  0  0
  187.4570  177.7350  134.5980 S   0  0  0  0  0  0  0  0  0  0  0  0
  185.6100  177.4270  136.4670 N   0  0  0  0  0  1  0  0  0  0  0  0
  186.9810  177.3080  136.1080 C   0  0  0  0  0  0  0  0  0  0  0  0
  1 37  1  0  0  0  0
  1  7  1  0  0  0  0
  2  4  2  0  0  0  0
  3  5  1  0  0  0  0
  3  2  1  0  0  0  0
  4  7  1  0  0  0  0
  4 38  1  0  0  0  0
  5  9  1  1  0  0  0
  5  1  1  0  0  0  0
  7  6  1  6  0  0  0
  8  3  2  0  0  0  0
  9 10  1  1  0  0  0
 11 12  1  6  0  0  0
 11  9  1  0  0  0  0
 13 11  1  0  0  0  0
 15 14  1  6  0  0  0
 15 13  1  0  0  0  0
 16 15  1  0  0  0  0
 17 30  1  0  0  0  0
 17 34  1  0  0  0  0
 18 35  1  0  0  0  0
 19 21  1  0  0  0  0
 21 24  1  0  0  0  0
 22 19  1  0  0  0  0
 23 32  1  0  0  0  0
 24 16  1  0  0  0  0
 24 17  1  0  0  0  0
 24 34  1  0  0  0  0
 26 18  1  0  0  0  0
 27 18  2  0  0  0  0
 27 31  1  0  0  0  0
 28 32  1  0  0  0  0
 29 28  1  0  0  0  0
 30 34  1  0  0  0  0
 31 22  1  0  0  0  0
 31 28  2  0  0  0  0
 32 21  1  0  0  0  0
 32 33  1  0  0  0  0
 33 30  1  0  0  0  0
 34 25  1  0  0  0  0
 35 20  1  0  0  0  0
 35 29  2  0  0  0  0
 37 36  1  0  0  0  0
 38 39  1  0  0  0  0
 39 40  1  0  0  0  0
 42 43  1  0  0  0  0
 42 41  1  0  0  0  0
 43 41  1  0  0  0  0
 43 40  1  0  0  0  0
 44 42  1  0  0  0  0
 45 44  1  0  0  0  0
 47 48  1  0  0  0  0
 48 44  1  0  0  0  0
 48 46  1  0  0  0  0
 49  8  1  0  0  0  0
 50 51  2  0  0  0  0
 51 49  1  0  0  0  0
 52 51  1  0  0  0  0
 53 52  1  0  0  0  0
 54 53  1  0  0  0  0
 54 55  1  0  0  0  0
 56 54  1  0  0  0  0
 57 60  1  0  0  0  0
 57 56  1  0  0  0  0
 58 57  1  0  0  0  0
 59 60  1  0  0  0  0
 61 53  1  0  0  0  0
 62 61  1  0  0  0  0
 63 62  1  0  0  0  0
 64 66  2  0  0  0  0
 66 65  1  0  0  0  0
 66 63  1  0  0  0  0
M  END
>  <MODEL>
6

>  <REMARK>
 VINA RESULT:      -2.0      2.716      5.427
  Name = 
  25 active torsions:
  status: ('A' for Active; 'I' for Inactive)
    1  A    between atoms: C_1  and  C_5
    2  A    between atoms: C_1  and  C_20
    3  A    between atoms: C_2  and  C_35
    4  A    between atoms: C_2  and  C_64
    5  A    between atoms: N_3  and  C_60
    6  A    between atoms: C_5  and  C_53
    7  A    between atoms: C_5  and  O_58
    8  A    between atoms: S_9  and  C_23
    9  A    between atoms: S_9  and  C_28
   10  A    between atoms: C_10  and  O_32
   11  A    between atoms: C_10  and  C_54
   12  A    between atoms: C_13  and  C_20
   13  A    between atoms: C_13  and  C_48
   14  A    between atoms: C_19  and  N_40
   15  A    between atoms: C_19  and  C_43
   16  A    between atoms: C_23  and  N_40
   17  A    between atoms: C_27  and  C_49
   18  A    between atoms: C_27  and  C_51
   19  A    between atoms: C_31  and  O_32
   20  A    between atoms: C_35  and  O_58
   21  A    between atoms: C_37  and  C_43
   22  A    between atoms: N_41  and  C_53
   23  A    between atoms: N_41  and  N_59
   24  A    between atoms: C_47  and  N_59
   25  A    between atoms: C_54  and  N_62
                            x       y       z     vdW  Elec       q    Type
                         _______ _______ _______ _____ _____    ______ ____

>  <TORSDO>
F 25

$$$$
=
 OpenBabel10222418393D

 66 72  0  0  1  0  0  0  0  0999 V2000
  182.1290  176.4270  138.2960 N   0  0  0  0  0  0  0  0  0  0  0  0
  182.5600  178.3460  140.3600 N   0  0  0  0  0  0  0  0  0  0  0  0
  183.6670  177.6330  139.8100 C   0  0  0  0  0  0  0  0  0  0  0  0
  181.3630  178.2600  139.8620 C   0  0  0  0  0  0  0  0  0  0  0  0
  183.5020  176.9200  138.5040 C   0  0  2  0  0  3  0  0  0  0  0  0
  180.5330  178.1370  137.5020 C   0  0  0  0  0  1  0  0  0  0  0  0
  181.0470  177.3520  138.6950 C   0  0  1  0  0  3  0  0  0  0  0  0
  184.8420  177.5970  140.4400 C   0  0  0  0  0  3  0  0  0  0  0  0
  184.0650  177.7170  137.3080 C   0  0  2  0  0  3  0  0  0  0  0  0
  183.5430  177.2470  135.9520 C   0  0  0  0  0  1  0  0  0  0  0  0
  185.5930  177.8600  137.3480 C   0  0  2  0  0  3  0  0  0  0  0  0
  185.9970  179.3260  137.2820 C   0  0  0  0  0  1  0  0  0  0  0  0
  186.2170  177.1110  136.2610 N   0  0  0  0  0  2  0  0  0  0  0  0
  187.2590  175.3280  137.5230 C   0  0  0  0  0  1  0  0  0  0  0  0
  186.1500  175.6830  136.5500 C   0  0  2  0  0  3  0  0  0  0  0  0
  186.3290  174.7090  135.0140 S   0  0  0  0  0  0  0  0  0  0  0  0
  188.2790  172.5700  134.8680 C   0  0  1  0  0  3  0  0  0  0  0  0
  193.7100  175.8130  138.1520 C   0  0  0  0  0  0  0  0  0  0  0  0
  189.2970  176.0960  135.5660 C   0  0  0  0  0  2  0  0  0  0  0  0
  194.7790  173.6530  138.3500 O   0  0  0  0  0  1  0  0  0  0  0  0
  189.0910  174.6950  136.1020 C   0  0  1  0  0  3  0  0  0  0  0  0
  190.0740  177.0690  136.8840 S   0  0  0  0  0  0  0  0  0  0  0  0
  190.9980  173.8380  134.6660 C   0  0  0  0  0  1  0  0  0  0  0  0
  187.9210  173.9180  135.4630 C   0  0  1  0  0  0  0  0  0  0  0  0
  186.4900  172.0120  136.1910 O   0  0  0  0  0  1  0  0  0  0  0  0
  194.7780  176.4170  138.7260 F   0  0  0  0  0  0  0  0  0  0  0  0
  192.6090  176.5800  137.7690 C   0  0  0  0  0  3  0  0  0  0  0  0
  191.4760  174.5770  136.9530 C   0  0  0  0  0  0  0  0  0  0  0  0
  192.5990  173.8250  137.3460 C   0  0  0  0  0  3  0  0  0  0  0  0
  188.9170  171.7400  135.9770 C   0  0  1  0  0  3  0  0  0  0  0  0
  191.4890  175.9830  137.1790 C   0  0  0  0  0  0  0  0  0  0  0  0
  190.4280  173.8980  136.0870 C   0  0  1  0  0  0  0  0  0  0  0  0
  190.1720  172.4350  136.5670 C   0  0  0  0  0  2  0  0  0  0  0  0
  187.7350  172.6390  136.2710 C   0  0  1  0  0  0  0  0  0  0  0  0
  193.6970  174.4300  137.9570 C   0  0  0  0  0  0  0  0  0  0  0  0
  181.0660  174.3480  138.3800 O   0  0  0  0  0  1  0  0  0  0  0  0
  181.9640  175.1860  139.0470 C   0  0  0  0  0  2  0  0  0  0  0  0
  180.3230  179.0230  140.3990 O   0  0  0  0  0  0  0  0  0  0  0  0
  179.0210  179.0440  139.8240 C   0  0  0  0  0  2  0  0  0  0  0  0
  178.9740  180.0330  138.6700 C   0  0  0  0  0  2  0  0  0  0  0  0
  180.3420  181.7170  139.6170 C   0  0  0  0  0  2  0  0  0  0  0  0
  179.9380  182.1400  138.2810 C   0  0  2  0  0  3  0  0  0  0  0  0
  180.2500  180.7250  138.5320 N   0  0  0  0  0  0  0  0  0  0  0  0
  181.1140  182.7810  137.5590 C   0  0  2  0  0  3  0  0  0  0  0  0
  182.2200  182.8510  138.4120 O   0  0  0  0  0  1  0  0  0  0  0  0
  181.3750  185.1480  137.7970 O   0  0  0  0  0  1  0  0  0  0  0  0
  179.2390  184.4020  137.0430 C   0  0  0  0  0  1  0  0  0  0  0  0
  180.7430  184.1690  137.0320 C   0  0  2  0  0  3  0  0  0  0  0  0
  185.0770  178.2690  141.7560 C   0  0  0  0  0  2  0  0  0  0  0  0
  187.2680  178.7490  140.9530 O   0  0  0  0  0  0  0  0  0  0  0  0
  186.5240  178.5640  141.9530 C   0  0  0  0  0  0  0  0  0  0  0  0
  187.0340  178.6350  143.2490 O   0  0  0  0  0  0  0  0  0  0  0  0
  188.1290  177.8320  143.6770 C   0  0  1  0  0  3  0  0  0  0  0  0
  188.2120  177.7980  145.2050 C   0  0  1  0  0  3  0  0  0  0  0  0
  187.0600  177.2190  145.7420 O   0  0  0  0  0  1  0  0  0  0  0  0
  189.4580  177.0650  145.7140 C   0  0  0  0  0  2  0  0  0  0  0  0
  189.5590  177.0340  147.2400 C   0  0  2  0  0  3  0  0  0  0  0  0
  188.7980  178.0600  147.8070 O   0  0  0  0  0  1  0  0  0  0  0  0
  191.7790  176.0000  147.2290 N   0  0  0  0  0  1  0  0  0  0  0  0
  191.0110  177.1490  147.6830 C   0  0  0  0  0  2  0  0  0  0  0  0
  188.0280  176.4250  143.0840 C   0  0  0  0  0  2  0  0  0  0  0  0
  189.1180  176.1630  142.1500 N   0  0  0  0  0  2  0  0  0  0  0  0
  189.8280  177.3630  141.9740 N   0  0  0  0  0  2  0  0  0  0  0  0
  192.2980  176.9950  141.0110 S   0  0  0  0  0  0  0  0  0  0  0  0
  191.7370  177.9860  143.3990 N   0  0  0  0  0  1  0  0  0  0  0  0
  191.2400  177.4580  142.1750 C   0  0  0  0  0  0  0  0  0  0  0  0
  1  5  1  0  0  0  0
  1  7  1  0  0  0  0
  1 37  1  0  0  0  0
  3  2  1  0  0  0  0
  3  8  2  0  0  0  0
  4  2  2  0  0  0  0
  4 38  1  0  0  0  0
  5  9  1  6  0  0  0
  5  3  1  0  0  0  0
  7  6  1  6  0  0  0
  7  4  1  0  0  0  0
  8 49  1  0  0  0  0
  9 10  1  6  0  0  0
  9 11  1  0  0  0  0
 11 12  1  6  0  0  0
 13 15  1  0  0  0  0
 13 11  1  0  0  0  0
 15 14  1  1  0  0  0
 16 24  1  0  0  0  0
 16 15  1  0  0  0  0
 17 24  1  0  0  0  0
 17 30  1  0  0  0  0
 17 34  1  0  0  0  0
 18 26  1  0  0  0  0
 19 21  1  0  0  0  0
 19 22  1  0  0  0  0
 22 31  1  0  0  0  0
 23 32  1  0  0  0  0
 24 21  1  0  0  0  0
 24 34  1  0  0  0  0
 25 34  1  0  0  0  0
 27 18  2  0  0  0  0
 28 31  2  0  0  0  0
 28 29  1  0  0  0  0
 29 35  2  0  0  0  0
 30 34  1  0  0  0  0
 30 33  1  0  0  0  0
 31 27  1  0  0  0  0
 32 21  1  0  0  0  0
 32 33  1  0  0  0  0
 32 28  1  0  0  0  0
 35 18  1  0  0  0  0
 35 20  1  0  0  0  0
 36 37  1  0  0  0  0
 39 38  1  0  0  0  0
 40 39  1  0  0  0  0
 42 43  1  0  0  0  0
 42 41  1  0  0  0  0
 43 40  1  0  0  0  0
 43 41  1  0  0  0  0
 44 42  1  0  0  0  0
 44 45  1  0  0  0  0
 48 47  1  0  0  0  0
 48 44  1  0  0  0  0
 48 46  1  0  0  0  0
 49 51  1  0  0  0  0
 50 51  2  0  0  0  0
 51 52  1  0  0  0  0
 52 53  1  0  0  0  0
 53 54  1  0  0  0  0
 54 56  1  0  0  0  0
 54 55  1  0  0  0  0
 56 57  1  0  0  0  0
 57 60  1  0  0  0  0
 57 58  1  0  0  0  0
 59 60  1  0  0  0  0
 61 53  1  0  0  0  0
 62 61  1  0  0  0  0
 63 62  1  0  0  0  0
 63 66  1  0  0  0  0
 64 66  2  0  0  0  0
 66 65  1  0  0  0  0
M  END
>  <MODEL>
7

>  <REMARK>
 VINA RESULT:      -1.7      3.824      9.821
  Name = 
  25 active torsions:
  status: ('A' for Active; 'I' for Inactive)
    1  A    between atoms: C_1  and  C_5
    2  A    between atoms: C_1  and  C_20
    3  A    between atoms: C_2  and  C_35
    4  A    between atoms: C_2  and  C_64
    5  A    between atoms: N_3  and  C_60
    6  A    between atoms: C_5  and  C_53
    7  A    between atoms: C_5  and  O_58
    8  A    between atoms: S_9  and  C_23
    9  A    between atoms: S_9  and  C_28
   10  A    between atoms: C_10  and  O_32
   11  A    between atoms: C_10  and  C_54
   12  A    between atoms: C_13  and  C_20
   13  A    between atoms: C_13  and  C_48
   14  A    between atoms: C_19  and  N_40
   15  A    between atoms: C_19  and  C_43
   16  A    between atoms: C_23  and  N_40
   17  A    between atoms: C_27  and  C_49
   18  A    between atoms: C_27  and  C_51
   19  A    between atoms: C_31  and  O_32
   20  A    between atoms: C_35  and  O_58
   21  A    between atoms: C_37  and  C_43
   22  A    between atoms: N_41  and  C_53
   23  A    between atoms: N_41  and  N_59
   24  A    between atoms: C_47  and  N_59
   25  A    between atoms: C_54  and  N_62
                            x       y       z     vdW  Elec       q    Type
                         _______ _______ _______ _____ _____    ______ ____

>  <TORSDO>
F 25

$$$$
=
 OpenBabel10222418393D

 66 72  0  0  1  0  0  0  0  0999 V2000
  186.5510  177.9430  136.7490 N   0  0  0  0  0  0  0  0  0  0  0  0
  186.8480  175.1580  137.2820 N   0  0  0  0  0  0  0  0  0  0  0  0
  187.9940  175.9480  136.9720 C   0  0  0  0  0  0  0  0  0  0  0  0
  185.6740  175.6830  137.4700 C   0  0  0  0  0  0  0  0  0  0  0  0
  187.9010  177.4400  137.0600 C   0  0  2  0  0  3  0  0  0  0  0  0
  184.9420  177.7860  138.6160 C   0  0  0  0  0  1  0  0  0  0  0  0
  185.4290  177.1670  137.3190 C   0  0  1  0  0  3  0  0  0  0  0  0
  189.1440  175.3770  136.6100 C   0  0  0  0  0  3  0  0  0  0  0  0
  188.4880  178.0030  138.3720 C   0  0  2  0  0  3  0  0  0  0  0  0
  189.7920  178.7760  138.1830 C   0  0  0  0  0  1  0  0  0  0  0  0
  188.5660  176.9560  139.4920 C   0  0  2  0  0  3  0  0  0  0  0  0
  187.8400  177.4450  140.7360 C   0  0  0  0  0  1  0  0  0  0  0  0
  189.9550  176.6320  139.8080 N   0  0  0  0  0  2  0  0  0  0  0  0
  191.1990  177.8700  141.4740 C   0  0  0  0  0  1  0  0  0  0  0  0
  190.1760  176.7750  141.2430 C   0  0  2  0  0  3  0  0  0  0  0  0
  190.7680  175.2020  141.9610 S   0  0  0  0  0  0  0  0  0  0  0  0
  192.0810  176.0700  144.3940 C   0  0  1  0  0  3  0  0  0  0  0  0
  186.3520  178.3110  147.9920 C   0  0  0  0  0  0  0  0  0  0  0  0
  188.6210  177.1860  143.5380 C   0  0  0  0  0  2  0  0  0  0  0  0
  187.7140  178.3390  149.9890 O   0  0  0  0  0  1  0  0  0  0  0  0
  189.5050  176.3140  144.4060 C   0  0  1  0  0  3  0  0  0  0  0  0
  186.9320  177.0520  144.1850 S   0  0  0  0  0  0  0  0  0  0  0  0
  190.5000  178.3740  145.5020 C   0  0  0  0  0  1  0  0  0  0  0  0
  190.7650  175.7650  143.7060 C   0  0  1  0  0  0  0  0  0  0  0  0
  192.2550  173.8030  144.0850 O   0  0  0  0  0  1  0  0  0  0  0  0
  185.2920  178.7920  148.6830 F   0  0  0  0  0  0  0  0  0  0  0  0
  186.2170  178.0280  146.6320 C   0  0  0  0  0  3  0  0  0  0  0  0
  188.5480  177.3090  146.5320 C   0  0  0  0  0  0  0  0  0  0  0  0
  188.6600  177.6030  147.9040 C   0  0  0  0  0  3  0  0  0  0  0  0
  191.9880  175.5200  145.8140 C   0  0  1  0  0  3  0  0  0  0  0  0
  187.2930  177.5250  145.8930 C   0  0  0  0  0  0  0  0  0  0  0  0
  189.8220  177.0230  145.7550 C   0  0  1  0  0  0  0  0  0  0  0  0
  190.8000  176.1410  146.5930 C   0  0  0  0  0  2  0  0  0  0  0  0
  191.3990  174.7510  144.6510 C   0  0  1  0  0  0  0  0  0  0  0  0
  187.5720  178.0790  148.6330 C   0  0  0  0  0  0  0  0  0  0  0  0
  187.6440  177.8840  134.6850 O   0  0  0  0  0  1  0  0  0  0  0  0
  186.3910  177.9730  135.2980 C   0  0  0  0  0  2  0  0  0  0  0  0
  184.5930  174.8750  137.8290 O   0  0  0  0  0  0  0  0  0  0  0  0
  184.6740  173.4540  137.8350 C   0  0  0  0  0  2  0  0  0  0  0  0
  183.6460  172.8670  136.8800 C   0  0  0  0  0  2  0  0  0  0  0  0
  181.3520  172.5650  136.3780 C   0  0  0  0  0  2  0  0  0  0  0  0
  181.6180  173.9930  136.5080 C   0  0  2  0  0  3  0  0  0  0  0  0
  182.2960  173.0440  137.4030 N   0  0  0  0  0  0  0  0  0  0  0  0
  180.4890  174.6670  137.2720 C   0  0  2  0  0  3  0  0  0  0  0  0
  179.2850  174.5240  136.5730 O   0  0  0  0  0  1  0  0  0  0  0  0
  179.6320  176.8960  137.4240 O   0  0  0  0  0  1  0  0  0  0  0  0
  181.8390  176.6830  136.5500 C   0  0  0  0  0  1  0  0  0  0  0  0
  180.8010  176.1440  137.5230 C   0  0  2  0  0  3  0  0  0  0  0  0
  189.3080  173.8950  136.4810 C   0  0  0  0  0  2  0  0  0  0  0  0
  190.9060  174.2730  134.7540 O   0  0  0  0  0  0  0  0  0  0  0  0
  190.5510  173.5600  135.7300 C   0  0  0  0  0  0  0  0  0  0  0  0
  191.3070  172.4570  136.1250 O   0  0  0  0  0  0  0  0  0  0  0  0
  192.6210  172.5910  136.6580 C   0  0  1  0  0  3  0  0  0  0  0  0
  193.6530  171.9610  135.7200 C   0  0  1  0  0  3  0  0  0  0  0  0
  193.8710  172.7850  134.6130 O   0  0  0  0  0  1  0  0  0  0  0  0
  194.9820  171.6560  136.4210 C   0  0  0  0  0  2  0  0  0  0  0  0
  196.0950  171.2500  135.4540 C   0  0  2  0  0  3  0  0  0  0  0  0
  195.7500  170.0840  134.7650 O   0  0  0  0  0  1  0  0  0  0  0  0
  198.4360  170.5430  135.3090 N   0  0  0  0  0  1  0  0  0  0  0  0
  197.4060  171.0500  136.2020 C   0  0  0  0  0  2  0  0  0  0  0  0
  192.9370  174.0590  136.9450 C   0  0  0  0  0  2  0  0  0  0  0  0
  193.6660  174.2100  138.2010 N   0  0  0  0  0  2  0  0  0  0  0  0
  194.5770  175.2670  138.0420 N   0  0  0  0  0  2  0  0  0  0  0  0
  194.4480  176.4310  135.6350 S   0  0  0  0  0  0  0  0  0  0  0  0
  196.5350  175.0950  136.5590 N   0  0  0  0  0  1  0  0  0  0  0  0
  195.2100  175.5560  136.7920 C   0  0  0  0  0  0  0  0  0  0  0  0
  1  5  1  0  0  0  0
  1  7  1  0  0  0  0
  2  4  2  0  0  0  0
  3  5  1  0  0  0  0
  3  2  1  0  0  0  0
  4 38  1  0  0  0  0
  5  9  1  1  0  0  0
  7  4  1  0  0  0  0
  7  6  1  1  0  0  0
  8  3  2  0  0  0  0
  9 10  1  6  0  0  0
  9 11  1  0  0  0  0
 11 13  1  0  0  0  0
 11 12  1  1  0  0  0
 13 15  1  0  0  0  0
 15 14  1  6  0  0  0
 15 16  1  0  0  0  0
 16 24  1  0  0  0  0
 17 34  1  0  0  0  0
 17 30  1  0  0  0  0
 18 35  1  0  0  0  0
 18 26  1  0  0  0  0
 19 22  1  0  0  0  0
 19 21  1  0  0  0  0
 21 32  1  0  0  0  0
 22 31  1  0  0  0  0
 23 32  1  0  0  0  0
 24 17  1  0  0  0  0
 24 21  1  0  0  0  0
 24 34  1  0  0  0  0
 25 34  1  0  0  0  0
 27 18  2  0  0  0  0
 28 29  1  0  0  0  0
 29 35  2  0  0  0  0
 30 33  1  0  0  0  0
 31 28  2  0  0  0  0
 31 27  1  0  0  0  0
 32 28  1  0  0  0  0
 32 33  1  0  0  0  0
 34 30  1  0  0  0  0
 35 20  1  0  0  0  0
 36 37  1  0  0  0  0
 37  1  1  0  0  0  0
 38 39  1  0  0  0  0
 40 43  1  0  0  0  0
 40 39  1  0  0  0  0
 41 42  1  0  0  0  0
 41 43  1  0  0  0  0
 42 44  1  0  0  0  0
 42 43  1  0  0  0  0
 44 48  1  0  0  0  0
 45 44  1  0  0  0  0
 46 48  1  0  0  0  0
 47 48  1  0  0  0  0
 49  8  1  0  0  0  0
 50 51  2  0  0  0  0
 51 52  1  0  0  0  0
 51 49  1  0  0  0  0
 52 53  1  0  0  0  0
 53 61  1  0  0  0  0
 54 56  1  0  0  0  0
 54 53  1  0  0  0  0
 55 54  1  0  0  0  0
 57 60  1  0  0  0  0
 57 56  1  0  0  0  0
 58 57  1  0  0  0  0
 59 60  1  0  0  0  0
 61 62  1  0  0  0  0
 63 62  1  0  0  0  0
 64 66  2  0  0  0  0
 65 66  1  0  0  0  0
 66 63  1  0  0  0  0
M  END
>  <MODEL>
8

>  <REMARK>
 VINA RESULT:      -1.4      3.475      9.397
  Name = 
  25 active torsions:
  status: ('A' for Active; 'I' for Inactive)
    1  A    between atoms: C_1  and  C_5
    2  A    between atoms: C_1  and  C_20
    3  A    between atoms: C_2  and  C_35
    4  A    between atoms: C_2  and  C_64
    5  A    between atoms: N_3  and  C_60
    6  A    between atoms: C_5  and  C_53
    7  A    between atoms: C_5  and  O_58
    8  A    between atoms: S_9  and  C_23
    9  A    between atoms: S_9  and  C_28
   10  A    between atoms: C_10  and  O_32
   11  A    between atoms: C_10  and  C_54
   12  A    between atoms: C_13  and  C_20
   13  A    between atoms: C_13  and  C_48
   14  A    between atoms: C_19  and  N_40
   15  A    between atoms: C_19  and  C_43
   16  A    between atoms: C_23  and  N_40
   17  A    between atoms: C_27  and  C_49
   18  A    between atoms: C_27  and  C_51
   19  A    between atoms: C_31  and  O_32
   20  A    between atoms: C_35  and  O_58
   21  A    between atoms: C_37  and  C_43
   22  A    between atoms: N_41  and  C_53
   23  A    between atoms: N_41  and  N_59
   24  A    between atoms: C_47  and  N_59
   25  A    between atoms: C_54  and  N_62
                            x       y       z     vdW  Elec       q    Type
                         _______ _______ _______ _____ _____    ______ ____

>  <TORSDO>
F 25

$$$$
=
 OpenBabel10222418393D

 66 72  0  0  1  0  0  0  0  0999 V2000
  187.2240  178.0810  136.8450 N   0  0  0  0  0  0  0  0  0  0  0  0
  187.4890  175.2920  137.3760 N   0  0  0  0  0  0  0  0  0  0  0  0
  188.6530  176.0880  137.1620 C   0  0  0  0  0  0  0  0  0  0  0  0
  186.3020  175.8110  137.4770 C   0  0  0  0  0  0  0  0  0  0  0  0
  188.5480  177.5790  137.2550 C   0  0  2  0  0  3  0  0  0  0  0  0
  185.4760  177.9030  138.5810 C   0  0  0  0  0  1  0  0  0  0  0  0
  186.0640  177.2970  137.3200 C   0  0  1  0  0  3  0  0  0  0  0  0
  189.8290  175.5240  136.8840 C   0  0  0  0  0  3  0  0  0  0  0  0
  189.0300  178.1330  138.6120 C   0  0  2  0  0  3  0  0  0  0  0  0
  189.6830  179.5100  138.5210 C   0  0  0  0  0  1  0  0  0  0  0  0
  189.8660  177.1220  139.4090 C   0  0  2  0  0  3  0  0  0  0  0  0
  189.1100  176.6550  140.6450 C   0  0  0  0  0  1  0  0  0  0  0  0
  191.1560  177.6930  139.7880 N   0  0  0  0  0  2  0  0  0  0  0  0
  192.4120  178.6410  141.6270 C   0  0  0  0  0  1  0  0  0  0  0  0
  191.2710  177.7200  141.2420 C   0  0  2  0  0  3  0  0  0  0  0  0
  191.5770  176.0380  141.8910 S   0  0  0  0  0  0  0  0  0  0  0  0
  192.0100  176.4380  144.7280 C   0  0  1  0  0  3  0  0  0  0  0  0
  185.5420  178.8540  146.4930 C   0  0  0  0  0  0  0  0  0  0  0  0
  189.1460  178.0430  142.9450 C   0  0  0  0  0  2  0  0  0  0  0  0
  186.1180  178.4770  148.8110 O   0  0  0  0  0  1  0  0  0  0  0  0
  189.6130  176.9740  143.9110 C   0  0  1  0  0  3  0  0  0  0  0  0
  187.3330  178.0230  142.9570 S   0  0  0  0  0  0  0  0  0  0  0  0
  190.2930  178.7520  145.5870 C   0  0  0  0  0  1  0  0  0  0  0  0
  191.0000  176.3750  143.5980 C   0  0  1  0  0  0  0  0  0  0  0  0
  192.1340  174.2230  144.1440 O   0  0  0  0  0  1  0  0  0  0  0  0
  184.3400  179.3640  146.8540 F   0  0  0  0  0  0  0  0  0  0  0  0
  185.8720  178.7610  145.1410 C   0  0  0  0  0  3  0  0  0  0  0  0
  188.0390  177.7980  145.7200 C   0  0  0  0  0  0  0  0  0  0  0  0
  187.6840  177.9030  147.0770 C   0  0  0  0  0  3  0  0  0  0  0  0
  191.3910  175.7300  145.9290 C   0  0  1  0  0  3  0  0  0  0  0  0
  187.1040  178.2340  144.7380 C   0  0  0  0  0  0  0  0  0  0  0  0
  189.4830  177.4670  145.3810 C   0  0  1  0  0  0  0  0  0  0  0  0
  190.0480  176.3810  146.3500 C   0  0  0  0  0  2  0  0  0  0  0  0
  191.1970  175.1850  144.5300 C   0  0  1  0  0  0  0  0  0  0  0  0
  186.4420  178.4060  147.4630 C   0  0  0  0  0  0  0  0  0  0  0  0
  185.9120  177.7190  134.9460 O   0  0  0  0  0  1  0  0  0  0  0  0
  187.1760  178.1220  135.3860 C   0  0  0  0  0  2  0  0  0  0  0  0
  185.2000  174.9970  137.7450 O   0  0  0  0  0  0  0  0  0  0  0  0
  183.9780  175.1080  137.0220 C   0  0  0  0  0  2  0  0  0  0  0  0
  183.1910  173.8100  137.1220 C   0  0  0  0  0  2  0  0  0  0  0  0
  183.0800  171.5550  136.4110 C   0  0  0  0  0  2  0  0  0  0  0  0
  184.4780  171.9080  136.6270 C   0  0  2  0  0  3  0  0  0  0  0  0
  183.5600  172.8990  136.0460 N   0  0  0  0  0  0  0  0  0  0  0  0
  185.3400  171.3270  135.5170 C   0  0  2  0  0  3  0  0  0  0  0  0
  184.8280  170.0910  135.1090 O   0  0  0  0  0  1  0  0  0  0  0  0
  187.5850  172.1270  135.2950 O   0  0  0  0  0  1  0  0  0  0  0  0
  187.3440  169.7940  135.7240 C   0  0  0  0  0  1  0  0  0  0  0  0
  186.7960  171.1930  135.9660 C   0  0  2  0  0  3  0  0  0  0  0  0
  190.0090  174.0440  136.7570 C   0  0  0  0  0  2  0  0  0  0  0  0
  191.0230  174.1210  134.6020 O   0  0  0  0  0  0  0  0  0  0  0  0
  191.0990  173.7210  135.7940 C   0  0  0  0  0  0  0  0  0  0  0  0
  192.1950  172.9760  136.2320 O   0  0  0  0  0  0  0  0  0  0  0  0
  193.5340  173.4240  136.0540 C   0  0  1  0  0  3  0  0  0  0  0  0
  193.8700  174.5390  137.0470 C   0  0  1  0  0  3  0  0  0  0  0  0
  193.5300  174.1510  138.3460 O   0  0  0  0  0  1  0  0  0  0  0  0
  195.3420  174.9600  136.9900 C   0  0  0  0  0  2  0  0  0  0  0  0
  195.7160  175.6750  135.6900 C   0  0  2  0  0  3  0  0  0  0  0  0
  197.0120  176.1930  135.7660 O   0  0  0  0  0  1  0  0  0  0  0  0
  195.4000  177.9450  134.8240 N   0  0  0  0  0  1  0  0  0  0  0  0
  194.7220  176.7870  135.3870 C   0  0  0  0  0  2  0  0  0  0  0  0
  194.5120  172.2530  136.1650 C   0  0  0  0  0  2  0  0  0  0  0  0
  195.1510  171.9720  134.8830 N   0  0  0  0  0  2  0  0  0  0  0  0
  196.1640  171.0250  135.1090 N   0  0  0  0  0  2  0  0  0  0  0  0
  198.5840  170.2640  135.9640 S   0  0  0  0  0  0  0  0  0  0  0  0
  197.8600  172.7660  135.5020 N   0  0  0  0  0  1  0  0  0  0  0  0
  197.4850  171.3940  135.5140 C   0  0  0  0  0  0  0  0  0  0  0  0
  1  5  1  0  0  0  0
  1  7  1  0  0  0  0
  2  4  2  0  0  0  0
  3  5  1  0  0  0  0
  3  2  1  0  0  0  0
  4 38  1  0  0  0  0
  5  9  1  1  0  0  0
  7  4  1  0  0  0  0
  7  6  1  1  0  0  0
  8  3  2  0  0  0  0
  9 10  1  6  0  0  0
  9 11  1  0  0  0  0
 11 13  1  0  0  0  0
 11 12  1  1  0  0  0
 13 15  1  0  0  0  0
 15 14  1  6  0  0  0
 15 16  1  0  0  0  0
 16 24  1  0  0  0  0
 17 30  1  0  0  0  0
 18 26  1  0  0  0  0
 18 35  1  0  0  0  0
 19 22  1  0  0  0  0
 19 21  1  0  0  0  0
 21 32  1  0  0  0  0
 22 31  1  0  0  0  0
 24 21  1  0  0  0  0
 24 34  1  0  0  0  0
 24 17  1  0  0  0  0
 25 34  1  0  0  0  0
 27 18  2  0  0  0  0
 28 29  1  0  0  0  0
 29 35  2  0  0  0  0
 30 33  1  0  0  0  0
 31 27  1  0  0  0  0
 31 28  2  0  0  0  0
 32 23  1  0  0  0  0
 32 28  1  0  0  0  0
 32 33  1  0  0  0  0
 34 17  1  0  0  0  0
 34 30  1  0  0  0  0
 35 20  1  0  0  0  0
 36 37  1  0  0  0  0
 37  1  1  0  0  0  0
 39 40  1  0  0  0  0
 39 38  1  0  0  0  0
 41 42  1  0  0  0  0
 43 41  1  0  0  0  0
 43 42  1  0  0  0  0
 43 40  1  0  0  0  0
 44 48  1  0  0  0  0
 44 42  1  0  0  0  0
 45 44  1  0  0  0  0
 46 48  1  0  0  0  0
 47 48  1  0  0  0  0
 49  8  1  0  0  0  0
 50 51  2  0  0  0  0
 51 52  1  0  0  0  0
 51 49  1  0  0  0  0
 53 61  1  0  0  0  0
 53 52  1  0  0  0  0
 53 54  1  0  0  0  0
 54 55  1  0  0  0  0
 56 54  1  0  0  0  0
 57 58  1  0  0  0  0
 57 56  1  0  0  0  0
 59 60  1  0  0  0  0
 60 57  1  0  0  0  0
 62 63  1  0  0  0  0
 62 61  1  0  0  0  0
 63 66  1  0  0  0  0
 65 66  1  0  0  0  0
 66 64  2  0  0  0  0
M  END
>  <MODEL>
9

>  <REMARK>
 VINA RESULT:      -1.4      3.406      9.239
  Name = 
  25 active torsions:
  status: ('A' for Active; 'I' for Inactive)
    1  A    between atoms: C_1  and  C_5
    2  A    between atoms: C_1  and  C_20
    3  A    between atoms: C_2  and  C_35
    4  A    between atoms: C_2  and  C_64
    5  A    between atoms: N_3  and  C_60
    6  A    between atoms: C_5  and  C_53
    7  A    between atoms: C_5  and  O_58
    8  A    between atoms: S_9  and  C_23
    9  A    between atoms: S_9  and  C_28
   10  A    between atoms: C_10  and  O_32
   11  A    between atoms: C_10  and  C_54
   12  A    between atoms: C_13  and  C_20
   13  A    between atoms: C_13  and  C_48
   14  A    between atoms: C_19  and  N_40
   15  A    between atoms: C_19  and  C_43
   16  A    between atoms: C_23  and  N_40
   17  A    between atoms: C_27  and  C_49
   18  A    between atoms: C_27  and  C_51
   19  A    between atoms: C_31  and  O_32
   20  A    between atoms: C_35  and  O_58
   21  A    between atoms: C_37  and  C_43
   22  A    between atoms: N_41  and  C_53
   23  A    between atoms: N_41  and  N_59
   24  A    between atoms: C_47  and  N_59
   25  A    between atoms: C_54  and  N_62
                            x       y       z     vdW  Elec       q    Type
                         _______ _______ _______ _____ _____    ______ ____

>  <TORSDO>
F 25

$$$$
