=
 OpenBabel10222415293D

 31 33  0  0  1  0  0  0  0  0999 V2000
  182.5910  177.5660  139.3370 C   0  0  0  0  0  0  0  0  0  0  0  0
  187.2850  177.8170  137.4150 C   0  0  0  0  0  3  0  0  0  0  0  0
  184.2570  175.6810  136.4710 C   0  0  2  0  0  3  0  0  0  0  0  0
  182.8830  178.6610  141.5910 C   0  0  0  0  0  2  0  0  0  0  0  0
  182.3000  175.1590  137.9350 C   0  0  0  0  0  3  0  0  0  0  0  0
  189.8940  175.9060  136.1670 O   0  0  0  0  0  0  0  0  0  0  0  0
  183.3300  176.0430  137.5910 C   0  0  0  0  0  0  0  0  0  0  0  0
  185.7300  175.9410  136.8170 C   0  0  1  0  0  3  0  0  0  0  0  0
  184.1260  177.8780  141.9880 C   0  0  0  0  0  2  0  0  0  0  0  0
  186.5900  178.0180  142.3680 C   0  0  1  0  0  3  0  0  0  0  0  0
  181.4190  175.4730  138.9740 C   0  0  0  0  0  3  0  0  0  0  0  0
  183.4630  177.2520  138.2890 C   0  0  0  0  0  3  0  0  0  0  0  0
  185.3800  178.7040  141.7530 C   0  0  0  0  0  2  0  0  0  0  0  0
  186.6280  174.9650  136.0750 C   0  0  0  0  0  2  0  0  0  0  0  0
  188.2460  177.7650  140.5320 C   0  0  0  0  0  2  0  0  0  0  0  0
  187.8500  178.5870  141.7410 C   0  0  0  0  0  2  0  0  0  0  0  0
  188.8060  175.9730  136.7960 C   0  0  0  0  0  0  0  0  0  0  0  0
  183.8100  176.2940  135.1490 C   0  0  0  0  0  1  0  0  0  0  0  0
  181.5640  176.6740  139.6740 C   0  0  0  0  0  3  0  0  0  0  0  0
  182.7830  178.8570  140.0760 C   0  0  2  0  0  3  0  0  0  0  0  0
  186.1670  177.3740  136.5220 C   0  0  0  0  0  2  0  0  0  0  0  0
  188.4700  177.2010  137.5430 C   0  0  0  0  0  0  0  0  0  0  0  0
  189.5560  177.8230  138.3810 C   0  0  0  0  0  2  0  0  0  0  0  0
  189.0540  178.6290  139.5810 C   0  0  0  0  0  2  0  0  0  0  0  0
  187.9240  174.7620  136.8430 C   0  0  0  0  0  2  0  0  0  0  0  0
  181.7150  179.8440  139.7260 C   0  0  0  0  0  0  0  0  0  0  0  0
  180.6180  179.9910  140.5650 O   0  0  0  0  0  1  0  0  0  0  0  0
  181.8190  180.5680  138.6990 O   0  0  0  0  0  0  0  0  0  0  0  0
  186.6030  178.2630  143.8700 C   0  0  0  0  0  2  0  0  0  0  0  0
  188.4610  177.8280  145.2640 O   0  0  0  0  0  0  0  0  0  0  0  0
  187.5860  177.3650  144.5520 C   0  0  0  0  0  3  0  0  0  0  0  0
  1 19  1  0  0  0  0
  1 20  1  0  0  0  0
  2 22  2  0  0  0  0
  3 18  1  6  0  0  0
  3  8  1  0  0  0  0
  3  7  1  0  0  0  0
  4  9  1  0  0  0  0
  5 11  1  0  0  0  0
  6 17  2  0  0  0  0
  7  5  2  0  0  0  0
  7 12  1  0  0  0  0
  8 14  1  6  0  0  0
 10 29  1  1  0  0  0
 11 19  2  0  0  0  0
 12  1  2  0  0  0  0
 13  9  1  0  0  0  0
 13 10  1  0  0  0  0
 14 25  1  0  0  0  0
 15 16  1  0  0  0  0
 16 10  1  0  0  0  0
 17 25  1  0  0  0  0
 17 22  1  0  0  0  0
 20 26  1  1  0  0  0
 20  4  1  0  0  0  0
 21  8  1  0  0  0  0
 21  2  1  0  0  0  0
 22 23  1  0  0  0  0
 23 24  1  0  0  0  0
 24 15  1  0  0  0  0
 26 27  1  0  0  0  0
 28 26  2  0  0  0  0
 29 31  1  0  0  0  0
 31 30  2  0  0  0  0
M  END
>  <MODEL>
1

>  <REMARK>
 VINA RESULT:      -6.7      0.000      0.000
  Name = 
  3 active torsions:
  status: ('A' for Active; 'I' for Inactive)
    1  A    between atoms: C_9  and  C_26
    2  A    between atoms: C_11  and  C_23
    3  A    between atoms: C_23  and  C_24
                            x       y       z     vdW  Elec       q    Type
                         _______ _______ _______ _____ _____    ______ ____

>  <TORSDO>
F 3

$$$$
=
 OpenBabel10222415293D

 31 33  0  0  1  0  0  0  0  0999 V2000
  189.0600  177.8950  143.7140 C   0  0  0  0  0  0  0  0  0  0  0  0
  185.8780  179.1780  139.9700 C   0  0  0  0  0  3  0  0  0  0  0  0
  185.2630  178.2300  143.6230 C   0  0  2  0  0  3  0  0  0  0  0  0
  191.1530  177.2870  142.4440 C   0  0  0  0  0  2  0  0  0  0  0  0
  186.8180  176.9500  145.1020 C   0  0  0  0  0  3  0  0  0  0  0  0
  182.8110  178.4310  138.5370 O   0  0  0  0  0  0  0  0  0  0  0  0
  186.6480  177.8190  144.0170 C   0  0  0  0  0  0  0  0  0  0  0  0
  185.0370  178.1650  142.1060 C   0  0  1  0  0  3  0  0  0  0  0  0
  190.4640  176.3940  141.4210 C   0  0  0  0  0  2  0  0  0  0  0  0
  189.7790  176.1870  139.0290 C   0  0  1  0  0  3  0  0  0  0  0  0
  188.1010  176.5540  145.4930 C   0  0  0  0  0  3  0  0  0  0  0  0
  187.7760  178.2980  143.3340 C   0  0  0  0  0  3  0  0  0  0  0  0
  190.2440  177.1430  140.1160 C   0  0  0  0  0  2  0  0  0  0  0  0
  183.5790  177.8640  141.8000 C   0  0  0  0  0  2  0  0  0  0  0  0
  187.6440  177.1180  138.1610 C   0  0  0  0  0  2  0  0  0  0  0  0
  189.1330  176.9880  137.9120 C   0  0  0  0  0  2  0  0  0  0  0  0
  183.7490  178.1130  139.3130 C   0  0  0  0  0  0  0  0  0  0  0  0
  184.8670  179.5590  144.2560 C   0  0  0  0  0  1  0  0  0  0  0  0
  189.2190  177.0240  144.8010 C   0  0  0  0  0  3  0  0  0  0  0  0
  190.2380  178.4090  142.9400 C   0  0  2  0  0  3  0  0  0  0  0  0
  185.4630  179.4420  141.3850 C   0  0  0  0  0  2  0  0  0  0  0  0
  185.1190  178.5880  139.0340 C   0  0  0  0  0  0  0  0  0  0  0  0
  185.6090  178.4980  137.6130 C   0  0  0  0  0  2  0  0  0  0  0  0
  187.1270  178.3650  137.4680 C   0  0  0  0  0  2  0  0  0  0  0  0
  183.4620  177.1780  140.4480 C   0  0  0  0  0  2  0  0  0  0  0  0
  191.0030  179.4220  143.7310 C   0  0  0  0  0  0  0  0  0  0  0  0
  192.2100  179.0640  144.3170 O   0  0  0  0  0  1  0  0  0  0  0  0
  190.5820  180.6060  143.8390 O   0  0  0  0  0  0  0  0  0  0  0  0
  190.9730  175.4140  138.4870 C   0  0  0  0  0  2  0  0  0  0  0  0
  193.0390  176.5120  138.1600 O   0  0  0  0  0  0  0  0  0  0  0  0
  191.9070  176.3180  137.7480 C   0  0  0  0  0  3  0  0  0  0  0  0
  1 19  1  0  0  0  0
  2 21  1  0  0  0  0
  3  7  1  0  0  0  0
  3 18  1  6  0  0  0
  4 20  1  0  0  0  0
  5 11  1  0  0  0  0
  6 17  2  0  0  0  0
  7  5  2  0  0  0  0
  8 21  1  6  0  0  0
  8  3  1  0  0  0  0
  9  4  1  0  0  0  0
 10 29  1  6  0  0  0
 10 13  1  0  0  0  0
 12  1  2  0  0  0  0
 12  7  1  0  0  0  0
 13  9  1  0  0  0  0
 14  8  1  0  0  0  0
 16 15  1  0  0  0  0
 16 10  1  0  0  0  0
 17 25  1  0  0  0  0
 19 11  2  0  0  0  0
 20  1  1  0  0  0  0
 20 26  1  1  0  0  0
 22 17  1  0  0  0  0
 22  2  2  0  0  0  0
 23 22  1  0  0  0  0
 24 23  1  0  0  0  0
 24 15  1  0  0  0  0
 25 14  1  0  0  0  0
 26 28  2  0  0  0  0
 26 27  1  0  0  0  0
 31 30  2  0  0  0  0
 31 29  1  0  0  0  0
M  END
>  <MODEL>
2

>  <REMARK>
 VINA RESULT:      -6.1      2.305      7.341
  Name = 
  3 active torsions:
  status: ('A' for Active; 'I' for Inactive)
    1  A    between atoms: C_9  and  C_26
    2  A    between atoms: C_11  and  C_23
    3  A    between atoms: C_23  and  C_24
                            x       y       z     vdW  Elec       q    Type
                         _______ _______ _______ _____ _____    ______ ____

>  <TORSDO>
F 3

$$$$
=
 OpenBabel10222415293D

 31 33  0  0  1  0  0  0  0  0999 V2000
  188.3960  177.8670  138.9980 C   0  0  0  0  0  0  0  0  0  0  0  0
  183.8580  175.7530  138.1450 C   0  0  0  0  0  3  0  0  0  0  0  0
  186.4940  177.1740  135.7670 C   0  0  2  0  0  3  0  0  0  0  0  0
  188.2490  178.4700  141.4430 C   0  0  0  0  0  2  0  0  0  0  0  0
  188.2990  178.7980  136.3580 C   0  0  0  0  0  3  0  0  0  0  0  0
  180.9870  175.9930  136.2180 O   0  0  0  0  0  0  0  0  0  0  0  0
  187.4440  177.7650  136.7620 C   0  0  0  0  0  0  0  0  0  0  0  0
  185.0800  176.9920  136.3370 C   0  0  1  0  0  3  0  0  0  0  0  0
  186.8810  179.1330  141.3610 C   0  0  0  0  0  2  0  0  0  0  0  0
  184.4700  178.9180  141.9750 C   0  0  1  0  0  3  0  0  0  0  0  0
  189.1990  179.3650  137.2650 C   0  0  0  0  0  3  0  0  0  0  0  0
  187.5060  177.2950  138.0820 C   0  0  0  0  0  3  0  0  0  0  0  0
  185.7930  178.1820  141.8320 C   0  0  0  0  0  2  0  0  0  0  0  0
  184.0440  177.1080  135.2320 C   0  0  0  0  0  2  0  0  0  0  0  0
  182.8360  177.6760  140.5740 C   0  0  0  0  0  2  0  0  0  0  0  0
  183.3400  177.9040  141.9840 C   0  0  0  0  0  2  0  0  0  0  0  0
  182.0570  176.5090  136.6350 C   0  0  0  0  0  0  0  0  0  0  0  0
  187.0680  175.9230  135.1120 C   0  0  0  0  0  1  0  0  0  0  0  0
  189.2470  178.9020  138.5830 C   0  0  0  0  0  3  0  0  0  0  0  0
  188.4130  177.3550  140.4070 C   0  0  2  0  0  3  0  0  0  0  0  0
  184.9020  175.6660  137.0750 C   0  0  0  0  0  2  0  0  0  0  0  0
  182.5830  176.1250  137.9600 C   0  0  0  0  0  0  0  0  0  0  0  0
  181.6020  176.0470  139.1000 C   0  0  0  0  0  2  0  0  0  0  0  0
  182.2080  176.2970  140.4820 C   0  0  0  0  0  2  0  0  0  0  0  0
  182.7160  177.5710  135.8090 C   0  0  0  0  0  2  0  0  0  0  0  0
  189.6420  176.5450  140.6730 C   0  0  0  0  0  0  0  0  0  0  0  0
  190.3630  176.0240  139.6070 O   0  0  0  0  0  0  0  0  0  0  0  0
  190.0500  176.3630  141.8520 O   0  0  0  0  0  1  0  0  0  0  0  0
  184.4660  179.7080  143.2750 C   0  0  0  0  0  2  0  0  0  0  0  0
  183.6450  179.1040  145.4070 O   0  0  0  0  0  0  0  0  0  0  0  0
  183.4180  179.1970  144.2110 C   0  0  0  0  0  3  0  0  0  0  0  0
  1 20  1  0  0  0  0
  3 18  1  1  0  0  0
  3  8  1  0  0  0  0
  3  7  1  0  0  0  0
  5  7  2  0  0  0  0
  5 11  1  0  0  0  0
  6 17  2  0  0  0  0
  7 12  1  0  0  0  0
  8 14  1  6  0  0  0
  8 21  1  0  0  0  0
  9  4  1  0  0  0  0
  9 13  1  0  0  0  0
 10 16  1  0  0  0  0
 10 29  1  1  0  0  0
 11 19  2  0  0  0  0
 12  1  2  0  0  0  0
 13 10  1  0  0  0  0
 14 25  1  0  0  0  0
 15 16  1  0  0  0  0
 17 22  1  0  0  0  0
 19  1  1  0  0  0  0
 20 26  1  1  0  0  0
 20  4  1  0  0  0  0
 21  2  1  0  0  0  0
 22  2  2  0  0  0  0
 22 23  1  0  0  0  0
 23 24  1  0  0  0  0
 24 15  1  0  0  0  0
 25 17  1  0  0  0  0
 26 28  1  0  0  0  0
 27 26  2  0  0  0  0
 29 31  1  0  0  0  0
 31 30  2  0  0  0  0
M  END
>  <MODEL>
3

>  <REMARK>
 VINA RESULT:      -6.0      2.150      5.957
  Name = 
  3 active torsions:
  status: ('A' for Active; 'I' for Inactive)
    1  A    between atoms: C_9  and  C_26
    2  A    between atoms: C_11  and  C_23
    3  A    between atoms: C_23  and  C_24
                            x       y       z     vdW  Elec       q    Type
                         _______ _______ _______ _____ _____    ______ ____

>  <TORSDO>
F 3

$$$$
=
 OpenBabel10222415293D

 31 33  0  0  1  0  0  0  0  0999 V2000
  187.7590  176.6490  136.8920 C   0  0  0  0  0  0  0  0  0  0  0  0
  186.9360  178.7020  141.4630 C   0  0  0  0  0  3  0  0  0  0  0  0
  189.8490  176.6460  140.0810 C   0  0  2  0  0  3  0  0  0  0  0  0
  185.4440  176.6450  135.8890 C   0  0  0  0  0  2  0  0  0  0  0  0
  189.7790  175.1280  138.0970 C   0  0  0  0  0  3  0  0  0  0  0  0
  187.2510  178.1430  144.8700 O   0  0  0  0  0  0  0  0  0  0  0  0
  189.2830  176.2640  138.7480 C   0  0  0  0  0  0  0  0  0  0  0  0
  188.7630  177.0200  141.0990 C   0  0  1  0  0  3  0  0  0  0  0  0
  184.7470  176.0430  137.1010 C   0  0  0  0  0  2  0  0  0  0  0  0
  183.1810  176.5030  138.9900 C   0  0  1  0  0  3  0  0  0  0  0  0
  189.2710  174.7520  136.8500 C   0  0  0  0  0  3  0  0  0  0  0  0
  188.2790  177.0280  138.1340 C   0  0  0  0  0  3  0  0  0  0  0  0
  184.0690  177.1250  137.9250 C   0  0  0  0  0  2  0  0  0  0  0  0
  189.2230  176.6930  142.5090 C   0  0  0  0  0  2  0  0  0  0  0  0
  183.9390  177.4520  141.1590 C   0  0  0  0  0  2  0  0  0  0  0  0
  182.8970  177.5400  140.0620 C   0  0  0  0  0  2  0  0  0  0  0  0
  187.2550  177.6930  143.6950 C   0  0  0  0  0  0  0  0  0  0  0  0
  190.9600  177.6810  139.9470 C   0  0  0  0  0  1  0  0  0  0  0  0
  188.2630  175.5090  136.2490 C   0  0  0  0  0  3  0  0  0  0  0  0
  186.6680  177.4770  136.2810 C   0  0  2  0  0  3  0  0  0  0  0  0
  188.3500  178.4880  141.0170 C   0  0  0  0  0  2  0  0  0  0  0  0
  186.4370  178.3540  142.6590 C   0  0  0  0  0  0  0  0  0  0  0  0
  185.0290  178.7410  143.0290 C   0  0  0  0  0  2  0  0  0  0  0  0
  184.0520  178.7970  141.8520 C   0  0  0  0  0  2  0  0  0  0  0  0
  188.0210  176.4380  143.4040 C   0  0  0  0  0  2  0  0  0  0  0  0
  187.1780  178.2710  135.1210 C   0  0  0  0  0  0  0  0  0  0  0  0
  188.4310  177.9860  134.5940 O   0  0  0  0  0  1  0  0  0  0  0  0
  186.4680  179.1700  134.5940 O   0  0  0  0  0  0  0  0  0  0  0  0
  181.8760  176.0420  138.3580 C   0  0  0  0  0  2  0  0  0  0  0  0
  180.4380  175.0040  139.9200 O   0  0  0  0  0  0  0  0  0  0  0  0
  180.7660  176.0380  139.3600 C   0  0  0  0  0  3  0  0  0  0  0  0
  1 12  1  0  0  0  0
  2 22  2  0  0  0  0
  3 18  1  6  0  0  0
  3  8  1  0  0  0  0
  4 20  1  0  0  0  0
  4  9  1  0  0  0  0
  5  7  1  0  0  0  0
  7  3  1  0  0  0  0
  8 21  1  1  0  0  0
  8 14  1  0  0  0  0
  9 13  1  0  0  0  0
 10 29  1  6  0  0  0
 10 16  1  0  0  0  0
 11  5  2  0  0  0  0
 12  7  2  0  0  0  0
 13 10  1  0  0  0  0
 14 25  1  0  0  0  0
 15 24  1  0  0  0  0
 16 15  1  0  0  0  0
 17  6  2  0  0  0  0
 19 11  1  0  0  0  0
 19  1  2  0  0  0  0
 20 26  1  6  0  0  0
 20  1  1  0  0  0  0
 21  2  1  0  0  0  0
 22 23  1  0  0  0  0
 22 17  1  0  0  0  0
 24 23  1  0  0  0  0
 25 17  1  0  0  0  0
 27 26  1  0  0  0  0
 28 26  2  0  0  0  0
 29 31  1  0  0  0  0
 31 30  2  0  0  0  0
M  END
>  <MODEL>
4

>  <REMARK>
 VINA RESULT:      -5.7      1.884      6.798
  Name = 
  3 active torsions:
  status: ('A' for Active; 'I' for Inactive)
    1  A    between atoms: C_9  and  C_26
    2  A    between atoms: C_11  and  C_23
    3  A    between atoms: C_23  and  C_24
                            x       y       z     vdW  Elec       q    Type
                         _______ _______ _______ _____ _____    ______ ____

>  <TORSDO>
F 3

$$$$
=
 OpenBabel10222415293D

 31 33  0  0  1  0  0  0  0  0999 V2000
  187.3680  176.4160  136.6880 C   0  0  0  0  0  0  0  0  0  0  0  0
  183.5160  177.1580  139.9120 C   0  0  0  0  0  3  0  0  0  0  0  0
  183.7650  177.5230  136.1140 C   0  0  2  0  0  3  0  0  0  0  0  0
  189.3640  176.4530  138.2300 C   0  0  0  0  0  2  0  0  0  0  0  0
  185.8630  177.8230  134.7900 C   0  0  0  0  0  3  0  0  0  0  0  0
  180.8440  179.2460  140.6330 O   0  0  0  0  0  0  0  0  0  0  0  0
  185.2360  177.3100  135.9330 C   0  0  0  0  0  0  0  0  0  0  0  0
  183.4030  177.9650  137.5390 C   0  0  1  0  0  3  0  0  0  0  0  0
  188.9660  177.7200  138.9760 C   0  0  0  0  0  2  0  0  0  0  0  0
  188.1370  178.6330  141.1460 C   0  0  1  0  0  3  0  0  0  0  0  0
  187.2340  177.6360  134.5940 C   0  0  0  0  0  3  0  0  0  0  0  0
  185.9940  176.5960  136.8730 C   0  0  0  0  0  3  0  0  0  0  0  0
  188.3140  177.3790  140.3060 C   0  0  0  0  0  2  0  0  0  0  0  0
  182.1570  178.8340  137.5230 C   0  0  0  0  0  2  0  0  0  0  0  0
  185.7210  178.7420  141.7200 C   0  0  0  0  0  2  0  0  0  0  0  0
  187.0990  178.3630  142.2220 C   0  0  0  0  0  2  0  0  0  0  0  0
  181.9170  179.0370  140.0090 C   0  0  0  0  0  0  0  0  0  0  0  0
  182.9560  176.3340  135.6060 C   0  0  0  0  0  1  0  0  0  0  0  0
  187.9860  176.9350  135.5410 C   0  0  0  0  0  3  0  0  0  0  0  0
  188.1470  175.6700  137.7300 C   0  0  2  0  0  3  0  0  0  0  0  0
  183.2030  176.7900  138.4940 C   0  0  0  0  0  2  0  0  0  0  0  0
  182.9440  178.1580  140.6000 C   0  0  0  0  0  0  0  0  0  0  0  0
  183.2580  178.3410  142.0630 C   0  0  0  0  0  2  0  0  0  0  0  0
  184.6760  177.9340  142.4680 C   0  0  0  0  0  2  0  0  0  0  0  0
  182.1580  179.7680  138.7230 C   0  0  0  0  0  2  0  0  0  0  0  0
  188.5400  174.3120  137.2420 C   0  0  0  0  0  0  0  0  0  0  0  0
  189.8280  173.8470  137.4760 O   0  0  0  0  0  1  0  0  0  0  0  0
  187.7050  173.5730  136.6540 O   0  0  0  0  0  0  0  0  0  0  0  0
  189.4650  179.0050  141.7910 C   0  0  0  0  0  2  0  0  0  0  0  0
  190.2100  178.5940  143.9950 O   0  0  0  0  0  0  0  0  0  0  0  0
  189.7580  178.1250  142.9630 C   0  0  0  0  0  3  0  0  0  0  0  0
  1 12  1  0  0  0  0
  1 20  1  0  0  0  0
  2 22  2  0  0  0  0
  3 18  1  1  0  0  0
  3  8  1  0  0  0  0
  4  9  1  0  0  0  0
  5  7  1  0  0  0  0
  7  3  1  0  0  0  0
  7 12  2  0  0  0  0
  8 14  1  6  0  0  0
  8 21  1  0  0  0  0
  9 13  1  0  0  0  0
 10 29  1  1  0  0  0
 10 16  1  0  0  0  0
 11  5  2  0  0  0  0
 11 19  1  0  0  0  0
 13 10  1  0  0  0  0
 14 25  1  0  0  0  0
 15 16  1  0  0  0  0
 15 24  1  0  0  0  0
 17 22  1  0  0  0  0
 17  6  2  0  0  0  0
 19  1  2  0  0  0  0
 20 26  1  6  0  0  0
 20  4  1  0  0  0  0
 21  2  1  0  0  0  0
 22 23  1  0  0  0  0
 23 24  1  0  0  0  0
 25 17  1  0  0  0  0
 26 27  1  0  0  0  0
 28 26  2  0  0  0  0
 29 31  1  0  0  0  0
 31 30  2  0  0  0  0
M  END
>  <MODEL>
5

>  <REMARK>
 VINA RESULT:      -5.5      1.463      6.050
  Name = 
  3 active torsions:
  status: ('A' for Active; 'I' for Inactive)
    1  A    between atoms: C_9  and  C_26
    2  A    between atoms: C_11  and  C_23
    3  A    between atoms: C_23  and  C_24
                            x       y       z     vdW  Elec       q    Type
                         _______ _______ _______ _____ _____    ______ ____

>  <TORSDO>
F 3

$$$$
=
 OpenBabel10222415293D

 31 33  0  0  1  0  0  0  0  0999 V2000
  184.1070  178.1990  141.6320 C   0  0  0  0  0  0  0  0  0  0  0  0
  188.7740  176.3140  142.3040 C   0  0  0  0  0  3  0  0  0  0  0  0
  186.3690  178.0740  144.6990 C   0  0  2  0  0  3  0  0  0  0  0  0
  183.9700  178.3910  139.1210 C   0  0  0  0  0  2  0  0  0  0  0  0
  184.4610  179.5540  144.0580 C   0  0  0  0  0  3  0  0  0  0  0  0
  191.8290  176.9060  143.8330 O   0  0  0  0  0  0  0  0  0  0  0  0
  185.2990  178.4800  143.7330 C   0  0  0  0  0  0  0  0  0  0  0  0
  187.7180  177.8180  144.0120 C   0  0  1  0  0  3  0  0  0  0  0  0
  185.3180  179.0760  138.9400 C   0  0  0  0  0  2  0  0  0  0  0  0
  187.6530  178.7930  138.1030 C   0  0  1  0  0  3  0  0  0  0  0  0
  183.4510  179.9510  143.1760 C   0  0  0  0  0  3  0  0  0  0  0  0
  185.1080  177.7980  142.5230 C   0  0  0  0  0  3  0  0  0  0  0  0
  186.3770  178.0740  138.5110 C   0  0  0  0  0  2  0  0  0  0  0  0
  188.8630  178.1300  144.9600 C   0  0  0  0  0  2  0  0  0  0  0  0
  189.4680  177.8210  139.4960 C   0  0  0  0  0  2  0  0  0  0  0  0
  188.8060  177.8060  138.1320 C   0  0  0  0  0  2  0  0  0  0  0  0
  190.7050  177.3320  143.4600 C   0  0  0  0  0  0  0  0  0  0  0  0
  185.9080  176.9410  145.6090 C   0  0  0  0  0  1  0  0  0  0  0  0
  183.2740  179.2760  141.9650 C   0  0  0  0  0  3  0  0  0  0  0  0
  183.9540  177.4600  140.3360 C   0  0  2  0  0  3  0  0  0  0  0  0
  187.8560  176.3910  143.4840 C   0  0  0  0  0  2  0  0  0  0  0  0
  190.0500  176.7280  142.2830 C   0  0  0  0  0  0  0  0  0  0  0  0
  190.9040  176.4750  141.0670 C   0  0  0  0  0  2  0  0  0  0  0  0
  190.1440  176.4850  139.7400 C   0  0  0  0  0  2  0  0  0  0  0  0
  190.1060  178.5080  144.1700 C   0  0  0  0  0  2  0  0  0  0  0  0
  182.7290  176.6020  140.3440 C   0  0  0  0  0  0  0  0  0  0  0  0
  181.5650  177.0760  140.9350 O   0  0  0  0  0  1  0  0  0  0  0  0
  182.7320  175.4700  139.7890 O   0  0  0  0  0  0  0  0  0  0  0  0
  187.4910  179.3580  136.6990 C   0  0  0  0  0  2  0  0  0  0  0  0
  186.7360  178.2890  134.7320 O   0  0  0  0  0  0  0  0  0  0  0  0
  187.5090  178.2670  135.6760 C   0  0  0  0  0  3  0  0  0  0  0  0
  1 19  2  0  0  0  0
  1 12  1  0  0  0  0
  2 21  1  0  0  0  0
  3 18  1  6  0  0  0
  4 20  1  0  0  0  0
  7  5  1  0  0  0  0
  7  3  1  0  0  0  0
  8 21  1  1  0  0  0
  8  3  1  0  0  0  0
  8 14  1  0  0  0  0
  9  4  1  0  0  0  0
 10 29  1  6  0  0  0
 10 16  1  0  0  0  0
 10 13  1  0  0  0  0
 11  5  2  0  0  0  0
 12  7  2  0  0  0  0
 13  9  1  0  0  0  0
 15 24  1  0  0  0  0
 16 15  1  0  0  0  0
 17  6  2  0  0  0  0
 17 25  1  0  0  0  0
 19 11  1  0  0  0  0
 20 26  1  1  0  0  0
 20  1  1  0  0  0  0
 22  2  2  0  0  0  0
 22 17  1  0  0  0  0
 23 22  1  0  0  0  0
 24 23  1  0  0  0  0
 25 14  1  0  0  0  0
 26 27  1  0  0  0  0
 28 26  2  0  0  0  0
 30 31  2  0  0  0  0
 31 29  1  0  0  0  0
M  END
>  <MODEL>
6

>  <REMARK>
 VINA RESULT:      -5.4      2.451      6.265
  Name = 
  3 active torsions:
  status: ('A' for Active; 'I' for Inactive)
    1  A    between atoms: C_9  and  C_26
    2  A    between atoms: C_11  and  C_23
    3  A    between atoms: C_23  and  C_24
                            x       y       z     vdW  Elec       q    Type
                         _______ _______ _______ _____ _____    ______ ____

>  <TORSDO>
F 3

$$$$
=
 OpenBabel10222415293D

 31 33  0  0  1  0  0  0  0  0999 V2000
  183.0480  174.0050  136.1710 C   0  0  0  0  0  0  0  0  0  0  0  0
  182.5540  176.8430  140.3530 C   0  0  0  0  0  3  0  0  0  0  0  0
  179.9660  175.3680  137.9550 C   0  0  2  0  0  3  0  0  0  0  0  0
  185.4670  174.3770  135.5610 C   0  0  0  0  0  2  0  0  0  0  0  0
  180.3780  174.6330  135.6030 C   0  0  0  0  0  3  0  0  0  0  0  0
  180.7850  179.4810  141.7410 O   0  0  0  0  0  0  0  0  0  0  0  0
  180.8770  174.8280  136.8960 C   0  0  0  0  0  0  0  0  0  0  0  0
  180.6240  176.4740  138.7920 C   0  0  1  0  0  3  0  0  0  0  0  0
  185.4330  175.8930  135.6940 C   0  0  0  0  0  2  0  0  0  0  0  0
  186.1930  177.8370  137.0630 C   0  0  1  0  0  3  0  0  0  0  0  0
  181.2050  174.1260  134.5960 C   0  0  0  0  0  3  0  0  0  0  0  0
  182.2120  174.5000  137.1770 C   0  0  0  0  0  3  0  0  0  0  0  0
  186.0090  176.3290  137.0310 C   0  0  0  0  0  2  0  0  0  0  0  0
  179.5760  177.4510  139.2950 C   0  0  0  0  0  2  0  0  0  0  0  0
  184.9470  178.6420  139.0570 C   0  0  0  0  0  2  0  0  0  0  0  0
  186.3140  178.2890  138.5080 C   0  0  0  0  0  2  0  0  0  0  0  0
  181.1160  178.8150  140.7250 C   0  0  0  0  0  0  0  0  0  0  0  0
  179.3370  174.2510  138.7820 C   0  0  0  0  0  1  0  0  0  0  0  0
  182.5380  173.8140  134.8780 C   0  0  0  0  0  3  0  0  0  0  0  0
  184.4760  173.6920  136.5050 C   0  0  2  0  0  3  0  0  0  0  0  0
  181.4310  175.9290  139.9700 C   0  0  0  0  0  2  0  0  0  0  0  0
  182.4250  178.1330  140.6960 C   0  0  0  0  0  0  0  0  0  0  0  0
  183.6220  178.9070  141.1840 C   0  0  0  0  0  2  0  0  0  0  0  0
  184.9540  178.4770  140.5660 C   0  0  0  0  0  2  0  0  0  0  0  0
  180.2060  178.8140  139.5350 C   0  0  0  0  0  2  0  0  0  0  0  0
  184.7080  172.2150  136.5550 C   0  0  0  0  0  0  0  0  0  0  0  0
  183.7340  171.3870  137.0970 O   0  0  0  0  0  1  0  0  0  0  0  0
  185.7620  171.7130  136.0790 O   0  0  0  0  0  0  0  0  0  0  0  0
  187.4540  178.2120  136.2980 C   0  0  0  0  0  2  0  0  0  0  0  0
  189.0170  179.6740  137.2990 O   0  0  0  0  0  0  0  0  0  0  0  0
  188.5740  178.5390  137.2340 C   0  0  0  0  0  3  0  0  0  0  0  0
  1 20  1  0  0  0  0
  1 12  1  0  0  0  0
  2 22  2  0  0  0  0
  3 18  1  1  0  0  0
  3  8  1  0  0  0  0
  4  9  1  0  0  0  0
  4 20  1  0  0  0  0
  5  7  1  0  0  0  0
  7 12  2  0  0  0  0
  7  3  1  0  0  0  0
  8 14  1  1  0  0  0
  8 21  1  0  0  0  0
  9 13  1  0  0  0  0
 10 29  1  6  0  0  0
 10 16  1  0  0  0  0
 11 19  1  0  0  0  0
 11  5  2  0  0  0  0
 13 10  1  0  0  0  0
 14 25  1  0  0  0  0
 15 24  1  0  0  0  0
 16 15  1  0  0  0  0
 17  6  2  0  0  0  0
 19  1  2  0  0  0  0
 20 26  1  6  0  0  0
 21  2  1  0  0  0  0
 22 17  1  0  0  0  0
 22 23  1  0  0  0  0
 24 23  1  0  0  0  0
 25 17  1  0  0  0  0
 26 27  1  0  0  0  0
 28 26  2  0  0  0  0
 29 31  1  0  0  0  0
 31 30  2  0  0  0  0
M  END
>  <MODEL>
7

>  <REMARK>
 VINA RESULT:      -5.3      2.613      6.759
  Name = 
  3 active torsions:
  status: ('A' for Active; 'I' for Inactive)
    1  A    between atoms: C_9  and  C_26
    2  A    between atoms: C_11  and  C_23
    3  A    between atoms: C_23  and  C_24
                            x       y       z     vdW  Elec       q    Type
                         _______ _______ _______ _____ _____    ______ ____

>  <TORSDO>
F 3

$$$$
=
 OpenBabel10222415293D

 31 33  0  0  1  0  0  0  0  0999 V2000
  188.8020  177.5490  138.7750 C   0  0  0  0  0  0  0  0  0  0  0  0
  185.6130  179.2620  142.3370 C   0  0  0  0  0  3  0  0  0  0  0  0
  189.1440  177.8140  142.5640 C   0  0  2  0  0  3  0  0  0  0  0  0
  187.2540  177.1610  136.8210 C   0  0  0  0  0  2  0  0  0  0  0  0
  190.2680  176.3780  140.8550 C   0  0  0  0  0  3  0  0  0  0  0  0
  184.4090  178.6530  145.5300 O   0  0  0  0  0  0  0  0  0  0  0  0
  189.3350  177.3820  141.1420 C   0  0  0  0  0  0  0  0  0  0  0  0
  187.6640  177.9510  142.9450 C   0  0  1  0  0  3  0  0  0  0  0  0
  186.1940  176.4020  137.6060 C   0  0  0  0  0  2  0  0  0  0  0  0
  183.8790  176.5070  138.5350 C   0  0  1  0  0  3  0  0  0  0  0  0
  190.4690  175.9590  139.5370 C   0  0  0  0  0  3  0  0  0  0  0  0
  188.6130  177.9730  140.0950 C   0  0  0  0  0  3  0  0  0  0  0  0
  185.0330  177.3150  137.9660 C   0  0  0  0  0  2  0  0  0  0  0  0
  187.4690  177.6640  144.4240 C   0  0  0  0  0  2  0  0  0  0  0  0
  183.3680  177.5030  140.7540 C   0  0  0  0  0  2  0  0  0  0  0  0
  182.9540  177.4380  139.2980 C   0  0  0  0  0  2  0  0  0  0  0  0
  185.0350  178.2510  144.5150 C   0  0  0  0  0  0  0  0  0  0  0  0
  189.9900  179.0370  142.9000 C   0  0  0  0  0  1  0  0  0  0  0  0
  189.7370  176.5410  138.4990 C   0  0  0  0  0  3  0  0  0  0  0  0
  187.9900  178.1870  137.6870 C   0  0  2  0  0  3  0  0  0  0  0  0
  187.0850  179.3230  142.6040 C   0  0  0  0  0  2  0  0  0  0  0  0
  184.6870  178.7890  143.1850 C   0  0  0  0  0  0  0  0  0  0  0  0
  183.2240  178.9020  142.8430 C   0  0  0  0  0  2  0  0  0  0  0  0
  182.9090  178.8220  141.3480 C   0  0  0  0  0  2  0  0  0  0  0  0
  186.0560  177.1660  144.6770 C   0  0  0  0  0  2  0  0  0  0  0  0
  188.8300  179.0990  136.8510 C   0  0  0  0  0  0  0  0  0  0  0  0
  189.3330  178.6460  135.6380 O   0  0  0  0  0  0  0  0  0  0  0  0
  189.0560  180.2840  137.2180 O   0  0  0  0  0  1  0  0  0  0  0  0
  183.1170  175.8390  137.3980 C   0  0  0  0  0  2  0  0  0  0  0  0
  184.0990  173.7580  137.9330 O   0  0  0  0  0  0  0  0  0  0  0  0
  183.1000  174.3530  137.5630 C   0  0  0  0  0  3  0  0  0  0  0  0
  1 12  1  0  0  0  0
  2 21  1  0  0  0  0
  2 22  2  0  0  0  0
  3 18  1  6  0  0  0
  3  8  1  0  0  0  0
  4  9  1  0  0  0  0
  4 20  1  0  0  0  0
  5  7  1  0  0  0  0
  7  3  1  0  0  0  0
  8 21  1  1  0  0  0
  8 14  1  0  0  0  0
  9 13  1  0  0  0  0
 10 29  1  6  0  0  0
 10 16  1  0  0  0  0
 11  5  2  0  0  0  0
 12  7  2  0  0  0  0
 13 10  1  0  0  0  0
 14 25  1  0  0  0  0
 15 24  1  0  0  0  0
 16 15  1  0  0  0  0
 17 25  1  0  0  0  0
 17  6  2  0  0  0  0
 19  1  2  0  0  0  0
 19 11  1  0  0  0  0
 20 26  1  6  0  0  0
 20  1  1  0  0  0  0
 22 17  1  0  0  0  0
 23 22  1  0  0  0  0
 24 23  1  0  0  0  0
 26 28  1  0  0  0  0
 27 26  2  0  0  0  0
 29 31  1  0  0  0  0
 31 30  2  0  0  0  0
M  END
>  <MODEL>
8

>  <REMARK>
 VINA RESULT:      -5.1      2.359      7.571
  Name = 
  3 active torsions:
  status: ('A' for Active; 'I' for Inactive)
    1  A    between atoms: C_9  and  C_26
    2  A    between atoms: C_11  and  C_23
    3  A    between atoms: C_23  and  C_24
                            x       y       z     vdW  Elec       q    Type
                         _______ _______ _______ _____ _____    ______ ____

>  <TORSDO>
F 3

$$$$
=
 OpenBabel10222415293D

 31 33  0  0  1  0  0  0  0  0999 V2000
  181.7170  177.5130  138.4870 C   0  0  0  0  0  0  0  0  0  0  0  0
  183.7610  174.2400  135.1870 C   0  0  0  0  0  3  0  0  0  0  0  0
  180.8810  173.8820  137.6770 C   0  0  2  0  0  3  0  0  0  0  0  0
  183.5170  179.2710  138.6740 C   0  0  0  0  0  2  0  0  0  0  0  0
  180.4800  175.3070  139.6910 C   0  0  0  0  0  3  0  0  0  0  0  0
  184.7270  170.9360  134.7700 O   0  0  0  0  0  0  0  0  0  0  0  0
  181.0020  175.1910  138.3960 C   0  0  0  0  0  0  0  0  0  0  0  0
  182.1860  173.4690  136.9820 C   0  0  1  0  0  3  0  0  0  0  0  0
  184.6700  178.2970  138.8760 C   0  0  0  0  0  2  0  0  0  0  0  0
  186.7070  177.3030  137.8300 C   0  0  1  0  0  3  0  0  0  0  0  0
  180.5750  176.5180  140.3830 C   0  0  0  0  0  3  0  0  0  0  0  0
  181.6090  176.3030  137.7950 C   0  0  0  0  0  3  0  0  0  0  0  0
  185.4260  178.0810  137.5760 C   0  0  0  0  0  2  0  0  0  0  0  0
  182.2940  171.9550  136.9160 C   0  0  0  0  0  2  0  0  0  0  0  0
  186.6160  175.3170  136.3390 C   0  0  0  0  0  2  0  0  0  0  0  0
  187.1910  176.7070  136.5200 C   0  0  0  0  0  2  0  0  0  0  0  0
  184.3830  171.8750  135.5340 C   0  0  0  0  0  0  0  0  0  0  0  0
  179.6540  173.8460  136.7720 C   0  0  0  0  0  1  0  0  0  0  0  0
  181.1930  177.6190  139.7840 C   0  0  0  0  0  3  0  0  0  0  0  0
  182.3970  178.6710  137.8190 C   0  0  2  0  0  3  0  0  0  0  0  0
  182.3270  174.0600  135.5810 C   0  0  0  0  0  2  0  0  0  0  0  0
  184.6880  173.2700  135.1590 C   0  0  0  0  0  0  0  0  0  0  0  0
  186.0650  173.5590  134.6210 C   0  0  0  0  0  2  0  0  0  0  0  0
  186.5560  174.9880  134.8590 C   0  0  0  0  0  2  0  0  0  0  0  0
  183.7540  171.5390  136.8530 C   0  0  0  0  0  2  0  0  0  0  0  0
  181.4090  179.7160  137.4110 C   0  0  0  0  0  0  0  0  0  0  0  0
  181.5500  181.0140  137.8840 O   0  0  0  0  0  1  0  0  0  0  0  0
  180.4720  179.4400  136.6130 O   0  0  0  0  0  0  0  0  0  0  0  0
  187.7670  178.2400  138.3940 C   0  0  0  0  0  2  0  0  0  0  0  0
  188.5870  178.4090  140.6030 O   0  0  0  0  0  0  0  0  0  0  0  0
  188.3630  177.6840  139.6470 C   0  0  0  0  0  3  0  0  0  0  0  0
  1 19  1  0  0  0  0
  2 21  1  0  0  0  0
  3 18  1  6  0  0  0
  3  7  1  0  0  0  0
  4  9  1  0  0  0  0
  5 11  1  0  0  0  0
  6 17  2  0  0  0  0
  7  5  2  0  0  0  0
  8 21  1  6  0  0  0
  8  3  1  0  0  0  0
 10 29  1  6  0  0  0
 12  7  1  0  0  0  0
 12  1  2  0  0  0  0
 13 10  1  0  0  0  0
 13  9  1  0  0  0  0
 14  8  1  0  0  0  0
 15 16  1  0  0  0  0
 16 10  1  0  0  0  0
 17 25  1  0  0  0  0
 19 11  2  0  0  0  0
 20 26  1  1  0  0  0
 20  1  1  0  0  0  0
 20  4  1  0  0  0  0
 22  2  2  0  0  0  0
 22 17  1  0  0  0  0
 23 24  1  0  0  0  0
 23 22  1  0  0  0  0
 24 15  1  0  0  0  0
 25 14  1  0  0  0  0
 26 27  1  0  0  0  0
 28 26  2  0  0  0  0
 29 31  1  0  0  0  0
 31 30  2  0  0  0  0
M  END
>  <MODEL>
9

>  <REMARK>
 VINA RESULT:      -5.1      2.521      4.516
  Name = 
  3 active torsions:
  status: ('A' for Active; 'I' for Inactive)
    1  A    between atoms: C_9  and  C_26
    2  A    between atoms: C_11  and  C_23
    3  A    between atoms: C_23  and  C_24
                            x       y       z     vdW  Elec       q    Type
                         _______ _______ _______ _____ _____    ______ ____

>  <TORSDO>
F 3

$$$$
