=
 OpenBabel10222419143D

 35 39  0  0  1  0  0  0  0  0999 V2000
  190.1490  176.7530  146.6890 C   0  0  0  0  0  0  0  0  0  0  0  0
  189.0020  177.1940  147.3440 C   0  0  0  0  0  3  0  0  0  0  0  0
  185.9480  177.7770  144.3590 C   0  0  1  0  0  3  0  0  0  0  0  0
  185.5670  177.9200  145.8490 C   0  0  2  0  0  3  0  0  0  0  0  0
  187.9850  177.5380  146.4470 C   0  0  0  0  0  0  0  0  0  0  0  0
  185.4520  179.1010  144.9030 C   0  0  2  0  0  3  0  0  0  0  0  0
  189.9260  176.8800  145.0220 S   0  0  0  0  0  0  0  0  0  0  0  0
  187.4460  177.8820  144.0080 C   0  0  1  0  0  3  0  0  0  0  0  0
  186.7040  178.1880  146.8480 C   0  0  0  0  0  2  0  0  0  0  0  0
  188.3270  177.4000  145.1190 C   0  0  0  0  0  0  0  0  0  0  0  0
  191.4390  176.3990  147.3550 C   0  0  0  0  0  0  0  0  0  0  0  0
  191.7360  177.3290  148.3340 F   0  0  0  0  0  0  0  0  0  0  0  0
  192.4650  176.3830  146.4270 F   0  0  0  0  0  0  0  0  0  0  0  0
  191.3290  175.1490  147.9330 F   0  0  0  0  0  0  0  0  0  0  0  0
  184.0010  179.2870  144.5090 C   0  0  0  0  0  2  0  0  0  0  0  0
  183.6840  178.4770  143.2620 C   0  0  0  0  0  2  0  0  0  0  0  0
  182.8790  179.2640  142.3390 N   0  0  0  0  0  0  0  0  0  0  0  0
  181.4960  178.8730  142.5530 C   0  0  0  0  0  1  0  0  0  0  0  0
  182.2770  179.2980  139.7450 O   0  0  0  0  0  0  0  0  0  0  0  0
  183.3080  178.8000  140.7210 S   0  0  0  0  0  0  0  0  0  0  0  0
  183.3920  177.3020  140.6320 O   0  0  0  0  0  0  0  0  0  0  0  0
  184.8470  179.4720  140.3170 N   0  0  0  0  0  1  0  0  0  0  0  0
  187.7520  177.2030  142.6680 C   0  0  0  0  0  2  0  0  0  0  0  0
  188.0940  178.6560  140.7440 O   0  0  0  0  0  0  0  0  0  0  0  0
  190.5190  176.0980  141.6940 O   0  0  0  0  0  1  0  0  0  0  0  0
  188.3830  178.1570  135.9830 O   0  0  0  0  0  0  0  0  0  0  0  0
  190.9720  175.4980  138.8310 O   0  0  0  0  0  0  0  0  0  0  0  0
  190.1170  176.4040  138.6540 C   0  0  0  0  0  0  0  0  0  0  0  0
  189.4940  177.1120  139.7730 C   0  0  0  0  0  0  0  0  0  0  0  0
  188.7610  177.9680  141.8090 C   0  0  2  0  0  3  0  0  0  0  0  0
  188.7320  177.8260  137.1460 C   0  0  0  0  0  0  0  0  0  0  0  0
  189.6510  176.9930  141.0800 C   0  0  0  0  0  0  0  0  0  0  0  0
  189.7130  176.7850  137.3310 N   0  0  0  0  0  2  0  0  0  0  0  0
  188.5270  178.1410  139.5370 C   0  0  0  0  0  0  0  0  0  0  0  0
  188.1360  178.5130  138.3170 C   0  0  0  0  0  3  0  0  0  0  0  0
  1  2  2  0  0  0  0
  1 11  1  0  0  0  0
  3  6  1  0  0  0  0
  3  4  1  0  0  0  0
  4  9  1  0  0  0  0
  5  9  1  0  0  0  0
  5  2  1  0  0  0  0
  6  4  1  0  0  0  0
  7 10  1  0  0  0  0
  7  1  1  0  0  0  0
  8  3  1  0  0  0  0
  8 10  1  0  0  0  0
 10  5  2  0  0  0  0
 11 14  1  0  0  0  0
 11 12  1  0  0  0  0
 13 11  1  0  0  0  0
 15  6  1  0  0  0  0
 16 15  1  0  0  0  0
 17 18  1  0  0  0  0
 17 16  1  0  0  0  0
 19 20  2  0  0  0  0
 20 17  1  0  0  0  0
 21 20  2  0  0  0  0
 22 20  1  0  0  0  0
 23  8  1  0  0  0  0
 24 30  1  0  0  0  0
 26 31  2  0  0  0  0
 28 27  2  0  0  0  0
 28 29  1  0  0  0  0
 29 32  2  0  0  0  0
 30 23  1  0  0  0  0
 31 33  1  0  0  0  0
 31 35  1  0  0  0  0
 32 25  1  0  0  0  0
 32 30  1  0  0  0  0
 33 28  1  0  0  0  0
 34 29  1  0  0  0  0
 34 24  1  0  0  0  0
 35 34  2  0  0  0  0
M  END
>  <MODEL>
1

>  <REMARK>
 VINA RESULT:     -10.4      0.000      0.000
  Name = 
  7 active torsions:
  status: ('A' for Active; 'I' for Inactive)
    1  A    between atoms: C_1  and  C_3
    2  A    between atoms: C_2  and  C_24
    3  A    between atoms: C_2  and  N_31
    4  A    between atoms: S_7  and  N_31
    5  A    between atoms: C_14  and  C_27
    6  A    between atoms: C_21  and  C_24
    7  A    between atoms: C_27  and  C_32
                            x       y       z     vdW  Elec       q    Type
                         _______ _______ _______ _____ _____    ______ ____

>  <TORSDO>
F 7

$$$$
=
 OpenBabel10222419143D

 35 39  0  0  1  0  0  0  0  0999 V2000
  187.8950  177.9040  147.0730 C   0  0  0  0  0  0  0  0  0  0  0  0
  186.5590  178.2940  147.1130 C   0  0  0  0  0  3  0  0  0  0  0  0
  184.9860  177.9390  143.1160 C   0  0  1  0  0  3  0  0  0  0  0  0
  184.0160  178.2860  144.2670 C   0  0  2  0  0  3  0  0  0  0  0  0
  185.9870  178.3400  145.8370 C   0  0  0  0  0  0  0  0  0  0  0  0
  184.2420  179.2590  143.1260 C   0  0  2  0  0  3  0  0  0  0  0  0
  188.3740  177.7100  145.4670 S   0  0  0  0  0  0  0  0  0  0  0  0
  186.4870  178.1810  143.3700 C   0  0  1  0  0  3  0  0  0  0  0  0
  184.6240  178.8720  145.5520 C   0  0  0  0  0  2  0  0  0  0  0  0
  186.8540  178.0210  144.8140 C   0  0  0  0  0  0  0  0  0  0  0  0
  188.8110  177.8460  148.2520 C   0  0  0  0  0  0  0  0  0  0  0  0
  189.8270  176.9390  148.0180 F   0  0  0  0  0  0  0  0  0  0  0  0
  188.1110  177.4550  149.3800 F   0  0  0  0  0  0  0  0  0  0  0  0
  189.3580  179.0970  148.4690 F   0  0  0  0  0  0  0  0  0  0  0  0
  183.0760  179.1790  142.1610 C   0  0  0  0  0  2  0  0  0  0  0  0
  183.3730  178.1800  141.0550 C   0  0  0  0  0  2  0  0  0  0  0  0
  182.3280  178.2190  140.0430 N   0  0  0  0  0  0  0  0  0  0  0  0
  182.2200  176.8760  139.5010 C   0  0  0  0  0  1  0  0  0  0  0  0
  181.9540  180.4520  138.6410 O   0  0  0  0  0  0  0  0  0  0  0  0
  182.8620  179.2580  138.7580 S   0  0  0  0  0  0  0  0  0  0  0  0
  182.8550  178.5000  137.4610 O   0  0  0  0  0  0  0  0  0  0  0  0
  184.4710  179.7970  139.0830 N   0  0  0  0  0  1  0  0  0  0  0  0
  187.3540  177.3270  142.4380 C   0  0  0  0  0  2  0  0  0  0  0  0
  187.5300  178.6010  140.3700 O   0  0  0  0  0  0  0  0  0  0  0  0
  190.2960  176.5890  141.6470 O   0  0  0  0  0  1  0  0  0  0  0  0
  188.0710  177.6460  135.7010 O   0  0  0  0  0  0  0  0  0  0  0  0
  190.9450  175.7650  138.8780 O   0  0  0  0  0  0  0  0  0  0  0  0
  189.9630  176.4960  138.5840 C   0  0  0  0  0  0  0  0  0  0  0  0
  189.1940  177.2100  139.6050 C   0  0  0  0  0  0  0  0  0  0  0  0
  188.2590  178.1490  141.5170 C   0  0  2  0  0  3  0  0  0  0  0  0
  188.4260  177.5040  136.9000 C   0  0  0  0  0  0  0  0  0  0  0  0
  189.3190  177.2590  140.9200 C   0  0  0  0  0  0  0  0  0  0  0  0
  189.5520  176.6620  137.2190 N   0  0  0  0  0  2  0  0  0  0  0  0
  188.0850  178.0370  139.2360 C   0  0  0  0  0  0  0  0  0  0  0  0
  187.6850  178.2060  137.9760 C   0  0  0  0  0  3  0  0  0  0  0  0
  1  2  2  0  0  0  0
  1 11  1  0  0  0  0
  3  6  1  0  0  0  0
  3  8  1  0  0  0  0
  3  4  1  0  0  0  0
  4  9  1  0  0  0  0
  5  2  1  0  0  0  0
  6  4  1  0  0  0  0
  7  1  1  0  0  0  0
  8 10  1  0  0  0  0
  9  5  1  0  0  0  0
 10  7  1  0  0  0  0
 10  5  2  0  0  0  0
 11 14  1  0  0  0  0
 11 13  1  0  0  0  0
 12 11  1  0  0  0  0
 15  6  1  0  0  0  0
 16 15  1  0  0  0  0
 17 16  1  0  0  0  0
 18 17  1  0  0  0  0
 19 20  2  0  0  0  0
 20 22  1  0  0  0  0
 20 17  1  0  0  0  0
 21 20  2  0  0  0  0
 23  8  1  0  0  0  0
 24 30  1  0  0  0  0
 26 31  2  0  0  0  0
 28 27  2  0  0  0  0
 28 29  1  0  0  0  0
 29 32  2  0  0  0  0
 30 23  1  0  0  0  0
 31 33  1  0  0  0  0
 31 35  1  0  0  0  0
 32 30  1  0  0  0  0
 32 25  1  0  0  0  0
 33 28  1  0  0  0  0
 34 29  1  0  0  0  0
 34 24  1  0  0  0  0
 35 34  2  0  0  0  0
M  END
>  <MODEL>
2

>  <REMARK>
 VINA RESULT:      -9.5      1.566      2.156
  Name = 
  7 active torsions:
  status: ('A' for Active; 'I' for Inactive)
    1  A    between atoms: C_1  and  C_3
    2  A    between atoms: C_2  and  C_24
    3  A    between atoms: C_2  and  N_31
    4  A    between atoms: S_7  and  N_31
    5  A    between atoms: C_14  and  C_27
    6  A    between atoms: C_21  and  C_24
    7  A    between atoms: C_27  and  C_32
                            x       y       z     vdW  Elec       q    Type
                         _______ _______ _______ _____ _____    ______ ____

>  <TORSDO>
F 7

$$$$
=
 OpenBabel10222419143D

 35 39  0  0  1  0  0  0  0  0999 V2000
  187.8540  177.8310  146.9100 C   0  0  0  0  0  0  0  0  0  0  0  0
  186.5380  178.2730  146.8020 C   0  0  0  0  0  3  0  0  0  0  0  0
  185.3750  177.8830  142.6710 C   0  0  1  0  0  3  0  0  0  0  0  0
  184.3060  178.2920  143.7080 C   0  0  2  0  0  3  0  0  0  0  0  0
  186.1040  178.3090  145.4730 C   0  0  0  0  0  0  0  0  0  0  0  0
  184.6870  179.2290  142.5770 C   0  0  2  0  0  3  0  0  0  0  0  0
  188.4890  177.5820  145.3670 S   0  0  0  0  0  0  0  0  0  0  0  0
  186.8500  178.0740  143.0760 C   0  0  1  0  0  3  0  0  0  0  0  0
  184.8000  178.8850  145.0370 C   0  0  0  0  0  2  0  0  0  0  0  0
  187.0590  177.9340  144.5530 C   0  0  0  0  0  0  0  0  0  0  0  0
  188.6400  177.7680  148.1800 C   0  0  0  0  0  0  0  0  0  0  0  0
  189.0650  179.0340  148.5370 F   0  0  0  0  0  0  0  0  0  0  0  0
  189.7470  176.9540  148.0140 F   0  0  0  0  0  0  0  0  0  0  0  0
  187.8450  177.2530  149.1860 F   0  0  0  0  0  0  0  0  0  0  0  0
  183.6250  179.1700  141.4980 C   0  0  0  0  0  2  0  0  0  0  0  0
  182.3070  178.6860  142.0810 C   0  0  0  0  0  2  0  0  0  0  0  0
  181.4490  178.1650  141.0270 N   0  0  0  0  0  0  0  0  0  0  0  0
  181.6070  179.0480  139.8840 C   0  0  0  0  0  1  0  0  0  0  0  0
  178.9320  177.3230  140.8090 O   0  0  0  0  0  0  0  0  0  0  0  0
  179.8010  178.2940  141.5610 S   0  0  0  0  0  0  0  0  0  0  0  0
  179.3030  179.6920  141.3260 O   0  0  0  0  0  0  0  0  0  0  0  0
  179.7140  177.9450  143.2510 N   0  0  0  0  0  1  0  0  0  0  0  0
  187.7740  177.1660  142.2560 C   0  0  0  0  0  2  0  0  0  0  0  0
  188.2810  178.6190  140.3680 O   0  0  0  0  0  0  0  0  0  0  0  0
  190.6080  176.0500  141.5130 O   0  0  0  0  0  1  0  0  0  0  0  0
  188.9600  178.1200  135.6470 O   0  0  0  0  0  0  0  0  0  0  0  0
  191.2940  175.4480  138.6970 O   0  0  0  0  0  0  0  0  0  0  0  0
  190.4600  176.3590  138.4500 C   0  0  0  0  0  0  0  0  0  0  0  0
  189.7500  177.0690  139.5150 C   0  0  0  0  0  0  0  0  0  0  0  0
  188.8540  177.9270  141.4830 C   0  0  2  0  0  3  0  0  0  0  0  0
  189.2110  177.7870  136.8340 C   0  0  0  0  0  0  0  0  0  0  0  0
  189.7970  176.9480  140.8300 C   0  0  0  0  0  0  0  0  0  0  0  0
  190.1680  176.7420  137.0990 N   0  0  0  0  0  2  0  0  0  0  0  0
  188.8100  178.1030  139.2000 C   0  0  0  0  0  0  0  0  0  0  0  0
  188.5230  178.4760  137.9530 C   0  0  0  0  0  3  0  0  0  0  0  0
  1 11  1  0  0  0  0
  2  1  2  0  0  0  0
  3  8  1  0  0  0  0
  3  4  1  0  0  0  0
  4  9  1  0  0  0  0
  5  2  1  0  0  0  0
  6  3  1  0  0  0  0
  6  4  1  0  0  0  0
  7  1  1  0  0  0  0
  8 10  1  0  0  0  0
  9  5  1  0  0  0  0
 10  7  1  0  0  0  0
 10  5  2  0  0  0  0
 11 12  1  0  0  0  0
 11 14  1  0  0  0  0
 13 11  1  0  0  0  0
 15 16  1  0  0  0  0
 15  6  1  0  0  0  0
 17 20  1  0  0  0  0
 17 16  1  0  0  0  0
 18 17  1  0  0  0  0
 19 20  2  0  0  0  0
 20 22  1  0  0  0  0
 21 20  2  0  0  0  0
 23  8  1  0  0  0  0
 24 30  1  0  0  0  0
 26 31  2  0  0  0  0
 28 27  2  0  0  0  0
 28 29  1  0  0  0  0
 29 32  2  0  0  0  0
 30 23  1  0  0  0  0
 31 33  1  0  0  0  0
 31 35  1  0  0  0  0
 32 30  1  0  0  0  0
 32 25  1  0  0  0  0
 33 28  1  0  0  0  0
 34 29  1  0  0  0  0
 34 24  1  0  0  0  0
 35 34  2  0  0  0  0
M  END
>  <MODEL>
3

>  <REMARK>
 VINA RESULT:      -9.3      1.818      2.472
  Name = 
  7 active torsions:
  status: ('A' for Active; 'I' for Inactive)
    1  A    between atoms: C_1  and  C_3
    2  A    between atoms: C_2  and  C_24
    3  A    between atoms: C_2  and  N_31
    4  A    between atoms: S_7  and  N_31
    5  A    between atoms: C_14  and  C_27
    6  A    between atoms: C_21  and  C_24
    7  A    between atoms: C_27  and  C_32
                            x       y       z     vdW  Elec       q    Type
                         _______ _______ _______ _____ _____    ______ ____

>  <TORSDO>
F 7

$$$$
=
 OpenBabel10222419143D

 35 39  0  0  1  0  0  0  0  0999 V2000
  182.1990  179.0200  143.0210 C   0  0  0  0  0  0  0  0  0  0  0  0
  182.3520  178.9020  144.4000 C   0  0  0  0  0  3  0  0  0  0  0  0
  186.5750  178.6440  145.2190 C   0  0  1  0  0  3  0  0  0  0  0  0
  185.5930  178.7480  146.4070 C   0  0  2  0  0  3  0  0  0  0  0  0
  183.6840  178.6810  144.7630 C   0  0  0  0  0  0  0  0  0  0  0  0
  186.4670  177.5210  146.2290 C   0  0  2  0  0  3  0  0  0  0  0  0
  183.6870  178.7600  142.2680 S   0  0  0  0  0  0  0  0  0  0  0  0
  185.9900  178.1920  143.8670 C   0  0  1  0  0  3  0  0  0  0  0  0
  184.1290  178.3600  146.1500 C   0  0  0  0  0  2  0  0  0  0  0  0
  184.5570  178.5980  143.7000 C   0  0  0  0  0  0  0  0  0  0  0  0
  180.8940  179.1670  142.3080 C   0  0  0  0  0  0  0  0  0  0  0  0
  180.0620  178.1090  142.6210 F   0  0  0  0  0  0  0  0  0  0  0  0
  181.0990  179.1870  140.9390 F   0  0  0  0  0  0  0  0  0  0  0  0
  180.2920  180.3500  142.6940 F   0  0  0  0  0  0  0  0  0  0  0  0
  187.6400  177.5990  147.1860 C   0  0  0  0  0  2  0  0  0  0  0  0
  188.8900  178.0560  146.4520 C   0  0  0  0  0  2  0  0  0  0  0  0
  189.7250  176.9130  146.1130 N   0  0  0  0  0  0  0  0  0  0  0  0
  190.5710  176.6570  147.2660 C   0  0  0  0  0  1  0  0  0  0  0  0
  192.0750  177.8860  145.3250 O   0  0  0  0  0  0  0  0  0  0  0  0
  190.7620  177.3740  144.7990 S   0  0  0  0  0  0  0  0  0  0  0  0
  190.0980  178.4510  143.9880 O   0  0  0  0  0  0  0  0  0  0  0  0
  191.0500  176.0060  143.7840 N   0  0  0  0  0  1  0  0  0  0  0  0
  186.8760  178.6420  142.6990 C   0  0  0  0  0  2  0  0  0  0  0  0
  188.3780  176.9440  141.8100 O   0  0  0  0  0  0  0  0  0  0  0  0
  186.1760  178.9010  139.6540 O   0  0  0  0  0  1  0  0  0  0  0  0
  192.2250  176.8210  138.9490 O   0  0  0  0  0  0  0  0  0  0  0  0
  188.3280  179.0450  137.6260 O   0  0  0  0  0  0  0  0  0  0  0  0
  188.9720  178.3680  138.4710 C   0  0  0  0  0  0  0  0  0  0  0  0
  188.3880  177.9690  139.7520 C   0  0  0  0  0  0  0  0  0  0  0  0
  187.0950  177.5570  141.6420 C   0  0  2  0  0  3  0  0  0  0  0  0
  191.0430  177.1800  139.1850 C   0  0  0  0  0  0  0  0  0  0  0  0
  187.1950  178.1900  140.2770 C   0  0  0  0  0  0  0  0  0  0  0  0
  190.3210  177.9560  138.2080 N   0  0  0  0  0  2  0  0  0  0  0  0
  189.1460  177.1950  140.6880 C   0  0  0  0  0  0  0  0  0  0  0  0
  190.4000  176.8000  140.4670 C   0  0  0  0  0  3  0  0  0  0  0  0
  1  2  2  0  0  0  0
  2  5  1  0  0  0  0
  3  6  1  0  0  0  0
  3  4  1  0  0  0  0
  5  9  1  0  0  0  0
  6  4  1  0  0  0  0
  6 15  1  0  0  0  0
  7  1  1  0  0  0  0
  7 10  1  0  0  0  0
  8  3  1  0  0  0  0
  9  4  1  0  0  0  0
 10  8  1  0  0  0  0
 10  5  2  0  0  0  0
 11 12  1  0  0  0  0
 11 14  1  0  0  0  0
 11  1  1  0  0  0  0
 13 11  1  0  0  0  0
 16 15  1  0  0  0  0
 17 16  1  0  0  0  0
 17 18  1  0  0  0  0
 20 19  2  0  0  0  0
 20 17  1  0  0  0  0
 21 20  2  0  0  0  0
 22 20  1  0  0  0  0
 23  8  1  0  0  0  0
 25 32  1  0  0  0  0
 26 31  2  0  0  0  0
 27 28  2  0  0  0  0
 28 29  1  0  0  0  0
 29 32  2  0  0  0  0
 29 34  1  0  0  0  0
 30 24  1  0  0  0  0
 30 23  1  0  0  0  0
 31 35  1  0  0  0  0
 32 30  1  0  0  0  0
 33 28  1  0  0  0  0
 33 31  1  0  0  0  0
 34 24  1  0  0  0  0
 35 34  2  0  0  0  0
M  END
>  <MODEL>
4

>  <REMARK>
 VINA RESULT:      -9.0      4.432      6.747
  Name = 
  7 active torsions:
  status: ('A' for Active; 'I' for Inactive)
    1  A    between atoms: C_1  and  C_3
    2  A    between atoms: C_2  and  C_24
    3  A    between atoms: C_2  and  N_31
    4  A    between atoms: S_7  and  N_31
    5  A    between atoms: C_14  and  C_27
    6  A    between atoms: C_21  and  C_24
    7  A    between atoms: C_27  and  C_32
                            x       y       z     vdW  Elec       q    Type
                         _______ _______ _______ _____ _____    ______ ____

>  <TORSDO>
F 7

$$$$
=
 OpenBabel10222419143D

 35 39  0  0  1  0  0  0  0  0999 V2000
  188.7740  177.9100  146.9510 C   0  0  0  0  0  0  0  0  0  0  0  0
  189.9980  178.2000  146.3540 C   0  0  0  0  0  3  0  0  0  0  0  0
  189.4950  177.7750  142.0940 C   0  0  1  0  0  3  0  0  0  0  0  0
  190.8320  178.3330  142.6320 C   0  0  2  0  0  3  0  0  0  0  0  0
  189.9780  177.9650  144.9750 C   0  0  0  0  0  0  0  0  0  0  0  0
  190.7920  177.0270  141.8610 C   0  0  2  0  0  3  0  0  0  0  0  0
  187.7200  177.2850  145.7910 S   0  0  0  0  0  0  0  0  0  0  0  0
  188.6130  176.9960  143.0890 C   0  0  1  0  0  3  0  0  0  0  0  0
  191.1830  178.0360  144.0990 C   0  0  0  0  0  2  0  0  0  0  0  0
  188.7810  177.4760  144.4990 C   0  0  0  0  0  0  0  0  0  0  0  0
  188.4960  177.9660  148.4180 C   0  0  0  0  0  0  0  0  0  0  0  0
  187.5370  178.9260  148.6810 F   0  0  0  0  0  0  0  0  0  0  0  0
  189.6520  178.2860  149.1090 F   0  0  0  0  0  0  0  0  0  0  0  0
  188.0370  176.7350  148.8450 F   0  0  0  0  0  0  0  0  0  0  0  0
  191.2570  177.2710  140.4390 C   0  0  0  0  0  2  0  0  0  0  0  0
  190.0900  177.7110  139.5700 C   0  0  0  0  0  2  0  0  0  0  0  0
  189.9220  176.7980  138.4490 N   0  0  0  0  0  0  0  0  0  0  0  0
  191.2460  176.5590  137.9020 C   0  0  0  0  0  1  0  0  0  0  0  0
  187.5770  177.1020  137.2230 O   0  0  0  0  0  0  0  0  0  0  0  0
  188.9930  177.6120  137.2280 S   0  0  0  0  0  0  0  0  0  0  0  0
  189.6120  177.3720  135.8800 O   0  0  0  0  0  0  0  0  0  0  0  0
  188.9840  179.3100  137.5450 N   0  0  0  0  0  1  0  0  0  0  0  0
  187.1480  176.9790  142.6380 C   0  0  0  0  0  2  0  0  0  0  0  0
  185.3360  178.4100  143.4120 O   0  0  0  0  0  0  0  0  0  0  0  0
  186.7210  178.6900  140.0460 O   0  0  0  0  0  1  0  0  0  0  0  0
  180.7180  179.1130  142.3260 O   0  0  0  0  0  0  0  0  0  0  0  0
  183.9950  179.1590  138.9890 O   0  0  0  0  0  0  0  0  0  0  0  0
  183.6620  179.0380  140.1970 C   0  0  0  0  0  0  0  0  0  0  0  0
  184.6440  178.7770  141.2500 C   0  0  0  0  0  0  0  0  0  0  0  0
  186.5050  178.3660  142.5850 C   0  0  2  0  0  3  0  0  0  0  0  0
  181.9240  179.0110  141.9830 C   0  0  0  0  0  0  0  0  0  0  0  0
  185.9560  178.6210  141.2040 C   0  0  0  0  0  0  0  0  0  0  0  0
  182.2890  179.1520  140.5950 N   0  0  0  0  0  2  0  0  0  0  0  0
  184.2320  178.6480  142.6150 C   0  0  0  0  0  0  0  0  0  0  0  0
  182.9620  178.7500  143.0090 C   0  0  0  0  0  3  0  0  0  0  0  0
  1 11  1  0  0  0  0
  2  1  2  0  0  0  0
  3  4  1  0  0  0  0
  3  8  1  0  0  0  0
  4  9  1  0  0  0  0
  5  2  1  0  0  0  0
  6  3  1  0  0  0  0
  6  4  1  0  0  0  0
  7  1  1  0  0  0  0
  8 10  1  0  0  0  0
  9  5  1  0  0  0  0
 10  5  2  0  0  0  0
 10  7  1  0  0  0  0
 11 12  1  0  0  0  0
 11 14  1  0  0  0  0
 11 13  1  0  0  0  0
 15  6  1  0  0  0  0
 16 15  1  0  0  0  0
 17 16  1  0  0  0  0
 18 17  1  0  0  0  0
 19 20  2  0  0  0  0
 20 22  1  0  0  0  0
 20 17  1  0  0  0  0
 21 20  2  0  0  0  0
 23  8  1  0  0  0  0
 25 32  1  0  0  0  0
 27 28  2  0  0  0  0
 28 33  1  0  0  0  0
 28 29  1  0  0  0  0
 29 34  1  0  0  0  0
 30 23  1  0  0  0  0
 30 24  1  0  0  0  0
 31 26  2  0  0  0  0
 31 35  1  0  0  0  0
 32 29  2  0  0  0  0
 32 30  1  0  0  0  0
 33 31  1  0  0  0  0
 34 35  2  0  0  0  0
 34 24  1  0  0  0  0
M  END
>  <MODEL>
5

>  <REMARK>
 VINA RESULT:      -8.9      2.509      5.923
  Name = 
  7 active torsions:
  status: ('A' for Active; 'I' for Inactive)
    1  A    between atoms: C_1  and  C_3
    2  A    between atoms: C_2  and  C_24
    3  A    between atoms: C_2  and  N_31
    4  A    between atoms: S_7  and  N_31
    5  A    between atoms: C_14  and  C_27
    6  A    between atoms: C_21  and  C_24
    7  A    between atoms: C_27  and  C_32
                            x       y       z     vdW  Elec       q    Type
                         _______ _______ _______ _____ _____    ______ ____

>  <TORSDO>
F 7

$$$$
=
 OpenBabel10222419143D

 35 39  0  0  1  0  0  0  0  0999 V2000
  189.7590  176.9680  137.9880 C   0  0  0  0  0  0  0  0  0  0  0  0
  190.9220  176.9910  138.7530 C   0  0  0  0  0  3  0  0  0  0  0  0
  189.7520  177.4320  142.8770 C   0  0  1  0  0  3  0  0  0  0  0  0
  191.2410  177.1820  142.5510 C   0  0  2  0  0  3  0  0  0  0  0  0
  190.6590  177.2620  140.1000 C   0  0  0  0  0  0  0  0  0  0  0  0
  190.8010  178.4680  143.2240 C   0  0  2  0  0  3  0  0  0  0  0  0
  188.4410  177.3700  138.9610 S   0  0  0  0  0  0  0  0  0  0  0  0
  188.8630  177.9490  141.7300 C   0  0  1  0  0  3  0  0  0  0  0  0
  191.7150  177.5030  141.1240 C   0  0  0  0  0  2  0  0  0  0  0  0
  189.3280  177.4740  140.3880 C   0  0  0  0  0  0  0  0  0  0  0  0
  189.7070  176.7980  136.5040 C   0  0  0  0  0  0  0  0  0  0  0  0
  190.9260  176.3440  136.0370 F   0  0  0  0  0  0  0  0  0  0  0  0
  189.4160  178.0070  135.8970 F   0  0  0  0  0  0  0  0  0  0  0  0
  188.7260  175.8800  136.1820 F   0  0  0  0  0  0  0  0  0  0  0  0
  191.1080  178.3870  144.7070 C   0  0  0  0  0  2  0  0  0  0  0  0
  190.1990  177.3700  145.3790 C   0  0  0  0  0  2  0  0  0  0  0  0
  190.2570  177.5190  146.8260 N   0  0  0  0  0  0  0  0  0  0  0  0
  190.8990  176.3230  147.3440 C   0  0  0  0  0  1  0  0  0  0  0  0
  188.4670  178.6280  148.4560 O   0  0  0  0  0  0  0  0  0  0  0  0
  188.6280  177.5400  147.4290 S   0  0  0  0  0  0  0  0  0  0  0  0
  188.3070  176.2130  148.0570 O   0  0  0  0  0  0  0  0  0  0  0  0
  187.5330  177.8220  146.1240 N   0  0  0  0  0  1  0  0  0  0  0  0
  187.3830  177.6410  141.9900 C   0  0  0  0  0  2  0  0  0  0  0  0
  185.7860  178.8150  143.4050 O   0  0  0  0  0  0  0  0  0  0  0  0
  185.6500  179.0030  139.7610 O   0  0  0  0  0  1  0  0  0  0  0  0
  181.0720  178.6290  144.2690 O   0  0  0  0  0  0  0  0  0  0  0  0
  182.6940  178.9070  139.8900 O   0  0  0  0  0  0  0  0  0  0  0  0
  182.8940  178.8460  141.1310 C   0  0  0  0  0  0  0  0  0  0  0  0
  184.2420  178.8540  141.7010 C   0  0  0  0  0  0  0  0  0  0  0  0
  186.5190  178.8900  142.1760 C   0  0  2  0  0  3  0  0  0  0  0  0
  182.0400  178.6980  143.4690 C   0  0  0  0  0  0  0  0  0  0  0  0
  185.4330  178.9170  141.1310 C   0  0  0  0  0  0  0  0  0  0  0  0
  181.7950  178.7650  142.0490 N   0  0  0  0  0  2  0  0  0  0  0  0
  184.4340  178.7880  143.1190 C   0  0  0  0  0  0  0  0  0  0  0  0
  183.4290  178.7130  143.9910 C   0  0  0  0  0  3  0  0  0  0  0  0
  1  2  2  0  0  0  0
  1  7  1  0  0  0  0
  2  5  1  0  0  0  0
  3  6  1  0  0  0  0
  4  3  1  0  0  0  0
  4  6  1  0  0  0  0
  5 10  2  0  0  0  0
  5  9  1  0  0  0  0
  6 15  1  0  0  0  0
  7 10  1  0  0  0  0
  8 23  1  0  0  0  0
  8  3  1  0  0  0  0
  9  4  1  0  0  0  0
 10  8  1  0  0  0  0
 11  1  1  0  0  0  0
 12 11  1  0  0  0  0
 13 11  1  0  0  0  0
 14 11  1  0  0  0  0
 15 16  1  0  0  0  0
 16 17  1  0  0  0  0
 17 18  1  0  0  0  0
 17 20  1  0  0  0  0
 20 21  2  0  0  0  0
 20 19  2  0  0  0  0
 22 20  1  0  0  0  0
 23 30  1  0  0  0  0
 25 32  1  0  0  0  0
 27 28  2  0  0  0  0
 28 29  1  0  0  0  0
 28 33  1  0  0  0  0
 29 34  1  0  0  0  0
 30 24  1  0  0  0  0
 31 35  1  0  0  0  0
 31 26  2  0  0  0  0
 32 29  2  0  0  0  0
 32 30  1  0  0  0  0
 33 31  1  0  0  0  0
 34 24  1  0  0  0  0
 34 35  2  0  0  0  0
M  END
>  <MODEL>
6

>  <REMARK>
 VINA RESULT:      -8.4      4.531      7.945
  Name = 
  7 active torsions:
  status: ('A' for Active; 'I' for Inactive)
    1  A    between atoms: C_1  and  C_3
    2  A    between atoms: C_2  and  C_24
    3  A    between atoms: C_2  and  N_31
    4  A    between atoms: S_7  and  N_31
    5  A    between atoms: C_14  and  C_27
    6  A    between atoms: C_21  and  C_24
    7  A    between atoms: C_27  and  C_32
                            x       y       z     vdW  Elec       q    Type
                         _______ _______ _______ _____ _____    ______ ____

>  <TORSDO>
F 7

$$$$
=
 OpenBabel10222419143D

 35 39  0  0  1  0  0  0  0  0999 V2000
  188.2270  177.7240  146.6670 C   0  0  0  0  0  0  0  0  0  0  0  0
  189.3440  177.4880  145.8690 C   0  0  0  0  0  3  0  0  0  0  0  0
  188.2300  178.3440  141.7950 C   0  0  1  0  0  3  0  0  0  0  0  0
  189.7080  178.0190  142.1080 C   0  0  2  0  0  3  0  0  0  0  0  0
  189.0510  177.6120  144.5070 C   0  0  0  0  0  0  0  0  0  0  0  0
  188.8950  177.1220  141.1940 C   0  0  2  0  0  3  0  0  0  0  0  0
  186.8830  177.9900  145.6840 S   0  0  0  0  0  0  0  0  0  0  0  0
  187.1830  177.9110  142.8400 C   0  0  1  0  0  3  0  0  0  0  0  0
  190.0040  177.2650  143.4140 C   0  0  0  0  0  2  0  0  0  0  0  0
  187.7340  177.9100  144.2340 C   0  0  0  0  0  0  0  0  0  0  0  0
  188.1850  177.5790  148.1540 C   0  0  0  0  0  0  0  0  0  0  0  0
  187.9470  176.2610  148.4940 F   0  0  0  0  0  0  0  0  0  0  0  0
  187.1760  178.3670  148.6800 F   0  0  0  0  0  0  0  0  0  0  0  0
  189.3960  177.9760  148.6880 F   0  0  0  0  0  0  0  0  0  0  0  0
  189.2600  177.4140  139.7520 C   0  0  0  0  0  2  0  0  0  0  0  0
  188.0470  177.9320  138.9960 C   0  0  0  0  0  2  0  0  0  0  0  0
  187.6650  176.9940  137.9500 N   0  0  0  0  0  0  0  0  0  0  0  0
  188.7080  177.0460  136.9400 C   0  0  0  0  0  1  0  0  0  0  0  0
  186.4630  178.0050  135.8000 O   0  0  0  0  0  0  0  0  0  0  0  0
  186.2010  177.5730  137.2170 S   0  0  0  0  0  0  0  0  0  0  0  0
  185.6720  178.7410  138.0020 O   0  0  0  0  0  0  0  0  0  0  0  0
  185.0170  176.3150  137.2190 N   0  0  0  0  0  1  0  0  0  0  0  0
  185.8950  178.7320  142.7100 C   0  0  0  0  0  2  0  0  0  0  0  0
  184.3210  177.7520  141.1310 O   0  0  0  0  0  0  0  0  0  0  0  0
  183.2750  178.9470  144.4190 O   0  0  0  0  0  1  0  0  0  0  0  0
  180.5120  179.2210  138.6140 O   0  0  0  0  0  0  0  0  0  0  0  0
  180.7820  179.9980  143.2190 O   0  0  0  0  0  0  0  0  0  0  0  0
  181.2700  179.5360  142.1540 C   0  0  0  0  0  0  0  0  0  0  0  0
  182.5680  178.8610  142.1260 C   0  0  0  0  0  0  0  0  0  0  0  0
  184.6390  177.8780  142.5220 C   0  0  2  0  0  3  0  0  0  0  0  0
  181.1360  179.1160  139.7010 C   0  0  0  0  0  0  0  0  0  0  0  0
  183.4420  178.6030  143.0830 C   0  0  0  0  0  0  0  0  0  0  0  0
  180.5640  179.6530  140.9110 N   0  0  0  0  0  2  0  0  0  0  0  0
  183.0930  178.3430  140.8980 C   0  0  0  0  0  0  0  0  0  0  0  0
  182.4550  178.4390  139.7310 C   0  0  0  0  0  3  0  0  0  0  0  0
  1 11  1  0  0  0  0
  2  1  2  0  0  0  0
  3  4  1  0  0  0  0
  3  8  1  0  0  0  0
  4  9  1  0  0  0  0
  5  2  1  0  0  0  0
  6  3  1  0  0  0  0
  6  4  1  0  0  0  0
  7  1  1  0  0  0  0
  8 10  1  0  0  0  0
  9  5  1  0  0  0  0
 10  5  2  0  0  0  0
 10  7  1  0  0  0  0
 11 12  1  0  0  0  0
 11 13  1  0  0  0  0
 11 14  1  0  0  0  0
 15  6  1  0  0  0  0
 16 15  1  0  0  0  0
 17 16  1  0  0  0  0
 18 17  1  0  0  0  0
 19 20  2  0  0  0  0
 20 22  1  0  0  0  0
 20 17  1  0  0  0  0
 20 21  2  0  0  0  0
 23  8  1  0  0  0  0
 24 30  1  0  0  0  0
 26 31  2  0  0  0  0
 28 27  2  0  0  0  0
 29 28  1  0  0  0  0
 29 32  2  0  0  0  0
 30 23  1  0  0  0  0
 30 32  1  0  0  0  0
 31 35  1  0  0  0  0
 31 33  1  0  0  0  0
 32 25  1  0  0  0  0
 33 28  1  0  0  0  0
 34 24  1  0  0  0  0
 34 29  1  0  0  0  0
 35 34  2  0  0  0  0
M  END
>  <MODEL>
7

>  <REMARK>
 VINA RESULT:      -8.4      2.621      6.033
  Name = 
  7 active torsions:
  status: ('A' for Active; 'I' for Inactive)
    1  A    between atoms: C_1  and  C_3
    2  A    between atoms: C_2  and  C_24
    3  A    between atoms: C_2  and  N_31
    4  A    between atoms: S_7  and  N_31
    5  A    between atoms: C_14  and  C_27
    6  A    between atoms: C_21  and  C_24
    7  A    between atoms: C_27  and  C_32
                            x       y       z     vdW  Elec       q    Type
                         _______ _______ _______ _____ _____    ______ ____

>  <TORSDO>
F 7

$$$$
=
 OpenBabel10222419143D

 35 39  0  0  1  0  0  0  0  0999 V2000
  181.9870  178.9300  142.4160 C   0  0  0  0  0  0  0  0  0  0  0  0
  182.0860  178.9790  143.8040 C   0  0  0  0  0  3  0  0  0  0  0  0
  186.2770  178.9380  144.8060 C   0  0  1  0  0  3  0  0  0  0  0  0
  185.2460  179.1530  145.9360 C   0  0  2  0  0  3  0  0  0  0  0  0
  183.4070  178.8390  144.2410 C   0  0  0  0  0  0  0  0  0  0  0  0
  186.1540  177.9380  145.9380 C   0  0  2  0  0  3  0  0  0  0  0  0
  183.5090  178.6250  141.7560 S   0  0  0  0  0  0  0  0  0  0  0  0
  185.7580  178.3140  143.4960 C   0  0  1  0  0  3  0  0  0  0  0  0
  183.8020  178.6960  145.6720 C   0  0  0  0  0  2  0  0  0  0  0  0
  184.3250  178.6570  143.2290 C   0  0  0  0  0  0  0  0  0  0  0  0
  180.7090  178.9560  141.6420 C   0  0  0  0  0  0  0  0  0  0  0  0
  180.9440  178.5910  140.3290 F   0  0  0  0  0  0  0  0  0  0  0  0
  180.1660  180.2280  141.6630 F   0  0  0  0  0  0  0  0  0  0  0  0
  179.8120  178.0700  142.2070 F   0  0  0  0  0  0  0  0  0  0  0  0
  187.2850  178.1610  146.9220 C   0  0  0  0  0  2  0  0  0  0  0  0
  188.4990  177.3360  146.5270 C   0  0  0  0  0  2  0  0  0  0  0  0
  189.2220  176.8990  147.7130 N   0  0  0  0  0  0  0  0  0  0  0  0
  189.0240  177.9230  148.7240 C   0  0  0  0  0  1  0  0  0  0  0  0
  191.3800  175.4470  147.1440 O   0  0  0  0  0  0  0  0  0  0  0  0
  190.9150  176.8660  147.3290 S   0  0  0  0  0  0  0  0  0  0  0  0
  191.6970  177.5030  148.4430 O   0  0  0  0  0  0  0  0  0  0  0  0
  191.1940  177.7500  145.8710 N   0  0  0  0  0  1  0  0  0  0  0  0
  186.6800  178.6480  142.3180 C   0  0  0  0  0  2  0  0  0  0  0  0
  187.7470  176.4980  142.7330 O   0  0  0  0  0  0  0  0  0  0  0  0
  188.8370  178.7140  140.0440 O   0  0  0  0  0  1  0  0  0  0  0  0
  192.0570  174.9400  144.1430 O   0  0  0  0  0  0  0  0  0  0  0  0
  191.6500  177.9920  140.6210 O   0  0  0  0  0  0  0  0  0  0  0  0
  191.1300  177.2710  141.5130 C   0  0  0  0  0  0  0  0  0  0  0  0
  189.6820  177.2150  141.7190 C   0  0  0  0  0  0  0  0  0  0  0  0
  187.3650  177.4230  141.7080 C   0  0  2  0  0  3  0  0  0  0  0  0
  191.3360  175.6450  143.3910 C   0  0  0  0  0  0  0  0  0  0  0  0
  188.6860  177.8270  141.1040 C   0  0  0  0  0  0  0  0  0  0  0  0
  191.9470  176.4660  142.3750 N   0  0  0  0  0  2  0  0  0  0  0  0
  189.1240  176.3810  142.7410 C   0  0  0  0  0  0  0  0  0  0  0  0
  189.8620  175.6240  143.5530 C   0  0  0  0  0  3  0  0  0  0  0  0
  1  2  2  0  0  0  0
  2  5  1  0  0  0  0
  3  4  1  0  0  0  0
  3  6  1  0  0  0  0
  4  6  1  0  0  0  0
  5  9  1  0  0  0  0
  6 15  1  0  0  0  0
  7  1  1  0  0  0  0
  7 10  1  0  0  0  0
  8  3  1  0  0  0  0
  9  4  1  0  0  0  0
 10  8  1  0  0  0  0
 10  5  2  0  0  0  0
 11 13  1  0  0  0  0
 11 14  1  0  0  0  0
 11  1  1  0  0  0  0
 12 11  1  0  0  0  0
 16 15  1  0  0  0  0
 16 17  1  0  0  0  0
 17 18  1  0  0  0  0
 19 20  2  0  0  0  0
 20 17  1  0  0  0  0
 20 21  2  0  0  0  0
 22 20  1  0  0  0  0
 23  8  1  0  0  0  0
 24 34  1  0  0  0  0
 25 32  1  0  0  0  0
 27 28  2  0  0  0  0
 28 29  1  0  0  0  0
 28 33  1  0  0  0  0
 29 34  1  0  0  0  0
 30 23  1  0  0  0  0
 30 24  1  0  0  0  0
 31 35  1  0  0  0  0
 31 26  2  0  0  0  0
 32 30  1  0  0  0  0
 32 29  2  0  0  0  0
 33 31  1  0  0  0  0
 34 35  2  0  0  0  0
M  END
>  <MODEL>
8

>  <REMARK>
 VINA RESULT:      -8.3      4.991      7.439
  Name = 
  7 active torsions:
  status: ('A' for Active; 'I' for Inactive)
    1  A    between atoms: C_1  and  C_3
    2  A    between atoms: C_2  and  C_24
    3  A    between atoms: C_2  and  N_31
    4  A    between atoms: S_7  and  N_31
    5  A    between atoms: C_14  and  C_27
    6  A    between atoms: C_21  and  C_24
    7  A    between atoms: C_27  and  C_32
                            x       y       z     vdW  Elec       q    Type
                         _______ _______ _______ _____ _____    ______ ____

>  <TORSDO>
F 7

$$$$
=
 OpenBabel10222419143D

 35 39  0  0  1  0  0  0  0  0999 V2000
  188.3450  177.6020  146.4380 C   0  0  0  0  0  0  0  0  0  0  0  0
  189.4250  177.4220  145.5780 C   0  0  0  0  0  3  0  0  0  0  0  0
  188.1010  178.4360  141.6040 C   0  0  1  0  0  3  0  0  0  0  0  0
  189.5970  178.1260  141.8320 C   0  0  2  0  0  3  0  0  0  0  0  0
  189.0650  177.6010  144.2380 C   0  0  0  0  0  0  0  0  0  0  0  0
  188.7550  177.2550  140.9180 C   0  0  2  0  0  3  0  0  0  0  0  0
  186.9500  177.8880  145.5330 S   0  0  0  0  0  0  0  0  0  0  0  0
  187.1140  177.9390  142.6780 C   0  0  1  0  0  3  0  0  0  0  0  0
  189.9690  177.3200  143.0870 C   0  0  0  0  0  2  0  0  0  0  0  0
  187.7310  177.8870  144.0420 C   0  0  0  0  0  0  0  0  0  0  0  0
  188.3770  177.3920  147.9170 C   0  0  0  0  0  0  0  0  0  0  0  0
  189.5540  177.8940  148.4410 F   0  0  0  0  0  0  0  0  0  0  0  0
  188.2970  176.0420  148.2080 F   0  0  0  0  0  0  0  0  0  0  0  0
  187.3060  178.0460  148.4970 F   0  0  0  0  0  0  0  0  0  0  0  0
  189.0450  177.6160  139.4750 C   0  0  0  0  0  2  0  0  0  0  0  0
  190.3950  177.0590  139.0520 C   0  0  0  0  0  2  0  0  0  0  0  0
  190.5320  177.1120  137.6040 N   0  0  0  0  0  0  0  0  0  0  0  0
  189.4120  177.8910  137.1060 C   0  0  0  0  0  1  0  0  0  0  0  0
  190.9150  174.5020  137.9700 O   0  0  0  0  0  0  0  0  0  0  0  0
  190.3590  175.4970  136.9880 S   0  0  0  0  0  0  0  0  0  0  0  0
  191.0960  175.3730  135.6840 O   0  0  0  0  0  0  0  0  0  0  0  0
  188.6860  175.1580  136.7210 N   0  0  0  0  0  1  0  0  0  0  0  0
  185.8070  178.7410  142.6460 C   0  0  0  0  0  2  0  0  0  0  0  0
  184.2300  177.7870  141.0560 O   0  0  0  0  0  0  0  0  0  0  0  0
  183.2030  178.8750  144.3860 O   0  0  0  0  0  1  0  0  0  0  0  0
  180.3780  179.2760  138.6180 O   0  0  0  0  0  0  0  0  0  0  0  0
  180.6850  179.9280  143.2400 O   0  0  0  0  0  0  0  0  0  0  0  0
  181.1670  179.5020  142.1590 C   0  0  0  0  0  0  0  0  0  0  0  0
  182.4740  178.8450  142.0980 C   0  0  0  0  0  0  0  0  0  0  0  0
  184.5610  177.8770  142.4470 C   0  0  2  0  0  3  0  0  0  0  0  0
  181.0140  179.1500  139.6960 C   0  0  0  0  0  0  0  0  0  0  0  0
  183.3610  178.5710  143.0390 C   0  0  0  0  0  0  0  0  0  0  0  0
  180.4480  179.6440  140.9260 N   0  0  0  0  0  2  0  0  0  0  0  0
  182.9920  178.3680  140.8510 C   0  0  0  0  0  0  0  0  0  0  0  0
  182.3420  178.4880  139.6940 C   0  0  0  0  0  3  0  0  0  0  0  0
  1 11  1  0  0  0  0
  2  1  2  0  0  0  0
  3  4  1  0  0  0  0
  3  8  1  0  0  0  0
  4  9  1  0  0  0  0
  5  2  1  0  0  0  0
  6  3  1  0  0  0  0
  6  4  1  0  0  0  0
  7  1  1  0  0  0  0
  8 10  1  0  0  0  0
  9  5  1  0  0  0  0
 10  5  2  0  0  0  0
 10  7  1  0  0  0  0
 11 13  1  0  0  0  0
 11 12  1  0  0  0  0
 11 14  1  0  0  0  0
 15  6  1  0  0  0  0
 16 15  1  0  0  0  0
 17 16  1  0  0  0  0
 18 17  1  0  0  0  0
 20 17  1  0  0  0  0
 20 19  2  0  0  0  0
 21 20  2  0  0  0  0
 22 20  1  0  0  0  0
 23  8  1  0  0  0  0
 24 30  1  0  0  0  0
 26 31  2  0  0  0  0
 28 27  2  0  0  0  0
 29 28  1  0  0  0  0
 29 32  2  0  0  0  0
 30 23  1  0  0  0  0
 30 32  1  0  0  0  0
 31 33  1  0  0  0  0
 32 25  1  0  0  0  0
 33 28  1  0  0  0  0
 34 24  1  0  0  0  0
 34 29  1  0  0  0  0
 35 31  1  0  0  0  0
 35 34  2  0  0  0  0
M  END
>  <MODEL>
9

>  <REMARK>
 VINA RESULT:      -8.3      2.491      6.697
  Name = 
  7 active torsions:
  status: ('A' for Active; 'I' for Inactive)
    1  A    between atoms: C_1  and  C_3
    2  A    between atoms: C_2  and  C_24
    3  A    between atoms: C_2  and  N_31
    4  A    between atoms: S_7  and  N_31
    5  A    between atoms: C_14  and  C_27
    6  A    between atoms: C_21  and  C_24
    7  A    between atoms: C_27  and  C_32
                            x       y       z     vdW  Elec       q    Type
                         _______ _______ _______ _____ _____    ______ ____

>  <TORSDO>
F 7

$$$$
