=
 OpenBabel10222420103D

 46 49  0  0  1  0  0  0  0  0999 V2000
  179.1270  179.8920  138.9590 O   0  0  0  0  0  0  0  0  0  0  0  0
  179.8770  180.2180  137.9970 C   0  0  0  0  0  0  0  0  0  0  0  0
  181.3730  178.8940  140.1430 N   0  0  0  0  0  0  0  0  0  0  0  0
  181.9510  179.1240  139.0030 C   0  0  0  0  0  0  0  0  0  0  0  0
  181.2470  179.8040  137.9580 N   0  0  0  0  0  2  0  0  0  0  0  0
  187.2890  176.8430  137.4210 F   0  0  0  0  0  0  0  0  0  0  0  0
  183.3660  178.7790  138.7660 C   0  0  0  0  0  0  0  0  0  0  0  0
  183.8270  175.5920  137.1380 C   0  0  0  0  0  3  0  0  0  0  0  0
  184.5350  179.6850  139.0080 C   0  0  0  0  0  2  0  0  0  0  0  0
  183.1520  176.6170  137.7320 N   0  0  0  0  0  0  0  0  0  0  0  0
  185.9330  176.7770  137.4460 C   0  0  0  0  0  0  0  0  0  0  0  0
  185.2280  175.6410  136.9770 C   0  0  0  0  0  0  0  0  0  0  0  0
  183.8440  177.6930  138.1850 C   0  0  0  0  0  0  0  0  0  0  0  0
  185.6700  178.9080  138.4960 N   0  0  0  0  0  0  0  0  0  0  0  0
  185.1970  177.8000  138.0410 C   0  0  0  0  0  0  0  0  0  0  0  0
  185.8630  174.5310  136.4050 O   0  0  0  0  0  0  0  0  0  0  0  0
  186.3130  173.4060  137.1010 C   0  0  0  0  0  0  0  0  0  0  0  0
  185.5320  172.7130  137.8030 O   0  0  0  0  0  0  0  0  0  0  0  0
  187.6370  173.1020  137.0870 F   0  0  0  0  0  0  0  0  0  0  0  0
  182.0080  178.9720  142.5220 C   0  0  0  0  0  0  0  0  0  0  0  0
  181.2330  179.9430  142.7290 O   0  0  0  0  0  0  0  0  0  0  0  0
  182.0510  178.3470  141.2410 N   0  0  0  0  0  2  0  0  0  0  0  0
  182.9330  178.5230  143.5950 C   0  0  0  0  0  2  0  0  0  0  0  0
  183.5060  179.6890  144.2520 N   0  0  0  0  0  2  0  0  0  0  0  0
  184.7700  179.8700  143.7330 O   0  0  0  0  0  0  0  0  0  0  0  0
  185.5950  178.7840  143.4330 C   0  0  0  0  0  0  0  0  0  0  0  0
  186.0680  178.6430  142.2740 O   0  0  0  0  0  0  0  0  0  0  0  0
  187.7470  177.5460  146.0480 C   0  0  0  0  0  2  0  0  0  0  0  0
  185.9020  177.7630  144.4800 C   0  0  2  0  0  3  0  0  0  0  0  0
  186.5580  178.4130  145.6860 C   0  0  1  0  0  3  0  0  0  0  0  0
  186.8750  176.7130  143.9620 C   0  0  0  0  0  2  0  0  0  0  0  0
  188.1660  176.8510  144.7610 C   0  0  1  0  0  3  0  0  0  0  0  0
  189.8370  177.0020  142.8060 C   0  0  1  0  0  3  0  0  0  0  0  0
  191.6610  178.7860  143.7550 S   0  0  0  0  0  0  0  0  0  0  0  0
  188.8850  176.8470  141.7210 N   0  0  0  0  0  1  0  0  0  0  0  0
  190.9420  177.0810  145.7350 C   0  0  0  0  0  1  0  0  0  0  0  0
  190.9710  177.8830  142.3340 C   0  0  0  0  0  2  0  0  0  0  0  0
  189.2010  177.7060  143.9960 C   0  0  2  0  0  3  0  0  0  0  0  0
  190.3580  178.1920  144.8670 C   0  0  2  0  0  3  0  0  0  0  0  0
  185.9900  179.7050  147.8070 C   0  0  0  0  0  1  0  0  0  0  0  0
  185.5890  178.5770  146.8570 C   0  0  0  0  0  2  0  0  0  0  0  0
  179.3350  181.0680  136.8970 C   0  0  0  0  0  2  0  0  0  0  0  0
  179.8540  182.4580  137.0090 C   0  0  0  0  0  0  0  0  0  0  0  0
  180.5970  183.0240  135.9340 N   0  0  0  0  0  2  0  0  0  0  0  0
  181.0500  184.3970  135.9630 C   0  0  0  0  0  1  0  0  0  0  0  0
  179.5840  183.1420  138.0300 O   0  0  0  0  0  0  0  0  0  0  0  0
  2  1  2  0  0  0  0
  3 22  1  0  0  0  0
  4  3  2  0  0  0  0
  5  2  1  0  0  0  0
  5  4  1  0  0  0  0
  6 11  1  0  0  0  0
  7  4  1  0  0  0  0
  7  9  1  0  0  0  0
  8 10  2  0  0  0  0
 10 13  1  0  0  0  0
 11 15  1  0  0  0  0
 12  8  1  0  0  0  0
 12 11  2  0  0  0  0
 13  7  2  0  0  0  0
 14  9  1  0  0  0  0
 15 13  1  0  0  0  0
 15 14  2  0  0  0  0
 16 12  1  0  0  0  0
 16 17  1  0  0  0  0
 17 18  2  0  0  0  0
 19 17  1  0  0  0  0
 20 21  2  0  0  0  0
 20 23  1  0  0  0  0
 22 20  1  0  0  0  0
 23 24  1  0  0  0  0
 25 24  1  0  0  0  0
 26 25  1  0  0  0  0
 27 26  2  0  0  0  0
 29 26  1  6  0  0  0
 29 30  1  0  0  0  0
 30 28  1  0  0  0  0
 30 41  1  1  0  0  0
 31 29  1  0  0  0  0
 32 31  1  6  0  0  0
 32 28  1  0  0  0  0
 33 35  1  6  0  0  0
 33 38  1  0  0  0  0
 34 39  1  0  0  0  0
 37 33  1  0  0  0  0
 37 34  1  0  0  0  0
 38 32  1  1  0  0  0
 38 39  1  0  0  0  0
 39 36  1  6  0  0  0
 41 40  1  0  0  0  0
 42 43  1  0  0  0  0
 42  2  1  0  0  0  0
 43 46  2  0  0  0  0
 44 45  1  0  0  0  0
 44 43  1  0  0  0  0
M  END
>  <MODEL>
1

>  <REMARK>
 VINA RESULT:      -7.7      0.000      0.000
  Name = 
  13 active torsions:
  status: ('A' for Active; 'I' for Inactive)
    1  A    between atoms: C_2  and  C_28
    2  A    between atoms: C_2  and  O_34
    3  A    between atoms: O_3  and  C_5
    4  A    between atoms: O_3  and  C_38
    5  A    between atoms: C_7  and  C_11
    6  A    between atoms: C_7  and  N_43
    7  A    between atoms: C_10  and  C_27
    8  A    between atoms: C_12  and  C_36
    9  A    between atoms: C_13  and  C_36
   10  A    between atoms: N_17  and  N_42
   11  A    between atoms: C_25  and  C_33
   12  A    between atoms: C_30  and  C_35
   13  A    between atoms: O_34  and  N_43
                            x       y       z     vdW  Elec       q    Type
                         _______ _______ _______ _____ _____    ______ ____

>  <TORSDO>
F 13

$$$$
=
 OpenBabel10222420103D

 46 49  0  0  1  0  0  0  0  0999 V2000
  193.9020  176.9430  137.2680 O   0  0  0  0  0  0  0  0  0  0  0  0
  193.7070  176.1340  136.3180 C   0  0  0  0  0  0  0  0  0  0  0  0
  191.4240  176.2260  138.1540 N   0  0  0  0  0  0  0  0  0  0  0  0
  191.3160  175.5940  137.0250 C   0  0  0  0  0  0  0  0  0  0  0  0
  192.4330  175.5070  136.1340 N   0  0  0  0  0  2  0  0  0  0  0  0
  185.9570  173.6690  135.0840 F   0  0  0  0  0  0  0  0  0  0  0  0
  190.0850  174.8720  136.6530 C   0  0  0  0  0  0  0  0  0  0  0  0
  187.4550  177.0240  135.4370 C   0  0  0  0  0  3  0  0  0  0  0  0
  189.9270  173.3820  136.6100 C   0  0  0  0  0  2  0  0  0  0  0  0
  188.6670  176.6920  135.9680 N   0  0  0  0  0  0  0  0  0  0  0  0
  186.8500  174.6690  135.2970 C   0  0  0  0  0  0  0  0  0  0  0  0
  186.5170  176.0300  135.0880 C   0  0  0  0  0  0  0  0  0  0  0  0
  188.9650  175.3840  136.1710 C   0  0  0  0  0  0  0  0  0  0  0  0
  188.5760  173.2050  136.0660 N   0  0  0  0  0  0  0  0  0  0  0  0
  188.1030  174.3800  135.8360 C   0  0  0  0  0  0  0  0  0  0  0  0
  185.2720  176.4450  134.5970 O   0  0  0  0  0  0  0  0  0  0  0  0
  184.1090  176.5950  135.3580 C   0  0  0  0  0  0  0  0  0  0  0  0
  183.1980  177.3910  135.0120 O   0  0  0  0  0  0  0  0  0  0  0  0
  183.9970  175.9300  136.5370 F   0  0  0  0  0  0  0  0  0  0  0  0
  189.6360  177.4110  139.3660 C   0  0  0  0  0  0  0  0  0  0  0  0
  189.7500  178.4140  138.6150 O   0  0  0  0  0  0  0  0  0  0  0  0
  190.4060  176.2370  139.1180 N   0  0  0  0  0  2  0  0  0  0  0  0
  188.7490  177.4750  140.5570 C   0  0  0  0  0  2  0  0  0  0  0  0
  187.9390  178.6820  140.4850 N   0  0  0  0  0  2  0  0  0  0  0  0
  187.4970  178.9550  141.7620 O   0  0  0  0  0  0  0  0  0  0  0  0
  186.2300  178.5580  142.1930 C   0  0  0  0  0  0  0  0  0  0  0  0
  185.2000  178.9150  141.5610 O   0  0  0  0  0  0  0  0  0  0  0  0
  187.3330  177.6780  145.5110 C   0  0  0  0  0  2  0  0  0  0  0  0
  186.0820  177.7280  143.4270 C   0  0  2  0  0  3  0  0  0  0  0  0
  186.4220  178.5430  144.6630 C   0  0  1  0  0  3  0  0  0  0  0  0
  187.0290  176.5370  143.4100 C   0  0  0  0  0  2  0  0  0  0  0  0
  188.0290  176.7300  144.5440 C   0  0  1  0  0  3  0  0  0  0  0  0
  190.4580  176.3520  143.7740 C   0  0  1  0  0  3  0  0  0  0  0  0
  191.6350  178.7180  144.4250 S   0  0  0  0  0  0  0  0  0  0  0  0
  190.1710  175.5280  142.6140 N   0  0  0  0  0  1  0  0  0  0  0  0
  189.9530  177.9640  146.4110 C   0  0  0  0  0  1  0  0  0  0  0  0
  191.7110  177.1530  143.5020 C   0  0  0  0  0  2  0  0  0  0  0  0
  189.3420  177.3560  144.0230 C   0  0  2  0  0  3  0  0  0  0  0  0
  189.9270  178.4170  144.9540 C   0  0  2  0  0  3  0  0  0  0  0  0
  185.1580  178.4890  146.8740 C   0  0  0  0  0  1  0  0  0  0  0  0
  185.1750  178.9860  145.4290 C   0  0  0  0  0  2  0  0  0  0  0  0
  194.8270  175.8100  135.3870 C   0  0  0  0  0  2  0  0  0  0  0  0
  195.8100  174.9090  136.0490 C   0  0  0  0  0  0  0  0  0  0  0  0
  197.0540  175.4320  136.5020 N   0  0  0  0  0  2  0  0  0  0  0  0
  198.0050  174.6140  137.2230 C   0  0  0  0  0  1  0  0  0  0  0  0
  195.5090  173.7050  136.2530 O   0  0  0  0  0  0  0  0  0  0  0  0
  2  1  2  0  0  0  0
  3 22  1  0  0  0  0
  4  3  2  0  0  0  0
  5  2  1  0  0  0  0
  5  4  1  0  0  0  0
  6 11  1  0  0  0  0
  7  4  1  0  0  0  0
  8 10  2  0  0  0  0
  9  7  1  0  0  0  0
 10 13  1  0  0  0  0
 11 15  1  0  0  0  0
 12 11  2  0  0  0  0
 12  8  1  0  0  0  0
 13  7  2  0  0  0  0
 14  9  1  0  0  0  0
 15 14  2  0  0  0  0
 15 13  1  0  0  0  0
 16 12  1  0  0  0  0
 16 17  1  0  0  0  0
 17 19  1  0  0  0  0
 18 17  2  0  0  0  0
 20 23  1  0  0  0  0
 21 20  2  0  0  0  0
 22 20  1  0  0  0  0
 24 23  1  0  0  0  0
 24 25  1  0  0  0  0
 25 26  1  0  0  0  0
 27 26  2  0  0  0  0
 29 26  1  6  0  0  0
 29 30  1  0  0  0  0
 30 41  1  1  0  0  0
 30 28  1  0  0  0  0
 31 29  1  0  0  0  0
 32 31  1  6  0  0  0
 32 28  1  0  0  0  0
 33 35  1  6  0  0  0
 33 38  1  0  0  0  0
 34 39  1  0  0  0  0
 37 33  1  0  0  0  0
 37 34  1  0  0  0  0
 38 32  1  1  0  0  0
 38 39  1  0  0  0  0
 39 36  1  1  0  0  0
 41 40  1  0  0  0  0
 42 43  1  0  0  0  0
 42  2  1  0  0  0  0
 43 46  2  0  0  0  0
 43 44  1  0  0  0  0
 44 45  1  0  0  0  0
M  END
>  <MODEL>
2

>  <REMARK>
 VINA RESULT:      -7.6      4.391      8.359
  Name = 
  13 active torsions:
  status: ('A' for Active; 'I' for Inactive)
    1  A    between atoms: C_2  and  C_28
    2  A    between atoms: C_2  and  O_34
    3  A    between atoms: O_3  and  C_5
    4  A    between atoms: O_3  and  C_38
    5  A    between atoms: C_7  and  C_11
    6  A    between atoms: C_7  and  N_43
    7  A    between atoms: C_10  and  C_27
    8  A    between atoms: C_12  and  C_36
    9  A    between atoms: C_13  and  C_36
   10  A    between atoms: N_17  and  N_42
   11  A    between atoms: C_25  and  C_33
   12  A    between atoms: C_30  and  C_35
   13  A    between atoms: O_34  and  N_43
                            x       y       z     vdW  Elec       q    Type
                         _______ _______ _______ _____ _____    ______ ____

>  <TORSDO>
F 13

$$$$
=
 OpenBabel10222420103D

 46 49  0  0  1  0  0  0  0  0999 V2000
  191.7010  175.9280  144.5860 O   0  0  0  0  0  0  0  0  0  0  0  0
  190.8850  176.7530  145.0860 C   0  0  0  0  0  0  0  0  0  0  0  0
  190.4650  176.4160  142.2040 N   0  0  0  0  0  0  0  0  0  0  0  0
  189.5970  177.0780  142.9070 C   0  0  0  0  0  0  0  0  0  0  0  0
  189.8070  177.2840  144.3080 N   0  0  0  0  0  2  0  0  0  0  0  0
  184.3570  179.6530  141.4560 F   0  0  0  0  0  0  0  0  0  0  0  0
  188.4190  177.7140  142.2890 C   0  0  0  0  0  0  0  0  0  0  0  0
  185.5840  177.9760  144.5080 C   0  0  0  0  0  3  0  0  0  0  0  0
  188.3830  178.3520  140.9330 C   0  0  0  0  0  3  0  0  0  0  0  0
  186.8350  177.6180  144.0990 N   0  0  0  0  0  0  0  0  0  0  0  0
  185.1710  179.0520  142.3620 C   0  0  1  0  0  3  0  0  0  0  0  0
  184.7210  178.6990  143.6580 C   0  0  0  0  0  0  0  0  0  0  0  0
  187.2470  177.9550  142.8510 C   0  0  0  0  0  0  0  0  0  0  0  0
  187.0350  178.9270  140.8710 N   0  0  0  0  0  0  0  0  0  0  0  0
  186.4590  178.6680  141.9930 C   0  0  0  0  0  0  0  0  0  0  0  0
  183.4320  178.9880  144.1230 O   0  0  0  0  0  0  0  0  0  0  0  0
  182.2440  178.7300  143.4340 C   0  0  0  0  0  0  0  0  0  0  0  0
  181.1210  178.9040  143.9740 O   0  0  0  0  0  0  0  0  0  0  0  0
  182.3030  178.2000  142.1850 F   0  0  0  0  0  0  0  0  0  0  0  0
  191.3170  176.9260  139.9500 C   0  0  0  0  0  0  0  0  0  0  0  0
  192.3380  177.4850  140.4290 O   0  0  0  0  0  0  0  0  0  0  0  0
  190.3760  176.2900  140.8110 N   0  0  0  0  0  2  0  0  0  0  0  0
  191.0550  176.9920  138.4880 C   0  0  0  0  0  2  0  0  0  0  0  0
  189.6580  176.6680  138.2380 N   0  0  0  0  0  2  0  0  0  0  0  0
  189.2880  177.3170  137.0800 O   0  0  0  0  0  0  0  0  0  0  0  0
  188.3610  178.3610  137.0970 C   0  0  0  0  0  0  0  0  0  0  0  0
  188.6820  179.4930  137.5470 O   0  0  0  0  0  0  0  0  0  0  0  0
  185.3630  176.3580  137.0300 C   0  0  0  0  0  2  0  0  0  0  0  0
  186.9670  178.1340  136.6060 C   0  0  2  0  0  3  0  0  0  0  0  0
  186.1160  177.4950  137.6890 C   0  0  1  0  0  3  0  0  0  0  0  0
  186.9460  177.1890  135.4140 C   0  0  0  0  0  2  0  0  0  0  0  0
  186.2160  175.9220  135.8460 C   0  0  1  0  0  3  0  0  0  0  0  0
  188.0040  174.2140  135.1240 C   0  0  1  0  0  3  0  0  0  0  0  0
  187.7710  172.3020  137.0470 S   0  0  0  0  0  0  0  0  0  0  0  0
  188.9730  175.1560  134.5950 N   0  0  0  0  0  1  0  0  0  0  0  0
  185.3060  173.1540  136.3110 C   0  0  0  0  0  1  0  0  0  0  0  0
  188.7420  173.0220  135.6870 C   0  0  0  0  0  2  0  0  0  0  0  0
  187.2160  174.8250  136.2730 C   0  0  2  0  0  3  0  0  0  0  0  0
  186.5660  173.6560  137.0110 C   0  0  2  0  0  3  0  0  0  0  0  0
  183.6980  178.1720  138.1190 C   0  0  0  0  0  1  0  0  0  0  0  0
  185.1720  178.4970  138.3550 C   0  0  0  0  0  2  0  0  0  0  0  0
  191.0620  177.1980  146.4990 C   0  0  0  0  0  2  0  0  0  0  0  0
  189.7680  177.1380  147.2300 C   0  0  0  0  0  0  0  0  0  0  0  0
  189.4520  178.1380  148.1910 N   0  0  0  0  0  2  0  0  0  0  0  0
  188.1730  178.1690  148.8660 C   0  0  0  0  0  1  0  0  0  0  0  0
  188.9380  176.2350  146.9500 O   0  0  0  0  0  0  0  0  0  0  0  0
  1  2  2  0  0  0  0
  2 42  1  0  0  0  0
  3  4  2  0  0  0  0
  4  5  1  0  0  0  0
  5  2  1  0  0  0  0
  7 13  1  0  0  0  0
  7  4  1  0  0  0  0
  9  7  2  0  0  0  0
 10  8  1  0  0  0  0
 11  6  1  6  0  0  0
 11 12  1  0  0  0  0
 12 16  1  0  0  0  0
 12  8  2  0  0  0  0
 13 10  2  0  0  0  0
 14  9  1  0  0  0  0
 14 15  2  0  0  0  0
 15 11  1  0  0  0  0
 15 13  1  0  0  0  0
 17 18  2  0  0  0  0
 17 16  1  0  0  0  0
 19 17  1  0  0  0  0
 20 21  2  0  0  0  0
 20 22  1  0  0  0  0
 22  3  1  0  0  0  0
 23 20  1  0  0  0  0
 24 23  1  0  0  0  0
 25 26  1  0  0  0  0
 25 24  1  0  0  0  0
 26 27  2  0  0  0  0
 28 30  1  0  0  0  0
 29 26  1  1  0  0  0
 29 30  1  0  0  0  0
 30 41  1  6  0  0  0
 31 29  1  0  0  0  0
 32 31  1  1  0  0  0
 32 28  1  0  0  0  0
 33 35  1  1  0  0  0
 33 37  1  0  0  0  0
 33 38  1  0  0  0  0
 37 34  1  0  0  0  0
 38 32  1  6  0  0  0
 38 39  1  0  0  0  0
 39 36  1  6  0  0  0
 39 34  1  0  0  0  0
 40 41  1  0  0  0  0
 42 43  1  0  0  0  0
 43 44  1  0  0  0  0
 44 45  1  0  0  0  0
 46 43  2  0  0  0  0
M  END
>  <MODEL>
3

>  <REMARK>
 VINA RESULT:      -7.6      4.146      9.739
  Name = 
  13 active torsions:
  status: ('A' for Active; 'I' for Inactive)
    1  A    between atoms: C_2  and  C_28
    2  A    between atoms: C_2  and  O_34
    3  A    between atoms: O_3  and  C_5
    4  A    between atoms: O_3  and  C_38
    5  A    between atoms: C_7  and  C_11
    6  A    between atoms: C_7  and  N_43
    7  A    between atoms: C_10  and  C_27
    8  A    between atoms: C_12  and  C_36
    9  A    between atoms: C_13  and  C_36
   10  A    between atoms: N_17  and  N_42
   11  A    between atoms: C_25  and  C_33
   12  A    between atoms: C_30  and  C_35
   13  A    between atoms: O_34  and  N_43
                            x       y       z     vdW  Elec       q    Type
                         _______ _______ _______ _____ _____    ______ ____

>  <TORSDO>
F 13

$$$$
=
 OpenBabel10222420103D

 46 49  0  0  1  0  0  0  0  0999 V2000
  190.0250  177.4980  138.3670 O   0  0  0  0  0  0  0  0  0  0  0  0
  190.7710  177.1340  139.3190 C   0  0  0  0  0  0  0  0  0  0  0  0
  188.1420  178.0170  140.2710 N   0  0  0  0  0  0  0  0  0  0  0  0
  188.9600  177.4340  141.0930 C   0  0  0  0  0  0  0  0  0  0  0  0
  190.2620  177.0320  140.6540 N   0  0  0  0  0  2  0  0  0  0  0  0
  188.7080  176.9170  147.0810 F   0  0  0  0  0  0  0  0  0  0  0  0
  188.6270  177.2420  142.5160 C   0  0  0  0  0  0  0  0  0  0  0  0
  191.5020  177.2890  144.6970 C   0  0  0  0  0  3  0  0  0  0  0  0
  187.2420  177.1860  143.0870 C   0  0  0  0  0  3  0  0  0  0  0  0
  190.8130  177.3080  143.5200 N   0  0  0  0  0  0  0  0  0  0  0  0
  189.4130  177.1170  145.9380 C   0  0  0  0  0  0  0  0  0  0  0  0
  190.8280  177.1940  145.9320 C   0  0  0  0  0  0  0  0  0  0  0  0
  189.4590  177.2220  143.5430 C   0  0  1  0  0  3  0  0  0  0  0  0
  187.4800  177.1110  144.5330 N   0  0  0  0  0  0  0  0  0  0  0  0
  188.7550  177.1450  144.7100 C   0  0  0  0  0  0  0  0  0  0  0  0
  191.6010  177.1280  147.0990 O   0  0  0  0  0  0  0  0  0  0  0  0
  192.0900  175.9560  147.6820 C   0  0  0  0  0  0  0  0  0  0  0  0
  193.2570  175.8930  148.1490 O   0  0  0  0  0  0  0  0  0  0  0  0
  191.3210  174.8370  147.6700 F   0  0  0  0  0  0  0  0  0  0  0  0
  185.8040  178.6140  139.7740 C   0  0  0  0  0  0  0  0  0  0  0  0
  185.8690  178.0610  138.6460 O   0  0  0  0  0  0  0  0  0  0  0  0
  186.9070  178.5440  140.6750 N   0  0  0  0  0  2  0  0  0  0  0  0
  184.5990  179.4040  140.1420 C   0  0  0  0  0  2  0  0  0  0  0  0
  184.1290  180.1310  138.9710 N   0  0  0  0  0  2  0  0  0  0  0  0
  182.8110  180.4630  139.1990 O   0  0  0  0  0  0  0  0  0  0  0  0
  181.7680  179.6570  138.7370 C   0  0  0  0  0  0  0  0  0  0  0  0
  181.7610  179.2420  137.5480 O   0  0  0  0  0  0  0  0  0  0  0  0
  179.9700  177.2060  140.6760 C   0  0  0  0  0  2  0  0  0  0  0  0
  180.6340  179.3040  139.6450 C   0  0  2  0  0  3  0  0  0  0  0  0
  181.0630  178.2540  140.6550 C   0  0  1  0  0  3  0  0  0  0  0  0
  179.4640  178.7170  138.8680 C   0  0  0  0  0  2  0  0  0  0  0  0
  179.3050  177.2660  139.3080 C   0  0  1  0  0  3  0  0  0  0  0  0
  179.2320  176.0480  137.0390 C   0  0  1  0  0  3  0  0  0  0  0  0
  180.7280  173.8300  137.5370 S   0  0  0  0  0  0  0  0  0  0  0  0
  179.2230  177.2220  136.1860 N   0  0  0  0  0  1  0  0  0  0  0  0
  179.1280  174.3420  139.6630 C   0  0  0  0  0  1  0  0  0  0  0  0
  179.9460  174.9280  136.3170 C   0  0  0  0  0  2  0  0  0  0  0  0
  180.0090  176.3080  138.3210 C   0  0  2  0  0  3  0  0  0  0  0  0
  180.3190  174.9350  138.9150 C   0  0  2  0  0  3  0  0  0  0  0  0
  180.2890  178.3950  143.0770 C   0  0  0  0  0  1  0  0  0  0  0  0
  181.3160  178.8480  142.0410 C   0  0  0  0  0  2  0  0  0  0  0  0
  192.2070  176.8310  139.0540 C   0  0  0  0  0  2  0  0  0  0  0  0
  192.3370  175.8640  137.9320 C   0  0  0  0  0  0  0  0  0  0  0  0
  191.5290  174.6920  137.9120 N   0  0  0  0  0  2  0  0  0  0  0  0
  191.5610  173.7650  136.8020 C   0  0  0  0  0  1  0  0  0  0  0  0
  193.1200  176.1180  136.9810 O   0  0  0  0  0  0  0  0  0  0  0  0
  1  2  2  0  0  0  0
  2  5  1  0  0  0  0
  3 22  1  0  0  0  0
  3  4  2  0  0  0  0
  4  7  1  0  0  0  0
  5  4  1  0  0  0  0
  7  9  2  0  0  0  0
  8 12  1  0  0  0  0
  9 14  1  0  0  0  0
 10 13  1  0  0  0  0
 10  8  2  0  0  0  0
 11  6  1  0  0  0  0
 12 11  2  0  0  0  0
 12 16  1  0  0  0  0
 13  7  1  1  0  0  0
 13 15  1  0  0  0  0
 14 15  2  0  0  0  0
 15 11  1  0  0  0  0
 16 17  1  0  0  0  0
 17 18  2  0  0  0  0
 19 17  1  0  0  0  0
 20 23  1  0  0  0  0
 20 22  1  0  0  0  0
 21 20  2  0  0  0  0
 24 25  1  0  0  0  0
 24 23  1  0  0  0  0
 26 25  1  0  0  0  0
 27 26  2  0  0  0  0
 29 26  1  6  0  0  0
 29 30  1  0  0  0  0
 30 28  1  0  0  0  0
 30 41  1  1  0  0  0
 31 29  1  0  0  0  0
 32 31  1  6  0  0  0
 32 28  1  0  0  0  0
 33 35  1  6  0  0  0
 33 38  1  0  0  0  0
 34 39  1  0  0  0  0
 37 33  1  0  0  0  0
 37 34  1  0  0  0  0
 38 39  1  0  0  0  0
 38 32  1  1  0  0  0
 39 36  1  6  0  0  0
 41 40  1  0  0  0  0
 42  2  1  0  0  0  0
 43 42  1  0  0  0  0
 44 43  1  0  0  0  0
 45 44  1  0  0  0  0
 46 43  2  0  0  0  0
M  END
>  <MODEL>
4

>  <REMARK>
 VINA RESULT:      -7.4      4.610     10.043
  Name = 
  13 active torsions:
  status: ('A' for Active; 'I' for Inactive)
    1  A    between atoms: C_2  and  C_28
    2  A    between atoms: C_2  and  O_34
    3  A    between atoms: O_3  and  C_5
    4  A    between atoms: O_3  and  C_38
    5  A    between atoms: C_7  and  C_11
    6  A    between atoms: C_7  and  N_43
    7  A    between atoms: C_10  and  C_27
    8  A    between atoms: C_12  and  C_36
    9  A    between atoms: C_13  and  C_36
   10  A    between atoms: N_17  and  N_42
   11  A    between atoms: C_25  and  C_33
   12  A    between atoms: C_30  and  C_35
   13  A    between atoms: O_34  and  N_43
                            x       y       z     vdW  Elec       q    Type
                         _______ _______ _______ _____ _____    ______ ____

>  <TORSDO>
F 13

$$$$
=
 OpenBabel10222420103D

 46 49  0  0  1  0  0  0  0  0999 V2000
  186.2640  178.4580  146.7380 O   0  0  0  0  0  0  0  0  0  0  0  0
  187.3670  177.8510  146.8280 C   0  0  0  0  0  0  0  0  0  0  0  0
  186.3850  177.9240  144.0660 N   0  0  0  0  0  0  0  0  0  0  0  0
  187.5910  177.5070  144.3090 C   0  0  0  0  0  0  0  0  0  0  0  0
  188.0730  177.4290  145.6550 N   0  0  0  0  0  2  0  0  0  0  0  0
  190.8630  176.4700  139.3680 F   0  0  0  0  0  0  0  0  0  0  0  0
  188.4760  177.0190  143.2350 C   0  0  0  0  0  0  0  0  0  0  0  0
  188.1990  178.8980  140.1660 C   0  0  0  0  0  3  0  0  0  0  0  0
  189.5220  175.9570  143.3830 C   0  0  0  0  0  2  0  0  0  0  0  0
  187.9070  178.5230  141.4440 N   0  0  0  0  0  0  0  0  0  0  0  0
  189.9440  177.2020  140.0480 C   0  0  0  0  0  0  0  0  0  0  0  0
  189.2190  178.2540  139.4350 C   0  0  0  0  0  0  0  0  0  0  0  0
  188.6030  177.5070  142.0120 C   0  0  0  0  0  0  0  0  0  0  0  0
  190.1800  175.9520  142.0720 N   0  0  0  0  0  0  0  0  0  0  0  0
  189.6110  176.8600  141.3580 C   0  0  0  0  0  0  0  0  0  0  0  0
  189.4310  178.6550  138.1090 O   0  0  0  0  0  0  0  0  0  0  0  0
  188.8150  178.0990  136.9850 C   0  0  0  0  0  0  0  0  0  0  0  0
  189.1990  177.0020  136.5010 O   0  0  0  0  0  0  0  0  0  0  0  0
  187.8370  178.7960  136.3510 F   0  0  0  0  0  0  0  0  0  0  0  0
  184.7020  178.7270  142.4570 C   0  0  0  0  0  0  0  0  0  0  0  0
  184.3020  179.6040  143.2660 O   0  0  0  0  0  0  0  0  0  0  0  0
  185.8190  177.9030  142.7840 N   0  0  0  0  0  2  0  0  0  0  0  0
  183.9640  178.5010  141.1860 C   0  0  0  0  0  2  0  0  0  0  0  0
  184.5050  179.3790  140.1580 N   0  0  0  0  0  2  0  0  0  0  0  0
  183.8380  179.0950  138.9860 O   0  0  0  0  0  0  0  0  0  0  0  0
  184.1740  177.9850  138.2090 C   0  0  0  0  0  0  0  0  0  0  0  0
  185.3780  177.7490  137.9200 O   0  0  0  0  0  0  0  0  0  0  0  0
  182.8110  174.6710  137.8070 C   0  0  0  0  0  2  0  0  0  0  0  0
  183.1040  177.0810  137.6870 C   0  0  2  0  0  3  0  0  0  0  0  0
  182.8600  175.9300  138.6480 C   0  0  1  0  0  3  0  0  0  0  0  0
  183.5010  176.4650  136.3530 C   0  0  0  0  0  2  0  0  0  0  0  0
  183.6450  174.9620  136.5670 C   0  0  1  0  0  3  0  0  0  0  0  0
  185.9870  174.6090  135.5540 C   0  0  1  0  0  3  0  0  0  0  0  0
  187.0480  172.7340  137.2180 S   0  0  0  0  0  0  0  0  0  0  0  0
  186.2190  175.9710  135.1130 N   0  0  0  0  0  1  0  0  0  0  0  0
  184.4580  172.1290  136.7030 C   0  0  0  0  0  1  0  0  0  0  0  0
  187.3140  173.9860  135.9250 C   0  0  0  0  0  2  0  0  0  0  0  0
  185.1220  174.5760  136.8050 C   0  0  2  0  0  3  0  0  0  0  0  0
  185.3030  173.1850  137.4090 C   0  0  2  0  0  3  0  0  0  0  0  0
  180.5160  175.0750  139.1600 C   0  0  0  0  0  1  0  0  0  0  0  0
  181.5860  176.1200  139.4720 C   0  0  0  0  0  2  0  0  0  0  0  0
  187.9320  177.5460  148.1740 C   0  0  0  0  0  2  0  0  0  0  0  0
  189.4190  177.5440  148.1280 C   0  0  0  0  0  0  0  0  0  0  0  0
  190.1040  176.4970  147.4500 N   0  0  0  0  0  2  0  0  0  0  0  0
  191.5440  176.4970  147.3070 C   0  0  0  0  0  1  0  0  0  0  0  0
  190.0570  178.5000  148.6400 O   0  0  0  0  0  0  0  0  0  0  0  0
  1  2  2  0  0  0  0
  2 42  1  0  0  0  0
  3  4  2  0  0  0  0
  4  5  1  0  0  0  0
  5  2  1  0  0  0  0
  6 11  1  0  0  0  0
  7  9  1  0  0  0  0
  7  4  1  0  0  0  0
  8 10  2  0  0  0  0
 10 13  1  0  0  0  0
 11 15  1  0  0  0  0
 12 11  2  0  0  0  0
 12  8  1  0  0  0  0
 13  7  2  0  0  0  0
 14  9  1  0  0  0  0
 15 13  1  0  0  0  0
 15 14  2  0  0  0  0
 16 12  1  0  0  0  0
 17 16  1  0  0  0  0
 18 17  2  0  0  0  0
 19 17  1  0  0  0  0
 20 22  1  0  0  0  0
 20 21  2  0  0  0  0
 22  3  1  0  0  0  0
 23 20  1  0  0  0  0
 24 23  1  0  0  0  0
 25 24  1  0  0  0  0
 26 25  1  0  0  0  0
 27 26  2  0  0  0  0
 28 30  1  0  0  0  0
 29 26  1  1  0  0  0
 29 30  1  0  0  0  0
 30 41  1  6  0  0  0
 31 29  1  0  0  0  0
 32 31  1  1  0  0  0
 32 28  1  0  0  0  0
 33 35  1  1  0  0  0
 33 37  1  0  0  0  0
 33 38  1  0  0  0  0
 34 39  1  0  0  0  0
 37 34  1  0  0  0  0
 38 32  1  6  0  0  0
 38 39  1  0  0  0  0
 39 36  1  6  0  0  0
 40 41  1  0  0  0  0
 43 42  1  0  0  0  0
 43 46  2  0  0  0  0
 44 43  1  0  0  0  0
 45 44  1  0  0  0  0
M  END
>  <MODEL>
5

>  <REMARK>
 VINA RESULT:      -7.3      3.534      8.813
  Name = 
  13 active torsions:
  status: ('A' for Active; 'I' for Inactive)
    1  A    between atoms: C_2  and  C_28
    2  A    between atoms: C_2  and  O_34
    3  A    between atoms: O_3  and  C_5
    4  A    between atoms: O_3  and  C_38
    5  A    between atoms: C_7  and  C_11
    6  A    between atoms: C_7  and  N_43
    7  A    between atoms: C_10  and  C_27
    8  A    between atoms: C_12  and  C_36
    9  A    between atoms: C_13  and  C_36
   10  A    between atoms: N_17  and  N_42
   11  A    between atoms: C_25  and  C_33
   12  A    between atoms: C_30  and  C_35
   13  A    between atoms: O_34  and  N_43
                            x       y       z     vdW  Elec       q    Type
                         _______ _______ _______ _____ _____    ______ ____

>  <TORSDO>
F 13

$$$$
=
 OpenBabel10222420103D

 46 49  0  0  1  0  0  0  0  0999 V2000
  187.3000  177.6940  146.4290 O   0  0  0  0  0  0  0  0  0  0  0  0
  188.2750  177.5450  145.6400 C   0  0  0  0  0  0  0  0  0  0  0  0
  185.7790  178.0790  144.1980 N   0  0  0  0  0  0  0  0  0  0  0  0
  186.9070  178.0890  143.5560 C   0  0  0  0  0  0  0  0  0  0  0  0
  188.1310  177.7920  144.2370 N   0  0  0  0  0  2  0  0  0  0  0  0
  188.1150  178.3570  137.6680 F   0  0  0  0  0  0  0  0  0  0  0  0
  186.9710  178.3150  142.1000 C   0  0  0  0  0  0  0  0  0  0  0  0
  190.0210  177.1280  140.5810 C   0  0  0  0  0  3  0  0  0  0  0  0
  185.8510  178.8360  141.2490 C   0  0  0  0  0  3  0  0  0  0  0  0
  189.1430  177.4170  141.5830 N   0  0  0  0  0  0  0  0  0  0  0  0
  188.4450  177.9760  138.9290 C   0  0  1  0  0  3  0  0  0  0  0  0
  189.7010  177.3950  139.2340 C   0  0  0  0  0  0  0  0  0  0  0  0
  187.9480  177.9820  141.2750 C   0  0  0  0  0  0  0  0  0  0  0  0
  186.3970  178.7460  139.8900 N   0  0  0  0  0  0  0  0  0  0  0  0
  187.5800  178.2480  139.9870 C   0  0  0  0  0  0  0  0  0  0  0  0
  190.6710  177.1210  138.2600 O   0  0  0  0  0  0  0  0  0  0  0  0
  191.6370  176.1140  138.3380 C   0  0  0  0  0  0  0  0  0  0  0  0
  191.3500  174.9110  138.1070 O   0  0  0  0  0  0  0  0  0  0  0  0
  192.8910  176.4290  138.7530 F   0  0  0  0  0  0  0  0  0  0  0  0
  183.4350  178.8340  144.2320 C   0  0  0  0  0  0  0  0  0  0  0  0
  183.5930  179.3740  145.3590 O   0  0  0  0  0  0  0  0  0  0  0  0
  184.5410  178.2370  143.5600 N   0  0  0  0  0  2  0  0  0  0  0  0
  182.0760  178.7570  143.6330 C   0  0  0  0  0  2  0  0  0  0  0  0
  182.1380  179.2060  142.2500 N   0  0  0  0  0  2  0  0  0  0  0  0
  182.0780  178.0830  141.4520 O   0  0  0  0  0  0  0  0  0  0  0  0
  182.0860  178.1800  140.0600 C   0  0  0  0  0  0  0  0  0  0  0  0
  182.9260  178.9150  139.4760 O   0  0  0  0  0  0  0  0  0  0  0  0
  180.9180  175.0950  138.6030 C   0  0  0  0  0  2  0  0  0  0  0  0
  181.0760  177.4330  139.2490 C   0  0  2  0  0  3  0  0  0  0  0  0
  180.8840  176.0290  139.7960 C   0  0  1  0  0  3  0  0  0  0  0  0
  181.5250  177.2860  137.8030 C   0  0  0  0  0  2  0  0  0  0  0  0
  181.7510  175.8010  137.5420 C   0  0  1  0  0  3  0  0  0  0  0  0
  184.1550  176.0790  136.6590 C   0  0  1  0  0  3  0  0  0  0  0  0
  185.3010  173.7170  137.3800 S   0  0  0  0  0  0  0  0  0  0  0  0
  184.2880  177.5040  136.8950 N   0  0  0  0  0  1  0  0  0  0  0  0
  182.7950  173.2650  136.4540 C   0  0  0  0  0  1  0  0  0  0  0  0
  185.5130  175.4320  136.8100 C   0  0  0  0  0  2  0  0  0  0  0  0
  183.2440  175.4340  137.6930 C   0  0  2  0  0  3  0  0  0  0  0  0
  183.5170  173.9320  137.6210 C   0  0  2  0  0  3  0  0  0  0  0  0
  179.2900  174.4420  140.9910 C   0  0  0  0  0  1  0  0  0  0  0  0
  179.5910  175.8880  140.5980 C   0  0  0  0  0  2  0  0  0  0  0  0
  189.5890  177.0810  146.1730 C   0  0  0  0  0  2  0  0  0  0  0  0
  190.6490  177.2180  145.1390 C   0  0  0  0  0  0  0  0  0  0  0  0
  190.9260  178.4950  144.5760 N   0  0  0  0  0  2  0  0  0  0  0  0
  192.0020  178.6920  143.6290 C   0  0  0  0  0  1  0  0  0  0  0  0
  191.3300  176.2120  144.8120 O   0  0  0  0  0  0  0  0  0  0  0  0
  2 42  1  0  0  0  0
  2  1  2  0  0  0  0
  4  3  2  0  0  0  0
  4  5  1  0  0  0  0
  5  2  1  0  0  0  0
  7  4  1  0  0  0  0
  8 10  1  0  0  0  0
  9  7  2  0  0  0  0
 11  6  1  1  0  0  0
 11 12  1  0  0  0  0
 11 15  1  0  0  0  0
 12  8  2  0  0  0  0
 13 10  2  0  0  0  0
 13  7  1  0  0  0  0
 14 15  2  0  0  0  0
 14  9  1  0  0  0  0
 15 13  1  0  0  0  0
 16 17  1  0  0  0  0
 16 12  1  0  0  0  0
 17 19  1  0  0  0  0
 18 17  2  0  0  0  0
 20 21  2  0  0  0  0
 22  3  1  0  0  0  0
 22 20  1  0  0  0  0
 23 20  1  0  0  0  0
 24 23  1  0  0  0  0
 25 24  1  0  0  0  0
 26 25  1  0  0  0  0
 27 26  2  0  0  0  0
 28 30  1  0  0  0  0
 29 30  1  0  0  0  0
 29 26  1  1  0  0  0
 30 41  1  6  0  0  0
 31 29  1  0  0  0  0
 32 31  1  1  0  0  0
 32 28  1  0  0  0  0
 33 37  1  0  0  0  0
 33 35  1  1  0  0  0
 33 38  1  0  0  0  0
 34 39  1  0  0  0  0
 37 34  1  0  0  0  0
 38 32  1  6  0  0  0
 39 36  1  6  0  0  0
 39 38  1  0  0  0  0
 41 40  1  0  0  0  0
 43 42  1  0  0  0  0
 44 43  1  0  0  0  0
 45 44  1  0  0  0  0
 46 43  2  0  0  0  0
M  END
>  <MODEL>
6

>  <REMARK>
 VINA RESULT:      -7.2      3.485      8.350
  Name = 
  13 active torsions:
  status: ('A' for Active; 'I' for Inactive)
    1  A    between atoms: C_2  and  C_28
    2  A    between atoms: C_2  and  O_34
    3  A    between atoms: O_3  and  C_5
    4  A    between atoms: O_3  and  C_38
    5  A    between atoms: C_7  and  C_11
    6  A    between atoms: C_7  and  N_43
    7  A    between atoms: C_10  and  C_27
    8  A    between atoms: C_12  and  C_36
    9  A    between atoms: C_13  and  C_36
   10  A    between atoms: N_17  and  N_42
   11  A    between atoms: C_25  and  C_33
   12  A    between atoms: C_30  and  C_35
   13  A    between atoms: O_34  and  N_43
                            x       y       z     vdW  Elec       q    Type
                         _______ _______ _______ _____ _____    ______ ____

>  <TORSDO>
F 13

$$$$
=
 OpenBabel10222420103D

 46 49  0  0  1  0  0  0  0  0999 V2000
  191.7540  175.3290  136.8140 O   0  0  0  0  0  0  0  0  0  0  0  0
  192.3210  175.9820  137.7350 C   0  0  0  0  0  0  0  0  0  0  0  0
  189.3990  176.1380  137.9270 N   0  0  0  0  0  0  0  0  0  0  0  0
  190.1330  176.5910  138.8990 C   0  0  0  0  0  0  0  0  0  0  0  0
  191.5610  176.5570  138.8040 N   0  0  0  0  0  2  0  0  0  0  0  0
  188.4790  178.5740  144.3320 F   0  0  0  0  0  0  0  0  0  0  0  0
  189.5390  177.2320  140.0870 C   0  0  0  0  0  0  0  0  0  0  0  0
  190.6840  175.8340  143.2110 C   0  0  0  0  0  3  0  0  0  0  0  0
  188.6640  178.4490  140.0750 C   0  0  0  0  0  3  0  0  0  0  0  0
  190.5540  175.9590  141.8590 N   0  0  0  0  0  0  0  0  0  0  0  0
  189.2220  177.7540  143.5470 C   0  0  0  0  0  0  0  0  0  0  0  0
  190.0280  176.7220  144.0890 C   0  0  0  0  0  0  0  0  0  0  0  0
  189.7710  176.9460  141.3560 C   0  0  1  0  0  3  0  0  0  0  0  0
  188.4630  178.7290  141.5010 N   0  0  0  0  0  0  0  0  0  0  0  0
  189.1250  177.8420  142.1590 C   0  0  0  0  0  0  0  0  0  0  0  0
  190.1640  176.5040  145.4660 O   0  0  0  0  0  0  0  0  0  0  0  0
  191.3740  176.4030  146.1570 C   0  0  0  0  0  0  0  0  0  0  0  0
  191.6570  177.1830  147.1030 O   0  0  0  0  0  0  0  0  0  0  0  0
  192.3000  175.4980  145.7440 F   0  0  0  0  0  0  0  0  0  0  0  0
  187.3450  177.0790  136.9470 C   0  0  0  0  0  0  0  0  0  0  0  0
  187.9940  177.5850  135.9950 O   0  0  0  0  0  0  0  0  0  0  0  0
  188.0030  176.2600  137.9100 N   0  0  0  0  0  2  0  0  0  0  0  0
  185.9000  177.3930  137.1070 C   0  0  0  0  0  2  0  0  0  0  0  0
  185.7550  178.5170  138.0210 N   0  0  0  0  0  2  0  0  0  0  0  0
  184.6360  178.2790  138.7890 O   0  0  0  0  0  0  0  0  0  0  0  0
  184.2630  179.1440  139.8190 C   0  0  0  0  0  0  0  0  0  0  0  0
  185.1400  179.7010  140.5330 O   0  0  0  0  0  0  0  0  0  0  0  0
  180.9530  177.8860  140.4990 C   0  0  0  0  0  2  0  0  0  0  0  0
  182.8170  179.3950  140.1030 C   0  0  2  0  0  3  0  0  0  0  0  0
  182.2750  178.3570  141.0710 C   0  0  1  0  0  3  0  0  0  0  0  0
  181.9790  179.2980  138.8370 C   0  0  0  0  0  2  0  0  0  0  0  0
  181.0470  178.1010  138.9950 C   0  0  1  0  0  3  0  0  0  0  0  0
  181.5130  176.8590  136.7870 C   0  0  1  0  0  3  0  0  0  0  0  0
  181.4750  174.2560  137.5820 S   0  0  0  0  0  0  0  0  0  0  0  0
  182.4110  177.8340  136.1970 N   0  0  0  0  0  1  0  0  0  0  0  0
  179.4760  175.6100  138.8120 C   0  0  0  0  0  1  0  0  0  0  0  0
  181.9120  175.4810  136.3100 C   0  0  0  0  0  2  0  0  0  0  0  0
  181.6320  176.8490  138.3030 C   0  0  2  0  0  3  0  0  0  0  0  0
  181.0000  175.5390  138.7700 C   0  0  2  0  0  3  0  0  0  0  0  0
  183.3640  178.6850  143.3500 C   0  0  0  0  0  1  0  0  0  0  0  0
  182.1220  178.9080  142.4890 C   0  0  0  0  0  2  0  0  0  0  0  0
  193.7990  176.1770  137.6970 C   0  0  0  0  0  2  0  0  0  0  0  0
  194.4800  174.9190  137.2910 C   0  0  0  0  0  0  0  0  0  0  0  0
  194.5990  173.8470  138.2200 N   0  0  0  0  0  2  0  0  0  0  0  0
  195.1790  172.5760  137.8460 C   0  0  0  0  0  1  0  0  0  0  0  0
  194.8960  174.7910  136.1100 O   0  0  0  0  0  0  0  0  0  0  0  0
  1  2  2  0  0  0  0
  2  5  1  0  0  0  0
  3  4  2  0  0  0  0
  4  7  1  0  0  0  0
  5  4  1  0  0  0  0
  8 12  1  0  0  0  0
  9  7  2  0  0  0  0
  9 14  1  0  0  0  0
 10  8  2  0  0  0  0
 11 12  2  0  0  0  0
 11  6  1  0  0  0  0
 12 16  1  0  0  0  0
 13  7  1  6  0  0  0
 13 10  1  0  0  0  0
 13 15  1  0  0  0  0
 14 15  2  0  0  0  0
 15 11  1  0  0  0  0
 16 17  1  0  0  0  0
 17 18  2  0  0  0  0
 19 17  1  0  0  0  0
 20 23  1  0  0  0  0
 20 22  1  0  0  0  0
 21 20  2  0  0  0  0
 22  3  1  0  0  0  0
 23 24  1  0  0  0  0
 24 25  1  0  0  0  0
 25 26  1  0  0  0  0
 26 27  2  0  0  0  0
 28 30  1  0  0  0  0
 29 26  1  6  0  0  0
 29 30  1  0  0  0  0
 30 41  1  1  0  0  0
 31 29  1  0  0  0  0
 32 31  1  1  0  0  0
 32 28  1  0  0  0  0
 33 35  1  6  0  0  0
 33 38  1  0  0  0  0
 34 39  1  0  0  0  0
 37 33  1  0  0  0  0
 37 34  1  0  0  0  0
 38 39  1  0  0  0  0
 38 32  1  1  0  0  0
 39 36  1  6  0  0  0
 41 40  1  0  0  0  0
 42  2  1  0  0  0  0
 43 42  1  0  0  0  0
 43 44  1  0  0  0  0
 45 44  1  0  0  0  0
 46 43  2  0  0  0  0
M  END
>  <MODEL>
7

>  <REMARK>
 VINA RESULT:      -7.2      4.505      9.997
  Name = 
  13 active torsions:
  status: ('A' for Active; 'I' for Inactive)
    1  A    between atoms: C_2  and  C_28
    2  A    between atoms: C_2  and  O_34
    3  A    between atoms: O_3  and  C_5
    4  A    between atoms: O_3  and  C_38
    5  A    between atoms: C_7  and  C_11
    6  A    between atoms: C_7  and  N_43
    7  A    between atoms: C_10  and  C_27
    8  A    between atoms: C_12  and  C_36
    9  A    between atoms: C_13  and  C_36
   10  A    between atoms: N_17  and  N_42
   11  A    between atoms: C_25  and  C_33
   12  A    between atoms: C_30  and  C_35
   13  A    between atoms: O_34  and  N_43
                            x       y       z     vdW  Elec       q    Type
                         _______ _______ _______ _____ _____    ______ ____

>  <TORSDO>
F 13

$$$$
=
 OpenBabel10222420103D

 46 49  0  0  1  0  0  0  0  0999 V2000
  187.2700  177.6700  146.5920 O   0  0  0  0  0  0  0  0  0  0  0  0
  188.2120  177.4790  145.7730 C   0  0  0  0  0  0  0  0  0  0  0  0
  185.7000  178.1310  144.4090 N   0  0  0  0  0  0  0  0  0  0  0  0
  186.8080  178.0910  143.7330 C   0  0  0  0  0  0  0  0  0  0  0  0
  188.0370  177.7360  144.3760 N   0  0  0  0  0  2  0  0  0  0  0  0
  187.8750  178.3620  137.8180 F   0  0  0  0  0  0  0  0  0  0  0  0
  186.8370  178.3180  142.2760 C   0  0  0  0  0  0  0  0  0  0  0  0
  189.8470  177.1240  140.6840 C   0  0  0  0  0  3  0  0  0  0  0  0
  185.6990  178.8430  141.4530 C   0  0  0  0  0  2  0  0  0  0  0  0
  188.9940  177.4160  141.7070 N   0  0  0  0  0  0  0  0  0  0  0  0
  188.2340  177.9780  139.0700 C   0  0  0  0  0  0  0  0  0  0  0  0
  189.4960  177.3940  139.3450 C   0  0  0  0  0  0  0  0  0  0  0  0
  187.7940  177.9840  141.4270 C   0  0  0  0  0  0  0  0  0  0  0  0
  186.2110  178.7530  140.0810 N   0  0  0  0  0  0  0  0  0  0  0  0
  187.3950  178.2520  140.1500 C   0  0  0  0  0  0  0  0  0  0  0  0
  190.4410  177.1180  138.3480 O   0  0  0  0  0  0  0  0  0  0  0  0
  191.5280  176.2500  138.4790 C   0  0  0  0  0  0  0  0  0  0  0  0
  191.3940  175.0060  138.3410 O   0  0  0  0  0  0  0  0  0  0  0  0
  192.7370  176.7500  138.8450 F   0  0  0  0  0  0  0  0  0  0  0  0
  183.3140  178.7150  144.5860 C   0  0  0  0  0  0  0  0  0  0  0  0
  183.4430  179.0050  145.8040 O   0  0  0  0  0  0  0  0  0  0  0  0
  184.4520  178.3480  143.8100 N   0  0  0  0  0  2  0  0  0  0  0  0
  181.9600  178.6870  143.9720 C   0  0  0  0  0  2  0  0  0  0  0  0
  182.0370  179.2230  142.6210 N   0  0  0  0  0  2  0  0  0  0  0  0
  181.4250  178.3140  141.7850 O   0  0  0  0  0  0  0  0  0  0  0  0
  180.5120  178.7230  140.8110 C   0  0  0  0  0  0  0  0  0  0  0  0
  179.3160  178.3300  140.8520 O   0  0  0  0  0  0  0  0  0  0  0  0
  180.7850  179.3880  137.2770 C   0  0  0  0  0  2  0  0  0  0  0  0
  180.9550  179.6100  139.6920 C   0  0  2  0  0  3  0  0  0  0  0  0
  179.9660  179.5540  138.5410 C   0  0  1  0  0  3  0  0  0  0  0  0
  182.3030  179.1720  139.1370 C   0  0  0  0  0  2  0  0  0  0  0  0
  182.0780  178.7060  137.7030 C   0  0  1  0  0  3  0  0  0  0  0  0
  183.0880  176.4000  138.2490 C   0  0  1  0  0  3  0  0  0  0  0  0
  182.0330  174.8390  136.2850 S   0  0  0  0  0  0  0  0  0  0  0  0
  183.0940  176.5250  139.6950 N   0  0  0  0  0  1  0  0  0  0  0  0
  182.7750  177.2290  135.2450 C   0  0  0  0  0  1  0  0  0  0  0  0
  182.8850  174.9460  137.8890 C   0  0  0  0  0  2  0  0  0  0  0  0
  181.9270  177.1700  137.6370 C   0  0  2  0  0  3  0  0  0  0  0  0
  181.7620  176.6300  136.2170 C   0  0  2  0  0  3  0  0  0  0  0  0
  179.7630  182.0530  138.9870 C   0  0  0  0  0  1  0  0  0  0  0  0
  179.0670  180.7890  138.4840 C   0  0  0  0  0  2  0  0  0  0  0  0
  189.5190  176.9530  146.2660 C   0  0  0  0  0  2  0  0  0  0  0  0
  190.6180  177.3400  145.3410 C   0  0  0  0  0  0  0  0  0  0  0  0
  190.5990  178.6190  144.7170 N   0  0  0  0  0  2  0  0  0  0  0  0
  191.6860  179.0720  143.8760 C   0  0  0  0  0  1  0  0  0  0  0  0
  191.5840  176.5550  145.1620 O   0  0  0  0  0  0  0  0  0  0  0  0
  2 42  1  0  0  0  0
  2  1  2  0  0  0  0
  4  5  1  0  0  0  0
  4  3  2  0  0  0  0
  5  2  1  0  0  0  0
  6 11  1  0  0  0  0
  7  4  1  0  0  0  0
  8 10  2  0  0  0  0
  9  7  1  0  0  0  0
 11 12  2  0  0  0  0
 11 15  1  0  0  0  0
 12  8  1  0  0  0  0
 13 10  1  0  0  0  0
 13  7  2  0  0  0  0
 14 15  2  0  0  0  0
 14  9  1  0  0  0  0
 15 13  1  0  0  0  0
 16 17  1  0  0  0  0
 16 12  1  0  0  0  0
 17 19  1  0  0  0  0
 18 17  2  0  0  0  0
 20 21  2  0  0  0  0
 22  3  1  0  0  0  0
 22 20  1  0  0  0  0
 23 20  1  0  0  0  0
 24 23  1  0  0  0  0
 25 24  1  0  0  0  0
 26 27  2  0  0  0  0
 26 25  1  0  0  0  0
 28 30  1  0  0  0  0
 29 26  1  1  0  0  0
 30 41  1  6  0  0  0
 30 29  1  0  0  0  0
 31 29  1  0  0  0  0
 32 28  1  1  0  0  0
 32 31  1  0  0  0  0
 33 35  1  1  0  0  0
 34 37  1  0  0  0  0
 37 33  1  0  0  0  0
 38 32  1  6  0  0  0
 38 33  1  0  0  0  0
 39 36  1  6  0  0  0
 39 34  1  0  0  0  0
 39 38  1  0  0  0  0
 41 40  1  0  0  0  0
 43 42  1  0  0  0  0
 44 43  1  0  0  0  0
 45 44  1  0  0  0  0
 46 43  2  0  0  0  0
M  END
>  <MODEL>
8

>  <REMARK>
 VINA RESULT:      -7.1      3.472      8.650
  Name = 
  13 active torsions:
  status: ('A' for Active; 'I' for Inactive)
    1  A    between atoms: C_2  and  C_28
    2  A    between atoms: C_2  and  O_34
    3  A    between atoms: O_3  and  C_5
    4  A    between atoms: O_3  and  C_38
    5  A    between atoms: C_7  and  C_11
    6  A    between atoms: C_7  and  N_43
    7  A    between atoms: C_10  and  C_27
    8  A    between atoms: C_12  and  C_36
    9  A    between atoms: C_13  and  C_36
   10  A    between atoms: N_17  and  N_42
   11  A    between atoms: C_25  and  C_33
   12  A    between atoms: C_30  and  C_35
   13  A    between atoms: O_34  and  N_43
                            x       y       z     vdW  Elec       q    Type
                         _______ _______ _______ _____ _____    ______ ____

>  <TORSDO>
F 13

$$$$
=
 OpenBabel10222420103D

 46 49  0  0  1  0  0  0  0  0999 V2000
  184.7070  178.1700  142.0170 O   0  0  0  0  0  0  0  0  0  0  0  0
  183.5090  178.5470  142.1480 C   0  0  0  0  0  0  0  0  0  0  0  0
  184.3320  178.4970  139.3350 N   0  0  0  0  0  0  0  0  0  0  0  0
  183.0820  178.6770  139.6360 C   0  0  0  0  0  0  0  0  0  0  0  0
  182.6690  178.7430  141.0050 N   0  0  0  0  0  2  0  0  0  0  0  0
  179.2050  180.7280  135.5180 F   0  0  0  0  0  0  0  0  0  0  0  0
  182.0580  178.9080  138.5990 C   0  0  0  0  0  0  0  0  0  0  0  0
  181.3380  182.3980  138.0260 C   0  0  0  0  0  3  0  0  0  0  0  0
  181.4530  177.8530  137.7230 C   0  0  0  0  0  3  0  0  0  0  0  0
  181.9090  181.3100  138.6190 N   0  0  0  0  0  0  0  0  0  0  0  0
  180.1370  180.9480  136.4800 C   0  0  1  0  0  3  0  0  0  0  0  0
  180.4430  182.2510  136.9460 C   0  0  0  0  0  0  0  0  0  0  0  0
  181.5970  180.0690  138.1670 C   0  0  0  0  0  0  0  0  0  0  0  0
  180.6080  178.6270  136.8060 N   0  0  0  0  0  0  0  0  0  0  0  0
  180.7500  179.8690  137.1160 C   0  0  0  0  0  0  0  0  0  0  0  0
  179.8540  183.4070  136.4190 O   0  0  0  0  0  0  0  0  0  0  0  0
  180.5110  184.6180  136.1840 C   0  0  0  0  0  0  0  0  0  0  0  0
  180.4290  185.5770  136.9950 O   0  0  0  0  0  0  0  0  0  0  0  0
  181.1830  184.7930  135.0170 F   0  0  0  0  0  0  0  0  0  0  0  0
  185.0820  177.3590  137.2830 C   0  0  0  0  0  0  0  0  0  0  0  0
  184.7470  176.2370  137.7460 O   0  0  0  0  0  0  0  0  0  0  0  0
  184.8110  178.5500  138.0190 N   0  0  0  0  0  2  0  0  0  0  0  0
  185.8250  177.4370  135.9980 C   0  0  0  0  0  2  0  0  0  0  0  0
  186.1640  176.0910  135.5600 N   0  0  0  0  0  2  0  0  0  0  0  0
  187.5360  176.0310  135.4430 O   0  0  0  0  0  0  0  0  0  0  0  0
  188.3270  175.4680  136.4460 C   0  0  0  0  0  0  0  0  0  0  0  0
  187.8160  174.7060  137.3090 O   0  0  0  0  0  0  0  0  0  0  0  0
  191.3890  175.6450  138.3420 C   0  0  0  0  0  2  0  0  0  0  0  0
  189.7850  175.7880  136.5210 C   0  0  2  0  0  3  0  0  0  0  0  0
  190.5000  174.8130  137.4400 C   0  0  1  0  0  3  0  0  0  0  0  0
  190.0180  177.1810  137.0890 C   0  0  0  0  0  2  0  0  0  0  0  0
  190.7340  177.0170  138.4250 C   0  0  1  0  0  3  0  0  0  0  0  0
  189.0270  178.4070  139.7630 C   0  0  1  0  0  3  0  0  0  0  0  0
  189.1830  177.2730  142.2330 S   0  0  0  0  0  0  0  0  0  0  0  0
  188.0720  178.6290  138.6930 N   0  0  0  0  0  1  0  0  0  0  0  0
  191.6700  177.5040  141.1810 C   0  0  0  0  0  1  0  0  0  0  0  0
  188.2800  178.3490  141.0760 C   0  0  0  0  0  2  0  0  0  0  0  0
  189.7320  177.0690  139.6000 C   0  0  2  0  0  3  0  0  0  0  0  0
  190.3600  176.7530  140.9560 C   0  0  2  0  0  3  0  0  0  0  0  0
  191.7590  174.2540  135.2970 C   0  0  0  0  0  1  0  0  0  0  0  0
  191.2940  173.7600  136.6660 C   0  0  0  0  0  2  0  0  0  0  0  0
  182.9680  178.8180  143.5120 C   0  0  0  0  0  2  0  0  0  0  0  0
  184.0410  179.3320  144.4060 C   0  0  0  0  0  0  0  0  0  0  0  0
  184.4260  178.5810  145.5520 N   0  0  0  0  0  2  0  0  0  0  0  0
  185.5190  178.9990  146.4030 C   0  0  0  0  0  1  0  0  0  0  0  0
  184.6380  180.3980  144.1080 O   0  0  0  0  0  0  0  0  0  0  0  0
  1  2  2  0  0  0  0
  2 42  1  0  0  0  0
  3  4  2  0  0  0  0
  4  5  1  0  0  0  0
  5  2  1  0  0  0  0
  7  4  1  0  0  0  0
  8 10  1  0  0  0  0
  9  7  2  0  0  0  0
 11  6  1  1  0  0  0
 11 12  1  0  0  0  0
 11 15  1  0  0  0  0
 12  8  2  0  0  0  0
 13  7  1  0  0  0  0
 13 10  2  0  0  0  0
 14 15  2  0  0  0  0
 14  9  1  0  0  0  0
 15 13  1  0  0  0  0
 16 12  1  0  0  0  0
 17 16  1  0  0  0  0
 17 18  2  0  0  0  0
 19 17  1  0  0  0  0
 20 21  2  0  0  0  0
 20 22  1  0  0  0  0
 22  3  1  0  0  0  0
 23 20  1  0  0  0  0
 24 23  1  0  0  0  0
 25 24  1  0  0  0  0
 25 26  1  0  0  0  0
 26 27  2  0  0  0  0
 28 32  1  0  0  0  0
 29 26  1  1  0  0  0
 29 31  1  0  0  0  0
 29 30  1  0  0  0  0
 30 41  1  6  0  0  0
 30 28  1  0  0  0  0
 32 31  1  6  0  0  0
 33 35  1  6  0  0  0
 33 37  1  0  0  0  0
 37 34  1  0  0  0  0
 38 32  1  6  0  0  0
 38 33  1  0  0  0  0
 38 39  1  0  0  0  0
 39 36  1  1  0  0  0
 39 34  1  0  0  0  0
 40 41  1  0  0  0  0
 42 43  1  0  0  0  0
 43 44  1  0  0  0  0
 44 45  1  0  0  0  0
 46 43  2  0  0  0  0
M  END
>  <MODEL>
9

>  <REMARK>
 VINA RESULT:      -7.1      3.221      7.974
  Name = 
  13 active torsions:
  status: ('A' for Active; 'I' for Inactive)
    1  A    between atoms: C_2  and  C_28
    2  A    between atoms: C_2  and  O_34
    3  A    between atoms: O_3  and  C_5
    4  A    between atoms: O_3  and  C_38
    5  A    between atoms: C_7  and  C_11
    6  A    between atoms: C_7  and  N_43
    7  A    between atoms: C_10  and  C_27
    8  A    between atoms: C_12  and  C_36
    9  A    between atoms: C_13  and  C_36
   10  A    between atoms: N_17  and  N_42
   11  A    between atoms: C_25  and  C_33
   12  A    between atoms: C_30  and  C_35
   13  A    between atoms: O_34  and  N_43
                            x       y       z     vdW  Elec       q    Type
                         _______ _______ _______ _____ _____    ______ ____

>  <TORSDO>
F 13

$$$$
