=
 OpenBabel10222419593D

 36 39  0  0  1  0  0  0  0  0999 V2000
  189.8010  175.6680  137.8380 C   0  0  0  0  0  0  0  0  0  0  0  0
  187.7140  176.9090  137.6680 C   0  0  0  0  0  0  0  0  0  0  0  0
  189.1990  174.5710  137.2240 C   0  0  0  0  0  3  0  0  0  0  0  0
  187.8640  174.6240  136.8250 C   0  0  0  0  0  0  0  0  0  0  0  0
  187.1290  175.7940  137.0460 C   0  0  0  0  0  3  0  0  0  0  0  0
  191.1450  175.5890  138.1930 O   0  0  0  0  0  1  0  0  0  0  0  0
  189.0700  176.8430  138.0730 C   0  0  0  0  0  0  0  0  0  0  0  0
  185.6220  178.1530  137.8900 C   0  0  0  0  0  0  0  0  0  0  0  0
  186.9290  178.1370  137.8870 C   0  0  0  0  0  3  0  0  0  0  0  0
  184.3210  178.1440  137.9140 C   0  0  0  0  0  3  0  0  0  0  0  0
  183.5920  178.5510  141.6450 C   0  0  0  0  0  2  0  0  0  0  0  0
  184.1530  178.7250  140.3390 O   0  0  0  0  0  0  0  0  0  0  0  0
  181.6400  177.6480  140.4780 N   0  0  0  0  0  2  0  0  0  0  0  0
  183.5920  178.1330  139.1910 C   0  0  0  0  0  0  0  0  0  0  0  0
  182.0660  178.5410  141.5590 C   0  0  0  0  0  2  0  0  0  0  0  0
  182.3810  177.5790  139.2520 C   0  0  0  0  0  3  0  0  0  0  0  0
  189.7560  177.9920  138.7720 C   0  0  0  0  0  2  0  0  0  0  0  0
  189.9010  177.7590  140.2490 C   0  0  0  0  0  0  0  0  0  0  0  0
  187.5710  178.5220  140.9250 C   0  0  0  0  0  1  0  0  0  0  0  0
  191.5560  177.9430  143.2110 N   0  0  0  0  0  0  0  0  0  0  0  0
  190.4360  177.1290  145.2640 C   0  0  0  0  0  0  0  0  0  0  0  0
  191.4360  177.9360  144.5060 C   0  0  0  0  0  3  0  0  0  0  0  0
  189.1820  176.9160  144.8350 C   0  0  0  0  0  3  0  0  0  0  0  0
  191.0320  177.4390  140.8790 C   0  0  0  0  0  0  0  0  0  0  0  0
  189.3350  177.4120  142.4180 C   0  0  0  0  0  0  0  0  0  0  0  0
  190.7880  177.0790  142.3190 C   0  0  2  0  0  3  0  0  0  0  0  0
  188.6130  177.3050  143.5290 C   0  0  0  0  0  3  0  0  0  0  0  0
  188.8030  177.7810  141.1470 N   0  0  0  0  0  0  0  0  0  0  0  0
  192.3060  177.3660  140.2360 N   0  0  0  0  0  1  0  0  0  0  0  0
  190.7690  176.6140  146.5160 O   0  0  0  0  0  0  0  0  0  0  0  0
  192.0350  176.0320  146.7950 C   0  0  0  0  0  1  0  0  0  0  0  0
  187.2930  173.4920  136.1640 N   0  0  0  0  0  2  0  0  0  0  0  0
  185.4870  171.3540  135.7580 N   0  0  0  0  0  1  0  0  0  0  0  0
  185.4050  172.8640  137.9280 O   0  0  0  0  0  0  0  0  0  0  0  0
  184.6870  173.8680  135.7860 O   0  0  0  0  0  0  0  0  0  0  0  0
  185.6690  172.9320  136.4460 S   0  0  0  0  0  0  0  0  0  0  0  0
  1  7  1  0  0  0  0
  1  6  1  0  0  0  0
  2  9  1  0  0  0  0
  2  7  2  0  0  0  0
  3  1  2  0  0  0  0
  4  5  2  0  0  0  0
  4  3  1  0  0  0  0
  5  2  1  0  0  0  0
  7 17  1  0  0  0  0
  8 10  2  0  0  0  0
  9  8  2  0  0  0  0
 10 14  1  0  0  0  0
 12 11  1  0  0  0  0
 13 15  1  0  0  0  0
 14 16  2  0  0  0  0
 14 12  1  0  0  0  0
 15 11  1  0  0  0  0
 16 13  1  0  0  0  0
 17 18  1  0  0  0  0
 18 24  2  0  0  0  0
 18 28  1  0  0  0  0
 19 28  1  0  0  0  0
 20 22  2  0  0  0  0
 21 30  1  0  0  0  0
 22 21  1  0  0  0  0
 23 21  2  0  0  0  0
 25 27  2  0  0  0  0
 26 24  1  6  0  0  0
 26 25  1  0  0  0  0
 26 20  1  0  0  0  0
 27 23  1  0  0  0  0
 28 25  1  0  0  0  0
 29 24  1  0  0  0  0
 30 31  1  0  0  0  0
 32 36  1  0  0  0  0
 32  4  1  0  0  0  0
 33 36  1  0  0  0  0
 35 36  2  0  0  0  0
 36 34  2  0  0  0  0
M  END
>  <MODEL>
1

>  <REMARK>
 VINA RESULT:      -7.8      0.000      0.000
  Name = 
  7 active torsions:
  status: ('A' for Active; 'I' for Inactive)
    1  A    between atoms: C_1  and  C_13
    2  A    between atoms: O_3  and  C_5
    3  A    between atoms: C_13  and  C_33
    4  A    between atoms: C_16  and  C_31
    5  A    between atoms: C_20  and  C_22
    6  A    between atoms: N_21  and  C_25
    7  A    between atoms: N_21  and  S_35
                            x       y       z     vdW  Elec       q    Type
                         _______ _______ _______ _____ _____    ______ ____

>  <TORSDO>
F 7

$$$$
=
 OpenBabel10222419593D

 36 39  0  0  1  0  0  0  0  0999 V2000
  187.0750  177.5140  137.7660 C   0  0  0  0  0  0  0  0  0  0  0  0
  189.0730  176.1400  137.9780 C   0  0  0  0  0  0  0  0  0  0  0  0
  186.4890  176.5390  136.9620 C   0  0  0  0  0  3  0  0  0  0  0  0
  187.1740  175.3640  136.6560 C   0  0  0  0  0  0  0  0  0  0  0  0
  188.4620  175.1680  137.1690 C   0  0  0  0  0  3  0  0  0  0  0  0
  186.3470  178.6600  138.0760 O   0  0  0  0  0  1  0  0  0  0  0  0
  188.3700  177.3330  138.2780 C   0  0  0  0  0  0  0  0  0  0  0  0
  191.3140  175.1660  137.9190 C   0  0  0  0  0  0  0  0  0  0  0  0
  190.4270  175.9170  138.5160 C   0  0  0  0  0  3  0  0  0  0  0  0
  192.1910  174.4330  137.2970 C   0  0  0  0  0  3  0  0  0  0  0  0
  194.9200  174.8340  134.6490 C   0  0  0  0  0  2  0  0  0  0  0  0
  193.7560  174.3800  135.3490 O   0  0  0  0  0  0  0  0  0  0  0  0
  194.6450  176.9040  135.9240 N   0  0  0  0  0  0  0  0  0  0  0  0
  193.2400  175.0530  136.4730 C   0  0  1  0  0  3  0  0  0  0  0  0
  194.9300  176.3610  134.5940 C   0  0  0  0  0  2  0  0  0  0  0  0
  193.6850  176.2710  136.7810 C   0  0  0  0  0  3  0  0  0  0  0  0
  188.9750  178.4320  139.1170 C   0  0  0  0  0  2  0  0  0  0  0  0
  188.8900  178.1400  140.5890 C   0  0  0  0  0  0  0  0  0  0  0  0
  186.4900  178.9080  140.9310 C   0  0  0  0  0  1  0  0  0  0  0  0
  190.0740  178.1890  143.7730 N   0  0  0  0  0  0  0  0  0  0  0  0
  188.6470  177.3120  145.5970 C   0  0  0  0  0  0  0  0  0  0  0  0
  189.7570  178.1340  145.0330 C   0  0  0  0  0  3  0  0  0  0  0  0
  187.4720  177.1330  144.9740 C   0  0  0  0  0  3  0  0  0  0  0  0
  189.9100  177.7820  141.3710 C   0  0  0  0  0  0  0  0  0  0  0  0
  187.9970  177.7180  142.6300 C   0  0  0  0  0  0  0  0  0  0  0  0
  189.4450  177.3700  142.7410 C   0  0  2  0  0  3  0  0  0  0  0  0
  187.1130  177.5780  143.6130 C   0  0  0  0  0  3  0  0  0  0  0  0
  187.6680  178.1430  141.3090 N   0  0  0  0  0  0  0  0  0  0  0  0
  191.2660  177.7170  140.9270 N   0  0  0  0  0  1  0  0  0  0  0  0
  188.7800  176.7450  146.8640 O   0  0  0  0  0  0  0  0  0  0  0  0
  188.5930  177.4870  148.0610 C   0  0  0  0  0  1  0  0  0  0  0  0
  186.5250  174.3700  135.8590 N   0  0  0  0  0  2  0  0  0  0  0  0
  184.4490  172.4510  135.7800 N   0  0  0  0  0  1  0  0  0  0  0  0
  186.9780  171.7640  136.1390 O   0  0  0  0  0  0  0  0  0  0  0  0
  185.8180  172.9330  137.9830 O   0  0  0  0  0  0  0  0  0  0  0  0
  185.9820  172.8390  136.4860 S   0  0  0  0  0  0  0  0  0  0  0  0
  1  6  1  0  0  0  0
  1  7  1  0  0  0  0
  2  7  2  0  0  0  0
  2  9  1  0  0  0  0
  3  1  2  0  0  0  0
  4  3  1  0  0  0  0
  4  5  2  0  0  0  0
  5  2  1  0  0  0  0
  7 17  1  0  0  0  0
  8  9  2  0  0  0  0
 10  8  2  0  0  0  0
 11 12  1  0  0  0  0
 12 14  1  0  0  0  0
 13 16  2  0  0  0  0
 14 16  1  0  0  0  0
 14 10  1  6  0  0  0
 15 11  1  0  0  0  0
 15 13  1  0  0  0  0
 17 18  1  0  0  0  0
 18 28  1  0  0  0  0
 18 24  2  0  0  0  0
 19 28  1  0  0  0  0
 20 22  2  0  0  0  0
 21 30  1  0  0  0  0
 22 21  1  0  0  0  0
 23 21  2  0  0  0  0
 25 26  1  0  0  0  0
 25 27  2  0  0  0  0
 26 24  1  6  0  0  0
 26 20  1  0  0  0  0
 27 23  1  0  0  0  0
 28 25  1  0  0  0  0
 29 24  1  0  0  0  0
 30 31  1  0  0  0  0
 32 36  1  0  0  0  0
 32  4  1  0  0  0  0
 33 36  1  0  0  0  0
 34 36  2  0  0  0  0
 36 35  2  0  0  0  0
M  END
>  <MODEL>
2

>  <REMARK>
 VINA RESULT:      -7.6      2.451      5.873
  Name = 
  7 active torsions:
  status: ('A' for Active; 'I' for Inactive)
    1  A    between atoms: C_1  and  C_13
    2  A    between atoms: O_3  and  C_5
    3  A    between atoms: C_13  and  C_33
    4  A    between atoms: C_16  and  C_31
    5  A    between atoms: C_20  and  C_22
    6  A    between atoms: N_21  and  C_25
    7  A    between atoms: N_21  and  S_35
                            x       y       z     vdW  Elec       q    Type
                         _______ _______ _______ _____ _____    ______ ____

>  <TORSDO>
F 7

$$$$
=
 OpenBabel10222419593D

 36 39  0  0  1  0  0  0  0  0999 V2000
  189.1480  177.3090  138.6240 C   0  0  0  0  0  0  0  0  0  0  0  0
  187.9440  178.2030  140.5410 C   0  0  0  0  0  0  0  0  0  0  0  0
  190.0500  176.6830  139.4820 C   0  0  0  0  0  3  0  0  0  0  0  0
  189.9170  176.8030  140.8650 C   0  0  0  0  0  0  0  0  0  0  0  0
  188.8620  177.5600  141.3880 C   0  0  0  0  0  3  0  0  0  0  0  0
  189.2950  177.1390  137.2500 O   0  0  0  0  0  1  0  0  0  0  0  0
  188.0920  178.0790  139.1380 C   0  0  0  0  0  0  0  0  0  0  0  0
  185.9460  178.4850  141.9200 C   0  0  0  0  0  0  0  0  0  0  0  0
  186.8350  178.9910  141.1080 C   0  0  0  0  0  3  0  0  0  0  0  0
  185.0840  177.9680  142.7470 C   0  0  0  0  0  3  0  0  0  0  0  0
  186.5090  177.8040  146.2920 C   0  0  0  0  0  2  0  0  0  0  0  0
  186.4070  177.8290  144.8630 O   0  0  0  0  0  0  0  0  0  0  0  0
  184.3730  178.9960  146.2750 N   0  0  0  0  0  2  0  0  0  0  0  0
  185.2150  178.1750  144.1970 C   0  0  0  0  0  0  0  0  0  0  0  0
  185.7010  178.9540  146.8910 C   0  0  0  0  0  2  0  0  0  0  0  0
  184.2060  178.7180  144.8780 C   0  0  0  0  0  3  0  0  0  0  0  0
  187.1610  178.7650  138.1680 C   0  0  0  0  0  2  0  0  0  0  0  0
  185.8190  178.0920  138.0910 C   0  0  0  0  0  0  0  0  0  0  0  0
  186.5270  176.1280  136.6400 C   0  0  0  0  0  1  0  0  0  0  0  0
  182.4480  178.0660  137.6630 N   0  0  0  0  0  0  0  0  0  0  0  0
  181.2520  175.8980  137.6870 C   0  0  0  0  0  0  0  0  0  0  0  0
  181.4150  177.3420  137.3480 C   0  0  0  0  0  3  0  0  0  0  0  0
  182.2650  175.0170  137.6710 C   0  0  0  0  0  3  0  0  0  0  0  0
  184.6670  178.6000  138.5330 C   0  0  0  0  0  0  0  0  0  0  0  0
  184.2610  176.4720  137.7880 C   0  0  0  0  0  0  0  0  0  0  0  0
  183.5550  177.5880  138.4860 C   0  0  2  0  0  3  0  0  0  0  0  0
  183.6960  175.3150  137.4580 C   0  0  0  0  0  3  0  0  0  0  0  0
  185.6410  176.7750  137.5940 N   0  0  0  0  0  0  0  0  0  0  0  0
  184.5330  179.9190  139.0640 N   0  0  0  0  0  1  0  0  0  0  0  0
  179.9850  175.3930  137.9730 O   0  0  0  0  0  0  0  0  0  0  0  0
  179.6270  174.8980  139.2560 C   0  0  0  0  0  1  0  0  0  0  0  0
  190.8400  176.1150  141.7130 N   0  0  0  0  0  2  0  0  0  0  0  0
  191.7220  178.0320  143.5960 N   0  0  0  0  0  1  0  0  0  0  0  0
  189.6790  176.4250  144.0860 O   0  0  0  0  0  0  0  0  0  0  0  0
  191.9470  175.4400  144.0360 O   0  0  0  0  0  0  0  0  0  0  0  0
  191.0250  176.4580  143.4090 S   0  0  0  0  0  0  0  0  0  0  0  0
  1  7  2  0  0  0  0
  1  3  1  0  0  0  0
  2  9  1  0  0  0  0
  2  5  2  0  0  0  0
  3  4  2  0  0  0  0
  4  5  1  0  0  0  0
  4 32  1  0  0  0  0
  6  1  1  0  0  0  0
  7  2  1  0  0  0  0
  8 10  2  0  0  0  0
  9  8  2  0  0  0  0
 10 14  1  0  0  0  0
 11 15  1  0  0  0  0
 12 11  1  0  0  0  0
 13 15  1  0  0  0  0
 14 12  1  0  0  0  0
 14 16  2  0  0  0  0
 16 13  1  0  0  0  0
 17  7  1  0  0  0  0
 18 17  1  0  0  0  0
 18 24  2  0  0  0  0
 19 28  1  0  0  0  0
 21 30  1  0  0  0  0
 22 20  2  0  0  0  0
 22 21  1  0  0  0  0
 23 21  2  0  0  0  0
 24 29  1  0  0  0  0
 25 26  1  0  0  0  0
 26 20  1  6  0  0  0
 26 24  1  0  0  0  0
 27 23  1  0  0  0  0
 27 25  2  0  0  0  0
 28 25  1  0  0  0  0
 28 18  1  0  0  0  0
 30 31  1  0  0  0  0
 32 36  1  0  0  0  0
 36 33  1  0  0  0  0
 36 35  2  0  0  0  0
 36 34  2  0  0  0  0
M  END
>  <MODEL>
3

>  <REMARK>
 VINA RESULT:      -7.6      3.309      7.651
  Name = 
  7 active torsions:
  status: ('A' for Active; 'I' for Inactive)
    1  A    between atoms: C_1  and  C_13
    2  A    between atoms: O_3  and  C_5
    3  A    between atoms: C_13  and  C_33
    4  A    between atoms: C_16  and  C_31
    5  A    between atoms: C_20  and  C_22
    6  A    between atoms: N_21  and  C_25
    7  A    between atoms: N_21  and  S_35
                            x       y       z     vdW  Elec       q    Type
                         _______ _______ _______ _____ _____    ______ ____

>  <TORSDO>
F 7

$$$$
=
 OpenBabel10222419593D

 36 39  0  0  1  0  0  0  0  0999 V2000
  188.0400  178.0120  139.5480 C   0  0  0  0  0  0  0  0  0  0  0  0
  189.9990  176.9410  138.5770 C   0  0  0  0  0  0  0  0  0  0  0  0
  188.6760  178.0520  140.7870 C   0  0  0  0  0  3  0  0  0  0  0  0
  189.9660  177.5470  140.9410 C   0  0  0  0  0  0  0  0  0  0  0  0
  190.6230  176.9960  139.8340 C   0  0  0  0  0  3  0  0  0  0  0  0
  186.7640  178.5560  139.4250 O   0  0  0  0  0  1  0  0  0  0  0  0
  188.6860  177.4540  138.4330 C   0  0  0  0  0  0  0  0  0  0  0  0
  192.0060  176.3880  137.2980 C   0  0  0  0  0  0  0  0  0  0  0  0
  190.7060  176.3650  137.4200 C   0  0  0  0  0  3  0  0  0  0  0  0
  193.3050  176.3990  137.2080 C   0  0  0  0  0  3  0  0  0  0  0  0
  195.8690  174.1670  138.9590 C   0  0  0  0  0  2  0  0  0  0  0  0
  194.9210  175.2080  138.6970 O   0  0  0  0  0  0  0  0  0  0  0  0
  194.7070  172.9280  137.1980 N   0  0  0  0  0  0  0  0  0  0  0  0
  194.0930  175.2080  137.5580 C   0  0  1  0  0  3  0  0  0  0  0  0
  195.2880  172.8180  138.5390 C   0  0  0  0  0  2  0  0  0  0  0  0
  194.0020  174.1130  136.8030 C   0  0  0  0  0  3  0  0  0  0  0  0
  187.9430  177.4020  137.1190 C   0  0  0  0  0  2  0  0  0  0  0  0
  186.8930  176.3280  137.0980 C   0  0  0  0  0  0  0  0  0  0  0  0
  188.4500  174.3630  136.6760 C   0  0  0  0  0  1  0  0  0  0  0  0
  183.8940  175.0230  136.1750 N   0  0  0  0  0  0  0  0  0  0  0  0
  183.3300  172.7110  136.8590 C   0  0  0  0  0  0  0  0  0  0  0  0
  183.2090  173.9310  136.0080 C   0  0  0  0  0  3  0  0  0  0  0  0
  184.4970  172.2720  137.3570 C   0  0  0  0  0  3  0  0  0  0  0  0
  185.5740  176.5300  137.1100 C   0  0  0  0  0  0  0  0  0  0  0  0
  185.9450  174.2720  137.2110 C   0  0  0  0  0  0  0  0  0  0  0  0
  184.8130  175.2440  137.2870 C   0  0  2  0  0  3  0  0  0  0  0  0
  185.8060  172.9510  137.2790 C   0  0  0  0  0  3  0  0  0  0  0  0
  187.2000  174.9440  137.1400 N   0  0  0  0  0  0  0  0  0  0  0  0
  184.9670  177.8210  137.0470 N   0  0  0  0  0  1  0  0  0  0  0  0
  182.2050  171.9290  137.1120 O   0  0  0  0  0  0  0  0  0  0  0  0
  180.8970  172.3140  136.7120 C   0  0  0  0  0  1  0  0  0  0  0  0
  190.5990  177.6410  142.2190 N   0  0  0  0  0  2  0  0  0  0  0  0
  188.9540  176.8070  144.3640 N   0  0  0  0  0  1  0  0  0  0  0  0
  190.2940  175.0810  142.8730 O   0  0  0  0  0  0  0  0  0  0  0  0
  191.5760  176.5180  144.4240 O   0  0  0  0  0  0  0  0  0  0  0  0
  190.4010  176.4560  143.4790 S   0  0  0  0  0  0  0  0  0  0  0  0
  1  3  1  0  0  0  0
  2  5  2  0  0  0  0
  3  4  2  0  0  0  0
  4 32  1  0  0  0  0
  5  4  1  0  0  0  0
  6  1  1  0  0  0  0
  7  2  1  0  0  0  0
  7  1  2  0  0  0  0
  8  9  2  0  0  0  0
  9  2  1  0  0  0  0
 10  8  2  0  0  0  0
 12 11  1  0  0  0  0
 13 15  1  0  0  0  0
 14 10  1  1  0  0  0
 14 12  1  0  0  0  0
 15 11  1  0  0  0  0
 16 13  2  0  0  0  0
 16 14  1  0  0  0  0
 17  7  1  0  0  0  0
 18 24  2  0  0  0  0
 18 17  1  0  0  0  0
 18 28  1  0  0  0  0
 19 28  1  0  0  0  0
 21 30  1  0  0  0  0
 21 23  2  0  0  0  0
 22 20  2  0  0  0  0
 22 21  1  0  0  0  0
 24 26  1  0  0  0  0
 25 27  2  0  0  0  0
 25 26  1  0  0  0  0
 26 20  1  6  0  0  0
 27 23  1  0  0  0  0
 28 25  1  0  0  0  0
 29 24  1  0  0  0  0
 31 30  1  0  0  0  0
 32 36  1  0  0  0  0
 34 36  2  0  0  0  0
 36 33  1  0  0  0  0
 36 35  2  0  0  0  0
M  END
>  <MODEL>
4

>  <REMARK>
 VINA RESULT:      -7.5      3.680      9.181
  Name = 
  7 active torsions:
  status: ('A' for Active; 'I' for Inactive)
    1  A    between atoms: C_1  and  C_13
    2  A    between atoms: O_3  and  C_5
    3  A    between atoms: C_13  and  C_33
    4  A    between atoms: C_16  and  C_31
    5  A    between atoms: C_20  and  C_22
    6  A    between atoms: N_21  and  C_25
    7  A    between atoms: N_21  and  S_35
                            x       y       z     vdW  Elec       q    Type
                         _______ _______ _______ _____ _____    ______ ____

>  <TORSDO>
F 7

$$$$
=
 OpenBabel10222419593D

 36 39  0  0  1  0  0  0  0  0999 V2000
  190.0390  177.3440  139.1730 C   0  0  0  0  0  0  0  0  0  0  0  0
  188.4780  178.2150  140.8250 C   0  0  0  0  0  0  0  0  0  0  0  0
  190.8130  176.7950  140.1940 C   0  0  0  0  0  3  0  0  0  0  0  0
  190.4380  176.9430  141.5280 C   0  0  0  0  0  0  0  0  0  0  0  0
  189.2700  177.6510  141.8380 C   0  0  0  0  0  3  0  0  0  0  0  0
  190.4280  177.1470  137.8510 O   0  0  0  0  0  1  0  0  0  0  0  0
  188.8710  178.0630  139.4720 C   0  0  0  0  0  0  0  0  0  0  0  0
  186.2630  178.4160  141.8390 C   0  0  0  0  0  0  0  0  0  0  0  0
  187.2470  178.9510  141.1660 C   0  0  0  0  0  3  0  0  0  0  0  0
  185.3050  177.8730  142.5310 C   0  0  0  0  0  3  0  0  0  0  0  0
  186.0940  177.8650  146.2720 C   0  0  0  0  0  2  0  0  0  0  0  0
  186.2410  177.8400  144.8480 O   0  0  0  0  0  0  0  0  0  0  0  0
  183.9710  179.0030  145.8410 N   0  0  0  0  0  2  0  0  0  0  0  0
  185.1780  178.1330  143.9730 C   0  0  0  0  0  0  0  0  0  0  0  0
  185.1730  179.0140  146.6790 C   0  0  0  0  0  2  0  0  0  0  0  0
  184.0550  178.6730  144.4480 C   0  0  0  0  0  3  0  0  0  0  0  0
  188.0840  178.6670  138.3350 C   0  0  0  0  0  2  0  0  0  0  0  0
  186.9160  177.8110  137.9300 C   0  0  0  0  0  0  0  0  0  0  0  0
  188.2130  176.1510  136.5050 C   0  0  0  0  0  1  0  0  0  0  0  0
  183.7440  177.3230  136.8150 N   0  0  0  0  0  0  0  0  0  0  0  0
  182.9530  175.0100  136.4210 C   0  0  0  0  0  0  0  0  0  0  0  0
  182.9290  176.4910  136.2370 C   0  0  0  0  0  3  0  0  0  0  0  0
  184.0860  174.3000  136.5450 C   0  0  0  0  0  3  0  0  0  0  0  0
  185.6320  178.0870  138.1630 C   0  0  0  0  0  0  0  0  0  0  0  0
  185.7450  176.0180  137.1850 C   0  0  0  0  0  0  0  0  0  0  0  0
  184.7380  176.9300  137.8080 C   0  0  2  0  0  3  0  0  0  0  0  0
  185.4580  174.8330  136.6550 C   0  0  0  0  0  3  0  0  0  0  0  0
  187.0640  176.5470  137.3050 N   0  0  0  0  0  0  0  0  0  0  0  0
  185.1760  179.3030  138.7570 N   0  0  0  0  0  1  0  0  0  0  0  0
  181.7600  174.2910  136.3980 O   0  0  0  0  0  0  0  0  0  0  0  0
  180.9680  174.0800  137.5590 C   0  0  0  0  0  1  0  0  0  0  0  0
  191.2380  176.3340  142.5450 N   0  0  0  0  0  2  0  0  0  0  0  0
  191.7940  178.4160  144.3760 N   0  0  0  0  0  1  0  0  0  0  0  0
  189.7630  176.7580  144.7170 O   0  0  0  0  0  0  0  0  0  0  0  0
  192.0500  175.8750  145.0370 O   0  0  0  0  0  0  0  0  0  0  0  0
  191.1840  176.8040  144.2210 S   0  0  0  0  0  0  0  0  0  0  0  0
  1  7  2  0  0  0  0
  1  3  1  0  0  0  0
  2  9  1  0  0  0  0
  2  5  2  0  0  0  0
  3  4  2  0  0  0  0
  4  5  1  0  0  0  0
  4 32  1  0  0  0  0
  6  1  1  0  0  0  0
  7  2  1  0  0  0  0
  8 10  2  0  0  0  0
  9  8  2  0  0  0  0
 10 14  1  0  0  0  0
 11 15  1  0  0  0  0
 12 11  1  0  0  0  0
 13 15  1  0  0  0  0
 14 16  2  0  0  0  0
 14 12  1  0  0  0  0
 16 13  1  0  0  0  0
 17  7  1  0  0  0  0
 18 24  2  0  0  0  0
 18 17  1  0  0  0  0
 19 28  1  0  0  0  0
 21 23  2  0  0  0  0
 22 21  1  0  0  0  0
 22 20  2  0  0  0  0
 23 27  1  0  0  0  0
 24 29  1  0  0  0  0
 25 28  1  0  0  0  0
 25 26  1  0  0  0  0
 26 20  1  6  0  0  0
 26 24  1  0  0  0  0
 27 25  2  0  0  0  0
 28 18  1  0  0  0  0
 30 21  1  0  0  0  0
 30 31  1  0  0  0  0
 32 36  1  0  0  0  0
 36 33  1  0  0  0  0
 36 34  2  0  0  0  0
 36 35  2  0  0  0  0
M  END
>  <MODEL>
5

>  <REMARK>
 VINA RESULT:      -7.3      3.184      7.637
  Name = 
  7 active torsions:
  status: ('A' for Active; 'I' for Inactive)
    1  A    between atoms: C_1  and  C_13
    2  A    between atoms: O_3  and  C_5
    3  A    between atoms: C_13  and  C_33
    4  A    between atoms: C_16  and  C_31
    5  A    between atoms: C_20  and  C_22
    6  A    between atoms: N_21  and  C_25
    7  A    between atoms: N_21  and  S_35
                            x       y       z     vdW  Elec       q    Type
                         _______ _______ _______ _____ _____    ______ ____

>  <TORSDO>
F 7

$$$$
=
 OpenBabel10222419593D

 36 39  0  0  1  0  0  0  0  0999 V2000
  188.2770  177.1020  136.7700 C   0  0  0  0  0  0  0  0  0  0  0  0
  188.5270  177.5860  139.1420 C   0  0  0  0  0  0  0  0  0  0  0  0
  189.3510  176.2170  136.8370 C   0  0  0  0  0  3  0  0  0  0  0  0
  190.0220  176.0030  138.0400 C   0  0  0  0  0  0  0  0  0  0  0  0
  189.6050  176.6870  139.1880 C   0  0  0  0  0  3  0  0  0  0  0  0
  187.6120  177.2640  135.5580 O   0  0  0  0  0  1  0  0  0  0  0  0
  187.8560  177.8000  137.9130 C   0  0  0  0  0  0  0  0  0  0  0  0
  188.0470  177.7220  141.5340 C   0  0  0  0  0  0  0  0  0  0  0  0
  188.0960  178.2930  140.3610 C   0  0  0  0  0  3  0  0  0  0  0  0
  188.0290  177.1410  142.6990 C   0  0  0  0  0  3  0  0  0  0  0  0
  189.8830  177.4780  146.0250 C   0  0  0  0  0  2  0  0  0  0  0  0
  188.9300  177.0910  145.0290 O   0  0  0  0  0  0  0  0  0  0  0  0
  191.4040  177.8580  144.1470 N   0  0  0  0  0  2  0  0  0  0  0  0
  189.1240  177.3440  143.6580 C   0  0  0  0  0  0  0  0  0  0  0  0
  191.3010  177.2830  145.4910 C   0  0  0  0  0  2  0  0  0  0  0  0
  190.3170  177.7460  143.2190 C   0  0  0  0  0  3  0  0  0  0  0  0
  186.7090  178.7730  137.7830 C   0  0  0  0  0  2  0  0  0  0  0  0
  185.4080  178.1890  138.2560 C   0  0  0  0  0  0  0  0  0  0  0  0
  184.8490  176.8910  136.1420 C   0  0  0  0  0  1  0  0  0  0  0  0
  182.3700  178.3560  139.7680 N   0  0  0  0  0  0  0  0  0  0  0  0
  180.9270  176.3430  139.7870 C   0  0  0  0  0  0  0  0  0  0  0  0
  181.1940  177.8090  139.8710 C   0  0  0  0  0  3  0  0  0  0  0  0
  181.5800  175.5200  138.9510 C   0  0  0  0  0  3  0  0  0  0  0  0
  184.7770  178.5100  139.3870 C   0  0  0  0  0  0  0  0  0  0  0  0
  183.6120  176.8100  138.3860 C   0  0  0  0  0  0  0  0  0  0  0  0
  183.6120  177.5970  139.6560 C   0  0  2  0  0  3  0  0  0  0  0  0
  182.7290  175.8610  138.0900 C   0  0  0  0  0  3  0  0  0  0  0  0
  184.7300  177.1500  137.5690 N   0  0  0  0  0  0  0  0  0  0  0  0
  185.2120  179.5420  140.2740 N   0  0  0  0  0  1  0  0  0  0  0  0
  179.9070  175.7810  140.5540 O   0  0  0  0  0  0  0  0  0  0  0  0
  179.5750  174.4010  140.4960 C   0  0  0  0  0  1  0  0  0  0  0  0
  191.0950  175.0590  138.0770 N   0  0  0  0  0  2  0  0  0  0  0  0
  193.3410  176.7000  138.5890 N   0  0  0  0  0  1  0  0  0  0  0  0
  193.5930  174.2120  137.7300 O   0  0  0  0  0  0  0  0  0  0  0  0
  192.7240  175.9040  136.1510 O   0  0  0  0  0  0  0  0  0  0  0  0
  192.7230  175.4330  137.5840 S   0  0  0  0  0  0  0  0  0  0  0  0
  1  3  2  0  0  0  0
  1  7  1  0  0  0  0
  2  5  1  0  0  0  0
  2  9  1  0  0  0  0
  3  4  1  0  0  0  0
  4 32  1  0  0  0  0
  4  5  2  0  0  0  0
  6  1  1  0  0  0  0
  7  2  2  0  0  0  0
  8 10  2  0  0  0  0
  9  8  2  0  0  0  0
 10 14  1  0  0  0  0
 12 11  1  0  0  0  0
 13 15  1  0  0  0  0
 14 12  1  0  0  0  0
 15 11  1  0  0  0  0
 16 14  2  0  0  0  0
 16 13  1  0  0  0  0
 17  7  1  0  0  0  0
 17 18  1  0  0  0  0
 18 24  2  0  0  0  0
 19 28  1  0  0  0  0
 20 22  2  0  0  0  0
 21 22  1  0  0  0  0
 21 30  1  0  0  0  0
 23 21  2  0  0  0  0
 24 26  1  0  0  0  0
 24 29  1  0  0  0  0
 26 25  1  6  0  0  0
 26 20  1  0  0  0  0
 27 25  2  0  0  0  0
 27 23  1  0  0  0  0
 28 18  1  0  0  0  0
 28 25  1  0  0  0  0
 31 30  1  0  0  0  0
 35 36  2  0  0  0  0
 36 34  2  0  0  0  0
 36 32  1  0  0  0  0
 36 33  1  0  0  0  0
M  END
>  <MODEL>
6

>  <REMARK>
 VINA RESULT:      -7.3      2.763      7.533
  Name = 
  7 active torsions:
  status: ('A' for Active; 'I' for Inactive)
    1  A    between atoms: C_1  and  C_13
    2  A    between atoms: O_3  and  C_5
    3  A    between atoms: C_13  and  C_33
    4  A    between atoms: C_16  and  C_31
    5  A    between atoms: C_20  and  C_22
    6  A    between atoms: N_21  and  C_25
    7  A    between atoms: N_21  and  S_35
                            x       y       z     vdW  Elec       q    Type
                         _______ _______ _______ _____ _____    ______ ____

>  <TORSDO>
F 7

$$$$
=
 OpenBabel10222419593D

 36 39  0  0  1  0  0  0  0  0999 V2000
  185.5930  178.4350  143.1680 C   0  0  0  0  0  0  0  0  0  0  0  0
  187.3340  178.3040  141.4720 C   0  0  0  0  0  0  0  0  0  0  0  0
  186.4270  177.7830  144.0740 C   0  0  0  0  0  3  0  0  0  0  0  0
  187.7100  177.3870  143.7020 C   0  0  0  0  0  0  0  0  0  0  0  0
  188.1590  177.6520  142.4030 C   0  0  0  0  0  3  0  0  0  0  0  0
  184.3300  178.8450  143.5870 O   0  0  0  0  0  1  0  0  0  0  0  0
  186.0300  178.6980  141.8600 C   0  0  0  0  0  0  0  0  0  0  0  0
  188.8910  178.0200  139.6100 C   0  0  0  0  0  0  0  0  0  0  0  0
  187.8240  178.5830  140.1100 C   0  0  0  0  0  3  0  0  0  0  0  0
  189.9440  177.4300  139.1210 C   0  0  0  0  0  3  0  0  0  0  0  0
  190.8120  174.2290  137.2200 C   0  0  0  0  0  2  0  0  0  0  0  0
  190.7780  175.2540  138.2200 O   0  0  0  0  0  0  0  0  0  0  0  0
  188.5800  175.0180  136.6060 N   0  0  0  0  0  0  0  0  0  0  0  0
  189.8090  176.2760  138.2210 C   0  0  1  0  0  3  0  0  0  0  0  0
  189.3890  173.8200  136.8440 C   0  0  0  0  0  2  0  0  0  0  0  0
  188.7480  176.1880  137.4180 C   0  0  0  0  0  3  0  0  0  0  0  0
  185.0790  179.3770  140.9040 C   0  0  0  0  0  2  0  0  0  0  0  0
  184.1600  178.4030  140.2230 C   0  0  0  0  0  0  0  0  0  0  0  0
  185.5150  178.1230  138.0890 C   0  0  0  0  0  1  0  0  0  0  0  0
  181.1100  177.2750  139.2380 N   0  0  0  0  0  0  0  0  0  0  0  0
  180.9790  175.2350  137.8390 C   0  0  0  0  0  0  0  0  0  0  0  0
  180.4690  176.5250  138.3900 C   0  0  0  0  0  3  0  0  0  0  0  0
  182.2680  175.0240  137.5270 C   0  0  0  0  0  3  0  0  0  0  0  0
  182.9470  178.0480  140.6500 C   0  0  0  0  0  0  0  0  0  0  0  0
  183.4380  176.7970  138.7940 C   0  0  0  0  0  0  0  0  0  0  0  0
  182.3840  176.9060  139.8470 C   0  0  2  0  0  3  0  0  0  0  0  0
  183.4020  175.9340  137.7820 C   0  0  0  0  0  3  0  0  0  0  0  0
  184.5260  177.6790  139.0590 N   0  0  0  0  0  0  0  0  0  0  0  0
  182.3040  178.6280  141.7840 N   0  0  0  0  0  1  0  0  0  0  0  0
  180.0870  174.2020  137.5590 O   0  0  0  0  0  0  0  0  0  0  0  0
  180.4780  172.8360  137.5310 C   0  0  0  0  0  1  0  0  0  0  0  0
  188.5490  176.7540  144.6720 N   0  0  0  0  0  2  0  0  0  0  0  0
  191.2730  176.3670  144.0160 N   0  0  0  0  0  1  0  0  0  0  0  0
  190.3240  178.7340  144.7140 O   0  0  0  0  0  0  0  0  0  0  0  0
  190.5040  176.9930  146.4600 O   0  0  0  0  0  0  0  0  0  0  0  0
  190.1780  177.2650  145.0120 S   0  0  0  0  0  0  0  0  0  0  0  0
  1  6  1  0  0  0  0
  1  3  1  0  0  0  0
  2  7  1  0  0  0  0
  2  5  2  0  0  0  0
  4  3  2  0  0  0  0
  4 32  1  0  0  0  0
  5  4  1  0  0  0  0
  7  1  2  0  0  0  0
  8  9  2  0  0  0  0
  9  2  1  0  0  0  0
 10  8  2  0  0  0  0
 11 12  1  0  0  0  0
 12 14  1  0  0  0  0
 13 15  1  0  0  0  0
 13 16  2  0  0  0  0
 14 10  1  1  0  0  0
 15 11  1  0  0  0  0
 16 14  1  0  0  0  0
 17  7  1  0  0  0  0
 18 24  2  0  0  0  0
 18 17  1  0  0  0  0
 19 28  1  0  0  0  0
 20 26  1  0  0  0  0
 21 22  1  0  0  0  0
 22 20  2  0  0  0  0
 23 27  1  0  0  0  0
 23 21  2  0  0  0  0
 24 29  1  0  0  0  0
 25 28  1  0  0  0  0
 26 25  1  6  0  0  0
 26 24  1  0  0  0  0
 27 25  2  0  0  0  0
 28 18  1  0  0  0  0
 30 21  1  0  0  0  0
 31 30  1  0  0  0  0
 32 36  1  0  0  0  0
 33 36  1  0  0  0  0
 34 36  2  0  0  0  0
 36 35  2  0  0  0  0
M  END
>  <MODEL>
7

>  <REMARK>
 VINA RESULT:      -7.2      3.049      8.827
  Name = 
  7 active torsions:
  status: ('A' for Active; 'I' for Inactive)
    1  A    between atoms: C_1  and  C_13
    2  A    between atoms: O_3  and  C_5
    3  A    between atoms: C_13  and  C_33
    4  A    between atoms: C_16  and  C_31
    5  A    between atoms: C_20  and  C_22
    6  A    between atoms: N_21  and  C_25
    7  A    between atoms: N_21  and  S_35
                            x       y       z     vdW  Elec       q    Type
                         _______ _______ _______ _____ _____    ______ ____

>  <TORSDO>
F 7

$$$$
=
 OpenBabel10222419593D

 36 39  0  0  1  0  0  0  0  0999 V2000
  187.3130  178.0200  136.9210 C   0  0  0  0  0  0  0  0  0  0  0  0
  188.6800  176.0530  137.3560 C   0  0  0  0  0  0  0  0  0  0  0  0
  186.4160  177.2360  136.1980 C   0  0  0  0  0  3  0  0  0  0  0  0
  186.6300  175.8670  136.0440 C   0  0  0  0  0  0  0  0  0  0  0  0
  187.7600  175.2810  136.6270 C   0  0  0  0  0  3  0  0  0  0  0  0
  187.0480  179.3770  137.0800 O   0  0  0  0  0  1  0  0  0  0  0  0
  188.4550  177.4440  137.5010 C   0  0  0  0  0  0  0  0  0  0  0  0
  190.7760  174.7970  137.2740 C   0  0  0  0  0  0  0  0  0  0  0  0
  189.8610  175.4200  137.9690 C   0  0  0  0  0  3  0  0  0  0  0  0
  191.6870  174.2030  136.5600 C   0  0  0  0  0  3  0  0  0  0  0  0
  195.1020  174.8850  134.9810 C   0  0  0  0  0  2  0  0  0  0  0  0
  193.7770  174.3890  135.2020 O   0  0  0  0  0  0  0  0  0  0  0  0
  194.4580  176.7180  136.4680 N   0  0  0  0  0  2  0  0  0  0  0  0
  192.9420  174.8890  136.2200 C   0  0  0  0  0  0  0  0  0  0  0  0
  195.1370  176.3950  135.2110 C   0  0  0  0  0  2  0  0  0  0  0  0
  193.2770  176.0070  136.8640 C   0  0  0  0  0  3  0  0  0  0  0  0
  189.4160  178.3390  138.2460 C   0  0  0  0  0  2  0  0  0  0  0  0
  189.3550  178.1310  139.7330 C   0  0  0  0  0  0  0  0  0  0  0  0
  191.6760  177.1290  140.0120 C   0  0  0  0  0  1  0  0  0  0  0  0
  187.8400  177.1330  142.6060 N   0  0  0  0  0  0  0  0  0  0  0  0
  189.0980  177.2690  144.7350 C   0  0  0  0  0  0  0  0  0  0  0  0
  188.0240  176.7530  143.8360 C   0  0  0  0  0  3  0  0  0  0  0  0
  190.3390  177.5580  144.3120 C   0  0  0  0  0  3  0  0  0  0  0  0
  188.2720  178.2860  140.4970 C   0  0  0  0  0  0  0  0  0  0  0  0
  190.0420  177.8040  141.8690 C   0  0  0  0  0  0  0  0  0  0  0  0
  188.6040  178.1970  141.9620 C   0  0  2  0  0  3  0  0  0  0  0  0
  190.8230  177.5550  142.9170 C   0  0  0  0  0  3  0  0  0  0  0  0
  190.4930  177.8100  140.5160 N   0  0  0  0  0  0  0  0  0  0  0  0
  186.9740  178.5860  139.9830 N   0  0  0  0  0  1  0  0  0  0  0  0
  188.8530  177.4020  146.1010 O   0  0  0  0  0  0  0  0  0  0  0  0
  187.5770  177.7470  146.6220 C   0  0  0  0  0  1  0  0  0  0  0  0
  185.6670  175.0910  135.3280 N   0  0  0  0  0  2  0  0  0  0  0  0
  185.0470  172.4870  136.2410 N   0  0  0  0  0  1  0  0  0  0  0  0
  184.1640  174.6510  137.4780 O   0  0  0  0  0  0  0  0  0  0  0  0
  183.1990  174.0990  135.2700 O   0  0  0  0  0  0  0  0  0  0  0  0
  184.4570  174.1080  136.1040 S   0  0  0  0  0  0  0  0  0  0  0  0
  1  6  1  0  0  0  0
  1  7  1  0  0  0  0
  2  7  2  0  0  0  0
  2  9  1  0  0  0  0
  3  1  2  0  0  0  0
  4  3  1  0  0  0  0
  4  5  2  0  0  0  0
  5  2  1  0  0  0  0
  7 17  1  0  0  0  0
  8  9  2  0  0  0  0
 10  8  2  0  0  0  0
 11 12  1  0  0  0  0
 11 15  1  0  0  0  0
 12 14  1  0  0  0  0
 13 16  1  0  0  0  0
 14 10  1  0  0  0  0
 14 16  2  0  0  0  0
 15 13  1  0  0  0  0
 17 18  1  0  0  0  0
 18 24  2  0  0  0  0
 18 28  1  0  0  0  0
 19 28  1  0  0  0  0
 20 22  2  0  0  0  0
 21 30  1  0  0  0  0
 22 21  1  0  0  0  0
 23 21  2  0  0  0  0
 25 26  1  0  0  0  0
 25 27  2  0  0  0  0
 26 24  1  6  0  0  0
 26 20  1  0  0  0  0
 27 23  1  0  0  0  0
 28 25  1  0  0  0  0
 29 24  1  0  0  0  0
 30 31  1  0  0  0  0
 32  4  1  0  0  0  0
 32 36  1  0  0  0  0
 35 36  2  0  0  0  0
 36 33  1  0  0  0  0
 36 34  2  0  0  0  0
M  END
>  <MODEL>
8

>  <REMARK>
 VINA RESULT:      -6.9      2.625      6.022
  Name = 
  7 active torsions:
  status: ('A' for Active; 'I' for Inactive)
    1  A    between atoms: C_1  and  C_13
    2  A    between atoms: O_3  and  C_5
    3  A    between atoms: C_13  and  C_33
    4  A    between atoms: C_16  and  C_31
    5  A    between atoms: C_20  and  C_22
    6  A    between atoms: N_21  and  C_25
    7  A    between atoms: N_21  and  S_35
                            x       y       z     vdW  Elec       q    Type
                         _______ _______ _______ _____ _____    ______ ____

>  <TORSDO>
F 7

$$$$
=
 OpenBabel10222419593D

 36 39  0  0  1  0  0  0  0  0999 V2000
  186.8020  177.8380  143.2330 C   0  0  0  0  0  0  0  0  0  0  0  0
  187.9250  178.0440  141.0830 C   0  0  0  0  0  0  0  0  0  0  0  0
  187.7620  176.9170  143.6460 C   0  0  0  0  0  3  0  0  0  0  0  0
  188.8060  176.5500  142.7990 C   0  0  0  0  0  0  0  0  0  0  0  0
  188.8840  177.1170  141.5220 C   0  0  0  0  0  3  0  0  0  0  0  0
  185.7920  178.2050  144.1190 O   0  0  0  0  0  1  0  0  0  0  0  0
  186.8650  178.4070  141.9510 C   0  0  0  0  0  0  0  0  0  0  0  0
  188.8830  178.2300  138.8420 C   0  0  0  0  0  0  0  0  0  0  0  0
  188.0250  178.6390  139.7380 C   0  0  0  0  0  3  0  0  0  0  0  0
  189.7290  177.7920  137.9560 C   0  0  0  0  0  3  0  0  0  0  0  0
  187.4930  175.4820  135.8850 C   0  0  0  0  0  2  0  0  0  0  0  0
  187.9370  176.5320  136.7520 O   0  0  0  0  0  0  0  0  0  0  0  0
  189.7560  175.5510  134.9580 N   0  0  0  0  0  0  0  0  0  0  0  0
  189.2960  176.8720  136.8930 C   0  0  1  0  0  3  0  0  0  0  0  0
  188.3350  175.4690  134.6110 C   0  0  0  0  0  2  0  0  0  0  0  0
  190.1970  176.3780  136.0430 C   0  0  0  0  0  3  0  0  0  0  0  0
  185.7830  179.3740  141.5360 C   0  0  0  0  0  2  0  0  0  0  0  0
  184.5360  178.6740  141.0750 C   0  0  0  0  0  0  0  0  0  0  0  0
  185.1810  178.4470  138.6260 C   0  0  0  0  0  1  0  0  0  0  0  0
  181.1690  178.2370  140.9300 N   0  0  0  0  0  0  0  0  0  0  0  0
  180.2530  176.4550  139.4750 C   0  0  0  0  0  0  0  0  0  0  0  0
  180.1850  177.7300  140.2480 C   0  0  0  0  0  3  0  0  0  0  0  0
  181.3380  176.0650  138.7890 C   0  0  0  0  0  3  0  0  0  0  0  0
  183.4360  178.4840  141.8060 C   0  0  0  0  0  0  0  0  0  0  0  0
  183.1430  177.4220  139.7970 C   0  0  0  0  0  0  0  0  0  0  0  0
  182.4570  177.5740  141.1150 C   0  0  2  0  0  3  0  0  0  0  0  0
  182.6610  176.7210  138.7750 C   0  0  0  0  0  3  0  0  0  0  0  0
  184.4190  178.0580  139.8030 N   0  0  0  0  0  0  0  0  0  0  0  0
  183.2540  179.0130  143.1200 N   0  0  0  0  0  1  0  0  0  0  0  0
  179.1260  175.6390  139.3860 O   0  0  0  0  0  0  0  0  0  0  0  0
  179.2080  174.2370  139.1750 C   0  0  0  0  0  1  0  0  0  0  0  0
  189.7940  175.6300  143.2730 N   0  0  0  0  0  2  0  0  0  0  0  0
  190.9950  177.0240  145.4210 N   0  0  0  0  0  1  0  0  0  0  0  0
  192.1340  174.9110  144.3120 O   0  0  0  0  0  0  0  0  0  0  0  0
  192.0540  177.0080  143.0050 O   0  0  0  0  0  0  0  0  0  0  0  0
  191.3080  176.1250  143.9750 S   0  0  0  0  0  0  0  0  0  0  0  0
  1  3  1  0  0  0  0
  1  6  1  0  0  0  0
  2  5  2  0  0  0  0
  2  7  1  0  0  0  0
  4 32  1  0  0  0  0
  4  3  2  0  0  0  0
  5  4  1  0  0  0  0
  7  1  2  0  0  0  0
  8  9  2  0  0  0  0
  9  2  1  0  0  0  0
 10  8  2  0  0  0  0
 11 12  1  0  0  0  0
 12 14  1  0  0  0  0
 13 16  2  0  0  0  0
 14 10  1  6  0  0  0
 15 13  1  0  0  0  0
 15 11  1  0  0  0  0
 16 14  1  0  0  0  0
 17  7  1  0  0  0  0
 18 17  1  0  0  0  0
 18 24  2  0  0  0  0
 19 28  1  0  0  0  0
 20 26  1  0  0  0  0
 21 22  1  0  0  0  0
 22 20  2  0  0  0  0
 23 21  2  0  0  0  0
 24 29  1  0  0  0  0
 25 28  1  0  0  0  0
 26 25  1  6  0  0  0
 26 24  1  0  0  0  0
 27 23  1  0  0  0  0
 27 25  2  0  0  0  0
 28 18  1  0  0  0  0
 30 21  1  0  0  0  0
 31 30  1  0  0  0  0
 32 36  1  0  0  0  0
 35 36  2  0  0  0  0
 36 34  2  0  0  0  0
 36 33  1  0  0  0  0
M  END
>  <MODEL>
9

>  <REMARK>
 VINA RESULT:      -6.9      3.135      8.422
  Name = 
  7 active torsions:
  status: ('A' for Active; 'I' for Inactive)
    1  A    between atoms: C_1  and  C_13
    2  A    between atoms: O_3  and  C_5
    3  A    between atoms: C_13  and  C_33
    4  A    between atoms: C_16  and  C_31
    5  A    between atoms: C_20  and  C_22
    6  A    between atoms: N_21  and  C_25
    7  A    between atoms: N_21  and  S_35
                            x       y       z     vdW  Elec       q    Type
                         _______ _______ _______ _____ _____    ______ ____

>  <TORSDO>
F 7

$$$$
