=
 OpenBabel10222418233D

 58 64  0  0  1  0  0  0  0  0999 V2000
  183.3280  178.1050  138.0560 C   0  0  0  0  0  1  0  0  0  0  0  0
  179.9640  176.6360  140.5630 C   0  0  0  0  0  2  0  0  0  0  0  0
  181.3760  176.8970  138.5310 C   0  0  2  0  0  3  0  0  0  0  0  0
  180.5390  177.4140  139.6410 C   0  0  0  0  0  0  0  0  0  0  0  0
  180.4540  180.0040  137.4150 C   0  0  0  0  0  1  0  0  0  0  0  0
  180.4800  178.8900  139.6470 C   0  0  2  0  0  3  0  0  0  0  0  0
  181.8960  178.0650  137.8160 N   0  0  0  0  0  0  0  0  0  0  0  0
  181.3210  179.2740  138.4290 C   0  0  1  0  0  3  0  0  0  0  0  0
  180.1740  179.2330  142.0960 N   0  0  0  0  0  0  0  0  0  0  0  0
  182.4770  179.0140  141.1640 C   0  0  0  0  0  3  0  0  0  0  0  0
  182.0080  178.7100  143.4880 N   0  0  0  0  0  2  0  0  0  0  0  0
  180.6100  178.9130  143.2730 C   0  0  0  0  0  0  0  0  0  0  0  0
  181.0580  179.4750  140.9450 C   0  0  1  0  0  3  0  0  0  0  0  0
  182.9260  178.7140  142.3890 C   0  0  0  0  0  0  0  0  0  0  0  0
  179.6510  178.7350  144.3980 C   0  0  0  0  0  1  0  0  0  0  0  0
  184.3330  178.3360  142.6100 C   0  0  0  0  0  0  0  0  0  0  0  0
  185.3040  178.2890  141.4660 C   0  0  0  0  0  1  0  0  0  0  0  0
  184.7340  178.0760  143.8170 N   0  0  0  0  0  0  0  0  0  0  0  0
  186.0320  177.7220  144.1070 O   0  0  0  0  0  0  0  0  0  0  0  0
  188.3370  176.5220  147.6290 C   0  0  0  0  0  1  0  0  0  0  0  0
  186.4770  177.7360  145.4530 C   0  0  1  0  0  3  0  0  0  0  0  0
  188.4550  177.8890  146.9660 C   0  0  1  0  0  3  0  0  0  0  0  0
  187.9440  177.8440  145.5890 N   0  0  0  0  0  0  0  0  0  0  0  0
  185.8170  178.8930  146.1840 C   0  0  0  0  0  2  0  0  0  0  0  0
  187.7440  178.9760  147.7770 C   0  0  0  0  0  2  0  0  0  0  0  0
  186.2260  178.8710  147.6510 C   0  0  0  0  0  2  0  0  0  0  0  0
  189.5710  176.9890  142.2920 C   0  0  0  0  0  3  0  0  0  0  0  0
  188.6310  177.0540  143.3260 C   0  0  0  0  0  3  0  0  0  0  0  0
  191.9880  177.5470  141.1460 Cl  0  0  0  0  0  0  0  0  0  0  0  0
  188.8990  177.7700  144.5030 C   0  0  0  0  0  0  0  0  0  0  0  0
  190.1410  178.4210  144.6150 C   0  0  0  0  0  3  0  0  0  0  0  0
  191.0860  178.3520  143.5870 C   0  0  0  0  0  3  0  0  0  0  0  0
  190.8000  177.6400  142.4240 C   0  0  0  0  0  0  0  0  0  0  0  0
  180.5300  176.0600  137.5820 C   0  0  0  0  0  2  0  0  0  0  0  0
  180.9350  176.3460  136.1520 C   0  0  0  0  0  2  0  0  0  0  0  0
  180.8020  175.1430  135.3450 N   0  0  0  0  0  2  0  0  0  0  0  0
  182.0960  174.8820  134.7280 C   0  0  2  0  0  3  0  0  0  0  0  0
  182.4450  172.2220  137.0580 S   0  0  0  0  0  0  0  0  0  0  0  0
  181.1050  172.6320  134.7230 N   0  0  0  0  0  2  0  0  0  0  0  0
  183.2880  172.8540  135.6290 C   0  0  1  0  0  3  0  0  0  0  0  0
  184.6600  172.1510  135.1450 S   0  0  0  0  0  0  0  0  0  0  0  0
  180.8710  172.3640  136.1430 C   0  0  1  0  0  3  0  0  0  0  0  0
  182.3570  173.3730  134.5940 C   0  0  2  0  0  3  0  0  0  0  0  0
  185.8710  172.5860  136.3980 C   0  0  2  0  0  3  0  0  0  0  0  0
  186.7620  173.6890  135.8580 C   0  0  2  0  0  3  0  0  0  0  0  0
  187.2550  172.2620  135.8830 C   0  0  0  0  0  2  0  0  0  0  0  0
  187.4000  174.4560  137.0070 C   0  0  0  0  0  2  0  0  0  0  0  0
  188.9320  176.4650  137.2310 C   0  0  0  0  0  0  0  0  0  0  0  0
  187.9660  175.7490  136.5040 C   0  0  0  0  0  0  0  0  0  0  0  0
  189.4900  177.5800  136.6950 N   0  0  0  0  0  0  0  0  0  0  0  0
  189.3920  175.9990  138.5700 C   0  0  0  0  0  1  0  0  0  0  0  0
  188.1690  177.3620  134.7120 C   0  0  0  0  0  3  0  0  0  0  0  0
  189.1330  178.0380  135.4620 C   0  0  0  0  0  3  0  0  0  0  0  0
  187.5850  176.2140  135.2410 C   0  0  0  0  0  3  0  0  0  0  0  0
  179.4340  170.1870  136.4120 N   0  0  0  0  0  0  0  0  0  0  0  0
  180.0740  171.1470  136.2870 C   0  0  0  0  0  0  0  0  0  0  0  0
  183.1980  175.5180  135.5670 C   0  0  0  0  0  2  0  0  0  0  0  0
  184.1980  176.2000  134.6510 C   0  0  0  0  0  1  0  0  0  0  0  0
  3 34  1  6  0  0  0
  3  4  1  0  0  0  0
  4  2  2  0  0  0  0
  6  4  1  1  0  0  0
  6 13  1  0  0  0  0
  7  1  1  0  0  0  0
  7  8  1  0  0  0  0
  7  3  1  0  0  0  0
  8  5  1  6  0  0  0
  8  6  1  0  0  0  0
  9 12  2  0  0  0  0
 10 14  2  0  0  0  0
 12 11  1  0  0  0  0
 12 15  1  0  0  0  0
 13 10  1  1  0  0  0
 13  9  1  0  0  0  0
 14 16  1  0  0  0  0
 14 11  1  0  0  0  0
 16 18  2  0  0  0  0
 17 16  1  0  0  0  0
 18 19  1  0  0  0  0
 21 19  1  6  0  0  0
 21 23  1  0  0  0  0
 21 24  1  0  0  0  0
 22 20  1  1  0  0  0
 22 25  1  0  0  0  0
 23 22  1  0  0  0  0
 24 26  1  0  0  0  0
 26 25  1  0  0  0  0
 27 33  2  0  0  0  0
 27 28  1  0  0  0  0
 28 30  2  0  0  0  0
 29 33  1  0  0  0  0
 30 31  1  0  0  0  0
 30 23  1  0  0  0  0
 32 31  2  0  0  0  0
 33 32  1  0  0  0  0
 35 34  1  0  0  0  0
 36 35  1  0  0  0  0
 37 36  1  0  0  0  0
 37 57  1  1  0  0  0
 39 42  1  0  0  0  0
 40 41  1  6  0  0  0
 40 38  1  0  0  0  0
 42 56  1  6  0  0  0
 42 38  1  0  0  0  0
 43 39  1  0  0  0  0
 43 37  1  1  0  0  0
 43 40  1  0  0  0  0
 44 41  1  6  0  0  0
 45 46  1  0  0  0  0
 45 44  1  0  0  0  0
 45 47  1  1  0  0  0
 46 44  1  0  0  0  0
 48 51  1  0  0  0  0
 49 47  1  0  0  0  0
 49 48  2  0  0  0  0
 50 48  1  0  0  0  0
 52 54  2  0  0  0  0
 52 53  1  0  0  0  0
 53 50  2  0  0  0  0
 54 49  1  0  0  0  0
 56 55  3  0  0  0  0
 58 57  1  0  0  0  0
M  END
>  <MODEL>
1

>  <REMARK>
 VINA RESULT:      -7.2      0.000      0.000
  Name = 
  15 active torsions:
  status: ('A' for Active; 'I' for Inactive)
    1  A    between atoms: C_2  and  C_25
    2  A    between atoms: C_5  and  C_7
    3  A    between atoms: C_5  and  N_8
    4  A    between atoms: C_7  and  C_22
    5  A    between atoms: N_8  and  C_15
    6  A    between atoms: C_9  and  O_39
    7  A    between atoms: N_12  and  C_49
    8  A    between atoms: C_14  and  C_15
    9  A    between atoms: C_15  and  C_56
   10  A    between atoms: C_17  and  C_46
   11  A    between atoms: C_18  and  S_43
   12  A    between atoms: C_25  and  C_28
   13  A    between atoms: N_35  and  O_39
   14  A    between atoms: C_40  and  C_45
   15  A    between atoms: C_47  and  C_54
                            x       y       z     vdW  Elec       q    Type
                         _______ _______ _______ _____ _____    ______ ____

>  <TORSDO>
F 15

$$$$
=
 OpenBabel10222418233D

 58 64  0  0  1  0  0  0  0  0999 V2000
  189.3530  179.3750  137.3940 C   0  0  0  0  0  1  0  0  0  0  0  0
  188.7620  174.9850  137.0150 C   0  0  0  0  0  2  0  0  0  0  0  0
  188.3880  177.4050  136.5690 C   0  0  2  0  0  3  0  0  0  0  0  0
  188.4710  176.2150  137.4510 C   0  0  0  0  0  0  0  0  0  0  0  0
  186.6160  178.3750  139.3380 C   0  0  0  0  0  1  0  0  0  0  0  0
  188.2680  176.5650  138.8720 C   0  0  2  0  0  3  0  0  0  0  0  0
  188.1530  178.5580  137.4400 N   0  0  0  0  0  0  0  0  0  0  0  0
  188.0140  178.0710  138.8230 C   0  0  1  0  0  3  0  0  0  0  0  0
  190.7450  176.2980  138.9370 N   0  0  0  0  0  0  0  0  0  0  0  0
  189.5350  177.0410  140.9870 C   0  0  0  0  0  3  0  0  0  0  0  0
  191.8890  177.3500  140.7140 N   0  0  0  0  0  2  0  0  0  0  0  0
  191.8510  176.7850  139.4020 C   0  0  0  0  0  0  0  0  0  0  0  0
  189.5020  176.2220  139.7210 C   0  0  1  0  0  3  0  0  0  0  0  0
  190.6870  177.5160  141.4740 C   0  0  0  0  0  0  0  0  0  0  0  0
  193.0790  176.7770  138.5600 C   0  0  0  0  0  1  0  0  0  0  0  0
  190.7260  178.2520  142.7510 C   0  0  0  0  0  0  0  0  0  0  0  0
  191.9910  178.9100  143.2190 C   0  0  0  0  0  1  0  0  0  0  0  0
  189.6390  178.3550  143.4520 N   0  0  0  0  0  0  0  0  0  0  0  0
  189.5920  179.0300  144.6520 O   0  0  0  0  0  0  0  0  0  0  0  0
  188.3740  177.8700  148.6930 C   0  0  0  0  0  1  0  0  0  0  0  0
  189.5970  178.2990  145.8660 C   0  0  1  0  0  3  0  0  0  0  0  0
  188.2310  176.9670  147.4740 C   0  0  1  0  0  3  0  0  0  0  0  0
  188.2740  177.7550  146.2350 N   0  0  0  0  0  0  0  0  0  0  0  0
  190.5970  177.1600  145.7580 C   0  0  0  0  0  2  0  0  0  0  0  0
  189.2950  175.8650  147.4570 C   0  0  0  0  0  2  0  0  0  0  0  0
  190.6700  176.4150  147.0850 C   0  0  0  0  0  2  0  0  0  0  0  0
  184.8080  179.0640  145.5120 C   0  0  0  0  0  3  0  0  0  0  0  0
  186.0100  178.7980  146.1770 C   0  0  0  0  0  3  0  0  0  0  0  0
  183.0970  178.8890  143.3890 Cl  0  0  0  0  0  0  0  0  0  0  0  0
  187.0250  178.0490  145.5630 C   0  0  0  0  0  0  0  0  0  0  0  0
  186.8010  177.5710  144.2590 C   0  0  0  0  0  3  0  0  0  0  0  0
  185.5980  177.8280  143.5940 C   0  0  0  0  0  3  0  0  0  0  0  0
  184.6040  178.5780  144.2190 C   0  0  0  0  0  0  0  0  0  0  0  0
  187.2220  177.2590  135.6000 C   0  0  0  0  0  2  0  0  0  0  0  0
  185.9200  177.5140  136.3280 C   0  0  0  0  0  2  0  0  0  0  0  0
  184.8920  176.6040  135.8460 N   0  0  0  0  0  2  0  0  0  0  0  0
  183.6840  176.8550  136.6210 C   0  0  2  0  0  3  0  0  0  0  0  0
  181.3200  174.3270  137.4200 S   0  0  0  0  0  0  0  0  0  0  0  0
  184.0340  174.5390  137.3690 N   0  0  0  0  0  2  0  0  0  0  0  0
  182.1380  175.6820  138.2250 C   0  0  1  0  0  3  0  0  0  0  0  0
  181.7720  176.0250  139.7620 S   0  0  0  0  0  0  0  0  0  0  0  0
  182.9320  173.8120  136.7360 C   0  0  1  0  0  3  0  0  0  0  0  0
  183.5440  175.8530  137.7780 C   0  0  2  0  0  3  0  0  0  0  0  0
  180.1080  176.6980  139.7030 C   0  0  2  0  0  3  0  0  0  0  0  0
  180.1510  178.1520  140.1350 C   0  0  2  0  0  3  0  0  0  0  0  0
  179.6830  177.0890  141.1000 C   0  0  0  0  0  2  0  0  0  0  0  0
  178.9410  178.8960  139.5890 C   0  0  0  0  0  2  0  0  0  0  0  0
  179.4140  181.3770  139.3460 C   0  0  0  0  0  0  0  0  0  0  0  0
  179.3910  180.0850  138.7940 C   0  0  0  0  0  0  0  0  0  0  0  0
  179.9200  182.4090  138.6250 N   0  0  0  0  0  0  0  0  0  0  0  0
  178.9310  181.6320  140.7330 C   0  0  0  0  0  1  0  0  0  0  0  0
  180.3900  180.9670  136.7750 C   0  0  0  0  0  3  0  0  0  0  0  0
  180.4060  182.2320  137.3640 C   0  0  0  0  0  3  0  0  0  0  0  0
  179.8790  179.8930  137.4970 C   0  0  0  0  0  3  0  0  0  0  0  0
  183.2820  171.2320  137.0480 N   0  0  0  0  0  0  0  0  0  0  0  0
  183.1340  172.3730  136.9060 C   0  0  0  0  0  0  0  0  0  0  0  0
  182.4660  176.7590  135.7110 C   0  0  0  0  0  2  0  0  0  0  0  0
  182.4540  177.9410  134.7590 C   0  0  0  0  0  1  0  0  0  0  0  0
  1  7  1  0  0  0  0
  2  4  2  0  0  0  0
  3 34  1  6  0  0  0
  3  7  1  0  0  0  0
  3  4  1  0  0  0  0
  6  4  1  6  0  0  0
  6 13  1  0  0  0  0
  7  8  1  0  0  0  0
  8  6  1  0  0  0  0
  8  5  1  6  0  0  0
  9 12  2  0  0  0  0
  9 13  1  0  0  0  0
 10 14  2  0  0  0  0
 11 14  1  0  0  0  0
 12 11  1  0  0  0  0
 13 10  1  1  0  0  0
 14 16  1  0  0  0  0
 15 12  1  0  0  0  0
 16 17  1  0  0  0  0
 16 18  2  0  0  0  0
 18 19  1  0  0  0  0
 21 19  1  6  0  0  0
 21 23  1  0  0  0  0
 22 20  1  1  0  0  0
 23 22  1  0  0  0  0
 24 21  1  0  0  0  0
 24 26  1  0  0  0  0
 25 22  1  0  0  0  0
 26 25  1  0  0  0  0
 27 28  1  0  0  0  0
 29 33  1  0  0  0  0
 30 28  2  0  0  0  0
 30 23  1  0  0  0  0
 31 30  1  0  0  0  0
 32 33  1  0  0  0  0
 32 31  2  0  0  0  0
 33 27  2  0  0  0  0
 34 35  1  0  0  0  0
 36 35  1  0  0  0  0
 36 37  1  0  0  0  0
 37 57  1  6  0  0  0
 38 40  1  0  0  0  0
 39 43  1  0  0  0  0
 40 41  1  1  0  0  0
 42 56  1  1  0  0  0
 42 39  1  0  0  0  0
 42 38  1  0  0  0  0
 43 37  1  6  0  0  0
 43 40  1  0  0  0  0
 44 41  1  1  0  0  0
 44 45  1  0  0  0  0
 44 46  1  0  0  0  0
 45 47  1  6  0  0  0
 45 46  1  0  0  0  0
 48 51  1  0  0  0  0
 49 48  1  0  0  0  0
 49 47  1  0  0  0  0
 50 48  2  0  0  0  0
 52 53  2  0  0  0  0
 52 54  1  0  0  0  0
 53 50  1  0  0  0  0
 54 49  2  0  0  0  0
 56 55  3  0  0  0  0
 58 57  1  0  0  0  0
M  END
>  <MODEL>
2

>  <REMARK>
 VINA RESULT:      -6.5      2.711      7.221
  Name = 
  15 active torsions:
  status: ('A' for Active; 'I' for Inactive)
    1  A    between atoms: C_2  and  C_25
    2  A    between atoms: C_5  and  C_7
    3  A    between atoms: C_5  and  N_8
    4  A    between atoms: C_7  and  C_22
    5  A    between atoms: N_8  and  C_15
    6  A    between atoms: C_9  and  O_39
    7  A    between atoms: N_12  and  C_49
    8  A    between atoms: C_14  and  C_15
    9  A    between atoms: C_15  and  C_56
   10  A    between atoms: C_17  and  C_46
   11  A    between atoms: C_18  and  S_43
   12  A    between atoms: C_25  and  C_28
   13  A    between atoms: N_35  and  O_39
   14  A    between atoms: C_40  and  C_45
   15  A    between atoms: C_47  and  C_54
                            x       y       z     vdW  Elec       q    Type
                         _______ _______ _______ _____ _____    ______ ____

>  <TORSDO>
F 15

$$$$
=
 OpenBabel10222418233D

 58 64  0  0  1  0  0  0  0  0999 V2000
  186.6850  176.3590  144.0110 C   0  0  0  0  0  1  0  0  0  0  0  0
  185.7340  178.9500  140.5260 C   0  0  0  0  0  2  0  0  0  0  0  0
  187.0920  177.9900  142.3770 C   0  0  2  0  0  3  0  0  0  0  0  0
  185.8990  178.6760  141.8240 C   0  0  0  0  0  0  0  0  0  0  0  0
  185.7600  179.5500  145.1230 C   0  0  0  0  0  1  0  0  0  0  0  0
  184.8870  178.9490  142.8650 C   0  0  2  0  0  3  0  0  0  0  0  0
  186.8380  177.7890  143.8050 N   0  0  0  0  0  0  0  0  0  0  0  0
  185.5450  178.4130  144.1360 C   0  0  1  0  0  3  0  0  0  0  0  0
  182.4000  179.0280  143.0010 N   0  0  0  0  0  0  0  0  0  0  0  0
  183.4880  177.8000  141.1240 C   0  0  0  0  0  3  0  0  0  0  0  0
  181.2010  178.4890  141.0400 N   0  0  0  0  0  2  0  0  0  0  0  0
  181.3040  179.1210  142.3180 C   0  0  0  0  0  0  0  0  0  0  0  0
  183.5590  178.2350  142.5660 C   0  0  1  0  0  3  0  0  0  0  0  0
  182.3430  177.8730  140.4350 C   0  0  0  0  0  0  0  0  0  0  0  0
  180.1560  179.9040  142.8540 C   0  0  0  0  0  1  0  0  0  0  0  0
  182.2590  177.3780  139.0490 C   0  0  0  0  0  0  0  0  0  0  0  0
  181.9430  178.3140  137.9180 C   0  0  0  0  0  1  0  0  0  0  0  0
  182.4960  176.1250  138.8110 N   0  0  0  0  0  0  0  0  0  0  0  0
  182.4420  175.5870  137.5450 O   0  0  0  0  0  0  0  0  0  0  0  0
  180.3840  172.5020  135.2210 C   0  0  0  0  0  1  0  0  0  0  0  0
  181.4840  174.5850  137.2500 C   0  0  1  0  0  3  0  0  0  0  0  0
  181.1290  172.2260  136.5210 C   0  0  1  0  0  3  0  0  0  0  0  0
  182.0800  173.3060  136.8150 N   0  0  0  0  0  0  0  0  0  0  0  0
  180.6210  174.3450  138.4780 C   0  0  0  0  0  2  0  0  0  0  0  0
  180.1650  172.0140  137.6930 C   0  0  0  0  0  2  0  0  0  0  0  0
  179.5350  173.3280  138.1490 C   0  0  0  0  0  2  0  0  0  0  0  0
  185.3210  172.7620  134.9570 C   0  0  0  0  0  3  0  0  0  0  0  0
  183.9640  172.9830  135.2120 C   0  0  0  0  0  3  0  0  0  0  0  0
  187.9140  172.3390  135.7090 Cl  0  0  0  0  0  0  0  0  0  0  0  0
  183.4820  173.0850  136.5270 C   0  0  0  0  0  0  0  0  0  0  0  0
  184.4040  172.9580  137.5820 C   0  0  0  0  0  3  0  0  0  0  0  0
  185.7600  172.7290  137.3310 C   0  0  0  0  0  3  0  0  0  0  0  0
  186.2190  172.6350  136.0190 C   0  0  0  0  0  0  0  0  0  0  0  0
  188.3270  178.8640  142.2030 C   0  0  0  0  0  2  0  0  0  0  0  0
  189.4340  178.0580  141.5600 C   0  0  0  0  0  2  0  0  0  0  0  0
  189.0250  177.6150  140.2360 N   0  0  0  0  0  2  0  0  0  0  0  0
  190.1690  177.7690  139.3480 C   0  0  2  0  0  3  0  0  0  0  0  0
  188.2950  175.5830  137.2670 S   0  0  0  0  0  0  0  0  0  0  0  0
  188.3450  178.2580  137.7740 N   0  0  0  0  0  2  0  0  0  0  0  0
  189.8210  176.4870  137.2080 C   0  0  1  0  0  3  0  0  0  0  0  0
  190.7770  176.3410  135.9120 S   0  0  0  0  0  0  0  0  0  0  0  0
  187.4740  177.0880  137.8960 C   0  0  1  0  0  3  0  0  0  0  0  0
  189.7320  177.8110  137.8750 C   0  0  2  0  0  3  0  0  0  0  0  0
  191.4420  174.6760  136.0120 C   0  0  2  0  0  3  0  0  0  0  0  0
  192.9410  174.7580  136.2330 C   0  0  2  0  0  3  0  0  0  0  0  0
  192.3950  174.4540  134.8590 C   0  0  0  0  0  2  0  0  0  0  0  0
  193.4480  173.4700  136.8640 C   0  0  0  0  0  2  0  0  0  0  0  0
  195.9550  173.4370  136.4750 C   0  0  0  0  0  0  0  0  0  0  0  0
  194.8610  173.6540  137.3300 C   0  0  0  0  0  0  0  0  0  0  0  0
  197.2120  173.7080  136.9080 N   0  0  0  0  0  0  0  0  0  0  0  0
  195.7590  172.9520  135.0790 C   0  0  0  0  0  1  0  0  0  0  0  0
  196.3940  174.4000  139.0460 C   0  0  0  0  0  3  0  0  0  0  0  0
  197.4520  174.1830  138.1630 C   0  0  0  0  0  3  0  0  0  0  0  0
  195.0950  174.1320  138.6230 C   0  0  0  0  0  3  0  0  0  0  0  0
  185.2350  177.5390  136.6080 N   0  0  0  0  0  0  0  0  0  0  0  0
  186.2210  177.3340  137.1820 C   0  0  0  0  0  0  0  0  0  0  0  0
  191.1390  176.6120  139.5590 C   0  0  0  0  0  2  0  0  0  0  0  0
  192.5570  177.1480  139.6240 C   0  0  0  0  0  1  0  0  0  0  0  0
  2  4  2  0  0  0  0
  3 34  1  1  0  0  0
  3  7  1  0  0  0  0
  4  3  1  0  0  0  0
  6  4  1  6  0  0  0
  6  8  1  0  0  0  0
  7  1  1  0  0  0  0
  7  8  1  0  0  0  0
  8  5  1  1  0  0  0
 11 12  1  0  0  0  0
 12 15  1  0  0  0  0
 12  9  2  0  0  0  0
 13 10  1  6  0  0  0
 13  6  1  0  0  0  0
 13  9  1  0  0  0  0
 14 11  1  0  0  0  0
 14 10  2  0  0  0  0
 16 14  1  0  0  0  0
 17 16  1  0  0  0  0
 18 16  2  0  0  0  0
 19 18  1  0  0  0  0
 21 19  1  1  0  0  0
 21 24  1  0  0  0  0
 22 20  1  6  0  0  0
 22 23  1  0  0  0  0
 22 25  1  0  0  0  0
 23 21  1  0  0  0  0
 25 26  1  0  0  0  0
 26 24  1  0  0  0  0
 27 28  2  0  0  0  0
 27 33  1  0  0  0  0
 28 30  1  0  0  0  0
 29 33  1  0  0  0  0
 30 23  1  0  0  0  0
 30 31  2  0  0  0  0
 32 31  1  0  0  0  0
 33 32  2  0  0  0  0
 35 34  1  0  0  0  0
 36 35  1  0  0  0  0
 37 57  1  6  0  0  0
 37 36  1  0  0  0  0
 38 42  1  0  0  0  0
 39 43  1  0  0  0  0
 39 42  1  0  0  0  0
 40 41  1  6  0  0  0
 40 38  1  0  0  0  0
 40 43  1  0  0  0  0
 42 56  1  6  0  0  0
 43 37  1  1  0  0  0
 44 41  1  6  0  0  0
 44 45  1  0  0  0  0
 45 47  1  1  0  0  0
 46 44  1  0  0  0  0
 46 45  1  0  0  0  0
 47 49  1  0  0  0  0
 48 50  2  0  0  0  0
 48 49  1  0  0  0  0
 49 54  2  0  0  0  0
 50 53  1  0  0  0  0
 51 48  1  0  0  0  0
 53 52  2  0  0  0  0
 54 52  1  0  0  0  0
 55 56  3  0  0  0  0
 57 58  1  0  0  0  0
M  END
>  <MODEL>
3

>  <REMARK>
 VINA RESULT:      -6.4      3.759      8.492
  Name = 
  15 active torsions:
  status: ('A' for Active; 'I' for Inactive)
    1  A    between atoms: C_2  and  C_25
    2  A    between atoms: C_5  and  C_7
    3  A    between atoms: C_5  and  N_8
    4  A    between atoms: C_7  and  C_22
    5  A    between atoms: N_8  and  C_15
    6  A    between atoms: C_9  and  O_39
    7  A    between atoms: N_12  and  C_49
    8  A    between atoms: C_14  and  C_15
    9  A    between atoms: C_15  and  C_56
   10  A    between atoms: C_17  and  C_46
   11  A    between atoms: C_18  and  S_43
   12  A    between atoms: C_25  and  C_28
   13  A    between atoms: N_35  and  O_39
   14  A    between atoms: C_40  and  C_45
   15  A    between atoms: C_47  and  C_54
                            x       y       z     vdW  Elec       q    Type
                         _______ _______ _______ _____ _____    ______ ____

>  <TORSDO>
F 15

$$$$
=
 OpenBabel10222418233D

 58 64  0  0  1  0  0  0  0  0999 V2000
  184.5660  178.9440  138.3530 C   0  0  0  0  0  1  0  0  0  0  0  0
  181.6560  176.1290  140.1880 C   0  0  0  0  0  2  0  0  0  0  0  0
  183.1860  177.0520  138.4570 C   0  0  2  0  0  3  0  0  0  0  0  0
  182.0350  177.1310  139.3880 C   0  0  0  0  0  0  0  0  0  0  0  0
  181.3400  179.6430  137.1800 C   0  0  0  0  0  1  0  0  0  0  0  0
  181.4080  178.4690  139.3800 C   0  0  2  0  0  3  0  0  0  0  0  0
  183.3270  178.3770  137.8490 N   0  0  0  0  0  0  0  0  0  0  0  0
  182.2320  179.2290  138.3410 C   0  0  1  0  0  3  0  0  0  0  0  0
  180.6410  178.4400  141.7510 N   0  0  0  0  0  0  0  0  0  0  0  0
  182.9090  179.3200  141.2050 C   0  0  0  0  0  3  0  0  0  0  0  0
  182.3010  178.6510  143.4170 N   0  0  0  0  0  2  0  0  0  0  0  0
  181.0030  178.2440  142.9790 C   0  0  0  0  0  0  0  0  0  0  0  0
  181.4790  179.1360  140.7630 C   0  0  1  0  0  3  0  0  0  0  0  0
  183.2670  179.1430  142.4820 C   0  0  0  0  0  0  0  0  0  0  0  0
  180.0730  177.5750  143.9310 C   0  0  0  0  0  1  0  0  0  0  0  0
  184.6490  179.3960  142.9250 C   0  0  0  0  0  0  0  0  0  0  0  0
  184.9470  179.7350  144.3570 C   0  0  0  0  0  1  0  0  0  0  0  0
  185.6170  179.2880  142.0660 N   0  0  0  0  0  0  0  0  0  0  0  0
  186.9340  179.5020  142.4030 O   0  0  0  0  0  0  0  0  0  0  0  0
  190.9470  177.9860  141.5310 C   0  0  0  0  0  1  0  0  0  0  0  0
  187.9570  178.8270  141.6910 C   0  0  1  0  0  3  0  0  0  0  0  0
  189.7450  177.0900  141.8070 C   0  0  1  0  0  3  0  0  0  0  0  0
  188.6900  177.8370  142.5060 N   0  0  0  0  0  0  0  0  0  0  0  0
  187.3490  178.1330  140.4830 C   0  0  0  0  0  2  0  0  0  0  0  0
  189.2040  176.4550  140.5220 C   0  0  0  0  0  2  0  0  0  0  0  0
  188.4500  177.4710  139.6650 C   0  0  0  0  0  2  0  0  0  0  0  0
  187.2430  177.0020  145.8910 C   0  0  0  0  0  3  0  0  0  0  0  0
  187.3610  177.1680  144.5070 C   0  0  0  0  0  3  0  0  0  0  0  0
  188.1690  177.1400  148.4580 Cl  0  0  0  0  0  0  0  0  0  0  0  0
  188.5480  177.6510  143.9350 C   0  0  0  0  0  0  0  0  0  0  0  0
  189.6180  177.9670  144.7930 C   0  0  0  0  0  3  0  0  0  0  0  0
  189.5000  177.8100  146.1780 C   0  0  0  0  0  3  0  0  0  0  0  0
  188.3150  177.3240  146.7260 C   0  0  0  0  0  0  0  0  0  0  0  0
  182.9090  176.0250  137.3670 C   0  0  0  0  0  2  0  0  0  0  0  0
  183.1990  176.6310  136.0110 C   0  0  0  0  0  2  0  0  0  0  0  0
  183.4440  175.5790  135.0360 N   0  0  0  0  0  2  0  0  0  0  0  0
  184.8300  175.6950  134.6040 C   0  0  2  0  0  3  0  0  0  0  0  0
  185.9730  173.5010  137.1540 S   0  0  0  0  0  0  0  0  0  0  0  0
  184.5590  173.2630  134.8390 N   0  0  0  0  0  2  0  0  0  0  0  0
  186.5800  174.2120  135.6440 C   0  0  1  0  0  3  0  0  0  0  0  0
  188.0970  173.9060  135.1800 S   0  0  0  0  0  0  0  0  0  0  0  0
  184.4240  173.0780  136.2850 C   0  0  1  0  0  3  0  0  0  0  0  0
  185.5300  174.3270  134.5990 C   0  0  2  0  0  3  0  0  0  0  0  0
  189.1290  174.8010  136.3450 C   0  0  2  0  0  3  0  0  0  0  0  0
  190.5860  174.5600  135.9970 C   0  0  2  0  0  3  0  0  0  0  0  0
  189.9480  173.8130  137.1430 C   0  0  0  0  0  2  0  0  0  0  0  0
  191.4500  175.6820  136.5540 C   0  0  0  0  0  2  0  0  0  0  0  0
  193.5670  175.6200  137.9490 C   0  0  0  0  0  0  0  0  0  0  0  0
  192.8280  175.1680  136.8430 C   0  0  0  0  0  0  0  0  0  0  0  0
  194.7710  175.0580  138.2300 N   0  0  0  0  0  0  0  0  0  0  0  0
  193.0360  176.6790  138.8530 C   0  0  0  0  0  1  0  0  0  0  0  0
  194.5980  173.5960  136.3450 C   0  0  0  0  0  3  0  0  0  0  0  0
  195.2950  174.0640  137.4590 C   0  0  0  0  0  3  0  0  0  0  0  0
  193.3600  174.1550  136.0390 C   0  0  0  0  0  3  0  0  0  0  0  0
  183.7240  170.6050  136.8030 N   0  0  0  0  0  0  0  0  0  0  0  0
  184.0290  171.6990  136.5680 C   0  0  0  0  0  0  0  0  0  0  0  0
  185.5760  176.6470  135.5310 C   0  0  0  0  0  2  0  0  0  0  0  0
  186.1930  177.7660  134.7120 C   0  0  0  0  0  1  0  0  0  0  0  0
  3 34  1  6  0  0  0
  3  4  1  0  0  0  0
  4  2  2  0  0  0  0
  6  4  1  1  0  0  0
  6 13  1  0  0  0  0
  7  8  1  0  0  0  0
  7  1  1  0  0  0  0
  7  3  1  0  0  0  0
  8  5  1  6  0  0  0
  8  6  1  0  0  0  0
  9 12  2  0  0  0  0
 10 14  2  0  0  0  0
 12 11  1  0  0  0  0
 12 15  1  0  0  0  0
 13 10  1  1  0  0  0
 13  9  1  0  0  0  0
 14 16  1  0  0  0  0
 14 11  1  0  0  0  0
 16 17  1  0  0  0  0
 18 19  1  0  0  0  0
 18 16  2  0  0  0  0
 21 19  1  1  0  0  0
 21 23  1  0  0  0  0
 22 20  1  6  0  0  0
 22 23  1  0  0  0  0
 23 30  1  0  0  0  0
 24 21  1  0  0  0  0
 25 22  1  0  0  0  0
 26 24  1  0  0  0  0
 26 25  1  0  0  0  0
 27 33  1  0  0  0  0
 28 27  2  0  0  0  0
 30 28  1  0  0  0  0
 30 31  2  0  0  0  0
 31 32  1  0  0  0  0
 32 33  2  0  0  0  0
 33 29  1  0  0  0  0
 35 34  1  0  0  0  0
 36 35  1  0  0  0  0
 37 36  1  0  0  0  0
 37 57  1  1  0  0  0
 39 42  1  0  0  0  0
 40 41  1  6  0  0  0
 40 38  1  0  0  0  0
 42 56  1  6  0  0  0
 42 38  1  0  0  0  0
 43 37  1  1  0  0  0
 43 39  1  0  0  0  0
 43 40  1  0  0  0  0
 44 41  1  6  0  0  0
 44 46  1  0  0  0  0
 45 44  1  0  0  0  0
 45 47  1  1  0  0  0
 45 46  1  0  0  0  0
 47 49  1  0  0  0  0
 48 50  1  0  0  0  0
 48 51  1  0  0  0  0
 49 48  2  0  0  0  0
 52 53  1  0  0  0  0
 53 50  2  0  0  0  0
 54 52  2  0  0  0  0
 54 49  1  0  0  0  0
 56 55  3  0  0  0  0
 58 57  1  0  0  0  0
M  END
>  <MODEL>
4

>  <REMARK>
 VINA RESULT:      -6.4      2.726      3.948
  Name = 
  15 active torsions:
  status: ('A' for Active; 'I' for Inactive)
    1  A    between atoms: C_2  and  C_25
    2  A    between atoms: C_5  and  C_7
    3  A    between atoms: C_5  and  N_8
    4  A    between atoms: C_7  and  C_22
    5  A    between atoms: N_8  and  C_15
    6  A    between atoms: C_9  and  O_39
    7  A    between atoms: N_12  and  C_49
    8  A    between atoms: C_14  and  C_15
    9  A    between atoms: C_15  and  C_56
   10  A    between atoms: C_17  and  C_46
   11  A    between atoms: C_18  and  S_43
   12  A    between atoms: C_25  and  C_28
   13  A    between atoms: N_35  and  O_39
   14  A    between atoms: C_40  and  C_45
   15  A    between atoms: C_47  and  C_54
                            x       y       z     vdW  Elec       q    Type
                         _______ _______ _______ _____ _____    ______ ____

>  <TORSDO>
F 15

$$$$
=
 OpenBabel10222418233D

 58 64  0  0  1  0  0  0  0  0999 V2000
  182.9180  177.8550  140.0320 C   0  0  0  0  0  1  0  0  0  0  0  0
  179.9700  180.5260  142.0160 C   0  0  0  0  0  2  0  0  0  0  0  0
  181.8190  178.8710  141.8360 C   0  0  2  0  0  3  0  0  0  0  0  0
  180.4420  179.3560  141.5760 C   0  0  0  0  0  0  0  0  0  0  0  0
  180.1280  175.9950  141.0490 C   0  0  0  0  0  1  0  0  0  0  0  0
  179.6830  178.4270  140.7140 C   0  0  2  0  0  3  0  0  0  0  0  0
  181.9680  177.6120  141.1030 N   0  0  0  0  0  0  0  0  0  0  0  0
  180.6770  177.2910  140.4710 C   0  0  1  0  0  3  0  0  0  0  0  0
  179.5560  180.5370  139.3940 N   0  0  0  0  0  0  0  0  0  0  0  0
  179.8060  178.3590  138.2060 C   0  0  0  0  0  3  0  0  0  0  0  0
  180.3010  180.4480  137.1560 N   0  0  0  0  0  2  0  0  0  0  0  0
  180.0070  181.1660  138.3560 C   0  0  0  0  0  0  0  0  0  0  0  0
  179.2530  179.0970  139.3990 C   0  0  1  0  0  3  0  0  0  0  0  0
  180.2420  179.0180  137.1260 C   0  0  0  0  0  0  0  0  0  0  0  0
  180.2380  182.6360  138.4190 C   0  0  0  0  0  1  0  0  0  0  0  0
  180.7120  178.2920  135.9330 C   0  0  0  0  0  0  0  0  0  0  0  0
  180.7690  178.9700  134.5940 C   0  0  0  0  0  1  0  0  0  0  0  0
  181.1130  177.0630  136.0590 N   0  0  0  0  0  0  0  0  0  0  0  0
  181.5710  176.3200  134.9940 O   0  0  0  0  0  0  0  0  0  0  0  0
  183.7290  172.5300  134.6270 C   0  0  0  0  0  1  0  0  0  0  0  0
  181.8390  174.9390  135.1690 C   0  0  1  0  0  3  0  0  0  0  0  0
  183.4980  173.2480  135.9520 C   0  0  1  0  0  3  0  0  0  0  0  0
  183.1790  174.6640  135.7270 N   0  0  0  0  0  0  0  0  0  0  0  0
  180.7820  174.3380  136.0800 C   0  0  0  0  0  2  0  0  0  0  0  0
  182.4050  172.5670  136.7810 C   0  0  0  0  0  2  0  0  0  0  0  0
  181.0140  172.8380  136.2110 C   0  0  0  0  0  2  0  0  0  0  0  0
  185.6450  176.9900  137.3880 C   0  0  0  0  0  3  0  0  0  0  0  0
  184.6380  176.0350  137.2140 C   0  0  0  0  0  3  0  0  0  0  0  0
  187.4990  178.7810  136.4820 Cl  0  0  0  0  0  0  0  0  0  0  0  0
  184.2250  175.6450  135.9300 C   0  0  0  0  0  0  0  0  0  0  0  0
  184.8530  176.2410  134.8210 C   0  0  0  0  0  3  0  0  0  0  0  0
  185.8550  177.2020  134.9920 C   0  0  0  0  0  3  0  0  0  0  0  0
  186.2540  177.5730  136.2740 C   0  0  0  0  0  0  0  0  0  0  0  0
  182.0120  178.6140  143.3240 C   0  0  0  0  0  2  0  0  0  0  0  0
  183.1890  179.4190  143.8310 C   0  0  0  0  0  2  0  0  0  0  0  0
  184.1440  178.5430  144.4950 N   0  0  0  0  0  2  0  0  0  0  0  0
  185.0840  178.0730  143.4870 C   0  0  2  0  0  3  0  0  0  0  0  0
  188.2830  178.5930  144.9430 S   0  0  0  0  0  0  0  0  0  0  0  0
  186.0480  177.1640  145.5580 N   0  0  0  0  0  2  0  0  0  0  0  0
  187.5300  177.5280  143.7390 C   0  0  1  0  0  3  0  0  0  0  0  0
  188.4460  176.4540  142.9500 S   0  0  0  0  0  0  0  0  0  0  0  0
  186.8740  178.2660  146.0560 C   0  0  1  0  0  3  0  0  0  0  0  0
  186.1420  177.1420  144.1010 C   0  0  2  0  0  3  0  0  0  0  0  0
  189.4700  177.4380  141.8510 C   0  0  2  0  0  3  0  0  0  0  0  0
  189.9170  176.5700  140.6890 C   0  0  2  0  0  3  0  0  0  0  0  0
  190.8670  176.8600  141.8260 C   0  0  0  0  0  2  0  0  0  0  0  0
  190.2860  177.4410  139.4970 C   0  0  0  0  0  2  0  0  0  0  0  0
  191.7830  176.2340  137.8440 C   0  0  0  0  0  0  0  0  0  0  0  0
  190.4960  176.5840  138.2860 C   0  0  0  0  0  0  0  0  0  0  0  0
  191.9270  175.3760  136.8010 N   0  0  0  0  0  0  0  0  0  0  0  0
  193.0020  176.7530  138.5260 C   0  0  0  0  0  1  0  0  0  0  0  0
  189.5560  175.1760  136.5570 C   0  0  0  0  0  3  0  0  0  0  0  0
  190.8510  174.8440  136.1570 C   0  0  0  0  0  3  0  0  0  0  0  0
  189.3840  176.0510  137.6260 C   0  0  0  0  0  3  0  0  0  0  0  0
  187.7130  177.7240  148.4810 N   0  0  0  0  0  0  0  0  0  0  0  0
  187.3390  177.9560  147.4080 C   0  0  0  0  0  0  0  0  0  0  0  0
  185.7720  179.2670  142.8350 C   0  0  0  0  0  2  0  0  0  0  0  0
  185.9160  179.0130  141.3460 C   0  0  0  0  0  1  0  0  0  0  0  0
  1  7  1  0  0  0  0
  3 34  1  1  0  0  0
  4  3  1  0  0  0  0
  4  2  2  0  0  0  0
  6  4  1  1  0  0  0
  7  3  1  0  0  0  0
  8  6  1  0  0  0  0
  8  5  1  1  0  0  0
  8  7  1  0  0  0  0
  9 13  1  0  0  0  0
 11 12  1  0  0  0  0
 12 15  1  0  0  0  0
 12  9  2  0  0  0  0
 13 10  1  6  0  0  0
 13  6  1  0  0  0  0
 14 11  1  0  0  0  0
 14 10  2  0  0  0  0
 16 18  2  0  0  0  0
 16 14  1  0  0  0  0
 17 16  1  0  0  0  0
 19 18  1  0  0  0  0
 21 19  1  1  0  0  0
 21 23  1  0  0  0  0
 21 24  1  0  0  0  0
 22 20  1  6  0  0  0
 22 25  1  0  0  0  0
 23 30  1  0  0  0  0
 23 22  1  0  0  0  0
 24 26  1  0  0  0  0
 26 25  1  0  0  0  0
 28 27  1  0  0  0  0
 30 28  2  0  0  0  0
 31 32  2  0  0  0  0
 31 30  1  0  0  0  0
 32 33  1  0  0  0  0
 33 29  1  0  0  0  0
 33 27  2  0  0  0  0
 34 35  1  0  0  0  0
 35 36  1  0  0  0  0
 37 57  1  1  0  0  0
 37 36  1  0  0  0  0
 38 42  1  0  0  0  0
 39 42  1  0  0  0  0
 40 41  1  1  0  0  0
 40 43  1  0  0  0  0
 40 38  1  0  0  0  0
 42 56  1  1  0  0  0
 43 37  1  6  0  0  0
 43 39  1  0  0  0  0
 44 41  1  1  0  0  0
 45 47  1  6  0  0  0
 45 46  1  0  0  0  0
 45 44  1  0  0  0  0
 46 44  1  0  0  0  0
 48 49  1  0  0  0  0
 48 51  1  0  0  0  0
 49 47  1  0  0  0  0
 50 48  2  0  0  0  0
 52 54  1  0  0  0  0
 53 52  2  0  0  0  0
 53 50  1  0  0  0  0
 54 49  2  0  0  0  0
 56 55  3  0  0  0  0
 58 57  1  0  0  0  0
M  END
>  <MODEL>
5

>  <REMARK>
 VINA RESULT:      -6.0      3.107      8.606
  Name = 
  15 active torsions:
  status: ('A' for Active; 'I' for Inactive)
    1  A    between atoms: C_2  and  C_25
    2  A    between atoms: C_5  and  C_7
    3  A    between atoms: C_5  and  N_8
    4  A    between atoms: C_7  and  C_22
    5  A    between atoms: N_8  and  C_15
    6  A    between atoms: C_9  and  O_39
    7  A    between atoms: N_12  and  C_49
    8  A    between atoms: C_14  and  C_15
    9  A    between atoms: C_15  and  C_56
   10  A    between atoms: C_17  and  C_46
   11  A    between atoms: C_18  and  S_43
   12  A    between atoms: C_25  and  C_28
   13  A    between atoms: N_35  and  O_39
   14  A    between atoms: C_40  and  C_45
   15  A    between atoms: C_47  and  C_54
                            x       y       z     vdW  Elec       q    Type
                         _______ _______ _______ _____ _____    ______ ____

>  <TORSDO>
F 15

$$$$
=
 OpenBabel10222418233D

 58 64  0  0  1  0  0  0  0  0999 V2000
  189.1680  174.7530  137.0470 C   0  0  0  0  0  1  0  0  0  0  0  0
  185.3100  176.8110  136.2460 C   0  0  0  0  0  2  0  0  0  0  0  0
  187.1750  175.2010  135.8970 C   0  0  2  0  0  3  0  0  0  0  0  0
  186.6110  176.5620  136.0680 C   0  0  0  0  0  0  0  0  0  0  0  0
  189.6240  177.2170  134.5980 C   0  0  0  0  0  1  0  0  0  0  0  0
  187.6650  177.5970  136.0950 C   0  0  2  0  0  3  0  0  0  0  0  0
  188.6310  175.3530  135.8380 N   0  0  0  0  0  0  0  0  0  0  0  0
  188.9470  176.7900  135.8910 C   0  0  1  0  0  3  0  0  0  0  0  0
  186.3240  178.7590  137.8450 N   0  0  0  0  0  0  0  0  0  0  0  0
  188.4340  177.5930  138.4860 C   0  0  0  0  0  3  0  0  0  0  0  0
  186.7630  178.1800  140.0910 N   0  0  0  0  0  2  0  0  0  0  0  0
  185.9120  178.7080  139.0710 C   0  0  0  0  0  0  0  0  0  0  0  0
  187.6780  178.3590  137.4290 C   0  0  1  0  0  3  0  0  0  0  0  0
  188.0150  177.5710  139.7560 C   0  0  0  0  0  0  0  0  0  0  0  0
  184.5430  179.1800  139.4160 C   0  0  0  0  0  1  0  0  0  0  0  0
  188.7950  176.8840  140.8010 C   0  0  0  0  0  0  0  0  0  0  0  0
  190.2470  176.5640  140.5890 C   0  0  0  0  0  1  0  0  0  0  0  0
  188.2200  176.5880  141.9260 N   0  0  0  0  0  0  0  0  0  0  0  0
  188.8820  175.9520  142.9520 O   0  0  0  0  0  0  0  0  0  0  0  0
  190.9830  179.3840  144.6740 C   0  0  0  0  0  1  0  0  0  0  0  0
  189.8700  176.6530  143.6880 C   0  0  1  0  0  3  0  0  0  0  0  0
  190.2960  178.3080  145.5060 C   0  0  1  0  0  3  0  0  0  0  0  0
  189.3120  177.5760  144.6980 N   0  0  0  0  0  0  0  0  0  0  0  0
  190.7850  175.6520  144.3730 C   0  0  0  0  0  2  0  0  0  0  0  0
  191.3090  177.3470  146.1370 C   0  0  0  0  0  2  0  0  0  0  0  0
  191.8990  176.3920  145.1020 C   0  0  0  0  0  2  0  0  0  0  0  0
  185.7890  178.7100  143.9540 C   0  0  0  0  0  3  0  0  0  0  0  0
  187.1390  178.3880  143.7820 C   0  0  0  0  0  3  0  0  0  0  0  0
  183.5100  178.9820  145.4370 Cl  0  0  0  0  0  0  0  0  0  0  0  0
  187.9110  177.9090  144.8520 C   0  0  0  0  0  0  0  0  0  0  0  0
  187.2890  177.7630  146.1050 C   0  0  0  0  0  3  0  0  0  0  0  0
  185.9410  178.0920  146.2830 C   0  0  0  0  0  3  0  0  0  0  0  0
  185.1910  178.5620  145.2070 C   0  0  0  0  0  0  0  0  0  0  0  0
  186.6790  174.5880  134.5950 C   0  0  0  0  0  2  0  0  0  0  0  0
  186.2430  173.1600  134.8380 C   0  0  0  0  0  2  0  0  0  0  0  0
  185.3300  173.1020  135.9690 N   0  0  0  0  0  2  0  0  0  0  0  0
  184.3510  172.0590  135.6910 C   0  0  2  0  0  3  0  0  0  0  0  0
  180.9820  172.9280  134.9770 S   0  0  0  0  0  0  0  0  0  0  0  0
  182.2540  171.0380  136.4680 N   0  0  0  0  0  2  0  0  0  0  0  0
  182.2560  173.3870  136.1240 C   0  0  1  0  0  3  0  0  0  0  0  0
  181.9700  174.5660  137.1930 S   0  0  0  0  0  0  0  0  0  0  0  0
  181.3660  171.1750  135.3120 C   0  0  1  0  0  3  0  0  0  0  0  0
  183.0890  172.2330  136.5510 C   0  0  2  0  0  3  0  0  0  0  0  0
  181.9170  176.0730  136.2180 C   0  0  2  0  0  3  0  0  0  0  0  0
  180.7750  176.9400  136.7140 C   0  0  2  0  0  3  0  0  0  0  0  0
  180.6140  176.1230  135.4540 C   0  0  0  0  0  2  0  0  0  0  0  0
  181.0190  178.3930  136.3380 C   0  0  0  0  0  2  0  0  0  0  0  0
  180.7350  180.6750  137.4100 C   0  0  0  0  0  0  0  0  0  0  0  0
  180.7720  179.2750  137.5250 C   0  0  0  0  0  0  0  0  0  0  0  0
  180.4110  181.4310  138.4900 N   0  0  0  0  0  0  0  0  0  0  0  0
  181.0030  181.3500  136.1080 C   0  0  0  0  0  1  0  0  0  0  0  0
  180.1630  179.4850  139.8570 C   0  0  0  0  0  3  0  0  0  0  0  0
  180.1250  180.8700  139.6980 C   0  0  0  0  0  3  0  0  0  0  0  0
  180.4890  178.6880  138.7630 C   0  0  0  0  0  3  0  0  0  0  0  0
  179.1670  169.8110  135.7360 N   0  0  0  0  0  0  0  0  0  0  0  0
  180.1410  170.4090  135.5420 C   0  0  0  0  0  0  0  0  0  0  0  0
  184.9700  170.6930  135.9650 C   0  0  0  0  0  2  0  0  0  0  0  0
  184.7940  169.8070  134.7460 C   0  0  0  0  0  1  0  0  0  0  0  0
  3 34  1  6  0  0  0
  3  4  1  0  0  0  0
  4  2  2  0  0  0  0
  6  4  1  1  0  0  0
  6 13  1  0  0  0  0
  7  8  1  0  0  0  0
  7  3  1  0  0  0  0
  7  1  1  0  0  0  0
  8  5  1  6  0  0  0
  8  6  1  0  0  0  0
  9 12  2  0  0  0  0
 10 14  2  0  0  0  0
 12 15  1  0  0  0  0
 12 11  1  0  0  0  0
 13  9  1  0  0  0  0
 13 10  1  1  0  0  0
 14 11  1  0  0  0  0
 14 16  1  0  0  0  0
 16 18  2  0  0  0  0
 17 16  1  0  0  0  0
 18 19  1  0  0  0  0
 21 19  1  1  0  0  0
 21 24  1  0  0  0  0
 21 23  1  0  0  0  0
 22 20  1  6  0  0  0
 22 25  1  0  0  0  0
 23 30  1  0  0  0  0
 23 22  1  0  0  0  0
 24 26  1  0  0  0  0
 26 25  1  0  0  0  0
 27 33  1  0  0  0  0
 28 27  2  0  0  0  0
 28 30  1  0  0  0  0
 30 31  2  0  0  0  0
 31 32  1  0  0  0  0
 33 29  1  0  0  0  0
 33 32  2  0  0  0  0
 34 35  1  0  0  0  0
 35 36  1  0  0  0  0
 37 57  1  1  0  0  0
 37 36  1  0  0  0  0
 38 42  1  0  0  0  0
 38 40  1  0  0  0  0
 39 43  1  0  0  0  0
 40 43  1  0  0  0  0
 40 41  1  1  0  0  0
 42 56  1  1  0  0  0
 42 39  1  0  0  0  0
 43 37  1  6  0  0  0
 44 45  1  0  0  0  0
 44 41  1  1  0  0  0
 45 47  1  6  0  0  0
 46 44  1  0  0  0  0
 46 45  1  0  0  0  0
 47 49  1  0  0  0  0
 48 49  2  0  0  0  0
 48 50  1  0  0  0  0
 49 54  1  0  0  0  0
 50 53  2  0  0  0  0
 51 48  1  0  0  0  0
 53 52  1  0  0  0  0
 54 52  2  0  0  0  0
 56 55  3  0  0  0  0
 58 57  1  0  0  0  0
M  END
>  <MODEL>
6

>  <REMARK>
 VINA RESULT:      -5.4      2.620      6.289
  Name = 
  15 active torsions:
  status: ('A' for Active; 'I' for Inactive)
    1  A    between atoms: C_2  and  C_25
    2  A    between atoms: C_5  and  C_7
    3  A    between atoms: C_5  and  N_8
    4  A    between atoms: C_7  and  C_22
    5  A    between atoms: N_8  and  C_15
    6  A    between atoms: C_9  and  O_39
    7  A    between atoms: N_12  and  C_49
    8  A    between atoms: C_14  and  C_15
    9  A    between atoms: C_15  and  C_56
   10  A    between atoms: C_17  and  C_46
   11  A    between atoms: C_18  and  S_43
   12  A    between atoms: C_25  and  C_28
   13  A    between atoms: N_35  and  O_39
   14  A    between atoms: C_40  and  C_45
   15  A    between atoms: C_47  and  C_54
                            x       y       z     vdW  Elec       q    Type
                         _______ _______ _______ _____ _____    ______ ____

>  <TORSDO>
F 15

$$$$
=
 OpenBabel10222418233D

 58 64  0  0  1  0  0  0  0  0999 V2000
  183.9150  179.5290  140.0890 C   0  0  0  0  0  1  0  0  0  0  0  0
  180.4890  179.3430  142.9150 C   0  0  0  0  0  2  0  0  0  0  0  0
  182.8530  179.1940  142.1510 C   0  0  2  0  0  3  0  0  0  0  0  0
  181.4150  178.8340  142.0970 C   0  0  0  0  0  0  0  0  0  0  0  0
  182.8730  176.2060  140.4730 C   0  0  0  0  0  1  0  0  0  0  0  0
  181.1200  177.9040  140.9870 C   0  0  2  0  0  3  0  0  0  0  0  0
  183.5020  178.5060  141.0340 N   0  0  0  0  0  0  0  0  0  0  0  0
  182.4930  177.6740  140.3560 C   0  0  1  0  0  3  0  0  0  0  0  0
  180.3840  179.9480  139.7660 N   0  0  0  0  0  0  0  0  0  0  0  0
  180.0750  177.7090  138.7110 C   0  0  0  0  0  3  0  0  0  0  0  0
  180.0160  179.7350  137.4430 N   0  0  0  0  0  2  0  0  0  0  0  0
  180.3020  180.5170  138.6050 C   0  0  0  0  0  0  0  0  0  0  0  0
  180.1290  178.5160  139.9850 C   0  0  1  0  0  3  0  0  0  0  0  0
  179.9610  178.3060  137.5190 C   0  0  0  0  0  0  0  0  0  0  0  0
  180.5260  181.9830  138.4780 C   0  0  0  0  0  1  0  0  0  0  0  0
  179.8340  177.5130  136.2830 C   0  0  0  0  0  0  0  0  0  0  0  0
  179.6390  178.1870  134.9560 C   0  0  0  0  0  1  0  0  0  0  0  0
  179.9300  176.2210  136.3500 N   0  0  0  0  0  0  0  0  0  0  0  0
  179.8280  175.4110  135.2410 O   0  0  0  0  0  0  0  0  0  0  0  0
  181.3470  171.3580  134.5950 C   0  0  0  0  0  1  0  0  0  0  0  0
  179.9230  174.0050  135.3910 C   0  0  1  0  0  3  0  0  0  0  0  0
  181.4270  172.0890  135.9290 C   0  0  1  0  0  3  0  0  0  0  0  0
  181.2800  173.5370  135.7380 N   0  0  0  0  0  0  0  0  0  0  0  0
  178.9450  173.5500  136.4620 C   0  0  0  0  0  2  0  0  0  0  0  0
  180.3910  171.5620  136.9270 C   0  0  0  0  0  2  0  0  0  0  0  0
  178.9810  172.0310  136.5750 C   0  0  0  0  0  2  0  0  0  0  0  0
  184.1300  175.7650  134.6570 C   0  0  0  0  0  3  0  0  0  0  0  0
  182.9720  174.9810  134.6100 C   0  0  0  0  0  3  0  0  0  0  0  0
  186.2690  176.8940  135.9290 Cl  0  0  0  0  0  0  0  0  0  0  0  0
  182.4730  174.3590  135.7650 C   0  0  0  0  0  0  0  0  0  0  0  0
  183.1700  174.5440  136.9730 C   0  0  0  0  0  3  0  0  0  0  0  0
  184.3320  175.3200  137.0220 C   0  0  0  0  0  3  0  0  0  0  0  0
  184.8100  175.9340  135.8650 C   0  0  0  0  0  0  0  0  0  0  0  0
  183.4640  178.7170  143.4620 C   0  0  0  0  0  2  0  0  0  0  0  0
  184.7800  179.4260  143.6970 C   0  0  0  0  0  2  0  0  0  0  0  0
  185.7520  178.5010  144.2600 N   0  0  0  0  0  2  0  0  0  0  0  0
  186.3010  177.7180  143.1620 C   0  0  2  0  0  3  0  0  0  0  0  0
  189.5940  178.4090  144.3010 S   0  0  0  0  0  0  0  0  0  0  0  0
  187.5310  176.8170  145.0900 N   0  0  0  0  0  2  0  0  0  0  0  0
  188.7890  177.3300  143.1440 C   0  0  1  0  0  3  0  0  0  0  0  0
  189.6850  176.3440  142.2280 S   0  0  0  0  0  0  0  0  0  0  0  0
  188.3320  177.9570  145.5400 C   0  0  1  0  0  3  0  0  0  0  0  0
  187.4740  176.8420  143.6310 C   0  0  2  0  0  3  0  0  0  0  0  0
  190.5240  177.4240  141.0650 C   0  0  2  0  0  3  0  0  0  0  0  0
  190.4980  176.7820  139.6910 C   0  0  2  0  0  3  0  0  0  0  0  0
  191.7510  176.7200  140.5320 C   0  0  0  0  0  2  0  0  0  0  0  0
  190.6730  177.8420  138.6140 C   0  0  0  0  0  2  0  0  0  0  0  0
  189.5260  177.9180  136.3530 C   0  0  0  0  0  0  0  0  0  0  0  0
  190.3620  177.2580  137.2690 C   0  0  0  0  0  0  0  0  0  0  0  0
  189.3490  177.4020  135.1090 N   0  0  0  0  0  0  0  0  0  0  0  0
  188.8580  179.2030  136.7040 C   0  0  0  0  0  1  0  0  0  0  0  0
  190.7860  175.5540  135.6040 C   0  0  0  0  0  3  0  0  0  0  0  0
  189.9580  176.2460  134.7190 C   0  0  0  0  0  3  0  0  0  0  0  0
  190.9850  176.0660  136.8830 C   0  0  0  0  0  3  0  0  0  0  0  0
  189.4550  177.4020  147.8440 N   0  0  0  0  0  0  0  0  0  0  0  0
  188.9540  177.6410  146.8250 C   0  0  0  0  0  0  0  0  0  0  0  0
  186.7730  178.6530  142.0550 C   0  0  0  0  0  2  0  0  0  0  0  0
  186.7870  177.9050  140.7350 C   0  0  0  0  0  1  0  0  0  0  0  0
  1  7  1  0  0  0  0
  3 34  1  1  0  0  0
  4  3  1  0  0  0  0
  4  2  2  0  0  0  0
  6  4  1  1  0  0  0
  7  3  1  0  0  0  0
  8  5  1  1  0  0  0
  8  6  1  0  0  0  0
  8  7  1  0  0  0  0
  9 13  1  0  0  0  0
 11 14  1  0  0  0  0
 11 12  1  0  0  0  0
 12  9  2  0  0  0  0
 13 10  1  6  0  0  0
 13  6  1  0  0  0  0
 14 10  2  0  0  0  0
 15 12  1  0  0  0  0
 16 18  2  0  0  0  0
 16 14  1  0  0  0  0
 17 16  1  0  0  0  0
 19 18  1  0  0  0  0
 21 19  1  1  0  0  0
 21 23  1  0  0  0  0
 21 24  1  0  0  0  0
 22 20  1  6  0  0  0
 22 25  1  0  0  0  0
 23 30  1  0  0  0  0
 23 22  1  0  0  0  0
 24 26  1  0  0  0  0
 26 25  1  0  0  0  0
 27 33  1  0  0  0  0
 28 27  2  0  0  0  0
 28 30  1  0  0  0  0
 30 31  2  0  0  0  0
 31 32  1  0  0  0  0
 33 29  1  0  0  0  0
 33 32  2  0  0  0  0
 34 35  1  0  0  0  0
 35 36  1  0  0  0  0
 37 57  1  6  0  0  0
 37 36  1  0  0  0  0
 38 42  1  0  0  0  0
 39 42  1  0  0  0  0
 40 41  1  1  0  0  0
 40 43  1  0  0  0  0
 40 38  1  0  0  0  0
 42 56  1  1  0  0  0
 43 37  1  1  0  0  0
 43 39  1  0  0  0  0
 44 41  1  1  0  0  0
 45 47  1  6  0  0  0
 45 46  1  0  0  0  0
 45 44  1  0  0  0  0
 46 44  1  0  0  0  0
 48 51  1  0  0  0  0
 48 49  1  0  0  0  0
 49 47  1  0  0  0  0
 50 48  2  0  0  0  0
 52 54  1  0  0  0  0
 53 50  1  0  0  0  0
 53 52  2  0  0  0  0
 54 49  2  0  0  0  0
 56 55  3  0  0  0  0
 58 57  1  0  0  0  0
M  END
>  <MODEL>
7

>  <REMARK>
 VINA RESULT:      -5.4      3.157      9.015
  Name = 
  15 active torsions:
  status: ('A' for Active; 'I' for Inactive)
    1  A    between atoms: C_2  and  C_25
    2  A    between atoms: C_5  and  C_7
    3  A    between atoms: C_5  and  N_8
    4  A    between atoms: C_7  and  C_22
    5  A    between atoms: N_8  and  C_15
    6  A    between atoms: C_9  and  O_39
    7  A    between atoms: N_12  and  C_49
    8  A    between atoms: C_14  and  C_15
    9  A    between atoms: C_15  and  C_56
   10  A    between atoms: C_17  and  C_46
   11  A    between atoms: C_18  and  S_43
   12  A    between atoms: C_25  and  C_28
   13  A    between atoms: N_35  and  O_39
   14  A    between atoms: C_40  and  C_45
   15  A    between atoms: C_47  and  C_54
                            x       y       z     vdW  Elec       q    Type
                         _______ _______ _______ _____ _____    ______ ____

>  <TORSDO>
F 15

$$$$
=
 OpenBabel10222418233D

 58 64  0  0  1  0  0  0  0  0999 V2000
  186.0720  176.7010  138.4870 C   0  0  0  0  0  1  0  0  0  0  0  0
  187.0840  178.6020  134.5980 C   0  0  0  0  0  2  0  0  0  0  0  0
  185.7100  177.3750  136.2720 C   0  0  2  0  0  3  0  0  0  0  0  0
  186.9220  177.5780  135.4420 C   0  0  0  0  0  0  0  0  0  0  0  0
  187.1300  174.2560  136.2120 C   0  0  0  0  0  1  0  0  0  0  0  0
  187.9550  176.5570  135.7150 C   0  0  2  0  0  3  0  0  0  0  0  0
  185.9720  176.2130  137.1230 N   0  0  0  0  0  0  0  0  0  0  0  0
  187.2900  175.6650  136.7630 C   0  0  1  0  0  3  0  0  0  0  0  0
  189.2470  177.2990  137.7130 N   0  0  0  0  0  0  0  0  0  0  0  0
  190.4660  176.4870  135.6940 C   0  0  0  0  0  3  0  0  0  0  0  0
  191.5040  176.6180  137.8430 N   0  0  0  0  0  2  0  0  0  0  0  0
  190.2890  177.0680  138.4460 C   0  0  0  0  0  0  0  0  0  0  0  0
  189.2510  177.1910  136.2450 C   0  0  1  0  0  3  0  0  0  0  0  0
  191.5480  176.2790  136.4520 C   0  0  0  0  0  0  0  0  0  0  0  0
  190.2150  177.2500  139.9220 C   0  0  0  0  0  1  0  0  0  0  0  0
  192.7610  175.6590  135.8900 C   0  0  0  0  0  0  0  0  0  0  0  0
  194.1140  176.2630  136.1300 C   0  0  0  0  0  1  0  0  0  0  0  0
  192.6500  174.5580  135.2110 N   0  0  0  0  0  0  0  0  0  0  0  0
  193.7340  173.9140  134.6590 O   0  0  0  0  0  0  0  0  0  0  0  0
  195.5610  169.9390  134.7910 C   0  0  0  0  0  1  0  0  0  0  0  0
  193.7980  172.4990  134.6900 C   0  0  1  0  0  3  0  0  0  0  0  0
  194.6820  170.5040  135.9000 C   0  0  1  0  0  3  0  0  0  0  0  0
  194.6050  171.9680  135.8080 N   0  0  0  0  0  0  0  0  0  0  0  0
  192.3890  171.9380  134.7770 C   0  0  0  0  0  2  0  0  0  0  0  0
  193.2830  169.8810  135.8860 C   0  0  0  0  0  2  0  0  0  0  0  0
  192.4400  170.4160  134.7300 C   0  0  0  0  0  2  0  0  0  0  0  0
  197.5250  173.8290  137.3120 C   0  0  0  0  0  3  0  0  0  0  0  0
  196.7560  173.0700  136.4230 C   0  0  0  0  0  3  0  0  0  0  0  0
  197.9240  175.2140  139.6330 Cl  0  0  0  0  0  0  0  0  0  0  0  0
  195.4180  172.7580  136.7100 C   0  0  0  0  0  0  0  0  0  0  0  0
  194.8710  173.2270  137.9180 C   0  0  0  0  0  3  0  0  0  0  0  0
  195.6390  173.9790  138.8120 C   0  0  0  0  0  3  0  0  0  0  0  0
  196.9650  174.2830  138.5070 C   0  0  0  0  0  0  0  0  0  0  0  0
  184.5080  177.0880  135.3820 C   0  0  0  0  0  2  0  0  0  0  0  0
  183.4490  176.3560  136.1780 C   0  0  0  0  0  2  0  0  0  0  0  0
  182.1240  176.7270  135.7050 N   0  0  0  0  0  2  0  0  0  0  0  0
  181.1500  176.0650  136.5620 C   0  0  2  0  0  3  0  0  0  0  0  0
  179.1730  176.6670  139.4520 S   0  0  0  0  0  0  0  0  0  0  0  0
  181.2630  175.0490  138.7980 N   0  0  0  0  0  2  0  0  0  0  0  0
  180.6240  177.3320  138.6740 C   0  0  1  0  0  3  0  0  0  0  0  0
  181.3480  178.6230  139.3240 S   0  0  0  0  0  0  0  0  0  0  0  0
  179.8610  174.9930  139.2130 C   0  0  1  0  0  3  0  0  0  0  0  0
  181.4720  176.2850  138.0490 C   0  0  2  0  0  3  0  0  0  0  0  0
  180.2200  179.9880  139.0240 C   0  0  2  0  0  3  0  0  0  0  0  0
  180.5530  180.6150  137.6840 C   0  0  2  0  0  3  0  0  0  0  0  0
  181.0080  181.2760  138.9630 C   0  0  0  0  0  2  0  0  0  0  0  0
  179.3440  181.3610  137.1400 C   0  0  0  0  0  2  0  0  0  0  0  0
  180.2510  183.4410  136.0070 C   0  0  0  0  0  0  0  0  0  0  0  0
  179.6250  182.8330  137.1080 C   0  0  0  0  0  0  0  0  0  0  0  0
  180.3990  184.7900  135.9770 N   0  0  0  0  0  0  0  0  0  0  0  0
  180.7210  182.6360  134.8440 C   0  0  0  0  0  1  0  0  0  0  0  0
  179.3450  185.0160  138.1130 C   0  0  0  0  0  3  0  0  0  0  0  0
  179.9610  185.5820  136.9960 C   0  0  0  0  0  3  0  0  0  0  0  0
  179.1800  183.6340  138.1640 C   0  0  0  0  0  3  0  0  0  0  0  0
  179.6440  173.5670  141.4030 N   0  0  0  0  0  0  0  0  0  0  0  0
  179.7450  174.2030  140.4390 C   0  0  0  0  0  0  0  0  0  0  0  0
  181.1350  174.5710  136.2590 C   0  0  0  0  0  2  0  0  0  0  0  0
  179.8080  174.1990  135.6230 C   0  0  0  0  0  1  0  0  0  0  0  0
  2  4  2  0  0  0  0
  3 34  1  6  0  0  0
  3  7  1  0  0  0  0
  4  3  1  0  0  0  0
  6  4  1  1  0  0  0
  6 13  1  0  0  0  0
  6  8  1  0  0  0  0
  7  1  1  0  0  0  0
  8  5  1  6  0  0  0
  8  7  1  0  0  0  0
  9 12  2  0  0  0  0
 10 14  2  0  0  0  0
 11 12  1  0  0  0  0
 12 15  1  0  0  0  0
 13 10  1  1  0  0  0
 13  9  1  0  0  0  0
 14 11  1  0  0  0  0
 16 17  1  0  0  0  0
 16 14  1  0  0  0  0
 18 16  2  0  0  0  0
 19 18  1  0  0  0  0
 21 19  1  1  0  0  0
 21 24  1  0  0  0  0
 21 23  1  0  0  0  0
 22 20  1  6  0  0  0
 23 22  1  0  0  0  0
 23 30  1  0  0  0  0
 25 22  1  0  0  0  0
 26 24  1  0  0  0  0
 26 25  1  0  0  0  0
 27 33  1  0  0  0  0
 28 30  1  0  0  0  0
 28 27  2  0  0  0  0
 30 31  2  0  0  0  0
 31 32  1  0  0  0  0
 33 32  2  0  0  0  0
 33 29  1  0  0  0  0
 34 35  1  0  0  0  0
 36 35  1  0  0  0  0
 36 37  1  0  0  0  0
 37 57  1  1  0  0  0
 39 42  1  0  0  0  0
 40 41  1  1  0  0  0
 40 38  1  0  0  0  0
 42 38  1  0  0  0  0
 42 56  1  1  0  0  0
 43 37  1  6  0  0  0
 43 40  1  0  0  0  0
 43 39  1  0  0  0  0
 44 41  1  6  0  0  0
 45 47  1  1  0  0  0
 45 46  1  0  0  0  0
 45 44  1  0  0  0  0
 46 44  1  0  0  0  0
 48 49  1  0  0  0  0
 49 47  1  0  0  0  0
 49 54  2  0  0  0  0
 50 48  2  0  0  0  0
 50 53  1  0  0  0  0
 51 48  1  0  0  0  0
 52 54  1  0  0  0  0
 53 52  2  0  0  0  0
 56 55  3  0  0  0  0
 58 57  1  0  0  0  0
M  END
>  <MODEL>
8

>  <REMARK>
 VINA RESULT:      -5.2      4.785      9.890
  Name = 
  15 active torsions:
  status: ('A' for Active; 'I' for Inactive)
    1  A    between atoms: C_2  and  C_25
    2  A    between atoms: C_5  and  C_7
    3  A    between atoms: C_5  and  N_8
    4  A    between atoms: C_7  and  C_22
    5  A    between atoms: N_8  and  C_15
    6  A    between atoms: C_9  and  O_39
    7  A    between atoms: N_12  and  C_49
    8  A    between atoms: C_14  and  C_15
    9  A    between atoms: C_15  and  C_56
   10  A    between atoms: C_17  and  C_46
   11  A    between atoms: C_18  and  S_43
   12  A    between atoms: C_25  and  C_28
   13  A    between atoms: N_35  and  O_39
   14  A    between atoms: C_40  and  C_45
   15  A    between atoms: C_47  and  C_54
                            x       y       z     vdW  Elec       q    Type
                         _______ _______ _______ _____ _____    ______ ____

>  <TORSDO>
F 15

$$$$
=
 OpenBabel10222418233D

 58 64  0  0  1  0  0  0  0  0999 V2000
  185.6920  179.4260  146.3200 C   0  0  0  0  0  1  0  0  0  0  0  0
  186.2150  178.9220  141.9350 C   0  0  0  0  0  2  0  0  0  0  0  0
  185.0270  178.9600  144.1210 C   0  0  2  0  0  3  0  0  0  0  0  0
  186.0930  178.5010  143.1970 C   0  0  0  0  0  0  0  0  0  0  0  0
  186.0770  176.0290  145.5540 C   0  0  0  0  0  1  0  0  0  0  0  0
  187.0430  177.5860  143.8620 C   0  0  2  0  0  3  0  0  0  0  0  0
  185.3070  178.3500  145.4230 N   0  0  0  0  0  0  0  0  0  0  0  0
  186.4780  177.4700  145.2770 C   0  0  1  0  0  3  0  0  0  0  0  0
  189.2600  177.6520  145.0000 N   0  0  0  0  0  0  0  0  0  0  0  0
  189.1390  177.9530  142.5270 C   0  0  0  0  0  3  0  0  0  0  0  0
  191.1700  177.3660  143.6420 N   0  0  0  0  0  2  0  0  0  0  0  0
  190.5080  177.3200  144.9070 C   0  0  0  0  0  0  0  0  0  0  0  0
  188.4710  178.1550  143.8640 C   0  0  1  0  0  3  0  0  0  0  0  0
  190.4370  177.6380  142.4420 C   0  0  0  0  0  0  0  0  0  0  0  0
  191.2490  176.8680  146.1180 C   0  0  0  0  0  1  0  0  0  0  0  0
  191.1040  177.5140  141.1340 C   0  0  0  0  0  0  0  0  0  0  0  0
  192.6020  177.4650  141.0380 C   0  0  0  0  0  1  0  0  0  0  0  0
  190.3780  177.4130  140.0630 N   0  0  0  0  0  0  0  0  0  0  0  0
  190.9260  177.2890  138.8060 O   0  0  0  0  0  0  0  0  0  0  0  0
  189.7270  176.8630  134.6180 C   0  0  0  0  0  1  0  0  0  0  0  0
  190.0860  176.9880  137.7040 C   0  0  1  0  0  3  0  0  0  0  0  0
  189.8550  175.6920  135.5850 C   0  0  1  0  0  3  0  0  0  0  0  0
  190.6950  176.0560  136.7330 N   0  0  0  0  0  0  0  0  0  0  0  0
  188.7820  176.4000  138.2170 C   0  0  0  0  0  2  0  0  0  0  0  0
  188.4840  175.1880  136.0480 C   0  0  0  0  0  2  0  0  0  0  0  0
  187.8400  176.1470  137.0470 C   0  0  0  0  0  2  0  0  0  0  0  0
  194.3880  175.7500  136.0130 C   0  0  0  0  0  3  0  0  0  0  0  0
  193.0680  176.2130  135.9840 C   0  0  0  0  0  3  0  0  0  0  0  0
  196.3670  174.0570  136.8390 Cl  0  0  0  0  0  0  0  0  0  0  0  0
  192.0690  175.5980  136.7530 C   0  0  0  0  0  0  0  0  0  0  0  0
  192.4300  174.4990  137.5540 C   0  0  0  0  0  3  0  0  0  0  0  0
  193.7460  174.0280  137.5790 C   0  0  0  0  0  3  0  0  0  0  0  0
  194.7250  174.6550  136.8120 C   0  0  0  0  0  0  0  0  0  0  0  0
  183.6660  178.4900  143.6260 C   0  0  0  0  0  2  0  0  0  0  0  0
  183.4450  178.9750  142.2090 C   0  0  0  0  0  2  0  0  0  0  0  0
  182.9600  177.8840  141.3780 N   0  0  0  0  0  2  0  0  0  0  0  0
  182.4280  178.4670  140.1530 C   0  0  2  0  0  3  0  0  0  0  0  0
  180.4300  176.1880  138.3000 S   0  0  0  0  0  0  0  0  0  0  0  0
  180.5150  177.0970  140.8650 N   0  0  0  0  0  2  0  0  0  0  0  0
  180.4870  177.9290  138.6420 C   0  0  1  0  0  3  0  0  0  0  0  0
  179.4080  178.9080  137.9410 S   0  0  0  0  0  0  0  0  0  0  0  0
  180.6700  175.8700  140.0810 C   0  0  1  0  0  3  0  0  0  0  0  0
  180.9150  178.2280  140.0330 C   0  0  2  0  0  3  0  0  0  0  0  0
  179.8760  178.9490  136.2080 C   0  0  2  0  0  3  0  0  0  0  0  0
  181.3630  178.6700  136.0940 C   0  0  2  0  0  3  0  0  0  0  0  0
  180.8480  180.0850  135.9840 C   0  0  0  0  0  2  0  0  0  0  0  0
  181.6920  178.1510  134.7020 C   0  0  0  0  0  2  0  0  0  0  0  0
  182.4400  175.7270  134.7090 C   0  0  0  0  0  0  0  0  0  0  0  0
  182.7520  177.0940  134.7900 C   0  0  0  0  0  0  0  0  0  0  0  0
  183.4390  174.8080  134.6950 N   0  0  0  0  0  0  0  0  0  0  0  0
  181.0290  175.2630  134.5940 C   0  0  0  0  0  1  0  0  0  0  0  0
  185.1010  176.5200  134.8600 C   0  0  0  0  0  3  0  0  0  0  0  0
  184.7500  175.1720  134.7660 C   0  0  0  0  0  3  0  0  0  0  0  0
  184.0940  177.4810  134.8730 C   0  0  0  0  0  3  0  0  0  0  0  0
  178.9780  174.0550  140.9280 N   0  0  0  0  0  0  0  0  0  0  0  0
  179.7270  174.8600  140.5610 C   0  0  0  0  0  0  0  0  0  0  0  0
  183.1380  177.8600  138.9490 C   0  0  0  0  0  2  0  0  0  0  0  0
  184.4190  178.6290  138.6800 C   0  0  0  0  0  1  0  0  0  0  0  0
  2  4  2  0  0  0  0
  3 34  1  6  0  0  0
  3  7  1  0  0  0  0
  4  3  1  0  0  0  0
  6  4  1  6  0  0  0
  6 13  1  0  0  0  0
  6  8  1  0  0  0  0
  7  1  1  0  0  0  0
  8  7  1  0  0  0  0
  8  5  1  6  0  0  0
 11 12  1  0  0  0  0
 12  9  2  0  0  0  0
 12 15  1  0  0  0  0
 13 10  1  6  0  0  0
 13  9  1  0  0  0  0
 14 10  2  0  0  0  0
 14 11  1  0  0  0  0
 16 14  1  0  0  0  0
 17 16  1  0  0  0  0
 18 16  2  0  0  0  0
 19 18  1  0  0  0  0
 21 24  1  0  0  0  0
 21 19  1  1  0  0  0
 22 20  1  6  0  0  0
 22 25  1  0  0  0  0
 22 23  1  0  0  0  0
 23 30  1  0  0  0  0
 23 21  1  0  0  0  0
 25 26  1  0  0  0  0
 26 24  1  0  0  0  0
 27 33  1  0  0  0  0
 28 27  2  0  0  0  0
 28 30  1  0  0  0  0
 30 31  2  0  0  0  0
 31 32  1  0  0  0  0
 33 29  1  0  0  0  0
 33 32  2  0  0  0  0
 35 34  1  0  0  0  0
 36 35  1  0  0  0  0
 37 57  1  6  0  0  0
 37 36  1  0  0  0  0
 38 40  1  0  0  0  0
 38 42  1  0  0  0  0
 40 41  1  1  0  0  0
 40 43  1  0  0  0  0
 42 56  1  1  0  0  0
 42 39  1  0  0  0  0
 43 37  1  6  0  0  0
 43 39  1  0  0  0  0
 44 41  1  1  0  0  0
 45 47  1  6  0  0  0
 45 44  1  0  0  0  0
 46 45  1  0  0  0  0
 46 44  1  0  0  0  0
 47 49  1  0  0  0  0
 48 49  1  0  0  0  0
 49 54  2  0  0  0  0
 50 48  2  0  0  0  0
 50 53  1  0  0  0  0
 51 48  1  0  0  0  0
 52 54  1  0  0  0  0
 53 52  2  0  0  0  0
 56 55  3  0  0  0  0
 58 57  1  0  0  0  0
M  END
>  <MODEL>
9

>  <REMARK>
 VINA RESULT:      -5.2      2.852      8.037
  Name = 
  15 active torsions:
  status: ('A' for Active; 'I' for Inactive)
    1  A    between atoms: C_2  and  C_25
    2  A    between atoms: C_5  and  C_7
    3  A    between atoms: C_5  and  N_8
    4  A    between atoms: C_7  and  C_22
    5  A    between atoms: N_8  and  C_15
    6  A    between atoms: C_9  and  O_39
    7  A    between atoms: N_12  and  C_49
    8  A    between atoms: C_14  and  C_15
    9  A    between atoms: C_15  and  C_56
   10  A    between atoms: C_17  and  C_46
   11  A    between atoms: C_18  and  S_43
   12  A    between atoms: C_25  and  C_28
   13  A    between atoms: N_35  and  O_39
   14  A    between atoms: C_40  and  C_45
   15  A    between atoms: C_47  and  C_54
                            x       y       z     vdW  Elec       q    Type
                         _______ _______ _______ _____ _____    ______ ____

>  <TORSDO>
F 15

$$$$
