=
 OpenBabel10222418093D

 25 28  0  0  1  0  0  0  0  0999 V2000
  191.2220  177.4580  143.1690 C   0  0  0  0  0  0  0  0  0  0  0  0
  191.4830  178.6100  142.8590 O   0  0  0  0  0  0  0  0  0  0  0  0
  191.7380  176.8850  144.4540 C   0  0  2  0  0  3  0  0  0  0  0  0
  191.6350  175.4940  144.4200 O   0  0  0  0  0  1  0  0  0  0  0  0
  190.9500  177.4220  145.6400 C   0  0  0  0  0  2  0  0  0  0  0  0
  191.9930  176.9360  147.7210 O   0  0  0  0  0  1  0  0  0  0  0  0
  191.0350  176.4710  146.8190 C   0  0  1  0  0  3  0  0  0  0  0  0
  189.7410  176.4010  147.4840 N   0  0  0  0  0  2  0  0  0  0  0  0
  188.9160  178.3230  148.5380 C   0  0  0  0  0  2  0  0  0  0  0  0
  187.8450  177.3080  146.5960 O   0  0  0  0  0  0  0  0  0  0  0  0
  189.0480  177.6480  147.2140 C   0  0  1  0  0  0  0  0  0  0  0  0
  186.9140  178.8970  147.7560 F   0  0  0  0  0  0  0  0  0  0  0  0
  187.6770  177.7570  147.9100 C   0  0  2  0  0  0  0  0  0  0  0  0
  190.3860  176.6210  142.2540 C   0  0  0  0  0  2  0  0  0  0  0  0
  186.6180  178.4780  141.4970 C   0  0  0  0  0  0  0  0  0  0  0  0
  184.3360  179.0620  142.3440 N   0  0  0  0  0  0  0  0  0  0  0  0
  188.1340  177.3440  142.9540 N   0  0  0  0  0  0  0  0  0  0  0  0
  186.9220  177.9260  142.7510 C   0  0  0  0  0  0  0  0  0  0  0  0
  189.0720  177.2720  141.9710 C   0  0  0  0  0  0  0  0  0  0  0  0
  187.5720  178.4220  140.4750 C   0  0  0  0  0  3  0  0  0  0  0  0
  184.5970  178.5680  143.5170 C   0  0  0  0  0  3  0  0  0  0  0  0
  188.8070  177.8200  140.7110 C   0  0  0  0  0  3  0  0  0  0  0  0
  184.9970  179.6070  140.1800 O   0  0  0  0  0  0  0  0  0  0  0  0
  185.2980  179.0850  141.2850 C   0  0  0  0  0  0  0  0  0  0  0  0
  185.9440  177.9990  143.8920 C   0  0  0  0  0  2  0  0  0  0  0  0
  1  3  1  0  0  0  0
  2  1  2  0  0  0  0
  3  4  1  6  0  0  0
  3  5  1  0  0  0  0
  5  7  1  0  0  0  0
  7  8  1  0  0  0  0
  7  6  1  1  0  0  0
 10 11  1  0  0  0  0
 10 13  1  0  0  0  0
 11  8  1  1  0  0  0
 11 13  1  0  0  0  0
 11  9  1  0  0  0  0
 13 12  1  6  0  0  0
 13  9  1  0  0  0  0
 14  1  1  0  0  0  0
 15 18  1  0  0  0  0
 16 21  2  0  0  0  0
 18 17  2  0  0  0  0
 18 25  1  0  0  0  0
 19 14  1  0  0  0  0
 19 17  1  0  0  0  0
 20 22  1  0  0  0  0
 20 15  2  0  0  0  0
 21 25  1  0  0  0  0
 22 19  2  0  0  0  0
 23 24  2  0  0  0  0
 24 15  1  0  0  0  0
 24 16  1  0  0  0  0
M  END
>  <MODEL>
1

>  <REMARK>
 VINA RESULT:      -7.9      0.000      0.000
  Name = 
  7 active torsions:
  status: ('A' for Active; 'I' for Inactive)
    1  A    between atoms: C_2  and  C_6
    2  A    between atoms: C_2  and  C_25
    3  A    between atoms: C_6  and  C_13
    4  A    between atoms: C_9  and  N_24
    5  A    between atoms: C_13  and  C_22
    6  A    between atoms: C_14  and  C_25
    7  A    between atoms: C_22  and  N_24
                            x       y       z     vdW  Elec       q    Type
                         _______ _______ _______ _____ _____    ______ ____

>  <TORSDO>
F 7

$$$$
=
 OpenBabel10222418093D

 25 28  0  0  1  0  0  0  0  0999 V2000
  189.9350  176.6050  142.9600 C   0  0  0  0  0  0  0  0  0  0  0  0
  190.1750  175.4120  142.8610 O   0  0  0  0  0  0  0  0  0  0  0  0
  190.6950  177.4520  143.9350 C   0  0  2  0  0  3  0  0  0  0  0  0
  191.4220  178.4230  143.2450 O   0  0  0  0  0  1  0  0  0  0  0  0
  191.6470  176.5990  144.7620 C   0  0  0  0  0  2  0  0  0  0  0  0
  192.2110  176.5380  147.0720 O   0  0  0  0  0  1  0  0  0  0  0  0
  191.1380  176.4500  146.1850 C   0  0  1  0  0  3  0  0  0  0  0  0
  190.1840  177.5120  146.4750 N   0  0  0  0  0  2  0  0  0  0  0  0
  188.4040  176.7380  147.7860 C   0  0  0  0  0  2  0  0  0  0  0  0
  189.8180  178.6150  148.4380 O   0  0  0  0  0  0  0  0  0  0  0  0
  189.7630  177.3490  147.8550 C   0  0  1  0  0  0  0  0  0  0  0  0
  187.9860  178.0990  149.4950 F   0  0  0  0  0  0  0  0  0  0  0  0
  188.5100  178.1700  148.2200 C   0  0  2  0  0  0  0  0  0  0  0  0
  188.8710  177.2150  142.1050 C   0  0  0  0  0  2  0  0  0  0  0  0
  185.4150  178.2840  144.3710 C   0  0  0  0  0  0  0  0  0  0  0  0
  183.0380  179.0680  144.3670 N   0  0  0  0  0  0  0  0  0  0  0  0
  186.5090  177.9060  142.2820 N   0  0  0  0  0  0  0  0  0  0  0  0
  185.3880  178.2530  142.9690 C   0  0  0  0  0  0  0  0  0  0  0  0
  187.6720  177.5890  142.9130 C   0  0  0  0  0  0  0  0  0  0  0  0
  186.5980  177.9530  145.0400 C   0  0  0  0  0  3  0  0  0  0  0  0
  182.9840  179.0380  143.0690 C   0  0  0  0  0  3  0  0  0  0  0  0
  187.7330  177.5990  144.3110 C   0  0  0  0  0  3  0  0  0  0  0  0
  184.1840  178.7000  146.3590 O   0  0  0  0  0  0  0  0  0  0  0  0
  184.2040  178.6800  145.1000 C   0  0  0  0  0  0  0  0  0  0  0  0
  184.1280  178.5620  142.2060 C   0  0  0  0  0  2  0  0  0  0  0  0
  1  3  1  0  0  0  0
  2  1  2  0  0  0  0
  3  4  1  6  0  0  0
  3  5  1  0  0  0  0
  5  7  1  0  0  0  0
  7  8  1  0  0  0  0
  7  6  1  1  0  0  0
  9 11  1  0  0  0  0
  9 13  1  0  0  0  0
 11  8  1  6  0  0  0
 11 13  1  0  0  0  0
 11 10  1  0  0  0  0
 13 10  1  0  0  0  0
 13 12  1  1  0  0  0
 14 19  1  0  0  0  0
 14  1  1  0  0  0  0
 15 20  1  0  0  0  0
 15 24  1  0  0  0  0
 16 24  1  0  0  0  0
 17 19  2  0  0  0  0
 17 18  1  0  0  0  0
 18 15  2  0  0  0  0
 19 22  1  0  0  0  0
 21 16  2  0  0  0  0
 22 20  2  0  0  0  0
 24 23  2  0  0  0  0
 25 18  1  0  0  0  0
 25 21  1  0  0  0  0
M  END
>  <MODEL>
2

>  <REMARK>
 VINA RESULT:      -7.8      1.928      2.675
  Name = 
  7 active torsions:
  status: ('A' for Active; 'I' for Inactive)
    1  A    between atoms: C_2  and  C_6
    2  A    between atoms: C_2  and  C_25
    3  A    between atoms: C_6  and  C_13
    4  A    between atoms: C_9  and  N_24
    5  A    between atoms: C_13  and  C_22
    6  A    between atoms: C_14  and  C_25
    7  A    between atoms: C_22  and  N_24
                            x       y       z     vdW  Elec       q    Type
                         _______ _______ _______ _____ _____    ______ ____

>  <TORSDO>
F 7

$$$$
=
 OpenBabel10222418093D

 25 28  0  0  1  0  0  0  0  0999 V2000
  189.3430  177.3530  141.7020 C   0  0  0  0  0  0  0  0  0  0  0  0
  188.6950  177.8680  140.8040 O   0  0  0  0  0  0  0  0  0  0  0  0
  190.7700  177.7480  141.9290 C   0  0  2  0  0  3  0  0  0  0  0  0
  191.5680  177.2290  140.9100 O   0  0  0  0  0  1  0  0  0  0  0  0
  191.2640  177.2320  143.2730 C   0  0  0  0  0  2  0  0  0  0  0  0
  190.3230  179.0330  144.5080 O   0  0  0  0  0  1  0  0  0  0  0  0
  191.5250  178.3810  144.2300 C   0  0  1  0  0  3  0  0  0  0  0  0
  192.0930  177.8660  145.4680 N   0  0  0  0  0  2  0  0  0  0  0  0
  190.6970  177.0450  147.1600 C   0  0  0  0  0  2  0  0  0  0  0  0
  192.2020  175.6230  145.8720 O   0  0  0  0  0  0  0  0  0  0  0  0
  191.3160  176.7000  145.8480 C   0  0  1  0  0  0  0  0  0  0  0  0
  191.1440  174.9190  147.6390 F   0  0  0  0  0  0  0  0  0  0  0  0
  191.8010  176.0310  147.1490 C   0  0  2  0  0  0  0  0  0  0  0  0
  188.7010  176.3180  142.5700 C   0  0  0  0  0  2  0  0  0  0  0  0
  185.7540  178.0570  145.1210 C   0  0  0  0  0  0  0  0  0  0  0  0
  183.5820  179.2850  145.3200 N   0  0  0  0  0  0  0  0  0  0  0  0
  186.5450  177.4540  142.9490 N   0  0  0  0  0  0  0  0  0  0  0  0
  185.5840  178.0180  143.7290 C   0  0  0  0  0  0  0  0  0  0  0  0
  187.6820  176.9250  143.4770 C   0  0  0  0  0  0  0  0  0  0  0  0
  186.9120  177.5100  145.6850 C   0  0  0  0  0  3  0  0  0  0  0  0
  183.3960  179.2520  144.0340 C   0  0  0  0  0  3  0  0  0  0  0  0
  187.8810  176.9370  144.8610 C   0  0  0  0  0  3  0  0  0  0  0  0
  184.8270  178.7220  147.2040 O   0  0  0  0  0  0  0  0  0  0  0  0
  184.7190  178.6860  145.9500 C   0  0  0  0  0  0  0  0  0  0  0  0
  184.3370  178.5550  143.0810 C   0  0  0  0  0  2  0  0  0  0  0  0
  1  3  1  0  0  0  0
  1 14  1  0  0  0  0
  2  1  2  0  0  0  0
  3  4  1  6  0  0  0
  3  5  1  0  0  0  0
  5  7  1  0  0  0  0
  7  6  1  1  0  0  0
  7  8  1  0  0  0  0
 10 13  1  0  0  0  0
 11  8  1  6  0  0  0
 11 10  1  0  0  0  0
 11 13  1  0  0  0  0
 11  9  1  0  0  0  0
 13  9  1  0  0  0  0
 13 12  1  6  0  0  0
 14 19  1  0  0  0  0
 15 20  1  0  0  0  0
 15 24  1  0  0  0  0
 16 24  1  0  0  0  0
 17 19  2  0  0  0  0
 17 18  1  0  0  0  0
 18 15  2  0  0  0  0
 19 22  1  0  0  0  0
 21 16  2  0  0  0  0
 22 20  2  0  0  0  0
 24 23  2  0  0  0  0
 25 18  1  0  0  0  0
 25 21  1  0  0  0  0
M  END
>  <MODEL>
3

>  <REMARK>
 VINA RESULT:      -7.7      2.340      3.688
  Name = 
  7 active torsions:
  status: ('A' for Active; 'I' for Inactive)
    1  A    between atoms: C_2  and  C_6
    2  A    between atoms: C_2  and  C_25
    3  A    between atoms: C_6  and  C_13
    4  A    between atoms: C_9  and  N_24
    5  A    between atoms: C_13  and  C_22
    6  A    between atoms: C_14  and  C_25
    7  A    between atoms: C_22  and  N_24
                            x       y       z     vdW  Elec       q    Type
                         _______ _______ _______ _____ _____    ______ ____

>  <TORSDO>
F 7

$$$$
=
 OpenBabel10222418093D

 25 28  0  0  1  0  0  0  0  0999 V2000
  190.6220  177.4270  144.9670 C   0  0  0  0  0  0  0  0  0  0  0  0
  191.0670  178.5580  144.8480 O   0  0  0  0  0  0  0  0  0  0  0  0
  190.9800  176.3640  143.9730 C   0  0  2  0  0  3  0  0  0  0  0  0
  192.0200  175.5830  144.4780 O   0  0  0  0  0  1  0  0  0  0  0  0
  191.4070  176.9840  142.6510 C   0  0  0  0  0  2  0  0  0  0  0  0
  189.4030  175.8410  142.0720 O   0  0  0  0  0  1  0  0  0  0  0  0
  190.4010  176.6710  141.5590 C   0  0  1  0  0  3  0  0  0  0  0  0
  189.7990  177.9080  141.0800 N   0  0  0  0  0  2  0  0  0  0  0  0
  189.9530  177.4340  138.7910 C   0  0  0  0  0  2  0  0  0  0  0  0
  188.0560  178.6020  139.7820 O   0  0  0  0  0  0  0  0  0  0  0  0
  188.9900  177.5750  139.9210 C   0  0  1  0  0  0  0  0  0  0  0  0
  188.3430  178.4390  137.6310 F   0  0  0  0  0  0  0  0  0  0  0  0
  189.0510  178.6320  138.8000 C   0  0  2  0  0  0  0  0  0  0  0  0
  189.7090  177.1120  146.1090 C   0  0  0  0  0  2  0  0  0  0  0  0
  185.7150  178.3410  145.2420 C   0  0  0  0  0  0  0  0  0  0  0  0
  183.9820  178.8430  143.5070 N   0  0  0  0  0  0  0  0  0  0  0  0
  187.8640  177.5720  144.5380 N   0  0  0  0  0  0  0  0  0  0  0  0
  186.5990  177.9580  144.2220 C   0  0  0  0  0  0  0  0  0  0  0  0
  188.3100  177.5480  145.8230 C   0  0  0  0  0  0  0  0  0  0  0  0
  186.1510  178.3150  146.5710 C   0  0  0  0  0  3  0  0  0  0  0  0
  184.7780  178.4830  142.5440 C   0  0  0  0  0  3  0  0  0  0  0  0
  187.4530  177.9130  146.8670 C   0  0  0  0  0  3  0  0  0  0  0  0
  183.5310  179.1070  145.7750 O   0  0  0  0  0  0  0  0  0  0  0  0
  184.3590  178.7750  144.8850 C   0  0  0  0  0  0  0  0  0  0  0  0
  186.1630  177.9310  142.7820 C   0  0  0  0  0  2  0  0  0  0  0  0
  1 14  1  0  0  0  0
  2  1  2  0  0  0  0
  3  4  1  1  0  0  0
  3  1  1  0  0  0  0
  5  3  1  0  0  0  0
  7  6  1  1  0  0  0
  7  5  1  0  0  0  0
  8  7  1  0  0  0  0
  9 13  1  0  0  0  0
  9 11  1  0  0  0  0
 10 11  1  0  0  0  0
 11  8  1  1  0  0  0
 13 12  1  6  0  0  0
 13 10  1  0  0  0  0
 13 11  1  0  0  0  0
 15 20  1  0  0  0  0
 16 24  1  0  0  0  0
 17 19  2  0  0  0  0
 18 17  1  0  0  0  0
 18 15  2  0  0  0  0
 19 14  1  0  0  0  0
 19 22  1  0  0  0  0
 20 22  2  0  0  0  0
 21 25  1  0  0  0  0
 21 16  2  0  0  0  0
 24 15  1  0  0  0  0
 24 23  2  0  0  0  0
 25 18  1  0  0  0  0
M  END
>  <MODEL>
4

>  <REMARK>
 VINA RESULT:      -7.7      2.774      5.289
  Name = 
  7 active torsions:
  status: ('A' for Active; 'I' for Inactive)
    1  A    between atoms: C_2  and  C_6
    2  A    between atoms: C_2  and  C_25
    3  A    between atoms: C_6  and  C_13
    4  A    between atoms: C_9  and  N_24
    5  A    between atoms: C_13  and  C_22
    6  A    between atoms: C_14  and  C_25
    7  A    between atoms: C_22  and  N_24
                            x       y       z     vdW  Elec       q    Type
                         _______ _______ _______ _____ _____    ______ ____

>  <TORSDO>
F 7

$$$$
=
 OpenBabel10222418093D

 25 28  0  0  1  0  0  0  0  0999 V2000
  190.3170  176.9620  142.3870 C   0  0  0  0  0  0  0  0  0  0  0  0
  191.2190  177.5160  142.9940 O   0  0  0  0  0  0  0  0  0  0  0  0
  190.1190  177.2190  140.9230 C   0  0  2  0  0  3  0  0  0  0  0  0
  191.3490  177.4950  140.3260 O   0  0  0  0  0  1  0  0  0  0  0  0
  189.1750  178.3930  140.7050 C   0  0  0  0  0  2  0  0  0  0  0  0
  186.8830  178.6620  140.1300 O   0  0  0  0  0  1  0  0  0  0  0  0
  188.0590  178.0160  139.7470 C   0  0  1  0  0  3  0  0  0  0  0  0
  188.4180  178.4250  138.3960 N   0  0  0  0  0  2  0  0  0  0  0  0
  187.3850  176.9820  136.8670 C   0  0  0  0  0  2  0  0  0  0  0  0
  187.1870  179.4100  136.7460 O   0  0  0  0  0  0  0  0  0  0  0  0
  187.2290  178.2870  137.5730 C   0  0  1  0  0  0  0  0  0  0  0  0
  186.4920  178.0930  135.1590 F   0  0  0  0  0  0  0  0  0  0  0  0
  187.5270  178.2390  136.0610 C   0  0  2  0  0  0  0  0  0  0  0  0
  189.4050  176.0280  143.1170 C   0  0  0  0  0  2  0  0  0  0  0  0
  186.4070  178.1550  145.2860 C   0  0  0  0  0  0  0  0  0  0  0  0
  184.1870  179.3120  145.2530 N   0  0  0  0  0  0  0  0  0  0  0  0
  187.2060  177.1340  143.2800 N   0  0  0  0  0  0  0  0  0  0  0  0
  186.2280  177.8140  143.9370 C   0  0  0  0  0  0  0  0  0  0  0  0
  188.3680  176.7750  143.8900 C   0  0  0  0  0  0  0  0  0  0  0  0
  187.5900  177.7880  145.9340 C   0  0  0  0  0  3  0  0  0  0  0  0
  183.9930  178.9990  144.0070 C   0  0  0  0  0  3  0  0  0  0  0  0
  188.5760  177.0900  145.2370 C   0  0  0  0  0  3  0  0  0  0  0  0
  185.4680  179.2140  147.1940 O   0  0  0  0  0  0  0  0  0  0  0  0
  185.3520  178.9060  145.9780 C   0  0  0  0  0  0  0  0  0  0  0  0
  184.9550  178.1520  143.2100 C   0  0  0  0  0  2  0  0  0  0  0  0
  1  2  2  0  0  0  0
  1 14  1  0  0  0  0
  3  4  1  1  0  0  0
  3  1  1  0  0  0  0
  5  3  1  0  0  0  0
  7  6  1  1  0  0  0
  7  5  1  0  0  0  0
  8  7  1  0  0  0  0
  9 11  1  0  0  0  0
 10 11  1  0  0  0  0
 11  8  1  1  0  0  0
 13 12  1  6  0  0  0
 13 10  1  0  0  0  0
 13  9  1  0  0  0  0
 13 11  1  0  0  0  0
 14 19  1  0  0  0  0
 15 20  1  0  0  0  0
 15 24  1  0  0  0  0
 16 24  1  0  0  0  0
 17 19  2  0  0  0  0
 17 18  1  0  0  0  0
 18 15  2  0  0  0  0
 19 22  1  0  0  0  0
 21 16  2  0  0  0  0
 22 20  2  0  0  0  0
 24 23  2  0  0  0  0
 25 18  1  0  0  0  0
 25 21  1  0  0  0  0
M  END
>  <MODEL>
5

>  <REMARK>
 VINA RESULT:      -7.7      3.472      6.635
  Name = 
  7 active torsions:
  status: ('A' for Active; 'I' for Inactive)
    1  A    between atoms: C_2  and  C_6
    2  A    between atoms: C_2  and  C_25
    3  A    between atoms: C_6  and  C_13
    4  A    between atoms: C_9  and  N_24
    5  A    between atoms: C_13  and  C_22
    6  A    between atoms: C_14  and  C_25
    7  A    between atoms: C_22  and  N_24
                            x       y       z     vdW  Elec       q    Type
                         _______ _______ _______ _____ _____    ______ ____

>  <TORSDO>
F 7

$$$$
=
 OpenBabel10222418093D

 25 28  0  0  1  0  0  0  0  0999 V2000
  191.0380  177.5120  145.0380 C   0  0  0  0  0  0  0  0  0  0  0  0
  191.5880  178.5020  144.5790 O   0  0  0  0  0  0  0  0  0  0  0  0
  190.6990  177.4420  146.4960 C   0  0  2  0  0  3  0  0  0  0  0  0
  191.7520  176.8500  147.1940 O   0  0  0  0  0  1  0  0  0  0  0  0
  189.4280  176.6330  146.7150 C   0  0  0  0  0  2  0  0  0  0  0  0
  188.9130  178.3770  148.2480 O   0  0  0  0  0  1  0  0  0  0  0  0
  188.3410  177.4950  147.3310 C   0  0  1  0  0  3  0  0  0  0  0  0
  187.6690  178.2540  146.2850 N   0  0  0  0  0  2  0  0  0  0  0  0
  185.8100  178.0000  144.8830 C   0  0  0  0  0  2  0  0  0  0  0  0
  185.6320  178.6910  147.2150 O   0  0  0  0  0  0  0  0  0  0  0  0
  186.2710  177.8610  146.2950 C   0  0  1  0  0  0  0  0  0  0  0  0
  183.9490  178.7580  145.8380 F   0  0  0  0  0  0  0  0  0  0  0  0
  185.3080  178.9940  145.8880 C   0  0  2  0  0  0  0  0  0  0  0  0
  190.7110  176.3670  144.1340 C   0  0  0  0  0  2  0  0  0  0  0  0
  188.7330  177.6710  140.5830 C   0  0  0  0  0  0  0  0  0  0  0  0
  188.8300  178.0040  138.1040 N   0  0  0  0  0  0  0  0  0  0  0  0
  190.6080  176.6890  141.6900 N   0  0  0  0  0  0  0  0  0  0  0  0
  190.0110  177.0930  140.5370 C   0  0  0  0  0  0  0  0  0  0  0  0
  190.0060  176.8320  142.9020 C   0  0  0  0  0  0  0  0  0  0  0  0
  188.0930  177.8190  141.8180 C   0  0  0  0  0  3  0  0  0  0  0  0
  190.0090  177.4620  138.0330 C   0  0  0  0  0  3  0  0  0  0  0  0
  188.7280  177.3940  142.9850 C   0  0  0  0  0  3  0  0  0  0  0  0
  186.9540  178.6270  139.3330 O   0  0  0  0  0  0  0  0  0  0  0  0
  188.1080  178.1210  139.3340 C   0  0  0  0  0  0  0  0  0  0  0  0
  190.7210  176.8760  139.2280 C   0  0  0  0  0  2  0  0  0  0  0  0
  1  3  1  0  0  0  0
  2  1  2  0  0  0  0
  3  5  1  0  0  0  0
  3  4  1  1  0  0  0
  5  7  1  0  0  0  0
  7  6  1  1  0  0  0
  8  7  1  0  0  0  0
  9 13  1  0  0  0  0
  9 11  1  0  0  0  0
 11  8  1  6  0  0  0
 11 10  1  0  0  0  0
 13 12  1  1  0  0  0
 13 11  1  0  0  0  0
 13 10  1  0  0  0  0
 14  1  1  0  0  0  0
 15 20  1  0  0  0  0
 16 24  1  0  0  0  0
 17 19  2  0  0  0  0
 18 15  2  0  0  0  0
 18 17  1  0  0  0  0
 19 22  1  0  0  0  0
 19 14  1  0  0  0  0
 20 22  2  0  0  0  0
 21 16  2  0  0  0  0
 21 25  1  0  0  0  0
 23 24  2  0  0  0  0
 24 15  1  0  0  0  0
 25 18  1  0  0  0  0
M  END
>  <MODEL>
6

>  <REMARK>
 VINA RESULT:      -7.7      2.127      3.602
  Name = 
  7 active torsions:
  status: ('A' for Active; 'I' for Inactive)
    1  A    between atoms: C_2  and  C_6
    2  A    between atoms: C_2  and  C_25
    3  A    between atoms: C_6  and  C_13
    4  A    between atoms: C_9  and  N_24
    5  A    between atoms: C_13  and  C_22
    6  A    between atoms: C_14  and  C_25
    7  A    between atoms: C_22  and  N_24
                            x       y       z     vdW  Elec       q    Type
                         _______ _______ _______ _____ _____    ______ ____

>  <TORSDO>
F 7

$$$$
=
 OpenBabel10222418093D

 25 28  0  0  1  0  0  0  0  0999 V2000
  186.0780  178.6960  147.1310 C   0  0  0  0  0  0  0  0  0  0  0  0
  186.1300  179.9130  147.2190 O   0  0  0  0  0  0  0  0  0  0  0  0
  187.1600  177.8470  147.7270 C   0  0  2  0  0  3  0  0  0  0  0  0
  187.9990  178.6400  148.5100 O   0  0  0  0  0  1  0  0  0  0  0  0
  187.9760  177.1700  146.6350 C   0  0  0  0  0  2  0  0  0  0  0  0
  190.3320  176.9710  146.8960 O   0  0  0  0  0  1  0  0  0  0  0  0
  189.3270  177.8440  146.4760 C   0  0  1  0  0  3  0  0  0  0  0  0
  189.5390  178.1860  145.0770 N   0  0  0  0  0  2  0  0  0  0  0  0
  191.6660  178.6220  144.1970 C   0  0  0  0  0  2  0  0  0  0  0  0
  190.3930  176.6120  143.6640 O   0  0  0  0  0  0  0  0  0  0  0  0
  190.7600  177.5270  144.6500 C   0  0  1  0  0  0  0  0  0  0  0  0
  192.2180  177.1610  142.6130 F   0  0  0  0  0  0  0  0  0  0  0  0
  191.0770  177.7200  143.1540 C   0  0  2  0  0  0  0  0  0  0  0  0
  184.9290  178.0590  146.4180 C   0  0  0  0  0  2  0  0  0  0  0  0
  185.1520  178.7690  142.2150 C   0  0  0  0  0  0  0  0  0  0  0  0
  186.5410  178.7410  140.1320 N   0  0  0  0  0  0  0  0  0  0  0  0
  186.1280  178.0190  144.2620 N   0  0  0  0  0  0  0  0  0  0  0  0
  186.2380  178.2320  142.9230 C   0  0  0  0  0  0  0  0  0  0  0  0
  184.9910  178.3170  144.9480 C   0  0  0  0  0  0  0  0  0  0  0  0
  183.9710  179.0730  142.8990 C   0  0  0  0  0  3  0  0  0  0  0  0
  187.5570  178.2340  140.7640 C   0  0  0  0  0  3  0  0  0  0  0  0
  183.8850  178.8440  144.2720 C   0  0  0  0  0  3  0  0  0  0  0  0
  184.3320  179.4750  140.1000 O   0  0  0  0  0  0  0  0  0  0  0  0
  185.2910  179.0130  140.7740 C   0  0  0  0  0  0  0  0  0  0  0  0
  187.5140  177.8500  142.2230 C   0  0  0  0  0  2  0  0  0  0  0  0
  1  2  2  0  0  0  0
  1  3  1  0  0  0  0
  3  4  1  6  0  0  0
  5  3  1  0  0  0  0
  7  5  1  0  0  0  0
  7  6  1  6  0  0  0
  8  7  1  0  0  0  0
  9 11  1  0  0  0  0
 10 11  1  0  0  0  0
 11  8  1  1  0  0  0
 13 12  1  1  0  0  0
 13 10  1  0  0  0  0
 13  9  1  0  0  0  0
 13 11  1  0  0  0  0
 14  1  1  0  0  0  0
 15 20  2  0  0  0  0
 15 18  1  0  0  0  0
 16 21  2  0  0  0  0
 16 24  1  0  0  0  0
 17 19  1  0  0  0  0
 18 17  2  0  0  0  0
 19 14  1  0  0  0  0
 20 22  1  0  0  0  0
 21 25  1  0  0  0  0
 22 19  2  0  0  0  0
 23 24  2  0  0  0  0
 24 15  1  0  0  0  0
 25 18  1  0  0  0  0
M  END
>  <MODEL>
7

>  <REMARK>
 VINA RESULT:      -7.7      2.267      4.521
  Name = 
  7 active torsions:
  status: ('A' for Active; 'I' for Inactive)
    1  A    between atoms: C_2  and  C_6
    2  A    between atoms: C_2  and  C_25
    3  A    between atoms: C_6  and  C_13
    4  A    between atoms: C_9  and  N_24
    5  A    between atoms: C_13  and  C_22
    6  A    between atoms: C_14  and  C_25
    7  A    between atoms: C_22  and  N_24
                            x       y       z     vdW  Elec       q    Type
                         _______ _______ _______ _____ _____    ______ ____

>  <TORSDO>
F 7

$$$$
=
 OpenBabel10222418093D

 25 28  0  0  1  0  0  0  0  0999 V2000
  191.1930  177.4480  145.0780 C   0  0  0  0  0  0  0  0  0  0  0  0
  191.7690  178.4110  144.5970 O   0  0  0  0  0  0  0  0  0  0  0  0
  190.8890  177.4010  146.5450 C   0  0  2  0  0  3  0  0  0  0  0  0
  191.9400  176.7800  147.2210 O   0  0  0  0  0  1  0  0  0  0  0  0
  189.5990  176.6360  146.8030 C   0  0  0  0  0  2  0  0  0  0  0  0
  189.3270  178.2550  148.5250 O   0  0  0  0  0  1  0  0  0  0  0  0
  188.6220  177.4820  147.6010 C   0  0  1  0  0  3  0  0  0  0  0  0
  187.8860  178.3580  146.7000 N   0  0  0  0  0  2  0  0  0  0  0  0
  186.0050  177.4580  145.6330 C   0  0  0  0  0  2  0  0  0  0  0  0
  185.8800  179.3190  147.2040 O   0  0  0  0  0  0  0  0  0  0  0  0
  186.4730  178.0940  146.8990 C   0  0  1  0  0  0  0  0  0  0  0  0
  184.1880  178.6930  145.9860 F   0  0  0  0  0  0  0  0  0  0  0  0
  185.5570  178.8600  145.9230 C   0  0  2  0  0  0  0  0  0  0  0  0
  190.7990  176.3100  144.1910 C   0  0  0  0  0  2  0  0  0  0  0  0
  188.7010  177.7110  140.7480 C   0  0  0  0  0  0  0  0  0  0  0  0
  186.5950  178.6710  139.7960 N   0  0  0  0  0  0  0  0  0  0  0  0
  188.8330  177.3260  143.1020 N   0  0  0  0  0  0  0  0  0  0  0  0
  188.1320  177.7810  142.0290 C   0  0  0  0  0  0  0  0  0  0  0  0
  190.0780  176.7920  142.9760 C   0  0  0  0  0  0  0  0  0  0  0  0
  189.9840  177.1750  140.5980 C   0  0  0  0  0  3  0  0  0  0  0  0
  186.0490  178.7570  140.9730 C   0  0  0  0  0  3  0  0  0  0  0  0
  190.6800  176.7160  141.7160 C   0  0  0  0  0  3  0  0  0  0  0  0
  188.4110  178.1590  138.4340 O   0  0  0  0  0  0  0  0  0  0  0  0
  187.9270  178.1880  139.5960 C   0  0  0  0  0  0  0  0  0  0  0  0
  186.7720  178.3880  142.2460 C   0  0  0  0  0  2  0  0  0  0  0  0
  1  3  1  0  0  0  0
  2  1  2  0  0  0  0
  3  5  1  0  0  0  0
  3  4  1  1  0  0  0
  5  7  1  0  0  0  0
  7  6  1  1  0  0  0
  8  7  1  0  0  0  0
  9 13  1  0  0  0  0
  9 11  1  0  0  0  0
 11  8  1  6  0  0  0
 11 10  1  0  0  0  0
 13 12  1  1  0  0  0
 13 11  1  0  0  0  0
 13 10  1  0  0  0  0
 14  1  1  0  0  0  0
 15 18  1  0  0  0  0
 16 21  2  0  0  0  0
 18 25  1  0  0  0  0
 18 17  2  0  0  0  0
 19 17  1  0  0  0  0
 19 14  1  0  0  0  0
 20 15  2  0  0  0  0
 20 22  1  0  0  0  0
 21 25  1  0  0  0  0
 22 19  2  0  0  0  0
 23 24  2  0  0  0  0
 24 16  1  0  0  0  0
 24 15  1  0  0  0  0
M  END
>  <MODEL>
8

>  <REMARK>
 VINA RESULT:      -7.6      1.872      2.700
  Name = 
  7 active torsions:
  status: ('A' for Active; 'I' for Inactive)
    1  A    between atoms: C_2  and  C_6
    2  A    between atoms: C_2  and  C_25
    3  A    between atoms: C_6  and  C_13
    4  A    between atoms: C_9  and  N_24
    5  A    between atoms: C_13  and  C_22
    6  A    between atoms: C_14  and  C_25
    7  A    between atoms: C_22  and  N_24
                            x       y       z     vdW  Elec       q    Type
                         _______ _______ _______ _____ _____    ______ ____

>  <TORSDO>
F 7

$$$$
=
 OpenBabel10222418093D

 25 28  0  0  1  0  0  0  0  0999 V2000
  188.9250  177.8330  141.0760 C   0  0  0  0  0  0  0  0  0  0  0  0
  188.6520  179.0110  141.2440 O   0  0  0  0  0  0  0  0  0  0  0  0
  189.2650  177.3220  139.7080 C   0  0  2  0  0  3  0  0  0  0  0  0
  190.6110  176.9570  139.6660 O   0  0  0  0  0  1  0  0  0  0  0  0
  188.9950  178.3850  138.6530 C   0  0  0  0  0  2  0  0  0  0  0  0
  187.5850  176.5960  137.9700 O   0  0  0  0  0  1  0  0  0  0  0  0
  187.9440  177.9100  137.6660 C   0  0  1  0  0  3  0  0  0  0  0  0
  186.7690  178.7650  137.7550 N   0  0  0  0  0  2  0  0  0  0  0  0
  184.6020  177.8850  137.8790 C   0  0  0  0  0  2  0  0  0  0  0  0
  185.6930  179.0010  139.7530 O   0  0  0  0  0  0  0  0  0  0  0  0
  185.8410  178.1300  138.6740 C   0  0  1  0  0  0  0  0  0  0  0  0
  183.5830  178.4640  139.7700 F   0  0  0  0  0  0  0  0  0  0  0  0
  184.5630  178.9540  138.9290 C   0  0  2  0  0  0  0  0  0  0  0  0
  188.9120  176.9010  142.2450 C   0  0  0  0  0  2  0  0  0  0  0  0
  186.0550  178.1500  145.1610 C   0  0  0  0  0  0  0  0  0  0  0  0
  183.7610  179.0290  145.6370 N   0  0  0  0  0  0  0  0  0  0  0  0
  186.6680  177.6900  142.8980 N   0  0  0  0  0  0  0  0  0  0  0  0
  185.7310  178.0950  143.7970 C   0  0  0  0  0  0  0  0  0  0  0  0
  187.9260  177.3390  143.2780 C   0  0  0  0  0  0  0  0  0  0  0  0
  187.3410  177.7840  145.5730 C   0  0  0  0  0  3  0  0  0  0  0  0
  183.4320  178.9770  144.3810 C   0  0  0  0  0  3  0  0  0  0  0  0
  188.2820  177.3720  144.6300 C   0  0  0  0  0  3  0  0  0  0  0  0
  185.2890  178.6520  147.3520 O   0  0  0  0  0  0  0  0  0  0  0  0
  185.0410  178.6070  146.1180 C   0  0  0  0  0  0  0  0  0  0  0  0
  184.3490  178.4390  143.3100 C   0  0  0  0  0  2  0  0  0  0  0  0
  1  2  2  0  0  0  0
  1 14  1  0  0  0  0
  3  4  1  1  0  0  0
  3  1  1  0  0  0  0
  5  3  1  0  0  0  0
  7  8  1  0  0  0  0
  7  6  1  1  0  0  0
  7  5  1  0  0  0  0
  9 11  1  0  0  0  0
  9 13  1  0  0  0  0
 11  8  1  6  0  0  0
 11 13  1  0  0  0  0
 11 10  1  0  0  0  0
 13 10  1  0  0  0  0
 13 12  1  1  0  0  0
 14 19  1  0  0  0  0
 15 20  1  0  0  0  0
 15 24  1  0  0  0  0
 16 24  1  0  0  0  0
 17 19  2  0  0  0  0
 17 18  1  0  0  0  0
 18 15  2  0  0  0  0
 19 22  1  0  0  0  0
 21 16  2  0  0  0  0
 22 20  2  0  0  0  0
 24 23  2  0  0  0  0
 25 18  1  0  0  0  0
 25 21  1  0  0  0  0
M  END
>  <MODEL>
9

>  <REMARK>
 VINA RESULT:      -7.5      3.422      6.461
  Name = 
  7 active torsions:
  status: ('A' for Active; 'I' for Inactive)
    1  A    between atoms: C_2  and  C_6
    2  A    between atoms: C_2  and  C_25
    3  A    between atoms: C_6  and  C_13
    4  A    between atoms: C_9  and  N_24
    5  A    between atoms: C_13  and  C_22
    6  A    between atoms: C_14  and  C_25
    7  A    between atoms: C_22  and  N_24
                            x       y       z     vdW  Elec       q    Type
                         _______ _______ _______ _____ _____    ______ ____

>  <TORSDO>
F 7

$$$$
