=
 OpenBabel10222420523D

 48 50  0  0  1  0  0  0  0  0999 V2000
  182.5910  178.3830  141.0850 C   0  0  0  0  0  0  0  0  0  0  0  0
  180.8160  179.5440  143.3220 C   0  0  0  0  0  3  0  0  0  0  0  0
  181.1460  178.1170  140.7860 C   0  0  0  0  0  2  0  0  0  0  0  0
  182.9950  178.7010  142.3400 C   0  0  0  0  0  0  0  0  0  0  0  0
  180.1590  179.9600  142.0680 C   0  0  0  0  0  3  0  0  0  0  0  0
  180.3280  179.3670  140.8860 C   0  0  0  0  0  0  0  0  0  0  0  0
  182.0320  178.9930  143.4340 C   0  0  0  0  0  3  0  0  0  0  0  0
  185.1520  179.6830  142.2590 O   0  0  0  0  0  0  0  0  0  0  0  0
  184.9780  177.8060  143.6430 N   0  0  0  0  0  2  0  0  0  0  0  0
  184.4290  178.7580  142.7200 C   0  0  0  0  0  0  0  0  0  0  0  0
  188.9790  177.5400  145.0290 C   0  0  0  0  0  0  0  0  0  0  0  0
  187.9670  178.0070  145.8720 C   0  0  0  0  0  3  0  0  0  0  0  0
  186.3370  177.7130  144.0940 C   0  0  0  0  0  0  0  0  0  0  0  0
  188.6760  177.1660  143.7180 C   0  0  0  0  0  3  0  0  0  0  0  0
  187.3610  177.2500  143.2520 C   0  0  0  0  0  3  0  0  0  0  0  0
  186.6500  178.0910  145.4090 C   0  0  0  0  0  0  0  0  0  0  0  0
  185.6540  178.5500  146.2630 O   0  0  0  0  0  1  0  0  0  0  0  0
  190.3840  177.4650  145.5210 C   0  0  0  0  0  2  0  0  0  0  0  0
  190.4440  176.6900  146.8230 C   0  0  2  0  0  3  0  0  0  0  0  0
  191.5910  177.1620  147.6110 N   0  0  0  0  0  2  0  0  0  0  0  0
  191.6680  175.9000  146.8630 C   0  0  0  0  0  2  0  0  0  0  0  0
  179.6830  179.9290  139.7740 O   0  0  0  0  0  0  0  0  0  0  0  0
  179.9770  179.6670  138.4280 C   0  0  0  0  0  0  0  0  0  0  0  0
  179.6030  178.6060  137.8610 O   0  0  0  0  0  0  0  0  0  0  0  0
  180.7180  180.6860  137.6400 C   0  0  0  0  0  2  0  0  0  0  0  0
  180.8410  181.9640  138.4440 C   0  0  0  0  0  2  0  0  0  0  0  0
  179.9180  183.0170  137.8670 C   0  0  0  0  0  2  0  0  0  0  0  0
  180.1240  185.4830  136.7450 O   0  0  0  0  0  1  0  0  0  0  0  0
  181.0930  183.5260  135.3050 O   0  0  0  0  0  0  0  0  0  0  0  0
  180.8740  184.1760  136.8510 P   0  0  0  0  0  0  0  0  0  0  0  0
  182.3820  184.4510  137.5670 O   0  0  0  0  0  1  0  0  0  0  0  0
  183.5710  178.2700  139.9430 C   0  0  1  0  0  3  0  0  0  0  0  0
  183.2530  177.1290  139.0070 C   0  0  0  0  0  0  0  0  0  0  0  0
  182.9700  175.9900  139.4730 O   0  0  0  0  0  0  0  0  0  0  0  0
  183.3690  177.3080  137.5920 N   0  0  0  0  0  2  0  0  0  0  0  0
  181.6700  176.3670  136.1310 C   0  0  0  0  0  1  0  0  0  0  0  0
  183.0940  176.2410  136.6420 C   0  0  1  0  0  3  0  0  0  0  0  0
  185.1890  175.6320  135.4560 C   0  0  0  0  0  3  0  0  0  0  0  0
  184.0570  176.3310  135.5030 C   0  0  0  0  0  3  0  0  0  0  0  0
  185.5630  174.7450  136.5100 N   0  0  0  0  0  2  0  0  0  0  0  0
  186.8920  174.7970  137.0980 C   0  0  0  0  0  2  0  0  0  0  0  0
  187.8860  175.3920  136.1140 C   0  0  0  0  0  2  0  0  0  0  0  0
  188.8780  176.0890  136.8030 O   0  0  0  0  0  0  0  0  0  0  0  0
  188.2350  176.5980  137.9290 C   0  0  0  0  0  2  0  0  0  0  0  0
  187.9090  177.9380  137.7170 O   0  0  0  0  0  0  0  0  0  0  0  0
  189.0380  178.6440  138.1340 C   0  0  0  0  0  1  0  0  0  0  0  0
  183.7000  179.5850  139.2350 C   0  0  0  0  0  3  0  0  0  0  0  0
  184.7990  180.0700  139.0210 O   0  0  0  0  0  0  0  0  0  0  0  0
  1  4  2  0  0  0  0
  2  7  2  0  0  0  0
  3  6  1  0  0  0  0
  3  1  1  0  0  0  0
  4 10  1  0  0  0  0
  4  7  1  0  0  0  0
  5  2  1  0  0  0  0
  6  5  2  0  0  0  0
  8 10  2  0  0  0  0
  9 13  1  0  0  0  0
 10  9  1  0  0  0  0
 11 18  1  0  0  0  0
 11 12  1  0  0  0  0
 13 16  1  0  0  0  0
 14 11  2  0  0  0  0
 15 14  1  0  0  0  0
 15 13  2  0  0  0  0
 16 12  2  0  0  0  0
 16 17  1  0  0  0  0
 19 18  1  6  0  0  0
 19 21  1  0  0  0  0
 19 20  1  0  0  0  0
 21 20  1  0  0  0  0
 22  6  1  0  0  0  0
 23 22  1  0  0  0  0
 24 23  2  0  0  0  0
 25 23  1  0  0  0  0
 25 26  1  0  0  0  0
 27 26  1  0  0  0  0
 28 30  1  0  0  0  0
 29 30  2  0  0  0  0
 30 31  1  0  0  0  0
 30 27  1  0  0  0  0
 32 47  1  6  0  0  0
 32  1  1  0  0  0  0
 33 34  2  0  0  0  0
 33 32  1  0  0  0  0
 35 33  1  0  0  0  0
 37 36  1  6  0  0  0
 37 35  1  0  0  0  0
 38 39  2  0  0  0  0
 38 40  1  0  0  0  0
 39 37  1  0  0  0  0
 40 41  1  0  0  0  0
 42 43  1  0  0  0  0
 42 41  1  0  0  0  0
 43 44  1  0  0  0  0
 45 44  1  0  0  0  0
 45 46  1  0  0  0  0
 48 47  2  0  0  0  0
M  END
>  <MODEL>
1

>  <REMARK>
 VINA RESULT:      -7.1      0.000      0.000
  Name = 
  21 active torsions:
  status: ('A' for Active; 'I' for Inactive)
    1  A    between atoms: C_1  and  C_19
    2  A    between atoms: C_4  and  N_37
    3  A    between atoms: C_6  and  C_35
    4  A    between atoms: C_7  and  C_12
    5  A    between atoms: C_7  and  O_26
    6  A    between atoms: C_8  and  O_31
    7  A    between atoms: C_8  and  C_33
    8  A    between atoms: C_9  and  C_23
    9  A    between atoms: C_9  and  N_24
   10  A    between atoms: C_10  and  C_35
   11  A    between atoms: O_11  and  C_18
   12  A    between atoms: C_12  and  N_14
   13  A    between atoms: C_13  and  C_19
   14  A    between atoms: N_14  and  C_22
   15  A    between atoms: C_16  and  C_35
   16  A    between atoms: C_18  and  O_26
   17  A    between atoms: C_25  and  C_28
   18  A    between atoms: C_25  and  P_34
   19  A    between atoms: C_28  and  C_33
   20  A    between atoms: O_31  and  C_43
   21  A    between atoms: C_36  and  C_42
                            x       y       z     vdW  Elec       q    Type
                         _______ _______ _______ _____ _____    ______ ____

>  <TORSDO>
F 21

$$$$
=
 OpenBabel10222420523D

 48 50  0  0  1  0  0  0  0  0999 V2000
  182.5890  178.4180  141.2260 C   0  0  0  0  0  0  0  0  0  0  0  0
  180.8140  179.5320  143.4870 C   0  0  0  0  0  3  0  0  0  0  0  0
  181.1450  178.1380  140.9320 C   0  0  0  0  0  2  0  0  0  0  0  0
  182.9970  178.7270  142.4820 C   0  0  0  0  0  0  0  0  0  0  0  0
  180.1440  179.9530  142.2410 C   0  0  0  0  0  3  0  0  0  0  0  0
  180.3120  179.3760  141.0520 C   0  0  0  0  0  0  0  0  0  0  0  0
  182.0370  178.9950  143.5850 C   0  0  0  0  0  3  0  0  0  0  0  0
  185.1050  179.8130  142.5240 O   0  0  0  0  0  0  0  0  0  0  0  0
  185.0390  177.7510  143.6250 N   0  0  0  0  0  2  0  0  0  0  0  0
  184.4330  178.7970  142.8530 C   0  0  0  0  0  0  0  0  0  0  0  0
  189.0700  177.4900  144.9230 C   0  0  0  0  0  0  0  0  0  0  0  0
  188.0770  177.9620  145.7860 C   0  0  0  0  0  3  0  0  0  0  0  0
  186.4080  177.6600  144.0460 C   0  0  0  0  0  0  0  0  0  0  0  0
  188.7380  177.1100  143.6210 C   0  0  0  0  0  3  0  0  0  0  0  0
  187.4130  177.1930  143.1840 C   0  0  0  0  0  3  0  0  0  0  0  0
  186.7500  178.0440  145.3520 C   0  0  0  0  0  0  0  0  0  0  0  0
  185.7730  178.5080  146.2260 O   0  0  0  0  0  1  0  0  0  0  0  0
  190.4850  177.4170  145.3840 C   0  0  0  0  0  2  0  0  0  0  0  0
  190.5860  176.5790  146.6430 C   0  0  2  0  0  3  0  0  0  0  0  0
  191.6490  177.1220  147.5000 N   0  0  0  0  0  2  0  0  0  0  0  0
  191.8840  175.9200  146.6880 C   0  0  0  0  0  2  0  0  0  0  0  0
  179.6540  179.9420  139.9500 O   0  0  0  0  0  0  0  0  0  0  0  0
  179.7910  179.5450  138.6120 C   0  0  0  0  0  0  0  0  0  0  0  0
  179.1020  178.6110  138.1220 O   0  0  0  0  0  0  0  0  0  0  0  0
  180.7480  180.2730  137.7390 C   0  0  0  0  0  2  0  0  0  0  0  0
  180.5560  181.7660  137.9030 C   0  0  0  0  0  2  0  0  0  0  0  0
  180.7760  182.4550  136.5730 C   0  0  0  0  0  2  0  0  0  0  0  0
  181.0500  184.9360  135.4970 O   0  0  0  0  0  0  0  0  0  0  0  0
  182.4150  184.5220  137.6890 O   0  0  0  0  0  1  0  0  0  0  0  0
  180.9830  184.2380  136.8360 P   0  0  0  0  0  0  0  0  0  0  0  0
  179.6710  184.8410  137.7170 O   0  0  0  0  0  1  0  0  0  0  0  0
  183.5620  178.3300  140.0760 C   0  0  1  0  0  3  0  0  0  0  0  0
  183.2290  177.2210  139.1080 C   0  0  0  0  0  0  0  0  0  0  0  0
  183.0330  176.0480  139.5330 O   0  0  0  0  0  0  0  0  0  0  0  0
  183.2330  177.4730  137.6990 N   0  0  0  0  0  2  0  0  0  0  0  0
  181.4990  176.5750  136.2520 C   0  0  0  0  0  1  0  0  0  0  0  0
  182.9370  176.4410  136.7180 C   0  0  1  0  0  3  0  0  0  0  0  0
  184.3660  175.5360  134.8980 C   0  0  0  0  0  3  0  0  0  0  0  0
  183.8680  176.5810  135.5560 C   0  0  0  0  0  3  0  0  0  0  0  0
  184.0440  174.1960  135.2720 N   0  0  0  0  0  2  0  0  0  0  0  0
  185.0630  173.1600  135.3010 C   0  0  0  0  0  2  0  0  0  0  0  0
  184.5280  171.9060  135.9730 C   0  0  0  0  0  2  0  0  0  0  0  0
  183.9680  172.2310  137.2090 O   0  0  0  0  0  0  0  0  0  0  0  0
  182.7210  171.6100  137.2050 C   0  0  0  0  0  2  0  0  0  0  0  0
  181.7170  172.5770  137.1570 O   0  0  0  0  0  0  0  0  0  0  0  0
  180.5420  171.8800  137.4370 C   0  0  0  0  0  1  0  0  0  0  0  0
  183.7020  179.6640  139.4070 C   0  0  0  0  0  3  0  0  0  0  0  0
  184.7610  179.9970  138.9020 O   0  0  0  0  0  0  0  0  0  0  0  0
  1  4  2  0  0  0  0
  2  7  2  0  0  0  0
  3  6  1  0  0  0  0
  3  1  1  0  0  0  0
  4 10  1  0  0  0  0
  4  7  1  0  0  0  0
  5  2  1  0  0  0  0
  6  5  2  0  0  0  0
  8 10  2  0  0  0  0
  9 13  1  0  0  0  0
 10  9  1  0  0  0  0
 11 18  1  0  0  0  0
 11 12  1  0  0  0  0
 13 16  1  0  0  0  0
 14 11  2  0  0  0  0
 15 14  1  0  0  0  0
 15 13  2  0  0  0  0
 16 12  2  0  0  0  0
 16 17  1  0  0  0  0
 19 18  1  6  0  0  0
 19 21  1  0  0  0  0
 19 20  1  0  0  0  0
 21 20  1  0  0  0  0
 22  6  1  0  0  0  0
 23 22  1  0  0  0  0
 24 23  2  0  0  0  0
 25 26  1  0  0  0  0
 25 23  1  0  0  0  0
 27 30  1  0  0  0  0
 27 26  1  0  0  0  0
 28 30  2  0  0  0  0
 30 29  1  0  0  0  0
 30 31  1  0  0  0  0
 32 47  1  6  0  0  0
 32  1  1  0  0  0  0
 33 34  2  0  0  0  0
 33 32  1  0  0  0  0
 35 33  1  0  0  0  0
 37 36  1  6  0  0  0
 37 35  1  0  0  0  0
 38 40  1  0  0  0  0
 38 39  2  0  0  0  0
 39 37  1  0  0  0  0
 40 41  1  0  0  0  0
 41 42  1  0  0  0  0
 42 43  1  0  0  0  0
 44 43  1  0  0  0  0
 45 44  1  0  0  0  0
 45 46  1  0  0  0  0
 48 47  2  0  0  0  0
M  END
>  <MODEL>
2

>  <REMARK>
 VINA RESULT:      -6.7      1.725      2.669
  Name = 
  21 active torsions:
  status: ('A' for Active; 'I' for Inactive)
    1  A    between atoms: C_1  and  C_19
    2  A    between atoms: C_4  and  N_37
    3  A    between atoms: C_6  and  C_35
    4  A    between atoms: C_7  and  C_12
    5  A    between atoms: C_7  and  O_26
    6  A    between atoms: C_8  and  O_31
    7  A    between atoms: C_8  and  C_33
    8  A    between atoms: C_9  and  C_23
    9  A    between atoms: C_9  and  N_24
   10  A    between atoms: C_10  and  C_35
   11  A    between atoms: O_11  and  C_18
   12  A    between atoms: C_12  and  N_14
   13  A    between atoms: C_13  and  C_19
   14  A    between atoms: N_14  and  C_22
   15  A    between atoms: C_16  and  C_35
   16  A    between atoms: C_18  and  O_26
   17  A    between atoms: C_25  and  C_28
   18  A    between atoms: C_25  and  P_34
   19  A    between atoms: C_28  and  C_33
   20  A    between atoms: O_31  and  C_43
   21  A    between atoms: C_36  and  C_42
                            x       y       z     vdW  Elec       q    Type
                         _______ _______ _______ _____ _____    ______ ____

>  <TORSDO>
F 21

$$$$
=
 OpenBabel10222420523D

 48 50  0  0  1  0  0  0  0  0999 V2000
  182.6450  178.2970  141.2550 C   0  0  0  0  0  0  0  0  0  0  0  0
  180.8510  179.6650  143.3560 C   0  0  0  0  0  3  0  0  0  0  0  0
  181.2010  178.0190  140.9590 C   0  0  0  0  0  2  0  0  0  0  0  0
  183.0350  178.7200  142.4830 C   0  0  0  0  0  0  0  0  0  0  0  0
  180.2160  179.9750  142.0600 C   0  0  0  0  0  3  0  0  0  0  0  0
  180.3950  179.2800  140.9380 C   0  0  0  0  0  0  0  0  0  0  0  0
  182.0600  179.1160  143.5330 C   0  0  0  0  0  3  0  0  0  0  0  0
  185.1340  179.8200  142.5680 O   0  0  0  0  0  0  0  0  0  0  0  0
  185.0660  177.7480  143.6500 N   0  0  0  0  0  2  0  0  0  0  0  0
  184.4640  178.7970  142.8780 C   0  0  0  0  0  0  0  0  0  0  0  0
  189.0780  177.4980  145.0080 C   0  0  0  0  0  0  0  0  0  0  0  0
  188.0500  177.8420  145.8920 C   0  0  0  0  0  3  0  0  0  0  0  0
  186.4290  177.6630  144.0910 C   0  0  0  0  0  0  0  0  0  0  0  0
  188.7860  177.2440  143.6660 C   0  0  0  0  0  3  0  0  0  0  0  0
  187.4680  177.3240  143.2090 C   0  0  0  0  0  3  0  0  0  0  0  0
  186.7300  177.9210  145.4370 C   0  0  0  0  0  0  0  0  0  0  0  0
  185.7190  178.2550  146.3320 O   0  0  0  0  0  1  0  0  0  0  0  0
  190.4850  177.4290  145.4920 C   0  0  0  0  0  2  0  0  0  0  0  0
  190.5660  176.5980  146.7580 C   0  0  2  0  0  3  0  0  0  0  0  0
  191.6530  177.1120  147.6030 N   0  0  0  0  0  2  0  0  0  0  0  0
  191.8410  175.8960  146.8010 C   0  0  0  0  0  2  0  0  0  0  0  0
  179.7710  179.7470  139.7720 O   0  0  0  0  0  0  0  0  0  0  0  0
  180.3020  180.6780  138.8670 C   0  0  0  0  0  0  0  0  0  0  0  0
  181.4160  181.2340  139.0620 O   0  0  0  0  0  0  0  0  0  0  0  0
  179.5470  180.9870  137.6240 C   0  0  0  0  0  2  0  0  0  0  0  0
  180.3570  181.9240  136.7530 C   0  0  0  0  0  2  0  0  0  0  0  0
  179.5130  183.1220  136.3730 C   0  0  0  0  0  2  0  0  0  0  0  0
  179.7840  185.7600  136.9650 O   0  0  0  0  0  1  0  0  0  0  0  0
  180.9370  184.9990  134.7450 O   0  0  0  0  0  0  0  0  0  0  0  0
  180.5460  184.6130  136.3440 P   0  0  0  0  0  0  0  0  0  0  0  0
  181.9640  184.3400  137.2230 O   0  0  0  0  0  1  0  0  0  0  0  0
  183.6390  178.0760  140.1410 C   0  0  1  0  0  3  0  0  0  0  0  0
  183.0890  177.2220  139.0240 C   0  0  0  0  0  0  0  0  0  0  0  0
  183.2210  175.9670  139.0640 O   0  0  0  0  0  0  0  0  0  0  0  0
  182.5050  177.8380  137.8710 N   0  0  0  0  0  2  0  0  0  0  0  0
  180.5620  177.5280  136.4460 C   0  0  0  0  0  1  0  0  0  0  0  0
  181.9760  177.0690  136.7570 C   0  0  1  0  0  3  0  0  0  0  0  0
  183.4870  176.2570  134.9610 C   0  0  0  0  0  3  0  0  0  0  0  0
  182.8520  177.2610  135.5610 C   0  0  0  0  0  3  0  0  0  0  0  0
  183.3760  174.9150  135.4340 N   0  0  0  0  0  2  0  0  0  0  0  0
  184.5480  174.0610  135.5480 C   0  0  0  0  0  2  0  0  0  0  0  0
  185.4660  174.5620  136.6520 C   0  0  0  0  0  2  0  0  0  0  0  0
  185.6180  173.5770  137.6270 O   0  0  0  0  0  0  0  0  0  0  0  0
  186.7360  172.8500  137.2230 C   0  0  0  0  0  2  0  0  0  0  0  0
  187.8280  173.7070  137.0850 O   0  0  0  0  0  0  0  0  0  0  0  0
  188.7760  172.9600  136.3860 C   0  0  0  0  0  1  0  0  0  0  0  0
  184.1830  179.3860  139.6590 C   0  0  0  0  0  3  0  0  0  0  0  0
  185.3350  179.4740  139.2660 O   0  0  0  0  0  0  0  0  0  0  0  0
  1  4  2  0  0  0  0
  2  7  2  0  0  0  0
  3  1  1  0  0  0  0
  4 10  1  0  0  0  0
  4  7  1  0  0  0  0
  5  2  1  0  0  0  0
  6  3  1  0  0  0  0
  6  5  2  0  0  0  0
  8 10  2  0  0  0  0
  9 13  1  0  0  0  0
 10  9  1  0  0  0  0
 11 18  1  0  0  0  0
 11 12  1  0  0  0  0
 13 16  1  0  0  0  0
 14 11  2  0  0  0  0
 15 14  1  0  0  0  0
 15 13  2  0  0  0  0
 16 12  2  0  0  0  0
 16 17  1  0  0  0  0
 19 18  1  6  0  0  0
 19 21  1  0  0  0  0
 19 20  1  0  0  0  0
 21 20  1  0  0  0  0
 22  6  1  0  0  0  0
 23 24  2  0  0  0  0
 23 22  1  0  0  0  0
 25 23  1  0  0  0  0
 26 25  1  0  0  0  0
 27 26  1  0  0  0  0
 29 30  2  0  0  0  0
 30 27  1  0  0  0  0
 30 28  1  0  0  0  0
 30 31  1  0  0  0  0
 32 47  1  6  0  0  0
 32  1  1  0  0  0  0
 33 34  2  0  0  0  0
 33 32  1  0  0  0  0
 35 33  1  0  0  0  0
 37 36  1  6  0  0  0
 37 35  1  0  0  0  0
 38 40  1  0  0  0  0
 38 39  2  0  0  0  0
 39 37  1  0  0  0  0
 40 41  1  0  0  0  0
 41 42  1  0  0  0  0
 42 43  1  0  0  0  0
 44 43  1  0  0  0  0
 45 44  1  0  0  0  0
 46 45  1  0  0  0  0
 48 47  2  0  0  0  0
M  END
>  <MODEL>
3

>  <REMARK>
 VINA RESULT:      -6.5      1.433      1.748
  Name = 
  21 active torsions:
  status: ('A' for Active; 'I' for Inactive)
    1  A    between atoms: C_1  and  C_19
    2  A    between atoms: C_4  and  N_37
    3  A    between atoms: C_6  and  C_35
    4  A    between atoms: C_7  and  C_12
    5  A    between atoms: C_7  and  O_26
    6  A    between atoms: C_8  and  O_31
    7  A    between atoms: C_8  and  C_33
    8  A    between atoms: C_9  and  C_23
    9  A    between atoms: C_9  and  N_24
   10  A    between atoms: C_10  and  C_35
   11  A    between atoms: O_11  and  C_18
   12  A    between atoms: C_12  and  N_14
   13  A    between atoms: C_13  and  C_19
   14  A    between atoms: N_14  and  C_22
   15  A    between atoms: C_16  and  C_35
   16  A    between atoms: C_18  and  O_26
   17  A    between atoms: C_25  and  C_28
   18  A    between atoms: C_25  and  P_34
   19  A    between atoms: C_28  and  C_33
   20  A    between atoms: O_31  and  C_43
   21  A    between atoms: C_36  and  C_42
                            x       y       z     vdW  Elec       q    Type
                         _______ _______ _______ _____ _____    ______ ____

>  <TORSDO>
F 21

$$$$
=
 OpenBabel10222420523D

 48 50  0  0  1  0  0  0  0  0999 V2000
  188.6270  176.7270  137.9180 C   0  0  0  0  0  0  0  0  0  0  0  0
  188.9070  174.6260  135.6810 C   0  0  0  0  0  3  0  0  0  0  0  0
  189.8040  175.8380  138.1910 C   0  0  0  0  0  2  0  0  0  0  0  0
  187.6540  176.3480  137.0540 C   0  0  0  0  0  0  0  0  0  0  0  0
  190.2760  175.1360  135.8900 C   0  0  0  0  0  3  0  0  0  0  0  0
  190.7040  175.7400  136.9980 C   0  0  0  0  0  0  0  0  0  0  0  0
  187.7830  175.1440  136.1920 C   0  0  0  0  0  3  0  0  0  0  0  0
  186.0650  177.5880  135.8050 O   0  0  0  0  0  0  0  0  0  0  0  0
  185.4790  177.2060  138.0370 N   0  0  0  0  0  2  0  0  0  0  0  0
  186.3770  177.0940  136.9230 C   0  0  0  0  0  0  0  0  0  0  0  0
  181.7980  179.3110  138.1850 C   0  0  0  0  0  0  0  0  0  0  0  0
  182.8910  179.7410  138.9420 C   0  0  0  0  0  3  0  0  0  0  0  0
  184.2250  177.9030  138.0780 C   0  0  0  0  0  0  0  0  0  0  0  0
  181.9120  178.1750  137.3800 C   0  0  0  0  0  3  0  0  0  0  0  0
  183.1200  177.4750  137.3250 C   0  0  0  0  0  3  0  0  0  0  0  0
  184.1020  179.0420  138.8880 C   0  0  0  0  0  0  0  0  0  0  0  0
  185.1820  179.4890  139.6410 O   0  0  0  0  0  1  0  0  0  0  0  0
  180.5050  180.0480  138.2560 C   0  0  0  0  0  2  0  0  0  0  0  0
  180.5420  181.2630  137.3500 C   0  0  2  0  0  3  0  0  0  0  0  0
  180.3710  182.4760  138.1630 N   0  0  0  0  0  2  0  0  0  0  0  0
  179.2500  181.9350  137.3820 C   0  0  0  0  0  2  0  0  0  0  0  0
  192.0180  176.2300  137.0110 O   0  0  0  0  0  0  0  0  0  0  0  0
  193.0710  175.7470  137.8010 C   0  0  0  0  0  0  0  0  0  0  0  0
  193.6190  176.4580  138.6850 O   0  0  0  0  0  0  0  0  0  0  0  0
  193.5280  174.3440  137.6140 C   0  0  0  0  0  2  0  0  0  0  0  0
  194.1540  174.1890  136.2440 C   0  0  0  0  0  2  0  0  0  0  0  0
  195.6020  173.7730  136.3920 C   0  0  0  0  0  2  0  0  0  0  0  0
  197.4680  174.8350  134.7260 O   0  0  0  0  0  0  0  0  0  0  0  0
  197.7570  175.4540  137.2500 O   0  0  0  0  0  1  0  0  0  0  0  0
  196.6850  175.1670  135.9740 P   0  0  0  0  0  0  0  0  0  0  0  0
  195.7510  176.5500  135.6990 O   0  0  0  0  0  1  0  0  0  0  0  0
  188.5670  178.0450  138.6510 C   0  0  1  0  0  3  0  0  0  0  0  0
  189.0740  177.9530  140.0700 C   0  0  0  0  0  0  0  0  0  0  0  0
  190.3090  178.0690  140.3080 O   0  0  0  0  0  0  0  0  0  0  0  0
  188.1730  177.6380  141.1360 N   0  0  0  0  0  2  0  0  0  0  0  0
  187.4370  177.7950  143.4460 C   0  0  0  0  0  1  0  0  0  0  0  0
  188.6060  177.5190  142.5180 C   0  0  1  0  0  3  0  0  0  0  0  0
  190.4080  175.8950  143.0520 C   0  0  0  0  0  3  0  0  0  0  0  0
  189.1330  176.1410  142.7560 C   0  0  0  0  0  3  0  0  0  0  0  0
  191.3660  176.9480  143.1550 N   0  0  0  0  0  2  0  0  0  0  0  0
  191.6340  177.5960  144.4290 C   0  0  0  0  0  2  0  0  0  0  0  0
  190.8740  176.9030  145.5490 C   0  0  0  0  0  2  0  0  0  0  0  0
  189.8950  177.7560  146.0590 O   0  0  0  0  0  0  0  0  0  0  0  0
  189.0520  176.9270  146.7950 C   0  0  0  0  0  2  0  0  0  0  0  0
  187.9830  177.6710  147.2950 O   0  0  0  0  0  0  0  0  0  0  0  0
  188.3970  178.0740  148.5640 C   0  0  0  0  0  1  0  0  0  0  0  0
  189.2520  179.1150  137.8560 C   0  0  0  0  0  3  0  0  0  0  0  0
  188.6200  179.8100  137.0760 O   0  0  0  0  0  0  0  0  0  0  0  0
  1  3  1  0  0  0  0
  1 32  1  0  0  0  0
  2  5  1  0  0  0  0
  2  7  2  0  0  0  0
  4  1  2  0  0  0  0
  5  6  2  0  0  0  0
  6 22  1  0  0  0  0
  6  3  1  0  0  0  0
  7  4  1  0  0  0  0
  8 10  2  0  0  0  0
  9 13  1  0  0  0  0
 10  4  1  0  0  0  0
 10  9  1  0  0  0  0
 11 18  1  0  0  0  0
 11 12  1  0  0  0  0
 13 16  1  0  0  0  0
 14 11  2  0  0  0  0
 15 14  1  0  0  0  0
 15 13  2  0  0  0  0
 16 12  2  0  0  0  0
 16 17  1  0  0  0  0
 19 21  1  0  0  0  0
 19 20  1  0  0  0  0
 19 18  1  1  0  0  0
 21 20  1  0  0  0  0
 22 23  1  0  0  0  0
 23 24  2  0  0  0  0
 25 23  1  0  0  0  0
 26 27  1  0  0  0  0
 26 25  1  0  0  0  0
 28 30  2  0  0  0  0
 30 27  1  0  0  0  0
 30 29  1  0  0  0  0
 31 30  1  0  0  0  0
 32 47  1  6  0  0  0
 32 33  1  0  0  0  0
 33 34  2  0  0  0  0
 33 35  1  0  0  0  0
 35 37  1  0  0  0  0
 37 39  1  0  0  0  0
 37 36  1  1  0  0  0
 38 40  1  0  0  0  0
 39 38  2  0  0  0  0
 40 41  1  0  0  0  0
 41 42  1  0  0  0  0
 42 43  1  0  0  0  0
 43 44  1  0  0  0  0
 44 45  1  0  0  0  0
 45 46  1  0  0  0  0
 48 47  2  0  0  0  0
M  END
>  <MODEL>
4

>  <REMARK>
 VINA RESULT:      -6.4      4.408     11.228
  Name = 
  21 active torsions:
  status: ('A' for Active; 'I' for Inactive)
    1  A    between atoms: C_1  and  C_19
    2  A    between atoms: C_4  and  N_37
    3  A    between atoms: C_6  and  C_35
    4  A    between atoms: C_7  and  C_12
    5  A    between atoms: C_7  and  O_26
    6  A    between atoms: C_8  and  O_31
    7  A    between atoms: C_8  and  C_33
    8  A    between atoms: C_9  and  C_23
    9  A    between atoms: C_9  and  N_24
   10  A    between atoms: C_10  and  C_35
   11  A    between atoms: O_11  and  C_18
   12  A    between atoms: C_12  and  N_14
   13  A    between atoms: C_13  and  C_19
   14  A    between atoms: N_14  and  C_22
   15  A    between atoms: C_16  and  C_35
   16  A    between atoms: C_18  and  O_26
   17  A    between atoms: C_25  and  C_28
   18  A    between atoms: C_25  and  P_34
   19  A    between atoms: C_28  and  C_33
   20  A    between atoms: O_31  and  C_43
   21  A    between atoms: C_36  and  C_42
                            x       y       z     vdW  Elec       q    Type
                         _______ _______ _______ _____ _____    ______ ____

>  <TORSDO>
F 21

$$$$
=
 OpenBabel10222420523D

 48 50  0  0  1  0  0  0  0  0999 V2000
  190.7270  176.1900  137.7550 C   0  0  0  0  0  0  0  0  0  0  0  0
  193.7190  176.3480  138.4820 C   0  0  0  0  0  3  0  0  0  0  0  0
  191.5670  175.9940  136.5270 C   0  0  0  0  0  2  0  0  0  0  0  0
  191.2480  176.7580  138.8710 C   0  0  0  0  0  0  0  0  0  0  0  0
  193.6070  175.1660  137.6060 C   0  0  0  0  0  3  0  0  0  0  0  0
  192.6150  174.9470  136.7430 C   0  0  0  0  0  0  0  0  0  0  0  0
  192.7010  177.0360  139.0160 C   0  0  0  0  0  3  0  0  0  0  0  0
  189.5030  178.0320  139.8460 O   0  0  0  0  0  0  0  0  0  0  0  0
  190.5640  176.5430  141.3030 N   0  0  0  0  0  2  0  0  0  0  0  0
  190.4020  177.1650  140.0210 C   0  0  0  0  0  0  0  0  0  0  0  0
  188.4730  177.4460  144.8830 C   0  0  0  0  0  0  0  0  0  0  0  0
  189.7500  177.9680  144.6570 C   0  0  0  0  0  3  0  0  0  0  0  0
  189.8440  176.8340  142.5100 C   0  0  0  0  0  0  0  0  0  0  0  0
  187.8820  176.6140  143.9290 C   0  0  0  0  0  3  0  0  0  0  0  0
  188.5630  176.3100  142.7470 C   0  0  0  0  0  3  0  0  0  0  0  0
  190.4330  177.6670  143.4740 C   0  0  0  0  0  0  0  0  0  0  0  0
  191.6990  178.2010  143.2620 O   0  0  0  0  0  1  0  0  0  0  0  0
  187.7530  177.7570  146.1500 C   0  0  0  0  0  2  0  0  0  0  0  0
  188.4660  177.1210  147.3290 C   0  0  2  0  0  3  0  0  0  0  0  0
  187.8000  177.5320  148.5730 N   0  0  0  0  0  2  0  0  0  0  0  0
  189.0610  178.1610  148.1570 C   0  0  0  0  0  2  0  0  0  0  0  0
  192.6200  173.7380  136.0320 O   0  0  0  0  0  0  0  0  0  0  0  0
  193.6790  173.2380  135.2600 C   0  0  0  0  0  0  0  0  0  0  0  0
  193.7330  172.0300  134.9100 O   0  0  0  0  0  0  0  0  0  0  0  0
  194.7480  174.1700  134.8130 C   0  0  0  0  0  2  0  0  0  0  0  0
  196.1030  173.5190  134.9960 C   0  0  0  0  0  2  0  0  0  0  0  0
  196.4510  173.4800  136.4690 C   0  0  0  0  0  2  0  0  0  0  0  0
  199.0750  174.1850  136.4060 O   0  0  0  0  0  1  0  0  0  0  0  0
  197.7460  175.0470  138.4870 O   0  0  0  0  0  1  0  0  0  0  0  0
  197.7260  174.7190  136.8280 P   0  0  0  0  0  0  0  0  0  0  0  0
  197.3940  176.1410  135.9750 O   0  0  0  0  0  0  0  0  0  0  0  0
  189.2870  175.7450  137.6900 C   0  0  1  0  0  3  0  0  0  0  0  0
  188.3750  176.7870  137.0880 C   0  0  0  0  0  0  0  0  0  0  0  0
  188.8220  177.9360  136.8170 O   0  0  0  0  0  0  0  0  0  0  0  0
  186.9820  176.5080  136.9150 N   0  0  0  0  0  2  0  0  0  0  0  0
  186.2090  177.5250  134.8480 C   0  0  0  0  0  1  0  0  0  0  0  0
  186.0530  177.4770  136.3570 C   0  0  1  0  0  3  0  0  0  0  0  0
  183.9540  177.7000  137.6670 C   0  0  0  0  0  3  0  0  0  0  0  0
  184.6560  177.0870  136.7150 C   0  0  0  0  0  3  0  0  0  0  0  0
  184.5050  178.7800  138.4200 N   0  0  0  0  0  2  0  0  0  0  0  0
  183.7030  179.4980  139.3980 C   0  0  0  0  0  2  0  0  0  0  0  0
  182.2740  179.6560  138.9020 C   0  0  0  0  0  2  0  0  0  0  0  0
  181.9520  181.0090  138.8030 O   0  0  0  0  0  0  0  0  0  0  0  0
  181.1920  181.1070  137.6390 C   0  0  0  0  0  2  0  0  0  0  0  0
  180.3040  182.1770  137.7490 O   0  0  0  0  0  0  0  0  0  0  0  0
  181.0410  183.2900  137.3440 C   0  0  0  0  0  1  0  0  0  0  0  0
  189.1820  174.4150  137.0080 C   0  0  0  0  0  3  0  0  0  0  0  0
  189.6050  173.4050  137.5460 O   0  0  0  0  0  0  0  0  0  0  0  0
  1  4  2  0  0  0  0
  2  7  2  0  0  0  0
  3  6  1  0  0  0  0
  3  1  1  0  0  0  0
  4  7  1  0  0  0  0
  4 10  1  0  0  0  0
  5  2  1  0  0  0  0
  6  5  2  0  0  0  0
  8 10  2  0  0  0  0
  9 13  1  0  0  0  0
 10  9  1  0  0  0  0
 11 18  1  0  0  0  0
 12 11  1  0  0  0  0
 13 15  2  0  0  0  0
 13 16  1  0  0  0  0
 14 11  2  0  0  0  0
 15 14  1  0  0  0  0
 16 12  2  0  0  0  0
 17 16  1  0  0  0  0
 19 18  1  6  0  0  0
 19 21  1  0  0  0  0
 19 20  1  0  0  0  0
 21 20  1  0  0  0  0
 22  6  1  0  0  0  0
 23 22  1  0  0  0  0
 24 23  2  0  0  0  0
 25 26  1  0  0  0  0
 25 23  1  0  0  0  0
 26 27  1  0  0  0  0
 27 30  1  0  0  0  0
 28 30  1  0  0  0  0
 30 29  1  0  0  0  0
 31 30  2  0  0  0  0
 32 47  1  6  0  0  0
 32  1  1  0  0  0  0
 33 32  1  0  0  0  0
 34 33  2  0  0  0  0
 35 33  1  0  0  0  0
 37 36  1  6  0  0  0
 37 39  1  0  0  0  0
 37 35  1  0  0  0  0
 38 40  1  0  0  0  0
 39 38  2  0  0  0  0
 40 41  1  0  0  0  0
 42 41  1  0  0  0  0
 43 42  1  0  0  0  0
 44 45  1  0  0  0  0
 44 43  1  0  0  0  0
 46 45  1  0  0  0  0
 47 48  2  0  0  0  0
M  END
>  <MODEL>
5

>  <REMARK>
 VINA RESULT:      -6.0      5.122     10.387
  Name = 
  21 active torsions:
  status: ('A' for Active; 'I' for Inactive)
    1  A    between atoms: C_1  and  C_19
    2  A    between atoms: C_4  and  N_37
    3  A    between atoms: C_6  and  C_35
    4  A    between atoms: C_7  and  C_12
    5  A    between atoms: C_7  and  O_26
    6  A    between atoms: C_8  and  O_31
    7  A    between atoms: C_8  and  C_33
    8  A    between atoms: C_9  and  C_23
    9  A    between atoms: C_9  and  N_24
   10  A    between atoms: C_10  and  C_35
   11  A    between atoms: O_11  and  C_18
   12  A    between atoms: C_12  and  N_14
   13  A    between atoms: C_13  and  C_19
   14  A    between atoms: N_14  and  C_22
   15  A    between atoms: C_16  and  C_35
   16  A    between atoms: C_18  and  O_26
   17  A    between atoms: C_25  and  C_28
   18  A    between atoms: C_25  and  P_34
   19  A    between atoms: C_28  and  C_33
   20  A    between atoms: O_31  and  C_43
   21  A    between atoms: C_36  and  C_42
                            x       y       z     vdW  Elec       q    Type
                         _______ _______ _______ _____ _____    ______ ____

>  <TORSDO>
F 21

$$$$
=
 OpenBabel10222420523D

 48 50  0  0  1  0  0  0  0  0999 V2000
  190.6710  176.1900  137.8060 C   0  0  0  0  0  0  0  0  0  0  0  0
  193.6430  176.4080  138.5950 C   0  0  0  0  0  3  0  0  0  0  0  0
  191.5400  175.9980  136.5980 C   0  0  0  0  0  2  0  0  0  0  0  0
  191.1570  176.7760  138.9270 C   0  0  0  0  0  0  0  0  0  0  0  0
  193.5710  175.2160  137.7270 C   0  0  0  0  0  3  0  0  0  0  0  0
  192.6010  174.9720  136.8460 C   0  0  0  0  0  0  0  0  0  0  0  0
  192.6020  177.0810  139.1020 C   0  0  0  0  0  3  0  0  0  0  0  0
  189.3840  178.0450  139.8600 O   0  0  0  0  0  0  0  0  0  0  0  0
  190.4060  176.5490  141.3400 N   0  0  0  0  0  2  0  0  0  0  0  0
  190.2790  177.1770  140.0560 C   0  0  0  0  0  0  0  0  0  0  0  0
  188.2180  177.4320  144.8660 C   0  0  0  0  0  0  0  0  0  0  0  0
  189.5260  177.9010  144.7070 C   0  0  0  0  0  3  0  0  0  0  0  0
  189.6540  176.8340  142.5270 C   0  0  0  0  0  0  0  0  0  0  0  0
  187.6290  176.6600  143.8630 C   0  0  0  0  0  3  0  0  0  0  0  0
  188.3420  176.3630  142.6980 C   0  0  0  0  0  3  0  0  0  0  0  0
  190.2410  177.6070  143.5410 C   0  0  0  0  0  0  0  0  0  0  0  0
  191.5370  178.0890  143.3960 O   0  0  0  0  0  1  0  0  0  0  0  0
  187.4640  177.7350  146.1150 C   0  0  0  0  0  2  0  0  0  0  0  0
  186.3630  178.7390  145.8330 C   0  0  2  0  0  3  0  0  0  0  0  0
  185.7590  179.1600  147.1050 N   0  0  0  0  0  2  0  0  0  0  0  0
  185.0800  178.1830  146.2430 C   0  0  0  0  0  2  0  0  0  0  0  0
  192.6440  173.7580  136.1450 O   0  0  0  0  0  0  0  0  0  0  0  0
  193.7120  173.2910  135.3650 C   0  0  0  0  0  0  0  0  0  0  0  0
  193.8540  172.0690  135.0970 O   0  0  0  0  0  0  0  0  0  0  0  0
  194.6800  174.2720  134.8070 C   0  0  0  0  0  2  0  0  0  0  0  0
  196.0710  173.6720  134.8060 C   0  0  0  0  0  2  0  0  0  0  0  0
  196.6120  173.6430  136.2190 C   0  0  0  0  0  2  0  0  0  0  0  0
  199.0910  174.6110  135.6670 O   0  0  0  0  0  0  0  0  0  0  0  0
  198.2080  175.1370  138.0720 O   0  0  0  0  0  1  0  0  0  0  0  0
  197.8370  174.9660  136.4310 P   0  0  0  0  0  0  0  0  0  0  0  0
  197.2110  176.4210  135.8380 O   0  0  0  0  0  1  0  0  0  0  0  0
  189.2400  175.7180  137.7150 C   0  0  1  0  0  3  0  0  0  0  0  0
  188.3170  176.7500  137.1130 C   0  0  0  0  0  0  0  0  0  0  0  0
  188.7590  177.8950  136.8140 O   0  0  0  0  0  0  0  0  0  0  0  0
  186.9210  176.4700  136.9720 N   0  0  0  0  0  2  0  0  0  0  0  0
  186.1220  177.4680  134.9060 C   0  0  0  0  0  1  0  0  0  0  0  0
  185.9810  177.4300  136.4160 C   0  0  1  0  0  3  0  0  0  0  0  0
  183.8800  177.6770  137.7170 C   0  0  0  0  0  3  0  0  0  0  0  0
  184.5900  177.0350  136.7910 C   0  0  0  0  0  3  0  0  0  0  0  0
  184.4150  178.7940  138.4260 N   0  0  0  0  0  2  0  0  0  0  0  0
  183.6310  179.4870  139.4350 C   0  0  0  0  0  2  0  0  0  0  0  0
  182.1750  179.5760  139.0100 C   0  0  0  0  0  2  0  0  0  0  0  0
  181.3520  179.6250  140.1360 O   0  0  0  0  0  0  0  0  0  0  0  0
  181.1990  178.2940  140.5190 C   0  0  0  0  0  2  0  0  0  0  0  0
  180.9630  178.2270  141.8920 O   0  0  0  0  0  0  0  0  0  0  0  0
  179.5800  178.3620  142.0190 C   0  0  0  0  0  1  0  0  0  0  0  0
  189.1710  174.3960  137.0130 C   0  0  0  0  0  3  0  0  0  0  0  0
  189.6120  173.3880  137.5410 O   0  0  0  0  0  0  0  0  0  0  0  0
  1  4  2  0  0  0  0
  2  7  2  0  0  0  0
  3  6  1  0  0  0  0
  3  1  1  0  0  0  0
  4  7  1  0  0  0  0
  4 10  1  0  0  0  0
  5  2  1  0  0  0  0
  6  5  2  0  0  0  0
  8 10  2  0  0  0  0
  9 13  1  0  0  0  0
 10  9  1  0  0  0  0
 11 18  1  0  0  0  0
 12 11  1  0  0  0  0
 13 15  2  0  0  0  0
 13 16  1  0  0  0  0
 14 11  2  0  0  0  0
 15 14  1  0  0  0  0
 16 12  2  0  0  0  0
 17 16  1  0  0  0  0
 19 18  1  1  0  0  0
 19 21  1  0  0  0  0
 19 20  1  0  0  0  0
 21 20  1  0  0  0  0
 22  6  1  0  0  0  0
 23 22  1  0  0  0  0
 24 23  2  0  0  0  0
 25 23  1  0  0  0  0
 26 25  1  0  0  0  0
 26 27  1  0  0  0  0
 27 30  1  0  0  0  0
 28 30  2  0  0  0  0
 30 29  1  0  0  0  0
 31 30  1  0  0  0  0
 32 47  1  6  0  0  0
 32  1  1  0  0  0  0
 33 32  1  0  0  0  0
 34 33  2  0  0  0  0
 35 33  1  0  0  0  0
 37 36  1  6  0  0  0
 37 39  1  0  0  0  0
 37 35  1  0  0  0  0
 38 40  1  0  0  0  0
 39 38  2  0  0  0  0
 40 41  1  0  0  0  0
 42 41  1  0  0  0  0
 42 43  1  0  0  0  0
 43 44  1  0  0  0  0
 44 45  1  0  0  0  0
 45 46  1  0  0  0  0
 47 48  2  0  0  0  0
M  END
>  <MODEL>
6

>  <REMARK>
 VINA RESULT:      -6.0      5.092     10.431
  Name = 
  21 active torsions:
  status: ('A' for Active; 'I' for Inactive)
    1  A    between atoms: C_1  and  C_19
    2  A    between atoms: C_4  and  N_37
    3  A    between atoms: C_6  and  C_35
    4  A    between atoms: C_7  and  C_12
    5  A    between atoms: C_7  and  O_26
    6  A    between atoms: C_8  and  O_31
    7  A    between atoms: C_8  and  C_33
    8  A    between atoms: C_9  and  C_23
    9  A    between atoms: C_9  and  N_24
   10  A    between atoms: C_10  and  C_35
   11  A    between atoms: O_11  and  C_18
   12  A    between atoms: C_12  and  N_14
   13  A    between atoms: C_13  and  C_19
   14  A    between atoms: N_14  and  C_22
   15  A    between atoms: C_16  and  C_35
   16  A    between atoms: C_18  and  O_26
   17  A    between atoms: C_25  and  C_28
   18  A    between atoms: C_25  and  P_34
   19  A    between atoms: C_28  and  C_33
   20  A    between atoms: O_31  and  C_43
   21  A    between atoms: C_36  and  C_42
                            x       y       z     vdW  Elec       q    Type
                         _______ _______ _______ _____ _____    ______ ____

>  <TORSDO>
F 21

$$$$
=
 OpenBabel10222420523D

 48 50  0  0  1  0  0  0  0  0999 V2000
  188.0320  176.6230  137.9120 C   0  0  0  0  0  0  0  0  0  0  0  0
  187.7430  174.3910  135.8050 C   0  0  0  0  0  3  0  0  0  0  0  0
  189.0490  175.5490  138.1580 C   0  0  0  0  0  2  0  0  0  0  0  0
  186.9380  176.3840  137.1480 C   0  0  0  0  0  0  0  0  0  0  0  0
  189.1940  174.6520  135.8800 C   0  0  0  0  0  3  0  0  0  0  0  0
  189.8140  175.2250  136.9120 C   0  0  0  0  0  0  0  0  0  0  0  0
  186.7760  175.1330  136.3610 C   0  0  0  0  0  3  0  0  0  0  0  0
  185.6880  178.0600  136.0280 O   0  0  0  0  0  0  0  0  0  0  0  0
  184.8310  177.4200  138.1070 N   0  0  0  0  0  2  0  0  0  0  0  0
  185.8080  177.3440  137.0590 C   0  0  0  0  0  0  0  0  0  0  0  0
  181.5190  180.0620  138.3520 C   0  0  0  0  0  0  0  0  0  0  0  0
  182.6870  180.3200  139.0750 C   0  0  0  0  0  3  0  0  0  0  0  0
  183.7000  178.3000  138.1820 C   0  0  0  0  0  0  0  0  0  0  0  0
  181.4360  178.9220  137.5490 C   0  0  0  0  0  3  0  0  0  0  0  0
  182.5210  178.0460  137.4620 C   0  0  0  0  0  3  0  0  0  0  0  0
  183.7750  179.4450  138.9890 C   0  0  0  0  0  0  0  0  0  0  0  0
  184.9320  179.7220  139.7090 O   0  0  0  0  0  1  0  0  0  0  0  0
  180.3570  180.9870  138.4560 C   0  0  0  0  0  2  0  0  0  0  0  0
  180.2140  181.7980  137.1830 C   0  0  2  0  0  3  0  0  0  0  0  0
  180.7210  183.1580  137.4180 N   0  0  0  0  0  2  0  0  0  0  0  0
  179.2760  182.8900  137.4030 C   0  0  0  0  0  2  0  0  0  0  0  0
  191.1910  175.4640  136.7970 O   0  0  0  0  0  0  0  0  0  0  0  0
  192.2140  174.5340  137.0310 C   0  0  0  0  0  0  0  0  0  0  0  0
  192.0330  173.2970  136.8820 O   0  0  0  0  0  0  0  0  0  0  0  0
  193.5590  175.0270  137.4300 C   0  0  0  0  0  2  0  0  0  0  0  0
  194.6140  174.0260  137.0090 C   0  0  0  0  0  2  0  0  0  0  0  0
  195.9060  174.7530  136.6990 C   0  0  0  0  0  2  0  0  0  0  0  0
  198.0640  175.5720  138.1350 O   0  0  0  0  0  1  0  0  0  0  0  0
  198.0280  173.0240  137.5480 O   0  0  0  0  0  0  0  0  0  0  0  0
  197.1340  174.3910  137.9860 P   0  0  0  0  0  0  0  0  0  0  0  0
  196.3490  174.1060  139.4570 O   0  0  0  0  0  1  0  0  0  0  0  0
  188.2700  177.9670  138.5570 C   0  0  1  0  0  3  0  0  0  0  0  0
  188.4010  177.8840  140.0580 C   0  0  0  0  0  0  0  0  0  0  0  0
  187.4520  178.2660  140.7980 O   0  0  0  0  0  0  0  0  0  0  0  0
  189.6350  177.4640  140.6490 N   0  0  0  0  0  2  0  0  0  0  0  0
  189.4110  176.0070  142.5800 C   0  0  0  0  0  1  0  0  0  0  0  0
  189.8270  177.3810  142.0880 C   0  0  1  0  0  3  0  0  0  0  0  0
  191.6770  178.0440  143.6070 C   0  0  0  0  0  3  0  0  0  0  0  0
  191.2650  177.6280  142.4110 C   0  0  0  0  0  3  0  0  0  0  0  0
  190.7550  178.2910  144.6690 N   0  0  0  0  0  2  0  0  0  0  0  0
  190.5660  177.3250  145.7380 C   0  0  0  0  0  2  0  0  0  0  0  0
  189.1770  177.4610  146.3390 C   0  0  0  0  0  2  0  0  0  0  0  0
  188.3350  178.1240  145.4450 O   0  0  0  0  0  0  0  0  0  0  0  0
  187.1050  177.4820  145.5770 C   0  0  0  0  0  2  0  0  0  0  0  0
  186.0890  178.3200  145.1160 O   0  0  0  0  0  0  0  0  0  0  0  0
  185.6490  178.9990  146.2530 C   0  0  0  0  0  1  0  0  0  0  0  0
  189.4300  178.6580  137.9090 C   0  0  0  0  0  3  0  0  0  0  0  0
  189.2580  179.4020  136.9560 O   0  0  0  0  0  0  0  0  0  0  0  0
  1  3  1  0  0  0  0
  1 32  1  0  0  0  0
  2  5  1  0  0  0  0
  2  7  2  0  0  0  0
  4  1  2  0  0  0  0
  5  6  2  0  0  0  0
  6  3  1  0  0  0  0
  7  4  1  0  0  0  0
  8 10  2  0  0  0  0
  9 13  1  0  0  0  0
 10  4  1  0  0  0  0
 10  9  1  0  0  0  0
 11 18  1  0  0  0  0
 11 12  1  0  0  0  0
 13 16  1  0  0  0  0
 14 11  2  0  0  0  0
 15 14  1  0  0  0  0
 15 13  2  0  0  0  0
 16 12  2  0  0  0  0
 16 17  1  0  0  0  0
 19 21  1  0  0  0  0
 19 20  1  0  0  0  0
 19 18  1  1  0  0  0
 21 20  1  0  0  0  0
 22  6  1  0  0  0  0
 22 23  1  0  0  0  0
 23 25  1  0  0  0  0
 24 23  2  0  0  0  0
 26 25  1  0  0  0  0
 27 26  1  0  0  0  0
 27 30  1  0  0  0  0
 29 30  2  0  0  0  0
 30 28  1  0  0  0  0
 30 31  1  0  0  0  0
 32 47  1  6  0  0  0
 32 33  1  0  0  0  0
 33 35  1  0  0  0  0
 33 34  2  0  0  0  0
 35 37  1  0  0  0  0
 37 39  1  0  0  0  0
 37 36  1  6  0  0  0
 38 40  1  0  0  0  0
 39 38  2  0  0  0  0
 40 41  1  0  0  0  0
 41 42  1  0  0  0  0
 43 44  1  0  0  0  0
 43 42  1  0  0  0  0
 45 44  1  0  0  0  0
 45 46  1  0  0  0  0
 48 47  2  0  0  0  0
M  END
>  <MODEL>
7

>  <REMARK>
 VINA RESULT:      -5.9      4.516     11.306
  Name = 
  21 active torsions:
  status: ('A' for Active; 'I' for Inactive)
    1  A    between atoms: C_1  and  C_19
    2  A    between atoms: C_4  and  N_37
    3  A    between atoms: C_6  and  C_35
    4  A    between atoms: C_7  and  C_12
    5  A    between atoms: C_7  and  O_26
    6  A    between atoms: C_8  and  O_31
    7  A    between atoms: C_8  and  C_33
    8  A    between atoms: C_9  and  C_23
    9  A    between atoms: C_9  and  N_24
   10  A    between atoms: C_10  and  C_35
   11  A    between atoms: O_11  and  C_18
   12  A    between atoms: C_12  and  N_14
   13  A    between atoms: C_13  and  C_19
   14  A    between atoms: N_14  and  C_22
   15  A    between atoms: C_16  and  C_35
   16  A    between atoms: C_18  and  O_26
   17  A    between atoms: C_25  and  C_28
   18  A    between atoms: C_25  and  P_34
   19  A    between atoms: C_28  and  C_33
   20  A    between atoms: O_31  and  C_43
   21  A    between atoms: C_36  and  C_42
                            x       y       z     vdW  Elec       q    Type
                         _______ _______ _______ _____ _____    ______ ____

>  <TORSDO>
F 21

$$$$
=
 OpenBabel10222420523D

 48 50  0  0  1  0  0  0  0  0999 V2000
  186.1240  178.4210  143.1420 C   0  0  0  0  0  0  0  0  0  0  0  0
  183.7590  179.4830  144.8110 C   0  0  0  0  0  3  0  0  0  0  0  0
  186.6090  178.8920  144.4820 C   0  0  0  0  0  2  0  0  0  0  0  0
  184.9210  178.8180  142.6590 C   0  0  0  0  0  0  0  0  0  0  0  0
  184.5220  178.6290  145.7420 C   0  0  0  0  0  3  0  0  0  0  0  0
  185.8050  178.2960  145.5950 C   0  0  0  0  0  0  0  0  0  0  0  0
  183.9400  179.5690  143.4870 C   0  0  0  0  0  3  0  0  0  0  0  0
  185.0180  179.2260  140.3250 O   0  0  0  0  0  0  0  0  0  0  0  0
  183.5680  177.5050  140.9620 N   0  0  0  0  0  2  0  0  0  0  0  0
  184.5030  178.5520  141.2590 C   0  0  0  0  0  0  0  0  0  0  0  0
  181.9920  176.4310  137.1720 C   0  0  0  0  0  0  0  0  0  0  0  0
  181.1410  176.6260  138.2640 C   0  0  0  0  0  3  0  0  0  0  0  0
  183.0520  177.1380  139.6740 C   0  0  0  0  0  0  0  0  0  0  0  0
  183.3720  176.5820  137.3290 C   0  0  0  0  0  3  0  0  0  0  0  0
  183.9000  176.9350  138.5730 C   0  0  0  0  0  3  0  0  0  0  0  0
  181.6680  176.9810  139.5100 C   0  0  0  0  0  0  0  0  0  0  0  0
  180.8060  177.1780  140.5840 O   0  0  0  0  0  1  0  0  0  0  0  0
  181.4300  176.0390  135.8490 C   0  0  0  0  0  2  0  0  0  0  0  0
  181.8460  174.6230  135.5000 C   0  0  2  0  0  3  0  0  0  0  0  0
  180.7640  173.9750  134.7460 N   0  0  0  0  0  2  0  0  0  0  0  0
  180.9660  173.6760  136.1700 C   0  0  0  0  0  2  0  0  0  0  0  0
  186.3650  177.4190  146.5340 O   0  0  0  0  0  0  0  0  0  0  0  0
  187.2730  177.7610  147.5470 C   0  0  0  0  0  0  0  0  0  0  0  0
  187.1900  178.8520  148.1720 O   0  0  0  0  0  0  0  0  0  0  0  0
  188.3380  176.7930  147.9180 C   0  0  0  0  0  2  0  0  0  0  0  0
  189.6700  177.2650  147.3750 C   0  0  0  0  0  2  0  0  0  0  0  0
  189.7790  176.8980  145.9100 C   0  0  0  0  0  2  0  0  0  0  0  0
  192.0550  178.1270  145.0770 O   0  0  0  0  0  1  0  0  0  0  0  0
  191.6770  175.7250  144.1140 O   0  0  0  0  0  0  0  0  0  0  0  0
  191.5260  176.7600  145.4430 P   0  0  0  0  0  0  0  0  0  0  0  0
  192.4160  176.1450  146.7430 O   0  0  0  0  0  1  0  0  0  0  0  0
  187.0300  177.5050  142.3570 C   0  0  1  0  0  3  0  0  0  0  0  0
  187.9350  178.2480  141.4040 C   0  0  0  0  0  0  0  0  0  0  0  0
  188.3830  179.3860  141.7150 O   0  0  0  0  0  0  0  0  0  0  0  0
  188.2070  177.7090  140.1060 N   0  0  0  0  0  2  0  0  0  0  0  0
  190.3330  177.5940  138.9360 C   0  0  0  0  0  1  0  0  0  0  0  0
  189.0550  178.3870  139.1390 C   0  0  1  0  0  3  0  0  0  0  0  0
  187.8560  177.4710  137.1650 C   0  0  0  0  0  3  0  0  0  0  0  0
  188.3220  178.5180  137.8430 C   0  0  0  0  0  3  0  0  0  0  0  0
  188.0380  176.1370  137.6370 N   0  0  0  0  0  2  0  0  0  0  0  0
  188.5140  175.0860  136.7520 C   0  0  0  0  0  2  0  0  0  0  0  0
  187.3480  174.2680  136.2210 C   0  0  0  0  0  2  0  0  0  0  0  0
  186.8420  173.4510  137.2320 O   0  0  0  0  0  0  0  0  0  0  0  0
  185.4660  173.6720  137.2080 C   0  0  0  0  0  2  0  0  0  0  0  0
  184.8140  172.6360  137.8780 O   0  0  0  0  0  0  0  0  0  0  0  0
  184.2110  171.8880  136.8660 C   0  0  0  0  0  1  0  0  0  0  0  0
  187.7810  176.5960  143.2830 C   0  0  0  0  0  3  0  0  0  0  0  0
  188.5170  175.7290  142.8400 O   0  0  0  0  0  0  0  0  0  0  0  0
  1  3  1  0  0  0  0
  2  5  1  0  0  0  0
  3  6  1  0  0  0  0
  4  1  2  0  0  0  0
  4  7  1  0  0  0  0
  6  5  2  0  0  0  0
  6 22  1  0  0  0  0
  7  2  2  0  0  0  0
  8 10  2  0  0  0  0
  9 10  1  0  0  0  0
 10  4  1  0  0  0  0
 11 14  2  0  0  0  0
 11 12  1  0  0  0  0
 12 16  2  0  0  0  0
 13  9  1  0  0  0  0
 14 15  1  0  0  0  0
 15 13  2  0  0  0  0
 16 13  1  0  0  0  0
 16 17  1  0  0  0  0
 18 11  1  0  0  0  0
 19 18  1  1  0  0  0
 19 21  1  0  0  0  0
 20 19  1  0  0  0  0
 20 21  1  0  0  0  0
 22 23  1  0  0  0  0
 23 25  1  0  0  0  0
 23 24  2  0  0  0  0
 26 25  1  0  0  0  0
 27 26  1  0  0  0  0
 28 30  1  0  0  0  0
 29 30  2  0  0  0  0
 30 27  1  0  0  0  0
 30 31  1  0  0  0  0
 32  1  1  0  0  0  0
 32 47  1  1  0  0  0
 33 34  2  0  0  0  0
 33 32  1  0  0  0  0
 35 33  1  0  0  0  0
 37 36  1  6  0  0  0
 37 35  1  0  0  0  0
 38 40  1  0  0  0  0
 38 39  2  0  0  0  0
 39 37  1  0  0  0  0
 41 40  1  0  0  0  0
 42 41  1  0  0  0  0
 42 43  1  0  0  0  0
 44 43  1  0  0  0  0
 44 45  1  0  0  0  0
 46 45  1  0  0  0  0
 48 47  2  0  0  0  0
M  END
>  <MODEL>
8

>  <REMARK>
 VINA RESULT:      -5.8      4.001      9.206
  Name = 
  21 active torsions:
  status: ('A' for Active; 'I' for Inactive)
    1  A    between atoms: C_1  and  C_19
    2  A    between atoms: C_4  and  N_37
    3  A    between atoms: C_6  and  C_35
    4  A    between atoms: C_7  and  C_12
    5  A    between atoms: C_7  and  O_26
    6  A    between atoms: C_8  and  O_31
    7  A    between atoms: C_8  and  C_33
    8  A    between atoms: C_9  and  C_23
    9  A    between atoms: C_9  and  N_24
   10  A    between atoms: C_10  and  C_35
   11  A    between atoms: O_11  and  C_18
   12  A    between atoms: C_12  and  N_14
   13  A    between atoms: C_13  and  C_19
   14  A    between atoms: N_14  and  C_22
   15  A    between atoms: C_16  and  C_35
   16  A    between atoms: C_18  and  O_26
   17  A    between atoms: C_25  and  C_28
   18  A    between atoms: C_25  and  P_34
   19  A    between atoms: C_28  and  C_33
   20  A    between atoms: O_31  and  C_43
   21  A    between atoms: C_36  and  C_42
                            x       y       z     vdW  Elec       q    Type
                         _______ _______ _______ _____ _____    ______ ____

>  <TORSDO>
F 21

$$$$
=
 OpenBabel10222420523D

 48 50  0  0  1  0  0  0  0  0999 V2000
  186.6770  178.2580  143.3080 C   0  0  0  0  0  0  0  0  0  0  0  0
  184.6280  179.5560  145.2110 C   0  0  0  0  0  3  0  0  0  0  0  0
  187.3390  178.6280  144.6030 C   0  0  0  0  0  2  0  0  0  0  0  0
  185.4940  178.8130  142.9480 C   0  0  0  0  0  0  0  0  0  0  0  0
  185.3610  178.5890  146.0510 C   0  0  0  0  0  3  0  0  0  0  0  0
  186.5720  178.1050  145.7780 C   0  0  0  0  0  0  0  0  0  0  0  0
  184.6960  179.6550  143.8770 C   0  0  0  0  0  3  0  0  0  0  0  0
  185.4970  179.1730  140.6040 O   0  0  0  0  0  0  0  0  0  0  0  0
  183.7520  177.8290  141.3890 N   0  0  0  0  0  2  0  0  0  0  0  0
  184.9190  178.6390  141.5900 C   0  0  0  0  0  0  0  0  0  0  0  0
  181.6840  177.1180  137.7520 C   0  0  0  0  0  0  0  0  0  0  0  0
  181.0000  177.5930  138.8750 C   0  0  0  0  0  3  0  0  0  0  0  0
  183.0680  177.5790  140.1520 C   0  0  0  0  0  0  0  0  0  0  0  0
  183.0560  176.8660  137.8270 C   0  0  0  0  0  3  0  0  0  0  0  0
  183.7460  177.0970  139.0210 C   0  0  0  0  0  3  0  0  0  0  0  0
  181.6890  177.8260  140.0710 C   0  0  0  0  0  0  0  0  0  0  0  0
  180.9950  178.3060  141.1750 O   0  0  0  0  0  1  0  0  0  0  0  0
  180.9460  176.8570  136.4850 C   0  0  0  0  0  2  0  0  0  0  0  0
  180.1750  178.0920  136.0620 C   0  0  2  0  0  3  0  0  0  0  0  0
  180.1750  178.1810  134.5950 N   0  0  0  0  0  2  0  0  0  0  0  0
  181.0740  179.0240  135.3950 C   0  0  0  0  0  2  0  0  0  0  0  0
  187.1020  177.1390  146.6450 O   0  0  0  0  0  0  0  0  0  0  0  0
  187.9480  177.3840  147.7370 C   0  0  0  0  0  0  0  0  0  0  0  0
  187.5690  177.1990  148.9250 O   0  0  0  0  0  0  0  0  0  0  0  0
  189.3400  177.8380  147.4840 C   0  0  0  0  0  2  0  0  0  0  0  0
  189.9070  177.1030  146.2880 C   0  0  0  0  0  2  0  0  0  0  0  0
  191.4200  177.1520  146.3330 C   0  0  0  0  0  2  0  0  0  0  0  0
  190.9170  174.8680  147.7170 O   0  0  0  0  0  1  0  0  0  0  0  0
  193.1980  176.0190  148.2730 O   0  0  0  0  0  1  0  0  0  0  0  0
  192.0590  175.6290  147.0860 P   0  0  0  0  0  0  0  0  0  0  0  0
  192.7850  174.6690  145.8980 O   0  0  0  0  0  0  0  0  0  0  0  0
  187.3850  177.2590  142.4270 C   0  0  1  0  0  3  0  0  0  0  0  0
  188.4740  177.8830  141.5880 C   0  0  0  0  0  0  0  0  0  0  0  0
  188.6040  179.1380  141.5530 O   0  0  0  0  0  0  0  0  0  0  0  0
  189.2980  177.0610  140.7540 N   0  0  0  0  0  2  0  0  0  0  0  0
  191.6800  177.5210  140.6360 C   0  0  0  0  0  1  0  0  0  0  0  0
  190.3500  177.6060  139.9110 C   0  0  1  0  0  3  0  0  0  0  0  0
  189.6860  177.1470  137.5620 C   0  0  0  0  0  3  0  0  0  0  0  0
  190.4120  176.8330  138.6340 C   0  0  0  0  0  2  0  0  0  0  0  0
  188.7840  178.2530  137.5690 N   0  0  0  0  0  0  0  0  0  0  0  0
  187.7900  178.4180  136.5210 C   0  0  0  0  0  2  0  0  0  0  0  0
  187.3640  177.0640  135.9750 C   0  0  0  0  0  2  0  0  0  0  0  0
  186.4020  176.4970  136.8110 O   0  0  0  0  0  0  0  0  0  0  0  0
  186.1900  175.2220  136.2900 C   0  0  0  0  0  2  0  0  0  0  0  0
  186.0670  175.2980  134.9030 O   0  0  0  0  0  0  0  0  0  0  0  0
  184.7620  174.8780  134.6410 C   0  0  0  0  0  1  0  0  0  0  0  0
  187.8710  176.0970  143.2400 C   0  0  0  0  0  3  0  0  0  0  0  0
  189.0600  175.9550  143.4710 O   0  0  0  0  0  0  0  0  0  0  0  0
  1  3  1  0  0  0  0
  2  5  1  0  0  0  0
  3  6  1  0  0  0  0
  4  1  2  0  0  0  0
  4  7  1  0  0  0  0
  6  5  2  0  0  0  0
  6 22  1  0  0  0  0
  7  2  2  0  0  0  0
  8 10  2  0  0  0  0
  9 10  1  0  0  0  0
 10  4  1  0  0  0  0
 11 14  2  0  0  0  0
 11 12  1  0  0  0  0
 12 16  2  0  0  0  0
 13  9  1  0  0  0  0
 14 15  1  0  0  0  0
 15 13  2  0  0  0  0
 16 13  1  0  0  0  0
 16 17  1  0  0  0  0
 18 11  1  0  0  0  0
 19 18  1  6  0  0  0
 20 21  1  0  0  0  0
 20 19  1  0  0  0  0
 21 19  1  0  0  0  0
 22 23  1  0  0  0  0
 23 24  2  0  0  0  0
 25 23  1  0  0  0  0
 26 27  1  0  0  0  0
 26 25  1  0  0  0  0
 27 30  1  0  0  0  0
 30 28  1  0  0  0  0
 30 29  1  0  0  0  0
 31 30  2  0  0  0  0
 32 47  1  1  0  0  0
 32  1  1  0  0  0  0
 33 32  1  0  0  0  0
 34 33  2  0  0  0  0
 35 33  1  0  0  0  0
 37 36  1  1  0  0  0
 37 35  1  0  0  0  0
 38 40  2  0  0  0  0
 38 39  1  0  0  0  0
 39 37  1  0  0  0  0
 41 40  1  0  0  0  0
 42 41  1  0  0  0  0
 42 43  1  0  0  0  0
 44 43  1  0  0  0  0
 45 44  1  0  0  0  0
 46 45  1  0  0  0  0
 47 48  2  0  0  0  0
M  END
>  <MODEL>
9

>  <REMARK>
 VINA RESULT:      -5.5      4.009      9.759
  Name = 
  21 active torsions:
  status: ('A' for Active; 'I' for Inactive)
    1  A    between atoms: C_1  and  C_19
    2  A    between atoms: C_4  and  N_37
    3  A    between atoms: C_6  and  C_35
    4  A    between atoms: C_7  and  C_12
    5  A    between atoms: C_7  and  O_26
    6  A    between atoms: C_8  and  O_31
    7  A    between atoms: C_8  and  C_33
    8  A    between atoms: C_9  and  C_23
    9  A    between atoms: C_9  and  N_24
   10  A    between atoms: C_10  and  C_35
   11  A    between atoms: O_11  and  C_18
   12  A    between atoms: C_12  and  N_14
   13  A    between atoms: C_13  and  C_19
   14  A    between atoms: N_14  and  C_22
   15  A    between atoms: C_16  and  C_35
   16  A    between atoms: C_18  and  O_26
   17  A    between atoms: C_25  and  C_28
   18  A    between atoms: C_25  and  P_34
   19  A    between atoms: C_28  and  C_33
   20  A    between atoms: O_31  and  C_43
   21  A    between atoms: C_36  and  C_42
                            x       y       z     vdW  Elec       q    Type
                         _______ _______ _______ _____ _____    ______ ____

>  <TORSDO>
F 21

$$$$
