=
 OpenBabel10222419503D

 50 55  0  0  1  0  0  0  0  0999 V2000
  190.8810  177.6800  144.9390 C   0  0  0  0  0  2  0  0  0  0  0  0
  189.2860  177.7640  147.0860 N   0  0  0  0  0  2  0  0  0  0  0  0
  189.9710  176.6040  144.8600 C   0  0  2  0  0  3  0  0  0  0  0  0
  188.6470  177.0130  144.3530 N   0  0  0  0  0  0  0  0  0  0  0  0
  187.9390  177.8960  146.5990 C   0  0  0  0  0  0  0  0  0  0  0  0
  186.9460  178.4010  147.4410 C   0  0  0  0  0  3  0  0  0  0  0  0
  190.0890  177.3110  146.1970 C   0  0  1  0  0  3  0  0  0  0  0  0
  185.3100  178.2340  145.6560 C   0  0  0  0  0  0  0  0  0  0  0  0
  187.6150  177.5430  145.2480 C   0  0  0  0  0  0  0  0  0  0  0  0
  186.3000  177.7260  144.8000 C   0  0  0  0  0  3  0  0  0  0  0  0
  185.6410  178.5670  146.9720 C   0  0  0  0  0  3  0  0  0  0  0  0
  188.3550  176.7470  142.9500 C   0  0  0  0  0  2  0  0  0  0  0  0
  188.8040  177.9130  142.0920 C   0  0  0  0  0  2  0  0  0  0  0  0
  189.9320  177.4640  141.1670 C   0  0  0  0  0  2  0  0  0  0  0  0
  189.6990  177.8240  139.7660 N   0  0  0  0  0  0  0  0  0  0  0  0
  187.8070  177.8850  138.6740 C   0  0  0  0  0  1  0  0  0  0  0  0
  188.7330  177.0150  139.2570 O   0  0  0  0  0  0  0  0  0  0  0  0
  190.9240  177.5860  139.0120 C   0  0  0  0  0  2  0  0  0  0  0  0
  190.9880  176.1370  138.5550 C   0  0  0  0  0  2  0  0  0  0  0  0
  191.3830  176.0560  137.1540 N   0  0  0  0  0  0  0  0  0  0  0  0
  193.6340  176.4320  137.6780 O   0  0  0  0  0  1  0  0  0  0  0  0
  193.1640  176.1170  135.4630 O   0  0  0  0  0  0  0  0  0  0  0  0
  192.7670  176.2090  136.7920 C   0  0  0  0  0  0  0  0  0  0  0  0
  188.1740  174.6400  135.6580 C   0  0  0  0  0  2  0  0  0  0  0  0
  189.6710  177.1050  135.7300 C   0  0  0  0  0  2  0  0  0  0  0  0
  190.3430  175.7980  136.1560 C   0  0  2  0  0  3  0  0  0  0  0  0
  189.9710  173.4190  136.8480 C   0  0  0  0  0  1  0  0  0  0  0  0
  187.5440  175.9380  135.4270 N   0  0  0  0  0  2  0  0  0  0  0  0
  188.5190  176.8090  134.7750 C   0  0  0  0  0  2  0  0  0  0  0  0
  189.3160  174.7750  136.6630 C   0  0  2  0  0  3  0  0  0  0  0  0
  183.9950  178.4190  145.2200 O   0  0  0  0  0  0  0  0  0  0  0  0
  183.6140  179.4990  144.3780 C   0  0  0  0  0  2  0  0  0  0  0  0
  182.6470  179.0000  143.3250 C   0  0  0  0  0  2  0  0  0  0  0  0
  181.2580  178.8910  143.9270 C   0  0  0  0  0  2  0  0  0  0  0  0
  180.2530  178.8830  142.8780 N   0  0  0  0  0  2  0  0  0  0  0  0
  180.5890  177.4980  140.6950 C   0  0  0  0  0  0  0  0  0  0  0  0
  180.4320  178.1380  141.7030 C   0  0  0  0  0  0  0  0  0  0  0  0
  180.7840  176.7190  139.4680 C   0  0  2  0  0  3  0  0  0  0  0  0
  180.2350  175.4430  139.6120 O   0  0  0  0  0  1  0  0  0  0  0  0
  182.5770  177.0170  137.6370 C   0  0  1  0  0  0  0  0  0  0  0  0
  182.2630  176.6470  139.0830 C   0  0  1  0  0  3  0  0  0  0  0  0
  184.0950  177.9520  139.1720 C   0  0  2  0  0  3  0  0  0  0  0  0
  183.6940  178.0050  137.7130 C   0  0  1  0  0  3  0  0  0  0  0  0
  183.9270  176.6570  137.0510 C   0  0  2  0  0  3  0  0  0  0  0  0
  183.0220  177.4610  139.9390 O   0  0  0  0  0  0  0  0  0  0  0  0
  181.5690  177.4640  136.7760 O   0  0  0  0  0  1  0  0  0  0  0  0
  183.9150  176.8120  135.6630 O   0  0  0  0  0  1  0  0  0  0  0  0
  184.4900  179.3090  139.6480 C   0  0  0  0  0  0  0  0  0  0  0  0
  184.1130  180.3390  139.0290 O   0  0  0  0  0  0  0  0  0  0  0  0
  185.2960  179.4350  140.7710 O   0  0  0  0  0  1  0  0  0  0  0  0
  3  1  1  6  0  0  0
  3  7  1  0  0  0  0
  4  3  1  0  0  0  0
  4  9  1  0  0  0  0
  5  2  1  0  0  0  0
  5  6  1  0  0  0  0
  7  1  1  6  0  0  0
  7  2  1  0  0  0  0
  8 11  1  0  0  0  0
  9  5  2  0  0  0  0
 10  9  1  0  0  0  0
 10  8  2  0  0  0  0
 11  6  2  0  0  0  0
 12  4  1  0  0  0  0
 13 12  1  0  0  0  0
 14 13  1  0  0  0  0
 15 14  1  0  0  0  0
 16 17  1  0  0  0  0
 17 15  1  0  0  0  0
 18 15  1  0  0  0  0
 19 18  1  0  0  0  0
 20 19  1  0  0  0  0
 22 23  2  0  0  0  0
 23 20  1  0  0  0  0
 23 21  1  0  0  0  0
 24 30  1  0  0  0  0
 25 26  1  0  0  0  0
 26 30  1  0  0  0  0
 26 20  1  1  0  0  0
 28 24  1  0  0  0  0
 29 28  1  0  0  0  0
 29 25  1  0  0  0  0
 30 27  1  6  0  0  0
 31  8  1  0  0  0  0
 32 31  1  0  0  0  0
 33 34  1  0  0  0  0
 33 32  1  0  0  0  0
 35 34  1  0  0  0  0
 36 37  3  0  0  0  0
 37 35  1  0  0  0  0
 38 39  1  1  0  0  0
 38 36  1  0  0  0  0
 40 46  1  6  0  0  0
 40 43  1  0  0  0  0
 40 41  1  0  0  0  0
 41 38  1  1  0  0  0
 41 45  1  0  0  0  0
 42 48  1  1  0  0  0
 42 45  1  0  0  0  0
 43 42  1  0  0  0  0
 44 40  1  0  0  0  0
 44 43  1  0  0  0  0
 47 44  1  0  0  0  0
 48 50  1  0  0  0  0
 49 48  2  0  0  0  0
M  END
>  <MODEL>
1

>  <REMARK>
 VINA RESULT:      -7.7      0.000      0.000
  Name = 
  18 active torsions:
  status: ('A' for Active; 'I' for Inactive)
    1  A    between atoms: C_1  and  C_14
    2  A    between atoms: C_2  and  C_15
    3  A    between atoms: C_2  and  N_24
    4  A    between atoms: O_3  and  C_39
    5  A    between atoms: O_3  and  C_48
    6  A    between atoms: C_6  and  C_17
    7  A    between atoms: C_8  and  C_17
    8  A    between atoms: C_11  and  N_16
    9  A    between atoms: C_13  and  N_24
   10  A    between atoms: C_13  and  C_34
   11  A    between atoms: C_15  and  N_16
   12  A    between atoms: N_24  and  O_32
   13  A    between atoms: N_25  and  C_49
   14  A    between atoms: N_30  and  C_33
   15  A    between atoms: N_30  and  C_46
   16  A    between atoms: C_34  and  C_49
   17  A    between atoms: C_46  and  C_50
   18  A    between atoms: C_48  and  C_50
                            x       y       z     vdW  Elec       q    Type
                         _______ _______ _______ _____ _____    ______ ____

>  <TORSDO>
F 18

$$$$
=
 OpenBabel10222419503D

 50 55  0  0  1  0  0  0  0  0999 V2000
  190.9260  177.4190  145.0600 C   0  0  0  0  0  2  0  0  0  0  0  0
  189.3270  177.7400  147.1820 N   0  0  0  0  0  2  0  0  0  0  0  0
  189.9440  176.4060  145.0350 C   0  0  2  0  0  3  0  0  0  0  0  0
  188.6550  176.8740  144.4920 N   0  0  0  0  0  0  0  0  0  0  0  0
  187.9950  177.9350  146.6740 C   0  0  0  0  0  0  0  0  0  0  0  0
  187.0360  178.5570  147.4750 C   0  0  0  0  0  3  0  0  0  0  0  0
  190.1030  177.1800  146.3290 C   0  0  1  0  0  3  0  0  0  0  0  0
  185.4030  178.3970  145.6860 C   0  0  0  0  0  0  0  0  0  0  0  0
  187.6570  177.5260  145.3430 C   0  0  0  0  0  0  0  0  0  0  0  0
  186.3600  177.7720  144.8710 C   0  0  0  0  0  3  0  0  0  0  0  0
  185.7480  178.7850  146.9830 C   0  0  0  0  0  3  0  0  0  0  0  0
  188.3540  176.5460  143.1030 C   0  0  0  0  0  2  0  0  0  0  0  0
  188.8880  177.6250  142.1830 C   0  0  0  0  0  2  0  0  0  0  0  0
  190.2410  177.1960  141.6220 C   0  0  0  0  0  2  0  0  0  0  0  0
  190.2010  176.9210  140.1840 N   0  0  0  0  0  0  0  0  0  0  0  0
  192.3460  177.3370  140.1610 C   0  0  0  0  0  1  0  0  0  0  0  0
  191.1330  177.6890  139.5620 O   0  0  0  0  0  0  0  0  0  0  0  0
  188.8910  177.3060  139.6700 C   0  0  0  0  0  2  0  0  0  0  0  0
  189.0440  178.3190  138.5460 C   0  0  0  0  0  2  0  0  0  0  0  0
  188.5740  177.7610  137.2830 N   0  0  0  0  0  0  0  0  0  0  0  0
  187.2350  179.6330  136.8540 O   0  0  0  0  0  1  0  0  0  0  0  0
  187.2090  178.0000  135.2550 O   0  0  0  0  0  0  0  0  0  0  0  0
  187.6530  178.5090  136.4700 C   0  0  0  0  0  0  0  0  0  0  0  0
  188.5630  174.2750  135.7390 C   0  0  0  0  0  2  0  0  0  0  0  0
  190.2550  176.6050  135.9050 C   0  0  0  0  0  2  0  0  0  0  0  0
  189.0830  176.4490  136.8760 C   0  0  2  0  0  3  0  0  0  0  0  0
  186.9400  175.2380  137.3420 C   0  0  0  0  0  1  0  0  0  0  0  0
  189.5900  174.5630  134.7390 N   0  0  0  0  0  2  0  0  0  0  0  0
  190.7010  175.2340  135.4060 C   0  0  0  0  0  2  0  0  0  0  0  0
  187.9710  175.5730  136.2800 C   0  0  2  0  0  3  0  0  0  0  0  0
  184.1060  178.6470  145.2270 O   0  0  0  0  0  0  0  0  0  0  0  0
  183.8290  179.5730  144.1850 C   0  0  0  0  0  2  0  0  0  0  0  0
  182.9910  178.8980  143.1200 C   0  0  0  0  0  2  0  0  0  0  0  0
  181.5210  179.0440  143.4680 C   0  0  0  0  0  2  0  0  0  0  0  0
  180.7240  179.1440  142.2570 N   0  0  0  0  0  2  0  0  0  0  0  0
  180.9600  177.3960  140.3370 C   0  0  0  0  0  0  0  0  0  0  0  0
  180.8490  178.2030  141.2240 C   0  0  0  0  0  0  0  0  0  0  0  0
  181.0980  176.4120  139.2580 C   0  0  2  0  0  3  0  0  0  0  0  0
  180.7910  175.1330  139.7260 O   0  0  0  0  0  1  0  0  0  0  0  0
  182.5840  177.1190  137.2700 C   0  0  1  0  0  0  0  0  0  0  0  0
  182.4980  176.4550  138.6410 C   0  0  1  0  0  3  0  0  0  0  0  0
  184.3320  177.7590  138.7090 C   0  0  2  0  0  3  0  0  0  0  0  0
  183.7070  178.0980  137.3720 C   0  0  1  0  0  3  0  0  0  0  0  0
  183.8230  176.9180  136.4210 C   0  0  2  0  0  3  0  0  0  0  0  0
  183.3890  177.0970  139.5170 O   0  0  0  0  0  0  0  0  0  0  0  0
  181.4580  177.7070  136.6870 O   0  0  0  0  0  1  0  0  0  0  0  0
  183.5930  177.3520  135.1130 O   0  0  0  0  0  1  0  0  0  0  0  0
  184.8080  179.0010  139.3860 C   0  0  0  0  0  0  0  0  0  0  0  0
  184.2800  180.1140  139.1240 O   0  0  0  0  0  0  0  0  0  0  0  0
  185.8530  178.9290  140.2950 O   0  0  0  0  0  1  0  0  0  0  0  0
  3  1  1  6  0  0  0
  3  7  1  0  0  0  0
  4  3  1  0  0  0  0
  4  9  1  0  0  0  0
  5  2  1  0  0  0  0
  5  6  1  0  0  0  0
  7  1  1  6  0  0  0
  7  2  1  0  0  0  0
  8 11  1  0  0  0  0
  9  5  2  0  0  0  0
 10  9  1  0  0  0  0
 10  8  2  0  0  0  0
 11  6  2  0  0  0  0
 12  4  1  0  0  0  0
 13 12  1  0  0  0  0
 14 13  1  0  0  0  0
 15 14  1  0  0  0  0
 17 16  1  0  0  0  0
 17 15  1  0  0  0  0
 18 15  1  0  0  0  0
 19 18  1  0  0  0  0
 20 19  1  0  0  0  0
 22 23  2  0  0  0  0
 23 21  1  0  0  0  0
 23 20  1  0  0  0  0
 24 30  1  0  0  0  0
 25 26  1  0  0  0  0
 26 20  1  6  0  0  0
 28 29  1  0  0  0  0
 28 24  1  0  0  0  0
 29 25  1  0  0  0  0
 30 26  1  0  0  0  0
 30 27  1  1  0  0  0
 31  8  1  0  0  0  0
 32 31  1  0  0  0  0
 33 34  1  0  0  0  0
 33 32  1  0  0  0  0
 35 34  1  0  0  0  0
 36 37  3  0  0  0  0
 37 35  1  0  0  0  0
 38 39  1  1  0  0  0
 38 36  1  0  0  0  0
 40 46  1  6  0  0  0
 40 43  1  0  0  0  0
 40 41  1  0  0  0  0
 41 38  1  1  0  0  0
 41 45  1  0  0  0  0
 42 48  1  1  0  0  0
 42 45  1  0  0  0  0
 43 42  1  0  0  0  0
 44 40  1  0  0  0  0
 44 43  1  0  0  0  0
 47 44  1  0  0  0  0
 48 50  1  0  0  0  0
 49 48  2  0  0  0  0
M  END
>  <MODEL>
2

>  <REMARK>
 VINA RESULT:      -7.6      1.389      2.085
  Name = 
  18 active torsions:
  status: ('A' for Active; 'I' for Inactive)
    1  A    between atoms: C_1  and  C_14
    2  A    between atoms: C_2  and  C_15
    3  A    between atoms: C_2  and  N_24
    4  A    between atoms: O_3  and  C_39
    5  A    between atoms: O_3  and  C_48
    6  A    between atoms: C_6  and  C_17
    7  A    between atoms: C_8  and  C_17
    8  A    between atoms: C_11  and  N_16
    9  A    between atoms: C_13  and  N_24
   10  A    between atoms: C_13  and  C_34
   11  A    between atoms: C_15  and  N_16
   12  A    between atoms: N_24  and  O_32
   13  A    between atoms: N_25  and  C_49
   14  A    between atoms: N_30  and  C_33
   15  A    between atoms: N_30  and  C_46
   16  A    between atoms: C_34  and  C_49
   17  A    between atoms: C_46  and  C_50
   18  A    between atoms: C_48  and  C_50
                            x       y       z     vdW  Elec       q    Type
                         _______ _______ _______ _____ _____    ______ ____

>  <TORSDO>
F 18

$$$$
=
 OpenBabel10222419503D

 50 55  0  0  1  0  0  0  0  0999 V2000
  191.9460  177.4530  143.5360 C   0  0  0  0  0  2  0  0  0  0  0  0
  191.4410  176.5520  146.0050 N   0  0  0  0  0  2  0  0  0  0  0  0
  190.8210  176.6020  143.4780 C   0  0  2  0  0  3  0  0  0  0  0  0
  189.5760  177.2740  143.8960 N   0  0  0  0  0  0  0  0  0  0  0  0
  190.1060  176.9750  146.3370 C   0  0  0  0  0  0  0  0  0  0  0  0
  189.7190  177.0510  147.6760 C   0  0  0  0  0  3  0  0  0  0  0  0
  191.6580  176.5540  144.7420 C   0  0  1  0  0  3  0  0  0  0  0  0
  187.5280  177.8660  147.0230 C   0  0  0  0  0  0  0  0  0  0  0  0
  189.1830  177.3480  145.3060 C   0  0  0  0  0  0  0  0  0  0  0  0
  187.9060  177.7940  145.6730 C   0  0  0  0  0  3  0  0  0  0  0  0
  188.4380  177.4930  148.0150 C   0  0  0  0  0  3  0  0  0  0  0  0
  188.6830  177.7460  142.8450 C   0  0  0  0  0  2  0  0  0  0  0  0
  188.7550  176.8240  141.6440 C   0  0  0  0  0  2  0  0  0  0  0  0
  189.2640  177.5990  140.4330 C   0  0  0  0  0  2  0  0  0  0  0  0
  189.9000  176.7400  139.4310 N   0  0  0  0  0  0  0  0  0  0  0  0
  191.6800  176.5770  138.1740 C   0  0  0  0  0  1  0  0  0  0  0  0
  191.2400  176.9660  139.4420 O   0  0  0  0  0  0  0  0  0  0  0  0
  189.3970  177.1080  138.1120 C   0  0  0  0  0  2  0  0  0  0  0  0
  187.8860  176.9370  138.0600 C   0  0  0  0  0  2  0  0  0  0  0  0
  187.4090  176.9950  136.6830 N   0  0  0  0  0  0  0  0  0  0  0  0
  187.4930  179.3350  136.6610 O   0  0  0  0  0  1  0  0  0  0  0  0
  186.8100  178.3430  134.7190 O   0  0  0  0  0  0  0  0  0  0  0  0
  187.2460  178.2700  136.0360 C   0  0  0  0  0  0  0  0  0  0  0  0
  188.0860  173.5960  135.0920 C   0  0  0  0  0  2  0  0  0  0  0  0
  186.1560  174.8800  136.8080 C   0  0  0  0  0  2  0  0  0  0  0  0
  187.1310  175.7330  135.9940 C   0  0  2  0  0  3  0  0  0  0  0  0
  189.2610  175.7360  134.6760 C   0  0  0  0  0  1  0  0  0  0  0  0
  187.2450  172.8400  136.0180 N   0  0  0  0  0  2  0  0  0  0  0  0
  185.9610  173.5260  136.1330 C   0  0  0  0  0  2  0  0  0  0  0  0
  188.4220  174.9650  135.6780 C   0  0  2  0  0  3  0  0  0  0  0  0
  186.2570  178.3080  147.4010 O   0  0  0  0  0  0  0  0  0  0  0  0
  185.5420  179.2960  146.6710 C   0  0  0  0  0  2  0  0  0  0  0  0
  184.4780  178.6260  145.8270 C   0  0  0  0  0  2  0  0  0  0  0  0
  184.4740  179.2400  144.4390 C   0  0  0  0  0  2  0  0  0  0  0  0
  185.2460  178.4180  143.5220 N   0  0  0  0  0  2  0  0  0  0  0  0
  184.9340  178.6140  140.9400 C   0  0  0  0  0  0  0  0  0  0  0  0
  185.0790  178.5250  142.1330 C   0  0  0  0  0  0  0  0  0  0  0  0
  184.7560  178.7200  139.4880 C   0  0  2  0  0  3  0  0  0  0  0  0
  184.4170  180.0280  139.1360 O   0  0  0  0  0  1  0  0  0  0  0  0
  182.2620  178.1520  139.1580 C   0  0  1  0  0  0  0  0  0  0  0  0
  183.7140  177.7210  138.9810 C   0  0  1  0  0  3  0  0  0  0  0  0
  182.6830  177.1940  137.0510 C   0  0  2  0  0  3  0  0  0  0  0  0
  181.6200  177.9450  137.8260 C   0  0  1  0  0  3  0  0  0  0  0  0
  181.1570  177.1240  139.0180 C   0  0  2  0  0  3  0  0  0  0  0  0
  183.9440  177.4340  137.6260 O   0  0  0  0  0  0  0  0  0  0  0  0
  181.9450  179.4110  139.6760 O   0  0  0  0  0  1  0  0  0  0  0  0
  179.9480  177.6380  139.4940 O   0  0  0  0  0  1  0  0  0  0  0  0
  182.6780  177.6220  135.6220 C   0  0  0  0  0  0  0  0  0  0  0  0
  183.6560  177.3580  134.8720 O   0  0  0  0  0  0  0  0  0  0  0  0
  181.5980  178.3340  135.1220 O   0  0  0  0  0  1  0  0  0  0  0  0
  2  5  1  0  0  0  0
  3  1  1  6  0  0  0
  3  4  1  0  0  0  0
  3  7  1  0  0  0  0
  4  9  1  0  0  0  0
  5  6  1  0  0  0  0
  6 11  2  0  0  0  0
  7  1  1  1  0  0  0
  7  2  1  0  0  0  0
  8 31  1  0  0  0  0
  8 11  1  0  0  0  0
  9 10  1  0  0  0  0
  9  5  2  0  0  0  0
 10  8  2  0  0  0  0
 12  4  1  0  0  0  0
 13 12  1  0  0  0  0
 14 13  1  0  0  0  0
 15 17  1  0  0  0  0
 15 14  1  0  0  0  0
 16 17  1  0  0  0  0
 18 15  1  0  0  0  0
 19 18  1  0  0  0  0
 20 19  1  0  0  0  0
 22 23  2  0  0  0  0
 23 21  1  0  0  0  0
 23 20  1  0  0  0  0
 24 30  1  0  0  0  0
 24 28  1  0  0  0  0
 26 20  1  1  0  0  0
 26 25  1  0  0  0  0
 28 29  1  0  0  0  0
 29 25  1  0  0  0  0
 30 27  1  6  0  0  0
 30 26  1  0  0  0  0
 32 31  1  0  0  0  0
 33 32  1  0  0  0  0
 34 33  1  0  0  0  0
 35 34  1  0  0  0  0
 36 37  3  0  0  0  0
 37 35  1  0  0  0  0
 38 39  1  1  0  0  0
 38 36  1  0  0  0  0
 40 46  1  1  0  0  0
 41 40  1  0  0  0  0
 41 38  1  6  0  0  0
 42 48  1  6  0  0  0
 42 45  1  0  0  0  0
 42 43  1  0  0  0  0
 43 44  1  0  0  0  0
 43 40  1  0  0  0  0
 44 40  1  0  0  0  0
 44 47  1  0  0  0  0
 45 41  1  0  0  0  0
 49 48  2  0  0  0  0
 50 48  1  0  0  0  0
M  END
>  <MODEL>
3

>  <REMARK>
 VINA RESULT:      -7.3      1.903      3.626
  Name = 
  18 active torsions:
  status: ('A' for Active; 'I' for Inactive)
    1  A    between atoms: C_1  and  C_14
    2  A    between atoms: C_2  and  C_15
    3  A    between atoms: C_2  and  N_24
    4  A    between atoms: O_3  and  C_39
    5  A    between atoms: O_3  and  C_48
    6  A    between atoms: C_6  and  C_17
    7  A    between atoms: C_8  and  C_17
    8  A    between atoms: C_11  and  N_16
    9  A    between atoms: C_13  and  N_24
   10  A    between atoms: C_13  and  C_34
   11  A    between atoms: C_15  and  N_16
   12  A    between atoms: N_24  and  O_32
   13  A    between atoms: N_25  and  C_49
   14  A    between atoms: N_30  and  C_33
   15  A    between atoms: N_30  and  C_46
   16  A    between atoms: C_34  and  C_49
   17  A    between atoms: C_46  and  C_50
   18  A    between atoms: C_48  and  C_50
                            x       y       z     vdW  Elec       q    Type
                         _______ _______ _______ _____ _____    ______ ____

>  <TORSDO>
F 18

$$$$
=
 OpenBabel10222419503D

 50 55  0  0  1  0  0  0  0  0999 V2000
  188.6550  176.6630  147.7460 C   0  0  0  0  0  2  0  0  0  0  0  0
  190.7350  177.4560  146.2610 N   0  0  0  0  0  2  0  0  0  0  0  0
  188.2390  177.7410  146.9360 C   0  0  2  0  0  3  0  0  0  0  0  0
  187.9200  177.3280  145.5560 N   0  0  0  0  0  0  0  0  0  0  0  0
  190.3440  177.3120  144.8850 C   0  0  0  0  0  0  0  0  0  0  0  0
  191.3230  177.2170  143.8940 C   0  0  0  0  0  3  0  0  0  0  0  0
  189.7320  177.5060  147.0570 C   0  0  1  0  0  3  0  0  0  0  0  0
  189.6120  176.9570  142.1920 C   0  0  0  0  0  0  0  0  0  0  0  0
  188.9580  177.2320  144.5270 C   0  0  0  0  0  0  0  0  0  0  0  0
  188.6190  177.0490  143.1790 C   0  0  0  0  0  3  0  0  0  0  0  0
  190.9580  177.0420  142.5570 C   0  0  0  0  0  3  0  0  0  0  0  0
  186.5130  177.1470  145.2190 C   0  0  0  0  0  2  0  0  0  0  0  0
  185.8540  178.4920  144.9820 C   0  0  0  0  0  2  0  0  0  0  0  0
  185.2900  178.5420  143.5650 C   0  0  0  0  0  2  0  0  0  0  0  0
  184.0550  179.3250  143.4700 N   0  0  0  0  0  0  0  0  0  0  0  0
  182.0110  178.6540  143.8470 C   0  0  0  0  0  1  0  0  0  0  0  0
  183.2210  178.9580  144.4770 O   0  0  0  0  0  0  0  0  0  0  0  0
  183.3970  179.0080  142.2070 C   0  0  0  0  0  2  0  0  0  0  0  0
  184.4290  178.8680  141.0970 C   0  0  0  0  0  2  0  0  0  0  0  0
  183.8070  178.3660  139.8780 N   0  0  0  0  0  0  0  0  0  0  0  0
  185.7130  178.8450  138.6050 O   0  0  0  0  0  1  0  0  0  0  0  0
  183.9720  177.8910  137.4730 O   0  0  0  0  0  0  0  0  0  0  0  0
  184.5430  178.3810  138.6420 C   0  0  0  0  0  0  0  0  0  0  0  0
  180.1320  177.8700  138.9900 C   0  0  0  0  0  2  0  0  0  0  0  0
  182.4400  176.3220  139.7620 C   0  0  0  0  0  2  0  0  0  0  0  0
  182.4430  177.8390  139.9640 C   0  0  2  0  0  3  0  0  0  0  0  0
  181.3410  180.0020  139.3470 C   0  0  0  0  0  1  0  0  0  0  0  0
  180.2570  176.4500  138.6700 N   0  0  0  0  0  2  0  0  0  0  0  0
  181.0050  175.8040  139.7450 C   0  0  0  0  0  2  0  0  0  0  0  0
  181.5030  178.5410  138.9730 C   0  0  2  0  0  3  0  0  0  0  0  0
  189.2860  176.7760  140.8450 O   0  0  0  0  0  0  0  0  0  0  0  0
  189.2740  177.8470  139.9110 C   0  0  0  0  0  2  0  0  0  0  0  0
  190.2180  177.5300  138.7700 C   0  0  0  0  0  2  0  0  0  0  0  0
  189.8410  176.1930  138.1600 C   0  0  0  0  0  2  0  0  0  0  0  0
  190.9160  175.2320  138.3460 N   0  0  0  0  0  2  0  0  0  0  0  0
  193.1950  175.4930  137.1070 C   0  0  0  0  0  0  0  0  0  0  0  0
  192.1410  175.3730  137.6780 C   0  0  0  0  0  0  0  0  0  0  0  0
  194.4790  175.6370  136.4130 C   0  0  2  0  0  3  0  0  0  0  0  0
  194.3070  175.4770  135.0360 O   0  0  0  0  0  1  0  0  0  0  0  0
  196.9600  174.9410  136.5470 C   0  0  1  0  0  0  0  0  0  0  0  0
  195.5190  174.6560  136.9590 C   0  0  1  0  0  3  0  0  0  0  0  0
  196.7540  174.3690  138.8200 C   0  0  2  0  0  3  0  0  0  0  0  0
  197.7510  174.9020  137.8130 C   0  0  1  0  0  3  0  0  0  0  0  0
  198.0150  173.8680  136.7310 C   0  0  2  0  0  3  0  0  0  0  0  0
  195.4450  174.6090  138.3610 O   0  0  0  0  0  0  0  0  0  0  0  0
  197.2790  176.0730  135.7910 O   0  0  0  0  0  1  0  0  0  0  0  0
  199.1800  174.2060  136.0400 O   0  0  0  0  0  1  0  0  0  0  0  0
  196.9610  175.0190  140.1460 C   0  0  0  0  0  0  0  0  0  0  0  0
  198.0350  174.8480  140.7820 O   0  0  0  0  0  1  0  0  0  0  0  0
  195.9530  175.8010  140.6920 O   0  0  0  0  0  0  0  0  0  0  0  0
  2  7  1  0  0  0  0
  3  7  1  0  0  0  0
  3  1  1  1  0  0  0
  4  3  1  0  0  0  0
  5  2  1  0  0  0  0
  6  5  2  0  0  0  0
  7  1  1  6  0  0  0
  8 11  2  0  0  0  0
  8 10  1  0  0  0  0
  9  5  1  0  0  0  0
  9  4  1  0  0  0  0
 10  9  2  0  0  0  0
 11  6  1  0  0  0  0
 12  4  1  0  0  0  0
 13 12  1  0  0  0  0
 14 13  1  0  0  0  0
 15 14  1  0  0  0  0
 15 17  1  0  0  0  0
 16 17  1  0  0  0  0
 18 15  1  0  0  0  0
 19 18  1  0  0  0  0
 20 19  1  0  0  0  0
 21 23  1  0  0  0  0
 22 23  2  0  0  0  0
 23 20  1  0  0  0  0
 25 26  1  0  0  0  0
 26 20  1  6  0  0  0
 28 24  1  0  0  0  0
 28 29  1  0  0  0  0
 29 25  1  0  0  0  0
 30 24  1  0  0  0  0
 30 27  1  1  0  0  0
 30 26  1  0  0  0  0
 31  8  1  0  0  0  0
 32 31  1  0  0  0  0
 33 32  1  0  0  0  0
 34 35  1  0  0  0  0
 34 33  1  0  0  0  0
 36 37  3  0  0  0  0
 37 35  1  0  0  0  0
 38 39  1  6  0  0  0
 38 36  1  0  0  0  0
 40 46  1  6  0  0  0
 40 44  1  0  0  0  0
 40 41  1  0  0  0  0
 40 43  1  0  0  0  0
 41 38  1  1  0  0  0
 41 45  1  0  0  0  0
 42 48  1  1  0  0  0
 43 42  1  0  0  0  0
 44 43  1  0  0  0  0
 45 42  1  0  0  0  0
 47 44  1  0  0  0  0
 48 50  2  0  0  0  0
 48 49  1  0  0  0  0
M  END
>  <MODEL>
4

>  <REMARK>
 VINA RESULT:      -7.1      2.783      9.772
  Name = 
  18 active torsions:
  status: ('A' for Active; 'I' for Inactive)
    1  A    between atoms: C_1  and  C_14
    2  A    between atoms: C_2  and  C_15
    3  A    between atoms: C_2  and  N_24
    4  A    between atoms: O_3  and  C_39
    5  A    between atoms: O_3  and  C_48
    6  A    between atoms: C_6  and  C_17
    7  A    between atoms: C_8  and  C_17
    8  A    between atoms: C_11  and  N_16
    9  A    between atoms: C_13  and  N_24
   10  A    between atoms: C_13  and  C_34
   11  A    between atoms: C_15  and  N_16
   12  A    between atoms: N_24  and  O_32
   13  A    between atoms: N_25  and  C_49
   14  A    between atoms: N_30  and  C_33
   15  A    between atoms: N_30  and  C_46
   16  A    between atoms: C_34  and  C_49
   17  A    between atoms: C_46  and  C_50
   18  A    between atoms: C_48  and  C_50
                            x       y       z     vdW  Elec       q    Type
                         _______ _______ _______ _____ _____    ______ ____

>  <TORSDO>
F 18

$$$$
=
 OpenBabel10222419503D

 50 55  0  0  1  0  0  0  0  0999 V2000
  191.6930  177.4630  143.7780 C   0  0  0  0  0  2  0  0  0  0  0  0
  190.3910  177.0190  146.0730 N   0  0  0  0  0  2  0  0  0  0  0  0
  190.7200  176.4650  143.5520 C   0  0  2  0  0  3  0  0  0  0  0  0
  189.3680  177.0210  143.3540 N   0  0  0  0  0  0  0  0  0  0  0  0
  189.0020  177.3030  145.8260 C   0  0  0  0  0  0  0  0  0  0  0  0
  188.1560  177.5930  146.8980 C   0  0  0  0  0  3  0  0  0  0  0  0
  191.0480  176.7960  144.9960 C   0  0  1  0  0  3  0  0  0  0  0  0
  186.2990  177.9340  145.3710 C   0  0  0  0  0  0  0  0  0  0  0  0
  188.4900  177.3230  144.4880 C   0  0  0  0  0  0  0  0  0  0  0  0
  187.1410  177.6450  144.2860 C   0  0  0  0  0  3  0  0  0  0  0  0
  186.8130  177.9050  146.6710 C   0  0  0  0  0  3  0  0  0  0  0  0
  188.8860  177.1370  141.9830 C   0  0  0  0  0  2  0  0  0  0  0  0
  190.0100  176.8520  141.0070 C   0  0  0  0  0  2  0  0  0  0  0  0
  189.9640  177.8630  139.8650 C   0  0  0  0  0  2  0  0  0  0  0  0
  189.7730  177.2360  138.5550 N   0  0  0  0  0  0  0  0  0  0  0  0
  187.7400  177.7910  137.9760 C   0  0  0  0  0  1  0  0  0  0  0  0
  188.5100  176.7400  138.4830 O   0  0  0  0  0  0  0  0  0  0  0  0
  190.6990  176.1160  138.4330 C   0  0  0  0  0  2  0  0  0  0  0  0
  191.7850  176.4400  137.4190 C   0  0  0  0  0  2  0  0  0  0  0  0
  192.0700  175.2800  136.5820 N   0  0  0  0  0  0  0  0  0  0  0  0
  189.8530  175.1660  135.8360 O   0  0  0  0  0  1  0  0  0  0  0  0
  191.2770  173.5990  134.9750 O   0  0  0  0  0  0  0  0  0  0  0  0
  191.0200  174.6940  135.7910 C   0  0  0  0  0  0  0  0  0  0  0  0
  195.8620  175.2870  136.1790 C   0  0  0  0  0  2  0  0  0  0  0  0
  193.8360  174.2380  137.9440 C   0  0  0  0  0  2  0  0  0  0  0  0
  193.4390  174.7610  136.5620 C   0  0  2  0  0  3  0  0  0  0  0  0
  194.1580  176.1340  134.5940 C   0  0  0  0  0  1  0  0  0  0  0  0
  196.1490  174.9310  137.5670 N   0  0  0  0  0  2  0  0  0  0  0  0
  195.2980  173.8030  137.9350 C   0  0  0  0  0  2  0  0  0  0  0  0
  194.4340  175.8130  136.0510 C   0  0  2  0  0  3  0  0  0  0  0  0
  184.9520  178.2560  145.1830 O   0  0  0  0  0  0  0  0  0  0  0  0
  184.5310  179.3290  144.3510 C   0  0  0  0  0  2  0  0  0  0  0  0
  183.4050  178.8600  143.4550 C   0  0  0  0  0  2  0  0  0  0  0  0
  182.0880  178.9670  144.2040 C   0  0  0  0  0  2  0  0  0  0  0  0
  181.0080  179.2760  143.2820 N   0  0  0  0  0  2  0  0  0  0  0  0
  180.6650  177.9000  141.0940 C   0  0  0  0  0  0  0  0  0  0  0  0
  180.8220  178.5360  142.1040 C   0  0  0  0  0  0  0  0  0  0  0  0
  180.4750  177.1220  139.8650 C   0  0  2  0  0  3  0  0  0  0  0  0
  179.8340  175.9150  140.1490 O   0  0  0  0  0  1  0  0  0  0  0  0
  181.9080  177.5090  137.7540 C   0  0  1  0  0  0  0  0  0  0  0  0
  181.8040  176.8880  139.1440 C   0  0  1  0  0  3  0  0  0  0  0  0
  183.8540  177.8140  139.0410 C   0  0  2  0  0  3  0  0  0  0  0  0
  183.2020  178.2540  137.7470 C   0  0  1  0  0  3  0  0  0  0  0  0
  183.0150  177.0640  136.8190 C   0  0  2  0  0  3  0  0  0  0  0  0
  182.8680  177.3540  139.9340 O   0  0  0  0  0  0  0  0  0  0  0  0
  180.8730  178.2980  137.2430 O   0  0  0  0  0  1  0  0  0  0  0  0
  182.7710  177.5210  135.5220 O   0  0  0  0  0  1  0  0  0  0  0  0
  184.6110  178.9470  139.6490 C   0  0  0  0  0  0  0  0  0  0  0  0
  185.2620  178.7820  140.7150 O   0  0  0  0  0  1  0  0  0  0  0  0
  184.5780  180.1960  139.0460 O   0  0  0  0  0  0  0  0  0  0  0  0
  3  1  1  6  0  0  0
  3  7  1  0  0  0  0
  4  3  1  0  0  0  0
  4  9  1  0  0  0  0
  5  2  1  0  0  0  0
  5  6  1  0  0  0  0
  7  1  1  6  0  0  0
  7  2  1  0  0  0  0
  8 11  1  0  0  0  0
  9  5  2  0  0  0  0
 10  9  1  0  0  0  0
 10  8  2  0  0  0  0
 11  6  2  0  0  0  0
 12  4  1  0  0  0  0
 13 12  1  0  0  0  0
 14 13  1  0  0  0  0
 15 14  1  0  0  0  0
 16 17  1  0  0  0  0
 17 15  1  0  0  0  0
 18 15  1  0  0  0  0
 19 18  1  0  0  0  0
 20 19  1  0  0  0  0
 22 23  2  0  0  0  0
 23 21  1  0  0  0  0
 23 20  1  0  0  0  0
 24 28  1  0  0  0  0
 26 20  1  1  0  0  0
 26 25  1  0  0  0  0
 28 29  1  0  0  0  0
 29 25  1  0  0  0  0
 30 27  1  6  0  0  0
 30 24  1  0  0  0  0
 30 26  1  0  0  0  0
 31  8  1  0  0  0  0
 32 31  1  0  0  0  0
 33 34  1  0  0  0  0
 33 32  1  0  0  0  0
 35 34  1  0  0  0  0
 36 37  3  0  0  0  0
 37 35  1  0  0  0  0
 38 39  1  1  0  0  0
 38 36  1  0  0  0  0
 40 46  1  6  0  0  0
 40 41  1  0  0  0  0
 41 38  1  1  0  0  0
 41 45  1  0  0  0  0
 42 48  1  1  0  0  0
 42 45  1  0  0  0  0
 43 40  1  0  0  0  0
 43 42  1  0  0  0  0
 44 43  1  0  0  0  0
 44 40  1  0  0  0  0
 47 44  1  0  0  0  0
 48 49  1  0  0  0  0
 50 48  2  0  0  0  0
M  END
>  <MODEL>
5

>  <REMARK>
 VINA RESULT:      -7.1      1.595      2.824
  Name = 
  18 active torsions:
  status: ('A' for Active; 'I' for Inactive)
    1  A    between atoms: C_1  and  C_14
    2  A    between atoms: C_2  and  C_15
    3  A    between atoms: C_2  and  N_24
    4  A    between atoms: O_3  and  C_39
    5  A    between atoms: O_3  and  C_48
    6  A    between atoms: C_6  and  C_17
    7  A    between atoms: C_8  and  C_17
    8  A    between atoms: C_11  and  N_16
    9  A    between atoms: C_13  and  N_24
   10  A    between atoms: C_13  and  C_34
   11  A    between atoms: C_15  and  N_16
   12  A    between atoms: N_24  and  O_32
   13  A    between atoms: N_25  and  C_49
   14  A    between atoms: N_30  and  C_33
   15  A    between atoms: N_30  and  C_46
   16  A    between atoms: C_34  and  C_49
   17  A    between atoms: C_46  and  C_50
   18  A    between atoms: C_48  and  C_50
                            x       y       z     vdW  Elec       q    Type
                         _______ _______ _______ _____ _____    ______ ____

>  <TORSDO>
F 18

$$$$
=
 OpenBabel10222419503D

 50 55  0  0  1  0  0  0  0  0999 V2000
  190.5490  177.3900  145.5350 C   0  0  0  0  0  2  0  0  0  0  0  0
  188.4820  177.7210  147.2020 N   0  0  0  0  0  2  0  0  0  0  0  0
  189.5730  176.4180  145.2310 C   0  0  2  0  0  3  0  0  0  0  0  0
  188.4760  176.9500  144.4010 N   0  0  0  0  0  0  0  0  0  0  0  0
  187.3260  177.9820  146.3860 C   0  0  0  0  0  0  0  0  0  0  0  0
  186.2180  178.6210  146.9440 C   0  0  0  0  0  3  0  0  0  0  0  0
  189.4280  177.1520  146.5500 C   0  0  1  0  0  3  0  0  0  0  0  0
  185.0790  178.5710  144.8000 C   0  0  0  0  0  0  0  0  0  0  0  0
  187.3180  177.6200  144.9990 C   0  0  0  0  0  0  0  0  0  0  0  0
  186.1890  177.9290  144.2280 C   0  0  0  0  0  3  0  0  0  0  0  0
  185.1020  178.9120  146.1550 C   0  0  0  0  0  3  0  0  0  0  0  0
  188.5200  176.6690  142.9710 C   0  0  0  0  0  2  0  0  0  0  0  0
  189.9550  176.6780  142.4800 C   0  0  0  0  0  2  0  0  0  0  0  0
  190.0520  177.5000  141.1980 C   0  0  0  0  0  2  0  0  0  0  0  0
  190.9820  176.9270  140.2220 N   0  0  0  0  0  0  0  0  0  0  0  0
  192.9450  177.0830  139.2770 C   0  0  0  0  0  1  0  0  0  0  0  0
  192.2020  177.5020  140.3840 O   0  0  0  0  0  0  0  0  0  0  0  0
  190.5090  177.2510  138.8800 C   0  0  0  0  0  2  0  0  0  0  0  0
  189.0350  176.9020  138.7440 C   0  0  0  0  0  2  0  0  0  0  0  0
  188.6250  176.9400  137.3440 N   0  0  0  0  0  0  0  0  0  0  0  0
  188.7420  179.2780  137.2830 O   0  0  0  0  0  1  0  0  0  0  0  0
  188.1380  178.2570  135.3290 O   0  0  0  0  0  0  0  0  0  0  0  0
  188.5110  178.2040  136.6670 C   0  0  0  0  0  0  0  0  0  0  0  0
  189.2020  173.3560  136.1760 C   0  0  0  0  0  2  0  0  0  0  0  0
  187.0880  175.0220  137.2130 C   0  0  0  0  0  2  0  0  0  0  0  0
  188.3620  175.6680  136.6670 C   0  0  2  0  0  3  0  0  0  0  0  0
  190.7480  175.2840  136.0050 C   0  0  0  0  0  1  0  0  0  0  0  0
  188.0390  172.7980  136.8620 N   0  0  0  0  0  2  0  0  0  0  0  0
  186.8880  173.6500  136.5770 C   0  0  0  0  0  2  0  0  0  0  0  0
  189.5640  174.7170  136.7660 C   0  0  2  0  0  3  0  0  0  0  0  0
  183.9470  178.8830  144.0420 O   0  0  0  0  0  0  0  0  0  0  0  0
  182.6260  178.6310  144.5010 C   0  0  0  0  0  2  0  0  0  0  0  0
  181.6320  179.2290  143.5290 C   0  0  0  0  0  2  0  0  0  0  0  0
  180.3600  178.4000  143.5360 C   0  0  0  0  0  2  0  0  0  0  0  0
  179.9420  178.1060  142.1760 N   0  0  0  0  0  2  0  0  0  0  0  0
  180.9680  179.3750  140.1420 C   0  0  0  0  0  0  0  0  0  0  0  0
  180.4940  178.7880  141.0810 C   0  0  0  0  0  0  0  0  0  0  0  0
  181.5470  180.0930  139.0020 C   0  0  2  0  0  3  0  0  0  0  0  0
  180.5460  180.4460  138.0930 O   0  0  0  0  0  1  0  0  0  0  0  0
  183.8860  179.0200  139.1740 C   0  0  1  0  0  0  0  0  0  0  0  0
  182.6450  179.2700  138.3240 C   0  0  1  0  0  3  0  0  0  0  0  0
  183.1760  177.1060  138.0050 C   0  0  2  0  0  3  0  0  0  0  0  0
  184.1420  177.5520  139.0820 C   0  0  1  0  0  3  0  0  0  0  0  0
  185.1570  178.5280  138.5110 C   0  0  2  0  0  3  0  0  0  0  0  0
  182.1260  178.0370  137.8980 O   0  0  0  0  0  0  0  0  0  0  0  0
  183.9480  179.4580  140.5010 O   0  0  0  0  0  1  0  0  0  0  0  0
  186.2390  178.6390  139.3870 O   0  0  0  0  0  1  0  0  0  0  0  0
  182.6340  175.7530  138.3250 C   0  0  0  0  0  0  0  0  0  0  0  0
  183.1140  174.7260  137.7760 O   0  0  0  0  0  0  0  0  0  0  0  0
  181.5800  175.6300  139.2180 O   0  0  0  0  0  1  0  0  0  0  0  0
  3  1  1  6  0  0  0
  3  7  1  0  0  0  0
  4  9  1  0  0  0  0
  4  3  1  0  0  0  0
  5  6  1  0  0  0  0
  5  2  1  0  0  0  0
  7  1  1  6  0  0  0
  7  2  1  0  0  0  0
  8 11  1  0  0  0  0
  9  5  2  0  0  0  0
 10  8  2  0  0  0  0
 10  9  1  0  0  0  0
 11  6  2  0  0  0  0
 12  4  1  0  0  0  0
 13 12  1  0  0  0  0
 14 13  1  0  0  0  0
 15 17  1  0  0  0  0
 15 14  1  0  0  0  0
 16 17  1  0  0  0  0
 18 15  1  0  0  0  0
 19 18  1  0  0  0  0
 20 19  1  0  0  0  0
 22 23  2  0  0  0  0
 23 21  1  0  0  0  0
 23 20  1  0  0  0  0
 24 30  1  0  0  0  0
 24 28  1  0  0  0  0
 26 30  1  0  0  0  0
 26 25  1  0  0  0  0
 26 20  1  1  0  0  0
 29 28  1  0  0  0  0
 29 25  1  0  0  0  0
 30 27  1  6  0  0  0
 31 32  1  0  0  0  0
 31  8  1  0  0  0  0
 33 34  1  0  0  0  0
 33 32  1  0  0  0  0
 35 34  1  0  0  0  0
 36 37  3  0  0  0  0
 37 35  1  0  0  0  0
 38 39  1  6  0  0  0
 38 36  1  0  0  0  0
 40 46  1  1  0  0  0
 41 38  1  1  0  0  0
 41 40  1  0  0  0  0
 42 48  1  1  0  0  0
 42 43  1  0  0  0  0
 43 40  1  0  0  0  0
 44 43  1  0  0  0  0
 44 40  1  0  0  0  0
 44 47  1  0  0  0  0
 45 42  1  0  0  0  0
 45 41  1  0  0  0  0
 48 50  1  0  0  0  0
 49 48  2  0  0  0  0
M  END
>  <MODEL>
6

>  <REMARK>
 VINA RESULT:      -6.9      1.701      2.886
  Name = 
  18 active torsions:
  status: ('A' for Active; 'I' for Inactive)
    1  A    between atoms: C_1  and  C_14
    2  A    between atoms: C_2  and  C_15
    3  A    between atoms: C_2  and  N_24
    4  A    between atoms: O_3  and  C_39
    5  A    between atoms: O_3  and  C_48
    6  A    between atoms: C_6  and  C_17
    7  A    between atoms: C_8  and  C_17
    8  A    between atoms: C_11  and  N_16
    9  A    between atoms: C_13  and  N_24
   10  A    between atoms: C_13  and  C_34
   11  A    between atoms: C_15  and  N_16
   12  A    between atoms: N_24  and  O_32
   13  A    between atoms: N_25  and  C_49
   14  A    between atoms: N_30  and  C_33
   15  A    between atoms: N_30  and  C_46
   16  A    between atoms: C_34  and  C_49
   17  A    between atoms: C_46  and  C_50
   18  A    between atoms: C_48  and  C_50
                            x       y       z     vdW  Elec       q    Type
                         _______ _______ _______ _____ _____    ______ ____

>  <TORSDO>
F 18

$$$$
=
 OpenBabel10222419503D

 50 55  0  0  1  0  0  0  0  0999 V2000
  191.0150  176.4660  144.8000 C   0  0  0  0  0  2  0  0  0  0  0  0
  191.9960  176.9550  142.3590 N   0  0  0  0  0  2  0  0  0  0  0  0
  190.7400  177.8100  144.4710 C   0  0  2  0  0  3  0  0  0  0  0  0
  189.5630  177.9540  143.5940 N   0  0  0  0  0  0  0  0  0  0  0  0
  190.8870  177.3630  141.5380 C   0  0  0  0  0  0  0  0  0  0  0  0
  190.9810  177.2600  140.1490 C   0  0  0  0  0  3  0  0  0  0  0  0
  191.7560  177.0840  143.6110 C   0  0  1  0  0  3  0  0  0  0  0  0
  188.7100  178.0830  139.9090 C   0  0  0  0  0  0  0  0  0  0  0  0
  189.6760  177.8420  142.1370 C   0  0  0  0  0  0  0  0  0  0  0  0
  188.6030  178.1900  141.3040 C   0  0  0  0  0  3  0  0  0  0  0  0
  189.9000  177.6190  139.3410 C   0  0  0  0  0  3  0  0  0  0  0  0
  188.3040  178.3430  144.2180 C   0  0  0  0  0  2  0  0  0  0  0  0
  187.4600  177.1160  144.5020 C   0  0  0  0  0  2  0  0  0  0  0  0
  186.1590  177.5360  145.1800 C   0  0  0  0  0  2  0  0  0  0  0  0
  185.4200  178.5470  144.4200 N   0  0  0  0  0  0  0  0  0  0  0  0
  184.6940  178.5630  146.4800 C   0  0  0  0  0  1  0  0  0  0  0  0
  184.4180  179.0360  145.1940 O   0  0  0  0  0  0  0  0  0  0  0  0
  184.8150  177.9070  143.2570 C   0  0  0  0  0  2  0  0  0  0  0  0
  183.6580  178.7480  142.7370 C   0  0  0  0  0  2  0  0  0  0  0  0
  183.4780  178.5440  141.3040 N   0  0  0  0  0  0  0  0  0  0  0  0
  185.4160  179.7580  140.8000 O   0  0  0  0  0  1  0  0  0  0  0  0
  184.2890  178.8890  139.0110 O   0  0  0  0  0  0  0  0  0  0  0  0
  184.4360  179.0890  140.3790 C   0  0  0  0  0  0  0  0  0  0  0  0
  180.1230  177.7990  139.6520 C   0  0  0  0  0  2  0  0  0  0  0  0
  182.7610  176.6580  139.8940 C   0  0  0  0  0  2  0  0  0  0  0  0
  182.3230  177.7630  140.8570 C   0  0  2  0  0  3  0  0  0  0  0  0
  180.6580  179.5860  141.2810 C   0  0  0  0  0  1  0  0  0  0  0  0
  180.6600  176.8660  138.6630 N   0  0  0  0  0  2  0  0  0  0  0  0
  181.5380  175.9250  139.3530 C   0  0  0  0  0  2  0  0  0  0  0  0
  181.2440  178.6590  140.2320 C   0  0  2  0  0  3  0  0  0  0  0  0
  187.6480  178.4270  139.0680 O   0  0  0  0  0  0  0  0  0  0  0  0
  187.3360  177.6940  137.8910 C   0  0  0  0  0  2  0  0  0  0  0  0
  187.6470  178.5390  136.6740 C   0  0  0  0  0  2  0  0  0  0  0  0
  187.7030  177.6500  135.4450 C   0  0  0  0  0  2  0  0  0  0  0  0
  189.0820  177.4180  135.0520 N   0  0  0  0  0  2  0  0  0  0  0  0
  190.4470  175.4210  136.0260 C   0  0  0  0  0  0  0  0  0  0  0  0
  189.8170  176.3440  135.5770 C   0  0  0  0  0  0  0  0  0  0  0  0
  191.2120  174.2940  136.5710 C   0  0  2  0  0  3  0  0  0  0  0  0
  191.1640  174.3060  137.9670 O   0  0  0  0  0  1  0  0  0  0  0  0
  193.4600  175.5520  136.4280 C   0  0  1  0  0  0  0  0  0  0  0  0
  192.6570  174.3070  136.0660 C   0  0  1  0  0  3  0  0  0  0  0  0
  194.6780  173.5600  136.7180 C   0  0  2  0  0  3  0  0  0  0  0  0
  194.7410  175.0450  137.0050 C   0  0  1  0  0  3  0  0  0  0  0  0
  194.7630  175.8340  135.7070 C   0  0  2  0  0  3  0  0  0  0  0  0
  193.3380  173.1710  136.5330 O   0  0  0  0  0  0  0  0  0  0  0  0
  192.9090  176.5530  137.2330 O   0  0  0  0  0  1  0  0  0  0  0  0
  195.1910  177.1390  135.9630 O   0  0  0  0  0  1  0  0  0  0  0  0
  195.2860  172.7910  137.8420 C   0  0  0  0  0  0  0  0  0  0  0  0
  195.6880  171.6100  137.6650 O   0  0  0  0  0  0  0  0  0  0  0  0
  195.3900  173.3740  139.0960 O   0  0  0  0  0  1  0  0  0  0  0  0
  2  7  1  0  0  0  0
  3  1  1  1  0  0  0
  4 12  1  0  0  0  0
  4  3  1  0  0  0  0
  5  9  1  0  0  0  0
  5  2  1  0  0  0  0
  6  5  2  0  0  0  0
  7  3  1  0  0  0  0
  7  1  1  6  0  0  0
  8 10  1  0  0  0  0
  9  4  1  0  0  0  0
 10  9  2  0  0  0  0
 11  8  2  0  0  0  0
 11  6  1  0  0  0  0
 12 13  1  0  0  0  0
 13 14  1  0  0  0  0
 15 14  1  0  0  0  0
 15 17  1  0  0  0  0
 17 16  1  0  0  0  0
 18 15  1  0  0  0  0
 19 18  1  0  0  0  0
 20 19  1  0  0  0  0
 22 23  2  0  0  0  0
 23 21  1  0  0  0  0
 23 20  1  0  0  0  0
 24 30  1  0  0  0  0
 25 26  1  0  0  0  0
 26 20  1  6  0  0  0
 28 29  1  0  0  0  0
 28 24  1  0  0  0  0
 29 25  1  0  0  0  0
 30 26  1  0  0  0  0
 30 27  1  1  0  0  0
 31  8  1  0  0  0  0
 32 31  1  0  0  0  0
 33 32  1  0  0  0  0
 34 33  1  0  0  0  0
 35 34  1  0  0  0  0
 35 37  1  0  0  0  0
 36 38  1  0  0  0  0
 37 36  3  0  0  0  0
 38 39  1  1  0  0  0
 40 43  1  0  0  0  0
 40 46  1  1  0  0  0
 41 40  1  0  0  0  0
 41 45  1  0  0  0  0
 41 38  1  1  0  0  0
 42 43  1  0  0  0  0
 42 48  1  1  0  0  0
 44 47  1  0  0  0  0
 44 40  1  0  0  0  0
 44 43  1  0  0  0  0
 45 42  1  0  0  0  0
 48 50  1  0  0  0  0
 49 48  2  0  0  0  0
M  END
>  <MODEL>
7

>  <REMARK>
 VINA RESULT:      -6.9      2.152      9.060
  Name = 
  18 active torsions:
  status: ('A' for Active; 'I' for Inactive)
    1  A    between atoms: C_1  and  C_14
    2  A    between atoms: C_2  and  C_15
    3  A    between atoms: C_2  and  N_24
    4  A    between atoms: O_3  and  C_39
    5  A    between atoms: O_3  and  C_48
    6  A    between atoms: C_6  and  C_17
    7  A    between atoms: C_8  and  C_17
    8  A    between atoms: C_11  and  N_16
    9  A    between atoms: C_13  and  N_24
   10  A    between atoms: C_13  and  C_34
   11  A    between atoms: C_15  and  N_16
   12  A    between atoms: N_24  and  O_32
   13  A    between atoms: N_25  and  C_49
   14  A    between atoms: N_30  and  C_33
   15  A    between atoms: N_30  and  C_46
   16  A    between atoms: C_34  and  C_49
   17  A    between atoms: C_46  and  C_50
   18  A    between atoms: C_48  and  C_50
                            x       y       z     vdW  Elec       q    Type
                         _______ _______ _______ _____ _____    ______ ____

>  <TORSDO>
F 18

$$$$
=
 OpenBabel10222419503D

 50 55  0  0  1  0  0  0  0  0999 V2000
  184.2320  178.2520  146.3580 C   0  0  0  0  0  2  0  0  0  0  0  0
  186.7760  178.5360  147.1370 N   0  0  0  0  0  2  0  0  0  0  0  0
  184.9030  179.0470  145.4040 C   0  0  2  0  0  3  0  0  0  0  0  0
  185.6990  178.2470  144.4540 N   0  0  0  0  0  0  0  0  0  0  0  0
  187.5960  177.9950  146.0860 C   0  0  0  0  0  0  0  0  0  0  0  0
  188.9040  177.5950  146.3670 C   0  0  0  0  0  3  0  0  0  0  0  0
  185.5960  178.8350  146.7360 C   0  0  1  0  0  3  0  0  0  0  0  0
  189.2010  176.8650  144.0700 C   0  0  0  0  0  0  0  0  0  0  0  0
  187.0700  177.8330  144.7620 C   0  0  0  0  0  0  0  0  0  0  0  0
  187.8870  177.2630  143.7770 C   0  0  0  0  0  3  0  0  0  0  0  0
  189.7000  177.0350  145.3650 C   0  0  0  0  0  3  0  0  0  0  0  0
  185.1190  177.9950  143.1400 C   0  0  0  0  0  2  0  0  0  0  0  0
  185.3580  179.1810  142.2260 C   0  0  0  0  0  2  0  0  0  0  0  0
  184.5600  179.0030  140.9380 C   0  0  0  0  0  2  0  0  0  0  0  0
  185.3030  179.4160  139.7450 N   0  0  0  0  0  0  0  0  0  0  0  0
  183.1770  179.6540  139.2990 C   0  0  0  0  0  1  0  0  0  0  0  0
  184.4550  180.0510  138.8940 O   0  0  0  0  0  0  0  0  0  0  0  0
  185.8030  178.2240  139.0700 C   0  0  0  0  0  2  0  0  0  0  0  0
  185.3210  178.1960  137.6270 C   0  0  0  0  0  2  0  0  0  0  0  0
  186.3680  177.6930  136.7450 N   0  0  0  0  0  0  0  0  0  0  0  0
  187.5450  179.7150  136.8450 O   0  0  0  0  0  1  0  0  0  0  0  0
  188.4970  178.0680  135.5780 O   0  0  0  0  0  0  0  0  0  0  0  0
  187.4820  178.5370  136.4030 C   0  0  0  0  0  0  0  0  0  0  0  0
  186.6300  173.8880  136.7440 C   0  0  0  0  0  2  0  0  0  0  0  0
  184.7920  175.9700  135.9640 C   0  0  0  0  0  2  0  0  0  0  0  0
  186.2540  176.3190  136.2500 C   0  0  2  0  0  3  0  0  0  0  0  0
  188.3920  175.5380  137.2980 C   0  0  0  0  0  1  0  0  0  0  0  0
  185.1930  173.6510  136.6210 N   0  0  0  0  0  2  0  0  0  0  0  0
  184.6780  174.5050  135.5550 C   0  0  0  0  0  2  0  0  0  0  0  0
  186.8930  175.3150  137.2210 C   0  0  2  0  0  3  0  0  0  0  0  0
  190.0260  176.2970  143.0960 O   0  0  0  0  0  0  0  0  0  0  0  0
  189.8120  176.4930  141.7050 C   0  0  0  0  0  2  0  0  0  0  0  0
  191.0620  177.0790  141.0810 C   0  0  0  0  0  2  0  0  0  0  0  0
  191.1260  176.6850  139.6170 C   0  0  0  0  0  2  0  0  0  0  0  0
  192.3620  177.1620  139.0200 N   0  0  0  0  0  2  0  0  0  0  0  0
  193.5970  175.7870  137.1810 C   0  0  0  0  0  0  0  0  0  0  0  0
  193.0250  176.4220  138.0290 C   0  0  0  0  0  0  0  0  0  0  0  0
  194.2960  175.0130  136.1490 C   0  0  2  0  0  3  0  0  0  0  0  0
  193.3780  174.3240  135.3540 O   0  0  0  0  0  1  0  0  0  0  0  0
  196.6460  173.9560  136.0210 C   0  0  1  0  0  0  0  0  0  0  0  0
  195.3200  174.0580  136.7680 C   0  0  1  0  0  3  0  0  0  0  0  0
  196.9170  174.0950  138.3540 C   0  0  2  0  0  3  0  0  0  0  0  0
  197.7030  174.1370  137.0600 C   0  0  1  0  0  3  0  0  0  0  0  0
  197.5890  172.8100  136.3290 C   0  0  2  0  0  3  0  0  0  0  0  0
  195.5720  174.4230  138.1000 O   0  0  0  0  0  0  0  0  0  0  0  0
  196.9020  174.7540  134.9020 O   0  0  0  0  0  1  0  0  0  0  0  0
  198.5900  172.7270  135.3580 O   0  0  0  0  0  1  0  0  0  0  0  0
  197.5010  175.0450  139.3440 C   0  0  0  0  0  0  0  0  0  0  0  0
  196.8730  175.3390  140.3960 O   0  0  0  0  0  1  0  0  0  0  0  0
  198.7350  175.6260  139.0930 O   0  0  0  0  0  0  0  0  0  0  0  0
  3  1  1  1  0  0  0
  3  7  1  0  0  0  0
  4  9  1  0  0  0  0
  4  3  1  0  0  0  0
  5  6  1  0  0  0  0
  5  2  1  0  0  0  0
  7  1  1  6  0  0  0
  7  2  1  0  0  0  0
  8 11  1  0  0  0  0
  9  5  2  0  0  0  0
 10  8  2  0  0  0  0
 10  9  1  0  0  0  0
 11  6  2  0  0  0  0
 12  4  1  0  0  0  0
 13 12  1  0  0  0  0
 14 13  1  0  0  0  0
 15 14  1  0  0  0  0
 17 16  1  0  0  0  0
 17 15  1  0  0  0  0
 18 15  1  0  0  0  0
 19 18  1  0  0  0  0
 20 19  1  0  0  0  0
 22 23  2  0  0  0  0
 23 20  1  0  0  0  0
 23 21  1  0  0  0  0
 24 30  1  0  0  0  0
 25 26  1  0  0  0  0
 26 20  1  1  0  0  0
 26 30  1  0  0  0  0
 28 24  1  0  0  0  0
 29 25  1  0  0  0  0
 29 28  1  0  0  0  0
 30 27  1  6  0  0  0
 31  8  1  0  0  0  0
 32 31  1  0  0  0  0
 33 32  1  0  0  0  0
 34 33  1  0  0  0  0
 35 34  1  0  0  0  0
 36 37  3  0  0  0  0
 37 35  1  0  0  0  0
 38 39  1  1  0  0  0
 38 36  1  0  0  0  0
 40 46  1  6  0  0  0
 40 44  1  0  0  0  0
 40 41  1  0  0  0  0
 40 43  1  0  0  0  0
 41 38  1  6  0  0  0
 41 45  1  0  0  0  0
 42 48  1  1  0  0  0
 43 42  1  0  0  0  0
 44 43  1  0  0  0  0
 45 42  1  0  0  0  0
 47 44  1  0  0  0  0
 48 49  1  0  0  0  0
 50 48  2  0  0  0  0
M  END
>  <MODEL>
8

>  <REMARK>
 VINA RESULT:      -6.7      2.991      8.962
  Name = 
  18 active torsions:
  status: ('A' for Active; 'I' for Inactive)
    1  A    between atoms: C_1  and  C_14
    2  A    between atoms: C_2  and  C_15
    3  A    between atoms: C_2  and  N_24
    4  A    between atoms: O_3  and  C_39
    5  A    between atoms: O_3  and  C_48
    6  A    between atoms: C_6  and  C_17
    7  A    between atoms: C_8  and  C_17
    8  A    between atoms: C_11  and  N_16
    9  A    between atoms: C_13  and  N_24
   10  A    between atoms: C_13  and  C_34
   11  A    between atoms: C_15  and  N_16
   12  A    between atoms: N_24  and  O_32
   13  A    between atoms: N_25  and  C_49
   14  A    between atoms: N_30  and  C_33
   15  A    between atoms: N_30  and  C_46
   16  A    between atoms: C_34  and  C_49
   17  A    between atoms: C_46  and  C_50
   18  A    between atoms: C_48  and  C_50
                            x       y       z     vdW  Elec       q    Type
                         _______ _______ _______ _____ _____    ______ ____

>  <TORSDO>
F 18

$$$$
=
 OpenBabel10222419503D

 50 55  0  0  1  0  0  0  0  0999 V2000
  188.9410  176.6850  147.3530 C   0  0  0  0  0  2  0  0  0  0  0  0
  190.8620  177.6680  145.7710 N   0  0  0  0  0  2  0  0  0  0  0  0
  188.4070  177.7710  146.6280 C   0  0  2  0  0  3  0  0  0  0  0  0
  188.0150  177.4030  145.2550 N   0  0  0  0  0  0  0  0  0  0  0  0
  190.3820  177.5640  144.4190 C   0  0  0  0  0  0  0  0  0  0  0  0
  191.2910  177.5740  143.3600 C   0  0  0  0  0  3  0  0  0  0  0  0
  189.9160  177.6210  146.6350 C   0  0  1  0  0  3  0  0  0  0  0  0
  189.4810  177.2880  141.7680 C   0  0  0  0  0  0  0  0  0  0  0  0
  188.9810  177.4160  144.1530 C   0  0  0  0  0  0  0  0  0  0  0  0
  188.5570  177.2750  142.8250 C   0  0  0  0  0  3  0  0  0  0  0  0
  190.8430  177.4380  142.0440 C   0  0  0  0  0  3  0  0  0  0  0  0
  186.6000  177.1520  145.0060 C   0  0  0  0  0  2  0  0  0  0  0  0
  185.8350  178.4610  144.9710 C   0  0  0  0  0  2  0  0  0  0  0  0
  185.1870  178.6380  143.6010 C   0  0  0  0  0  2  0  0  0  0  0  0
  183.8540  179.2410  143.6750 N   0  0  0  0  0  0  0  0  0  0  0  0
  181.8580  178.6530  144.3430 C   0  0  0  0  0  1  0  0  0  0  0  0
  183.1950  178.7260  144.7450 O   0  0  0  0  0  0  0  0  0  0  0  0
  183.1090  178.8760  142.4740 C   0  0  0  0  0  2  0  0  0  0  0  0
  183.9350  177.9360  141.6090 C   0  0  0  0  0  2  0  0  0  0  0  0
  183.4860  177.9850  140.2220 N   0  0  0  0  0  0  0  0  0  0  0  0
  184.9400  179.7520  139.7230 O   0  0  0  0  0  1  0  0  0  0  0  0
  183.6590  178.9930  137.9890 O   0  0  0  0  0  0  0  0  0  0  0  0
  184.0630  178.9430  139.3180 C   0  0  0  0  0  0  0  0  0  0  0  0
  180.2590  176.7160  138.6360 C   0  0  0  0  0  2  0  0  0  0  0  0
  183.0520  176.0160  138.8110 C   0  0  0  0  0  2  0  0  0  0  0  0
  182.4620  177.0300  139.7930 C   0  0  2  0  0  3  0  0  0  0  0  0
  180.5340  178.5570  140.2690 C   0  0  0  0  0  1  0  0  0  0  0  0
  180.9170  175.8870  137.6280 N   0  0  0  0  0  2  0  0  0  0  0  0
  181.9510  175.0970  138.2900 C   0  0  0  0  0  2  0  0  0  0  0  0
  181.2380  177.7420  139.2000 C   0  0  2  0  0  3  0  0  0  0  0  0
  189.0710  177.1490  140.4390 O   0  0  0  0  0  0  0  0  0  0  0  0
  188.3010  178.1380  139.7700 C   0  0  0  0  0  2  0  0  0  0  0  0
  188.6500  178.1370  138.2960 C   0  0  0  0  0  2  0  0  0  0  0  0
  187.3820  178.3000  137.4780 C   0  0  0  0  0  2  0  0  0  0  0  0
  187.2610  177.2190  136.5140 N   0  0  0  0  0  2  0  0  0  0  0  0
  189.0880  175.3700  136.3180 C   0  0  0  0  0  0  0  0  0  0  0  0
  188.2450  176.2250  136.4080 C   0  0  0  0  0  0  0  0  0  0  0  0
  190.1130  174.3260  136.2100 C   0  0  2  0  0  3  0  0  0  0  0  0
  189.9460  173.3770  137.2210 O   0  0  0  0  0  1  0  0  0  0  0  0
  191.9690  175.4680  137.5920 C   0  0  1  0  0  0  0  0  0  0  0  0
  191.5220  174.9240  136.2390 C   0  0  1  0  0  3  0  0  0  0  0  0
  193.6450  174.2260  136.5040 C   0  0  2  0  0  3  0  0  0  0  0  0
  193.3180  174.8740  137.8330 C   0  0  1  0  0  3  0  0  0  0  0  0
  193.1780  176.3780  137.6660 C   0  0  2  0  0  3  0  0  0  0  0  0
  192.4560  173.9730  135.7960 O   0  0  0  0  0  0  0  0  0  0  0  0
  191.1550  175.3380  138.7210 O   0  0  0  0  0  1  0  0  0  0  0  0
  193.2500  176.9930  138.9190 O   0  0  0  0  0  1  0  0  0  0  0  0
  194.3950  172.9540  136.7210 C   0  0  0  0  0  0  0  0  0  0  0  0
  195.5380  172.9680  137.2490 O   0  0  0  0  0  1  0  0  0  0  0  0
  193.8360  171.7510  136.3170 O   0  0  0  0  0  0  0  0  0  0  0  0
  2  7  1  0  0  0  0
  3  7  1  0  0  0  0
  3  1  1  1  0  0  0
  4  3  1  0  0  0  0
  5  2  1  0  0  0  0
  6  5  2  0  0  0  0
  7  1  1  6  0  0  0
  8 11  2  0  0  0  0
  8 10  1  0  0  0  0
  9  5  1  0  0  0  0
  9  4  1  0  0  0  0
 10  9  2  0  0  0  0
 11  6  1  0  0  0  0
 12  4  1  0  0  0  0
 13 12  1  0  0  0  0
 14 15  1  0  0  0  0
 14 13  1  0  0  0  0
 15 17  1  0  0  0  0
 16 17  1  0  0  0  0
 18 15  1  0  0  0  0
 19 18  1  0  0  0  0
 20 19  1  0  0  0  0
 22 23  2  0  0  0  0
 23 21  1  0  0  0  0
 23 20  1  0  0  0  0
 24 30  1  0  0  0  0
 25 26  1  0  0  0  0
 26 20  1  6  0  0  0
 28 29  1  0  0  0  0
 28 24  1  0  0  0  0
 29 25  1  0  0  0  0
 30 26  1  0  0  0  0
 30 27  1  1  0  0  0
 31  8  1  0  0  0  0
 32 31  1  0  0  0  0
 33 32  1  0  0  0  0
 34 33  1  0  0  0  0
 35 34  1  0  0  0  0
 36 37  3  0  0  0  0
 37 35  1  0  0  0  0
 38 36  1  0  0  0  0
 38 39  1  1  0  0  0
 40 44  1  0  0  0  0
 40 43  1  0  0  0  0
 40 46  1  1  0  0  0
 41 38  1  1  0  0  0
 41 40  1  0  0  0  0
 42 48  1  1  0  0  0
 42 43  1  0  0  0  0
 44 43  1  0  0  0  0
 44 47  1  0  0  0  0
 45 41  1  0  0  0  0
 45 42  1  0  0  0  0
 48 49  1  0  0  0  0
 50 48  2  0  0  0  0
M  END
>  <MODEL>
9

>  <REMARK>
 VINA RESULT:      -6.7      2.109      8.299
  Name = 
  18 active torsions:
  status: ('A' for Active; 'I' for Inactive)
    1  A    between atoms: C_1  and  C_14
    2  A    between atoms: C_2  and  C_15
    3  A    between atoms: C_2  and  N_24
    4  A    between atoms: O_3  and  C_39
    5  A    between atoms: O_3  and  C_48
    6  A    between atoms: C_6  and  C_17
    7  A    between atoms: C_8  and  C_17
    8  A    between atoms: C_11  and  N_16
    9  A    between atoms: C_13  and  N_24
   10  A    between atoms: C_13  and  C_34
   11  A    between atoms: C_15  and  N_16
   12  A    between atoms: N_24  and  O_32
   13  A    between atoms: N_25  and  C_49
   14  A    between atoms: N_30  and  C_33
   15  A    between atoms: N_30  and  C_46
   16  A    between atoms: C_34  and  C_49
   17  A    between atoms: C_46  and  C_50
   18  A    between atoms: C_48  and  C_50
                            x       y       z     vdW  Elec       q    Type
                         _______ _______ _______ _____ _____    ______ ____

>  <TORSDO>
F 18

$$$$
