=
 OpenBabel10222418113D

 45 49  0  0  1  0  0  0  0  0999 V2000
  189.6520  177.8960  141.6020 C   0  0  0  0  0  0  0  0  0  0  0  0
  189.8000  177.4910  140.1310 C   0  0  0  0  0  2  0  0  0  0  0  0
  184.3130  179.4390  140.1970 O   0  0  0  0  0  0  0  0  0  0  0  0
  186.2350  178.5850  139.3530 O   0  0  0  0  0  0  0  0  0  0  0  0
  188.5910  177.7500  139.2620 C   0  0  0  0  0  0  0  0  0  0  0  0
  187.3940  178.3030  139.8870 C   0  0  0  0  0  0  0  0  0  0  0  0
  188.6130  177.4550  137.9920 C   0  0  0  0  0  0  0  0  0  0  0  0
  188.5070  178.4110  142.0880 C   0  0  0  0  0  3  0  0  0  0  0  0
  187.3570  178.6090  141.2060 C   0  0  0  0  0  0  0  0  0  0  0  0
  185.5040  179.0590  140.3440 C   0  0  0  0  0  0  0  0  0  0  0  0
  188.6270  177.1610  136.7230 C   0  0  0  0  0  3  0  0  0  0  0  0
  186.1490  179.1020  141.5360 N   0  0  0  0  0  2  0  0  0  0  0  0
  188.1110  175.8440  136.2600 C   0  0  0  0  0  2  0  0  0  0  0  0
  186.7610  175.5520  136.8980 C   0  0  2  0  0  3  0  0  0  0  0  0
  186.7220  173.4550  136.1870 C   0  0  0  0  0  1  0  0  0  0  0  0
  186.7270  174.2300  137.3480 O   0  0  0  0  0  0  0  0  0  0  0  0
  185.7080  175.7550  135.9170 N   0  0  0  0  0  2  0  0  0  0  0  0
  185.0110  176.9760  136.2850 C   0  0  0  0  0  2  0  0  0  0  0  0
  181.7490  173.7430  137.4100 O   0  0  0  0  0  0  0  0  0  0  0  0
  182.0000  174.9740  137.3700 C   0  0  0  0  0  0  0  0  0  0  0  0
  180.9450  175.9580  137.8270 C   0  0  2  0  0  3  0  0  0  0  0  0
  181.1390  177.6070  137.0640 S   0  0  0  0  0  0  0  0  0  0  0  0
  182.8950  177.7410  137.5150 C   0  0  0  0  0  2  0  0  0  0  0  0
  183.2720  175.4120  136.8710 N   0  0  0  0  0  0  0  0  0  0  0  0
  183.6850  176.6440  136.8760 C   0  0  0  0  0  0  0  0  0  0  0  0
  180.0910  174.8700  139.8290 C   0  0  0  0  0  1  0  0  0  0  0  0
  180.7540  176.0510  139.2840 N   0  0  0  0  0  0  0  0  0  0  0  0
  179.9080  177.2040  139.5610 C   0  0  0  0  0  2  0  0  0  0  0  0
  181.1430  178.4020  141.3660 C   0  0  0  0  0  1  0  0  0  0  0  0
  179.9380  177.5370  141.0440 C   0  0  0  0  0  2  0  0  0  0  0  0
  190.7380  177.7330  142.5260 N   0  0  0  0  0  2  0  0  0  0  0  0
  190.2460  175.4880  143.5600 C   0  0  0  0  0  2  0  0  0  0  0  0
  190.8370  176.8710  143.7100 C   0  0  0  0  0  0  0  0  0  0  0  0
  191.7630  175.6800  143.6290 C   0  0  0  0  0  2  0  0  0  0  0  0
  190.6510  177.5140  145.0820 C   0  0  2  0  0  3  0  0  0  0  0  0
  191.7690  177.2330  145.8710 O   0  0  0  0  0  1  0  0  0  0  0  0
  187.6170  178.2070  147.9420 C   0  0  0  0  0  2  0  0  0  0  0  0
  189.6160  176.8140  147.2850 C   0  0  0  0  0  2  0  0  0  0  0  0
  187.1020  177.8300  146.5440 C   0  0  2  0  0  3  0  0  0  0  0  0
  189.3760  177.0230  145.7770 C   0  0  1  0  0  3  0  0  0  0  0  0
  188.1930  177.9630  145.4850 C   0  0  0  0  0  2  0  0  0  0  0  0
  189.1270  178.0020  148.1100 C   0  0  0  0  0  2  0  0  0  0  0  0
  185.6760  178.8400  146.0930 S   0  0  0  0  0  3  0  0  0  0  0  0
  184.5800  178.3910  147.0500 O   0  0  0  0  0  1  0  0  0  0  0  0
  185.1810  178.1990  144.5960 O   0  0  0  0  0  1  0  0  0  0  0  0
  1  8  2  0  0  0  0
  1 31  1  0  0  0  0
  2  1  1  0  0  0  0
  3 10  2  0  0  0  0
  4  6  1  0  0  0  0
  4 10  1  0  0  0  0
  5  6  1  0  0  0  0
  5  2  1  0  0  0  0
  6  9  2  0  0  0  0
  7  5  2  0  0  0  0
  9 12  1  0  0  0  0
  9  8  1  0  0  0  0
 10 12  1  0  0  0  0
 11  7  2  0  0  0  0
 13 11  1  0  0  0  0
 14 13  1  6  0  0  0
 14 16  1  0  0  0  0
 15 16  1  0  0  0  0
 17 18  1  0  0  0  0
 17 14  1  0  0  0  0
 18 25  1  0  0  0  0
 20 19  2  0  0  0  0
 20 21  1  0  0  0  0
 21 27  1  1  0  0  0
 22 23  1  0  0  0  0
 22 21  1  0  0  0  0
 24 25  2  0  0  0  0
 24 20  1  0  0  0  0
 25 23  1  0  0  0  0
 27 28  1  0  0  0  0
 27 26  1  0  0  0  0
 28 30  1  0  0  0  0
 30 29  1  0  0  0  0
 31 33  1  0  0  0  0
 32 34  1  0  0  0  0
 32 33  1  0  0  0  0
 33 35  1  0  0  0  0
 34 33  1  0  0  0  0
 35 36  1  1  0  0  0
 37 42  1  0  0  0  0
 38 42  1  0  0  0  0
 39 43  1  6  0  0  0
 39 37  1  0  0  0  0
 40 35  1  1  0  0  0
 40 38  1  0  0  0  0
 41 40  1  0  0  0  0
 41 39  1  0  0  0  0
 43 44  1  0  0  0  0
 45 43  1  0  0  0  0
M  END
>  <MODEL>
1

>  <REMARK>
 VINA RESULT:      -8.2      0.000      0.000
  Name = 
  14 active torsions:
  status: ('A' for Active; 'I' for Inactive)
    1  A    between atoms: C_3  and  N_32
    2  A    between atoms: C_5  and  N_31
    3  A    between atoms: C_6  and  C_24
    4  A    between atoms: C_6  and  N_31
    5  A    between atoms: S_12  and  C_14
    6  A    between atoms: C_15  and  C_25
    7  A    between atoms: C_15  and  C_28
    8  A    between atoms: N_18  and  C_29
    9  A    between atoms: N_18  and  C_39
   10  A    between atoms: C_23  and  C_29
   11  A    between atoms: C_23  and  C_38
   12  A    between atoms: C_25  and  N_32
   13  A    between atoms: C_29  and  O_36
   14  A    between atoms: C_39  and  C_43
                            x       y       z     vdW  Elec       q    Type
                         _______ _______ _______ _____ _____    ______ ____

>  <TORSDO>
F 14

$$$$
=
 OpenBabel10222418113D

 45 49  0  0  1  0  0  0  0  0999 V2000
  191.3270  177.3570  141.1600 C   0  0  0  0  0  0  0  0  0  0  0  0
  190.0060  177.0730  140.4350 C   0  0  0  0  0  2  0  0  0  0  0  0
  193.8290  176.3060  136.1110 O   0  0  0  0  0  0  0  0  0  0  0  0
  191.8210  176.3820  137.1590 O   0  0  0  0  0  0  0  0  0  0  0  0
  190.1350  176.6830  138.9810 C   0  0  0  0  0  0  0  0  0  0  0  0
  191.4670  176.6590  138.3860 C   0  0  0  0  0  0  0  0  0  0  0  0
  189.0750  176.4070  138.2730 C   0  0  0  0  0  0  0  0  0  0  0  0
  192.5140  177.2990  140.5270 C   0  0  0  0  0  3  0  0  0  0  0  0
  192.5750  176.9480  139.1090 C   0  0  0  0  0  0  0  0  0  0  0  0
  193.1350  176.5020  137.1430 C   0  0  0  0  0  0  0  0  0  0  0  0
  188.0210  176.1320  137.5590 C   0  0  0  0  0  3  0  0  0  0  0  0
  193.6730  176.8550  138.3360 N   0  0  0  0  0  2  0  0  0  0  0  0
  187.3760  177.1980  136.7460 C   0  0  0  0  0  2  0  0  0  0  0  0
  185.9460  177.4260  137.2130 C   0  0  2  0  0  3  0  0  0  0  0  0
  184.0110  176.5780  136.5510 C   0  0  0  0  0  1  0  0  0  0  0  0
  185.0780  177.3670  136.1200 O   0  0  0  0  0  0  0  0  0  0  0  0
  185.8440  178.7330  137.8400 N   0  0  0  0  0  2  0  0  0  0  0  0
  185.5560  178.5090  139.2470 C   0  0  0  0  0  2  0  0  0  0  0  0
  181.5600  180.8780  138.3630 O   0  0  0  0  0  0  0  0  0  0  0  0
  182.0910  179.9990  139.0880 C   0  0  0  0  0  0  0  0  0  0  0  0
  181.2630  179.3290  140.1630 C   0  0  2  0  0  3  0  0  0  0  0  0
  182.2790  178.6740  141.5330 S   0  0  0  0  0  0  0  0  0  0  0  0
  183.4020  177.7700  140.4270 C   0  0  0  0  0  2  0  0  0  0  0  0
  183.4750  179.6740  138.8920 N   0  0  0  0  0  0  0  0  0  0  0  0
  184.1050  178.7170  139.5060 C   0  0  0  0  0  0  0  0  0  0  0  0
  179.0500  178.9540  139.2210 C   0  0  0  0  0  1  0  0  0  0  0  0
  180.2880  178.3350  139.6830 N   0  0  0  0  0  0  0  0  0  0  0  0
  179.9560  177.4490  140.7910 C   0  0  0  0  0  2  0  0  0  0  0  0
  180.6130  175.9010  138.9510 C   0  0  0  0  0  1  0  0  0  0  0  0
  180.0260  175.9970  140.3470 C   0  0  0  0  0  2  0  0  0  0  0  0
  191.3460  177.7060  142.5520 N   0  0  0  0  0  2  0  0  0  0  0  0
  190.2560  175.6210  143.4550 C   0  0  0  0  0  2  0  0  0  0  0  0
  191.0460  176.8790  143.7280 C   0  0  0  0  0  0  0  0  0  0  0  0
  191.7370  175.5400  143.8330 C   0  0  0  0  0  2  0  0  0  0  0  0
  190.7090  177.5900  145.0360 C   0  0  2  0  0  3  0  0  0  0  0  0
  191.7690  177.4250  145.9310 O   0  0  0  0  0  1  0  0  0  0  0  0
  187.5340  178.1660  147.7670 C   0  0  0  0  0  2  0  0  0  0  0  0
  189.5790  176.8140  147.1650 C   0  0  0  0  0  2  0  0  0  0  0  0
  187.0910  177.8260  146.3350 C   0  0  2  0  0  3  0  0  0  0  0  0
  189.4080  177.0660  145.6550 C   0  0  1  0  0  3  0  0  0  0  0  0
  188.2290  178.0020  145.3340 C   0  0  0  0  0  2  0  0  0  0  0  0
  189.0370  177.9720  148.0010 C   0  0  0  0  0  2  0  0  0  0  0  0
  185.6760  178.8340  145.8460 S   0  0  0  0  0  3  0  0  0  0  0  0
  184.5530  178.3750  146.7660 O   0  0  0  0  0  1  0  0  0  0  0  0
  185.2290  178.2000  144.3310 O   0  0  0  0  0  1  0  0  0  0  0  0
  1 31  1  0  0  0  0
  2  1  1  0  0  0  0
  3 10  2  0  0  0  0
  4  6  1  0  0  0  0
  5  2  1  0  0  0  0
  6  5  1  0  0  0  0
  6  9  2  0  0  0  0
  7  5  2  0  0  0  0
  8  1  2  0  0  0  0
  9  8  1  0  0  0  0
 10  4  1  0  0  0  0
 10 12  1  0  0  0  0
 11  7  2  0  0  0  0
 12  9  1  0  0  0  0
 13 11  1  0  0  0  0
 14 13  1  6  0  0  0
 14 17  1  0  0  0  0
 16 15  1  0  0  0  0
 16 14  1  0  0  0  0
 17 18  1  0  0  0  0
 18 25  1  0  0  0  0
 19 20  2  0  0  0  0
 20 21  1  0  0  0  0
 21 27  1  6  0  0  0
 21 22  1  0  0  0  0
 23 22  1  0  0  0  0
 24 20  1  0  0  0  0
 24 25  2  0  0  0  0
 25 23  1  0  0  0  0
 26 27  1  0  0  0  0
 27 28  1  0  0  0  0
 29 30  1  0  0  0  0
 30 28  1  0  0  0  0
 31 33  1  0  0  0  0
 32 33  1  0  0  0  0
 32 34  1  0  0  0  0
 33 34  1  0  0  0  0
 33 35  1  0  0  0  0
 35 36  1  1  0  0  0
 37 42  1  0  0  0  0
 38 42  1  0  0  0  0
 39 43  1  6  0  0  0
 39 37  1  0  0  0  0
 40 35  1  1  0  0  0
 40 38  1  0  0  0  0
 41 40  1  0  0  0  0
 41 39  1  0  0  0  0
 43 44  1  0  0  0  0
 45 43  1  0  0  0  0
M  END
>  <MODEL>
2

>  <REMARK>
 VINA RESULT:      -8.0      2.497      3.820
  Name = 
  14 active torsions:
  status: ('A' for Active; 'I' for Inactive)
    1  A    between atoms: C_3  and  N_32
    2  A    between atoms: C_5  and  N_31
    3  A    between atoms: C_6  and  C_24
    4  A    between atoms: C_6  and  N_31
    5  A    between atoms: S_12  and  C_14
    6  A    between atoms: C_15  and  C_25
    7  A    between atoms: C_15  and  C_28
    8  A    between atoms: N_18  and  C_29
    9  A    between atoms: N_18  and  C_39
   10  A    between atoms: C_23  and  C_29
   11  A    between atoms: C_23  and  C_38
   12  A    between atoms: C_25  and  N_32
   13  A    between atoms: C_29  and  O_36
   14  A    between atoms: C_39  and  C_43
                            x       y       z     vdW  Elec       q    Type
                         _______ _______ _______ _____ _____    ______ ____

>  <TORSDO>
F 14

$$$$
=
 OpenBabel10222418113D

 45 49  0  0  1  0  0  0  0  0999 V2000
  186.0190  177.6670  143.5910 C   0  0  0  0  0  0  0  0  0  0  0  0
  187.2990  177.7360  142.7500 C   0  0  0  0  0  2  0  0  0  0  0  0
  183.3970  179.8830  139.0020 O   0  0  0  0  0  0  0  0  0  0  0  0
  185.4150  179.2260  139.7950 O   0  0  0  0  0  0  0  0  0  0  0  0
  187.1370  178.3250  141.3680 C   0  0  0  0  0  0  0  0  0  0  0  0
  185.8010  178.7230  140.9380 C   0  0  0  0  0  0  0  0  0  0  0  0
  188.1650  178.4430  140.5740 C   0  0  0  0  0  0  0  0  0  0  0  0
  184.8280  178.0690  143.1100 C   0  0  0  0  0  3  0  0  0  0  0  0
  184.7250  178.6020  141.7520 C   0  0  0  0  0  0  0  0  0  0  0  0
  184.1140  179.4070  139.9200 C   0  0  0  0  0  0  0  0  0  0  0  0
  189.1860  178.5620  139.7740 C   0  0  0  0  0  3  0  0  0  0  0  0
  183.6160  179.0360  141.1250 N   0  0  0  0  0  2  0  0  0  0  0  0
  189.4850  177.4900  138.7870 C   0  0  0  0  0  2  0  0  0  0  0  0
  189.3420  178.0240  137.3690 C   0  0  2  0  0  3  0  0  0  0  0  0
  187.7770  179.2920  136.4500 C   0  0  0  0  0  1  0  0  0  0  0  0
  188.7980  179.3100  137.4020 O   0  0  0  0  0  0  0  0  0  0  0  0
  188.4660  177.1490  136.6080 N   0  0  0  0  0  2  0  0  0  0  0  0
  188.0710  176.0660  137.4930 C   0  0  0  0  0  2  0  0  0  0  0  0
  185.1380  172.5050  136.4530 O   0  0  0  0  0  0  0  0  0  0  0  0
  185.2450  173.7560  136.5320 C   0  0  0  0  0  0  0  0  0  0  0  0
  184.0520  174.6210  136.1870 C   0  0  2  0  0  3  0  0  0  0  0  0
  184.5290  176.3010  135.6500 S   0  0  0  0  0  0  0  0  0  0  0  0
  185.5920  176.5910  137.0950 C   0  0  0  0  0  2  0  0  0  0  0  0
  186.5020  174.3270  136.9220 N   0  0  0  0  0  0  0  0  0  0  0  0
  186.7060  175.5930  137.1360 C   0  0  0  0  0  0  0  0  0  0  0  0
  182.1230  173.4770  137.1340 C   0  0  0  0  0  1  0  0  0  0  0  0
  182.9820  174.6560  137.1980 N   0  0  0  0  0  0  0  0  0  0  0  0
  182.1520  175.8260  136.9450 C   0  0  0  0  0  2  0  0  0  0  0  0
  182.6510  175.9630  139.3840 C   0  0  0  0  0  1  0  0  0  0  0  0
  182.0700  176.6960  138.1880 C   0  0  0  0  0  2  0  0  0  0  0  0
  186.0430  177.1580  144.9330 N   0  0  0  0  0  2  0  0  0  0  0  0
  186.3020  179.3350  146.1740 C   0  0  0  0  0  2  0  0  0  0  0  0
  186.4230  177.8290  146.1810 C   0  0  0  0  0  0  0  0  0  0  0  0
  185.3230  178.4830  146.9850 C   0  0  0  0  0  2  0  0  0  0  0  0
  187.6130  177.2740  146.9590 C   0  0  2  0  0  3  0  0  0  0  0  0
  187.4510  177.5710  148.3140 O   0  0  0  0  0  1  0  0  0  0  0  0
  191.7120  176.6460  146.1360 C   0  0  0  0  0  2  0  0  0  0  0  0
  190.0070  177.8370  147.5660 C   0  0  0  0  0  2  0  0  0  0  0  0
  190.9120  177.2490  144.9710 C   0  0  2  0  0  3  0  0  0  0  0  0
  188.9450  177.8400  146.4500 C   0  0  1  0  0  3  0  0  0  0  0  0
  189.4080  177.1020  145.1820 C   0  0  0  0  0  2  0  0  0  0  0  0
  190.9400  176.6330  147.4610 C   0  0  0  0  0  2  0  0  0  0  0  0
  191.3930  176.4920  143.4040 S   0  0  0  0  0  3  0  0  0  0  0  0
  191.3570  177.6420  142.4060 O   0  0  0  0  0  1  0  0  0  0  0  0
  190.0400  175.5530  142.9740 O   0  0  0  0  0  1  0  0  0  0  0  0
  1 31  1  0  0  0  0
  2  1  1  0  0  0  0
  3 10  2  0  0  0  0
  4 10  1  0  0  0  0
  4  6  1  0  0  0  0
  5  2  1  0  0  0  0
  6  5  1  0  0  0  0
  6  9  2  0  0  0  0
  7  5  2  0  0  0  0
  8  1  2  0  0  0  0
  9  8  1  0  0  0  0
 10 12  1  0  0  0  0
 11  7  2  0  0  0  0
 12  9  1  0  0  0  0
 13 11  1  0  0  0  0
 14 16  1  0  0  0  0
 14 13  1  1  0  0  0
 15 16  1  0  0  0  0
 17 14  1  0  0  0  0
 17 18  1  0  0  0  0
 19 20  2  0  0  0  0
 20 24  1  0  0  0  0
 21 20  1  0  0  0  0
 21 27  1  1  0  0  0
 22 21  1  0  0  0  0
 22 23  1  0  0  0  0
 23 25  1  0  0  0  0
 24 25  2  0  0  0  0
 25 18  1  0  0  0  0
 26 27  1  0  0  0  0
 28 27  1  0  0  0  0
 28 30  1  0  0  0  0
 30 29  1  0  0  0  0
 31 33  1  0  0  0  0
 32 33  1  0  0  0  0
 32 34  1  0  0  0  0
 33 35  1  0  0  0  0
 33 34  1  0  0  0  0
 35 36  1  1  0  0  0
 37 42  1  0  0  0  0
 39 43  1  6  0  0  0
 39 41  1  0  0  0  0
 39 37  1  0  0  0  0
 40 35  1  1  0  0  0
 40 38  1  0  0  0  0
 41 40  1  0  0  0  0
 42 38  1  0  0  0  0
 44 43  1  0  0  0  0
 45 43  1  0  0  0  0
M  END
>  <MODEL>
3

>  <REMARK>
 VINA RESULT:      -7.9      2.410      4.065
  Name = 
  14 active torsions:
  status: ('A' for Active; 'I' for Inactive)
    1  A    between atoms: C_3  and  N_32
    2  A    between atoms: C_5  and  N_31
    3  A    between atoms: C_6  and  C_24
    4  A    between atoms: C_6  and  N_31
    5  A    between atoms: S_12  and  C_14
    6  A    between atoms: C_15  and  C_25
    7  A    between atoms: C_15  and  C_28
    8  A    between atoms: N_18  and  C_29
    9  A    between atoms: N_18  and  C_39
   10  A    between atoms: C_23  and  C_29
   11  A    between atoms: C_23  and  C_38
   12  A    between atoms: C_25  and  N_32
   13  A    between atoms: C_29  and  O_36
   14  A    between atoms: C_39  and  C_43
                            x       y       z     vdW  Elec       q    Type
                         _______ _______ _______ _____ _____    ______ ____

>  <TORSDO>
F 14

$$$$
=
 OpenBabel10222418113D

 45 49  0  0  1  0  0  0  0  0999 V2000
  189.6610  177.2430  141.9090 C   0  0  0  0  0  0  0  0  0  0  0  0
  190.8540  176.7360  141.0910 C   0  0  0  0  0  2  0  0  0  0  0  0
  187.4240  178.8240  136.8750 O   0  0  0  0  0  0  0  0  0  0  0  0
  189.2410  177.8660  137.8300 O   0  0  0  0  0  0  0  0  0  0  0  0
  190.7620  176.9660  139.6000 C   0  0  0  0  0  0  0  0  0  0  0  0
  189.5560  177.5910  139.0690 C   0  0  0  0  0  0  0  0  0  0  0  0
  191.7280  176.5860  138.8110 C   0  0  0  0  0  0  0  0  0  0  0  0
  188.5920  177.8190  141.3290 C   0  0  0  0  0  3  0  0  0  0  0  0
  188.5430  177.9870  139.8780 C   0  0  0  0  0  0  0  0  0  0  0  0
  188.0480  178.4240  137.8920 C   0  0  0  0  0  0  0  0  0  0  0  0
  192.6870  176.2060  138.0150 C   0  0  0  0  0  3  0  0  0  0  0  0
  187.5520  178.5310  139.1500 N   0  0  0  0  0  2  0  0  0  0  0  0
  192.6210  174.8750  137.3540 C   0  0  0  0  0  2  0  0  0  0  0  0
  192.9290  175.0070  135.8700 C   0  0  2  0  0  3  0  0  0  0  0  0
  194.7500  176.0110  135.1090 C   0  0  0  0  0  1  0  0  0  0  0  0
  193.4740  176.2670  135.6110 O   0  0  0  0  0  0  0  0  0  0  0  0
  191.7040  174.8450  135.1050 N   0  0  0  0  0  2  0  0  0  0  0  0
  191.1650  173.5360  135.4350 C   0  0  0  0  0  2  0  0  0  0  0  0
  186.9640  171.4100  135.8720 O   0  0  0  0  0  0  0  0  0  0  0  0
  187.5480  172.5210  135.7970 C   0  0  0  0  0  0  0  0  0  0  0  0
  186.7260  173.7910  135.8470 C   0  0  2  0  0  3  0  0  0  0  0  0
  187.5510  175.2010  135.0280 S   0  0  0  0  0  0  0  0  0  0  0  0
  189.1050  174.9770  135.9440 C   0  0  0  0  0  2  0  0  0  0  0  0
  188.9730  172.5530  135.6410 N   0  0  0  0  0  0  0  0  0  0  0  0
  189.6960  173.6340  135.6540 C   0  0  0  0  0  0  0  0  0  0  0  0
  184.9730  173.4570  137.5020 C   0  0  0  0  0  1  0  0  0  0  0  0
  186.2110  174.1590  137.1770 N   0  0  0  0  0  0  0  0  0  0  0  0
  185.9250  175.5880  137.1770 C   0  0  0  0  0  2  0  0  0  0  0  0
  184.1460  177.2820  137.5980 C   0  0  0  0  0  1  0  0  0  0  0  0
  184.4270  175.8280  137.2670 C   0  0  0  0  0  2  0  0  0  0  0  0
  189.6390  177.1150  143.3390 N   0  0  0  0  0  2  0  0  0  0  0  0
  191.7910  178.1790  144.1030 C   0  0  0  0  0  2  0  0  0  0  0  0
  190.3260  177.9130  144.3610 C   0  0  0  0  0  0  0  0  0  0  0  0
  190.7640  179.3080  143.9790 C   0  0  0  0  0  2  0  0  0  0  0  0
  189.9540  177.6790  145.8230 C   0  0  2  0  0  3  0  0  0  0  0  0
  190.8190  176.7250  146.3660 O   0  0  0  0  0  1  0  0  0  0  0  0
  186.0590  178.4880  147.2520 C   0  0  0  0  0  2  0  0  0  0  0  0
  188.1270  177.0580  147.4640 C   0  0  0  0  0  2  0  0  0  0  0  0
  186.1230  178.0700  145.7740 C   0  0  2  0  0  3  0  0  0  0  0  0
  188.4990  177.2210  145.9780 C   0  0  1  0  0  3  0  0  0  0  0  0
  187.5430  178.1610  145.2220 C   0  0  0  0  0  2  0  0  0  0  0  0
  187.3790  178.2760  148.0010 C   0  0  0  0  0  2  0  0  0  0  0  0
  185.0060  179.0770  144.7750 S   0  0  0  0  0  3  0  0  0  0  0  0
  183.7250  179.1440  145.5970 O   0  0  0  0  0  1  0  0  0  0  0  0
  184.5900  178.0580  143.4770 O   0  0  0  0  0  1  0  0  0  0  0  0
  1 31  1  0  0  0  0
  2  1  1  0  0  0  0
  3 10  2  0  0  0  0
  4 10  1  0  0  0  0
  4  6  1  0  0  0  0
  5  2  1  0  0  0  0
  6  5  1  0  0  0  0
  6  9  2  0  0  0  0
  7  5  2  0  0  0  0
  8  1  2  0  0  0  0
  9  8  1  0  0  0  0
 10 12  1  0  0  0  0
 11  7  2  0  0  0  0
 12  9  1  0  0  0  0
 13 11  1  0  0  0  0
 14 13  1  1  0  0  0
 15 16  1  0  0  0  0
 16 14  1  0  0  0  0
 17 18  1  0  0  0  0
 17 14  1  0  0  0  0
 18 25  1  0  0  0  0
 20 21  1  0  0  0  0
 20 19  2  0  0  0  0
 21 27  1  1  0  0  0
 22 21  1  0  0  0  0
 22 23  1  0  0  0  0
 24 25  2  0  0  0  0
 24 20  1  0  0  0  0
 25 23  1  0  0  0  0
 27 26  1  0  0  0  0
 28 27  1  0  0  0  0
 28 30  1  0  0  0  0
 30 29  1  0  0  0  0
 31 33  1  0  0  0  0
 32 33  1  0  0  0  0
 33 35  1  0  0  0  0
 34 32  1  0  0  0  0
 34 33  1  0  0  0  0
 35 36  1  6  0  0  0
 37 42  1  0  0  0  0
 38 42  1  0  0  0  0
 39 43  1  6  0  0  0
 39 37  1  0  0  0  0
 40 35  1  1  0  0  0
 40 38  1  0  0  0  0
 41 39  1  0  0  0  0
 41 40  1  0  0  0  0
 43 44  1  0  0  0  0
 45 43  1  0  0  0  0
M  END
>  <MODEL>
4

>  <REMARK>
 VINA RESULT:      -7.9      2.912      4.490
  Name = 
  14 active torsions:
  status: ('A' for Active; 'I' for Inactive)
    1  A    between atoms: C_3  and  N_32
    2  A    between atoms: C_5  and  N_31
    3  A    between atoms: C_6  and  C_24
    4  A    between atoms: C_6  and  N_31
    5  A    between atoms: S_12  and  C_14
    6  A    between atoms: C_15  and  C_25
    7  A    between atoms: C_15  and  C_28
    8  A    between atoms: N_18  and  C_29
    9  A    between atoms: N_18  and  C_39
   10  A    between atoms: C_23  and  C_29
   11  A    between atoms: C_23  and  C_38
   12  A    between atoms: C_25  and  N_32
   13  A    between atoms: C_29  and  O_36
   14  A    between atoms: C_39  and  C_43
                            x       y       z     vdW  Elec       q    Type
                         _______ _______ _______ _____ _____    ______ ____

>  <TORSDO>
F 14

$$$$
=
 OpenBabel10222418113D

 45 49  0  0  1  0  0  0  0  0999 V2000
  185.8380  177.7790  143.7450 C   0  0  0  0  0  0  0  0  0  0  0  0
  187.1390  177.8560  142.9380 C   0  0  0  0  0  2  0  0  0  0  0  0
  183.3060  179.8930  139.0580 O   0  0  0  0  0  0  0  0  0  0  0  0
  185.3120  179.2770  139.9130 O   0  0  0  0  0  0  0  0  0  0  0  0
  187.0050  178.4230  141.5440 C   0  0  0  0  0  0  0  0  0  0  0  0
  185.6760  178.7960  141.0730 C   0  0  0  0  0  0  0  0  0  0  0  0
  188.0520  178.5460  140.7760 C   0  0  0  0  0  0  0  0  0  0  0  0
  184.6550  178.1570  143.2270 C   0  0  0  0  0  3  0  0  0  0  0  0
  184.5800  178.6690  141.8590 C   0  0  0  0  0  0  0  0  0  0  0  0
  184.0060  179.4400  140.0010 C   0  0  0  0  0  0  0  0  0  0  0  0
  189.0920  178.6690  140.0010 C   0  0  0  0  0  3  0  0  0  0  0  0
  183.4820  179.0780  141.1980 N   0  0  0  0  0  2  0  0  0  0  0  0
  189.4320  177.5880  139.0370 C   0  0  0  0  0  2  0  0  0  0  0  0
  189.4190  178.1270  137.6140 C   0  0  2  0  0  3  0  0  0  0  0  0
  187.7360  178.3160  136.1880 C   0  0  0  0  0  1  0  0  0  0  0  0
  188.2330  178.8300  137.3860 O   0  0  0  0  0  0  0  0  0  0  0  0
  189.5110  177.0200  136.6770 N   0  0  0  0  0  2  0  0  0  0  0  0
  189.9250  175.8520  137.4350 C   0  0  0  0  0  2  0  0  0  0  0  0
  194.4420  176.7780  136.3860 O   0  0  0  0  0  0  0  0  0  0  0  0
  193.5410  175.9010  136.3530 C   0  0  0  0  0  0  0  0  0  0  0  0
  193.8560  174.5390  135.7730 C   0  0  2  0  0  3  0  0  0  0  0  0
  192.3740  173.6810  135.1370 S   0  0  0  0  0  0  0  0  0  0  0  0
  191.4300  173.9210  136.6710 C   0  0  0  0  0  2  0  0  0  0  0  0
  192.2320  176.2250  136.8430 N   0  0  0  0  0  0  0  0  0  0  0  0
  191.2520  175.3790  136.9540 C   0  0  0  0  0  0  0  0  0  0  0  0
  194.7370  174.1400  138.0060 C   0  0  0  0  0  1  0  0  0  0  0  0
  194.6700  173.6600  136.6290 N   0  0  0  0  0  0  0  0  0  0  0  0
  196.0270  173.6350  136.1000 C   0  0  0  0  0  2  0  0  0  0  0  0
  198.2890  174.6240  136.4460 C   0  0  0  0  0  1  0  0  0  0  0  0
  197.0050  174.1850  137.1260 C   0  0  0  0  0  2  0  0  0  0  0  0
  185.8330  177.2890  145.0950 N   0  0  0  0  0  2  0  0  0  0  0  0
  186.3810  179.4090  146.3410 C   0  0  0  0  0  2  0  0  0  0  0  0
  186.3800  177.8990  146.3130 C   0  0  0  0  0  0  0  0  0  0  0  0
  185.4140  178.6190  147.2260 C   0  0  0  0  0  2  0  0  0  0  0  0
  187.5870  177.2330  146.9670 C   0  0  2  0  0  3  0  0  0  0  0  0
  187.5020  177.3950  148.3520 O   0  0  0  0  0  1  0  0  0  0  0  0
  191.6930  176.6470  146.1510 C   0  0  0  0  0  2  0  0  0  0  0  0
  189.9740  177.8390  147.5630 C   0  0  0  0  0  2  0  0  0  0  0  0
  190.8850  177.2210  144.9770 C   0  0  2  0  0  3  0  0  0  0  0  0
  188.9100  177.8090  146.4480 C   0  0  1  0  0  3  0  0  0  0  0  0
  189.3830  177.0560  145.1920 C   0  0  0  0  0  2  0  0  0  0  0  0
  190.9230  176.6450  147.4770 C   0  0  0  0  0  2  0  0  0  0  0  0
  191.3750  176.4450  143.4220 S   0  0  0  0  0  3  0  0  0  0  0  0
  191.6040  177.6150  142.4750 O   0  0  0  0  0  1  0  0  0  0  0  0
  189.9350  175.7440  142.8450 O   0  0  0  0  0  1  0  0  0  0  0  0
  1 31  1  0  0  0  0
  2  1  1  0  0  0  0
  3 10  2  0  0  0  0
  4 10  1  0  0  0  0
  4  6  1  0  0  0  0
  5  2  1  0  0  0  0
  6  5  1  0  0  0  0
  6  9  2  0  0  0  0
  7  5  2  0  0  0  0
  8  1  2  0  0  0  0
  9  8  1  0  0  0  0
 10 12  1  0  0  0  0
 11  7  2  0  0  0  0
 12  9  1  0  0  0  0
 13 11  1  0  0  0  0
 14 13  1  1  0  0  0
 15 16  1  0  0  0  0
 16 14  1  0  0  0  0
 17 18  1  0  0  0  0
 17 14  1  0  0  0  0
 20 19  2  0  0  0  0
 20 24  1  0  0  0  0
 21 20  1  0  0  0  0
 21 27  1  1  0  0  0
 22 21  1  0  0  0  0
 22 23  1  0  0  0  0
 23 25  1  0  0  0  0
 24 25  2  0  0  0  0
 25 18  1  0  0  0  0
 27 26  1  0  0  0  0
 28 27  1  0  0  0  0
 28 30  1  0  0  0  0
 29 30  1  0  0  0  0
 31 33  1  0  0  0  0
 32 34  1  0  0  0  0
 33 32  1  0  0  0  0
 33 35  1  0  0  0  0
 33 34  1  0  0  0  0
 35 36  1  1  0  0  0
 37 42  1  0  0  0  0
 39 43  1  6  0  0  0
 39 41  1  0  0  0  0
 39 37  1  0  0  0  0
 40 35  1  1  0  0  0
 40 38  1  0  0  0  0
 41 40  1  0  0  0  0
 42 38  1  0  0  0  0
 44 43  1  0  0  0  0
 45 43  1  0  0  0  0
M  END
>  <MODEL>
5

>  <REMARK>
 VINA RESULT:      -7.9      4.383      7.933
  Name = 
  14 active torsions:
  status: ('A' for Active; 'I' for Inactive)
    1  A    between atoms: C_3  and  N_32
    2  A    between atoms: C_5  and  N_31
    3  A    between atoms: C_6  and  C_24
    4  A    between atoms: C_6  and  N_31
    5  A    between atoms: S_12  and  C_14
    6  A    between atoms: C_15  and  C_25
    7  A    between atoms: C_15  and  C_28
    8  A    between atoms: N_18  and  C_29
    9  A    between atoms: N_18  and  C_39
   10  A    between atoms: C_23  and  C_29
   11  A    between atoms: C_23  and  C_38
   12  A    between atoms: C_25  and  N_32
   13  A    between atoms: C_29  and  O_36
   14  A    between atoms: C_39  and  C_43
                            x       y       z     vdW  Elec       q    Type
                         _______ _______ _______ _____ _____    ______ ____

>  <TORSDO>
F 14

$$$$
=
 OpenBabel10222418113D

 45 49  0  0  1  0  0  0  0  0999 V2000
  189.1880  177.4060  142.1300 C   0  0  0  0  0  0  0  0  0  0  0  0
  189.7830  177.2040  140.7320 C   0  0  0  0  0  2  0  0  0  0  0  0
  184.5950  179.4900  139.4070 O   0  0  0  0  0  0  0  0  0  0  0  0
  186.6670  178.6360  139.0740 O   0  0  0  0  0  0  0  0  0  0  0  0
  188.9150  177.6650  139.5840 C   0  0  0  0  0  0  0  0  0  0  0  0
  187.5940  178.2040  139.8880 C   0  0  0  0  0  0  0  0  0  0  0  0
  189.3300  177.5520  138.3530 C   0  0  0  0  0  0  0  0  0  0  0  0
  187.9590  177.9230  142.3130 C   0  0  0  0  0  3  0  0  0  0  0  0
  187.1490  178.3220  141.1630 C   0  0  0  0  0  0  0  0  0  0  0  0
  185.6710  179.0130  139.8530 C   0  0  0  0  0  0  0  0  0  0  0  0
  189.7360  177.4410  137.1200 C   0  0  0  0  0  3  0  0  0  0  0  0
  185.9090  178.8440  141.1770 N   0  0  0  0  0  2  0  0  0  0  0  0
  189.3660  176.2410  136.3220 C   0  0  0  0  0  2  0  0  0  0  0  0
  187.9500  175.7980  136.6600 C   0  0  2  0  0  3  0  0  0  0  0  0
  188.9160  173.8850  136.1020 C   0  0  0  0  0  1  0  0  0  0  0  0
  187.9380  174.4280  136.9370 O   0  0  0  0  0  0  0  0  0  0  0  0
  187.0750  176.0700  135.5330 N   0  0  0  0  0  2  0  0  0  0  0  0
  186.1290  177.0860  135.9630 C   0  0  0  0  0  2  0  0  0  0  0  0
  182.3100  177.1060  138.7520 O   0  0  0  0  0  0  0  0  0  0  0  0
  182.9540  176.4410  137.9010 C   0  0  0  0  0  0  0  0  0  0  0  0
  182.4460  175.0750  137.4930 C   0  0  2  0  0  3  0  0  0  0  0  0
  183.7730  173.9830  136.8720 S   0  0  0  0  0  0  0  0  0  0  0  0
  184.3960  175.2140  135.6890 C   0  0  0  0  0  2  0  0  0  0  0  0
  184.1660  176.9860  137.3610 N   0  0  0  0  0  0  0  0  0  0  0  0
  184.8610  176.4420  136.4060 C   0  0  0  0  0  0  0  0  0  0  0  0
  180.1120  175.7040  137.2120 C   0  0  0  0  0  1  0  0  0  0  0  0
  181.2780  175.0760  136.5970 N   0  0  0  0  0  0  0  0  0  0  0  0
  180.9320  173.6940  136.2950 C   0  0  0  0  0  2  0  0  0  0  0  0
  180.5240  171.5310  137.4660 C   0  0  0  0  0  1  0  0  0  0  0  0
  180.2970  173.0310  137.5070 C   0  0  0  0  0  2  0  0  0  0  0  0
  189.9240  177.0400  143.3060 N   0  0  0  0  0  2  0  0  0  0  0  0
  192.0670  178.3220  143.6440 C   0  0  0  0  0  2  0  0  0  0  0  0
  190.7350  177.8750  144.2000 C   0  0  0  0  0  0  0  0  0  0  0  0
  190.9240  179.3250  143.8190 C   0  0  0  0  0  2  0  0  0  0  0  0
  190.7290  177.5450  145.6900 C   0  0  2  0  0  3  0  0  0  0  0  0
  191.7000  176.5740  145.9460 O   0  0  0  0  0  1  0  0  0  0  0  0
  187.3200  178.1750  148.1090 C   0  0  0  0  0  2  0  0  0  0  0  0
  189.3650  176.7610  147.6760 C   0  0  0  0  0  2  0  0  0  0  0  0
  187.0100  177.8850  146.6320 C   0  0  2  0  0  3  0  0  0  0  0  0
  189.3550  177.0550  146.1630 C   0  0  1  0  0  3  0  0  0  0  0  0
  188.2480  178.0420  145.7530 C   0  0  0  0  0  2  0  0  0  0  0  0
  188.7840  177.9190  148.4850 C   0  0  0  0  0  2  0  0  0  0  0  0
  185.6870  178.9570  146.0330 S   0  0  0  0  0  3  0  0  0  0  0  0
  184.4980  178.6180  146.9230 O   0  0  0  0  0  1  0  0  0  0  0  0
  185.2620  178.2780  144.5310 O   0  0  0  0  0  1  0  0  0  0  0  0
  1  8  2  0  0  0  0
  1 31  1  0  0  0  0
  2  1  1  0  0  0  0
  3 10  2  0  0  0  0
  4 10  1  0  0  0  0
  4  6  1  0  0  0  0
  5  6  1  0  0  0  0
  5  2  1  0  0  0  0
  6  9  2  0  0  0  0
  7  5  2  0  0  0  0
  9 12  1  0  0  0  0
  9  8  1  0  0  0  0
 10 12  1  0  0  0  0
 11  7  2  0  0  0  0
 13 11  1  0  0  0  0
 14 13  1  6  0  0  0
 14 16  1  0  0  0  0
 15 16  1  0  0  0  0
 17 18  1  0  0  0  0
 17 14  1  0  0  0  0
 18 25  1  0  0  0  0
 20 19  2  0  0  0  0
 21 27  1  6  0  0  0
 21 20  1  0  0  0  0
 22 21  1  0  0  0  0
 23 25  1  0  0  0  0
 23 22  1  0  0  0  0
 24 20  1  0  0  0  0
 25 24  2  0  0  0  0
 27 26  1  0  0  0  0
 28 27  1  0  0  0  0
 28 30  1  0  0  0  0
 29 30  1  0  0  0  0
 31 33  1  0  0  0  0
 32 34  1  0  0  0  0
 32 33  1  0  0  0  0
 33 35  1  0  0  0  0
 34 33  1  0  0  0  0
 35 36  1  6  0  0  0
 37 42  1  0  0  0  0
 38 42  1  0  0  0  0
 39 43  1  6  0  0  0
 39 37  1  0  0  0  0
 40 35  1  1  0  0  0
 40 38  1  0  0  0  0
 41 40  1  0  0  0  0
 41 39  1  0  0  0  0
 43 44  1  0  0  0  0
 45 43  1  0  0  0  0
M  END
>  <MODEL>
6

>  <REMARK>
 VINA RESULT:      -7.7      1.744      2.321
  Name = 
  14 active torsions:
  status: ('A' for Active; 'I' for Inactive)
    1  A    between atoms: C_3  and  N_32
    2  A    between atoms: C_5  and  N_31
    3  A    between atoms: C_6  and  C_24
    4  A    between atoms: C_6  and  N_31
    5  A    between atoms: S_12  and  C_14
    6  A    between atoms: C_15  and  C_25
    7  A    between atoms: C_15  and  C_28
    8  A    between atoms: N_18  and  C_29
    9  A    between atoms: N_18  and  C_39
   10  A    between atoms: C_23  and  C_29
   11  A    between atoms: C_23  and  C_38
   12  A    between atoms: C_25  and  N_32
   13  A    between atoms: C_29  and  O_36
   14  A    between atoms: C_39  and  C_43
                            x       y       z     vdW  Elec       q    Type
                         _______ _______ _______ _____ _____    ______ ____

>  <TORSDO>
F 14

$$$$
=
 OpenBabel10222418113D

 45 49  0  0  1  0  0  0  0  0999 V2000
  191.2700  177.3460  140.9360 C   0  0  0  0  0  0  0  0  0  0  0  0
  189.9310  177.0710  140.2430 C   0  0  0  0  0  2  0  0  0  0  0  0
  193.6550  176.1550  135.8620 O   0  0  0  0  0  0  0  0  0  0  0  0
  191.6690  176.2850  136.9460 O   0  0  0  0  0  0  0  0  0  0  0  0
  190.0240  176.6510  138.7940 C   0  0  0  0  0  0  0  0  0  0  0  0
  191.3440  176.5920  138.1740 C   0  0  0  0  0  0  0  0  0  0  0  0
  188.9460  176.3790  138.1130 C   0  0  0  0  0  0  0  0  0  0  0  0
  192.4430  177.2560  140.2820 C   0  0  0  0  0  3  0  0  0  0  0  0
  192.4710  176.8770  138.8700 C   0  0  0  0  0  0  0  0  0  0  0  0
  192.9840  176.3830  136.9030 C   0  0  0  0  0  0  0  0  0  0  0  0
  187.8740  176.1080  137.4250 C   0  0  0  0  0  3  0  0  0  0  0  0
  193.5510  176.7500  138.0780 N   0  0  0  0  0  2  0  0  0  0  0  0
  187.2310  177.1680  136.6030 C   0  0  0  0  0  2  0  0  0  0  0  0
  185.7190  177.1100  136.7560 C   0  0  2  0  0  3  0  0  0  0  0  0
  183.7580  176.8220  135.7670 C   0  0  0  0  0  1  0  0  0  0  0  0
  185.1250  176.9270  135.5040 O   0  0  0  0  0  0  0  0  0  0  0  0
  185.2420  178.3530  137.3380 N   0  0  0  0  0  2  0  0  0  0  0  0
  185.4530  178.2600  138.7730 C   0  0  0  0  0  2  0  0  0  0  0  0
  183.0600  178.5970  142.8380 O   0  0  0  0  0  0  0  0  0  0  0  0
  182.9510  178.5330  141.5870 C   0  0  0  0  0  0  0  0  0  0  0  0
  181.5720  178.5570  140.9630 C   0  0  2  0  0  3  0  0  0  0  0  0
  181.5240  177.7530  139.3230 S   0  0  0  0  0  0  0  0  0  0  0  0
  182.9290  178.7100  138.6810 C   0  0  0  0  0  2  0  0  0  0  0  0
  184.1360  178.4130  140.7880 N   0  0  0  0  0  0  0  0  0  0  0  0
  184.1590  178.4400  139.4880 C   0  0  0  0  0  0  0  0  0  0  0  0
  180.0500  180.0710  142.1100 C   0  0  0  0  0  1  0  0  0  0  0  0
  180.9080  179.8710  140.9460 N   0  0  0  0  0  0  0  0  0  0  0  0
  180.0690  179.9440  139.7580 C   0  0  0  0  0  2  0  0  0  0  0  0
  180.6960  181.5440  137.9520 C   0  0  0  0  0  1  0  0  0  0  0  0
  179.9640  181.3800  139.2710 C   0  0  0  0  0  2  0  0  0  0  0  0
  191.3220  177.7220  142.3210 N   0  0  0  0  0  2  0  0  0  0  0  0
  190.0950  175.7260  143.2470 C   0  0  0  0  0  2  0  0  0  0  0  0
  190.9200  176.9630  143.5110 C   0  0  0  0  0  0  0  0  0  0  0  0
  191.5470  175.6040  143.7170 C   0  0  0  0  0  2  0  0  0  0  0  0
  190.5370  177.7470  144.7640 C   0  0  2  0  0  3  0  0  0  0  0  0
  191.6700  177.9050  145.5670 O   0  0  0  0  0  1  0  0  0  0  0  0
  187.7760  177.8810  147.9620 C   0  0  0  0  0  2  0  0  0  0  0  0
  189.8520  176.8040  147.0130 C   0  0  0  0  0  2  0  0  0  0  0  0
  187.1620  177.5080  146.6030 C   0  0  2  0  0  3  0  0  0  0  0  0
  189.4210  177.0550  145.5550 C   0  0  1  0  0  3  0  0  0  0  0  0
  188.1020  177.8410  145.4480 C   0  0  0  0  0  2  0  0  0  0  0  0
  189.3090  177.8730  147.9590 C   0  0  0  0  0  2  0  0  0  0  0  0
  185.5760  178.3390  146.3690 S   0  0  0  0  0  3  0  0  0  0  0  0
  185.6560  178.9070  144.9580 O   0  0  0  0  0  1  0  0  0  0  0  0
  185.6900  179.7190  147.3570 O   0  0  0  0  0  1  0  0  0  0  0  0
  1 31  1  0  0  0  0
  2  1  1  0  0  0  0
  3 10  2  0  0  0  0
  4  6  1  0  0  0  0
  5  2  1  0  0  0  0
  6  5  1  0  0  0  0
  6  9  2  0  0  0  0
  7  5  2  0  0  0  0
  8  1  2  0  0  0  0
  9  8  1  0  0  0  0
 10  4  1  0  0  0  0
 10 12  1  0  0  0  0
 11  7  2  0  0  0  0
 12  9  1  0  0  0  0
 13 11  1  0  0  0  0
 14 13  1  6  0  0  0
 14 17  1  0  0  0  0
 16 15  1  0  0  0  0
 16 14  1  0  0  0  0
 17 18  1  0  0  0  0
 18 25  1  0  0  0  0
 20 19  2  0  0  0  0
 21 27  1  6  0  0  0
 21 20  1  0  0  0  0
 22 21  1  0  0  0  0
 23 22  1  0  0  0  0
 23 25  1  0  0  0  0
 24 20  1  0  0  0  0
 25 24  2  0  0  0  0
 27 26  1  0  0  0  0
 28 27  1  0  0  0  0
 29 30  1  0  0  0  0
 30 28  1  0  0  0  0
 31 33  1  0  0  0  0
 32 33  1  0  0  0  0
 32 34  1  0  0  0  0
 33 34  1  0  0  0  0
 33 35  1  0  0  0  0
 35 36  1  1  0  0  0
 38 42  1  0  0  0  0
 39 43  1  6  0  0  0
 39 37  1  0  0  0  0
 40 35  1  6  0  0  0
 40 38  1  0  0  0  0
 41 40  1  0  0  0  0
 41 39  1  0  0  0  0
 42 37  1  0  0  0  0
 43 45  1  0  0  0  0
 44 43  1  0  0  0  0
M  END
>  <MODEL>
7

>  <REMARK>
 VINA RESULT:      -7.6      2.526      3.970
  Name = 
  14 active torsions:
  status: ('A' for Active; 'I' for Inactive)
    1  A    between atoms: C_3  and  N_32
    2  A    between atoms: C_5  and  N_31
    3  A    between atoms: C_6  and  C_24
    4  A    between atoms: C_6  and  N_31
    5  A    between atoms: S_12  and  C_14
    6  A    between atoms: C_15  and  C_25
    7  A    between atoms: C_15  and  C_28
    8  A    between atoms: N_18  and  C_29
    9  A    between atoms: N_18  and  C_39
   10  A    between atoms: C_23  and  C_29
   11  A    between atoms: C_23  and  C_38
   12  A    between atoms: C_25  and  N_32
   13  A    between atoms: C_29  and  O_36
   14  A    between atoms: C_39  and  C_43
                            x       y       z     vdW  Elec       q    Type
                         _______ _______ _______ _____ _____    ______ ____

>  <TORSDO>
F 14

$$$$
=
 OpenBabel10222418113D

 45 49  0  0  1  0  0  0  0  0999 V2000
  191.0290  177.4160  141.1630 C   0  0  0  0  0  0  0  0  0  0  0  0
  189.6850  177.2320  140.4500 C   0  0  0  0  0  2  0  0  0  0  0  0
  193.4020  176.1430  136.1040 O   0  0  0  0  0  0  0  0  0  0  0  0
  191.4140  176.3820  137.1650 O   0  0  0  0  0  0  0  0  0  0  0  0
  189.7710  176.8260  138.9970 C   0  0  0  0  0  0  0  0  0  0  0  0
  191.0920  176.6930  138.3930 C   0  0  0  0  0  0  0  0  0  0  0  0
  188.6880  176.6290  138.2990 C   0  0  0  0  0  0  0  0  0  0  0  0
  192.2030  177.2620  140.5220 C   0  0  0  0  0  3  0  0  0  0  0  0
  192.2260  176.8990  139.1060 C   0  0  0  0  0  0  0  0  0  0  0  0
  192.7330  176.3990  137.1390 C   0  0  0  0  0  0  0  0  0  0  0  0
  187.6100  176.4340  137.5940 C   0  0  0  0  0  3  0  0  0  0  0  0
  193.3070  176.7160  138.3260 N   0  0  0  0  0  2  0  0  0  0  0  0
  187.0440  177.5420  136.7790 C   0  0  0  0  0  2  0  0  0  0  0  0
  185.8610  178.1750  137.4960 C   0  0  2  0  0  3  0  0  0  0  0  0
  185.5230  178.6250  139.6380 C   0  0  0  0  0  1  0  0  0  0  0  0
  186.3190  178.9750  138.5460 O   0  0  0  0  0  0  0  0  0  0  0  0
  185.0000  177.1310  138.0250 N   0  0  0  0  0  2  0  0  0  0  0  0
  183.8130  177.0920  137.1880 C   0  0  0  0  0  2  0  0  0  0  0  0
  180.3610  175.8520  140.1740 O   0  0  0  0  0  0  0  0  0  0  0  0
  180.8140  176.7840  139.4600 C   0  0  0  0  0  0  0  0  0  0  0  0
  180.0800  178.1070  139.4200 C   0  0  2  0  0  3  0  0  0  0  0  0
  180.3900  179.0410  137.8810 S   0  0  0  0  0  0  0  0  0  0  0  0
  182.1970  178.9020  138.0190 C   0  0  0  0  0  2  0  0  0  0  0  0
  181.9980  176.5560  138.6830 N   0  0  0  0  0  0  0  0  0  0  0  0
  182.6160  177.4670  137.9900 C   0  0  0  0  0  0  0  0  0  0  0  0
  180.3550  180.3690  140.2740 C   0  0  0  0  0  1  0  0  0  0  0  0
  180.2400  178.9540  140.6140 N   0  0  0  0  0  0  0  0  0  0  0  0
  181.4650  178.5590  141.2950 C   0  0  0  0  0  2  0  0  0  0  0  0
  180.2750  178.3860  143.4780 C   0  0  0  0  0  1  0  0  0  0  0  0
  181.4400  179.0220  142.7420 C   0  0  0  0  0  2  0  0  0  0  0  0
  191.0860  177.7700  142.5530 N   0  0  0  0  0  2  0  0  0  0  0  0
  190.1750  175.6290  143.5190 C   0  0  0  0  0  2  0  0  0  0  0  0
  190.9180  176.9250  143.7410 C   0  0  0  0  0  0  0  0  0  0  0  0
  191.6820  175.6220  143.7840 C   0  0  0  0  0  2  0  0  0  0  0  0
  190.6450  177.6130  145.0770 C   0  0  2  0  0  3  0  0  0  0  0  0
  191.7260  177.3900  145.9330 O   0  0  0  0  0  1  0  0  0  0  0  0
  187.5620  178.2370  147.9000 C   0  0  0  0  0  2  0  0  0  0  0  0
  189.5500  176.8370  147.2250 C   0  0  0  0  0  2  0  0  0  0  0  0
  187.0710  177.9300  146.4770 C   0  0  2  0  0  3  0  0  0  0  0  0
  189.3470  177.1160  145.7230 C   0  0  1  0  0  3  0  0  0  0  0  0
  188.1870  178.0890  145.4480 C   0  0  0  0  0  2  0  0  0  0  0  0
  189.0640  177.9970  148.0910 C   0  0  0  0  0  2  0  0  0  0  0  0
  185.6730  178.9850  146.0400 S   0  0  0  0  0  3  0  0  0  0  0  0
  184.5520  178.5200  146.9600 O   0  0  0  0  0  1  0  0  0  0  0  0
  185.1930  178.4120  144.5110 O   0  0  0  0  0  1  0  0  0  0  0  0
  1 31  1  0  0  0  0
  2  1  1  0  0  0  0
  3 10  2  0  0  0  0
  4  6  1  0  0  0  0
  5  2  1  0  0  0  0
  6  5  1  0  0  0  0
  6  9  2  0  0  0  0
  7  5  2  0  0  0  0
  8  1  2  0  0  0  0
  9  8  1  0  0  0  0
 10  4  1  0  0  0  0
 10 12  1  0  0  0  0
 11  7  2  0  0  0  0
 12  9  1  0  0  0  0
 13 11  1  0  0  0  0
 14 13  1  1  0  0  0
 14 17  1  0  0  0  0
 14 16  1  0  0  0  0
 16 15  1  0  0  0  0
 18 25  1  0  0  0  0
 18 17  1  0  0  0  0
 20 19  2  0  0  0  0
 21 20  1  0  0  0  0
 21 27  1  1  0  0  0
 22 23  1  0  0  0  0
 22 21  1  0  0  0  0
 24 20  1  0  0  0  0
 25 23  1  0  0  0  0
 25 24  2  0  0  0  0
 26 27  1  0  0  0  0
 27 28  1  0  0  0  0
 28 30  1  0  0  0  0
 30 29  1  0  0  0  0
 31 33  1  0  0  0  0
 32 33  1  0  0  0  0
 32 34  1  0  0  0  0
 33 34  1  0  0  0  0
 33 35  1  0  0  0  0
 35 36  1  1  0  0  0
 37 42  1  0  0  0  0
 38 42  1  0  0  0  0
 39 43  1  6  0  0  0
 39 37  1  0  0  0  0
 40 35  1  1  0  0  0
 40 38  1  0  0  0  0
 41 40  1  0  0  0  0
 41 39  1  0  0  0  0
 43 44  1  0  0  0  0
 45 43  1  0  0  0  0
M  END
>  <MODEL>
8

>  <REMARK>
 VINA RESULT:      -7.6      2.149      3.499
  Name = 
  14 active torsions:
  status: ('A' for Active; 'I' for Inactive)
    1  A    between atoms: C_3  and  N_32
    2  A    between atoms: C_5  and  N_31
    3  A    between atoms: C_6  and  C_24
    4  A    between atoms: C_6  and  N_31
    5  A    between atoms: S_12  and  C_14
    6  A    between atoms: C_15  and  C_25
    7  A    between atoms: C_15  and  C_28
    8  A    between atoms: N_18  and  C_29
    9  A    between atoms: N_18  and  C_39
   10  A    between atoms: C_23  and  C_29
   11  A    between atoms: C_23  and  C_38
   12  A    between atoms: C_25  and  N_32
   13  A    between atoms: C_29  and  O_36
   14  A    between atoms: C_39  and  C_43
                            x       y       z     vdW  Elec       q    Type
                         _______ _______ _______ _____ _____    ______ ____

>  <TORSDO>
F 14

$$$$
=
 OpenBabel10222418113D

 45 49  0  0  1  0  0  0  0  0999 V2000
  184.9530  178.5820  143.8110 C   0  0  0  0  0  0  0  0  0  0  0  0
  185.1040  178.5190  142.2860 C   0  0  0  0  0  2  0  0  0  0  0  0
  179.3100  178.7280  142.8190 O   0  0  0  0  0  0  0  0  0  0  0  0
  181.3290  178.6470  141.7940 O   0  0  0  0  0  0  0  0  0  0  0  0
  183.8120  178.5700  141.5040 C   0  0  0  0  0  0  0  0  0  0  0  0
  182.5560  178.6220  142.2440 C   0  0  0  0  0  0  0  0  0  0  0  0
  183.8260  178.5370  140.2010 C   0  0  0  0  0  0  0  0  0  0  0  0
  183.7470  178.6390  144.4060 C   0  0  0  0  0  3  0  0  0  0  0  0
  182.5280  178.6530  143.5980 C   0  0  0  0  0  0  0  0  0  0  0  0
  180.5670  178.6930  142.8700 C   0  0  0  0  0  0  0  0  0  0  0  0
  183.8310  178.5020  138.8980 C   0  0  0  0  0  3  0  0  0  0  0  0
  181.2570  178.7000  144.0370 N   0  0  0  0  0  2  0  0  0  0  0  0
  183.6780  177.2030  138.1900 C   0  0  0  0  0  2  0  0  0  0  0  0
  183.7600  177.4100  136.6850 C   0  0  2  0  0  3  0  0  0  0  0  0
  181.9590  176.1560  136.9800 C   0  0  0  0  0  1  0  0  0  0  0  0
  182.9310  176.4910  136.0360 O   0  0  0  0  0  0  0  0  0  0  0  0
  185.1310  177.2180  136.2430 N   0  0  0  0  0  2  0  0  0  0  0  0
  185.6910  176.1430  137.0450 C   0  0  0  0  0  2  0  0  0  0  0  0
  189.0400  178.9420  138.8660 O   0  0  0  0  0  0  0  0  0  0  0  0
  188.8290  177.9020  138.1910 C   0  0  0  0  0  0  0  0  0  0  0  0
  190.0070  177.1080  137.6700 C   0  0  2  0  0  3  0  0  0  0  0  0
  189.5970  176.1280  136.1830 S   0  0  0  0  0  0  0  0  0  0  0  0
  188.1330  175.3650  136.9430 C   0  0  0  0  0  2  0  0  0  0  0  0
  187.4760  177.5130  137.9130 N   0  0  0  0  0  0  0  0  0  0  0  0
  187.1300  176.4110  137.3160 C   0  0  0  0  0  0  0  0  0  0  0  0
  191.4200  177.1300  139.6510 C   0  0  0  0  0  1  0  0  0  0  0  0
  190.7200  176.3010  138.6740 N   0  0  0  0  0  0  0  0  0  0  0  0
  191.7150  175.4890  137.9850 C   0  0  0  0  0  2  0  0  0  0  0  0
  193.5730  176.2690  136.5170 C   0  0  0  0  0  1  0  0  0  0  0  0
  193.0500  176.2140  137.9410 C   0  0  0  0  0  2  0  0  0  0  0  0
  186.1040  178.5740  144.6680 N   0  0  0  0  0  2  0  0  0  0  0  0
  185.8550  179.4410  147.0210 C   0  0  0  0  0  2  0  0  0  0  0  0
  186.1990  178.2890  146.1050 C   0  0  0  0  0  0  0  0  0  0  0  0
  184.9100  178.2430  146.8930 C   0  0  0  0  0  2  0  0  0  0  0  0
  187.3370  177.3930  146.5840 C   0  0  2  0  0  3  0  0  0  0  0  0
  187.2940  177.3070  147.9780 O   0  0  0  0  0  1  0  0  0  0  0  0
  191.4710  176.6720  146.0700 C   0  0  0  0  0  2  0  0  0  0  0  0
  189.6950  177.9680  147.3100 C   0  0  0  0  0  2  0  0  0  0  0  0
  190.7560  177.2100  144.8200 C   0  0  2  0  0  3  0  0  0  0  0  0
  188.7060  177.9120  146.1290 C   0  0  1  0  0  3  0  0  0  0  0  0
  189.2390  177.0910  144.9410 C   0  0  0  0  0  2  0  0  0  0  0  0
  190.6160  176.7500  147.3400 C   0  0  0  0  0  2  0  0  0  0  0  0
  191.3260  176.3510  143.3380 S   0  0  0  0  0  3  0  0  0  0  0  0
  190.0530  175.7950  142.7130 O   0  0  0  0  0  1  0  0  0  0  0  0
  192.1060  174.9650  143.9450 O   0  0  0  0  0  1  0  0  0  0  0  0
  1  8  2  0  0  0  0
  1 31  1  0  0  0  0
  2  1  1  0  0  0  0
  3 10  2  0  0  0  0
  4  6  1  0  0  0  0
  4 10  1  0  0  0  0
  5  6  1  0  0  0  0
  5  2  1  0  0  0  0
  6  9  2  0  0  0  0
  7  5  2  0  0  0  0
  9 12  1  0  0  0  0
  9  8  1  0  0  0  0
 10 12  1  0  0  0  0
 11  7  2  0  0  0  0
 13 11  1  0  0  0  0
 14 13  1  1  0  0  0
 16 14  1  0  0  0  0
 16 15  1  0  0  0  0
 17 14  1  0  0  0  0
 17 18  1  0  0  0  0
 18 25  1  0  0  0  0
 20 19  2  0  0  0  0
 21 20  1  0  0  0  0
 21 27  1  1  0  0  0
 22 23  1  0  0  0  0
 22 21  1  0  0  0  0
 23 25  1  0  0  0  0
 24 20  1  0  0  0  0
 25 24  2  0  0  0  0
 27 26  1  0  0  0  0
 28 27  1  0  0  0  0
 29 30  1  0  0  0  0
 30 28  1  0  0  0  0
 31 33  1  0  0  0  0
 33 35  1  0  0  0  0
 33 34  1  0  0  0  0
 33 32  1  0  0  0  0
 34 32  1  0  0  0  0
 35 36  1  1  0  0  0
 37 42  1  0  0  0  0
 38 42  1  0  0  0  0
 39 43  1  6  0  0  0
 39 41  1  0  0  0  0
 39 37  1  0  0  0  0
 40 35  1  1  0  0  0
 40 38  1  0  0  0  0
 41 40  1  0  0  0  0
 43 45  1  0  0  0  0
 44 43  1  0  0  0  0
M  END
>  <MODEL>
9

>  <REMARK>
 VINA RESULT:      -7.5      3.079      6.610
  Name = 
  14 active torsions:
  status: ('A' for Active; 'I' for Inactive)
    1  A    between atoms: C_3  and  N_32
    2  A    between atoms: C_5  and  N_31
    3  A    between atoms: C_6  and  C_24
    4  A    between atoms: C_6  and  N_31
    5  A    between atoms: S_12  and  C_14
    6  A    between atoms: C_15  and  C_25
    7  A    between atoms: C_15  and  C_28
    8  A    between atoms: N_18  and  C_29
    9  A    between atoms: N_18  and  C_39
   10  A    between atoms: C_23  and  C_29
   11  A    between atoms: C_23  and  C_38
   12  A    between atoms: C_25  and  N_32
   13  A    between atoms: C_29  and  O_36
   14  A    between atoms: C_39  and  C_43
                            x       y       z     vdW  Elec       q    Type
                         _______ _______ _______ _____ _____    ______ ____

>  <TORSDO>
F 14

$$$$
