=
 OpenBabel10222419553D

 37 41  0  0  1  0  0  0  0  0999 V2000
  180.7610  179.1130  142.5980 C   0  0  0  0  0  0  0  0  0  0  0  0
  186.1970  178.2090  144.8290 C   0  0  0  0  0  0  0  0  0  0  0  0
  185.8930  178.4410  146.2610 C   0  0  0  0  0  3  0  0  0  0  0  0
  184.8560  177.8340  141.8440 C   0  0  0  0  0  2  0  0  0  0  0  0
  179.8810  177.0610  141.3700 C   0  0  0  0  0  2  0  0  0  0  0  0
  184.7590  179.0690  146.4170 N   0  0  0  0  0  0  0  0  0  0  0  0
  180.4900  180.1080  143.3220 O   0  0  0  0  0  0  0  0  0  0  0  0
  179.7040  177.3360  139.8830 C   0  0  1  0  0  3  0  0  0  0  0  0
  183.0330  179.3070  144.6510 C   0  0  0  0  0  3  0  0  0  0  0  0
  181.0320  177.5800  139.1460 C   0  0  2  0  0  0  0  0  0  0  0  0
  183.1290  178.8930  143.2290 C   0  0  0  0  0  0  0  0  0  0  0  0
  183.7980  177.5180  140.8110 C   0  0  0  0  0  2  0  0  0  0  0  0
  185.2190  178.7800  144.1540 C   0  0  0  0  0  0  0  0  0  0  0  0
  184.4930  178.4760  142.9460 C   0  0  0  0  0  0  0  0  0  0  0  0
  181.7970  176.4230  139.1590 F   0  0  0  0  0  0  0  0  0  0  0  0
  178.9310  176.1860  139.2590 C   0  0  0  0  0  1  0  0  0  0  0  0
  184.2920  179.2870  145.0960 C   0  0  0  0  0  0  0  0  0  0  0  0
  182.1730  178.7850  142.2980 C   0  0  2  0  0  3  0  0  0  0  0  0
  181.8020  178.7510  139.8070 C   0  0  1  0  0  3  0  0  0  0  0  0
  180.7380  177.8940  137.8150 O   0  0  0  0  0  1  0  0  0  0  0  0
  179.6890  178.2920  142.1250 N   0  0  0  0  0  2  0  0  0  0  0  0
  182.5750  178.3350  140.9830 N   0  0  1  0  0  0  0  0  0  0  0  0
  181.8910  180.0290  137.7410 O   0  0  0  0  0  0  0  0  0  0  0  0
  182.6390  179.6250  138.8630 C   0  0  1  0  0  0  0  0  0  0  0  0
  182.1990  181.0290  138.6840 C   0  0  0  0  0  2  0  0  0  0  0  0
  184.0560  179.2100  138.4570 C   0  0  0  0  0  2  0  0  0  0  0  0
  184.0820  178.0510  137.4640 C   0  0  0  0  0  2  0  0  0  0  0  0
  185.3840  177.8260  137.0120 O   0  0  0  0  0  0  0  0  0  0  0  0
  186.1980  178.1020  138.1080 C   0  0  0  0  0  2  0  0  0  0  0  0
  187.4610  177.3830  137.9660 N   0  0  0  0  0  2  0  0  0  0  0  0
  188.6910  179.3920  137.9290 O   0  0  0  0  0  1  0  0  0  0  0  0
  188.5560  178.1520  138.5610 C   0  0  1  0  0  3  0  0  0  0  0  0
  188.3780  178.3370  140.0660 C   0  0  0  0  0  2  0  0  0  0  0  0
  190.2200  176.7870  140.2220 N   0  0  0  0  0  2  0  0  0  0  0  0
  189.4230  177.5870  140.8280 C   0  0  0  0  0  3  0  0  0  0  0  0
  187.1010  177.2170  144.3160 C   0  0  0  0  0  0  0  0  0  0  0  0
  187.8620  176.3870  143.8850 C   0  0  0  0  0  3  0  0  0  0  0  0
  1  7  2  0  0  0  0
  2  3  1  0  0  0  0
  3  6  2  0  0  0  0
  4 14  1  0  0  0  0
  5 21  1  0  0  0  0
  8 16  1  6  0  0  0
  8  5  1  0  0  0  0
  9 17  2  0  0  0  0
 10 20  1  6  0  0  0
 10 15  1  0  0  0  0
 10 19  1  0  0  0  0
 10  8  1  0  0  0  0
 11  9  1  0  0  0  0
 12  4  1  0  0  0  0
 13  2  2  0  0  0  0
 13 17  1  0  0  0  0
 14 11  2  0  0  0  0
 14 13  1  0  0  0  0
 17  6  1  0  0  0  0
 18  1  1  6  0  0  0
 18 11  1  0  0  0  0
 19 24  1  6  0  0  0
 19 22  1  0  0  0  0
 21  1  1  0  0  0  0
 22 12  1  6  0  0  0
 22 18  1  0  0  0  0
 23 25  1  0  0  0  0
 23 24  1  0  0  0  0
 24 26  1  6  0  0  0
 25 24  1  0  0  0  0
 27 26  1  0  0  0  0
 28 27  1  0  0  0  0
 28 29  1  0  0  0  0
 30 29  1  0  0  0  0
 30 32  1  0  0  0  0
 32 31  1  6  0  0  0
 32 33  1  0  0  0  0
 33 35  1  0  0  0  0
 34 35  2  0  0  0  0
 36  2  1  0  0  0  0
 37 36  3  0  0  0  0
M  END
>  <MODEL>
1

>  <REMARK>
 VINA RESULT:      -7.3      0.000      0.000
  Name = 
  10 active torsions:
  status: ('A' for Active; 'I' for Inactive)
    1  A    between atoms: O_3  and  C_11
    2  A    between atoms: O_3  and  C_22
    3  A    between atoms: N_4  and  C_11
    4  A    between atoms: N_4  and  C_36
    5  A    between atoms: C_5  and  C_7
    6  A    between atoms: C_14  and  C_36
    7  A    between atoms: C_14  and  C_37
    8  A    between atoms: C_22  and  C_29
    9  A    between atoms: C_29  and  C_32
   10  A    between atoms: C_30  and  C_32
                            x       y       z     vdW  Elec       q    Type
                         _______ _______ _______ _____ _____    ______ ____

>  <TORSDO>
F 10

$$$$
=
 OpenBabel10222419553D

 37 41  0  0  1  0  0  0  0  0999 V2000
  180.1350  178.3130  142.1300 C   0  0  0  0  0  0  0  0  0  0  0  0
  185.6390  178.5300  144.3640 C   0  0  0  0  0  0  0  0  0  0  0  0
  185.2950  178.7040  145.7950 C   0  0  0  0  0  3  0  0  0  0  0  0
  184.4030  177.8790  141.3810 C   0  0  0  0  0  2  0  0  0  0  0  0
  179.6850  176.1200  140.9130 C   0  0  0  0  0  2  0  0  0  0  0  0
  184.0570  179.0930  145.9480 N   0  0  0  0  0  0  0  0  0  0  0  0
  179.6690  179.2380  142.8490 O   0  0  0  0  0  0  0  0  0  0  0  0
  179.4570  176.3470  139.4250 C   0  0  1  0  0  3  0  0  0  0  0  0
  182.3200  178.9700  144.1820 C   0  0  0  0  0  3  0  0  0  0  0  0
  180.7100  176.8480  138.6860 C   0  0  2  0  0  0  0  0  0  0  0  0
  182.4980  178.5760  142.7610 C   0  0  0  0  0  0  0  0  0  0  0  0
  183.4310  177.3520  140.3510 C   0  0  0  0  0  2  0  0  0  0  0  0
  184.5680  178.8900  143.6870 C   0  0  0  0  0  0  0  0  0  0  0  0
  183.9180  178.4400  142.4810 C   0  0  0  0  0  0  0  0  0  0  0  0
  181.6910  175.8690  138.7050 F   0  0  0  0  0  0  0  0  0  0  0  0
  178.9310  175.0610  138.8070 C   0  0  0  0  0  1  0  0  0  0  0  0
  183.5570  179.2060  144.6260 C   0  0  0  0  0  0  0  0  0  0  0  0
  181.5840  178.2740  141.8320 C   0  0  2  0  0  3  0  0  0  0  0  0
  181.2290  178.1530  139.3400 C   0  0  1  0  0  3  0  0  0  0  0  0
  180.3600  177.0900  137.3540 O   0  0  0  0  0  1  0  0  0  0  0  0
  179.2500  177.2910  141.6620 N   0  0  0  0  0  2  0  0  0  0  0  0
  182.0690  177.9070  140.5180 N   0  0  1  0  0  0  0  0  0  0  0  0
  180.9870  180.2230  138.0890 O   0  0  0  0  0  0  0  0  0  0  0  0
  181.8740  179.1720  138.3920 C   0  0  1  0  0  0  0  0  0  0  0  0
  182.0790  180.5430  138.9200 C   0  0  0  0  0  2  0  0  0  0  0  0
  182.6290  178.7140  137.1410 C   0  0  0  0  0  2  0  0  0  0  0  0
  183.9090  177.9480  137.4570 C   0  0  0  0  0  2  0  0  0  0  0  0
  184.0730  176.8840  136.5680 O   0  0  0  0  0  0  0  0  0  0  0  0
  185.0910  176.1090  137.1190 C   0  0  0  0  0  2  0  0  0  0  0  0
  186.2210  176.9670  137.4610 N   0  0  0  0  0  2  0  0  0  0  0  0
  187.6270  176.8980  135.5720 O   0  0  0  0  0  1  0  0  0  0  0  0
  187.4580  176.4380  136.8810 C   0  0  1  0  0  3  0  0  0  0  0  0
  188.6820  176.7800  137.7280 C   0  0  0  0  0  2  0  0  0  0  0  0
  188.7880  178.8630  138.9400 N   0  0  0  0  0  2  0  0  0  0  0  0
  188.3150  177.6740  138.8680 C   0  0  0  0  0  3  0  0  0  0  0  0
  186.7250  177.7370  143.8560 C   0  0  0  0  0  0  0  0  0  0  0  0
  187.6350  177.0700  143.4330 C   0  0  0  0  0  3  0  0  0  0  0  0
  1  7  2  0  0  0  0
  2  3  1  0  0  0  0
  3  6  2  0  0  0  0
  4 14  1  0  0  0  0
  5 21  1  0  0  0  0
  8 16  1  6  0  0  0
  8  5  1  0  0  0  0
  9 17  2  0  0  0  0
 10 20  1  6  0  0  0
 10 15  1  0  0  0  0
 10 19  1  0  0  0  0
 10  8  1  0  0  0  0
 11  9  1  0  0  0  0
 12  4  1  0  0  0  0
 13  2  2  0  0  0  0
 13 17  1  0  0  0  0
 14 11  2  0  0  0  0
 14 13  1  0  0  0  0
 17  6  1  0  0  0  0
 18  1  1  6  0  0  0
 18 11  1  0  0  0  0
 19 24  1  6  0  0  0
 19 22  1  0  0  0  0
 21  1  1  0  0  0  0
 22 12  1  6  0  0  0
 22 18  1  0  0  0  0
 23 24  1  0  0  0  0
 23 25  1  0  0  0  0
 24 26  1  6  0  0  0
 24 25  1  0  0  0  0
 26 27  1  0  0  0  0
 28 29  1  0  0  0  0
 28 27  1  0  0  0  0
 29 30  1  0  0  0  0
 32 31  1  6  0  0  0
 32 30  1  0  0  0  0
 32 33  1  0  0  0  0
 33 35  1  0  0  0  0
 35 34  2  0  0  0  0
 36  2  1  0  0  0  0
 37 36  3  0  0  0  0
M  END
>  <MODEL>
2

>  <REMARK>
 VINA RESULT:      -6.5      1.282      1.460
  Name = 
  10 active torsions:
  status: ('A' for Active; 'I' for Inactive)
    1  A    between atoms: O_3  and  C_11
    2  A    between atoms: O_3  and  C_22
    3  A    between atoms: N_4  and  C_11
    4  A    between atoms: N_4  and  C_36
    5  A    between atoms: C_5  and  C_7
    6  A    between atoms: C_14  and  C_36
    7  A    between atoms: C_14  and  C_37
    8  A    between atoms: C_22  and  C_29
    9  A    between atoms: C_29  and  C_32
   10  A    between atoms: C_30  and  C_32
                            x       y       z     vdW  Elec       q    Type
                         _______ _______ _______ _____ _____    ______ ____

>  <TORSDO>
F 10

$$$$
=
 OpenBabel10222419553D

 37 41  0  0  1  0  0  0  0  0999 V2000
  181.5250  178.0010  136.2170 C   0  0  0  0  0  0  0  0  0  0  0  0
  187.3010  176.9070  137.0980 C   0  0  0  0  0  0  0  0  0  0  0  0
  187.6240  176.3220  135.7740 C   0  0  0  0  0  3  0  0  0  0  0  0
  184.9790  178.4770  138.8270 C   0  0  0  0  0  2  0  0  0  0  0  0
  180.9730  180.4750  136.4760 C   0  0  0  0  0  2  0  0  0  0  0  0
  186.5450  175.9530  135.1360 N   0  0  0  0  0  0  0  0  0  0  0  0
  181.2810  176.9220  135.6140 O   0  0  0  0  0  0  0  0  0  0  0  0
  180.0530  180.7180  137.6640 C   0  0  1  0  0  3  0  0  0  0  0  0
  184.2480  176.6720  135.7320 C   0  0  0  0  0  3  0  0  0  0  0  0
  180.7170  180.4160  139.0200 C   0  0  2  0  0  0  0  0  0  0  0  0
  183.8240  177.4690  136.9100 C   0  0  0  0  0  0  0  0  0  0  0  0
  183.7560  179.3280  139.0830 C   0  0  0  0  0  2  0  0  0  0  0  0
  185.9930  176.8100  137.2270 C   0  0  0  0  0  0  0  0  0  0  0  0
  184.9570  177.6290  137.8080 C   0  0  0  0  0  0  0  0  0  0  0  0
  181.7570  181.3050  139.2430 F   0  0  0  0  0  0  0  0  0  0  0  0
  179.5440  182.1500  137.6080 C   0  0  0  0  0  1  0  0  0  0  0  0
  185.4850  176.2650  136.0240 C   0  0  0  0  0  0  0  0  0  0  0  0
  182.6580  178.0740  137.1660 C   0  0  2  0  0  3  0  0  0  0  0  0
  181.2320  178.9550  139.0470 C   0  0  1  0  0  3  0  0  0  0  0  0
  179.7590  180.6020  140.0220 O   0  0  0  0  0  1  0  0  0  0  0  0
  180.7250  179.1500  135.9230 N   0  0  0  0  0  2  0  0  0  0  0  0
  182.5460  178.8010  138.4120 N   0  0  1  0  0  0  0  0  0  0  0  0
  179.8650  177.8430  140.7210 O   0  0  0  0  0  0  0  0  0  0  0  0
  181.1770  178.2460  140.4060 C   0  0  1  0  0  0  0  0  0  0  0  0
  180.7770  176.8190  140.4020 C   0  0  0  0  0  2  0  0  0  0  0  0
  181.8760  178.8410  141.6320 C   0  0  0  0  0  2  0  0  0  0  0  0
  180.9230  179.1280  142.7880 C   0  0  0  0  0  2  0  0  0  0  0  0
  181.4890  178.7230  143.9990 O   0  0  0  0  0  0  0  0  0  0  0  0
  182.8280  179.0950  143.9120 C   0  0  0  0  0  2  0  0  0  0  0  0
  183.4530  178.9630  145.2250 N   0  0  0  0  0  2  0  0  0  0  0  0
  185.4640  179.2840  146.4090 O   0  0  0  0  0  1  0  0  0  0  0  0
  184.8900  179.2320  145.1360 C   0  0  1  0  0  3  0  0  0  0  0  0
  185.6140  178.2070  144.2670 C   0  0  0  0  0  2  0  0  0  0  0  0
  187.6060  176.8530  144.3920 N   0  0  0  0  0  2  0  0  0  0  0  0
  186.9420  177.8480  144.8510 C   0  0  0  0  0  3  0  0  0  0  0  0
  188.1570  177.7740  137.8590 C   0  0  0  0  0  0  0  0  0  0  0  0
  188.8790  178.5000  138.4970 C   0  0  0  0  0  3  0  0  0  0  0  0
  2 13  1  0  0  0  0
  2 36  1  0  0  0  0
  3  2  2  0  0  0  0
  4 12  1  0  0  0  0
  5  8  1  0  0  0  0
  6  3  1  0  0  0  0
  6 17  2  0  0  0  0
  7  1  2  0  0  0  0
  8 16  1  1  0  0  0
  8 10  1  0  0  0  0
  9 17  1  0  0  0  0
  9 11  2  0  0  0  0
 10 19  1  0  0  0  0
 10 15  1  1  0  0  0
 10 20  1  0  0  0  0
 11 18  1  0  0  0  0
 11 14  1  0  0  0  0
 13 14  2  0  0  0  0
 14  4  1  0  0  0  0
 17 13  1  0  0  0  0
 18  1  1  1  0  0  0
 18 22  1  0  0  0  0
 19 24  1  1  0  0  0
 21  1  1  0  0  0  0
 21  5  1  0  0  0  0
 22 19  1  0  0  0  0
 22 12  1  1  0  0  0
 24 23  1  0  0  0  0
 24 26  1  1  0  0  0
 25 24  1  0  0  0  0
 25 23  1  0  0  0  0
 26 27  1  0  0  0  0
 27 28  1  0  0  0  0
 29 28  1  0  0  0  0
 29 30  1  0  0  0  0
 32 30  1  0  0  0  0
 32 31  1  1  0  0  0
 33 35  1  0  0  0  0
 33 32  1  0  0  0  0
 34 35  2  0  0  0  0
 36 37  3  0  0  0  0
M  END
>  <MODEL>
3

>  <REMARK>
 VINA RESULT:      -6.1      2.607      6.446
  Name = 
  10 active torsions:
  status: ('A' for Active; 'I' for Inactive)
    1  A    between atoms: O_3  and  C_11
    2  A    between atoms: O_3  and  C_22
    3  A    between atoms: N_4  and  C_11
    4  A    between atoms: N_4  and  C_36
    5  A    between atoms: C_5  and  C_7
    6  A    between atoms: C_14  and  C_36
    7  A    between atoms: C_14  and  C_37
    8  A    between atoms: C_22  and  C_29
    9  A    between atoms: C_29  and  C_32
   10  A    between atoms: C_30  and  C_32
                            x       y       z     vdW  Elec       q    Type
                         _______ _______ _______ _____ _____    ______ ____

>  <TORSDO>
F 10

$$$$
=
 OpenBabel10222419553D

 37 41  0  0  1  0  0  0  0  0999 V2000
  180.6340  178.9270  142.4720 C   0  0  0  0  0  0  0  0  0  0  0  0
  186.1090  178.2990  144.7010 C   0  0  0  0  0  0  0  0  0  0  0  0
  185.7980  178.5360  146.1310 C   0  0  0  0  0  3  0  0  0  0  0  0
  184.7810  177.8250  141.7240 C   0  0  0  0  0  2  0  0  0  0  0  0
  179.8450  176.8220  141.2730 C   0  0  0  0  0  2  0  0  0  0  0  0
  184.6370  179.1140  146.2810 N   0  0  0  0  0  0  0  0  0  0  0  0
  180.3200  179.9190  143.1840 O   0  0  0  0  0  0  0  0  0  0  0  0
  179.6520  177.0700  139.7830 C   0  0  1  0  0  3  0  0  0  0  0  0
  182.8990  179.2500  144.5170 C   0  0  0  0  0  3  0  0  0  0  0  0
  180.9670  177.3630  139.0390 C   0  0  2  0  0  0  0  0  0  0  0  0
  183.0100  178.8230  143.1000 C   0  0  0  0  0  0  0  0  0  0  0  0
  183.7360  177.4480  140.6990 C   0  0  0  0  0  2  0  0  0  0  0  0
  185.1050  178.8160  144.0220 C   0  0  0  0  0  0  0  0  0  0  0  0
  184.3910  178.4640  142.8200 C   0  0  0  0  0  0  0  0  0  0  0  0
  181.7830  176.2430  139.0660 F   0  0  0  0  0  0  0  0  0  0  0  0
  178.9310  175.8780  139.1750 C   0  0  0  0  0  1  0  0  0  0  0  0
  184.1580  179.2930  144.9590 C   0  0  0  0  0  0  0  0  0  0  0  0
  182.0580  178.6590  142.1740 C   0  0  2  0  0  3  0  0  0  0  0  0
  181.6850  178.5760  139.6830 C   0  0  1  0  0  3  0  0  0  0  0  0
  180.6560  177.6460  137.7050 O   0  0  0  0  0  1  0  0  0  0  0  0
  179.5990  178.0530  142.0130 N   0  0  0  0  0  2  0  0  0  0  0  0
  182.4780  178.2110  140.8630 N   0  0  1  0  0  0  0  0  0  0  0  0
  181.6550  180.0000  137.7140 O   0  0  0  0  0  0  0  0  0  0  0  0
  182.4790  179.4750  138.7270 C   0  0  1  0  0  0  0  0  0  0  0  0
  182.1070  180.9090  138.6900 C   0  0  0  0  0  2  0  0  0  0  0  0
  183.8260  179.0190  138.1560 C   0  0  0  0  0  2  0  0  0  0  0  0
  183.6890  177.9810  137.0460 C   0  0  0  0  0  2  0  0  0  0  0  0
  184.9460  177.6170  136.5620 O   0  0  0  0  0  0  0  0  0  0  0  0
  185.3400  176.5420  137.3550 C   0  0  0  0  0  2  0  0  0  0  0  0
  184.2960  175.5220  137.3410 N   0  0  0  0  0  2  0  0  0  0  0  0
  184.4060  173.2200  136.8500 O   0  0  0  0  0  1  0  0  0  0  0  0
  184.5900  174.5050  136.3290 C   0  0  1  0  0  3  0  0  0  0  0  0
  183.7530  174.6910  135.0660 C   0  0  0  0  0  2  0  0  0  0  0  0
  181.9180  173.1510  135.3540 N   0  0  0  0  0  2  0  0  0  0  0  0
  182.9990  173.4440  134.7300 C   0  0  0  0  0  3  0  0  0  0  0  0
  187.0560  177.3420  144.1990 C   0  0  0  0  0  0  0  0  0  0  0  0
  187.8520  176.5390  143.7810 C   0  0  0  0  0  3  0  0  0  0  0  0
  1  7  2  0  0  0  0
  2  3  1  0  0  0  0
  3  6  2  0  0  0  0
  4 14  1  0  0  0  0
  5 21  1  0  0  0  0
  8 16  1  6  0  0  0
  8  5  1  0  0  0  0
  9 17  2  0  0  0  0
 10 20  1  6  0  0  0
 10 15  1  0  0  0  0
 10 19  1  0  0  0  0
 10  8  1  0  0  0  0
 11  9  1  0  0  0  0
 12  4  1  0  0  0  0
 13  2  2  0  0  0  0
 13 17  1  0  0  0  0
 14 11  2  0  0  0  0
 14 13  1  0  0  0  0
 17  6  1  0  0  0  0
 18  1  1  6  0  0  0
 18 11  1  0  0  0  0
 19 24  1  6  0  0  0
 19 22  1  0  0  0  0
 21  1  1  0  0  0  0
 22 12  1  6  0  0  0
 22 18  1  0  0  0  0
 23 25  1  0  0  0  0
 23 24  1  0  0  0  0
 24 26  1  6  0  0  0
 25 24  1  0  0  0  0
 27 26  1  0  0  0  0
 28 27  1  0  0  0  0
 28 29  1  0  0  0  0
 30 29  1  0  0  0  0
 32 31  1  1  0  0  0
 32 30  1  0  0  0  0
 33 32  1  0  0  0  0
 35 33  1  0  0  0  0
 35 34  2  0  0  0  0
 36  2  1  0  0  0  0
 37 36  3  0  0  0  0
M  END
>  <MODEL>
4

>  <REMARK>
 VINA RESULT:      -5.6      2.071      3.174
  Name = 
  10 active torsions:
  status: ('A' for Active; 'I' for Inactive)
    1  A    between atoms: O_3  and  C_11
    2  A    between atoms: O_3  and  C_22
    3  A    between atoms: N_4  and  C_11
    4  A    between atoms: N_4  and  C_36
    5  A    between atoms: C_5  and  C_7
    6  A    between atoms: C_14  and  C_36
    7  A    between atoms: C_14  and  C_37
    8  A    between atoms: C_22  and  C_29
    9  A    between atoms: C_29  and  C_32
   10  A    between atoms: C_30  and  C_32
                            x       y       z     vdW  Elec       q    Type
                         _______ _______ _______ _____ _____    ______ ____

>  <TORSDO>
F 10

$$$$
=
 OpenBabel10222419553D

 37 41  0  0  1  0  0  0  0  0999 V2000
  189.0820  174.3300  137.0680 C   0  0  0  0  0  0  0  0  0  0  0  0
  194.9430  174.0300  136.1180 C   0  0  0  0  0  0  0  0  0  0  0  0
  194.9760  172.7870  135.3100 C   0  0  0  0  0  3  0  0  0  0  0  0
  192.9550  176.2840  137.4660 C   0  0  0  0  0  2  0  0  0  0  0  0
  188.0760  176.4830  136.1500 C   0  0  0  0  0  2  0  0  0  0  0  0
  193.8720  172.1020  135.4370 N   0  0  0  0  0  0  0  0  0  0  0  0
  188.9250  173.0980  137.2840 O   0  0  0  0  0  0  0  0  0  0  0  0
  187.5290  177.3610  137.2660 C   0  0  1  0  0  3  0  0  0  0  0  0
  191.7610  173.0030  136.3770 C   0  0  0  0  0  3  0  0  0  0  0  0
  188.6220  177.9150  138.1970 C   0  0  2  0  0  0  0  0  0  0  0  0
  191.5410  174.3320  137.0000 C   0  0  0  0  0  0  0  0  0  0  0  0
  191.7040  177.1080  137.6700 C   0  0  0  0  0  2  0  0  0  0  0  0
  193.7950  174.0100  136.7650 C   0  0  0  0  0  0  0  0  0  0  0  0
  192.8230  174.9990  137.1600 C   0  0  0  0  0  0  0  0  0  0  0  0
  189.4450  178.7810  137.4940 F   0  0  0  0  0  0  0  0  0  0  0  0
  186.7090  178.4850  136.6510 C   0  0  0  0  0  1  0  0  0  0  0  0
  193.0880  172.8590  136.3440 C   0  0  0  0  0  0  0  0  0  0  0  0
  190.4000  174.9570  137.3130 C   0  0  2  0  0  3  0  0  0  0  0  0
  189.4460  176.7510  138.8030 C   0  0  1  0  0  3  0  0  0  0  0  0
  187.9960  178.6380  139.2180 O   0  0  0  0  0  1  0  0  0  0  0  0
  187.9870  175.0810  136.5370 N   0  0  0  0  0  2  0  0  0  0  0  0
  190.5050  176.2730  137.9070 N   0  0  1  0  0  0  0  0  0  0  0  0
  190.9380  176.0030  140.5700 O   0  0  0  0  0  0  0  0  0  0  0  0
  189.9700  176.9670  140.2280 C   0  0  1  0  0  0  0  0  0  0  0  0
  191.4030  177.3170  140.3700 C   0  0  0  0  0  2  0  0  0  0  0  0
  189.0050  177.2100  141.3930 C   0  0  0  0  0  2  0  0  0  0  0  0
  189.2930  176.3330  142.6070 C   0  0  0  0  0  2  0  0  0  0  0  0
  188.1050  176.0040  143.2640 O   0  0  0  0  0  0  0  0  0  0  0  0
  187.8930  177.0430  144.1660 C   0  0  0  0  0  2  0  0  0  0  0  0
  189.1220  177.2930  144.9130 N   0  0  0  0  0  2  0  0  0  0  0  0
  187.4770  177.4510  146.5930 O   0  0  0  0  0  1  0  0  0  0  0  0
  188.8110  177.7270  146.2770 C   0  0  1  0  0  3  0  0  0  0  0  0
  189.7430  177.0970  147.3080 C   0  0  0  0  0  2  0  0  0  0  0  0
  192.0550  176.4200  147.4420 N   0  0  0  0  0  2  0  0  0  0  0  0
  191.0650  176.7520  146.6990 C   0  0  0  0  0  3  0  0  0  0  0  0
  195.7640  175.1900  135.9020 C   0  0  0  0  0  0  0  0  0  0  0  0
  196.4490  176.1640  135.7180 C   0  0  0  0  0  3  0  0  0  0  0  0
  1  7  2  0  0  0  0
  1 18  1  0  0  0  0
  2 13  1  0  0  0  0
  3  6  1  0  0  0  0
  3  2  2  0  0  0  0
  4 12  1  0  0  0  0
  5 21  1  0  0  0  0
  5  8  1  0  0  0  0
  6 17  2  0  0  0  0
  8 16  1  6  0  0  0
  8 10  1  0  0  0  0
  9 11  2  0  0  0  0
 10 15  1  6  0  0  0
 10 19  1  0  0  0  0
 10 20  1  0  0  0  0
 11 14  1  0  0  0  0
 13 14  2  0  0  0  0
 14  4  1  0  0  0  0
 17  9  1  0  0  0  0
 17 13  1  0  0  0  0
 18 11  1  1  0  0  0
 18 22  1  0  0  0  0
 19 24  1  1  0  0  0
 21  1  1  0  0  0  0
 22 12  1  1  0  0  0
 22 19  1  0  0  0  0
 24 25  1  0  0  0  0
 24 23  1  0  0  0  0
 24 26  1  1  0  0  0
 25 23  1  0  0  0  0
 26 27  1  0  0  0  0
 27 28  1  0  0  0  0
 28 29  1  0  0  0  0
 29 30  1  0  0  0  0
 30 32  1  0  0  0  0
 32 31  1  1  0  0  0
 32 33  1  0  0  0  0
 35 33  1  0  0  0  0
 35 34  2  0  0  0  0
 36  2  1  0  0  0  0
 37 36  3  0  0  0  0
M  END
>  <MODEL>
5

>  <REMARK>
 VINA RESULT:      -5.5      5.328     10.041
  Name = 
  10 active torsions:
  status: ('A' for Active; 'I' for Inactive)
    1  A    between atoms: O_3  and  C_11
    2  A    between atoms: O_3  and  C_22
    3  A    between atoms: N_4  and  C_11
    4  A    between atoms: N_4  and  C_36
    5  A    between atoms: C_5  and  C_7
    6  A    between atoms: C_14  and  C_36
    7  A    between atoms: C_14  and  C_37
    8  A    between atoms: C_22  and  C_29
    9  A    between atoms: C_29  and  C_32
   10  A    between atoms: C_30  and  C_32
                            x       y       z     vdW  Elec       q    Type
                         _______ _______ _______ _____ _____    ______ ____

>  <TORSDO>
F 10

$$$$
=
 OpenBabel10222419553D

 37 41  0  0  1  0  0  0  0  0999 V2000
  189.1360  174.3090  136.8810 C   0  0  0  0  0  0  0  0  0  0  0  0
  194.9800  173.6040  136.0510 C   0  0  0  0  0  0  0  0  0  0  0  0
  194.9430  172.3720  135.2270 C   0  0  0  0  0  3  0  0  0  0  0  0
  193.1280  175.9760  137.3890 C   0  0  0  0  0  2  0  0  0  0  0  0
  188.3070  176.5410  135.9730 C   0  0  0  0  0  2  0  0  0  0  0  0
  193.7900  171.7660  135.3200 N   0  0  0  0  0  0  0  0  0  0  0  0
  188.8870  173.0900  137.0770 O   0  0  0  0  0  0  0  0  0  0  0  0
  187.7990  177.4410  137.0900 C   0  0  1  0  0  3  0  0  0  0  0  0
  191.7290  172.8030  136.2290 C   0  0  0  0  0  3  0  0  0  0  0  0
  188.9080  177.9040  138.0510 C   0  0  2  0  0  0  0  0  0  0  0  0
  191.5900  174.1370  136.8660 C   0  0  0  0  0  0  0  0  0  0  0  0
  191.9360  176.8860  137.5780 C   0  0  0  0  0  2  0  0  0  0  0  0
  193.8200  173.6580  136.6740 C   0  0  0  0  0  0  0  0  0  0  0  0
  192.9130  174.7090  137.0620 C   0  0  0  0  0  0  0  0  0  0  0  0
  189.8050  178.7180  137.3780 F   0  0  0  0  0  0  0  0  0  0  0  0
  187.0750  178.6280  136.4740 C   0  0  0  0  0  1  0  0  0  0  0  0
  193.0420  172.5650  136.2210 C   0  0  0  0  0  0  0  0  0  0  0  0
  190.4900  174.8370  137.1640 C   0  0  2  0  0  3  0  0  0  0  0  0
  189.6330  176.6760  138.6580 C   0  0  1  0  0  3  0  0  0  0  0  0
  188.3130  178.6560  139.0690 O   0  0  0  0  0  1  0  0  0  0  0  0
  188.1090  175.1440  136.3380 N   0  0  0  0  0  2  0  0  0  0  0  0
  190.6750  176.1350  137.7770 N   0  0  1  0  0  0  0  0  0  0  0  0
  191.2810  176.0460  140.3300 O   0  0  0  0  0  0  0  0  0  0  0  0
  190.1390  176.8360  140.0970 C   0  0  1  0  0  0  0  0  0  0  0  0
  191.4820  177.4390  140.2730 C   0  0  0  0  0  2  0  0  0  0  0  0
  189.1730  176.7640  141.2830 C   0  0  0  0  0  2  0  0  0  0  0  0
  189.8320  176.2690  142.5670 C   0  0  0  0  0  2  0  0  0  0  0  0
  188.9460  176.3720  143.6410 O   0  0  0  0  0  0  0  0  0  0  0  0
  189.6850  176.9650  144.6630 C   0  0  0  0  0  2  0  0  0  0  0  0
  188.9040  178.0440  145.2610 N   0  0  0  0  0  2  0  0  0  0  0  0
  188.0820  178.1000  147.4680 O   0  0  0  0  0  1  0  0  0  0  0  0
  187.9310  177.5030  146.2130 C   0  0  1  0  0  3  0  0  0  0  0  0
  186.4950  177.6580  145.7180 C   0  0  0  0  0  2  0  0  0  0  0  0
  184.5560  179.0030  146.2190 N   0  0  0  0  0  2  0  0  0  0  0  0
  185.7500  178.6620  146.5370 C   0  0  0  0  0  3  0  0  0  0  0  0
  195.8860  174.7050  135.8700 C   0  0  0  0  0  0  0  0  0  0  0  0
  196.6490  175.6260  135.7180 C   0  0  0  0  0  3  0  0  0  0  0  0
  1  7  2  0  0  0  0
  1 18  1  0  0  0  0
  2 13  1  0  0  0  0
  3  6  1  0  0  0  0
  3  2  2  0  0  0  0
  4 12  1  0  0  0  0
  5 21  1  0  0  0  0
  5  8  1  0  0  0  0
  6 17  2  0  0  0  0
  8 16  1  6  0  0  0
  8 10  1  0  0  0  0
  9 11  2  0  0  0  0
 10 15  1  6  0  0  0
 10 19  1  0  0  0  0
 10 20  1  0  0  0  0
 11 14  1  0  0  0  0
 13 14  2  0  0  0  0
 14  4  1  0  0  0  0
 17  9  1  0  0  0  0
 17 13  1  0  0  0  0
 18 11  1  1  0  0  0
 18 22  1  0  0  0  0
 19 24  1  1  0  0  0
 21  1  1  0  0  0  0
 22 12  1  1  0  0  0
 22 19  1  0  0  0  0
 24 25  1  0  0  0  0
 24 23  1  0  0  0  0
 24 26  1  1  0  0  0
 25 23  1  0  0  0  0
 26 27  1  0  0  0  0
 27 28  1  0  0  0  0
 28 29  1  0  0  0  0
 29 30  1  0  0  0  0
 30 32  1  0  0  0  0
 32 31  1  1  0  0  0
 33 32  1  0  0  0  0
 33 35  1  0  0  0  0
 34 35  2  0  0  0  0
 36  2  1  0  0  0  0
 37 36  3  0  0  0  0
M  END
>  <MODEL>
6

>  <REMARK>
 VINA RESULT:      -5.4      5.167     10.278
  Name = 
  10 active torsions:
  status: ('A' for Active; 'I' for Inactive)
    1  A    between atoms: O_3  and  C_11
    2  A    between atoms: O_3  and  C_22
    3  A    between atoms: N_4  and  C_11
    4  A    between atoms: N_4  and  C_36
    5  A    between atoms: C_5  and  C_7
    6  A    between atoms: C_14  and  C_36
    7  A    between atoms: C_14  and  C_37
    8  A    between atoms: C_22  and  C_29
    9  A    between atoms: C_29  and  C_32
   10  A    between atoms: C_30  and  C_32
                            x       y       z     vdW  Elec       q    Type
                         _______ _______ _______ _____ _____    ______ ____

>  <TORSDO>
F 10

$$$$
=
 OpenBabel10222419553D

 37 41  0  0  1  0  0  0  0  0999 V2000
  179.6570  177.2330  140.5030 C   0  0  0  0  0  0  0  0  0  0  0  0
  184.6310  178.8810  143.3090 C   0  0  0  0  0  0  0  0  0  0  0  0
  184.0470  179.1970  144.6350 C   0  0  0  0  0  3  0  0  0  0  0  0
  183.9980  177.5520  140.3630 C   0  0  0  0  0  2  0  0  0  0  0  0
  179.7930  174.8370  139.6490 C   0  0  0  0  0  2  0  0  0  0  0  0
  182.7520  179.3490  144.5660 N   0  0  0  0  0  0  0  0  0  0  0  0
  178.9310  178.1440  140.9850 O   0  0  0  0  0  0  0  0  0  0  0  0
  179.7570  174.7850  138.1280 C   0  0  1  0  0  3  0  0  0  0  0  0
  181.3530  178.6160  142.6540 C   0  0  0  0  0  3  0  0  0  0  0  0
  180.9990  175.4090  137.4680 C   0  0  2  0  0  0  0  0  0  0  0  0
  181.8110  178.0560  141.3580 C   0  0  0  0  0  0  0  0  0  0  0  0
  183.3030  176.6920  139.3330 C   0  0  0  0  0  2  0  0  0  0  0  0
  183.6280  178.9130  142.4550 C   0  0  0  0  0  0  0  0  0  0  0  0
  183.2590  178.1650  141.2790 C   0  0  0  0  0  0  0  0  0  0  0  0
  182.1240  174.6600  137.7790 F   0  0  0  0  0  0  0  0  0  0  0  0
  179.5670  173.3420  137.6890 C   0  0  0  0  0  1  0  0  0  0  0  0
  182.4460  179.1590  143.1950 C   0  0  0  0  0  0  0  0  0  0  0  0
  181.1180  177.4390  140.3930 C   0  0  2  0  0  3  0  0  0  0  0  0
  181.1730  176.8750  137.9390 C   0  0  1  0  0  3  0  0  0  0  0  0
  180.8180  175.3710  136.0820 O   0  0  0  0  0  1  0  0  0  0  0  0
  179.0480  175.9960  140.1210 N   0  0  0  0  0  2  0  0  0  0  0  0
  181.8540  176.9830  139.2340 N   0  0  1  0  0  0  0  0  0  0  0  0
  180.7630  178.6450  136.3240 O   0  0  0  0  0  0  0  0  0  0  0  0
  181.7640  177.8470  136.9090 C   0  0  1  0  0  0  0  0  0  0  0  0
  181.6470  179.2940  137.2090 C   0  0  0  0  0  2  0  0  0  0  0  0
  182.7650  177.3640  135.8550 C   0  0  0  0  0  2  0  0  0  0  0  0
  184.1250  176.9960  136.4400 C   0  0  0  0  0  2  0  0  0  0  0  0
  185.1500  177.4040  135.5860 O   0  0  0  0  0  0  0  0  0  0  0  0
  186.1980  176.5200  135.8310 C   0  0  0  0  0  2  0  0  0  0  0  0
  186.8420  176.8720  137.0930 N   0  0  0  0  0  2  0  0  0  0  0  0
  187.1600  179.2060  137.1040 O   0  0  0  0  0  1  0  0  0  0  0  0
  187.7860  177.9740  136.8940 C   0  0  1  0  0  3  0  0  0  0  0  0
  189.0180  177.8440  137.7860 C   0  0  0  0  0  2  0  0  0  0  0  0
  188.8570  177.1030  140.0770 N   0  0  0  0  0  2  0  0  0  0  0  0
  188.6640  178.0420  139.2250 C   0  0  0  0  0  3  0  0  0  0  0  0
  185.9040  178.2530  143.0850 C   0  0  0  0  0  0  0  0  0  0  0  0
  186.9710  177.7270  142.8930 C   0  0  0  0  0  3  0  0  0  0  0  0
  1  7  2  0  0  0  0
  2  3  1  0  0  0  0
  4 14  1  0  0  0  0
  5 21  1  0  0  0  0
  6  3  2  0  0  0  0
  8 16  1  1  0  0  0
  8  5  1  0  0  0  0
  9 17  2  0  0  0  0
 10 20  1  6  0  0  0
 10 15  1  0  0  0  0
 10 19  1  0  0  0  0
 10  8  1  0  0  0  0
 11  9  1  0  0  0  0
 12  4  1  0  0  0  0
 13 17  1  0  0  0  0
 13  2  2  0  0  0  0
 14 11  2  0  0  0  0
 14 13  1  0  0  0  0
 17  6  1  0  0  0  0
 18  1  1  6  0  0  0
 18 11  1  0  0  0  0
 19 24  1  6  0  0  0
 19 22  1  0  0  0  0
 21  1  1  0  0  0  0
 22 12  1  6  0  0  0
 22 18  1  0  0  0  0
 23 24  1  0  0  0  0
 23 25  1  0  0  0  0
 24 26  1  6  0  0  0
 24 25  1  0  0  0  0
 26 27  1  0  0  0  0
 28 29  1  0  0  0  0
 28 27  1  0  0  0  0
 29 30  1  0  0  0  0
 32 30  1  0  0  0  0
 32 31  1  1  0  0  0
 32 33  1  0  0  0  0
 33 35  1  0  0  0  0
 35 34  2  0  0  0  0
 36  2  1  0  0  0  0
 37 36  3  0  0  0  0
M  END
>  <MODEL>
7

>  <REMARK>
 VINA RESULT:      -5.2      1.881      2.466
  Name = 
  10 active torsions:
  status: ('A' for Active; 'I' for Inactive)
    1  A    between atoms: O_3  and  C_11
    2  A    between atoms: O_3  and  C_22
    3  A    between atoms: N_4  and  C_11
    4  A    between atoms: N_4  and  C_36
    5  A    between atoms: C_5  and  C_7
    6  A    between atoms: C_14  and  C_36
    7  A    between atoms: C_14  and  C_37
    8  A    between atoms: C_22  and  C_29
    9  A    between atoms: C_29  and  C_32
   10  A    between atoms: C_30  and  C_32
                            x       y       z     vdW  Elec       q    Type
                         _______ _______ _______ _____ _____    ______ ____

>  <TORSDO>
F 10

$$$$
=
 OpenBabel10222419553D

 37 41  0  0  1  0  0  0  0  0999 V2000
  188.4730  174.0310  136.8860 C   0  0  0  0  0  0  0  0  0  0  0  0
  194.2690  174.7450  135.7790 C   0  0  0  0  0  0  0  0  0  0  0  0
  194.5500  173.4160  135.1850 C   0  0  0  0  0  3  0  0  0  0  0  0
  191.8720  176.7530  136.8140 C   0  0  0  0  0  2  0  0  0  0  0  0
  187.0490  175.7570  135.6660 C   0  0  0  0  0  2  0  0  0  0  0  0
  193.6080  172.5560  135.4630 N   0  0  0  0  0  0  0  0  0  0  0  0
  188.5680  172.8470  137.3060 O   0  0  0  0  0  0  0  0  0  0  0  0
  186.3400  176.6830  136.6430 C   0  0  1  0  0  3  0  0  0  0  0  0
  191.3620  173.1650  136.3220 C   0  0  0  0  0  3  0  0  0  0  0  0
  187.3020  177.5910  137.4290 C   0  0  2  0  0  0  0  0  0  0  0  0
  190.8800  174.5100  136.7270 C   0  0  0  0  0  0  0  0  0  0  0  0
  190.4820  177.3350  136.9260 C   0  0  0  0  0  2  0  0  0  0  0  0
  193.1520  174.6070  136.4640 C   0  0  0  0  0  0  0  0  0  0  0  0
  192.0020  175.4360  136.7270 C   0  0  0  0  0  0  0  0  0  0  0  0
  187.9310  178.4730  136.5630 F   0  0  0  0  0  0  0  0  0  0  0  0
  185.3080  177.5020  135.8830 C   0  0  0  0  0  1  0  0  0  0  0  0
  192.6900  173.2840  136.2630 C   0  0  0  0  0  0  0  0  0  0  0  0
  189.6380  174.9390  136.9760 C   0  0  2  0  0  3  0  0  0  0  0  0
  188.3460  176.7320  138.1860 C   0  0  1  0  0  3  0  0  0  0  0  0
  186.5470  178.3360  138.3410 O   0  0  0  0  0  1  0  0  0  0  0  0
  187.2460  174.4500  136.2800 N   0  0  0  0  0  2  0  0  0  0  0  0
  189.4770  176.3300  137.3410 N   0  0  1  0  0  0  0  0  0  0  0  0
  189.0480  178.6720  139.4720 O   0  0  0  0  0  0  0  0  0  0  0  0
  188.8210  177.2840  139.5370 C   0  0  1  0  0  0  0  0  0  0  0  0
  187.9280  178.2530  140.2160 C   0  0  0  0  0  2  0  0  0  0  0  0
  189.9310  176.5830  140.3260 C   0  0  0  0  0  2  0  0  0  0  0  0
  191.1460  177.4720  140.5740 C   0  0  0  0  0  2  0  0  0  0  0  0
  191.4070  177.5710  141.9420 O   0  0  0  0  0  0  0  0  0  0  0  0
  190.6140  176.5890  142.5320 C   0  0  0  0  0  2  0  0  0  0  0  0
  190.1200  177.0740  143.8170 N   0  0  0  0  0  2  0  0  0  0  0  0
  188.0670  176.0840  143.2210 O   0  0  0  0  0  1  0  0  0  0  0  0
  188.6630  177.2170  143.7820 C   0  0  1  0  0  3  0  0  0  0  0  0
  188.0790  177.4960  145.1650 C   0  0  0  0  0  2  0  0  0  0  0  0
  189.0620  177.7700  147.3520 N   0  0  0  0  0  2  0  0  0  0  0  0
  189.0490  177.1280  146.2430 C   0  0  0  0  0  3  0  0  0  0  0  0
  194.8380  175.9920  135.3460 C   0  0  0  0  0  0  0  0  0  0  0  0
  195.3120  177.0380  134.9810 C   0  0  0  0  0  3  0  0  0  0  0  0
  1 18  1  0  0  0  0
  1  7  2  0  0  0  0
  2 13  1  0  0  0  0
  3  6  1  0  0  0  0
  3  2  2  0  0  0  0
  4 12  1  0  0  0  0
  5 21  1  0  0  0  0
  5  8  1  0  0  0  0
  6 17  2  0  0  0  0
  8 16  1  6  0  0  0
  8 10  1  0  0  0  0
  9 11  2  0  0  0  0
 10 15  1  6  0  0  0
 10 19  1  0  0  0  0
 10 20  1  0  0  0  0
 11 14  1  0  0  0  0
 13 14  2  0  0  0  0
 14  4  1  0  0  0  0
 17  9  1  0  0  0  0
 17 13  1  0  0  0  0
 18 11  1  1  0  0  0
 18 22  1  0  0  0  0
 19 24  1  1  0  0  0
 21  1  1  0  0  0  0
 22 12  1  1  0  0  0
 22 19  1  0  0  0  0
 23 24  1  0  0  0  0
 23 25  1  0  0  0  0
 24 25  1  0  0  0  0
 24 26  1  1  0  0  0
 26 27  1  0  0  0  0
 27 28  1  0  0  0  0
 28 29  1  0  0  0  0
 29 30  1  0  0  0  0
 32 31  1  1  0  0  0
 32 30  1  0  0  0  0
 32 33  1  0  0  0  0
 33 35  1  0  0  0  0
 35 34  2  0  0  0  0
 36  2  1  0  0  0  0
 37 36  3  0  0  0  0
M  END
>  <MODEL>
8

>  <REMARK>
 VINA RESULT:      -5.2      4.976      9.359
  Name = 
  10 active torsions:
  status: ('A' for Active; 'I' for Inactive)
    1  A    between atoms: O_3  and  C_11
    2  A    between atoms: O_3  and  C_22
    3  A    between atoms: N_4  and  C_11
    4  A    between atoms: N_4  and  C_36
    5  A    between atoms: C_5  and  C_7
    6  A    between atoms: C_14  and  C_36
    7  A    between atoms: C_14  and  C_37
    8  A    between atoms: C_22  and  C_29
    9  A    between atoms: C_29  and  C_32
   10  A    between atoms: C_30  and  C_32
                            x       y       z     vdW  Elec       q    Type
                         _______ _______ _______ _____ _____    ______ ____

>  <TORSDO>
F 10

$$$$
=
 OpenBabel10222419553D

 37 41  0  0  1  0  0  0  0  0999 V2000
  192.4780  177.4300  139.6490 C   0  0  0  0  0  0  0  0  0  0  0  0
  192.8480  173.2010  135.4880 C   0  0  0  0  0  0  0  0  0  0  0  0
  194.3050  172.9370  135.5650 C   0  0  0  0  0  3  0  0  0  0  0  0
  190.3430  174.7840  136.9260 C   0  0  0  0  0  2  0  0  0  0  0  0
  190.9060  176.7700  141.5420 C   0  0  0  0  0  2  0  0  0  0  0  0
  194.9380  173.9040  136.1740 N   0  0  0  0  0  0  0  0  0  0  0  0
  193.5320  178.0330  139.3130 O   0  0  0  0  0  0  0  0  0  0  0  0
  189.6870  177.6810  141.5970 C   0  0  1  0  0  3  0  0  0  0  0  0
  193.8410  175.6440  137.5600 C   0  0  0  0  0  3  0  0  0  0  0  0
  188.7620  177.5350  140.3760 C   0  0  2  0  0  0  0  0  0  0  0  0
  192.3860  175.8630  137.7550 C   0  0  0  0  0  0  0  0  0  0  0  0
  189.5650  175.4730  138.0230 C   0  0  0  0  0  2  0  0  0  0  0  0
  192.6670  174.3910  136.0250 C   0  0  0  0  0  0  0  0  0  0  0  0
  191.6490  175.0020  136.8440 C   0  0  0  0  0  0  0  0  0  0  0  0
  188.2030  176.2670  140.3580 F   0  0  0  0  0  0  0  0  0  0  0  0
  188.9340  177.4180  142.8910 C   0  0  0  0  0  1  0  0  0  0  0  0
  193.9240  174.8410  136.4960 C   0  0  0  0  0  0  0  0  0  0  0  0
  191.7430  176.6210  138.6510 C   0  0  2  0  0  3  0  0  0  0  0  0
  189.5560  177.8000  139.0710 C   0  0  1  0  0  3  0  0  0  0  0  0
  187.7280  178.4680  140.5020 O   0  0  0  0  0  1  0  0  0  0  0  0
  192.0460  177.5040  141.0110 N   0  0  0  0  0  2  0  0  0  0  0  0
  190.2960  176.6220  138.6040 N   0  0  1  0  0  0  0  0  0  0  0  0
  189.1190  179.8220  137.7950 O   0  0  0  0  0  0  0  0  0  0  0  0
  188.7750  178.4640  137.9300 C   0  0  1  0  0  0  0  0  0  0  0  0
  189.5630  178.9570  136.7760 C   0  0  0  0  0  2  0  0  0  0  0  0
  187.2620  178.2660  137.7940 C   0  0  0  0  0  2  0  0  0  0  0  0
  186.8800  176.8830  137.2760 C   0  0  0  0  0  2  0  0  0  0  0  0
  185.5180  176.6470  137.4740 O   0  0  0  0  0  0  0  0  0  0  0  0
  184.9520  177.9100  137.6250 C   0  0  0  0  0  2  0  0  0  0  0  0
  184.0060  177.8870  138.7370 N   0  0  0  0  0  2  0  0  0  0  0  0
  184.2680  180.1590  139.3020 O   0  0  0  0  0  1  0  0  0  0  0  0
  184.4060  178.8480  139.7670 C   0  0  1  0  0  3  0  0  0  0  0  0
  183.6240  178.6580  141.0650 C   0  0  0  0  0  2  0  0  0  0  0  0
  184.9300  179.1910  143.0220 N   0  0  0  0  0  2  0  0  0  0  0  0
  184.5350  178.2960  142.1940 C   0  0  0  0  0  3  0  0  0  0  0  0
  191.8280  172.2100  135.2830 C   0  0  0  0  0  0  0  0  0  0  0  0
  190.9700  171.3810  135.1100 C   0  0  0  0  0  3  0  0  0  0  0  0
  1 21  1  0  0  0  0
  2  3  2  0  0  0  0
  2 13  1  0  0  0  0
  3  6  1  0  0  0  0
  4 12  1  0  0  0  0
  5  8  1  0  0  0  0
  6 17  2  0  0  0  0
  7  1  2  0  0  0  0
  8 16  1  1  0  0  0
  9 11  2  0  0  0  0
 10 15  1  6  0  0  0
 10 20  1  0  0  0  0
 10  8  1  0  0  0  0
 13 17  1  0  0  0  0
 13 14  2  0  0  0  0
 14  4  1  0  0  0  0
 14 11  1  0  0  0  0
 17  9  1  0  0  0  0
 18 11  1  6  0  0  0
 18  1  1  0  0  0  0
 19 24  1  6  0  0  0
 19 10  1  0  0  0  0
 21  5  1  0  0  0  0
 22 12  1  6  0  0  0
 22 18  1  0  0  0  0
 22 19  1  0  0  0  0
 23 24  1  0  0  0  0
 24 26  1  6  0  0  0
 25 23  1  0  0  0  0
 25 24  1  0  0  0  0
 27 28  1  0  0  0  0
 27 26  1  0  0  0  0
 28 29  1  0  0  0  0
 29 30  1  0  0  0  0
 30 32  1  0  0  0  0
 32 31  1  6  0  0  0
 32 33  1  0  0  0  0
 33 35  1  0  0  0  0
 35 34  2  0  0  0  0
 36  2  1  0  0  0  0
 37 36  3  0  0  0  0
M  END
>  <MODEL>
9

>  <REMARK>
 VINA RESULT:      -4.8      4.130      9.367
  Name = 
  10 active torsions:
  status: ('A' for Active; 'I' for Inactive)
    1  A    between atoms: O_3  and  C_11
    2  A    between atoms: O_3  and  C_22
    3  A    between atoms: N_4  and  C_11
    4  A    between atoms: N_4  and  C_36
    5  A    between atoms: C_5  and  C_7
    6  A    between atoms: C_14  and  C_36
    7  A    between atoms: C_14  and  C_37
    8  A    between atoms: C_22  and  C_29
    9  A    between atoms: C_29  and  C_32
   10  A    between atoms: C_30  and  C_32
                            x       y       z     vdW  Elec       q    Type
                         _______ _______ _______ _____ _____    ______ ____

>  <TORSDO>
F 10

$$$$
