=
 OpenBabel10222416403D

 30 31  0  0  1  0  0  0  0  0999 V2000
  179.5300  180.9910  141.1470 O   0  0  0  0  0  0  0  0  0  0  0  0
  180.8560  179.2040  141.8770 N   0  0  0  0  0  0  0  0  0  0  0  0
  181.7030  179.0840  139.0200 C   0  0  2  0  0  3  0  0  0  0  0  0
  184.6290  179.8010  139.0110 O   0  0  0  0  0  1  0  0  0  0  0  0
  182.2400  178.8920  144.6630 C   0  0  0  0  0  2  0  0  0  0  0  0
  185.0730  178.6890  141.0600 C   0  0  0  0  0  2  0  0  0  0  0  0
  185.3230  179.4280  142.3740 C   0  0  0  0  0  2  0  0  0  0  0  0
  181.0770  180.2030  139.6480 O   0  0  0  0  0  0  0  0  0  0  0  0
  180.9840  178.2310  144.0750 C   0  0  0  0  0  2  0  0  0  0  0  0
  184.0120  179.3650  140.1880 C   0  0  2  0  0  3  0  0  0  0  0  0
  180.3400  179.1320  143.0590 C   0  0  0  0  0  3  0  0  0  0  0  0
  184.4720  178.8540  143.4760 C   0  0  0  0  0  0  0  0  0  0  0  0
  182.8240  178.4180  139.8630 C   0  0  2  0  0  3  0  0  0  0  0  0
  183.2060  179.2960  143.5770 C   0  0  0  0  0  3  0  0  0  0  0  0
  180.4270  180.1430  140.8830 C   0  0  0  0  0  0  0  0  0  0  0  0
  184.9680  178.5770  145.8810 C   0  0  0  0  0  3  0  0  0  0  0  0
  187.1690  178.1390  145.4940 C   0  0  0  0  0  3  0  0  0  0  0  0
  185.0560  177.9420  144.5330 C   0  0  2  0  0  3  0  0  0  0  0  0
  186.5320  177.7330  144.4100 C   0  0  0  0  0  0  0  0  0  0  0  0
  187.2080  177.0510  143.2700 C   0  0  0  0  0  1  0  0  0  0  0  0
  186.1780  178.6740  146.4200 C   0  0  0  0  0  3  0  0  0  0  0  0
  183.2740  177.1190  139.3160 N   0  0  0  0  0  0  0  0  0  0  0  0
  182.2920  176.1120  139.7200 C   0  0  0  0  0  2  0  0  0  0  0  0
  181.4840  175.6640  138.5120 C   0  0  0  0  0  1  0  0  0  0  0  0
  184.4910  176.7480  137.5260 C   0  0  0  0  0  1  0  0  0  0  0  0
  183.2180  177.1520  137.9530 O   0  0  0  0  0  0  0  0  0  0  0  0
  182.1560  179.4580  137.6080 C   0  0  0  0  0  2  0  0  0  0  0  0
  180.9840  179.5090  136.6440 C   0  0  0  0  0  3  0  0  0  0  0  0
  181.2630  178.6590  135.4160 C   0  0  0  0  0  1  0  0  0  0  0  0
  180.7450  180.9440  136.2150 C   0  0  0  0  0  1  0  0  0  0  0  0
  2 11  2  0  0  0  0
  3 27  1  6  0  0  0
  3  8  1  0  0  0  0
  3 13  1  0  0  0  0
  6  7  1  0  0  0  0
  7 12  1  0  0  0  0
  8 15  1  0  0  0  0
  9  5  1  0  0  0  0
 10  4  1  6  0  0  0
 10  6  1  0  0  0  0
 11  9  1  0  0  0  0
 12 14  2  0  0  0  0
 13 22  1  6  0  0  0
 13 10  1  0  0  0  0
 14  5  1  0  0  0  0
 15  1  2  0  0  0  0
 15  2  1  0  0  0  0
 16 21  2  0  0  0  0
 17 21  1  0  0  0  0
 18 12  1  6  0  0  0
 18 16  1  0  0  0  0
 19 18  1  0  0  0  0
 19 17  2  0  0  0  0
 20 19  1  0  0  0  0
 22 23  1  0  0  0  0
 24 23  1  0  0  0  0
 25 26  1  0  0  0  0
 26 22  1  0  0  0  0
 28 27  1  0  0  0  0
 29 28  1  0  0  0  0
 30 28  1  0  0  0  0
M  END
>  <MODEL>
1

>  <REMARK>
 VINA RESULT:      -7.3      0.000      0.000
  Name = 
  6 active torsions:
  status: ('A' for Active; 'I' for Inactive)
    1  A    between atoms: C_2  and  N_10
    2  A    between atoms: C_6  and  C_25
    3  A    between atoms: C_8  and  C_21
    4  A    between atoms: N_10  and  O_17
    5  A    between atoms: N_10  and  C_27
    6  A    between atoms: C_22  and  C_25
                            x       y       z     vdW  Elec       q    Type
                         _______ _______ _______ _____ _____    ______ ____

>  <TORSDO>
F 6

$$$$
=
 OpenBabel10222416403D

 30 31  0  0  1  0  0  0  0  0999 V2000
  188.6720  176.6420  148.6560 O   0  0  0  0  0  0  0  0  0  0  0  0
  188.0400  178.1650  146.9940 N   0  0  0  0  0  0  0  0  0  0  0  0
  190.4250  177.0980  145.5570 C   0  0  2  0  0  3  0  0  0  0  0  0
  189.3430  175.6930  143.1220 O   0  0  0  0  0  1  0  0  0  0  0  0
  185.1340  179.0270  146.2260 C   0  0  0  0  0  2  0  0  0  0  0  0
  187.6070  177.2740  142.7830 C   0  0  0  0  0  2  0  0  0  0  0  0
  186.1390  176.9810  143.0910 C   0  0  0  0  0  2  0  0  0  0  0  0
  189.7630  176.4550  146.6460 O   0  0  0  0  0  0  0  0  0  0  0  0
  186.2290  179.7510  147.0240 C   0  0  0  0  0  2  0  0  0  0  0  0
  188.5660  176.6410  143.7940 C   0  0  2  0  0  3  0  0  0  0  0  0
  187.1350  178.7600  147.6990 C   0  0  0  0  0  3  0  0  0  0  0  0
  185.5370  178.0890  143.9140 C   0  0  0  0  0  0  0  0  0  0  0  0
  189.4710  177.6960  144.4880 C   0  0  2  0  0  3  0  0  0  0  0  0
  185.7270  178.0470  145.2440 C   0  0  0  0  0  3  0  0  0  0  0  0
  188.8480  177.0910  147.4890 C   0  0  0  0  0  0  0  0  0  0  0  0
  183.2400  178.9970  143.8640 C   0  0  0  0  0  3  0  0  0  0  0  0
  183.0600  178.7300  141.6090 C   0  0  0  0  0  3  0  0  0  0  0  0
  184.6160  179.1200  143.2990 C   0  0  2  0  0  3  0  0  0  0  0  0
  184.3480  178.9080  141.8430 C   0  0  0  0  0  0  0  0  0  0  0  0
  185.3720  178.9950  140.7620 C   0  0  0  0  0  1  0  0  0  0  0  0
  182.3640  178.7850  142.8890 C   0  0  0  0  0  3  0  0  0  0  0  0
  190.1590  178.5750  143.5170 N   0  0  0  0  0  0  0  0  0  0  0  0
  190.6810  179.7220  144.2590 C   0  0  0  0  0  2  0  0  0  0  0  0
  192.1970  179.6330  144.3480 C   0  0  0  0  0  1  0  0  0  0  0  0
  191.0550  177.8910  141.6310 C   0  0  0  0  0  1  0  0  0  0  0  0
  191.2570  177.9360  143.0190 O   0  0  0  0  0  0  0  0  0  0  0  0
  191.4850  176.1690  144.9630 C   0  0  0  0  0  2  0  0  0  0  0  0
  191.8090  175.0220  145.9040 C   0  0  0  0  0  3  0  0  0  0  0  0
  192.6350  175.5120  147.0810 C   0  0  0  0  0  1  0  0  0  0  0  0
  192.5890  173.9580  145.1540 C   0  0  0  0  0  1  0  0  0  0  0  0
  2 15  1  0  0  0  0
  2 11  2  0  0  0  0
  3 27  1  6  0  0  0
  3  8  1  0  0  0  0
  5  9  1  0  0  0  0
  6  7  1  0  0  0  0
  6 10  1  0  0  0  0
  7 12  1  0  0  0  0
  8 15  1  0  0  0  0
  9 11  1  0  0  0  0
 10  4  1  6  0  0  0
 10 13  1  0  0  0  0
 12 14  2  0  0  0  0
 13 22  1  6  0  0  0
 13  3  1  0  0  0  0
 14  5  1  0  0  0  0
 15  1  2  0  0  0  0
 17 19  2  0  0  0  0
 17 21  1  0  0  0  0
 18 16  1  0  0  0  0
 18 12  1  1  0  0  0
 19 18  1  0  0  0  0
 20 19  1  0  0  0  0
 21 16  2  0  0  0  0
 22 23  1  0  0  0  0
 23 24  1  0  0  0  0
 25 26  1  0  0  0  0
 26 22  1  0  0  0  0
 27 28  1  0  0  0  0
 28 29  1  0  0  0  0
 30 28  1  0  0  0  0
M  END
>  <MODEL>
2

>  <REMARK>
 VINA RESULT:      -5.6      4.903      9.014
  Name = 
  6 active torsions:
  status: ('A' for Active; 'I' for Inactive)
    1  A    between atoms: C_2  and  N_10
    2  A    between atoms: C_6  and  C_25
    3  A    between atoms: C_8  and  C_21
    4  A    between atoms: N_10  and  O_17
    5  A    between atoms: N_10  and  C_27
    6  A    between atoms: C_22  and  C_25
                            x       y       z     vdW  Elec       q    Type
                         _______ _______ _______ _____ _____    ______ ____

>  <TORSDO>
F 6

$$$$
=
 OpenBabel10222416403D

 30 31  0  0  1  0  0  0  0  0999 V2000
  178.9310  174.7160  141.3920 O   0  0  0  0  0  0  0  0  0  0  0  0
  179.5960  175.5330  139.3000 N   0  0  0  0  0  0  0  0  0  0  0  0
  179.8970  178.1160  140.7610 C   0  0  2  0  0  3  0  0  0  0  0  0
  182.8430  178.7410  140.7040 O   0  0  0  0  0  1  0  0  0  0  0  0
  181.1710  173.9910  137.0830 C   0  0  0  0  0  2  0  0  0  0  0  0
  183.1480  177.8750  138.5160 C   0  0  0  0  0  2  0  0  0  0  0  0
  183.8490  176.5460  138.2350 C   0  0  0  0  0  2  0  0  0  0  0  0
  179.8320  176.8260  141.3710 O   0  0  0  0  0  0  0  0  0  0  0  0
  179.6860  174.3690  137.1950 C   0  0  0  0  0  2  0  0  0  0  0  0
  182.2940  177.8410  139.7860 C   0  0  2  0  0  3  0  0  0  0  0  0
  179.2750  174.4720  138.6370 C   0  0  0  0  0  3  0  0  0  0  0  0
  183.0230  175.6960  137.3050 C   0  0  0  0  0  0  0  0  0  0  0  0
  180.8060  178.1870  139.5040 C   0  0  2  0  0  3  0  0  0  0  0  0
  182.0420  174.9550  137.8490 C   0  0  0  0  0  3  0  0  0  0  0  0
  179.4000  175.6720  140.7130 C   0  0  0  0  0  0  0  0  0  0  0  0
  184.7750  175.0350  135.6930 C   0  0  0  0  0  3  0  0  0  0  0  0
  184.6770  177.0260  134.5940 C   0  0  0  0  0  3  0  0  0  0  0  0
  183.3810  175.5470  135.8430 C   0  0  2  0  0  3  0  0  0  0  0  0
  183.4720  176.8430  135.1010 C   0  0  0  0  0  0  0  0  0  0  0  0
  182.3300  177.7710  134.8560 C   0  0  0  0  0  1  0  0  0  0  0  0
  185.4990  175.8830  134.9720 C   0  0  0  0  0  3  0  0  0  0  0  0
  180.6540  179.4470  138.7440 N   0  0  0  0  0  0  0  0  0  0  0  0
  179.5020  179.2860  137.8570 C   0  0  0  0  0  2  0  0  0  0  0  0
  179.6620  178.0210  137.0280 C   0  0  0  0  0  1  0  0  0  0  0  0
  180.7050  181.6350  138.9380 C   0  0  0  0  0  1  0  0  0  0  0  0
  180.3170  180.4580  139.5970 O   0  0  0  0  0  0  0  0  0  0  0  0
  180.2370  179.1770  141.8080 C   0  0  0  0  0  2  0  0  0  0  0  0
  180.4300  178.5590  143.1830 C   0  0  0  0  0  3  0  0  0  0  0  0
  179.2490  178.8780  144.0840 C   0  0  0  0  0  1  0  0  0  0  0  0
  181.6990  179.1070  143.8090 C   0  0  0  0  0  1  0  0  0  0  0  0
  2 15  1  0  0  0  0
  3  8  1  0  0  0  0
  3 27  1  1  0  0  0
  5  9  1  0  0  0  0
  5 14  1  0  0  0  0
  6 10  1  0  0  0  0
  7  6  1  0  0  0  0
  9 11  1  0  0  0  0
 10  4  1  1  0  0  0
 11  2  2  0  0  0  0
 12 14  2  0  0  0  0
 12  7  1  0  0  0  0
 13 22  1  1  0  0  0
 13 10  1  0  0  0  0
 13  3  1  0  0  0  0
 15  8  1  0  0  0  0
 15  1  2  0  0  0  0
 16 18  1  0  0  0  0
 17 21  1  0  0  0  0
 17 19  2  0  0  0  0
 18 12  1  1  0  0  0
 19 18  1  0  0  0  0
 20 19  1  0  0  0  0
 21 16  2  0  0  0  0
 22 26  1  0  0  0  0
 23 22  1  0  0  0  0
 24 23  1  0  0  0  0
 25 26  1  0  0  0  0
 27 28  1  0  0  0  0
 28 30  1  0  0  0  0
 28 29  1  0  0  0  0
M  END
>  <MODEL>
3

>  <REMARK>
 VINA RESULT:      -5.4      2.966      6.892
  Name = 
  6 active torsions:
  status: ('A' for Active; 'I' for Inactive)
    1  A    between atoms: C_2  and  N_10
    2  A    between atoms: C_6  and  C_25
    3  A    between atoms: C_8  and  C_21
    4  A    between atoms: N_10  and  O_17
    5  A    between atoms: N_10  and  C_27
    6  A    between atoms: C_22  and  C_25
                            x       y       z     vdW  Elec       q    Type
                         _______ _______ _______ _____ _____    ______ ____

>  <TORSDO>
F 6

$$$$
=
 OpenBabel10222416403D

 30 31  0  0  1  0  0  0  0  0999 V2000
  180.0500  174.4230  140.1540 O   0  0  0  0  0  0  0  0  0  0  0  0
  180.7420  176.6390  139.8460 N   0  0  0  0  0  0  0  0  0  0  0  0
  182.7850  175.4150  138.0510 C   0  0  2  0  0  3  0  0  0  0  0  0
  182.1290  176.4050  135.2830 O   0  0  0  0  0  1  0  0  0  0  0  0
  178.9410  179.1950  139.8130 C   0  0  0  0  0  2  0  0  0  0  0  0
  181.4630  178.5550  136.0350 C   0  0  0  0  0  2  0  0  0  0  0  0
  180.0030  179.0040  136.0900 C   0  0  0  0  0  2  0  0  0  0  0  0
  181.5810  174.7810  138.4830 O   0  0  0  0  0  0  0  0  0  0  0  0
  179.8880  178.6350  140.8860 C   0  0  0  0  0  2  0  0  0  0  0  0
  181.6480  177.0810  136.4080 C   0  0  2  0  0  3  0  0  0  0  0  0
  179.9920  177.1400  140.7710 C   0  0  0  0  0  3  0  0  0  0  0  0
  179.6830  179.6070  137.4330 C   0  0  0  0  0  0  0  0  0  0  0  0
  182.6110  176.8940  137.6120 C   0  0  2  0  0  3  0  0  0  0  0  0
  179.3640  178.7650  138.4310 C   0  0  0  0  0  3  0  0  0  0  0  0
  180.7920  175.2400  139.5410 C   0  0  0  0  0  0  0  0  0  0  0  0
  178.9320  181.7320  136.4210 C   0  0  0  0  0  3  0  0  0  0  0  0
  180.9670  182.7160  136.6940 C   0  0  0  0  0  3  0  0  0  0  0  0
  179.5620  181.1040  137.6190 C   0  0  2  0  0  3  0  0  0  0  0  0
  180.8740  181.8220  137.6610 C   0  0  0  0  0  0  0  0  0  0  0  0
  181.9110  181.6490  138.7190 C   0  0  0  0  0  1  0  0  0  0  0  0
  179.7390  182.6540  135.9100 C   0  0  0  0  0  3  0  0  0  0  0  0
  183.8950  177.6030  137.4210 N   0  0  0  0  0  0  0  0  0  0  0  0
  183.9070  178.7400  138.3420 C   0  0  0  0  0  2  0  0  0  0  0  0
  183.6680  178.2550  139.7640 C   0  0  0  0  0  1  0  0  0  0  0  0
  186.0390  177.2500  137.0980 C   0  0  0  0  0  1  0  0  0  0  0  0
  184.9240  176.8010  137.8230 O   0  0  0  0  0  0  0  0  0  0  0  0
  183.4850  174.5550  136.9980 C   0  0  0  0  0  2  0  0  0  0  0  0
  184.0770  173.2980  137.6120 C   0  0  0  0  0  3  0  0  0  0  0  0
  185.5950  173.3450  137.5690 C   0  0  0  0  0  1  0  0  0  0  0  0
  183.5920  172.0840  136.8410 C   0  0  0  0  0  1  0  0  0  0  0  0
  2 11  2  0  0  0  0
  3 27  1  6  0  0  0
  3  8  1  0  0  0  0
  5  9  1  0  0  0  0
  6  7  1  0  0  0  0
  6 10  1  0  0  0  0
  7 12  1  0  0  0  0
  8 15  1  0  0  0  0
 10  4  1  6  0  0  0
 10 13  1  0  0  0  0
 11  9  1  0  0  0  0
 12 14  2  0  0  0  0
 13 22  1  6  0  0  0
 13  3  1  0  0  0  0
 14  5  1  0  0  0  0
 15  2  1  0  0  0  0
 15  1  2  0  0  0  0
 16 18  1  0  0  0  0
 17 19  2  0  0  0  0
 18 12  1  6  0  0  0
 18 19  1  0  0  0  0
 19 20  1  0  0  0  0
 21 16  2  0  0  0  0
 21 17  1  0  0  0  0
 22 26  1  0  0  0  0
 22 23  1  0  0  0  0
 23 24  1  0  0  0  0
 25 26  1  0  0  0  0
 27 28  1  0  0  0  0
 29 28  1  0  0  0  0
 30 28  1  0  0  0  0
M  END
>  <MODEL>
4

>  <REMARK>
 VINA RESULT:      -5.3      3.772      6.822
  Name = 
  6 active torsions:
  status: ('A' for Active; 'I' for Inactive)
    1  A    between atoms: C_2  and  N_10
    2  A    between atoms: C_6  and  C_25
    3  A    between atoms: C_8  and  C_21
    4  A    between atoms: N_10  and  O_17
    5  A    between atoms: N_10  and  C_27
    6  A    between atoms: C_22  and  C_25
                            x       y       z     vdW  Elec       q    Type
                         _______ _______ _______ _____ _____    ______ ____

>  <TORSDO>
F 6

$$$$
=
 OpenBabel10222416403D

 30 31  0  0  1  0  0  0  0  0999 V2000
  184.6040  179.9300  139.6060 O   0  0  0  0  0  0  0  0  0  0  0  0
  186.1130  178.2250  139.0550 N   0  0  0  0  0  0  0  0  0  0  0  0
  183.7680  177.0450  137.6400 C   0  0  2  0  0  3  0  0  0  0  0  0
  184.4770  177.0970  134.7130 O   0  0  0  0  0  1  0  0  0  0  0  0
  189.1760  178.5180  138.5040 C   0  0  0  0  0  2  0  0  0  0  0  0
  186.7680  176.6140  135.0950 C   0  0  0  0  0  2  0  0  0  0  0  0
  187.8770  177.6570  134.9550 C   0  0  0  0  0  2  0  0  0  0  0  0
  183.8850  178.4090  138.0460 O   0  0  0  0  0  0  0  0  0  0  0  0
  188.4120  177.9840  139.7250 C   0  0  0  0  0  2  0  0  0  0  0  0
  185.4780  177.1890  135.6850 C   0  0  2  0  0  3  0  0  0  0  0  0
  187.0620  178.6350  139.8300 C   0  0  0  0  0  3  0  0  0  0  0  0
  188.7720  177.6470  136.1660 C   0  0  0  0  0  0  0  0  0  0  0  0
  185.0470  176.4570  136.9850 C   0  0  2  0  0  3  0  0  0  0  0  0
  188.3720  178.3520  137.2390 C   0  0  0  0  0  3  0  0  0  0  0  0
  184.8390  178.8740  138.9540 C   0  0  0  0  0  0  0  0  0  0  0  0
  190.5380  176.6950  134.7250 C   0  0  0  0  0  3  0  0  0  0  0  0
  190.5900  174.7360  135.8860 C   0  0  0  0  0  3  0  0  0  0  0  0
  190.1430  177.0100  136.1300 C   0  0  2  0  0  3  0  0  0  0  0  0
  190.2030  175.6520  136.7550 C   0  0  0  0  0  0  0  0  0  0  0  0
  189.9700  175.3640  138.2000 C   0  0  0  0  0  1  0  0  0  0  0  0
  190.7990  175.3990  134.6040 C   0  0  0  0  0  3  0  0  0  0  0  0
  184.9940  174.9890  136.8140 N   0  0  0  0  0  0  0  0  0  0  0  0
  186.2940  174.4550  137.2210 C   0  0  0  0  0  2  0  0  0  0  0  0
  186.6690  173.2760  136.3370 C   0  0  0  0  0  1  0  0  0  0  0  0
  183.4630  173.4230  136.9840 C   0  0  0  0  0  1  0  0  0  0  0  0
  184.0940  174.4580  137.6910 O   0  0  0  0  0  0  0  0  0  0  0  0
  182.5150  176.8560  136.7850 C   0  0  0  0  0  2  0  0  0  0  0  0
  181.6550  178.1080  136.7740 C   0  0  0  0  0  3  0  0  0  0  0  0
  180.4300  177.9250  137.6550 C   0  0  0  0  0  1  0  0  0  0  0  0
  181.2110  178.4030  135.3540 C   0  0  0  0  0  1  0  0  0  0  0  0
  2 11  2  0  0  0  0
  3 27  1  6  0  0  0
  3  8  1  0  0  0  0
  5  9  1  0  0  0  0
  6 10  1  0  0  0  0
  7  6  1  0  0  0  0
  7 12  1  0  0  0  0
  8 15  1  0  0  0  0
  9 11  1  0  0  0  0
 10  4  1  6  0  0  0
 10 13  1  0  0  0  0
 12 14  2  0  0  0  0
 13 22  1  6  0  0  0
 13  3  1  0  0  0  0
 14  5  1  0  0  0  0
 15  2  1  0  0  0  0
 15  1  2  0  0  0  0
 16 18  1  0  0  0  0
 17 19  2  0  0  0  0
 18 12  1  6  0  0  0
 18 19  1  0  0  0  0
 19 20  1  0  0  0  0
 21 16  2  0  0  0  0
 21 17  1  0  0  0  0
 22 23  1  0  0  0  0
 22 26  1  0  0  0  0
 24 23  1  0  0  0  0
 25 26  1  0  0  0  0
 28 27  1  0  0  0  0
 28 29  1  0  0  0  0
 30 28  1  0  0  0  0
M  END
>  <MODEL>
5

>  <REMARK>
 VINA RESULT:      -5.2      4.062      6.894
  Name = 
  6 active torsions:
  status: ('A' for Active; 'I' for Inactive)
    1  A    between atoms: C_2  and  N_10
    2  A    between atoms: C_6  and  C_25
    3  A    between atoms: C_8  and  C_21
    4  A    between atoms: N_10  and  O_17
    5  A    between atoms: N_10  and  C_27
    6  A    between atoms: C_22  and  C_25
                            x       y       z     vdW  Elec       q    Type
                         _______ _______ _______ _____ _____    ______ ____

>  <TORSDO>
F 6

$$$$
=
 OpenBabel10222416403D

 30 31  0  0  1  0  0  0  0  0999 V2000
  188.6860  172.2160  135.0000 O   0  0  0  0  0  0  0  0  0  0  0  0
  187.6660  173.4720  136.6940 N   0  0  0  0  0  0  0  0  0  0  0  0
  190.1110  175.1650  136.4710 C   0  0  2  0  0  3  0  0  0  0  0  0
  189.1590  177.8340  135.4500 O   0  0  0  0  0  1  0  0  0  0  0  0
  184.6050  173.9600  137.1020 C   0  0  0  0  0  2  0  0  0  0  0  0
  187.1340  177.7650  136.6850 C   0  0  0  0  0  2  0  0  0  0  0  0
  185.7730  177.5010  136.0420 C   0  0  0  0  0  2  0  0  0  0  0  0
  189.6580  174.2380  135.4840 O   0  0  0  0  0  0  0  0  0  0  0  0
  185.5920  173.0410  137.8380 C   0  0  0  0  0  2  0  0  0  0  0  0
  188.2620  176.9460  136.0510 C   0  0  2  0  0  3  0  0  0  0  0  0
  186.7130  172.6310  136.9240 C   0  0  0  0  0  3  0  0  0  0  0  0
  185.0260  176.4340  136.7980 C   0  0  0  0  0  0  0  0  0  0  0  0
  188.9920  176.0480  137.0860 C   0  0  2  0  0  3  0  0  0  0  0  0
  185.3080  175.1530  136.5030 C   0  0  0  0  0  3  0  0  0  0  0  0
  188.6960  173.2530  135.7220 C   0  0  0  0  0  0  0  0  0  0  0  0
  182.6060  176.8930  136.9770 C   0  0  0  0  0  3  0  0  0  0  0  0
  182.9440  178.8870  138.0240 C   0  0  0  0  0  3  0  0  0  0  0  0
  183.8870  176.7770  137.7330 C   0  0  2  0  0  3  0  0  0  0  0  0
  183.9860  178.1400  138.3410 C   0  0  0  0  0  0  0  0  0  0  0  0
  185.0550  178.5820  139.2820 C   0  0  0  0  0  1  0  0  0  0  0  0
  182.0750  178.0970  137.1600 C   0  0  0  0  0  3  0  0  0  0  0  0
  189.4340  176.8060  138.2770 N   0  0  0  0  0  0  0  0  0  0  0  0
  188.2530  177.0400  139.1090 C   0  0  0  0  0  2  0  0  0  0  0  0
  188.4750  178.2600  139.9900 C   0  0  0  0  0  1  0  0  0  0  0  0
  191.2870  176.8880  139.4540 C   0  0  0  0  0  1  0  0  0  0  0  0
  190.2610  176.0280  139.0340 O   0  0  0  0  0  0  0  0  0  0  0  0
  191.2870  175.9780  135.9280 C   0  0  0  0  0  2  0  0  0  0  0  0
  192.6080  175.2600  136.1480 C   0  0  0  0  0  3  0  0  0  0  0  0
  192.4560  174.1640  137.1880 C   0  0  0  0  0  1  0  0  0  0  0  0
  193.6510  176.2560  136.6180 C   0  0  0  0  0  1  0  0  0  0  0  0
  1 15  2  0  0  0  0
  2 11  2  0  0  0  0
  3 27  1  6  0  0  0
  3 13  1  0  0  0  0
  5  9  1  0  0  0  0
  7  6  1  0  0  0  0
  7 12  1  0  0  0  0
  8 15  1  0  0  0  0
  8  3  1  0  0  0  0
 10  4  1  1  0  0  0
 10  6  1  0  0  0  0
 10 13  1  0  0  0  0
 11  9  1  0  0  0  0
 13 22  1  1  0  0  0
 14 12  2  0  0  0  0
 14  5  1  0  0  0  0
 15  2  1  0  0  0  0
 16 21  2  0  0  0  0
 16 18  1  0  0  0  0
 17 19  2  0  0  0  0
 18 12  1  6  0  0  0
 18 19  1  0  0  0  0
 19 20  1  0  0  0  0
 21 17  1  0  0  0  0
 22 26  1  0  0  0  0
 22 23  1  0  0  0  0
 23 24  1  0  0  0  0
 26 25  1  0  0  0  0
 27 28  1  0  0  0  0
 28 30  1  0  0  0  0
 28 29  1  0  0  0  0
M  END
>  <MODEL>
6

>  <REMARK>
 VINA RESULT:      -5.2      5.296      9.103
  Name = 
  6 active torsions:
  status: ('A' for Active; 'I' for Inactive)
    1  A    between atoms: C_2  and  N_10
    2  A    between atoms: C_6  and  C_25
    3  A    between atoms: C_8  and  C_21
    4  A    between atoms: N_10  and  O_17
    5  A    between atoms: N_10  and  C_27
    6  A    between atoms: C_22  and  C_25
                            x       y       z     vdW  Elec       q    Type
                         _______ _______ _______ _____ _____    ______ ____

>  <TORSDO>
F 6

$$$$
=
 OpenBabel10222416403D

 30 31  0  0  1  0  0  0  0  0999 V2000
  187.2960  176.0200  137.5170 O   0  0  0  0  0  0  0  0  0  0  0  0
  185.2570  177.1700  137.5930 N   0  0  0  0  0  0  0  0  0  0  0  0
  184.3260  174.9880  135.7860 C   0  0  2  0  0  3  0  0  0  0  0  0
  182.2540  173.4650  137.3560 O   0  0  0  0  0  1  0  0  0  0  0  0
  184.0770  178.7680  140.0070 C   0  0  0  0  0  2  0  0  0  0  0  0
  181.3920  175.4080  138.4100 C   0  0  0  0  0  2  0  0  0  0  0  0
  181.6520  175.7470  139.8780 C   0  0  0  0  0  2  0  0  0  0  0  0
  185.4890  174.9340  136.6120 O   0  0  0  0  0  0  0  0  0  0  0  0
  184.7450  179.2410  138.7070 C   0  0  0  0  0  2  0  0  0  0  0  0
  182.6010  174.7690  137.7220 C   0  0  2  0  0  3  0  0  0  0  0  0
  185.7170  178.2100  138.2060 C   0  0  0  0  0  3  0  0  0  0  0  0
  182.1180  177.1720  140.0200 C   0  0  0  0  0  0  0  0  0  0  0  0
  183.0700  175.5790  136.4830 C   0  0  2  0  0  3  0  0  0  0  0  0
  183.4250  177.4190  139.8290 C   0  0  0  0  0  3  0  0  0  0  0  0
  186.0700  176.0520  137.2160 C   0  0  0  0  0  0  0  0  0  0  0  0
  180.1330  177.6840  141.4000 C   0  0  0  0  0  3  0  0  0  0  0  0
  179.0700  178.7410  139.6860 C   0  0  0  0  0  3  0  0  0  0  0  0
  181.1920  178.2590  140.5200 C   0  0  2  0  0  3  0  0  0  0  0  0
  180.3610  178.8930  139.4500 C   0  0  0  0  0  0  0  0  0  0  0  0
  180.8960  179.6970  138.3140 C   0  0  0  0  0  1  0  0  0  0  0  0
  178.9310  177.9740  140.9180 C   0  0  0  0  0  3  0  0  0  0  0  0
  181.9620  175.8670  135.5450 N   0  0  0  0  0  0  0  0  0  0  0  0
  182.3890  176.9770  134.6930 C   0  0  0  0  0  2  0  0  0  0  0  0
  181.8750  178.2910  135.2620 C   0  0  0  0  0  1  0  0  0  0  0  0
  180.4010  174.6500  134.5940 C   0  0  0  0  0  1  0  0  0  0  0  0
  181.7900  174.8080  134.7010 O   0  0  0  0  0  0  0  0  0  0  0  0
  184.0700  173.6230  135.1470 C   0  0  0  0  0  2  0  0  0  0  0  0
  185.0920  172.5950  135.6040 C   0  0  0  0  0  3  0  0  0  0  0  0
  186.2480  172.5170  134.6210 C   0  0  0  0  0  1  0  0  0  0  0  0
  184.4290  171.2350  135.7060 C   0  0  0  0  0  1  0  0  0  0  0  0
  2 11  2  0  0  0  0
  3 27  1  1  0  0  0
  3 13  1  0  0  0  0
  3  8  1  0  0  0  0
  6  7  1  0  0  0  0
  7 12  1  0  0  0  0
  8 15  1  0  0  0  0
  9  5  1  0  0  0  0
 10  4  1  6  0  0  0
 10  6  1  0  0  0  0
 11  9  1  0  0  0  0
 13 22  1  6  0  0  0
 13 10  1  0  0  0  0
 14  5  1  0  0  0  0
 14 12  2  0  0  0  0
 15  1  2  0  0  0  0
 15  2  1  0  0  0  0
 17 21  1  0  0  0  0
 18 12  1  6  0  0  0
 18 16  1  0  0  0  0
 19 17  2  0  0  0  0
 19 18  1  0  0  0  0
 20 19  1  0  0  0  0
 21 16  2  0  0  0  0
 23 24  1  0  0  0  0
 23 22  1  0  0  0  0
 25 26  1  0  0  0  0
 26 22  1  0  0  0  0
 27 28  1  0  0  0  0
 28 30  1  0  0  0  0
 29 28  1  0  0  0  0
M  END
>  <MODEL>
7

>  <REMARK>
 VINA RESULT:      -4.8      4.062      6.827
  Name = 
  6 active torsions:
  status: ('A' for Active; 'I' for Inactive)
    1  A    between atoms: C_2  and  N_10
    2  A    between atoms: C_6  and  C_25
    3  A    between atoms: C_8  and  C_21
    4  A    between atoms: N_10  and  O_17
    5  A    between atoms: N_10  and  C_27
    6  A    between atoms: C_22  and  C_25
                            x       y       z     vdW  Elec       q    Type
                         _______ _______ _______ _____ _____    ______ ____

>  <TORSDO>
F 6

$$$$
=
 OpenBabel10222416403D

 30 31  0  0  1  0  0  0  0  0999 V2000
  185.5060  179.9760  142.5410 O   0  0  0  0  0  0  0  0  0  0  0  0
  186.4950  178.1070  141.5330 N   0  0  0  0  0  0  0  0  0  0  0  0
  184.5860  178.6920  139.3180 C   0  0  2  0  0  3  0  0  0  0  0  0
  186.2930  179.4780  136.9630 O   0  0  0  0  0  1  0  0  0  0  0  0
  189.4730  177.1860  141.7710 C   0  0  0  0  0  2  0  0  0  0  0  0
  188.0100  177.9260  137.4850 C   0  0  0  0  0  2  0  0  0  0  0  0
  189.3600  178.3400  138.0720 C   0  0  0  0  0  2  0  0  0  0  0  0
  184.9680  179.6120  140.3410 O   0  0  0  0  0  0  0  0  0  0  0  0
  188.1890  176.6460  142.4200 C   0  0  0  0  0  2  0  0  0  0  0  0
  186.8450  178.7570  138.0270 C   0  0  2  0  0  3  0  0  0  0  0  0
  187.1720  177.7420  142.5710 C   0  0  0  0  0  3  0  0  0  0  0  0
  189.6990  177.4960  139.2730 C   0  0  0  0  0  0  0  0  0  0  0  0
  185.7620  177.8790  138.7120 C   0  0  2  0  0  3  0  0  0  0  0  0
  189.1780  177.8650  140.4560 C   0  0  0  0  0  3  0  0  0  0  0  0
  185.6190  179.2410  141.5200 C   0  0  0  0  0  0  0  0  0  0  0  0
  192.1020  176.9260  139.2270 C   0  0  0  0  0  3  0  0  0  0  0  0
  191.9040  175.7440  137.2910 C   0  0  0  0  0  3  0  0  0  0  0  0
  190.7150  176.3780  139.1920 C   0  0  2  0  0  3  0  0  0  0  0  0
  190.7260  175.6570  137.8810 C   0  0  0  0  0  0  0  0  0  0  0  0
  189.5990  174.8410  137.3440 C   0  0  0  0  0  1  0  0  0  0  0  0
  192.7700  176.5490  138.1430 C   0  0  0  0  0  3  0  0  0  0  0  0
  185.3180  176.7600  137.8520 N   0  0  0  0  0  0  0  0  0  0  0  0
  184.0300  176.2970  138.3700 C   0  0  0  0  0  2  0  0  0  0  0  0
  183.8240  174.8340  138.0070 C   0  0  0  0  0  1  0  0  0  0  0  0
  185.5320  176.2250  135.7320 C   0  0  0  0  0  1  0  0  0  0  0  0
  185.0570  177.2240  136.5950 O   0  0  0  0  0  0  0  0  0  0  0  0
  183.7410  179.4030  138.2600 C   0  0  0  0  0  2  0  0  0  0  0  0
  182.4620  179.9660  138.8570 C   0  0  0  0  0  3  0  0  0  0  0  0
  181.7470  178.9120  139.6840 C   0  0  0  0  0  1  0  0  0  0  0  0
  181.5470  180.4320  137.7400 C   0  0  0  0  0  1  0  0  0  0  0  0
  2 11  2  0  0  0  0
  3 27  1  6  0  0  0
  3  8  1  0  0  0  0
  5  9  1  0  0  0  0
  6 10  1  0  0  0  0
  6  7  1  0  0  0  0
  7 12  1  0  0  0  0
  8 15  1  0  0  0  0
  9 11  1  0  0  0  0
 10  4  1  6  0  0  0
 10 13  1  0  0  0  0
 12 14  2  0  0  0  0
 13 22  1  6  0  0  0
 13  3  1  0  0  0  0
 14  5  1  0  0  0  0
 15  2  1  0  0  0  0
 15  1  2  0  0  0  0
 17 19  2  0  0  0  0
 17 21  1  0  0  0  0
 18 16  1  0  0  0  0
 18 12  1  6  0  0  0
 19 18  1  0  0  0  0
 20 19  1  0  0  0  0
 21 16  2  0  0  0  0
 22 23  1  0  0  0  0
 24 23  1  0  0  0  0
 25 26  1  0  0  0  0
 26 22  1  0  0  0  0
 27 28  1  0  0  0  0
 28 29  1  0  0  0  0
 30 28  1  0  0  0  0
M  END
>  <MODEL>
8

>  <REMARK>
 VINA RESULT:      -4.8      3.747      5.829
  Name = 
  6 active torsions:
  status: ('A' for Active; 'I' for Inactive)
    1  A    between atoms: C_2  and  N_10
    2  A    between atoms: C_6  and  C_25
    3  A    between atoms: C_8  and  C_21
    4  A    between atoms: N_10  and  O_17
    5  A    between atoms: N_10  and  C_27
    6  A    between atoms: C_22  and  C_25
                            x       y       z     vdW  Elec       q    Type
                         _______ _______ _______ _____ _____    ______ ____

>  <TORSDO>
F 6

$$$$
=
 OpenBabel10222416403D

 30 31  0  0  1  0  0  0  0  0999 V2000
  179.2690  172.6970  138.1300 O   0  0  0  0  0  0  0  0  0  0  0  0
  180.3340  174.6760  138.7890 N   0  0  0  0  0  0  0  0  0  0  0  0
  182.3550  173.8930  136.7410 C   0  0  2  0  0  3  0  0  0  0  0  0
  182.1960  176.0020  134.5970 O   0  0  0  0  0  1  0  0  0  0  0  0
  178.9770  177.3310  139.7290 C   0  0  0  0  0  2  0  0  0  0  0  0
  181.7950  177.7640  136.1350 C   0  0  0  0  0  2  0  0  0  0  0  0
  180.4280  178.4270  136.3070 C   0  0  0  0  0  2  0  0  0  0  0  0
  181.0240  173.3840  136.8220 O   0  0  0  0  0  0  0  0  0  0  0  0
  179.6890  176.2220  140.5180 C   0  0  0  0  0  2  0  0  0  0  0  0
  181.6980  176.2580  135.8780 C   0  0  2  0  0  3  0  0  0  0  0  0
  179.5690  174.9050  139.8050 C   0  0  0  0  0  3  0  0  0  0  0  0
  180.0510  178.4990  137.7630 C   0  0  0  0  0  0  0  0  0  0  0  0
  182.4700  175.4280  136.9400 C   0  0  2  0  0  3  0  0  0  0  0  0
  179.4860  177.4100  138.3120 C   0  0  0  0  0  3  0  0  0  0  0  0
  180.1980  173.5300  137.9390 C   0  0  0  0  0  0  0  0  0  0  0  0
  180.0460  180.9660  137.6240 C   0  0  0  0  0  3  0  0  0  0  0  0
  182.0360  181.1470  138.7180 C   0  0  0  0  0  3  0  0  0  0  0  0
  180.1470  179.7930  138.5410 C   0  0  2  0  0  3  0  0  0  0  0  0
  181.4860  180.0320  139.1650 C   0  0  0  0  0  0  0  0  0  0  0  0
  182.0910  179.1950  140.2410 C   0  0  0  0  0  1  0  0  0  0  0  0
  181.1240  181.7320  137.7420 C   0  0  0  0  0  3  0  0  0  0  0  0
  183.8640  175.8930  137.1140 N   0  0  0  0  0  0  0  0  0  0  0  0
  183.8920  176.7600  138.2910 C   0  0  0  0  0  2  0  0  0  0  0  0
  184.7890  177.9600  138.0270 C   0  0  0  0  0  1  0  0  0  0  0  0
  185.8610  175.0600  136.7310 C   0  0  0  0  0  1  0  0  0  0  0  0
  184.6640  174.8320  137.4270 O   0  0  0  0  0  0  0  0  0  0  0  0
  183.0300  173.4020  135.4600 C   0  0  0  0  0  2  0  0  0  0  0  0
  183.4960  171.9620  135.5930 C   0  0  0  0  0  3  0  0  0  0  0  0
  183.7820  171.6240  137.0460 C   0  0  0  0  0  1  0  0  0  0  0  0
  184.7580  171.7630  134.7750 C   0  0  0  0  0  1  0  0  0  0  0  0
  2 11  2  0  0  0  0
  3 27  1  6  0  0  0
  3  8  1  0  0  0  0
  3 13  1  0  0  0  0
  5  9  1  0  0  0  0
  6  7  1  0  0  0  0
  7 12  1  0  0  0  0
  8 15  1  0  0  0  0
 10  4  1  6  0  0  0
 10  6  1  0  0  0  0
 10 13  1  0  0  0  0
 11  9  1  0  0  0  0
 12 14  2  0  0  0  0
 13 22  1  6  0  0  0
 14  5  1  0  0  0  0
 15  1  2  0  0  0  0
 15  2  1  0  0  0  0
 16 21  2  0  0  0  0
 16 18  1  0  0  0  0
 17 19  2  0  0  0  0
 18 12  1  6  0  0  0
 18 19  1  0  0  0  0
 19 20  1  0  0  0  0
 21 17  1  0  0  0  0
 22 26  1  0  0  0  0
 22 23  1  0  0  0  0
 24 23  1  0  0  0  0
 25 26  1  0  0  0  0
 27 28  1  0  0  0  0
 28 29  1  0  0  0  0
 30 28  1  0  0  0  0
M  END
>  <MODEL>
9

>  <REMARK>
 VINA RESULT:      -4.7      4.370      6.779
  Name = 
  6 active torsions:
  status: ('A' for Active; 'I' for Inactive)
    1  A    between atoms: C_2  and  N_10
    2  A    between atoms: C_6  and  C_25
    3  A    between atoms: C_8  and  C_21
    4  A    between atoms: N_10  and  O_17
    5  A    between atoms: N_10  and  C_27
    6  A    between atoms: C_22  and  C_25
                            x       y       z     vdW  Elec       q    Type
                         _______ _______ _______ _____ _____    ______ ____

>  <TORSDO>
F 6

$$$$
