=
 OpenBabel10222418333D

 65 71  0  0  1  0  0  0  0  0999 V2000
  190.5790  175.8090  137.2830 C   0  0  2  0  0  3  0  0  0  0  0  0
  190.1890  177.3880  139.0960 C   0  0  2  0  0  3  0  0  0  0  0  0
  187.7620  177.5300  138.7680 O   0  0  0  0  0  1  0  0  0  0  0  0
  192.4560  174.0190  137.2190 C   0  0  2  0  0  3  0  0  0  0  0  0
  190.9490  174.3460  137.1010 C   0  0  0  0  0  2  0  0  0  0  0  0
  189.0000  177.3530  138.1380 C   0  0  2  0  0  3  0  0  0  0  0  0
  191.1920  176.3670  138.5640 C   0  0  2  0  0  3  0  0  0  0  0  0
  193.2970  176.2250  137.5360 C   0  0  2  0  0  3  0  0  0  0  0  0
  192.4280  177.0100  138.3370 O   0  0  0  0  0  0  0  0  0  0  0  0
  189.0770  176.0200  137.4510 C   0  0  1  0  0  3  0  0  0  0  0  0
  193.0340  176.4140  136.1680 O   0  0  0  0  0  1  0  0  0  0  0  0
  193.3490  174.8650  137.9270 O   0  0  0  0  0  0  0  0  0  0  0  0
  190.5440  176.3320  141.3280 C   0  0  0  0  0  3  0  0  0  0  0  0
  189.8420  177.1380  140.5410 C   0  0  0  0  0  3  0  0  0  0  0  0
  190.0790  176.0230  142.7360 C   0  0  0  0  0  2  0  0  0  0  0  0
  190.1490  177.1970  143.7070 C   0  0  1  0  0  3  0  0  0  0  0  0
  190.6760  176.8770  147.2270 C   0  0  0  0  0  0  0  0  0  0  0  0
  189.6100  176.4290  147.7190 O   0  0  0  0  0  0  0  0  0  0  0  0
  191.9240  177.6900  145.1970 C   0  0  0  0  0  3  0  0  0  0  0  0
  191.8120  177.0530  148.0640 N   0  0  0  0  0  1  0  0  0  0  0  0
  189.7160  176.8130  144.9920 O   0  0  0  0  0  0  0  0  0  0  0  0
  190.7620  177.0990  145.8140 N   0  0  0  0  0  0  0  0  0  0  0  0
  191.5210  177.8340  143.7600 C   0  0  0  0  0  3  0  0  0  0  0  0
  188.2170  177.3210  135.4640 C   0  0  0  0  0  1  0  0  0  0  0  0
  188.2510  175.9720  136.1640 C   0  0  2  0  0  3  0  0  0  0  0  0
  186.8920  175.2530  136.2150 C   0  0  1  0  0  3  0  0  0  0  0  0
  186.7100  174.4690  137.3970 O   0  0  0  0  0  0  0  0  0  0  0  0
  186.6950  173.0730  137.3330 C   0  0  0  0  0  0  0  0  0  0  0  0
  187.8260  172.3780  136.8100 N   0  0  0  0  0  1  0  0  0  0  0  0
  185.6810  172.4240  137.7200 O   0  0  0  0  0  0  0  0  0  0  0  0
  185.6380  176.0430  135.8350 C   0  0  0  0  0  2  0  0  0  0  0  0
  183.2990  174.5550  136.6670 C   0  0  0  0  0  1  0  0  0  0  0  0
  183.5630  177.0020  136.7840 C   0  0  1  0  0  3  0  0  0  0  0  0
  184.9300  176.4470  137.1320 C   0  0  1  0  0  3  0  0  0  0  0  0
  183.6650  175.7070  137.5690 C   0  0  2  0  0  3  0  0  0  0  0  0
  185.3310  179.5530  144.9240 C   0  0  2  0  0  3  0  0  0  0  0  0
  186.7240  177.6620  143.8940 C   0  0  0  0  0  1  0  0  0  0  0  0
  183.2990  178.5250  144.0570 C   0  0  2  0  0  3  0  0  0  0  0  0
  184.8070  179.0170  139.6150 N   0  0  0  0  0  2  0  0  0  0  0  0
  183.6650  179.0070  140.4750 C   0  0  0  0  0  0  0  0  0  0  0  0
  182.3020  178.8210  139.8990 C   0  0  0  0  0  2  0  0  0  0  0  0
  185.9370  177.6300  146.1860 N   0  0  0  0  0  2  0  0  0  0  0  0
  183.9920  179.3410  143.0350 C   0  0  0  0  0  0  0  0  0  0  0  0
  185.6450  178.9560  137.4440 O   0  0  0  0  0  0  0  0  0  0  0  0
  186.4210  178.4990  145.1310 C   0  0  2  0  0  3  0  0  0  0  0  0
  181.8410  178.9180  144.1800 C   0  0  0  0  0  1  0  0  0  0  0  0
  183.8170  179.1780  141.7580 C   0  0  0  0  0  0  0  0  0  0  0  0
  184.0370  178.8710  145.3470 C   0  0  1  0  0  3  0  0  0  0  0  0
  184.6780  178.7400  138.2110 C   0  0  0  0  0  0  0  0  0  0  0  0
  184.4790  177.5990  146.0550 C   0  0  0  0  0  2  0  0  0  0  0  0
  182.3730  177.8320  138.7560 C   0  0  0  0  0  2  0  0  0  0  0  0
  183.3590  178.2540  137.6460 C   0  0  2  0  0  3  0  0  0  0  0  0
  185.1760  179.9440  143.5330 N   0  0  0  0  0  2  0  0  0  0  0  0
  193.0440  173.2540  136.1690 O   0  0  0  0  0  0  0  0  0  0  0  0
  195.0630  174.0260  135.3910 O   0  0  0  0  0  0  0  0  0  0  0  0
  194.4290  173.1210  136.0080 C   0  0  0  0  0  0  0  0  0  0  0  0
  196.1380  171.5610  135.5510 O   0  0  0  0  0  1  0  0  0  0  0  0
  195.1700  171.9250  136.5260 C   0  0  2  0  0  0  0  0  0  0  0  0
  194.2190  170.8870  136.7890 O   0  0  0  0  0  0  0  0  0  0  0  0
  194.1640  169.9440  135.7330 C   0  0  0  0  0  1  0  0  0  0  0  0
  195.0000  172.2010  138.9450 O   0  0  0  0  0  1  0  0  0  0  0  0
  195.8760  172.3160  137.8480 C   0  0  2  0  0  3  0  0  0  0  0  0
  197.9430  173.4720  137.4990 O   0  0  0  0  0  1  0  0  0  0  0  0
  196.6070  173.6760  137.8330 C   0  0  2  0  0  3  0  0  0  0  0  0
  196.5550  174.3390  139.1930 C   0  0  0  0  0  1  0  0  0  0  0  0
  1  5  1  1  0  0  0
  1 10  1  0  0  0  0
  1  7  1  0  0  0  0
  2 14  1  1  0  0  0
  4 54  1  6  0  0  0
  4 12  1  0  0  0  0
  5  4  1  0  0  0  0
  6  3  1  1  0  0  0
  6  2  1  0  0  0  0
  7  9  1  6  0  0  0
  7  2  1  0  0  0  0
  8 11  1  6  0  0  0
  8 12  1  0  0  0  0
  8  9  1  0  0  0  0
 10 25  1  6  0  0  0
 10  6  1  0  0  0  0
 13 15  1  0  0  0  0
 14 13  2  0  0  0  0
 16 15  1  6  0  0  0
 16 23  1  0  0  0  0
 16 21  1  0  0  0  0
 17 18  2  0  0  0  0
 17 20  1  0  0  0  0
 19 22  1  0  0  0  0
 21 22  1  0  0  0  0
 22 17  1  0  0  0  0
 23 19  2  0  0  0  0
 25 24  1  1  0  0  0
 25 26  1  0  0  0  0
 26 31  1  1  0  0  0
 26 27  1  0  0  0  0
 28 27  1  0  0  0  0
 28 30  2  0  0  0  0
 29 28  1  0  0  0  0
 33 34  1  0  0  0  0
 33 35  1  0  0  0  0
 33 52  1  1  0  0  0
 34 31  1  6  0  0  0
 34 35  1  0  0  0  0
 35 32  1  6  0  0  0
 36 53  1  6  0  0  0
 36 45  1  0  0  0  0
 36 48  1  0  0  0  0
 38 46  1  1  0  0  0
 38 48  1  0  0  0  0
 39 40  1  0  0  0  0
 40 47  2  0  0  0  0
 41 40  1  0  0  0  0
 43 53  1  0  0  0  0
 43 38  1  0  0  0  0
 44 49  2  0  0  0  0
 45 37  1  6  0  0  0
 45 42  1  0  0  0  0
 47 43  2  0  0  0  0
 48 50  1  6  0  0  0
 49 39  1  0  0  0  0
 50 42  1  0  0  0  0
 51 41  1  0  0  0  0
 52 49  1  0  0  0  0
 52 51  1  1  0  0  0
 55 56  2  0  0  0  0
 56 54  1  0  0  0  0
 56 58  1  0  0  0  0
 58 57  1  6  0  0  0
 58 59  1  0  0  0  0
 58 62  1  0  0  0  0
 60 59  1  0  0  0  0
 62 61  1  1  0  0  0
 63 64  1  0  0  0  0
 64 62  1  0  0  0  0
 64 65  1  1  0  0  0
M  END
>  <MODEL>
1

>  <REMARK>
 VINA RESULT:      -7.8      0.000      0.000
  Name = 
  16 active torsions:
  status: ('A' for Active; 'I' for Inactive)
    1  A    between atoms: C_2  and  C_39
    2  A    between atoms: C_5  and  C_24
    3  A    between atoms: C_5  and  C_51
    4  A    between atoms: O_7  and  C_55
    5  A    between atoms: C_8  and  C_39
    6  A    between atoms: C_10  and  O_36
    7  A    between atoms: C_11  and  C_35
    8  A    between atoms: C_15  and  O_28
    9  A    between atoms: C_19  and  C_31
   10  A    between atoms: C_19  and  C_55
   11  A    between atoms: C_24  and  O_36
   12  A    between atoms: C_24  and  C_54
   13  A    between atoms: O_28  and  C_50
   14  A    between atoms: C_33  and  C_62
   15  A    between atoms: C_37  and  C_54
   16  A    between atoms: C_50  and  C_55
                            x       y       z     vdW  Elec       q    Type
                         _______ _______ _______ _____ _____    ______ ____

>  <TORSDO>
F 16

$$$$
=
 OpenBabel10222418333D

 65 71  0  0  1  0  0  0  0  0999 V2000
  188.5300  176.1400  136.9950 C   0  0  2  0  0  3  0  0  0  0  0  0
  188.1840  177.8750  138.6690 C   0  0  2  0  0  3  0  0  0  0  0  0
  185.7340  177.8360  138.5480 O   0  0  0  0  0  1  0  0  0  0  0  0
  190.5140  174.4690  136.9430 C   0  0  2  0  0  3  0  0  0  0  0  0
  188.9830  174.6900  136.9280 C   0  0  0  0  0  2  0  0  0  0  0  0
  186.9240  177.6690  137.8300 C   0  0  2  0  0  3  0  0  0  0  0  0
  189.2070  176.8660  138.1540 C   0  0  2  0  0  3  0  0  0  0  0  0
  191.2240  176.7420  136.9600 C   0  0  2  0  0  3  0  0  0  0  0  0
  190.3730  177.5540  137.7540 O   0  0  0  0  0  0  0  0  0  0  0  0
  187.0360  176.2770  137.2760 C   0  0  1  0  0  3  0  0  0  0  0  0
  190.8360  176.7700  135.6100 O   0  0  0  0  0  1  0  0  0  0  0  0
  191.4020  175.4360  137.4800 O   0  0  0  0  0  0  0  0  0  0  0  0
  188.9700  177.7950  141.0350 C   0  0  0  0  0  3  0  0  0  0  0  0
  187.9760  177.7590  140.1570 C   0  0  0  0  0  3  0  0  0  0  0  0
  188.7160  177.5520  142.5070 C   0  0  0  0  0  2  0  0  0  0  0  0
  189.7180  178.2120  143.4500 C   0  0  1  0  0  3  0  0  0  0  0  0
  190.4650  177.0440  146.7440 C   0  0  0  0  0  0  0  0  0  0  0  0
  189.4760  177.3270  147.4670 O   0  0  0  0  0  0  0  0  0  0  0  0
  191.5750  177.1670  144.4870 C   0  0  0  0  0  3  0  0  0  0  0  0
  191.5400  176.2920  147.2920 N   0  0  0  0  0  1  0  0  0  0  0  0
  189.3600  177.9960  144.7950 O   0  0  0  0  0  0  0  0  0  0  0  0
  190.4420  177.3870  145.3530 N   0  0  0  0  0  0  0  0  0  0  0  0
  191.1450  177.7770  143.1870 C   0  0  0  0  0  3  0  0  0  0  0  0
  185.6810  177.3520  135.4340 C   0  0  0  0  0  1  0  0  0  0  0  0
  186.1110  176.0440  136.0790 C   0  0  2  0  0  3  0  0  0  0  0  0
  184.9760  175.0190  136.2440 C   0  0  1  0  0  3  0  0  0  0  0  0
  185.0330  174.3050  137.4810 O   0  0  0  0  0  0  0  0  0  0  0  0
  185.4290  172.9640  137.5150 C   0  0  0  0  0  0  0  0  0  0  0  0
  184.8210  172.0270  136.6280 N   0  0  0  0  0  1  0  0  0  0  0  0
  186.3100  172.5760  138.3350 O   0  0  0  0  0  0  0  0  0  0  0  0
  183.5530  175.4460  135.8770 C   0  0  0  0  0  2  0  0  0  0  0  0
  181.5380  173.5850  136.8020 C   0  0  0  0  0  1  0  0  0  0  0  0
  181.3570  176.0420  136.8490 C   0  0  1  0  0  3  0  0  0  0  0  0
  182.8080  175.7540  137.1790 C   0  0  1  0  0  3  0  0  0  0  0  0
  181.7060  174.8110  137.6650 C   0  0  2  0  0  3  0  0  0  0  0  0
  183.9250  179.9680  144.1900 C   0  0  2  0  0  3  0  0  0  0  0  0
  185.6020  178.4950  142.9280 C   0  0  0  0  0  1  0  0  0  0  0  0
  182.2090  178.2630  143.8940 C   0  0  2  0  0  3  0  0  0  0  0  0
  182.4550  178.6660  139.2010 N   0  0  0  0  0  2  0  0  0  0  0  0
  181.5990  178.4050  140.3160 C   0  0  0  0  0  0  0  0  0  0  0  0
  180.2820  177.7370  140.1020 C   0  0  0  0  0  2  0  0  0  0  0  0
  185.3940  178.4930  145.3430 N   0  0  0  0  0  2  0  0  0  0  0  0
  182.3510  179.1260  142.7010 C   0  0  0  0  0  0  0  0  0  0  0  0
  182.7680  178.6110  136.8950 O   0  0  0  0  0  0  0  0  0  0  0  0
  185.3190  179.3370  144.1660 C   0  0  2  0  0  3  0  0  0  0  0  0
  180.7680  178.1950  144.3560 C   0  0  0  0  0  1  0  0  0  0  0  0
  181.9630  178.7660  141.5130 C   0  0  0  0  0  0  0  0  0  0  0  0
  183.0560  178.9720  144.9470 C   0  0  1  0  0  3  0  0  0  0  0  0
  182.1200  178.1980  137.8850 C   0  0  0  0  0  0  0  0  0  0  0  0
  184.0370  177.9950  145.5760 C   0  0  0  0  0  2  0  0  0  0  0  0
  180.4240  176.6900  139.0180 C   0  0  0  0  0  2  0  0  0  0  0  0
  180.9450  177.2620  137.6830 C   0  0  2  0  0  3  0  0  0  0  0  0
  183.3480  180.1220  142.8660 N   0  0  0  0  0  2  0  0  0  0  0  0
  191.0630  173.6340  135.9270 O   0  0  0  0  0  0  0  0  0  0  0  0
  192.6130  174.6830  134.5940 O   0  0  0  0  0  0  0  0  0  0  0  0
  192.3710  173.7800  135.4470 C   0  0  0  0  0  0  0  0  0  0  0  0
  194.4760  172.8740  134.8860 O   0  0  0  0  0  1  0  0  0  0  0  0
  193.4810  172.8790  135.9000 C   0  0  2  0  0  0  0  0  0  0  0  0
  192.9310  171.5810  136.1530 O   0  0  0  0  0  0  0  0  0  0  0  0
  193.1110  170.7090  135.0520 C   0  0  0  0  0  1  0  0  0  0  0  0
  194.5140  174.7730  137.0420 O   0  0  0  0  0  1  0  0  0  0  0  0
  194.0720  173.4470  137.2150 C   0  0  2  0  0  3  0  0  0  0  0  0
  195.5240  173.1590  139.0960 O   0  0  0  0  0  1  0  0  0  0  0  0
  195.1420  172.5660  137.8950 C   0  0  2  0  0  3  0  0  0  0  0  0
  196.3710  172.4280  137.0240 C   0  0  0  0  0  1  0  0  0  0  0  0
  1  5  1  1  0  0  0
  1 10  1  0  0  0  0
  1  7  1  0  0  0  0
  2 14  1  1  0  0  0
  4 54  1  6  0  0  0
  4 12  1  0  0  0  0
  5  4  1  0  0  0  0
  6  3  1  1  0  0  0
  6  2  1  0  0  0  0
  7  9  1  6  0  0  0
  7  2  1  0  0  0  0
  8 11  1  6  0  0  0
  8 12  1  0  0  0  0
  8  9  1  0  0  0  0
 10 25  1  6  0  0  0
 10  6  1  0  0  0  0
 13 15  1  0  0  0  0
 14 13  2  0  0  0  0
 16 15  1  6  0  0  0
 16 21  1  0  0  0  0
 17 20  1  0  0  0  0
 17 18  2  0  0  0  0
 19 22  1  0  0  0  0
 21 22  1  0  0  0  0
 22 17  1  0  0  0  0
 23 16  1  0  0  0  0
 23 19  2  0  0  0  0
 25 24  1  1  0  0  0
 25 26  1  0  0  0  0
 26 31  1  1  0  0  0
 26 27  1  0  0  0  0
 27 28  1  0  0  0  0
 28 30  2  0  0  0  0
 29 28  1  0  0  0  0
 33 34  1  0  0  0  0
 33 35  1  0  0  0  0
 33 52  1  1  0  0  0
 34 31  1  6  0  0  0
 34 35  1  0  0  0  0
 35 32  1  6  0  0  0
 36 53  1  6  0  0  0
 36 48  1  0  0  0  0
 38 46  1  1  0  0  0
 38 48  1  0  0  0  0
 39 40  1  0  0  0  0
 40 47  2  0  0  0  0
 41 40  1  0  0  0  0
 42 50  1  0  0  0  0
 43 53  1  0  0  0  0
 43 38  1  0  0  0  0
 44 49  2  0  0  0  0
 45 37  1  6  0  0  0
 45 36  1  0  0  0  0
 45 42  1  0  0  0  0
 47 43  2  0  0  0  0
 48 50  1  6  0  0  0
 49 39  1  0  0  0  0
 51 41  1  0  0  0  0
 52 49  1  0  0  0  0
 52 51  1  1  0  0  0
 55 56  2  0  0  0  0
 56 58  1  0  0  0  0
 56 54  1  0  0  0  0
 58 57  1  6  0  0  0
 58 59  1  0  0  0  0
 58 62  1  0  0  0  0
 60 59  1  0  0  0  0
 62 61  1  6  0  0  0
 62 64  1  0  0  0  0
 64 65  1  6  0  0  0
 64 63  1  0  0  0  0
M  END
>  <MODEL>
2

>  <REMARK>
 VINA RESULT:      -6.4      1.549      2.005
  Name = 
  16 active torsions:
  status: ('A' for Active; 'I' for Inactive)
    1  A    between atoms: C_2  and  C_39
    2  A    between atoms: C_5  and  C_24
    3  A    between atoms: C_5  and  C_51
    4  A    between atoms: O_7  and  C_55
    5  A    between atoms: C_8  and  C_39
    6  A    between atoms: C_10  and  O_36
    7  A    between atoms: C_11  and  C_35
    8  A    between atoms: C_15  and  O_28
    9  A    between atoms: C_19  and  C_31
   10  A    between atoms: C_19  and  C_55
   11  A    between atoms: C_24  and  O_36
   12  A    between atoms: C_24  and  C_54
   13  A    between atoms: O_28  and  C_50
   14  A    between atoms: C_33  and  C_62
   15  A    between atoms: C_37  and  C_54
   16  A    between atoms: C_50  and  C_55
                            x       y       z     vdW  Elec       q    Type
                         _______ _______ _______ _____ _____    ______ ____

>  <TORSDO>
F 16

$$$$
=
 OpenBabel10222418333D

 65 71  0  0  1  0  0  0  0  0999 V2000
  186.1410  178.3610  144.1440 C   0  0  2  0  0  3  0  0  0  0  0  0
  183.9450  179.2490  143.5740 C   0  0  2  0  0  3  0  0  0  0  0  0
  184.2960  179.2090  141.1470 O   0  0  0  0  0  1  0  0  0  0  0  0
  186.6860  176.9020  146.2190 C   0  0  2  0  0  3  0  0  0  0  0  0
  186.7500  177.0770  144.6830 C   0  0  0  0  0  2  0  0  0  0  0  0
  184.9070  179.3770  142.3950 C   0  0  2  0  0  3  0  0  0  0  0  0
  184.7290  178.5620  144.6890 C   0  0  2  0  0  3  0  0  0  0  0  0
  185.6800  178.9830  146.7940 C   0  0  2  0  0  3  0  0  0  0  0  0
  184.7060  179.3790  145.8400 O   0  0  0  0  0  0  0  0  0  0  0  0
  185.9670  178.3380  142.6280 C   0  0  1  0  0  3  0  0  0  0  0  0
  186.9310  179.5540  146.5070 O   0  0  0  0  0  1  0  0  0  0  0  0
  185.7230  177.5840  147.0070 O   0  0  0  0  0  0  0  0  0  0  0  0
  181.4620  179.0790  143.4120 C   0  0  0  0  0  3  0  0  0  0  0  0
  182.6590  178.5270  143.2620 C   0  0  0  0  0  3  0  0  0  0  0  0
  180.2000  178.2680  143.2000 C   0  0  0  0  0  2  0  0  0  0  0  0
  179.6530  178.2940  141.7760 C   0  0  1  0  0  3  0  0  0  0  0  0
  181.1860  180.0300  139.0540 C   0  0  0  0  0  0  0  0  0  0  0  0
  180.9840  181.2570  139.2400 O   0  0  0  0  0  0  0  0  0  0  0  0
  180.8110  177.6570  139.8090 C   0  0  0  0  0  3  0  0  0  0  0  0
  181.9970  179.6120  137.9640 N   0  0  0  0  0  1  0  0  0  0  0  0
  180.0180  179.4860  141.1190 O   0  0  0  0  0  0  0  0  0  0  0  0
  180.6880  179.0810  140.0060 N   0  0  0  0  0  0  0  0  0  0  0  0
  180.0580  177.0790  140.9690 C   0  0  0  0  0  3  0  0  0  0  0  0
  187.8140  179.9740  142.0870 C   0  0  0  0  0  1  0  0  0  0  0  0
  187.2340  178.5970  141.8100 C   0  0  2  0  0  3  0  0  0  0  0  0
  187.2140  178.2090  140.3220 C   0  0  1  0  0  3  0  0  0  0  0  0
  186.1000  178.7540  139.6090 O   0  0  0  0  0  0  0  0  0  0  0  0
  185.8450  178.3770  138.2870 C   0  0  0  0  0  0  0  0  0  0  0  0
  184.9870  177.2680  138.0230 N   0  0  0  0  0  1  0  0  0  0  0  0
  186.3810  179.0020  137.3270 O   0  0  0  0  0  0  0  0  0  0  0  0
  188.5200  178.3010  139.5290 C   0  0  0  0  0  2  0  0  0  0  0  0
  191.2330  177.3230  139.7710 C   0  0  0  0  0  1  0  0  0  0  0  0
  189.7700  177.0330  137.8110 C   0  0  1  0  0  3  0  0  0  0  0  0
  188.8480  176.8990  139.0050 C   0  0  1  0  0  3  0  0  0  0  0  0
  190.2830  176.3770  139.0790 C   0  0  2  0  0  3  0  0  0  0  0  0
  182.1010  174.0800  134.9200 C   0  0  2  0  0  3  0  0  0  0  0  0
  182.1770  176.3450  136.1190 C   0  0  0  0  0  1  0  0  0  0  0  0
  183.5530  173.1280  136.6300 C   0  0  2  0  0  3  0  0  0  0  0  0
  187.0170  176.1330  135.5230 N   0  0  0  0  0  2  0  0  0  0  0  0
  186.7050  174.8150  135.9820 C   0  0  0  0  0  0  0  0  0  0  0  0
  187.7500  173.9980  136.6640 C   0  0  0  0  0  2  0  0  0  0  0  0
  180.4270  174.7100  136.4890 N   0  0  0  0  0  2  0  0  0  0  0  0
  184.3150  173.8600  135.5940 C   0  0  0  0  0  0  0  0  0  0  0  0
  188.6230  177.7910  135.2220 O   0  0  0  0  0  0  0  0  0  0  0  0
  181.3120  175.2640  135.4830 C   0  0  2  0  0  3  0  0  0  0  0  0
  184.0950  171.7270  136.8240 C   0  0  0  0  0  1  0  0  0  0  0  0
  185.5130  174.3260  135.7890 C   0  0  0  0  0  0  0  0  0  0  0  0
  182.1430  173.0610  136.0510 C   0  0  1  0  0  3  0  0  0  0  0  0
  188.2920  176.7310  135.8030 C   0  0  0  0  0  0  0  0  0  0  0  0
  181.1340  173.5670  137.0710 C   0  0  0  0  0  2  0  0  0  0  0  0
  188.6020  174.8990  137.5310 C   0  0  0  0  0  2  0  0  0  0  0  0
  189.2650  176.0510  136.7460 C   0  0  2  0  0  3  0  0  0  0  0  0
  183.4760  174.4170  134.5940 N   0  0  0  0  0  2  0  0  0  0  0  0
  187.8990  176.5710  146.8900 O   0  0  0  0  0  0  0  0  0  0  0  0
  189.1010  178.3910  147.6100 O   0  0  0  0  0  0  0  0  0  0  0  0
  189.0390  177.3840  146.8470 C   0  0  0  0  0  0  0  0  0  0  0  0
  190.0520  175.7550  145.4740 O   0  0  0  0  0  1  0  0  0  0  0  0
  190.1710  177.1040  145.9040 C   0  0  2  0  0  0  0  0  0  0  0  0
  191.4010  177.3690  146.5880 O   0  0  0  0  0  0  0  0  0  0  0  0
  191.8930  176.2190  147.2510 C   0  0  0  0  0  1  0  0  0  0  0  0
  189.5170  177.3880  143.5700 O   0  0  0  0  0  1  0  0  0  0  0  0
  190.0480  178.0580  144.6890 C   0  0  2  0  0  3  0  0  0  0  0  0
  190.9710  180.1440  143.9670 O   0  0  0  0  0  1  0  0  0  0  0  0
  191.3250  178.8490  144.3360 C   0  0  2  0  0  3  0  0  0  0  0  0
  192.0600  178.2120  143.1760 C   0  0  0  0  0  1  0  0  0  0  0  0
  1  5  1  1  0  0  0
  1  7  1  0  0  0  0
  2 14  1  6  0  0  0
  2  7  1  0  0  0  0
  4 54  1  1  0  0  0
  4 12  1  0  0  0  0
  5  4  1  0  0  0  0
  6  3  1  6  0  0  0
  6 10  1  0  0  0  0
  6  2  1  0  0  0  0
  7  9  1  1  0  0  0
  8 11  1  6  0  0  0
  8 12  1  0  0  0  0
  9  8  1  0  0  0  0
 10 25  1  6  0  0  0
 10  1  1  0  0  0  0
 14 13  2  0  0  0  0
 15 13  1  0  0  0  0
 16 15  1  1  0  0  0
 17 18  2  0  0  0  0
 17 22  1  0  0  0  0
 19 22  1  0  0  0  0
 19 23  2  0  0  0  0
 20 17  1  0  0  0  0
 21 16  1  0  0  0  0
 22 21  1  0  0  0  0
 23 16  1  0  0  0  0
 25 24  1  6  0  0  0
 26 31  1  6  0  0  0
 26 25  1  0  0  0  0
 27 26  1  0  0  0  0
 28 27  1  0  0  0  0
 29 28  1  0  0  0  0
 30 28  2  0  0  0  0
 33 52  1  6  0  0  0
 33 34  1  0  0  0  0
 33 35  1  0  0  0  0
 34 35  1  0  0  0  0
 34 31  1  1  0  0  0
 35 32  1  1  0  0  0
 36 53  1  1  0  0  0
 36 45  1  0  0  0  0
 36 48  1  0  0  0  0
 38 46  1  6  0  0  0
 39 49  1  0  0  0  0
 39 40  1  0  0  0  0
 40 41  1  0  0  0  0
 41 51  1  0  0  0  0
 42 50  1  0  0  0  0
 43 47  2  0  0  0  0
 43 38  1  0  0  0  0
 44 49  2  0  0  0  0
 45 37  1  1  0  0  0
 45 42  1  0  0  0  0
 47 40  2  0  0  0  0
 48 38  1  0  0  0  0
 48 50  1  1  0  0  0
 49 52  1  0  0  0  0
 52 51  1  1  0  0  0
 53 43  1  0  0  0  0
 56 54  1  0  0  0  0
 56 55  2  0  0  0  0
 58 57  1  6  0  0  0
 58 59  1  0  0  0  0
 58 56  1  0  0  0  0
 59 60  1  0  0  0  0
 62 61  1  6  0  0  0
 62 58  1  0  0  0  0
 63 64  1  0  0  0  0
 64 65  1  6  0  0  0
 64 62  1  0  0  0  0
M  END
>  <MODEL>
3

>  <REMARK>
 VINA RESULT:      -6.2      4.597      9.669
  Name = 
  16 active torsions:
  status: ('A' for Active; 'I' for Inactive)
    1  A    between atoms: C_2  and  C_39
    2  A    between atoms: C_5  and  C_24
    3  A    between atoms: C_5  and  C_51
    4  A    between atoms: O_7  and  C_55
    5  A    between atoms: C_8  and  C_39
    6  A    between atoms: C_10  and  O_36
    7  A    between atoms: C_11  and  C_35
    8  A    between atoms: C_15  and  O_28
    9  A    between atoms: C_19  and  C_31
   10  A    between atoms: C_19  and  C_55
   11  A    between atoms: C_24  and  O_36
   12  A    between atoms: C_24  and  C_54
   13  A    between atoms: O_28  and  C_50
   14  A    between atoms: C_33  and  C_62
   15  A    between atoms: C_37  and  C_54
   16  A    between atoms: C_50  and  C_55
                            x       y       z     vdW  Elec       q    Type
                         _______ _______ _______ _____ _____    ______ ____

>  <TORSDO>
F 16

$$$$
=
 OpenBabel10222418333D

 65 71  0  0  1  0  0  0  0  0999 V2000
  186.1780  178.4540  140.6510 C   0  0  2  0  0  3  0  0  0  0  0  0
  184.1660  178.1330  139.3170 C   0  0  2  0  0  3  0  0  0  0  0  0
  185.3450  177.7200  137.2060 O   0  0  0  0  0  1  0  0  0  0  0  0
  186.4250  177.8810  143.1700 C   0  0  2  0  0  3  0  0  0  0  0  0
  186.9640  177.7240  141.7280 C   0  0  0  0  0  2  0  0  0  0  0  0
  185.3730  178.4100  138.4240 C   0  0  2  0  0  3  0  0  0  0  0  0
  184.6910  178.1260  140.7500 C   0  0  2  0  0  3  0  0  0  0  0  0
  184.6200  179.3740  142.7380 C   0  0  2  0  0  3  0  0  0  0  0  0
  183.9760  179.0800  141.5070 O   0  0  0  0  0  0  0  0  0  0  0  0
  186.5730  178.0250  139.2410 C   0  0  1  0  0  3  0  0  0  0  0  0
  185.6070  180.3600  142.5680 O   0  0  0  0  0  1  0  0  0  0  0  0
  185.0720  178.2220  143.4270 O   0  0  0  0  0  0  0  0  0  0  0  0
  182.1040  176.7390  139.1470 C   0  0  0  0  0  3  0  0  0  0  0  0
  183.4140  176.8680  138.9860 C   0  0  0  0  0  3  0  0  0  0  0  0
  181.4190  175.4090  138.9140 C   0  0  0  0  0  2  0  0  0  0  0  0
  181.5920  174.8360  137.5100 C   0  0  1  0  0  3  0  0  0  0  0  0
  183.4370  171.8700  136.7530 C   0  0  0  0  0  0  0  0  0  0  0  0
  184.6550  172.1540  136.8740 O   0  0  0  0  0  0  0  0  0  0  0  0
  181.0400  172.6420  136.8070 C   0  0  0  0  0  3  0  0  0  0  0  0
  183.0560  170.5300  136.4710 N   0  0  0  0  0  1  0  0  0  0  0  0
  182.8060  174.1290  137.4020 O   0  0  0  0  0  0  0  0  0  0  0  0
  182.4490  172.8770  137.0090 N   0  0  0  0  0  0  0  0  0  0  0  0
  180.4210  173.9790  137.0780 C   0  0  0  0  0  3  0  0  0  0  0  0
  187.6670  179.2920  137.3490 C   0  0  0  0  0  1  0  0  0  0  0  0
  187.8720  178.6300  138.7020 C   0  0  2  0  0  3  0  0  0  0  0  0
  189.1490  177.7800  138.8020 C   0  0  1  0  0  3  0  0  0  0  0  0
  189.9070  178.0320  139.9880 O   0  0  0  0  0  0  0  0  0  0  0  0
  190.8920  177.1350  140.4120 C   0  0  0  0  0  0  0  0  0  0  0  0
  190.6160  176.2430  141.4910 N   0  0  0  0  0  1  0  0  0  0  0  0
  192.0270  177.1200  139.8560 O   0  0  0  0  0  0  0  0  0  0  0  0
  189.0580  176.2890  138.4700 C   0  0  0  0  0  2  0  0  0  0  0  0
  186.9350  174.7780  137.2100 C   0  0  0  0  0  1  0  0  0  0  0  0
  189.3180  174.6990  136.5920 C   0  0  1  0  0  3  0  0  0  0  0  0
  189.0580  176.1490  136.9440 C   0  0  1  0  0  3  0  0  0  0  0  0
  187.9740  175.3170  136.2580 C   0  0  2  0  0  3  0  0  0  0  0  0
  197.8100  173.1200  135.4540 C   0  0  2  0  0  3  0  0  0  0  0  0
  196.6260  172.0950  137.4840 C   0  0  0  0  0  1  0  0  0  0  0  0
  196.7000  175.2470  135.8830 C   0  0  2  0  0  3  0  0  0  0  0  0
  192.4550  173.2900  135.2500 N   0  0  0  0  0  2  0  0  0  0  0  0
  193.2380  174.4760  135.0950 C   0  0  0  0  0  0  0  0  0  0  0  0
  192.5650  175.7920  134.8970 C   0  0  0  0  0  2  0  0  0  0  0  0
  198.8450  173.0650  137.5950 N   0  0  0  0  0  2  0  0  0  0  0  0
  195.8350  174.3060  135.1380 C   0  0  0  0  0  0  0  0  0  0  0  0
  190.3480  172.3020  135.2550 O   0  0  0  0  0  0  0  0  0  0  0  0
  197.9420  172.3120  136.7470 C   0  0  2  0  0  3  0  0  0  0  0  0
  196.7870  176.5870  135.1830 C   0  0  0  0  0  1  0  0  0  0  0  0
  194.5390  174.4020  135.1100 C   0  0  0  0  0  0  0  0  0  0  0  0
  198.0650  174.5640  135.8640 C   0  0  1  0  0  3  0  0  0  0  0  0
  191.0220  173.3550  135.3290 C   0  0  0  0  0  0  0  0  0  0  0  0
  198.6260  174.4770  137.2760 C   0  0  0  0  0  2  0  0  0  0  0  0
  191.3090  175.8420  135.7400 C   0  0  0  0  0  2  0  0  0  0  0  0
  190.3220  174.6960  135.4320 C   0  0  2  0  0  3  0  0  0  0  0  0
  196.4750  173.0650  134.8830 N   0  0  0  0  0  2  0  0  0  0  0  0
  187.3550  178.2760  144.1760 O   0  0  0  0  0  0  0  0  0  0  0  0
  186.2180  177.5160  146.0220 O   0  0  0  0  0  0  0  0  0  0  0  0
  187.3340  177.7560  145.4770 C   0  0  0  0  0  0  0  0  0  0  0  0
  188.4380  176.2810  146.9500 O   0  0  0  0  0  1  0  0  0  0  0  0
  188.5970  177.5030  146.2440 C   0  0  2  0  0  0  0  0  0  0  0  0
  188.8310  178.6230  147.1060 O   0  0  0  0  0  0  0  0  0  0  0  0
  188.7860  178.2540  148.4720 C   0  0  0  0  0  1  0  0  0  0  0  0
  189.6380  176.2250  144.4430 O   0  0  0  0  0  1  0  0  0  0  0  0
  189.7700  177.3810  145.2380 C   0  0  2  0  0  3  0  0  0  0  0  0
  192.0490  178.0200  144.8870 O   0  0  0  0  0  1  0  0  0  0  0  0
  191.1820  177.5050  145.8480 C   0  0  2  0  0  3  0  0  0  0  0  0
  191.7090  176.1560  146.2850 C   0  0  0  0  0  1  0  0  0  0  0  0
  1  7  1  0  0  0  0
  1  5  1  1  0  0  0
  2 14  1  6  0  0  0
  2  7  1  0  0  0  0
  4 12  1  0  0  0  0
  4 54  1  6  0  0  0
  5  4  1  0  0  0  0
  6  3  1  6  0  0  0
  6 10  1  0  0  0  0
  6  2  1  0  0  0  0
  7  9  1  1  0  0  0
  8 11  1  6  0  0  0
  8 12  1  0  0  0  0
  9  8  1  0  0  0  0
 10 25  1  6  0  0  0
 10  1  1  0  0  0  0
 14 13  2  0  0  0  0
 15 13  1  0  0  0  0
 16 15  1  1  0  0  0
 17 18  2  0  0  0  0
 17 22  1  0  0  0  0
 19 22  1  0  0  0  0
 19 23  2  0  0  0  0
 20 17  1  0  0  0  0
 21 16  1  0  0  0  0
 22 21  1  0  0  0  0
 23 16  1  0  0  0  0
 25 24  1  6  0  0  0
 25 26  1  0  0  0  0
 26 31  1  1  0  0  0
 26 27  1  0  0  0  0
 27 28  1  0  0  0  0
 28 29  1  0  0  0  0
 30 28  2  0  0  0  0
 33 52  1  6  0  0  0
 33 34  1  0  0  0  0
 34 31  1  1  0  0  0
 35 33  1  0  0  0  0
 35 34  1  0  0  0  0
 35 32  1  1  0  0  0
 36 53  1  1  0  0  0
 36 48  1  0  0  0  0
 36 45  1  0  0  0  0
 38 46  1  6  0  0  0
 39 49  1  0  0  0  0
 40 47  2  0  0  0  0
 40 39  1  0  0  0  0
 41 40  1  0  0  0  0
 41 51  1  0  0  0  0
 43 38  1  0  0  0  0
 44 49  2  0  0  0  0
 45 37  1  1  0  0  0
 45 42  1  0  0  0  0
 47 43  2  0  0  0  0
 48 38  1  0  0  0  0
 48 50  1  1  0  0  0
 49 52  1  0  0  0  0
 50 42  1  0  0  0  0
 52 51  1  1  0  0  0
 53 43  1  0  0  0  0
 54 56  1  0  0  0  0
 56 55  2  0  0  0  0
 56 58  1  0  0  0  0
 58 57  1  1  0  0  0
 58 59  1  0  0  0  0
 59 60  1  0  0  0  0
 62 61  1  1  0  0  0
 62 64  1  0  0  0  0
 62 58  1  0  0  0  0
 63 64  1  0  0  0  0
 64 65  1  6  0  0  0
M  END
>  <MODEL>
4

>  <REMARK>
 VINA RESULT:      -6.2      3.081     11.052
  Name = 
  16 active torsions:
  status: ('A' for Active; 'I' for Inactive)
    1  A    between atoms: C_2  and  C_39
    2  A    between atoms: C_5  and  C_24
    3  A    between atoms: C_5  and  C_51
    4  A    between atoms: O_7  and  C_55
    5  A    between atoms: C_8  and  C_39
    6  A    between atoms: C_10  and  O_36
    7  A    between atoms: C_11  and  C_35
    8  A    between atoms: C_15  and  O_28
    9  A    between atoms: C_19  and  C_31
   10  A    between atoms: C_19  and  C_55
   11  A    between atoms: C_24  and  O_36
   12  A    between atoms: C_24  and  C_54
   13  A    between atoms: O_28  and  C_50
   14  A    between atoms: C_33  and  C_62
   15  A    between atoms: C_37  and  C_54
   16  A    between atoms: C_50  and  C_55
                            x       y       z     vdW  Elec       q    Type
                         _______ _______ _______ _____ _____    ______ ____

>  <TORSDO>
F 16

$$$$
=
 OpenBabel10222418333D

 65 71  0  0  1  0  0  0  0  0999 V2000
  186.1490  178.2780  142.7030 C   0  0  2  0  0  3  0  0  0  0  0  0
  184.2160  178.8360  141.3290 C   0  0  2  0  0  3  0  0  0  0  0  0
  185.3560  178.5210  139.1800 O   0  0  0  0  0  1  0  0  0  0  0  0
  186.0630  177.1700  145.0480 C   0  0  2  0  0  3  0  0  0  0  0  0
  186.6220  177.1510  143.6060 C   0  0  0  0  0  2  0  0  0  0  0  0
  185.5060  178.9160  140.5140 C   0  0  2  0  0  3  0  0  0  0  0  0
  184.6270  178.3910  142.7300 C   0  0  2  0  0  3  0  0  0  0  0  0
  184.7950  179.1830  144.9330 C   0  0  2  0  0  3  0  0  0  0  0  0
  184.1710  179.3420  143.6680 O   0  0  0  0  0  0  0  0  0  0  0  0
  186.4910  178.0400  141.2350 C   0  0  1  0  0  3  0  0  0  0  0  0
  186.0330  179.8480  144.9740 O   0  0  0  0  0  1  0  0  0  0  0  0
  184.8520  177.8370  145.3680 O   0  0  0  0  0  0  0  0  0  0  0  0
  182.1150  178.4010  140.0580 C   0  0  0  0  0  3  0  0  0  0  0  0
  183.1550  177.9410  140.7410 C   0  0  0  0  0  3  0  0  0  0  0  0
  181.0150  177.4690  139.5950 C   0  0  0  0  0  2  0  0  0  0  0  0
  179.6800  177.6440  140.3120 C   0  0  1  0  0  3  0  0  0  0  0  0
  179.3390  178.6310  143.7300 C   0  0  0  0  0  0  0  0  0  0  0  0
  179.6780  177.6450  144.4330 O   0  0  0  0  0  0  0  0  0  0  0  0
  178.9310  179.5900  141.4380 C   0  0  0  0  0  3  0  0  0  0  0  0
  179.0180  179.8630  144.3630 N   0  0  0  0  0  1  0  0  0  0  0  0
  179.8130  177.3890  141.6920 O   0  0  0  0  0  0  0  0  0  0  0  0
  179.3860  178.5280  142.3020 N   0  0  0  0  0  0  0  0  0  0  0  0
  179.0550  179.0010  140.0650 C   0  0  0  0  0  3  0  0  0  0  0  0
  188.4010  179.6910  141.3290 C   0  0  0  0  0  1  0  0  0  0  0  0
  187.9390  178.3300  140.8350 C   0  0  2  0  0  3  0  0  0  0  0  0
  188.3580  178.0080  139.3900 C   0  0  1  0  0  3  0  0  0  0  0  0
  189.7670  178.1180  139.1700 O   0  0  0  0  0  0  0  0  0  0  0  0
  190.6490  177.1730  139.7030 C   0  0  0  0  0  0  0  0  0  0  0  0
  191.6050  177.5750  140.6830 N   0  0  0  0  0  1  0  0  0  0  0  0
  190.6140  175.9710  139.3120 O   0  0  0  0  0  0  0  0  0  0  0  0
  187.7530  176.7740  138.7170 C   0  0  0  0  0  2  0  0  0  0  0  0
  185.3370  176.3490  137.1810 C   0  0  0  0  0  1  0  0  0  0  0  0
  187.6070  175.6680  136.5090 C   0  0  1  0  0  3  0  0  0  0  0  0
  187.7930  177.0020  137.2030 C   0  0  1  0  0  3  0  0  0  0  0  0
  186.5430  176.7390  136.3620 C   0  0  2  0  0  3  0  0  0  0  0  0
  195.9520  173.4250  135.4030 C   0  0  2  0  0  3  0  0  0  0  0  0
  194.6620  172.4370  137.3860 C   0  0  0  0  0  1  0  0  0  0  0  0
  195.0170  175.6220  135.8920 C   0  0  2  0  0  3  0  0  0  0  0  0
  190.6330  174.0470  135.1520 N   0  0  0  0  0  2  0  0  0  0  0  0
  191.5140  175.1680  135.0440 C   0  0  0  0  0  0  0  0  0  0  0  0
  190.9540  176.5410  134.8830 C   0  0  0  0  0  2  0  0  0  0  0  0
  196.9520  173.2140  137.5510 N   0  0  0  0  0  2  0  0  0  0  0  0
  194.0870  174.7810  135.1070 C   0  0  0  0  0  0  0  0  0  0  0  0
  188.4510  173.2380  135.1030 O   0  0  0  0  0  0  0  0  0  0  0  0
  196.0000  172.5670  136.6690 C   0  0  2  0  0  3  0  0  0  0  0  0
  195.2240  176.9720  135.2370 C   0  0  0  0  0  1  0  0  0  0  0  0
  192.8040  174.9850  135.0690 C   0  0  0  0  0  0  0  0  0  0  0  0
  196.3210  174.8290  135.8640 C   0  0  1  0  0  3  0  0  0  0  0  0
  189.2090  174.2290  135.2180 C   0  0  0  0  0  0  0  0  0  0  0  0
  196.8550  174.6490  137.2770 C   0  0  0  0  0  2  0  0  0  0  0  0
  189.6960  176.6690  135.7150 C   0  0  0  0  0  2  0  0  0  0  0  0
  188.6220  175.6190  135.3590 C   0  0  2  0  0  3  0  0  0  0  0  0
  194.6250  173.5000  134.8170 N   0  0  0  0  0  2  0  0  0  0  0  0
  187.0020  177.0650  146.1150 O   0  0  0  0  0  0  0  0  0  0  0  0
  188.5660  178.4510  145.1600 O   0  0  0  0  0  0  0  0  0  0  0  0
  188.3040  177.5760  146.0360 C   0  0  0  0  0  0  0  0  0  0  0  0
  188.8930  175.9820  147.6720 O   0  0  0  0  0  1  0  0  0  0  0  0
  189.3950  177.0950  146.9440 C   0  0  2  0  0  0  0  0  0  0  0  0
  189.7930  178.1830  147.7860 O   0  0  0  0  0  0  0  0  0  0  0  0
  188.8770  178.3900  148.8460 C   0  0  0  0  0  1  0  0  0  0  0  0
  191.8210  176.9590  146.7110 O   0  0  0  0  0  1  0  0  0  0  0  0
  190.6020  176.6550  146.0760 C   0  0  2  0  0  3  0  0  0  0  0  0
  190.7570  176.0490  143.7670 O   0  0  0  0  0  1  0  0  0  0  0  0
  190.5760  177.1410  144.6110 C   0  0  2  0  0  3  0  0  0  0  0  0
  191.6880  178.1320  144.3450 C   0  0  0  0  0  1  0  0  0  0  0  0
  1  7  1  0  0  0  0
  1  5  1  1  0  0  0
  2 14  1  6  0  0  0
  2  7  1  0  0  0  0
  4 12  1  0  0  0  0
  4 54  1  1  0  0  0
  5  4  1  0  0  0  0
  6  3  1  6  0  0  0
  6 10  1  0  0  0  0
  6  2  1  0  0  0  0
  7  9  1  1  0  0  0
  8 11  1  6  0  0  0
  8 12  1  0  0  0  0
  9  8  1  0  0  0  0
 10 25  1  1  0  0  0
 10  1  1  0  0  0  0
 13 14  2  0  0  0  0
 15 13  1  0  0  0  0
 16 15  1  6  0  0  0
 16 21  1  0  0  0  0
 17 20  1  0  0  0  0
 17 18  2  0  0  0  0
 19 22  1  0  0  0  0
 21 22  1  0  0  0  0
 22 17  1  0  0  0  0
 23 16  1  0  0  0  0
 23 19  2  0  0  0  0
 25 24  1  6  0  0  0
 26 31  1  1  0  0  0
 26 25  1  0  0  0  0
 27 26  1  0  0  0  0
 27 28  1  0  0  0  0
 28 29  1  0  0  0  0
 30 28  2  0  0  0  0
 33 52  1  6  0  0  0
 33 34  1  0  0  0  0
 34 31  1  1  0  0  0
 35 33  1  0  0  0  0
 35 32  1  1  0  0  0
 35 34  1  0  0  0  0
 36 53  1  1  0  0  0
 36 48  1  0  0  0  0
 36 45  1  0  0  0  0
 38 46  1  6  0  0  0
 39 49  1  0  0  0  0
 40 47  2  0  0  0  0
 40 39  1  0  0  0  0
 41 40  1  0  0  0  0
 41 51  1  0  0  0  0
 43 38  1  0  0  0  0
 44 49  2  0  0  0  0
 45 37  1  1  0  0  0
 45 42  1  0  0  0  0
 47 43  2  0  0  0  0
 48 38  1  0  0  0  0
 48 50  1  1  0  0  0
 49 52  1  0  0  0  0
 50 42  1  0  0  0  0
 52 51  1  1  0  0  0
 53 43  1  0  0  0  0
 55 56  2  0  0  0  0
 56 54  1  0  0  0  0
 56 58  1  0  0  0  0
 58 57  1  1  0  0  0
 58 59  1  0  0  0  0
 59 60  1  0  0  0  0
 62 61  1  1  0  0  0
 62 58  1  0  0  0  0
 63 64  1  0  0  0  0
 64 65  1  1  0  0  0
 64 62  1  0  0  0  0
M  END
>  <MODEL>
5

>  <REMARK>
 VINA RESULT:      -5.9      3.256     10.501
  Name = 
  16 active torsions:
  status: ('A' for Active; 'I' for Inactive)
    1  A    between atoms: C_2  and  C_39
    2  A    between atoms: C_5  and  C_24
    3  A    between atoms: C_5  and  C_51
    4  A    between atoms: O_7  and  C_55
    5  A    between atoms: C_8  and  C_39
    6  A    between atoms: C_10  and  O_36
    7  A    between atoms: C_11  and  C_35
    8  A    between atoms: C_15  and  O_28
    9  A    between atoms: C_19  and  C_31
   10  A    between atoms: C_19  and  C_55
   11  A    between atoms: C_24  and  O_36
   12  A    between atoms: C_24  and  C_54
   13  A    between atoms: O_28  and  C_50
   14  A    between atoms: C_33  and  C_62
   15  A    between atoms: C_37  and  C_54
   16  A    between atoms: C_50  and  C_55
                            x       y       z     vdW  Elec       q    Type
                         _______ _______ _______ _____ _____    ______ ____

>  <TORSDO>
F 16

$$$$
=
 OpenBabel10222418333D

 65 71  0  0  1  0  0  0  0  0999 V2000
  182.9030  178.8190  139.1880 C   0  0  2  0  0  3  0  0  0  0  0  0
  183.9860  177.9260  141.1780 C   0  0  2  0  0  3  0  0  0  0  0  0
  186.2310  177.8130  140.1960 O   0  0  0  0  0  1  0  0  0  0  0  0
  180.8420  180.3940  139.1700 C   0  0  2  0  0  3  0  0  0  0  0  0
  182.2930  180.1250  138.7070 C   0  0  0  0  0  2  0  0  0  0  0  0
  184.8580  177.7140  139.9430 C   0  0  2  0  0  3  0  0  0  0  0  0
  182.7430  178.6690  140.6980 C   0  0  2  0  0  3  0  0  0  0  0  0
  180.4410  178.3660  140.3520 C   0  0  2  0  0  3  0  0  0  0  0  0
  181.5960  177.9250  141.0490 O   0  0  0  0  0  0  0  0  0  0  0  0
  184.4100  178.7510  138.9530 C   0  0  1  0  0  3  0  0  0  0  0  0
  180.3520  177.7620  139.0860 O   0  0  0  0  0  1  0  0  0  0  0  0
  180.3020  179.7750  140.3270 O   0  0  0  0  0  0  0  0  0  0  0  0
  184.6390  178.2120  143.5690 C   0  0  0  0  0  3  0  0  0  0  0  0
  184.6690  178.6440  142.3150 C   0  0  0  0  0  3  0  0  0  0  0  0
  185.2390  179.0370  144.6890 C   0  0  0  0  0  2  0  0  0  0  0  0
  185.5850  178.2500  145.9500 C   0  0  1  0  0  3  0  0  0  0  0  0
  188.9140  177.4880  147.0030 C   0  0  0  0  0  0  0  0  0  0  0  0
  189.3490  176.5970  146.2300 O   0  0  0  0  0  0  0  0  0  0  0  0
  187.0010  178.9640  147.7110 C   0  0  0  0  0  3  0  0  0  0  0  0
  189.7790  178.0460  147.9830 N   0  0  0  0  0  1  0  0  0  0  0  0
  186.8040  177.5610  145.7930 O   0  0  0  0  0  0  0  0  0  0  0  0
  187.5910  178.0030  146.8100 N   0  0  0  0  0  0  0  0  0  0  0  0
  185.6020  179.1140  147.1930 C   0  0  0  0  0  3  0  0  0  0  0  0
  183.8950  177.4480  136.8500 C   0  0  0  0  0  1  0  0  0  0  0  0
  184.8450  178.4270  137.5220 C   0  0  2  0  0  3  0  0  0  0  0  0
  186.3340  178.1270  137.2800 C   0  0  1  0  0  3  0  0  0  0  0  0
  187.2090  179.0870  137.8780 O   0  0  0  0  0  0  0  0  0  0  0  0
  188.5930  178.8870  137.8830 C   0  0  0  0  0  0  0  0  0  0  0  0
  189.2480  178.5270  139.0990 N   0  0  0  0  0  1  0  0  0  0  0  0
  189.2670  179.0370  136.8250 O   0  0  0  0  0  0  0  0  0  0  0  0
  186.8250  176.6900  137.4660 C   0  0  0  0  0  2  0  0  0  0  0  0
  185.6280  174.1210  136.8760 C   0  0  0  0  0  1  0  0  0  0  0  0
  187.8890  174.8420  136.2110 C   0  0  1  0  0  3  0  0  0  0  0  0
  187.0310  176.0830  136.0740 C   0  0  1  0  0  3  0  0  0  0  0  0
  186.4480  174.7060  135.7520 C   0  0  2  0  0  3  0  0  0  0  0  0
  196.4200  173.3930  135.2050 C   0  0  2  0  0  3  0  0  0  0  0  0
  195.2070  172.2960  137.1810 C   0  0  0  0  0  1  0  0  0  0  0  0
  195.2770  175.4930  135.6720 C   0  0  2  0  0  3  0  0  0  0  0  0
  191.0690  173.5080  134.8950 N   0  0  0  0  0  2  0  0  0  0  0  0
  191.8410  174.7070  134.7900 C   0  0  0  0  0  0  0  0  0  0  0  0
  191.1560  176.0200  134.6160 C   0  0  0  0  0  2  0  0  0  0  0  0
  197.4120  173.2870  137.3650 N   0  0  0  0  0  2  0  0  0  0  0  0
  194.4380  174.5640  134.8820 C   0  0  0  0  0  0  0  0  0  0  0  0
  188.9730  172.4960  134.8270 O   0  0  0  0  0  0  0  0  0  0  0  0
  196.5350  172.5490  136.4770 C   0  0  2  0  0  3  0  0  0  0  0  0
  195.3620  176.8540  135.0130 C   0  0  0  0  0  1  0  0  0  0  0  0
  193.1420  174.6460  134.8300 C   0  0  0  0  0  0  0  0  0  0  0  0
  196.6490  174.8270  135.6620 C   0  0  1  0  0  3  0  0  0  0  0  0
  189.6340  173.5550  134.9450 C   0  0  0  0  0  0  0  0  0  0  0  0
  197.1820  174.7050  137.0820 C   0  0  0  0  0  2  0  0  0  0  0  0
  189.8830  176.0320  135.4330 C   0  0  0  0  0  2  0  0  0  0  0  0
  188.9160  174.8840  135.0720 C   0  0  2  0  0  3  0  0  0  0  0  0
  195.0980  173.3390  134.6050 N   0  0  0  0  0  2  0  0  0  0  0  0
  179.8910  180.7510  138.1690 O   0  0  0  0  0  0  0  0  0  0  0  0
  179.2510  182.9410  138.4360 O   0  0  0  0  0  0  0  0  0  0  0  0
  179.7520  182.0570  137.6830 C   0  0  0  0  0  0  0  0  0  0  0  0
  178.9820  182.7630  135.5680 O   0  0  0  0  0  1  0  0  0  0  0  0
  180.1590  182.4240  136.2870 C   0  0  2  0  0  0  0  0  0  0  0  0
  180.8650  181.3150  135.7180 O   0  0  0  0  0  0  0  0  0  0  0  0
  180.1230  180.6950  134.6840 C   0  0  0  0  0  1  0  0  0  0  0  0
  181.6760  183.7800  137.6360 O   0  0  0  0  0  1  0  0  0  0  0  0
  181.1060  183.6490  136.3550 C   0  0  2  0  0  3  0  0  0  0  0  0
  181.5120  185.7390  135.2620 O   0  0  0  0  0  1  0  0  0  0  0  0
  180.5050  184.9800  135.8510 C   0  0  2  0  0  3  0  0  0  0  0  0
  179.9170  185.7800  136.9930 C   0  0  0  0  0  1  0  0  0  0  0  0
  1  5  1  1  0  0  0
  1  7  1  0  0  0  0
  2 14  1  1  0  0  0
  4 54  1  6  0  0  0
  4 12  1  0  0  0  0
  5  4  1  0  0  0  0
  6  3  1  1  0  0  0
  6  2  1  0  0  0  0
  7  9  1  6  0  0  0
  7  2  1  0  0  0  0
  8 11  1  6  0  0  0
  8  9  1  0  0  0  0
 10 25  1  6  0  0  0
 10  1  1  0  0  0  0
 10  6  1  0  0  0  0
 12  8  1  0  0  0  0
 13 15  1  0  0  0  0
 14 13  2  0  0  0  0
 16 15  1  6  0  0  0
 16 23  1  0  0  0  0
 17 20  1  0  0  0  0
 18 17  2  0  0  0  0
 21 16  1  0  0  0  0
 21 22  1  0  0  0  0
 22 17  1  0  0  0  0
 22 19  1  0  0  0  0
 23 19  2  0  0  0  0
 25 24  1  1  0  0  0
 26 31  1  1  0  0  0
 26 25  1  0  0  0  0
 26 27  1  0  0  0  0
 27 28  1  0  0  0  0
 28 29  1  0  0  0  0
 30 28  2  0  0  0  0
 33 52  1  6  0  0  0
 34 33  1  0  0  0  0
 34 31  1  1  0  0  0
 35 34  1  0  0  0  0
 35 33  1  0  0  0  0
 35 32  1  1  0  0  0
 36 53  1  1  0  0  0
 36 48  1  0  0  0  0
 36 45  1  0  0  0  0
 38 46  1  6  0  0  0
 39 49  1  0  0  0  0
 40 47  2  0  0  0  0
 40 39  1  0  0  0  0
 41 40  1  0  0  0  0
 41 51  1  0  0  0  0
 43 38  1  0  0  0  0
 44 49  2  0  0  0  0
 45 37  1  1  0  0  0
 45 42  1  0  0  0  0
 47 43  2  0  0  0  0
 48 38  1  0  0  0  0
 48 50  1  1  0  0  0
 49 52  1  0  0  0  0
 50 42  1  0  0  0  0
 52 51  1  1  0  0  0
 53 43  1  0  0  0  0
 56 54  1  0  0  0  0
 56 55  2  0  0  0  0
 58 57  1  6  0  0  0
 58 62  1  0  0  0  0
 58 56  1  0  0  0  0
 59 58  1  0  0  0  0
 60 59  1  0  0  0  0
 62 61  1  1  0  0  0
 63 64  1  0  0  0  0
 64 62  1  0  0  0  0
 64 65  1  1  0  0  0
M  END
>  <MODEL>
6

>  <REMARK>
 VINA RESULT:      -5.7      3.903     11.667
  Name = 
  16 active torsions:
  status: ('A' for Active; 'I' for Inactive)
    1  A    between atoms: C_2  and  C_39
    2  A    between atoms: C_5  and  C_24
    3  A    between atoms: C_5  and  C_51
    4  A    between atoms: O_7  and  C_55
    5  A    between atoms: C_8  and  C_39
    6  A    between atoms: C_10  and  O_36
    7  A    between atoms: C_11  and  C_35
    8  A    between atoms: C_15  and  O_28
    9  A    between atoms: C_19  and  C_31
   10  A    between atoms: C_19  and  C_55
   11  A    between atoms: C_24  and  O_36
   12  A    between atoms: C_24  and  C_54
   13  A    between atoms: O_28  and  C_50
   14  A    between atoms: C_33  and  C_62
   15  A    between atoms: C_37  and  C_54
   16  A    between atoms: C_50  and  C_55
                            x       y       z     vdW  Elec       q    Type
                         _______ _______ _______ _____ _____    ______ ____

>  <TORSDO>
F 16

$$$$
=
 OpenBabel10222418333D

 65 71  0  0  1  0  0  0  0  0999 V2000
  188.8930  176.1080  138.4320 C   0  0  2  0  0  3  0  0  0  0  0  0
  190.7340  175.0290  137.2580 C   0  0  2  0  0  3  0  0  0  0  0  0
  189.3470  174.0620  135.4810 O   0  0  0  0  0  1  0  0  0  0  0  0
  189.0600  178.3060  139.8020 C   0  0  2  0  0  3  0  0  0  0  0  0
  188.3580  177.5100  138.6760 C   0  0  0  0  0  2  0  0  0  0  0  0
  189.3930  174.4380  136.8280 C   0  0  2  0  0  3  0  0  0  0  0  0
  190.4100  176.1290  138.2640 C   0  0  2  0  0  3  0  0  0  0  0  0
  190.5840  176.6360  140.5500 C   0  0  2  0  0  3  0  0  0  0  0  0
  191.0920  175.8640  139.4720 O   0  0  0  0  0  0  0  0  0  0  0  0
  188.3720  175.4960  137.1350 C   0  0  1  0  0  3  0  0  0  0  0  0
  189.4660  176.0170  141.1340 O   0  0  0  0  0  1  0  0  0  0  0  0
  190.3800  177.9980  140.2200 O   0  0  0  0  0  0  0  0  0  0  0  0
  192.7550  174.9920  135.7960 C   0  0  0  0  0  3  0  0  0  0  0  0
  191.5900  175.5360  136.1250 C   0  0  0  0  0  3  0  0  0  0  0  0
  193.6300  175.6160  134.7290 C   0  0  0  0  0  2  0  0  0  0  0  0
  195.0170  174.9960  134.5940 C   0  0  1  0  0  3  0  0  0  0  0  0
  197.3760  174.7230  137.2640 C   0  0  0  0  0  0  0  0  0  0  0  0
  197.8250  175.8780  137.4780 O   0  0  0  0  0  0  0  0  0  0  0  0
  195.8990  173.2180  135.8880 C   0  0  0  0  0  3  0  0  0  0  0  0
  197.7720  173.6510  138.1110 N   0  0  0  0  0  1  0  0  0  0  0  0
  195.9170  175.5730  135.5120 O   0  0  0  0  0  0  0  0  0  0  0  0
  196.3920  174.5270  136.2420 N   0  0  0  0  0  0  0  0  0  0  0  0
  195.0010  173.4870  134.7190 C   0  0  0  0  0  3  0  0  0  0  0  0
  186.9130  173.5210  137.7280 C   0  0  0  0  0  1  0  0  0  0  0  0
  186.9460  174.9410  137.1890 C   0  0  2  0  0  3  0  0  0  0  0  0
  186.0450  175.1720  135.9640 C   0  0  1  0  0  3  0  0  0  0  0  0
  186.5900  176.1050  135.0270 O   0  0  0  0  0  0  0  0  0  0  0  0
  186.2740  177.4650  135.1080 C   0  0  0  0  0  0  0  0  0  0  0  0
  184.9100  177.8770  135.0400 N   0  0  0  0  0  1  0  0  0  0  0  0
  187.1890  178.3300  135.2240 O   0  0  0  0  0  0  0  0  0  0  0  0
  185.4200  173.9530  135.2820 C   0  0  0  0  0  2  0  0  0  0  0  0
  184.4580  171.2720  134.7670 C   0  0  0  0  0  1  0  0  0  0  0  0
  183.0940  173.1600  135.5720 C   0  0  1  0  0  3  0  0  0  0  0  0
  184.4310  173.3230  136.2670 C   0  0  1  0  0  3  0  0  0  0  0  0
  183.8710  171.9270  135.9930 C   0  0  2  0  0  3  0  0  0  0  0  0
  179.4820  180.6330  138.2180 C   0  0  2  0  0  3  0  0  0  0  0  0
  180.6010  180.5530  135.9120 C   0  0  0  0  0  1  0  0  0  0  0  0
  181.3750  179.4330  139.1760 C   0  0  2  0  0  3  0  0  0  0  0  0
  180.5510  175.6980  136.4150 N   0  0  0  0  0  2  0  0  0  0  0  0
  181.0190  176.1350  137.6930 C   0  0  0  0  0  0  0  0  0  0  0  0
  181.8410  175.2200  138.5370 C   0  0  0  0  0  2  0  0  0  0  0  0
  180.8340  182.4260  137.4320 N   0  0  0  0  0  2  0  0  0  0  0  0
  180.4040  178.5210  138.5310 C   0  0  0  0  0  0  0  0  0  0  0  0
  180.3700  173.9740  134.8620 O   0  0  0  0  0  0  0  0  0  0  0  0
  179.9130  181.4060  136.9700 C   0  0  2  0  0  3  0  0  0  0  0  0
  181.6780  178.9990  140.5950 C   0  0  0  0  0  1  0  0  0  0  0  0
  180.7130  177.3260  138.1240 C   0  0  0  0  0  0  0  0  0  0  0  0
  180.6470  180.7740  139.1890 C   0  0  1  0  0  3  0  0  0  0  0  0
  180.9490  174.4270  135.8760 C   0  0  0  0  0  0  0  0  0  0  0  0
  181.5300  181.8560  138.5860 C   0  0  0  0  0  2  0  0  0  0  0  0
  182.7640  174.4150  137.6480 C   0  0  0  0  0  2  0  0  0  0  0  0
  182.0170  173.6040  136.5690 C   0  0  2  0  0  3  0  0  0  0  0  0
  179.2980  179.2130  137.9710 N   0  0  0  0  0  2  0  0  0  0  0  0
  188.2290  178.9050  140.7940 O   0  0  0  0  0  0  0  0  0  0  0  0
  186.1410  178.5840  139.8920 O   0  0  0  0  0  0  0  0  0  0  0  0
  186.8670  178.6060  140.9280 C   0  0  0  0  0  0  0  0  0  0  0  0
  185.1300  177.4860  142.0650 O   0  0  0  0  0  1  0  0  0  0  0  0
  186.2490  178.3380  142.2670 C   0  0  2  0  0  0  0  0  0  0  0  0
  185.8980  179.5940  142.8600 O   0  0  0  0  0  0  0  0  0  0  0  0
  184.5100  179.6810  143.1250 C   0  0  0  0  0  1  0  0  0  0  0  0
  187.0700  176.2380  143.2030 O   0  0  0  0  0  1  0  0  0  0  0  0
  187.2960  177.6280  143.1620 C   0  0  2  0  0  3  0  0  0  0  0  0
  188.8360  178.2800  144.8740 O   0  0  0  0  0  1  0  0  0  0  0  0
  187.4770  178.2260  144.5730 C   0  0  2  0  0  3  0  0  0  0  0  0
  186.7950  177.3730  145.6200 C   0  0  0  0  0  1  0  0  0  0  0  0
  1  5  1  6  0  0  0
  2 14  1  6  0  0  0
  2  7  1  0  0  0  0
  4 12  1  0  0  0  0
  4 54  1  1  0  0  0
  5  4  1  0  0  0  0
  6  3  1  6  0  0  0
  6 10  1  0  0  0  0
  6  2  1  0  0  0  0
  7  1  1  0  0  0  0
  7  9  1  1  0  0  0
  8 11  1  6  0  0  0
  9  8  1  0  0  0  0
 10 25  1  1  0  0  0
 10  1  1  0  0  0  0
 12  8  1  0  0  0  0
 13 14  2  0  0  0  0
 15 13  1  0  0  0  0
 16 23  1  0  0  0  0
 16 15  1  1  0  0  0
 16 21  1  0  0  0  0
 17 18  2  0  0  0  0
 17 20  1  0  0  0  0
 19 22  1  0  0  0  0
 21 22  1  0  0  0  0
 22 17  1  0  0  0  0
 23 19  2  0  0  0  0
 25 24  1  6  0  0  0
 26 31  1  6  0  0  0
 26 25  1  0  0  0  0
 27 28  1  0  0  0  0
 27 26  1  0  0  0  0
 28 30  2  0  0  0  0
 29 28  1  0  0  0  0
 33 35  1  0  0  0  0
 33 34  1  0  0  0  0
 33 52  1  1  0  0  0
 34 31  1  6  0  0  0
 35 32  1  6  0  0  0
 35 34  1  0  0  0  0
 36 53  1  6  0  0  0
 36 48  1  0  0  0  0
 38 48  1  0  0  0  0
 38 46  1  1  0  0  0
 39 40  1  0  0  0  0
 40 47  2  0  0  0  0
 40 41  1  0  0  0  0
 42 50  1  0  0  0  0
 43 38  1  0  0  0  0
 44 49  2  0  0  0  0
 45 37  1  6  0  0  0
 45 42  1  0  0  0  0
 45 36  1  0  0  0  0
 47 43  2  0  0  0  0
 48 50  1  6  0  0  0
 49 39  1  0  0  0  0
 49 52  1  0  0  0  0
 51 41  1  0  0  0  0
 52 51  1  1  0  0  0
 53 43  1  0  0  0  0
 54 56  1  0  0  0  0
 55 56  2  0  0  0  0
 56 58  1  0  0  0  0
 58 57  1  6  0  0  0
 58 59  1  0  0  0  0
 58 62  1  0  0  0  0
 59 60  1  0  0  0  0
 62 61  1  1  0  0  0
 62 64  1  0  0  0  0
 64 63  1  0  0  0  0
 64 65  1  1  0  0  0
M  END
>  <MODEL>
7

>  <REMARK>
 VINA RESULT:      -5.2      3.656      8.160
  Name = 
  16 active torsions:
  status: ('A' for Active; 'I' for Inactive)
    1  A    between atoms: C_2  and  C_39
    2  A    between atoms: C_5  and  C_24
    3  A    between atoms: C_5  and  C_51
    4  A    between atoms: O_7  and  C_55
    5  A    between atoms: C_8  and  C_39
    6  A    between atoms: C_10  and  O_36
    7  A    between atoms: C_11  and  C_35
    8  A    between atoms: C_15  and  O_28
    9  A    between atoms: C_19  and  C_31
   10  A    between atoms: C_19  and  C_55
   11  A    between atoms: C_24  and  O_36
   12  A    between atoms: C_24  and  C_54
   13  A    between atoms: O_28  and  C_50
   14  A    between atoms: C_33  and  C_62
   15  A    between atoms: C_37  and  C_54
   16  A    between atoms: C_50  and  C_55
                            x       y       z     vdW  Elec       q    Type
                         _______ _______ _______ _____ _____    ______ ____

>  <TORSDO>
F 16

$$$$
=
 OpenBabel10222418333D

 65 71  0  0  1  0  0  0  0  0999 V2000
  186.7120  178.2500  143.6720 C   0  0  2  0  0  3  0  0  0  0  0  0
  184.6040  179.1490  142.8480 C   0  0  2  0  0  3  0  0  0  0  0  0
  185.2690  179.1860  140.4870 O   0  0  0  0  0  1  0  0  0  0  0  0
  186.9910  176.7290  145.7560 C   0  0  2  0  0  3  0  0  0  0  0  0
  187.2540  176.9520  144.2480 C   0  0  0  0  0  2  0  0  0  0  0  0
  185.7100  179.3160  141.8090 C   0  0  2  0  0  3  0  0  0  0  0  0
  185.2400  178.4300  144.0340 C   0  0  2  0  0  3  0  0  0  0  0  0
  185.9040  178.7880  146.2570 C   0  0  2  0  0  3  0  0  0  0  0  0
  185.0600  179.2110  145.1970 O   0  0  0  0  0  0  0  0  0  0  0  0
  186.7380  178.2740  142.1470 C   0  0  1  0  0  3  0  0  0  0  0  0
  187.1790  179.3720  146.1540 O   0  0  0  0  0  1  0  0  0  0  0  0
  185.9280  177.3830  146.4320 O   0  0  0  0  0  0  0  0  0  0  0  0
  182.2790  179.0660  141.9480 C   0  0  0  0  0  3  0  0  0  0  0  0
  183.3740  178.4330  142.3480 C   0  0  0  0  0  3  0  0  0  0  0  0
  181.0310  178.2950  141.5710 C   0  0  0  0  0  2  0  0  0  0  0  0
  180.0280  179.0720  140.7230 C   0  0  1  0  0  3  0  0  0  0  0  0
  180.8900  181.0040  137.8420 C   0  0  0  0  0  0  0  0  0  0  0  0
  181.4670  182.0420  138.2550 O   0  0  0  0  0  0  0  0  0  0  0  0
  179.6930  178.8560  138.3870 C   0  0  0  0  0  3  0  0  0  0  0  0
  180.7940  180.7670  136.4440 N   0  0  0  0  0  1  0  0  0  0  0  0
  180.6390  180.1910  140.1220 O   0  0  0  0  0  0  0  0  0  0  0  0
  180.4360  180.0270  138.7870 N   0  0  0  0  0  0  0  0  0  0  0  0
  179.3380  178.2060  139.6900 C   0  0  0  0  0  3  0  0  0  0  0  0
  188.4840  180.0260  141.6350 C   0  0  0  0  0  1  0  0  0  0  0  0
  188.1000  178.5610  141.5100 C   0  0  2  0  0  3  0  0  0  0  0  0
  188.3830  177.9510  140.1270 C   0  0  1  0  0  3  0  0  0  0  0  0
  189.1100  176.7210  140.1890 O   0  0  0  0  0  0  0  0  0  0  0  0
  190.4560  176.6670  139.8150 C   0  0  0  0  0  0  0  0  0  0  0  0
  190.9080  175.6200  138.9560 N   0  0  0  0  0  1  0  0  0  0  0  0
  191.2760  177.5280  140.2440 O   0  0  0  0  0  0  0  0  0  0  0  0
  187.2460  177.9100  139.1040 C   0  0  0  0  0  2  0  0  0  0  0  0
  189.1060  179.3680  137.4330 C   0  0  0  0  0  1  0  0  0  0  0  0
  187.2380  177.9750  136.6310 C   0  0  1  0  0  3  0  0  0  0  0  0
  187.7820  177.2360  137.8370 C   0  0  1  0  0  3  0  0  0  0  0  0
  188.7290  178.0020  136.9120 C   0  0  2  0  0  3  0  0  0  0  0  0
  180.5750  172.4640  135.5650 C   0  0  2  0  0  3  0  0  0  0  0  0
  180.2290  174.5540  137.0110 C   0  0  0  0  0  1  0  0  0  0  0  0
  182.7190  172.0700  136.6540 C   0  0  2  0  0  3  0  0  0  0  0  0
  184.4050  176.1850  135.0830 N   0  0  0  0  0  2  0  0  0  0  0  0
  184.7270  174.8320  135.4160 C   0  0  0  0  0  0  0  0  0  0  0  0
  186.1460  174.4430  135.6580 C   0  0  0  0  0  2  0  0  0  0  0  0
  179.3590  172.3720  137.6080 N   0  0  0  0  0  2  0  0  0  0  0  0
  182.8210  173.0670  135.5660 C   0  0  0  0  0  0  0  0  0  0  0  0
  185.1610  178.3320  134.5940 O   0  0  0  0  0  0  0  0  0  0  0  0
  179.6400  173.2490  136.4880 C   0  0  2  0  0  3  0  0  0  0  0  0
  183.7440  170.9670  136.4890 C   0  0  0  0  0  1  0  0  0  0  0  0
  183.7810  173.9390  135.4880 C   0  0  0  0  0  0  0  0  0  0  0  0
  181.3140  171.4990  136.4820 C   0  0  1  0  0  3  0  0  0  0  0  0
  185.4150  177.2080  135.0850 C   0  0  0  0  0  0  0  0  0  0  0  0
  180.5600  171.5580  137.8020 C   0  0  0  0  0  2  0  0  0  0  0  0
  186.8570  175.5690  136.3790 C   0  0  0  0  0  2  0  0  0  0  0  0
  186.8030  176.9100  135.6160 C   0  0  2  0  0  3  0  0  0  0  0  0
  181.5760  173.3010  134.9260 N   0  0  0  0  0  2  0  0  0  0  0  0
  188.1080  176.3800  146.5700 O   0  0  0  0  0  0  0  0  0  0  0  0
  189.0250  177.9440  147.9810 O   0  0  0  0  0  0  0  0  0  0  0  0
  189.1210  177.2900  146.9020 C   0  0  0  0  0  0  0  0  0  0  0  0
  191.4000  177.8900  146.8170 O   0  0  0  0  0  1  0  0  0  0  0  0
  190.2960  177.5230  146.0010 C   0  0  2  0  0  0  0  0  0  0  0  0
  189.9400  178.5330  145.0500 O   0  0  0  0  0  0  0  0  0  0  0  0
  191.0810  179.1750  144.5120 C   0  0  0  0  0  1  0  0  0  0  0  0
  191.7780  175.5980  145.7570 O   0  0  0  0  0  1  0  0  0  0  0  0
  190.6120  176.2050  145.2500 C   0  0  2  0  0  3  0  0  0  0  0  0
  189.8110  175.3250  143.1740 O   0  0  0  0  0  1  0  0  0  0  0  0
  190.6370  176.3090  143.7100 C   0  0  2  0  0  3  0  0  0  0  0  0
  192.0350  176.0970  143.1710 C   0  0  0  0  0  1  0  0  0  0  0  0
  1  7  1  0  0  0  0
  1  5  1  6  0  0  0
  2 14  1  6  0  0  0
  2  7  1  0  0  0  0
  4 12  1  0  0  0  0
  4 54  1  1  0  0  0
  5  4  1  0  0  0  0
  6  3  1  6  0  0  0
  6 10  1  0  0  0  0
  6  2  1  0  0  0  0
  7  9  1  1  0  0  0
  8 11  1  6  0  0  0
  8 12  1  0  0  0  0
  9  8  1  0  0  0  0
 10 25  1  1  0  0  0
 10  1  1  0  0  0  0
 13 14  2  0  0  0  0
 15 13  1  0  0  0  0
 16 15  1  6  0  0  0
 17 18  2  0  0  0  0
 17 22  1  0  0  0  0
 19 22  1  0  0  0  0
 19 23  2  0  0  0  0
 20 17  1  0  0  0  0
 21 16  1  0  0  0  0
 22 21  1  0  0  0  0
 23 16  1  0  0  0  0
 25 24  1  6  0  0  0
 26 31  1  1  0  0  0
 26 27  1  0  0  0  0
 26 25  1  0  0  0  0
 28 27  1  0  0  0  0
 28 30  2  0  0  0  0
 29 28  1  0  0  0  0
 33 52  1  6  0  0  0
 33 35  1  0  0  0  0
 33 34  1  0  0  0  0
 34 31  1  1  0  0  0
 35 32  1  1  0  0  0
 35 34  1  0  0  0  0
 36 53  1  1  0  0  0
 36 48  1  0  0  0  0
 36 45  1  0  0  0  0
 38 46  1  6  0  0  0
 39 49  1  0  0  0  0
 39 40  1  0  0  0  0
 40 47  2  0  0  0  0
 40 41  1  0  0  0  0
 41 51  1  0  0  0  0
 42 50  1  0  0  0  0
 43 38  1  0  0  0  0
 44 49  2  0  0  0  0
 45 37  1  1  0  0  0
 45 42  1  0  0  0  0
 47 43  2  0  0  0  0
 48 38  1  0  0  0  0
 48 50  1  1  0  0  0
 49 52  1  0  0  0  0
 52 51  1  1  0  0  0
 53 43  1  0  0  0  0
 54 56  1  0  0  0  0
 56 55  2  0  0  0  0
 58 57  1  1  0  0  0
 58 56  1  0  0  0  0
 59 58  1  0  0  0  0
 60 59  1  0  0  0  0
 62 61  1  1  0  0  0
 62 58  1  0  0  0  0
 63 64  1  0  0  0  0
 64 65  1  6  0  0  0
 64 62  1  0  0  0  0
M  END
>  <MODEL>
8

>  <REMARK>
 VINA RESULT:      -4.9      4.381      9.636
  Name = 
  16 active torsions:
  status: ('A' for Active; 'I' for Inactive)
    1  A    between atoms: C_2  and  C_39
    2  A    between atoms: C_5  and  C_24
    3  A    between atoms: C_5  and  C_51
    4  A    between atoms: O_7  and  C_55
    5  A    between atoms: C_8  and  C_39
    6  A    between atoms: C_10  and  O_36
    7  A    between atoms: C_11  and  C_35
    8  A    between atoms: C_15  and  O_28
    9  A    between atoms: C_19  and  C_31
   10  A    between atoms: C_19  and  C_55
   11  A    between atoms: C_24  and  O_36
   12  A    between atoms: C_24  and  C_54
   13  A    between atoms: O_28  and  C_50
   14  A    between atoms: C_33  and  C_62
   15  A    between atoms: C_37  and  C_54
   16  A    between atoms: C_50  and  C_55
                            x       y       z     vdW  Elec       q    Type
                         _______ _______ _______ _____ _____    ______ ____

>  <TORSDO>
F 16

$$$$
