=
 OpenBabel10222416293D

 32 35  0  0  1  0  0  0  0  0999 V2000
  184.3260  178.4370  141.4150 C   0  0  0  0  0  0  0  0  0  0  0  0
  183.6400  178.3180  138.8740 S   0  0  0  0  0  0  0  0  0  0  0  0
  183.2700  178.3730  140.6130 C   0  0  0  0  0  0  0  0  0  0  0  0
  185.3460  178.8440  139.2560 C   0  0  1  0  0  3  0  0  0  0  0  0
  185.6420  178.5740  140.7270 C   0  0  1  0  0  3  0  0  0  0  0  0
  186.3470  179.6410  141.2530 F   0  0  0  0  0  0  0  0  0  0  0  0
  186.3580  178.1620  138.3460 C   0  0  0  0  0  2  0  0  0  0  0  0
  187.5000  177.6730  139.1070 N   0  0  0  0  0  2  0  0  0  0  0  0
  190.1550  177.5950  139.9360 S   0  0  0  0  0  1  0  0  0  0  0  0
  188.8000  178.2430  138.9700 C   0  0  0  0  0  0  0  0  0  0  0  0
  189.0020  179.1990  138.1750 O   0  0  0  0  0  0  0  0  0  0  0  0
  181.9210  178.2270  141.0790 N   0  0  0  0  0  2  0  0  0  0  0  0
  179.4150  180.8820  140.2490 C   0  0  0  0  0  3  0  0  0  0  0  0
  180.5750  179.7110  142.4800 C   0  0  0  0  0  3  0  0  0  0  0  0
  179.6470  180.6970  142.6180 N   0  0  0  0  0  0  0  0  0  0  0  0
  180.3660  179.8740  140.0850 C   0  0  0  0  0  3  0  0  0  0  0  0
  180.9660  179.2880  141.2070 C   0  0  0  0  0  0  0  0  0  0  0  0
  179.0670  181.2870  141.5390 C   0  0  0  0  0  3  0  0  0  0  0  0
  184.2110  178.2560  142.8300 N   0  0  0  0  0  2  0  0  0  0  0  0
  185.1360  179.1920  144.9420 C   0  0  1  0  0  3  0  0  0  0  0  0
  184.1570  179.3640  143.7760 C   0  0  2  0  0  3  0  0  0  0  0  0
  183.6700  178.8520  145.1160 C   0  0  0  0  0  2  0  0  0  0  0  0
  185.9680  177.9120  144.8770 C   0  0  0  0  0  2  0  0  0  0  0  0
  186.7300  177.7590  146.0680 O   0  0  0  0  0  0  0  0  0  0  0  0
  188.8930  177.7340  144.9300 C   0  0  0  0  0  3  0  0  0  0  0  0
  190.2630  177.4770  144.9740 C   0  0  0  0  0  0  0  0  0  0  0  0
  188.1050  177.5050  146.0680 C   0  0  0  0  0  0  0  0  0  0  0  0
  192.1660  176.7320  146.2220 F   0  0  0  0  0  0  0  0  0  0  0  0
  190.0250  176.7730  147.2670 C   0  0  0  0  0  3  0  0  0  0  0  0
  188.6920  177.0330  147.2020 N   0  0  0  0  0  0  0  0  0  0  0  0
  190.8370  176.9910  146.1520 C   0  0  0  0  0  0  0  0  0  0  0  0
  191.2410  177.7700  143.5490 Cl  0  0  0  0  0  0  0  0  0  0  0  0
  1 19  1  0  0  0  0
  2  4  1  0  0  0  0
  2  3  1  0  0  0  0
  3 12  1  0  0  0  0
  3  1  2  0  0  0  0
  4  7  1  6  0  0  0
  4  5  1  0  0  0  0
  5  6  1  1  0  0  0
  5  1  1  0  0  0  0
  7  8  1  0  0  0  0
 10  8  1  0  0  0  0
 10  9  1  0  0  0  0
 11 10  2  0  0  0  0
 12 17  1  0  0  0  0
 13 18  1  0  0  0  0
 14 15  1  0  0  0  0
 16 13  2  0  0  0  0
 16 17  1  0  0  0  0
 17 14  2  0  0  0  0
 18 15  2  0  0  0  0
 20 23  1  6  0  0  0
 20 22  1  0  0  0  0
 21 19  1  6  0  0  0
 21 20  1  0  0  0  0
 21 22  1  0  0  0  0
 23 24  1  0  0  0  0
 24 27  1  0  0  0  0
 25 26  2  0  0  0  0
 25 27  1  0  0  0  0
 26 31  1  0  0  0  0
 27 30  2  0  0  0  0
 30 29  1  0  0  0  0
 31 28  1  0  0  0  0
 31 29  2  0  0  0  0
 32 26  1  0  0  0  0
M  END
>  <MODEL>
1

>  <REMARK>
 VINA RESULT:      -7.8      0.000      0.000
  Name = 
  9 active torsions:
  status: ('A' for Active; 'I' for Inactive)
    1  A    between atoms: C_3  and  O_8
    2  A    between atoms: C_4  and  C_20
    3  A    between atoms: N_5  and  C_9
    4  A    between atoms: C_6  and  N_30
    5  A    between atoms: O_8  and  C_20
    6  A    between atoms: C_9  and  C_23
    7  A    between atoms: C_13  and  N_30
    8  A    between atoms: N_17  and  C_22
    9  A    between atoms: N_17  and  C_26
                            x       y       z     vdW  Elec       q    Type
                         _______ _______ _______ _____ _____    ______ ____

>  <TORSDO>
F 9

$$$$
=
 OpenBabel10222416293D

 32 35  0  0  1  0  0  0  0  0999 V2000
  183.9340  178.3420  141.1580 C   0  0  0  0  0  0  0  0  0  0  0  0
  184.4830  179.1750  138.7200 S   0  0  0  0  0  0  0  0  0  0  0  0
  184.9040  178.8690  140.4210 C   0  0  0  0  0  0  0  0  0  0  0  0
  183.0110  178.1160  138.9310 C   0  0  1  0  0  3  0  0  0  0  0  0
  182.6940  177.9800  140.4160 C   0  0  1  0  0  3  0  0  0  0  0  0
  182.3390  176.6710  140.6860 F   0  0  0  0  0  0  0  0  0  0  0  0
  181.8200  178.6540  138.1490 C   0  0  0  0  0  2  0  0  0  0  0  0
  181.6590  180.0850  138.3610 N   0  0  0  0  0  2  0  0  0  0  0  0
  180.9480  182.6890  137.6850 S   0  0  0  0  0  1  0  0  0  0  0  0
  181.1180  180.9420  137.3570 C   0  0  0  0  0  0  0  0  0  0  0  0
  180.7590  180.4790  136.2420 O   0  0  0  0  0  0  0  0  0  0  0  0
  186.1670  179.2960  140.9500 N   0  0  0  0  0  2  0  0  0  0  0  0
  188.9510  177.0840  142.1220 C   0  0  0  0  0  3  0  0  0  0  0  0
  188.0960  178.3310  139.7970 C   0  0  0  0  0  3  0  0  0  0  0  0
  189.2200  177.5640  139.7980 N   0  0  0  0  0  0  0  0  0  0  0  0
  187.7970  177.8670  142.1420 C   0  0  0  0  0  3  0  0  0  0  0  0
  187.3660  178.5110  140.9750 C   0  0  0  0  0  0  0  0  0  0  0  0
  189.6590  176.9460  140.9270 C   0  0  0  0  0  3  0  0  0  0  0  0
  184.0340  178.2510  142.5840 N   0  0  0  0  0  2  0  0  0  0  0  0
  184.5760  179.3720  144.7380 C   0  0  1  0  0  3  0  0  0  0  0  0
  183.7000  179.3500  143.4800 C   0  0  2  0  0  3  0  0  0  0  0  0
  183.1790  178.7880  144.7870 C   0  0  0  0  0  2  0  0  0  0  0  0
  185.6160  178.2550  144.7960 C   0  0  0  0  0  2  0  0  0  0  0  0
  185.9040  177.9200  146.1480 O   0  0  0  0  0  0  0  0  0  0  0  0
  188.2660  177.3980  145.8010 C   0  0  0  0  0  3  0  0  0  0  0  0
  189.5510  177.2730  146.3280 C   0  0  0  0  0  0  0  0  0  0  0  0
  187.2050  177.7740  146.6390 C   0  0  0  0  0  0  0  0  0  0  0  0
  191.0090  177.4090  148.2230 F   0  0  0  0  0  0  0  0  0  0  0  0
  188.6910  177.8960  148.4920 C   0  0  0  0  0  3  0  0  0  0  0  0
  187.4460  178.0130  147.9570 N   0  0  0  0  0  0  0  0  0  0  0  0
  189.7690  177.5230  147.6860 C   0  0  0  0  0  0  0  0  0  0  0  0
  190.8720  176.8060  145.2750 Cl  0  0  0  0  0  0  0  0  0  0  0  0
  1 19  1  0  0  0  0
  2  4  1  0  0  0  0
  2  3  1  0  0  0  0
  3 12  1  0  0  0  0
  3  1  2  0  0  0  0
  4  7  1  6  0  0  0
  4  5  1  0  0  0  0
  5  6  1  6  0  0  0
  5  1  1  0  0  0  0
  7  8  1  0  0  0  0
 10  9  1  0  0  0  0
 10  8  1  0  0  0  0
 11 10  2  0  0  0  0
 12 17  1  0  0  0  0
 13 16  1  0  0  0  0
 14 15  2  0  0  0  0
 14 17  1  0  0  0  0
 15 18  1  0  0  0  0
 17 16  2  0  0  0  0
 18 13  2  0  0  0  0
 20 22  1  0  0  0  0
 20 23  1  6  0  0  0
 21 19  1  6  0  0  0
 21 20  1  0  0  0  0
 21 22  1  0  0  0  0
 23 24  1  0  0  0  0
 24 27  1  0  0  0  0
 25 26  2  0  0  0  0
 25 27  1  0  0  0  0
 26 31  1  0  0  0  0
 27 30  2  0  0  0  0
 30 29  1  0  0  0  0
 31 28  1  0  0  0  0
 31 29  2  0  0  0  0
 32 26  1  0  0  0  0
M  END
>  <MODEL>
2

>  <REMARK>
 VINA RESULT:      -7.8      2.830      5.398
  Name = 
  9 active torsions:
  status: ('A' for Active; 'I' for Inactive)
    1  A    between atoms: C_3  and  O_8
    2  A    between atoms: C_4  and  C_20
    3  A    between atoms: N_5  and  C_9
    4  A    between atoms: C_6  and  N_30
    5  A    between atoms: O_8  and  C_20
    6  A    between atoms: C_9  and  C_23
    7  A    between atoms: C_13  and  N_30
    8  A    between atoms: N_17  and  C_22
    9  A    between atoms: N_17  and  C_26
                            x       y       z     vdW  Elec       q    Type
                         _______ _______ _______ _____ _____    ______ ____

>  <TORSDO>
F 9

$$$$
=
 OpenBabel10222416293D

 32 35  0  0  1  0  0  0  0  0999 V2000
  187.6910  178.2440  141.1330 C   0  0  0  0  0  0  0  0  0  0  0  0
  185.2500  178.9080  140.3970 S   0  0  0  0  0  0  0  0  0  0  0  0
  186.9470  178.4920  140.0620 C   0  0  0  0  0  0  0  0  0  0  0  0
  185.4710  178.2850  142.0980 C   0  0  1  0  0  3  0  0  0  0  0  0
  186.9580  178.2340  142.4300 C   0  0  1  0  0  3  0  0  0  0  0  0
  187.2280  177.0680  143.1240 F   0  0  0  0  0  0  0  0  0  0  0  0
  184.6990  179.1290  143.1060 C   0  0  0  0  0  2  0  0  0  0  0  0
  183.2650  178.9050  142.9850 N   0  0  0  0  0  2  0  0  0  0  0  0
  180.6550  178.6070  143.9020 S   0  0  0  0  0  1  0  0  0  0  0  0
  182.4050  178.8860  144.1230 C   0  0  0  0  0  0  0  0  0  0  0  0
  182.8670  179.0650  145.2810 O   0  0  0  0  0  0  0  0  0  0  0  0
  187.4670  178.5590  138.7260 N   0  0  0  0  0  2  0  0  0  0  0  0
  188.6690  175.8090  136.4890 C   0  0  0  0  0  3  0  0  0  0  0  0
  186.2810  176.9600  137.3070 C   0  0  0  0  0  3  0  0  0  0  0  0
  186.2830  175.9130  136.4370 N   0  0  0  0  0  0  0  0  0  0  0  0
  188.6880  176.8820  137.3800 C   0  0  0  0  0  3  0  0  0  0  0  0
  187.4870  177.4770  137.7870 C   0  0  0  0  0  0  0  0  0  0  0  0
  187.4410  175.3350  136.0200 C   0  0  0  0  0  3  0  0  0  0  0  0
  189.1150  178.1230  141.0510 N   0  0  0  0  0  2  0  0  0  0  0  0
  191.0440  176.7150  141.7480 C   0  0  1  0  0  3  0  0  0  0  0  0
  189.8000  176.8510  140.8630 C   0  0  2  0  0  3  0  0  0  0  0  0
  191.1790  177.1060  140.2910 C   0  0  0  0  0  2  0  0  0  0  0  0
  191.3100  177.9230  142.6440 C   0  0  0  0  0  2  0  0  0  0  0  0
  191.8060  177.4990  143.9080 O   0  0  0  0  0  0  0  0  0  0  0  0
  189.6460  177.7480  145.0220 C   0  0  0  0  0  3  0  0  0  0  0  0
  188.8830  177.6470  146.1860 C   0  0  0  0  0  0  0  0  0  0  0  0
  191.0100  177.4210  145.0550 C   0  0  0  0  0  0  0  0  0  0  0  0
  188.7690  177.1160  148.5180 F   0  0  0  0  0  0  0  0  0  0  0  0
  190.8470  176.9050  147.3710 C   0  0  0  0  0  3  0  0  0  0  0  0
  191.5710  177.0090  146.2240 N   0  0  0  0  0  0  0  0  0  0  0  0
  189.4870  177.2230  147.3730 C   0  0  0  0  0  0  0  0  0  0  0  0
  187.1790  178.0540  146.1370 Cl  0  0  0  0  0  0  0  0  0  0  0  0
  1  5  1  0  0  0  0
  2  4  1  0  0  0  0
  3  2  1  0  0  0  0
  3  1  2  0  0  0  0
  4  5  1  0  0  0  0
  4  7  1  1  0  0  0
  5  6  1  6  0  0  0
  8  7  1  0  0  0  0
  8 10  1  0  0  0  0
  9 10  1  0  0  0  0
 10 11  2  0  0  0  0
 12  3  1  0  0  0  0
 13 16  1  0  0  0  0
 14 17  1  0  0  0  0
 15 14  2  0  0  0  0
 16 17  2  0  0  0  0
 17 12  1  0  0  0  0
 18 15  1  0  0  0  0
 18 13  2  0  0  0  0
 19  1  1  0  0  0  0
 20 23  1  1  0  0  0
 21 19  1  1  0  0  0
 21 20  1  0  0  0  0
 22 21  1  0  0  0  0
 22 20  1  0  0  0  0
 23 24  1  0  0  0  0
 24 27  1  0  0  0  0
 25 27  1  0  0  0  0
 25 26  2  0  0  0  0
 26 31  1  0  0  0  0
 27 30  2  0  0  0  0
 29 31  2  0  0  0  0
 30 29  1  0  0  0  0
 31 28  1  0  0  0  0
 32 26  1  0  0  0  0
M  END
>  <MODEL>
3

>  <REMARK>
 VINA RESULT:      -7.7      3.083      6.448
  Name = 
  9 active torsions:
  status: ('A' for Active; 'I' for Inactive)
    1  A    between atoms: C_3  and  O_8
    2  A    between atoms: C_4  and  C_20
    3  A    between atoms: N_5  and  C_9
    4  A    between atoms: C_6  and  N_30
    5  A    between atoms: O_8  and  C_20
    6  A    between atoms: C_9  and  C_23
    7  A    between atoms: C_13  and  N_30
    8  A    between atoms: N_17  and  C_22
    9  A    between atoms: N_17  and  C_26
                            x       y       z     vdW  Elec       q    Type
                         _______ _______ _______ _____ _____    ______ ____

>  <TORSDO>
F 9

$$$$
=
 OpenBabel10222416293D

 32 35  0  0  1  0  0  0  0  0999 V2000
  186.7110  178.5280  141.2460 C   0  0  0  0  0  0  0  0  0  0  0  0
  184.4890  179.0360  142.5680 S   0  0  0  0  0  0  0  0  0  0  0  0
  185.4780  178.9930  141.0900 C   0  0  0  0  0  0  0  0  0  0  0  0
  185.7110  177.9460  143.3740 C   0  0  1  0  0  3  0  0  0  0  0  0
  187.0270  178.0040  142.6060 C   0  0  1  0  0  3  0  0  0  0  0  0
  187.5580  176.7300  142.5170 F   0  0  0  0  0  0  0  0  0  0  0  0
  185.9020  178.3090  144.8410 C   0  0  0  0  0  2  0  0  0  0  0  0
  187.1200  177.7130  145.3730 N   0  0  0  0  0  2  0  0  0  0  0  0
  189.0160  177.1200  147.3200 S   0  0  0  0  0  1  0  0  0  0  0  0
  187.5100  177.8790  146.7350 C   0  0  0  0  0  0  0  0  0  0  0  0
  186.8030  178.5550  147.5290 O   0  0  0  0  0  0  0  0  0  0  0  0
  184.9840  179.5520  139.8640 N   0  0  0  0  0  2  0  0  0  0  0  0
  181.5920  179.2570  138.3060 C   0  0  0  0  0  3  0  0  0  0  0  0
  184.0050  177.8890  138.3620 C   0  0  0  0  0  3  0  0  0  0  0  0
  182.9610  177.4230  137.6230 N   0  0  0  0  0  0  0  0  0  0  0  0
  182.6490  179.7500  139.0710 C   0  0  0  0  0  3  0  0  0  0  0  0
  183.8660  179.0570  139.1160 C   0  0  0  0  0  0  0  0  0  0  0  0
  181.7690  178.0760  137.5830 C   0  0  0  0  0  3  0  0  0  0  0  0
  187.6970  178.6430  140.2150 N   0  0  0  0  0  2  0  0  0  0  0  0
  189.0190  177.2090  138.6700 C   0  0  1  0  0  3  0  0  0  0  0  0
  187.6670  177.8570  138.9890 C   0  0  2  0  0  3  0  0  0  0  0  0
  188.5970  178.4850  137.9710 C   0  0  0  0  0  2  0  0  0  0  0  0
  190.1130  177.5080  139.6940 C   0  0  0  0  0  2  0  0  0  0  0  0
  190.1680  176.4770  140.6720 O   0  0  0  0  0  0  0  0  0  0  0  0
  190.9310  177.9640  142.4550 C   0  0  0  0  0  3  0  0  0  0  0  0
  191.4030  178.1220  143.7580 C   0  0  0  0  0  0  0  0  0  0  0  0
  190.6520  176.6770  141.9690 C   0  0  0  0  0  0  0  0  0  0  0  0
  192.0520  177.1230  145.8350 F   0  0  0  0  0  0  0  0  0  0  0  0
  191.3070  175.7320  144.0500 C   0  0  0  0  0  3  0  0  0  0  0  0
  190.8460  175.6000  142.7770 N   0  0  0  0  0  0  0  0  0  0  0  0
  191.5950  176.9980  144.5650 C   0  0  0  0  0  0  0  0  0  0  0  0
  191.7450  179.7320  144.3600 Cl  0  0  0  0  0  0  0  0  0  0  0  0
  1  5  1  0  0  0  0
  2  4  1  0  0  0  0
  3  1  2  0  0  0  0
  3  2  1  0  0  0  0
  4  7  1  1  0  0  0
  5  6  1  6  0  0  0
  5  4  1  0  0  0  0
  7  8  1  0  0  0  0
  8 10  1  0  0  0  0
 10  9  1  0  0  0  0
 10 11  2  0  0  0  0
 12  3  1  0  0  0  0
 13 16  1  0  0  0  0
 14 17  1  0  0  0  0
 15 14  2  0  0  0  0
 16 17  2  0  0  0  0
 17 12  1  0  0  0  0
 18 15  1  0  0  0  0
 18 13  2  0  0  0  0
 19  1  1  0  0  0  0
 20 21  1  0  0  0  0
 20 23  1  1  0  0  0
 21 19  1  1  0  0  0
 22 20  1  0  0  0  0
 22 21  1  0  0  0  0
 23 24  1  0  0  0  0
 24 27  1  0  0  0  0
 25 26  2  0  0  0  0
 26 32  1  0  0  0  0
 26 31  1  0  0  0  0
 27 25  1  0  0  0  0
 27 30  2  0  0  0  0
 29 31  2  0  0  0  0
 30 29  1  0  0  0  0
 31 28  1  0  0  0  0
M  END
>  <MODEL>
4

>  <REMARK>
 VINA RESULT:      -7.6      2.862      5.217
  Name = 
  9 active torsions:
  status: ('A' for Active; 'I' for Inactive)
    1  A    between atoms: C_3  and  O_8
    2  A    between atoms: C_4  and  C_20
    3  A    between atoms: N_5  and  C_9
    4  A    between atoms: C_6  and  N_30
    5  A    between atoms: O_8  and  C_20
    6  A    between atoms: C_9  and  C_23
    7  A    between atoms: C_13  and  N_30
    8  A    between atoms: N_17  and  C_22
    9  A    between atoms: N_17  and  C_26
                            x       y       z     vdW  Elec       q    Type
                         _______ _______ _______ _____ _____    ______ ____

>  <TORSDO>
F 9

$$$$
=
 OpenBabel10222416293D

 32 35  0  0  1  0  0  0  0  0999 V2000
  187.2120  178.3710  140.6190 C   0  0  0  0  0  0  0  0  0  0  0  0
  184.6510  178.9590  140.4250 S   0  0  0  0  0  0  0  0  0  0  0  0
  186.2560  178.6270  139.7340 C   0  0  0  0  0  0  0  0  0  0  0  0
  185.2360  178.2840  142.0170 C   0  0  1  0  0  3  0  0  0  0  0  0
  186.7610  178.2820  142.0360 C   0  0  1  0  0  3  0  0  0  0  0  0
  187.2070  177.1040  142.6080 F   0  0  0  0  0  0  0  0  0  0  0  0
  184.6610  179.0560  143.1970 C   0  0  0  0  0  2  0  0  0  0  0  0
  185.4770  178.8730  144.3890 N   0  0  0  0  0  2  0  0  0  0  0  0
  185.9690  178.6270  147.1160 S   0  0  0  0  0  1  0  0  0  0  0  0
  184.9090  178.8570  145.6980 C   0  0  0  0  0  0  0  0  0  0  0  0
  183.6690  179.0030  145.8630 O   0  0  0  0  0  0  0  0  0  0  0  0
  186.4880  178.7650  138.3250 N   0  0  0  0  0  2  0  0  0  0  0  0
  187.4990  176.3580  135.6410 C   0  0  0  0  0  3  0  0  0  0  0  0
  185.3350  176.8690  137.2990 C   0  0  0  0  0  3  0  0  0  0  0  0
  185.3020  175.8340  136.4160 N   0  0  0  0  0  0  0  0  0  0  0  0
  187.5510  177.4260  136.5370 C   0  0  0  0  0  3  0  0  0  0  0  0
  186.4570  177.6980  137.3680 C   0  0  0  0  0  0  0  0  0  0  0  0
  186.3500  175.5660  135.5920 C   0  0  0  0  0  3  0  0  0  0  0  0
  188.5920  178.3130  140.2430 N   0  0  0  0  0  2  0  0  0  0  0  0
  190.4960  176.7560  140.6180 C   0  0  1  0  0  3  0  0  0  0  0  0
  189.2480  177.0920  139.7940 C   0  0  2  0  0  3  0  0  0  0  0  0
  190.6270  177.4300  139.2670 C   0  0  0  0  0  2  0  0  0  0  0  0
  190.7960  177.7540  141.7350 C   0  0  0  0  0  2  0  0  0  0  0  0
  191.4580  177.1020  142.8130 O   0  0  0  0  0  0  0  0  0  0  0  0
  191.6810  176.5030  145.1710 C   0  0  0  0  0  2  0  0  0  0  0  0
  191.1570  176.5240  146.4640 C   0  0  0  0  0  0  0  0  0  0  0  0
  190.9630  177.0940  144.1200 C   0  0  0  0  0  0  0  0  0  0  0  0
  189.3880  177.1670  147.9450 F   0  0  0  0  0  0  0  0  0  0  0  0
  189.2310  177.7110  145.6300 C   0  0  0  0  0  2  0  0  0  0  0  0
  189.7620  177.6800  144.3780 N   0  0  0  0  0  0  0  0  0  0  0  0
  189.9200  177.1320  146.6980 C   0  0  0  0  0  0  0  0  0  0  0  0
  192.0610  175.7890  147.7720 Cl  0  0  0  0  0  0  0  0  0  0  0  0
  1  5  1  0  0  0  0
  2  4  1  0  0  0  0
  3  2  1  0  0  0  0
  3  1  2  0  0  0  0
  4  5  1  0  0  0  0
  4  7  1  1  0  0  0
  5  6  1  6  0  0  0
  7  8  1  0  0  0  0
  8 10  1  0  0  0  0
 10 11  2  0  0  0  0
 10  9  1  0  0  0  0
 12  3  1  0  0  0  0
 13 16  1  0  0  0  0
 14 17  1  0  0  0  0
 15 14  2  0  0  0  0
 16 17  2  0  0  0  0
 17 12  1  0  0  0  0
 18 13  2  0  0  0  0
 18 15  1  0  0  0  0
 19  1  1  0  0  0  0
 20 23  1  1  0  0  0
 21 19  1  1  0  0  0
 21 20  1  0  0  0  0
 22 21  1  0  0  0  0
 22 20  1  0  0  0  0
 23 24  1  0  0  0  0
 24 27  1  0  0  0  0
 25 26  1  0  0  0  0
 26 31  2  0  0  0  0
 26 32  1  0  0  0  0
 27 30  2  0  0  0  0
 27 25  1  0  0  0  0
 29 31  1  0  0  0  0
 30 29  1  0  0  0  0
 31 28  1  0  0  0  0
M  END
>  <MODEL>
5

>  <REMARK>
 VINA RESULT:      -7.6      3.394      6.121
  Name = 
  9 active torsions:
  status: ('A' for Active; 'I' for Inactive)
    1  A    between atoms: C_3  and  O_8
    2  A    between atoms: C_4  and  C_20
    3  A    between atoms: N_5  and  C_9
    4  A    between atoms: C_6  and  N_30
    5  A    between atoms: O_8  and  C_20
    6  A    between atoms: C_9  and  C_23
    7  A    between atoms: C_13  and  N_30
    8  A    between atoms: N_17  and  C_22
    9  A    between atoms: N_17  and  C_26
                            x       y       z     vdW  Elec       q    Type
                         _______ _______ _______ _____ _____    ______ ____

>  <TORSDO>
F 9

$$$$
=
 OpenBabel10222416293D

 32 35  0  0  1  0  0  0  0  0999 V2000
  186.5850  178.6030  139.8150 C   0  0  0  0  0  0  0  0  0  0  0  0
  188.8970  177.6100  139.0350 S   0  0  0  0  0  0  0  0  0  0  0  0
  187.7890  178.2660  140.2620 C   0  0  0  0  0  0  0  0  0  0  0  0
  187.4710  177.3880  137.9170 C   0  0  1  0  0  3  0  0  0  0  0  0
  186.3160  178.2650  138.3890 C   0  0  1  0  0  3  0  0  0  0  0  0
  185.1340  177.5560  138.2790 F   0  0  0  0  0  0  0  0  0  0  0  0
  187.8450  177.6830  136.4700 C   0  0  0  0  0  2  0  0  0  0  0  0
  188.0870  176.4520  135.7310 N   0  0  0  0  0  2  0  0  0  0  0  0
  189.6270  174.4330  134.5940 S   0  0  0  0  0  1  0  0  0  0  0  0
  189.4030  175.9510  135.5080 C   0  0  0  0  0  0  0  0  0  0  0  0
  190.4100  176.5680  135.9480 O   0  0  0  0  0  0  0  0  0  0  0  0
  188.2440  178.5190  141.5990 N   0  0  0  0  0  2  0  0  0  0  0  0
  191.1320  177.6300  143.8100 C   0  0  0  0  0  3  0  0  0  0  0  0
  189.2740  176.3770  142.1750 C   0  0  0  0  0  3  0  0  0  0  0  0
  190.2070  175.6500  142.8480 N   0  0  0  0  0  0  0  0  0  0  0  0
  190.1850  178.3940  143.1270 C   0  0  0  0  0  3  0  0  0  0  0  0
  189.2520  177.7690  142.2890 C   0  0  0  0  0  0  0  0  0  0  0  0
  191.1290  176.2430  143.6530 C   0  0  0  0  0  3  0  0  0  0  0  0
  185.6650  179.3520  140.6170 N   0  0  0  0  0  2  0  0  0  0  0  0
  183.8370  178.9510  142.2560 C   0  0  1  0  0  3  0  0  0  0  0  0
  184.2660  178.9820  140.7850 C   0  0  2  0  0  3  0  0  0  0  0  0
  184.1840  177.6660  141.5320 C   0  0  0  0  0  2  0  0  0  0  0  0
  184.9470  179.3170  143.2390 C   0  0  0  0  0  2  0  0  0  0  0  0
  185.4560  178.1450  143.8660 O   0  0  0  0  0  0  0  0  0  0  0  0
  187.3090  177.5150  145.3290 C   0  0  0  0  0  3  0  0  0  0  0  0
  187.9030  177.5590  146.5900 C   0  0  0  0  0  0  0  0  0  0  0  0
  186.0800  178.1570  145.1170 C   0  0  0  0  0  0  0  0  0  0  0  0
  187.8230  178.2990  148.8660 F   0  0  0  0  0  0  0  0  0  0  0  0
  186.0440  178.8690  147.3860 C   0  0  0  0  0  3  0  0  0  0  0  0
  185.4830  178.8150  146.1480 N   0  0  0  0  0  0  0  0  0  0  0  0
  187.2670  178.2410  147.6310 C   0  0  0  0  0  0  0  0  0  0  0  0
  189.4410  176.7580  146.8450 Cl  0  0  0  0  0  0  0  0  0  0  0  0
  1  3  2  0  0  0  0
  1 19  1  0  0  0  0
  2  3  1  0  0  0  0
  3 12  1  0  0  0  0
  4  7  1  6  0  0  0
  4  5  1  0  0  0  0
  4  2  1  0  0  0  0
  5  6  1  1  0  0  0
  5  1  1  0  0  0  0
  8  7  1  0  0  0  0
  9 10  1  0  0  0  0
 10  8  1  0  0  0  0
 10 11  2  0  0  0  0
 12 17  1  0  0  0  0
 14 17  2  0  0  0  0
 14 15  1  0  0  0  0
 15 18  2  0  0  0  0
 16 13  2  0  0  0  0
 17 16  1  0  0  0  0
 18 13  1  0  0  0  0
 20 23  1  1  0  0  0
 21 19  1  1  0  0  0
 21 22  1  0  0  0  0
 21 20  1  0  0  0  0
 22 20  1  0  0  0  0
 23 24  1  0  0  0  0
 24 27  1  0  0  0  0
 25 26  2  0  0  0  0
 26 32  1  0  0  0  0
 26 31  1  0  0  0  0
 27 25  1  0  0  0  0
 27 30  2  0  0  0  0
 29 31  2  0  0  0  0
 30 29  1  0  0  0  0
 31 28  1  0  0  0  0
M  END
>  <MODEL>
6

>  <REMARK>
 VINA RESULT:      -7.6      3.180      5.914
  Name = 
  9 active torsions:
  status: ('A' for Active; 'I' for Inactive)
    1  A    between atoms: C_3  and  O_8
    2  A    between atoms: C_4  and  C_20
    3  A    between atoms: N_5  and  C_9
    4  A    between atoms: C_6  and  N_30
    5  A    between atoms: O_8  and  C_20
    6  A    between atoms: C_9  and  C_23
    7  A    between atoms: C_13  and  N_30
    8  A    between atoms: N_17  and  C_22
    9  A    between atoms: N_17  and  C_26
                            x       y       z     vdW  Elec       q    Type
                         _______ _______ _______ _____ _____    ______ ____

>  <TORSDO>
F 9

$$$$
=
 OpenBabel10222416293D

 32 35  0  0  1  0  0  0  0  0999 V2000
  185.6900  178.5360  139.8180 C   0  0  0  0  0  0  0  0  0  0  0  0
  183.1590  178.4990  140.5500 S   0  0  0  0  0  0  0  0  0  0  0  0
  184.8620  178.9670  140.7620 C   0  0  0  0  0  0  0  0  0  0  0  0
  183.5380  178.0390  138.8240 C   0  0  1  0  0  3  0  0  0  0  0  0
  185.0410  177.8370  138.6720 C   0  0  1  0  0  3  0  0  0  0  0  0
  185.4550  178.3920  137.4750 F   0  0  0  0  0  0  0  0  0  0  0  0
  182.7580  176.8030  138.3930 C   0  0  0  0  0  2  0  0  0  0  0  0
  181.6260  176.5640  139.2770 N   0  0  0  0  0  2  0  0  0  0  0  0
  179.4170  175.1870  140.2600 S   0  0  0  0  0  1  0  0  0  0  0  0
  180.7890  175.4170  139.1400 C   0  0  0  0  0  0  0  0  0  0  0  0
  181.0080  174.5650  138.2380 O   0  0  0  0  0  0  0  0  0  0  0  0
  185.2910  179.6500  141.9490 N   0  0  0  0  0  2  0  0  0  0  0  0
  185.6820  177.8810  145.2250 C   0  0  0  0  0  3  0  0  0  0  0  0
  184.0180  179.7530  144.0340 C   0  0  0  0  0  3  0  0  0  0  0  0
  183.8100  179.3600  145.3200 N   0  0  0  0  0  0  0  0  0  0  0  0
  185.9110  178.2680  143.9050 C   0  0  0  0  0  3  0  0  0  0  0  0
  185.0660  179.2030  143.2920 C   0  0  0  0  0  0  0  0  0  0  0  0
  184.6120  178.4420  145.9240 C   0  0  0  0  0  3  0  0  0  0  0  0
  187.1110  178.6280  139.9600 N   0  0  0  0  0  2  0  0  0  0  0  0
  189.1140  177.2170  140.3920 C   0  0  1  0  0  3  0  0  0  0  0  0
  188.0360  177.6550  139.3950 C   0  0  2  0  0  3  0  0  0  0  0  0
  189.4240  178.2590  139.3370 C   0  0  0  0  0  2  0  0  0  0  0  0
  189.0010  177.8770  141.7660 C   0  0  0  0  0  2  0  0  0  0  0  0
  190.2590  177.8510  142.4300 O   0  0  0  0  0  0  0  0  0  0  0  0
  189.4550  177.8790  144.7380 C   0  0  0  0  0  2  0  0  0  0  0  0
  189.6330  177.5020  146.0690 C   0  0  0  0  0  0  0  0  0  0  0  0
  190.4050  177.5010  143.7760 C   0  0  0  0  0  0  0  0  0  0  0  0
  190.9520  176.3720  147.7180 F   0  0  0  0  0  0  0  0  0  0  0  0
  191.6810  176.3920  145.4490 C   0  0  0  0  0  2  0  0  0  0  0  0
  191.4870  176.7690  144.1570 N   0  0  0  0  0  0  0  0  0  0  0  0
  190.7560  176.7520  146.4310 C   0  0  0  0  0  0  0  0  0  0  0  0
  188.4420  177.9740  147.2640 Cl  0  0  0  0  0  0  0  0  0  0  0  0
  1 19  1  0  0  0  0
  1  3  2  0  0  0  0
  2  3  1  0  0  0  0
  3 12  1  0  0  0  0
  4  7  1  1  0  0  0
  4  2  1  0  0  0  0
  5  6  1  6  0  0  0
  5  4  1  0  0  0  0
  5  1  1  0  0  0  0
  7  8  1  0  0  0  0
 10  8  1  0  0  0  0
 10  9  1  0  0  0  0
 11 10  2  0  0  0  0
 12 17  1  0  0  0  0
 13 18  1  0  0  0  0
 14 15  1  0  0  0  0
 15 18  2  0  0  0  0
 16 13  2  0  0  0  0
 17 16  1  0  0  0  0
 17 14  2  0  0  0  0
 20 23  1  1  0  0  0
 21 19  1  1  0  0  0
 21 20  1  0  0  0  0
 22 21  1  0  0  0  0
 22 20  1  0  0  0  0
 23 24  1  0  0  0  0
 24 27  1  0  0  0  0
 25 26  1  0  0  0  0
 26 31  2  0  0  0  0
 26 32  1  0  0  0  0
 27 30  2  0  0  0  0
 27 25  1  0  0  0  0
 29 31  1  0  0  0  0
 30 29  1  0  0  0  0
 31 28  1  0  0  0  0
M  END
>  <MODEL>
7

>  <REMARK>
 VINA RESULT:      -7.5      3.151      5.268
  Name = 
  9 active torsions:
  status: ('A' for Active; 'I' for Inactive)
    1  A    between atoms: C_3  and  O_8
    2  A    between atoms: C_4  and  C_20
    3  A    between atoms: N_5  and  C_9
    4  A    between atoms: C_6  and  N_30
    5  A    between atoms: O_8  and  C_20
    6  A    between atoms: C_9  and  C_23
    7  A    between atoms: C_13  and  N_30
    8  A    between atoms: N_17  and  C_22
    9  A    between atoms: N_17  and  C_26
                            x       y       z     vdW  Elec       q    Type
                         _______ _______ _______ _____ _____    ______ ____

>  <TORSDO>
F 9

$$$$
=
 OpenBabel10222416293D

 32 35  0  0  1  0  0  0  0  0999 V2000
  187.6470  177.6280  142.7540 C   0  0  0  0  0  0  0  0  0  0  0  0
  185.1680  178.2610  143.3810 S   0  0  0  0  0  0  0  0  0  0  0  0
  186.7550  177.5390  143.7330 C   0  0  0  0  0  0  0  0  0  0  0  0
  185.9140  179.1170  141.9520 C   0  0  1  0  0  3  0  0  0  0  0  0
  187.2170  178.4230  141.5690 C   0  0  1  0  0  3  0  0  0  0  0  0
  188.1680  179.3790  141.2630 F   0  0  0  0  0  0  0  0  0  0  0  0
  184.9490  179.1860  140.7760 C   0  0  0  0  0  2  0  0  0  0  0  0
  183.6360  178.6750  141.1470 N   0  0  0  0  0  2  0  0  0  0  0  0
  180.9100  178.2140  140.8380 S   0  0  0  0  0  1  0  0  0  0  0  0
  182.4890  178.8680  140.3210 C   0  0  0  0  0  0  0  0  0  0  0  0
  182.5780  179.4960  139.2320 O   0  0  0  0  0  0  0  0  0  0  0  0
  186.9730  176.8080  144.9480 N   0  0  0  0  0  2  0  0  0  0  0  0
  189.4150  177.6950  147.6440 C   0  0  0  0  0  3  0  0  0  0  0  0
  186.7580  178.1450  146.9840 C   0  0  0  0  0  3  0  0  0  0  0  0
  187.2920  178.6840  148.1140 N   0  0  0  0  0  0  0  0  0  0  0  0
  188.8860  177.1320  146.4830 C   0  0  0  0  0  3  0  0  0  0  0  0
  187.5410  177.3430  146.1500 C   0  0  0  0  0  0  0  0  0  0  0  0
  188.5910  178.4750  148.4580 C   0  0  0  0  0  3  0  0  0  0  0  0
  188.8810  176.9020  142.7890 N   0  0  0  0  0  2  0  0  0  0  0  0
  191.1510  177.5020  141.9650 C   0  0  1  0  0  3  0  0  0  0  0  0
  190.1580  177.5130  143.1330 C   0  0  2  0  0  3  0  0  0  0  0  0
  191.2480  176.4630  143.0640 C   0  0  0  0  0  2  0  0  0  0  0  0
  190.6060  176.8650  140.6880 C   0  0  0  0  0  2  0  0  0  0  0  0
  190.5010  177.8410  139.6580 O   0  0  0  0  0  0  0  0  0  0  0  0
  188.9880  176.5860  138.2060 C   0  0  0  0  0  2  0  0  0  0  0  0
  188.0000  176.5900  137.2210 C   0  0  0  0  0  0  0  0  0  0  0  0
  189.5160  177.8020  138.6660 C   0  0  0  0  0  0  0  0  0  0  0  0
  186.5870  177.8390  135.7450 F   0  0  0  0  0  0  0  0  0  0  0  0
  188.0930  178.9980  137.1820 C   0  0  0  0  0  2  0  0  0  0  0  0
  189.0540  178.9710  138.1440 N   0  0  0  0  0  0  0  0  0  0  0  0
  187.5460  177.8060  136.7020 C   0  0  0  0  0  0  0  0  0  0  0  0
  187.3430  175.0680  136.6540 Cl  0  0  0  0  0  0  0  0  0  0  0  0
  1 19  1  0  0  0  0
  1  3  2  0  0  0  0
  2  3  1  0  0  0  0
  3 12  1  0  0  0  0
  4  7  1  6  0  0  0
  4  2  1  0  0  0  0
  5  6  1  1  0  0  0
  5  4  1  0  0  0  0
  5  1  1  0  0  0  0
  7  8  1  0  0  0  0
 10  9  1  0  0  0  0
 10  8  1  0  0  0  0
 11 10  2  0  0  0  0
 12 17  1  0  0  0  0
 13 18  1  0  0  0  0
 14 15  1  0  0  0  0
 15 18  2  0  0  0  0
 16 13  2  0  0  0  0
 17 16  1  0  0  0  0
 17 14  2  0  0  0  0
 20 23  1  6  0  0  0
 20 22  1  0  0  0  0
 20 21  1  0  0  0  0
 21 19  1  6  0  0  0
 22 21  1  0  0  0  0
 24 23  1  0  0  0  0
 25 27  1  0  0  0  0
 26 25  1  0  0  0  0
 27 24  1  0  0  0  0
 28 31  1  0  0  0  0
 29 30  1  0  0  0  0
 30 27  2  0  0  0  0
 31 29  1  0  0  0  0
 31 26  2  0  0  0  0
 32 26  1  0  0  0  0
M  END
>  <MODEL>
8

>  <REMARK>
 VINA RESULT:      -7.5      3.409      7.758
  Name = 
  9 active torsions:
  status: ('A' for Active; 'I' for Inactive)
    1  A    between atoms: C_3  and  O_8
    2  A    between atoms: C_4  and  C_20
    3  A    between atoms: N_5  and  C_9
    4  A    between atoms: C_6  and  N_30
    5  A    between atoms: O_8  and  C_20
    6  A    between atoms: C_9  and  C_23
    7  A    between atoms: C_13  and  N_30
    8  A    between atoms: N_17  and  C_22
    9  A    between atoms: N_17  and  C_26
                            x       y       z     vdW  Elec       q    Type
                         _______ _______ _______ _____ _____    ______ ____

>  <TORSDO>
F 9

$$$$
=
 OpenBabel10222416293D

 32 35  0  0  1  0  0  0  0  0999 V2000
  188.6730  177.6770  139.0780 C   0  0  0  0  0  0  0  0  0  0  0  0
  186.4120  177.6800  137.7270 S   0  0  0  0  0  0  0  0  0  0  0  0
  187.4450  178.1810  139.0850 C   0  0  0  0  0  0  0  0  0  0  0  0
  187.9020  177.0740  136.8630 C   0  0  1  0  0  3  0  0  0  0  0  0
  189.0260  176.8740  137.8730 C   0  0  1  0  0  3  0  0  0  0  0  0
  190.2130  177.3260  137.3270 F   0  0  0  0  0  0  0  0  0  0  0  0
  187.6140  175.7980  136.0830 C   0  0  0  0  0  2  0  0  0  0  0  0
  186.9770  174.8000  136.9310 N   0  0  0  0  0  2  0  0  0  0  0  0
  185.0210  172.9580  137.6550 S   0  0  0  0  0  1  0  0  0  0  0  0
  185.7470  174.1750  136.5680 C   0  0  0  0  0  0  0  0  0  0  0  0
  185.1670  174.4720  135.4900 O   0  0  0  0  0  0  0  0  0  0  0  0
  186.9110  178.9690  140.1590 N   0  0  0  0  0  2  0  0  0  0  0  0
  184.1900  178.2850  142.6370 C   0  0  0  0  0  3  0  0  0  0  0  0
  184.4750  179.0930  139.9990 C   0  0  0  0  0  3  0  0  0  0  0  0
  183.2390  178.9670  140.5550 N   0  0  0  0  0  0  0  0  0  0  0  0
  185.4650  178.4060  142.0850 C   0  0  0  0  0  3  0  0  0  0  0  0
  185.6160  178.8010  140.7490 C   0  0  0  0  0  0  0  0  0  0  0  0
  183.0750  178.5700  141.8450 C   0  0  0  0  0  3  0  0  0  0  0  0
  189.5440  177.7950  140.2090 N   0  0  0  0  0  2  0  0  0  0  0  0
  190.6740  176.6620  142.1140 C   0  0  1  0  0  3  0  0  0  0  0  0
  190.4970  176.7620  140.5950 C   0  0  2  0  0  3  0  0  0  0  0  0
  191.6880  177.4100  141.2710 C   0  0  0  0  0  2  0  0  0  0  0  0
  189.8220  177.6490  142.9100 C   0  0  0  0  0  2  0  0  0  0  0  0
  188.7840  176.9600  143.5970 O   0  0  0  0  0  0  0  0  0  0  0  0
  187.1810  177.6690  145.3010 C   0  0  0  0  0  3  0  0  0  0  0  0
  186.8910  177.8970  146.6460 C   0  0  0  0  0  0  0  0  0  0  0  0
  188.4550  177.2100  144.9330 C   0  0  0  0  0  0  0  0  0  0  0  0
  187.6160  177.8790  148.9280 F   0  0  0  0  0  0  0  0  0  0  0  0
  189.1300  177.2080  147.2140 C   0  0  0  0  0  3  0  0  0  0  0  0
  189.3910  176.9920  145.8970 N   0  0  0  0  0  0  0  0  0  0  0  0
  187.8720  177.6660  147.6140 C   0  0  0  0  0  0  0  0  0  0  0  0
  185.2960  178.4660  147.0980 Cl  0  0  0  0  0  0  0  0  0  0  0  0
  1  3  2  0  0  0  0
  1 19  1  0  0  0  0
  2  3  1  0  0  0  0
  3 12  1  0  0  0  0
  4  7  1  1  0  0  0
  4  2  1  0  0  0  0
  4  5  1  0  0  0  0
  5  6  1  6  0  0  0
  5  1  1  0  0  0  0
  7  8  1  0  0  0  0
 10  8  1  0  0  0  0
 10  9  1  0  0  0  0
 11 10  2  0  0  0  0
 12 17  1  0  0  0  0
 14 15  2  0  0  0  0
 14 17  1  0  0  0  0
 15 18  1  0  0  0  0
 16 13  1  0  0  0  0
 17 16  2  0  0  0  0
 18 13  2  0  0  0  0
 20 23  1  1  0  0  0
 21 19  1  1  0  0  0
 21 22  1  0  0  0  0
 21 20  1  0  0  0  0
 22 20  1  0  0  0  0
 23 24  1  0  0  0  0
 24 27  1  0  0  0  0
 25 26  2  0  0  0  0
 26 32  1  0  0  0  0
 26 31  1  0  0  0  0
 27 25  1  0  0  0  0
 27 30  2  0  0  0  0
 29 31  2  0  0  0  0
 30 29  1  0  0  0  0
 31 28  1  0  0  0  0
M  END
>  <MODEL>
9

>  <REMARK>
 VINA RESULT:      -7.5      3.205      5.072
  Name = 
  9 active torsions:
  status: ('A' for Active; 'I' for Inactive)
    1  A    between atoms: C_3  and  O_8
    2  A    between atoms: C_4  and  C_20
    3  A    between atoms: N_5  and  C_9
    4  A    between atoms: C_6  and  N_30
    5  A    between atoms: O_8  and  C_20
    6  A    between atoms: C_9  and  C_23
    7  A    between atoms: C_13  and  N_30
    8  A    between atoms: N_17  and  C_22
    9  A    between atoms: N_17  and  C_26
                            x       y       z     vdW  Elec       q    Type
                         _______ _______ _______ _____ _____    ______ ____

>  <TORSDO>
F 9

$$$$
