=
 OpenBabel10222415363D

 54 57  0  0  1  0  0  0  0  0999 V2000
  190.8810  175.8870  136.2320 N   0  0  0  0  0  0  0  0  0  0  0  0
  189.4640  175.6910  135.9180 C   0  0  1  0  0  3  0  0  0  0  0  0
  188.6990  178.1010  135.6710 N   0  0  0  0  0  0  0  0  0  0  0  0
  187.6780  175.3610  137.5950 N   0  0  0  0  0  0  0  0  0  0  0  0
  188.7690  174.6590  136.8790 C   0  0  0  0  0  3  0  0  0  0  0  0
  186.9640  177.7610  137.3020 C   0  0  0  0  0  0  0  0  0  0  0  0
  187.5870  178.7060  136.3620 C   0  0  0  0  0  0  0  0  0  0  0  0
  188.7040  176.9210  136.1940 C   0  0  0  0  0  0  0  0  0  0  0  0
  187.2620  179.9500  136.2250 N   0  0  0  0  0  2  0  0  0  0  0  0
  187.7190  176.6960  137.1400 C   0  0  0  0  0  0  0  0  0  0  0  0
  185.8400  178.7510  139.3180 N   0  0  0  0  0  2  0  0  0  0  0  0
  185.7790  177.9250  138.1490 C   0  0  0  0  0  0  0  0  0  0  0  0
  184.7320  177.2990  137.8520 O   0  0  0  0  0  0  0  0  0  0  0  0
  182.8030  178.6970  142.6100 C   0  0  0  0  0  0  0  0  0  0  0  0
  184.1060  178.9850  142.6780 C   0  0  0  0  0  3  0  0  0  0  0  0
  183.4700  180.4990  138.7320 O   0  0  0  0  0  1  0  0  0  0  0  0
  185.0490  178.8620  141.5400 C   0  0  0  0  0  3  0  0  0  0  0  0
  182.2090  178.1460  141.3510 C   0  0  0  0  0  2  0  0  0  0  0  0
  183.4600  179.5510  139.7530 C   0  0  0  0  0  0  0  0  0  0  0  0
  182.2780  179.1560  140.2480 C   0  0  0  0  0  0  0  0  0  0  0  0
  184.7730  179.0140  140.2370 C   0  0  0  0  0  0  0  0  0  0  0  0
  182.7440  178.9340  144.9690 F   0  0  0  0  0  0  0  0  0  0  0  0
  181.9470  178.8090  143.8430 C   0  0  0  0  0  0  0  0  0  0  0  0
  181.1450  177.6900  143.9860 F   0  0  0  0  0  0  0  0  0  0  0  0
  181.1240  179.9200  143.7370 F   0  0  0  0  0  0  0  0  0  0  0  0
  180.2720  180.5910  140.4010 C   0  0  0  0  0  1  0  0  0  0  0  0
  181.1110  179.6860  139.7000 O   0  0  0  0  0  0  0  0  0  0  0  0
  191.9130  175.1450  135.5690 C   0  0  0  0  0  0  0  0  0  0  0  0
  192.6040  175.7520  134.6030 C   0  0  0  0  0  2  0  0  0  0  0  0
  192.6950  172.8890  136.4840 C   0  0  2  0  0  3  0  0  0  0  0  0
  192.9460  172.9460  135.0330 N   0  0  0  0  0  2  0  0  0  0  0  0
  191.7730  173.6430  135.6000 C   0  0  2  0  0  3  0  0  0  0  0  0
  193.7830  173.6840  137.2040 C   0  0  0  0  0  2  0  0  0  0  0  0
  195.0050  172.8100  137.4880 C   0  0  0  0  0  2  0  0  0  0  0  0
  196.3260  173.4770  137.0900 C   0  0  0  0  0  2  0  0  0  0  0  0
  196.1020  174.6980  136.1990 C   0  0  0  0  0  2  0  0  0  0  0  0
  197.2330  176.7710  135.9180 O   0  0  0  0  0  1  0  0  0  0  0  0
  198.4080  175.0100  136.7590 O   0  0  0  0  0  1  0  0  0  0  0  0
  197.4110  175.3900  135.8570 C   0  0  0  0  0  3  0  0  0  0  0  0
  191.2250  176.7980  137.3180 C   0  0  0  0  0  2  0  0  0  0  0  0
  191.5930  176.0100  138.5720 C   0  0  0  0  0  2  0  0  0  0  0  0
  190.7200  176.4170  139.6810 C   0  0  0  0  0  0  0  0  0  0  0  0
  190.0210  176.7590  140.6030 C   0  0  0  0  0  0  0  0  0  0  0  0
  189.1920  177.2270  141.7200 C   0  0  0  0  0  2  0  0  0  0  0  0
  191.2100  176.9630  142.9940 O   0  0  0  0  0  1  0  0  0  0  0  0
  189.8170  176.8240  143.0520 C   0  0  1  0  0  3  0  0  0  0  0  0
  189.2460  177.6230  144.2350 C   0  0  1  0  0  0  0  0  0  0  0  0
  190.1600  178.6220  144.5670 O   0  0  0  0  0  1  0  0  0  0  0  0
  187.9380  178.3070  143.8370 C   0  0  0  0  0  1  0  0  0  0  0  0
  189.1260  176.6950  145.4640 C   0  0  0  0  0  2  0  0  0  0  0  0
  188.9520  178.2040  147.2990 O   0  0  0  0  0  0  0  0  0  0  0  0
  189.5970  177.2590  146.7680 C   0  0  0  0  0  0  0  0  0  0  0  0
  191.9020  176.4110  146.6170 C   0  0  0  0  0  1  0  0  0  0  0  0
  190.7490  176.7470  147.3710 O   0  0  0  0  0  0  0  0  0  0  0  0
  1 40  1  0  0  0  0
  2  8  1  0  0  0  0
  2  1  1  1  0  0  0
  2  5  1  0  0  0  0
  3  8  2  0  0  0  0
  3  7  1  0  0  0  0
  5  4  2  0  0  0  0
  6 12  1  0  0  0  0
  7  6  1  0  0  0  0
  8 10  1  0  0  0  0
  9  7  2  0  0  0  0
 10  6  2  0  0  0  0
 10  4  1  0  0  0  0
 11 21  1  0  0  0  0
 12 11  1  0  0  0  0
 13 12  2  0  0  0  0
 14 15  2  0  0  0  0
 14 23  1  0  0  0  0
 16 19  1  0  0  0  0
 17 15  1  0  0  0  0
 18 14  1  0  0  0  0
 19 21  1  0  0  0  0
 19 20  2  0  0  0  0
 20 18  1  0  0  0  0
 21 17  2  0  0  0  0
 23 24  1  0  0  0  0
 23 22  1  0  0  0  0
 25 23  1  0  0  0  0
 27 20  1  0  0  0  0
 27 26  1  0  0  0  0
 28  1  1  0  0  0  0
 29 28  2  0  0  0  0
 30 33  1  1  0  0  0
 31 32  1  0  0  0  0
 31 30  1  0  0  0  0
 32 28  1  1  0  0  0
 32 30  1  0  0  0  0
 33 34  1  0  0  0  0
 35 34  1  0  0  0  0
 36 35  1  0  0  0  0
 39 37  1  0  0  0  0
 39 36  1  0  0  0  0
 39 38  1  0  0  0  0
 40 41  1  0  0  0  0
 41 42  1  0  0  0  0
 42 43  3  0  0  0  0
 43 44  1  0  0  0  0
 44 46  1  0  0  0  0
 46 45  1  6  0  0  0
 46 47  1  0  0  0  0
 47 49  1  6  0  0  0
 47 48  1  0  0  0  0
 47 50  1  0  0  0  0
 50 52  1  0  0  0  0
 52 51  2  0  0  0  0
 52 54  1  0  0  0  0
 53 54  1  0  0  0  0
M  END
>  <MODEL>
1

>  <REMARK>
 VINA RESULT:      -7.0      0.000      0.000
  Name = 
  21 active torsions:
  status: ('A' for Active; 'I' for Inactive)
    1  A    between atoms: C_2  and  N_10
    2  A    between atoms: C_2  and  C_41
    3  A    between atoms: N_3  and  C_52
    4  A    between atoms: C_4  and  N_10
    5  A    between atoms: O_6  and  C_50
    6  A    between atoms: O_7  and  C_49
    7  A    between atoms: C_8  and  C_27
    8  A    between atoms: C_9  and  C_35
    9  A    between atoms: C_9  and  C_39
   10  A    between atoms: N_10  and  C_42
   11  A    between atoms: C_13  and  C_25
   12  A    between atoms: C_17  and  C_28
   13  A    between atoms: C_17  and  C_35
   14  A    between atoms: C_25  and  C_45
   15  A    between atoms: C_28  and  C_49
   16  A    between atoms: C_31  and  C_36
   17  A    between atoms: C_33  and  C_37
   18  A    between atoms: C_33  and  C_43
   19  A    between atoms: C_38  and  C_54
   20  A    between atoms: C_42  and  C_54
   21  A    between atoms: C_43  and  C_45
                            x       y       z     vdW  Elec       q    Type
                         _______ _______ _______ _____ _____    ______ ____

>  <TORSDO>
F 21

$$$$
=
 OpenBabel10222415363D

 54 57  0  0  1  0  0  0  0  0999 V2000
  186.9890  178.0760  142.5660 N   0  0  0  0  0  0  0  0  0  0  0  0
  188.0050  178.7250  141.7340 C   0  0  1  0  0  3  0  0  0  0  0  0
  187.0280  178.3480  139.4190 N   0  0  0  0  0  0  0  0  0  0  0  0
  190.0920  177.6500  140.9590 N   0  0  0  0  0  0  0  0  0  0  0  0
  189.4680  178.3080  142.1310 C   0  0  0  0  0  3  0  0  0  0  0  0
  189.0680  177.3090  138.6810 C   0  0  0  0  0  0  0  0  0  0  0  0
  187.7160  177.7490  138.3020 C   0  0  0  0  0  0  0  0  0  0  0  0
  187.9180  178.2380  140.3470 C   0  0  1  0  0  3  0  0  0  0  0  0
  187.1590  177.5490  137.1530 N   0  0  0  0  0  1  0  0  0  0  0  0
  189.1020  177.6390  139.9540 C   0  0  0  0  0  0  0  0  0  0  0  0
  190.8980  175.6200  138.3570 N   0  0  0  0  0  2  0  0  0  0  0  0
  190.1280  176.7210  137.8580 C   0  0  0  0  0  0  0  0  0  0  0  0
  190.3700  177.2240  136.7330 O   0  0  0  0  0  0  0  0  0  0  0  0
  193.7190  172.6510  136.5420 C   0  0  0  0  0  0  0  0  0  0  0  0
  192.5020  173.0120  136.1260 C   0  0  0  0  0  3  0  0  0  0  0  0
  193.5990  176.7970  137.7780 O   0  0  0  0  0  1  0  0  0  0  0  0
  191.6020  173.9260  136.8690 C   0  0  0  0  0  3  0  0  0  0  0  0
  194.2390  173.1140  137.8680 C   0  0  0  0  0  2  0  0  0  0  0  0
  193.3710  175.4230  137.7760 C   0  0  0  0  0  0  0  0  0  0  0  0
  194.4260  174.5990  137.8730 C   0  0  0  0  0  0  0  0  0  0  0  0
  191.9570  174.9370  137.6750 C   0  0  0  0  0  0  0  0  0  0  0  0
  195.4630  172.3490  134.9630 F   0  0  0  0  0  0  0  0  0  0  0  0
  194.5280  171.6740  135.7320 C   0  0  0  0  0  0  0  0  0  0  0  0
  193.7110  170.9370  134.8940 F   0  0  0  0  0  0  0  0  0  0  0  0
  195.1810  170.7950  136.5830 F   0  0  0  0  0  0  0  0  0  0  0  0
  196.8780  174.3670  138.0520 C   0  0  0  0  0  1  0  0  0  0  0  0
  195.6980  175.1530  138.0050 O   0  0  0  0  0  0  0  0  0  0  0  0
  187.3370  177.3160  143.7300 C   0  0  0  0  0  0  0  0  0  0  0  0
  187.6260  176.0220  143.5750 C   0  0  0  0  0  2  0  0  0  0  0  0
  187.8290  178.2760  146.0480 C   0  0  2  0  0  3  0  0  0  0  0  0
  187.1600  176.9710  146.1880 N   0  0  0  0  0  2  0  0  0  0  0  0
  186.8240  177.8460  145.0460 C   0  0  2  0  0  3  0  0  0  0  0  0
  189.3000  178.0440  145.7100 C   0  0  0  0  0  2  0  0  0  0  0  0
  189.9100  176.9740  146.6170 C   0  0  0  0  0  2  0  0  0  0  0  0
  191.3070  176.5320  146.1690 C   0  0  0  0  0  2  0  0  0  0  0  0
  191.5650  176.8630  144.7000 C   0  0  0  0  0  2  0  0  0  0  0  0
  192.2990  174.6010  144.7410 O   0  0  0  0  0  1  0  0  0  0  0  0
  190.7130  175.1900  143.2160 O   0  0  0  0  0  1  0  0  0  0  0  0
  191.8620  175.6130  143.8880 C   0  0  0  0  0  3  0  0  0  0  0  0
  185.5980  178.1380  142.1280 C   0  0  0  0  0  2  0  0  0  0  0  0
  184.8630  179.2520  142.8660 C   0  0  0  0  0  2  0  0  0  0  0  0
  183.4130  179.0540  142.7350 C   0  0  0  0  0  0  0  0  0  0  0  0
  182.2200  178.8950  142.6490 C   0  0  0  0  0  0  0  0  0  0  0  0
  180.7620  178.7500  142.5720 C   0  0  0  0  0  2  0  0  0  0  0  0
  181.1710  179.8250  140.4640 O   0  0  0  0  0  1  0  0  0  0  0  0
  180.2790  178.9850  141.1440 C   0  0  1  0  0  3  0  0  0  0  0  0
  180.0790  177.6740  140.3660 C   0  0  1  0  0  0  0  0  0  0  0  0
  179.7220  176.6790  141.2750 O   0  0  0  0  0  1  0  0  0  0  0  0
  178.9350  177.8170  139.3630 C   0  0  0  0  0  1  0  0  0  0  0  0
  181.4230  177.2480  139.7360 C   0  0  0  0  0  2  0  0  0  0  0  0
  181.5370  176.6120  137.4420 O   0  0  0  0  0  0  0  0  0  0  0  0
  181.3470  176.2390  138.6330 C   0  0  0  0  0  0  0  0  0  0  0  0
  179.8860  174.2700  138.4260 C   0  0  0  0  0  1  0  0  0  0  0  0
  181.0490  174.9070  138.9290 O   0  0  0  0  0  0  0  0  0  0  0  0
  1 28  1  0  0  0  0
  2  5  1  0  0  0  0
  2  1  1  1  0  0  0
  4  5  2  0  0  0  0
  6 10  2  0  0  0  0
  7  6  1  0  0  0  0
  7  3  2  0  0  0  0
  8  3  1  6  0  0  0
  8  2  1  0  0  0  0
  9  7  1  0  0  0  0
 10  8  1  0  0  0  0
 10  4  1  0  0  0  0
 12 11  1  0  0  0  0
 12  6  1  0  0  0  0
 13 12  2  0  0  0  0
 14 18  1  0  0  0  0
 15 14  2  0  0  0  0
 15 17  1  0  0  0  0
 17 21  2  0  0  0  0
 18 20  1  0  0  0  0
 19 16  1  0  0  0  0
 19 20  2  0  0  0  0
 20 27  1  0  0  0  0
 21 19  1  0  0  0  0
 21 11  1  0  0  0  0
 22 23  1  0  0  0  0
 23 14  1  0  0  0  0
 23 25  1  0  0  0  0
 24 23  1  0  0  0  0
 27 26  1  0  0  0  0
 29 28  2  0  0  0  0
 30 33  1  6  0  0  0
 30 31  1  0  0  0  0
 32 28  1  6  0  0  0
 32 30  1  0  0  0  0
 32 31  1  0  0  0  0
 33 34  1  0  0  0  0
 35 34  1  0  0  0  0
 36 35  1  0  0  0  0
 38 39  1  0  0  0  0
 39 36  1  0  0  0  0
 39 37  1  0  0  0  0
 40  1  1  0  0  0  0
 40 41  1  0  0  0  0
 42 41  1  0  0  0  0
 43 42  3  0  0  0  0
 44 43  1  0  0  0  0
 46 45  1  6  0  0  0
 46 44  1  0  0  0  0
 47 49  1  6  0  0  0
 47 46  1  0  0  0  0
 47 48  1  0  0  0  0
 50 47  1  0  0  0  0
 51 52  2  0  0  0  0
 52 54  1  0  0  0  0
 52 50  1  0  0  0  0
 53 54  1  0  0  0  0
M  END
>  <MODEL>
2

>  <REMARK>
 VINA RESULT:      -7.0      4.775     10.741
  Name = 
  21 active torsions:
  status: ('A' for Active; 'I' for Inactive)
    1  A    between atoms: C_2  and  N_10
    2  A    between atoms: C_2  and  C_41
    3  A    between atoms: N_3  and  C_52
    4  A    between atoms: C_4  and  N_10
    5  A    between atoms: O_6  and  C_50
    6  A    between atoms: O_7  and  C_49
    7  A    between atoms: C_8  and  C_27
    8  A    between atoms: C_9  and  C_35
    9  A    between atoms: C_9  and  C_39
   10  A    between atoms: N_10  and  C_42
   11  A    between atoms: C_13  and  C_25
   12  A    between atoms: C_17  and  C_28
   13  A    between atoms: C_17  and  C_35
   14  A    between atoms: C_25  and  C_45
   15  A    between atoms: C_28  and  C_49
   16  A    between atoms: C_31  and  C_36
   17  A    between atoms: C_33  and  C_37
   18  A    between atoms: C_33  and  C_43
   19  A    between atoms: C_38  and  C_54
   20  A    between atoms: C_42  and  C_54
   21  A    between atoms: C_43  and  C_45
                            x       y       z     vdW  Elec       q    Type
                         _______ _______ _______ _____ _____    ______ ____

>  <TORSDO>
F 21

$$$$
=
 OpenBabel10222415363D

 54 57  0  0  1  0  0  0  0  0999 V2000
  190.5580  174.9290  136.0450 N   0  0  0  0  0  0  0  0  0  0  0  0
  190.2650  176.2050  136.7010 C   0  0  1  0  0  3  0  0  0  0  0  0
  192.5040  176.6950  137.7970 N   0  0  0  0  0  0  0  0  0  0  0  0
  189.1990  176.4390  138.9200 N   0  0  0  0  0  0  0  0  0  0  0  0
  188.9050  176.1810  137.4900 C   0  0  0  0  0  3  0  0  0  0  0  0
  191.4500  176.9240  139.9470 C   0  0  0  0  0  0  0  0  0  0  0  0
  192.7110  176.9970  139.1930 C   0  0  0  0  0  0  0  0  0  0  0  0
  191.2350  176.4610  137.7790 C   0  0  0  0  0  0  0  0  0  0  0  0
  193.8790  177.2050  139.7060 N   0  0  0  0  0  2  0  0  0  0  0  0
  190.6000  176.5800  139.0030 C   0  0  0  0  0  0  0  0  0  0  0  0
  190.3260  176.3600  142.1210 N   0  0  0  0  0  2  0  0  0  0  0  0
  191.1830  177.2180  141.3570 C   0  0  0  0  0  0  0  0  0  0  0  0
  191.6840  178.2520  141.8660 O   0  0  0  0  0  0  0  0  0  0  0  0
  188.7000  177.6250  146.0990 C   0  0  0  0  0  0  0  0  0  0  0  0
  188.0750  176.9930  145.1010 C   0  0  0  0  0  3  0  0  0  0  0  0
  191.9360  175.2920  144.4200 O   0  0  0  0  0  1  0  0  0  0  0  0
  188.6790  176.7210  143.7750 C   0  0  0  0  0  3  0  0  0  0  0  0
  190.0780  178.1780  145.9050 C   0  0  0  0  0  2  0  0  0  0  0  0
  191.0000  176.3120  144.5780 C   0  0  0  0  0  0  0  0  0  0  0  0
  191.0630  177.0740  145.6800 C   0  0  0  0  0  0  0  0  0  0  0  0
  189.9750  176.5090  143.5020 C   0  0  0  0  0  0  0  0  0  0  0  0
  187.0570  178.9210  147.2160 F   0  0  0  0  0  0  0  0  0  0  0  0
  187.9710  177.8930  147.3880 C   0  0  0  0  0  0  0  0  0  0  0  0
  188.8580  178.2490  148.3880 F   0  0  0  0  0  0  0  0  0  0  0  0
  187.3020  176.7470  147.7900 F   0  0  0  0  0  0  0  0  0  0  0  0
  191.8480  176.7340  147.9980 C   0  0  0  0  0  1  0  0  0  0  0  0
  192.0810  176.8340  146.6020 O   0  0  0  0  0  0  0  0  0  0  0  0
  191.7720  174.7170  135.3120 C   0  0  0  0  0  0  0  0  0  0  0  0
  192.2600  175.7300  134.5940 C   0  0  0  0  0  2  0  0  0  0  0  0
  192.9760  172.5320  135.8730 C   0  0  2  0  0  3  0  0  0  0  0  0
  193.5120  173.0810  134.6140 N   0  0  0  0  0  2  0  0  0  0  0  0
  192.0880  173.2860  134.9540 C   0  0  2  0  0  3  0  0  0  0  0  0
  193.5870  173.2990  137.0440 C   0  0  0  0  0  2  0  0  0  0  0  0
  195.1080  173.3810  136.9130 C   0  0  0  0  0  2  0  0  0  0  0  0
  195.8060  173.7310  138.2330 C   0  0  0  0  0  2  0  0  0  0  0  0
  197.0920  174.5240  138.0050 C   0  0  0  0  0  2  0  0  0  0  0  0
  198.7110  175.8730  139.1070 O   0  0  0  0  0  1  0  0  0  0  0  0
  196.8580  175.2450  140.2750 O   0  0  0  0  0  1  0  0  0  0  0  0
  197.7910  174.8460  139.3150 C   0  0  0  0  0  3  0  0  0  0  0  0
  189.5340  173.8910  136.0690 C   0  0  0  0  0  2  0  0  0  0  0  0
  188.8340  173.8080  134.7160 C   0  0  0  0  0  2  0  0  0  0  0  0
  187.4370  174.2420  134.8590 C   0  0  0  0  0  0  0  0  0  0  0  0
  186.2870  174.5810  134.9900 C   0  0  0  0  0  0  0  0  0  0  0  0
  184.8950  174.9920  135.2050 C   0  0  0  0  0  2  0  0  0  0  0  0
  185.5560  176.9770  136.3820 O   0  0  0  0  0  1  0  0  0  0  0  0
  184.7750  175.8180  136.4810 C   0  0  1  0  0  3  0  0  0  0  0  0
  183.3180  176.1810  136.8130 C   0  0  1  0  0  0  0  0  0  0  0  0
  183.1460  177.5450  136.5840 O   0  0  0  0  0  1  0  0  0  0  0  0
  182.3570  175.4320  135.8880 C   0  0  0  0  0  1  0  0  0  0  0  0
  183.0640  175.9400  138.3170 C   0  0  0  0  0  2  0  0  0  0  0  0
  182.0530  177.5910  139.7060 O   0  0  0  0  0  0  0  0  0  0  0  0
  183.1200  177.1470  139.1990 C   0  0  0  0  0  0  0  0  0  0  0  0
  184.5630  179.1370  139.0990 C   0  0  0  0  0  1  0  0  0  0  0  0
  184.3440  177.7780  139.4370 O   0  0  0  0  0  0  0  0  0  0  0  0
  1 40  1  0  0  0  0
  2  1  1  1  0  0  0
  2  5  1  0  0  0  0
  2  8  1  0  0  0  0
  3  7  1  0  0  0  0
  4 10  1  0  0  0  0
  5  4  2  0  0  0  0
  6 12  1  0  0  0  0
  7  9  2  0  0  0  0
  7  6  1  0  0  0  0
  8  3  2  0  0  0  0
  8 10  1  0  0  0  0
 10  6  2  0  0  0  0
 11 21  1  0  0  0  0
 12 13  2  0  0  0  0
 12 11  1  0  0  0  0
 14 23  1  0  0  0  0
 15 14  2  0  0  0  0
 16 19  1  0  0  0  0
 17 15  1  0  0  0  0
 18 14  1  0  0  0  0
 19 20  2  0  0  0  0
 20 18  1  0  0  0  0
 20 27  1  0  0  0  0
 21 17  2  0  0  0  0
 21 19  1  0  0  0  0
 22 23  1  0  0  0  0
 23 25  1  0  0  0  0
 23 24  1  0  0  0  0
 27 26  1  0  0  0  0
 28  1  1  0  0  0  0
 29 28  2  0  0  0  0
 30 33  1  1  0  0  0
 31 32  1  0  0  0  0
 31 30  1  0  0  0  0
 32 28  1  1  0  0  0
 32 30  1  0  0  0  0
 34 33  1  0  0  0  0
 34 35  1  0  0  0  0
 36 35  1  0  0  0  0
 36 39  1  0  0  0  0
 37 39  1  0  0  0  0
 39 38  1  0  0  0  0
 41 42  1  0  0  0  0
 41 40  1  0  0  0  0
 42 43  3  0  0  0  0
 43 44  1  0  0  0  0
 44 46  1  0  0  0  0
 46 45  1  6  0  0  0
 46 47  1  0  0  0  0
 47 49  1  6  0  0  0
 47 50  1  0  0  0  0
 48 47  1  0  0  0  0
 50 52  1  0  0  0  0
 52 54  1  0  0  0  0
 52 51  2  0  0  0  0
 53 54  1  0  0  0  0
M  END
>  <MODEL>
3

>  <REMARK>
 VINA RESULT:      -6.7      2.709      7.058
  Name = 
  21 active torsions:
  status: ('A' for Active; 'I' for Inactive)
    1  A    between atoms: C_2  and  N_10
    2  A    between atoms: C_2  and  C_41
    3  A    between atoms: N_3  and  C_52
    4  A    between atoms: C_4  and  N_10
    5  A    between atoms: O_6  and  C_50
    6  A    between atoms: O_7  and  C_49
    7  A    between atoms: C_8  and  C_27
    8  A    between atoms: C_9  and  C_35
    9  A    between atoms: C_9  and  C_39
   10  A    between atoms: N_10  and  C_42
   11  A    between atoms: C_13  and  C_25
   12  A    between atoms: C_17  and  C_28
   13  A    between atoms: C_17  and  C_35
   14  A    between atoms: C_25  and  C_45
   15  A    between atoms: C_28  and  C_49
   16  A    between atoms: C_31  and  C_36
   17  A    between atoms: C_33  and  C_37
   18  A    between atoms: C_33  and  C_43
   19  A    between atoms: C_38  and  C_54
   20  A    between atoms: C_42  and  C_54
   21  A    between atoms: C_43  and  C_45
                            x       y       z     vdW  Elec       q    Type
                         _______ _______ _______ _____ _____    ______ ____

>  <TORSDO>
F 21

$$$$
=
 OpenBabel10222415363D

 54 57  0  0  1  0  0  0  0  0999 V2000
  192.6520  175.5530  136.3150 N   0  0  0  0  0  0  0  0  0  0  0  0
  191.4410  174.8100  135.9590 C   0  0  1  0  0  3  0  0  0  0  0  0
  190.0800  176.6380  134.8370 N   0  0  0  0  0  0  0  0  0  0  0  0
  189.5330  174.4090  137.4790 N   0  0  0  0  0  0  0  0  0  0  0  0
  190.8980  173.9350  137.1470 C   0  0  0  0  0  3  0  0  0  0  0  0
  188.2320  176.2320  136.3210 C   0  0  0  0  0  0  0  0  0  0  0  0
  188.7280  177.0100  135.1760 C   0  0  0  0  0  0  0  0  0  0  0  0
  190.3210  175.7370  135.7290 C   0  0  1  0  0  3  0  0  0  0  0  0
  188.0930  177.9740  134.5940 N   0  0  0  0  0  1  0  0  0  0  0  0
  189.2770  175.4830  136.6020 C   0  0  0  0  0  0  0  0  0  0  0  0
  186.2320  177.4660  137.2050 N   0  0  0  0  0  2  0  0  0  0  0  0
  186.9080  176.2290  136.9500 C   0  0  0  0  0  0  0  0  0  0  0  0
  186.4030  175.1320  137.2940 O   0  0  0  0  0  0  0  0  0  0  0  0
  182.7130  177.8920  139.9440 C   0  0  0  0  0  0  0  0  0  0  0  0
  183.6600  178.7880  139.6530 C   0  0  0  0  0  3  0  0  0  0  0  0
  183.6270  176.8490  135.8450 O   0  0  0  0  0  1  0  0  0  0  0  0
  184.8500  178.5040  138.8160 C   0  0  0  0  0  3  0  0  0  0  0  0
  182.8370  176.4740  139.4810 C   0  0  0  0  0  2  0  0  0  0  0  0
  183.7390  176.9390  137.2300 C   0  0  0  0  0  0  0  0  0  0  0  0
  182.7720  176.3980  137.9870 C   0  0  0  0  0  0  0  0  0  0  0  0
  184.9400  177.6290  137.8030 C   0  0  0  0  0  0  0  0  0  0  0  0
  182.0550  178.6610  142.0900 F   0  0  0  0  0  0  0  0  0  0  0  0
  181.5720  178.2750  140.8490 C   0  0  0  0  0  0  0  0  0  0  0  0
  180.7030  177.2130  141.0190 F   0  0  0  0  0  0  0  0  0  0  0  0
  180.8670  179.3270  140.2840 F   0  0  0  0  0  0  0  0  0  0  0  0
  180.3980  175.7240  137.8810 C   0  0  0  0  0  1  0  0  0  0  0  0
  181.7160  175.7420  137.3560 O   0  0  0  0  0  0  0  0  0  0  0  0
  193.9600  175.0780  135.9710 C   0  0  0  0  0  0  0  0  0  0  0  0
  194.7910  175.9130  135.3460 C   0  0  0  0  0  2  0  0  0  0  0  0
  194.6840  172.8360  136.9670 C   0  0  2  0  0  3  0  0  0  0  0  0
  195.5140  173.1430  135.7890 N   0  0  0  0  0  2  0  0  0  0  0  0
  194.1040  173.5830  135.8240 C   0  0  2  0  0  3  0  0  0  0  0  0
  195.1910  173.6540  138.1540 C   0  0  0  0  0  2  0  0  0  0  0  0
  196.6830  173.4140  138.3880 C   0  0  0  0  0  2  0  0  0  0  0  0
  197.5580  174.5870  137.9320 C   0  0  0  0  0  2  0  0  0  0  0  0
  198.3140  175.2210  139.0990 C   0  0  0  0  0  2  0  0  0  0  0  0
  198.4570  175.0520  141.4670 O   0  0  0  0  0  1  0  0  0  0  0  0
  196.6660  176.1380  140.5720 O   0  0  0  0  0  1  0  0  0  0  0  0
  197.5530  175.0720  140.4060 C   0  0  0  0  0  3  0  0  0  0  0  0
  192.5070  176.7600  137.1220 C   0  0  0  0  0  2  0  0  0  0  0  0
  192.8270  176.4590  138.5830 C   0  0  0  0  0  2  0  0  0  0  0  0
  191.6880  176.8510  139.4250 C   0  0  0  0  0  0  0  0  0  0  0  0
  190.7390  177.1620  140.1020 C   0  0  0  0  0  0  0  0  0  0  0  0
  189.5700  177.4880  140.9260 C   0  0  0  0  0  2  0  0  0  0  0  0
  190.8560  178.2440  142.8070 O   0  0  0  0  0  1  0  0  0  0  0  0
  189.8940  177.3080  142.4060 C   0  0  1  0  0  3  0  0  0  0  0  0
  188.6460  177.4050  143.2980 C   0  0  1  0  0  0  0  0  0  0  0  0
  187.7200  178.2320  142.6640 O   0  0  0  0  0  1  0  0  0  0  0  0
  188.0000  176.0300  143.4650 C   0  0  0  0  0  1  0  0  0  0  0  0
  189.0250  178.0910  144.6290 C   0  0  0  0  0  2  0  0  0  0  0  0
  186.9880  178.1970  145.8610 O   0  0  0  0  0  0  0  0  0  0  0  0
  188.1710  177.7590  145.8120 C   0  0  0  0  0  0  0  0  0  0  0  0
  190.0890  176.7870  147.0070 C   0  0  0  0  0  1  0  0  0  0  0  0
  188.6940  176.9870  146.8520 O   0  0  0  0  0  0  0  0  0  0  0  0
  1 40  1  0  0  0  0
  2  1  1  1  0  0  0
  2  5  1  0  0  0  0
  3  7  2  0  0  0  0
  5  4  2  0  0  0  0
  6 10  2  0  0  0  0
  6 12  1  0  0  0  0
  7  6  1  0  0  0  0
  8  3  1  6  0  0  0
  8  2  1  0  0  0  0
  8 10  1  0  0  0  0
  9  7  1  0  0  0  0
 10  4  1  0  0  0  0
 11 21  1  0  0  0  0
 12 11  1  0  0  0  0
 12 13  2  0  0  0  0
 14 23  1  0  0  0  0
 15 14  2  0  0  0  0
 16 19  1  0  0  0  0
 17 15  1  0  0  0  0
 18 14  1  0  0  0  0
 19 21  1  0  0  0  0
 19 20  2  0  0  0  0
 20 18  1  0  0  0  0
 21 17  2  0  0  0  0
 23 24  1  0  0  0  0
 23 22  1  0  0  0  0
 25 23  1  0  0  0  0
 27 26  1  0  0  0  0
 27 20  1  0  0  0  0
 28  1  1  0  0  0  0
 29 28  2  0  0  0  0
 30 33  1  1  0  0  0
 31 32  1  0  0  0  0
 31 30  1  0  0  0  0
 32 28  1  1  0  0  0
 32 30  1  0  0  0  0
 33 34  1  0  0  0  0
 35 34  1  0  0  0  0
 35 36  1  0  0  0  0
 36 39  1  0  0  0  0
 39 38  1  0  0  0  0
 39 37  1  0  0  0  0
 40 41  1  0  0  0  0
 41 42  1  0  0  0  0
 42 43  3  0  0  0  0
 43 44  1  0  0  0  0
 44 46  1  0  0  0  0
 46 45  1  1  0  0  0
 46 47  1  0  0  0  0
 47 49  1  1  0  0  0
 47 50  1  0  0  0  0
 48 47  1  0  0  0  0
 50 52  1  0  0  0  0
 52 51  2  0  0  0  0
 52 54  1  0  0  0  0
 54 53  1  0  0  0  0
M  END
>  <MODEL>
4

>  <REMARK>
 VINA RESULT:      -6.6      2.168      2.779
  Name = 
  21 active torsions:
  status: ('A' for Active; 'I' for Inactive)
    1  A    between atoms: C_2  and  N_10
    2  A    between atoms: C_2  and  C_41
    3  A    between atoms: N_3  and  C_52
    4  A    between atoms: C_4  and  N_10
    5  A    between atoms: O_6  and  C_50
    6  A    between atoms: O_7  and  C_49
    7  A    between atoms: C_8  and  C_27
    8  A    between atoms: C_9  and  C_35
    9  A    between atoms: C_9  and  C_39
   10  A    between atoms: N_10  and  C_42
   11  A    between atoms: C_13  and  C_25
   12  A    between atoms: C_17  and  C_28
   13  A    between atoms: C_17  and  C_35
   14  A    between atoms: C_25  and  C_45
   15  A    between atoms: C_28  and  C_49
   16  A    between atoms: C_31  and  C_36
   17  A    between atoms: C_33  and  C_37
   18  A    between atoms: C_33  and  C_43
   19  A    between atoms: C_38  and  C_54
   20  A    between atoms: C_42  and  C_54
   21  A    between atoms: C_43  and  C_45
                            x       y       z     vdW  Elec       q    Type
                         _______ _______ _______ _____ _____    ______ ____

>  <TORSDO>
F 21

$$$$
=
 OpenBabel10222415363D

 54 57  0  0  1  0  0  0  0  0999 V2000
  187.4950  178.0690  142.3610 N   0  0  0  0  0  0  0  0  0  0  0  0
  188.8100  178.5950  141.9860 C   0  0  1  0  0  3  0  0  0  0  0  0
  188.6310  178.5440  139.4530 N   0  0  0  0  0  0  0  0  0  0  0  0
  190.8720  177.2430  141.8040 N   0  0  0  0  0  0  0  0  0  0  0  0
  189.9830  177.9140  142.7820 C   0  0  0  0  0  3  0  0  0  0  0  0
  190.6410  177.2330  139.2940 C   0  0  0  0  0  0  0  0  0  0  0  0
  189.5690  177.9170  138.5540 C   0  0  0  0  0  0  0  0  0  0  0  0
  189.1320  178.2250  140.5980 C   0  0  1  0  0  3  0  0  0  0  0  0
  189.4110  177.8910  137.2710 N   0  0  0  0  0  1  0  0  0  0  0  0
  190.2880  177.4650  140.5400 C   0  0  0  0  0  0  0  0  0  0  0  0
  191.7000  175.5550  137.7540 N   0  0  0  0  0  2  0  0  0  0  0  0
  191.8280  176.5330  138.7930 C   0  0  0  0  0  0  0  0  0  0  0  0
  192.9420  176.7800  139.3180 O   0  0  0  0  0  0  0  0  0  0  0  0
  194.7000  172.4600  136.5340 C   0  0  0  0  0  0  0  0  0  0  0  0
  193.3980  172.5270  136.2380 C   0  0  0  0  0  3  0  0  0  0  0  0
  194.0920  176.7420  136.3790 O   0  0  0  0  0  1  0  0  0  0  0  0
  192.4670  173.5400  136.7910 C   0  0  0  0  0  3  0  0  0  0  0  0
  195.3030  173.3970  137.5330 C   0  0  0  0  0  2  0  0  0  0  0  0
  194.0820  175.4330  136.8570 C   0  0  0  0  0  0  0  0  0  0  0  0
  195.2550  174.8070  137.0310 C   0  0  0  0  0  0  0  0  0  0  0  0
  192.7590  174.7960  137.1580 C   0  0  0  0  0  0  0  0  0  0  0  0
  194.8620  170.7230  134.9270 F   0  0  0  0  0  0  0  0  0  0  0  0
  195.5430  171.3560  135.9550 C   0  0  0  0  0  0  0  0  0  0  0  0
  195.8580  170.4200  136.9240 F   0  0  0  0  0  0  0  0  0  0  0  0
  196.7260  171.8860  135.4630 F   0  0  0  0  0  0  0  0  0  0  0  0
  197.3080  175.1500  135.7000 C   0  0  0  0  0  1  0  0  0  0  0  0
  196.4320  175.5030  136.7600 O   0  0  0  0  0  0  0  0  0  0  0  0
  187.2900  177.3460  143.5810 C   0  0  0  0  0  0  0  0  0  0  0  0
  187.7350  176.0900  143.6530 C   0  0  0  0  0  2  0  0  0  0  0  0
  186.4840  178.4130  145.7610 C   0  0  2  0  0  3  0  0  0  0  0  0
  186.0000  177.0240  145.6840 N   0  0  0  0  0  2  0  0  0  0  0  0
  186.1460  177.8160  144.4450 C   0  0  2  0  0  3  0  0  0  0  0  0
  187.9530  178.4020  146.1790 C   0  0  0  0  0  2  0  0  0  0  0  0
  188.0920  178.2050  147.6890 C   0  0  0  0  0  2  0  0  0  0  0  0
  189.4040  177.5200  148.0870 C   0  0  0  0  0  2  0  0  0  0  0  0
  190.0240  176.7550  146.9190 C   0  0  0  0  0  2  0  0  0  0  0  0
  192.1390  176.0320  146.1060 O   0  0  0  0  0  1  0  0  0  0  0  0
  192.0660  177.0960  148.1190 O   0  0  0  0  0  1  0  0  0  0  0  0
  191.3970  176.2090  147.2730 C   0  0  0  0  0  3  0  0  0  0  0  0
  186.3990  178.2140  141.4090 C   0  0  0  0  0  2  0  0  0  0  0  0
  185.4280  179.2900  141.8840 C   0  0  0  0  0  2  0  0  0  0  0  0
  184.0530  178.8930  141.5510 C   0  0  0  0  0  0  0  0  0  0  0  0
  182.9330  178.5480  141.2650 C   0  0  0  0  0  0  0  0  0  0  0  0
  181.5820  178.0790  140.9340 C   0  0  0  0  0  2  0  0  0  0  0  0
  180.8440  176.0260  139.9310 O   0  0  0  0  0  1  0  0  0  0  0  0
  181.6200  177.1720  139.7090 C   0  0  1  0  0  3  0  0  0  0  0  0
  181.1600  177.8910  138.4300 C   0  0  1  0  0  0  0  0  0  0  0  0
  180.2950  177.0440  137.7400 O   0  0  0  0  0  1  0  0  0  0  0  0
  180.3820  179.1600  138.7810 C   0  0  0  0  0  1  0  0  0  0  0  0
  182.3810  178.1310  137.5150 C   0  0  0  0  0  2  0  0  0  0  0  0
  182.8780  175.9630  136.6610 O   0  0  0  0  0  0  0  0  0  0  0  0
  183.2930  176.9630  137.3090 C   0  0  0  0  0  0  0  0  0  0  0  0
  185.3010  178.1940  138.0210 C   0  0  0  0  0  1  0  0  0  0  0  0
  184.5820  176.9840  137.8480 O   0  0  0  0  0  0  0  0  0  0  0  0
  1 28  1  0  0  0  0
  2  1  1  1  0  0  0
  2  5  1  0  0  0  0
  4  5  2  0  0  0  0
  6 10  2  0  0  0  0
  7  6  1  0  0  0  0
  7  3  2  0  0  0  0
  8  3  1  6  0  0  0
  8  2  1  0  0  0  0
  9  7  1  0  0  0  0
 10  8  1  0  0  0  0
 10  4  1  0  0  0  0
 11 12  1  0  0  0  0
 12  6  1  0  0  0  0
 12 13  2  0  0  0  0
 14 18  1  0  0  0  0
 15 14  2  0  0  0  0
 15 17  1  0  0  0  0
 16 19  1  0  0  0  0
 17 21  2  0  0  0  0
 19 20  2  0  0  0  0
 19 21  1  0  0  0  0
 20 18  1  0  0  0  0
 21 11  1  0  0  0  0
 22 23  1  0  0  0  0
 23 14  1  0  0  0  0
 23 24  1  0  0  0  0
 25 23  1  0  0  0  0
 26 27  1  0  0  0  0
 27 20  1  0  0  0  0
 28 29  2  0  0  0  0
 30 33  1  6  0  0  0
 31 30  1  0  0  0  0
 32 28  1  6  0  0  0
 32 31  1  0  0  0  0
 32 30  1  0  0  0  0
 33 34  1  0  0  0  0
 34 35  1  0  0  0  0
 36 39  1  0  0  0  0
 36 35  1  0  0  0  0
 37 39  1  0  0  0  0
 39 38  1  0  0  0  0
 40 41  1  0  0  0  0
 40  1  1  0  0  0  0
 42 41  1  0  0  0  0
 43 42  3  0  0  0  0
 44 43  1  0  0  0  0
 46 45  1  1  0  0  0
 46 44  1  0  0  0  0
 47 49  1  1  0  0  0
 47 46  1  0  0  0  0
 48 47  1  0  0  0  0
 50 47  1  0  0  0  0
 51 52  2  0  0  0  0
 52 50  1  0  0  0  0
 52 54  1  0  0  0  0
 54 53  1  0  0  0  0
M  END
>  <MODEL>
5

>  <REMARK>
 VINA RESULT:      -6.4      4.753     11.245
  Name = 
  21 active torsions:
  status: ('A' for Active; 'I' for Inactive)
    1  A    between atoms: C_2  and  N_10
    2  A    between atoms: C_2  and  C_41
    3  A    between atoms: N_3  and  C_52
    4  A    between atoms: C_4  and  N_10
    5  A    between atoms: O_6  and  C_50
    6  A    between atoms: O_7  and  C_49
    7  A    between atoms: C_8  and  C_27
    8  A    between atoms: C_9  and  C_35
    9  A    between atoms: C_9  and  C_39
   10  A    between atoms: N_10  and  C_42
   11  A    between atoms: C_13  and  C_25
   12  A    between atoms: C_17  and  C_28
   13  A    between atoms: C_17  and  C_35
   14  A    between atoms: C_25  and  C_45
   15  A    between atoms: C_28  and  C_49
   16  A    between atoms: C_31  and  C_36
   17  A    between atoms: C_33  and  C_37
   18  A    between atoms: C_33  and  C_43
   19  A    between atoms: C_38  and  C_54
   20  A    between atoms: C_42  and  C_54
   21  A    between atoms: C_43  and  C_45
                            x       y       z     vdW  Elec       q    Type
                         _______ _______ _______ _____ _____    ______ ____

>  <TORSDO>
F 21

$$$$
=
 OpenBabel10222415363D

 54 57  0  0  1  0  0  0  0  0999 V2000
  190.5440  174.8040  136.2270 N   0  0  0  0  0  0  0  0  0  0  0  0
  190.1940  176.1880  136.5550 C   0  0  1  0  0  3  0  0  0  0  0  0
  191.9980  176.7390  138.2560 N   0  0  0  0  0  0  0  0  0  0  0  0
  188.5010  176.8580  138.2270 N   0  0  0  0  0  0  0  0  0  0  0  0
  188.6580  176.3730  136.8350 C   0  0  0  0  0  3  0  0  0  0  0  0
  190.3380  177.3910  139.8690 C   0  0  0  0  0  0  0  0  0  0  0  0
  191.7750  177.2650  139.5810 C   0  0  0  0  0  0  0  0  0  0  0  0
  190.7860  176.5730  137.8470 C   0  0  0  0  0  0  0  0  0  0  0  0
  192.7300  177.4950  140.4200 N   0  0  0  0  0  2  0  0  0  0  0  0
  189.8060  176.9350  138.7550 C   0  0  0  0  0  0  0  0  0  0  0  0
  189.5570  177.1550  142.2440 N   0  0  0  0  0  2  0  0  0  0  0  0
  189.6630  177.9390  141.0490 C   0  0  0  0  0  0  0  0  0  0  0  0
  189.1500  179.0830  140.9770 O   0  0  0  0  0  0  0  0  0  0  0  0
  188.2400  177.6900  146.4920 C   0  0  0  0  0  0  0  0  0  0  0  0
  189.3620  178.1160  145.9030 C   0  0  0  0  0  3  0  0  0  0  0  0
  186.8470  178.4300  142.4620 O   0  0  0  0  0  1  0  0  0  0  0  0
  189.7520  177.7850  144.5120 C   0  0  0  0  0  3  0  0  0  0  0  0
  187.3100  176.7610  145.7770 C   0  0  0  0  0  2  0  0  0  0  0  0
  187.4610  177.7980  143.5420 C   0  0  0  0  0  0  0  0  0  0  0  0
  186.7010  177.4360  144.5870 C   0  0  0  0  0  0  0  0  0  0  0  0
  188.9370  177.5490  143.4750 C   0  0  0  0  0  0  0  0  0  0  0  0
  187.6240  176.9110  148.6460 F   0  0  0  0  0  0  0  0  0  0  0  0
  187.9680  178.0460  147.9300 C   0  0  0  0  0  0  0  0  0  0  0  0
  186.9350  178.9610  148.0210 F   0  0  0  0  0  0  0  0  0  0  0  0
  189.1020  178.6150  148.4890 F   0  0  0  0  0  0  0  0  0  0  0  0
  184.7280  178.8310  145.0960 C   0  0  0  0  0  1  0  0  0  0  0  0
  185.3290  177.6760  144.5330 O   0  0  0  0  0  0  0  0  0  0  0  0
  191.7370  174.4770  135.5030 C   0  0  0  0  0  0  0  0  0  0  0  0
  192.1830  175.3470  134.5960 C   0  0  0  0  0  2  0  0  0  0  0  0
  193.0770  172.4670  136.3430 C   0  0  2  0  0  3  0  0  0  0  0  0
  193.4530  172.7620  134.9490 N   0  0  0  0  0  2  0  0  0  0  0  0
  192.0680  173.0080  135.4000 C   0  0  2  0  0  3  0  0  0  0  0  0
  193.7790  173.4620  137.2650 C   0  0  0  0  0  2  0  0  0  0  0  0
  195.1700  172.9600  137.6560 C   0  0  0  0  0  2  0  0  0  0  0  0
  195.7980  173.7650  138.8000 C   0  0  0  0  0  2  0  0  0  0  0  0
  197.1930  174.2720  138.4390 C   0  0  0  0  0  2  0  0  0  0  0  0
  198.7160  175.9630  139.1340 O   0  0  0  0  0  1  0  0  0  0  0  0
  196.8840  175.5660  140.4290 O   0  0  0  0  0  1  0  0  0  0  0  0
  197.8530  174.9780  139.6130 C   0  0  0  0  0  3  0  0  0  0  0  0
  189.5930  173.7530  136.5740 C   0  0  0  0  0  2  0  0  0  0  0  0
  188.8690  173.2640  135.3230 C   0  0  0  0  0  2  0  0  0  0  0  0
  187.4190  173.4280  135.5000 C   0  0  0  0  0  0  0  0  0  0  0  0
  186.2300  173.5480  135.6640 C   0  0  0  0  0  0  0  0  0  0  0  0
  184.7930  173.7090  135.9150 C   0  0  0  0  0  2  0  0  0  0  0  0
  184.7730  176.1100  135.8920 O   0  0  0  0  0  1  0  0  0  0  0  0
  184.5310  174.9910  136.6990 C   0  0  1  0  0  3  0  0  0  0  0  0
  183.1070  175.0450  137.2770 C   0  0  1  0  0  0  0  0  0  0  0  0
  182.3490  175.9090  136.4880 O   0  0  0  0  0  1  0  0  0  0  0  0
  182.4510  173.6660  137.2130 C   0  0  0  0  0  1  0  0  0  0  0  0
  183.1570  175.6560  138.6950 C   0  0  0  0  0  2  0  0  0  0  0  0
  181.5620  177.2810  139.3960 O   0  0  0  0  0  0  0  0  0  0  0  0
  182.6670  177.0640  138.8270 C   0  0  0  0  0  0  0  0  0  0  0  0
  184.7710  178.3320  138.6950 C   0  0  0  0  0  1  0  0  0  0  0  0
  183.4250  178.1160  138.3060 O   0  0  0  0  0  0  0  0  0  0  0  0
  1 40  1  0  0  0  0
  2  1  1  1  0  0  0
  2  5  1  0  0  0  0
  2  8  1  0  0  0  0
  3  7  1  0  0  0  0
  4 10  1  0  0  0  0
  5  4  2  0  0  0  0
  6 12  1  0  0  0  0
  7  6  1  0  0  0  0
  7  9  2  0  0  0  0
  8  3  2  0  0  0  0
  8 10  1  0  0  0  0
 10  6  2  0  0  0  0
 11 21  1  0  0  0  0
 12 11  1  0  0  0  0
 13 12  2  0  0  0  0
 14 23  1  0  0  0  0
 15 14  2  0  0  0  0
 16 19  1  0  0  0  0
 17 15  1  0  0  0  0
 18 14  1  0  0  0  0
 19 20  2  0  0  0  0
 20 18  1  0  0  0  0
 21 19  1  0  0  0  0
 21 17  2  0  0  0  0
 23 24  1  0  0  0  0
 23 25  1  0  0  0  0
 23 22  1  0  0  0  0
 27 20  1  0  0  0  0
 27 26  1  0  0  0  0
 28  1  1  0  0  0  0
 29 28  2  0  0  0  0
 30 33  1  1  0  0  0
 31 32  1  0  0  0  0
 31 30  1  0  0  0  0
 32 28  1  1  0  0  0
 32 30  1  0  0  0  0
 33 34  1  0  0  0  0
 34 35  1  0  0  0  0
 36 35  1  0  0  0  0
 36 39  1  0  0  0  0
 37 39  1  0  0  0  0
 39 38  1  0  0  0  0
 41 42  1  0  0  0  0
 41 40  1  0  0  0  0
 42 43  3  0  0  0  0
 43 44  1  0  0  0  0
 44 46  1  0  0  0  0
 46 45  1  6  0  0  0
 46 47  1  0  0  0  0
 47 49  1  1  0  0  0
 47 50  1  0  0  0  0
 48 47  1  0  0  0  0
 50 52  1  0  0  0  0
 52 51  2  0  0  0  0
 54 53  1  0  0  0  0
 54 52  1  0  0  0  0
M  END
>  <MODEL>
6

>  <REMARK>
 VINA RESULT:      -6.4      2.864      6.304
  Name = 
  21 active torsions:
  status: ('A' for Active; 'I' for Inactive)
    1  A    between atoms: C_2  and  N_10
    2  A    between atoms: C_2  and  C_41
    3  A    between atoms: N_3  and  C_52
    4  A    between atoms: C_4  and  N_10
    5  A    between atoms: O_6  and  C_50
    6  A    between atoms: O_7  and  C_49
    7  A    between atoms: C_8  and  C_27
    8  A    between atoms: C_9  and  C_35
    9  A    between atoms: C_9  and  C_39
   10  A    between atoms: N_10  and  C_42
   11  A    between atoms: C_13  and  C_25
   12  A    between atoms: C_17  and  C_28
   13  A    between atoms: C_17  and  C_35
   14  A    between atoms: C_25  and  C_45
   15  A    between atoms: C_28  and  C_49
   16  A    between atoms: C_31  and  C_36
   17  A    between atoms: C_33  and  C_37
   18  A    between atoms: C_33  and  C_43
   19  A    between atoms: C_38  and  C_54
   20  A    between atoms: C_42  and  C_54
   21  A    between atoms: C_43  and  C_45
                            x       y       z     vdW  Elec       q    Type
                         _______ _______ _______ _____ _____    ______ ____

>  <TORSDO>
F 21

$$$$
=
 OpenBabel10222415363D

 54 57  0  0  1  0  0  0  0  0999 V2000
  181.5080  178.6170  139.9470 N   0  0  0  0  0  0  0  0  0  0  0  0
  182.2260  179.1000  138.7650 C   0  0  1  0  0  3  0  0  0  0  0  0
  183.0910  176.9090  137.8130 N   0  0  0  0  0  0  0  0  0  0  0  0
  184.5500  179.9420  138.7700 N   0  0  0  0  0  0  0  0  0  0  0  0
  183.1530  180.3290  139.0810 C   0  0  0  0  0  3  0  0  0  0  0  0
  185.3460  177.7460  137.8220 C   0  0  0  0  0  0  0  0  0  0  0  0
  184.4650  176.6190  137.4790 C   0  0  0  0  0  0  0  0  0  0  0  0
  183.2010  178.0930  138.3120 C   0  0  1  0  0  3  0  0  0  0  0  0
  184.8560  175.4720  137.0290 N   0  0  0  0  0  1  0  0  0  0  0  0
  184.4880  178.6020  138.3350 C   0  0  0  0  0  0  0  0  0  0  0  0
  187.6900  176.8510  137.9110 N   0  0  0  0  0  2  0  0  0  0  0  0
  186.7840  177.9140  137.5950 C   0  0  0  0  0  0  0  0  0  0  0  0
  187.2040  179.0150  137.1600 O   0  0  0  0  0  0  0  0  0  0  0  0
  191.9740  175.9800  136.9350 C   0  0  0  0  0  0  0  0  0  0  0  0
  190.9960  176.3850  136.1210 C   0  0  0  0  0  3  0  0  0  0  0  0
  189.6050  178.4180  139.6130 O   0  0  0  0  0  1  0  0  0  0  0  0
  189.5780  176.5350  136.5280 C   0  0  0  0  0  3  0  0  0  0  0  0
  191.6730  175.5720  138.3440 C   0  0  0  0  0  2  0  0  0  0  0  0
  190.0110  177.3270  138.8470 C   0  0  0  0  0  0  0  0  0  0  0  0
  191.1830  176.7430  139.1390 C   0  0  0  0  0  0  0  0  0  0  0  0
  189.1130  176.8590  137.7430 C   0  0  0  0  0  0  0  0  0  0  0  0
  193.9110  177.0470  136.0770 F   0  0  0  0  0  0  0  0  0  0  0  0
  193.3720  175.8120  136.4010 C   0  0  0  0  0  0  0  0  0  0  0  0
  193.3720  175.0150  135.2700 F   0  0  0  0  0  0  0  0  0  0  0  0
  194.1650  175.2020  137.3610 F   0  0  0  0  0  0  0  0  0  0  0  0
  193.3310  177.4210  140.1540 C   0  0  0  0  0  1  0  0  0  0  0  0
  191.9260  177.2300  140.2140 O   0  0  0  0  0  0  0  0  0  0  0  0
  180.3000  177.8540  139.8390 C   0  0  0  0  0  0  0  0  0  0  0  0
  179.1460  178.5140  139.7240 C   0  0  0  0  0  2  0  0  0  0  0  0
  180.1660  175.3280  139.4660 C   0  0  2  0  0  3  0  0  0  0  0  0
  179.0450  175.7600  140.3190 N   0  0  0  0  0  2  0  0  0  0  0  0
  180.3440  176.4580  140.4100 C   0  0  2  0  0  3  0  0  0  0  0  0
  179.8430  175.6720  138.0130 C   0  0  0  0  0  2  0  0  0  0  0  0
  180.1560  174.4960  137.0880 C   0  0  0  0  0  2  0  0  0  0  0  0
  181.5050  173.8350  137.3920 C   0  0  0  0  0  2  0  0  0  0  0  0
  181.7180  172.5670  136.5670 C   0  0  0  0  0  2  0  0  0  0  0  0
  183.0750  170.6160  136.6740 O   0  0  0  0  0  1  0  0  0  0  0  0
  183.9690  172.5010  135.7570 O   0  0  0  0  0  1  0  0  0  0  0  0
  183.1190  172.0080  136.7500 C   0  0  0  0  0  3  0  0  0  0  0  0
  182.0020  179.0130  141.2610 C   0  0  0  0  0  2  0  0  0  0  0  0
  183.3170  178.3030  141.5670 C   0  0  0  0  0  2  0  0  0  0  0  0
  183.6350  178.4510  142.9940 C   0  0  0  0  0  0  0  0  0  0  0  0
  183.8860  178.5530  144.1700 C   0  0  0  0  0  0  0  0  0  0  0  0
  184.2120  178.6270  145.5980 C   0  0  0  0  0  2  0  0  0  0  0  0
  185.7980  179.7820  146.9830 O   0  0  0  0  0  1  0  0  0  0  0  0
  185.6630  179.0590  145.7910 C   0  0  1  0  0  3  0  0  0  0  0  0
  186.6380  177.8700  145.7720 C   0  0  1  0  0  0  0  0  0  0  0  0
  186.1480  176.8900  146.6320 O   0  0  0  0  0  1  0  0  0  0  0  0
  186.7110  177.2610  144.3710 C   0  0  0  0  0  1  0  0  0  0  0  0
  188.0030  178.3240  146.3350 C   0  0  0  0  0  2  0  0  0  0  0  0
  189.6480  176.6870  146.8760 O   0  0  0  0  0  0  0  0  0  0  0  0
  189.1780  177.4620  145.9980 C   0  0  0  0  0  0  0  0  0  0  0  0
  190.6380  178.5810  144.3640 C   0  0  0  0  0  1  0  0  0  0  0  0
  189.7520  177.5350  144.7250 O   0  0  0  0  0  0  0  0  0  0  0  0
  1 40  1  0  0  0  0
  2  5  1  0  0  0  0
  2  1  1  1  0  0  0
  4  5  2  0  0  0  0
  6 10  2  0  0  0  0
  7  3  2  0  0  0  0
  7  6  1  0  0  0  0
  8  3  1  6  0  0  0
  8 10  1  0  0  0  0
  8  2  1  0  0  0  0
  9  7  1  0  0  0  0
 10  4  1  0  0  0  0
 12  6  1  0  0  0  0
 12 11  1  0  0  0  0
 13 12  2  0  0  0  0
 14 18  1  0  0  0  0
 15 17  1  0  0  0  0
 15 14  2  0  0  0  0
 17 21  2  0  0  0  0
 18 20  1  0  0  0  0
 19 20  2  0  0  0  0
 19 16  1  0  0  0  0
 20 27  1  0  0  0  0
 21 11  1  0  0  0  0
 21 19  1  0  0  0  0
 22 23  1  0  0  0  0
 23 14  1  0  0  0  0
 23 25  1  0  0  0  0
 24 23  1  0  0  0  0
 26 27  1  0  0  0  0
 28  1  1  0  0  0  0
 29 28  2  0  0  0  0
 30 33  1  6  0  0  0
 30 31  1  0  0  0  0
 30 32  1  0  0  0  0
 31 32  1  0  0  0  0
 32 28  1  6  0  0  0
 34 35  1  0  0  0  0
 34 33  1  0  0  0  0
 36 39  1  0  0  0  0
 36 35  1  0  0  0  0
 37 39  1  0  0  0  0
 38 39  1  0  0  0  0
 40 41  1  0  0  0  0
 41 42  1  0  0  0  0
 42 43  3  0  0  0  0
 43 44  1  0  0  0  0
 44 46  1  0  0  0  0
 46 45  1  1  0  0  0
 47 49  1  6  0  0  0
 47 46  1  0  0  0  0
 47 50  1  0  0  0  0
 47 48  1  0  0  0  0
 52 50  1  0  0  0  0
 52 51  2  0  0  0  0
 53 54  1  0  0  0  0
 54 52  1  0  0  0  0
M  END
>  <MODEL>
7

>  <REMARK>
 VINA RESULT:      -6.4      4.632      9.767
  Name = 
  21 active torsions:
  status: ('A' for Active; 'I' for Inactive)
    1  A    between atoms: C_2  and  N_10
    2  A    between atoms: C_2  and  C_41
    3  A    between atoms: N_3  and  C_52
    4  A    between atoms: C_4  and  N_10
    5  A    between atoms: O_6  and  C_50
    6  A    between atoms: O_7  and  C_49
    7  A    between atoms: C_8  and  C_27
    8  A    between atoms: C_9  and  C_35
    9  A    between atoms: C_9  and  C_39
   10  A    between atoms: N_10  and  C_42
   11  A    between atoms: C_13  and  C_25
   12  A    between atoms: C_17  and  C_28
   13  A    between atoms: C_17  and  C_35
   14  A    between atoms: C_25  and  C_45
   15  A    between atoms: C_28  and  C_49
   16  A    between atoms: C_31  and  C_36
   17  A    between atoms: C_33  and  C_37
   18  A    between atoms: C_33  and  C_43
   19  A    between atoms: C_38  and  C_54
   20  A    between atoms: C_42  and  C_54
   21  A    between atoms: C_43  and  C_45
                            x       y       z     vdW  Elec       q    Type
                         _______ _______ _______ _____ _____    ______ ____

>  <TORSDO>
F 21

$$$$
=
 OpenBabel10222415363D

 54 57  0  0  1  0  0  0  0  0999 V2000
  191.3450  177.1170  141.9700 N   0  0  0  0  0  0  0  0  0  0  0  0
  190.1180  176.4560  141.5200 C   0  0  1  0  0  3  0  0  0  0  0  0
  189.5950  177.8070  139.4330 N   0  0  0  0  0  0  0  0  0  0  0  0
  187.8480  176.9780  142.3500 N   0  0  0  0  0  0  0  0  0  0  0  0
  189.0870  176.2370  142.6870 C   0  0  0  0  0  3  0  0  0  0  0  0
  187.3890  178.3020  140.2540 C   0  0  0  0  0  0  0  0  0  0  0  0
  188.3410  178.4580  139.1430 C   0  0  0  0  0  0  0  0  0  0  0  0
  189.3650  177.3390  140.6130 C   0  0  1  0  0  3  0  0  0  0  0  0
  188.1400  179.1640  138.0790 N   0  0  0  0  0  1  0  0  0  0  0  0
  188.1050  177.6110  141.1160 C   0  0  0  0  0  0  0  0  0  0  0  0
  185.0490  178.3680  139.3470 N   0  0  0  0  0  2  0  0  0  0  0  0
  185.9930  178.7340  140.3600 C   0  0  0  0  0  0  0  0  0  0  0  0
  185.6560  179.4590  141.3290 O   0  0  0  0  0  0  0  0  0  0  0  0
  181.0310  180.3440  139.5090 C   0  0  0  0  0  0  0  0  0  0  0  0
  181.9810  180.4530  138.5760 C   0  0  0  0  0  3  0  0  0  0  0  0
  182.8020  176.3970  139.6400 O   0  0  0  0  0  1  0  0  0  0  0  0
  183.3270  179.8410  138.6770 C   0  0  0  0  0  3  0  0  0  0  0  0
  181.3040  179.6240  140.7930 C   0  0  0  0  0  2  0  0  0  0  0  0
  182.6260  177.7620  139.8540 C   0  0  0  0  0  0  0  0  0  0  0  0
  181.5480  178.1680  140.5410 C   0  0  0  0  0  0  0  0  0  0  0  0
  183.6560  178.7060  139.3110 C   0  0  0  0  0  0  0  0  0  0  0  0
  179.0280  180.5120  138.2500 F   0  0  0  0  0  0  0  0  0  0  0  0
  179.7160  181.0520  139.3250 C   0  0  0  0  0  0  0  0  0  0  0  0
  179.9140  182.4020  139.0950 F   0  0  0  0  0  0  0  0  0  0  0  0
  178.9520  180.9160  140.4740 F   0  0  0  0  0  0  0  0  0  0  0  0
  179.4070  176.9390  140.4500 C   0  0  0  0  0  1  0  0  0  0  0  0
  180.6700  177.2070  141.0390 O   0  0  0  0  0  0  0  0  0  0  0  0
  191.7380  177.1240  143.3480 C   0  0  0  0  0  0  0  0  0  0  0  0
  191.6790  175.9780  144.0270 C   0  0  0  0  0  2  0  0  0  0  0  0
  190.6870  178.5610  145.1840 C   0  0  2  0  0  3  0  0  0  0  0  0
  190.3380  179.1150  143.8640 N   0  0  0  0  0  2  0  0  0  0  0  0
  191.6450  178.4530  144.0570 C   0  0  2  0  0  3  0  0  0  0  0  0
  189.7950  177.3530  145.4630 C   0  0  0  0  0  2  0  0  0  0  0  0
  188.6040  177.7410  146.3410 C   0  0  0  0  0  2  0  0  0  0  0  0
  187.4140  178.2750  145.5360 C   0  0  0  0  0  2  0  0  0  0  0  0
  186.1020  177.6090  145.9490 C   0  0  0  0  0  2  0  0  0  0  0  0
  186.0750  179.5620  147.3070 O   0  0  0  0  0  1  0  0  0  0  0  0
  184.1770  179.0120  146.1730 O   0  0  0  0  0  1  0  0  0  0  0  0
  185.2820  178.5050  146.8610 C   0  0  0  0  0  3  0  0  0  0  0  0
  192.1260  177.8610  140.9880 C   0  0  0  0  0  2  0  0  0  0  0  0
  193.1480  176.9450  140.3220 C   0  0  0  0  0  2  0  0  0  0  0  0
  192.6920  176.6020  138.9680 C   0  0  0  0  0  0  0  0  0  0  0  0
  192.2970  176.3320  137.8610 C   0  0  0  0  0  0  0  0  0  0  0  0
  191.8040  176.0560  136.5060 C   0  0  0  0  0  2  0  0  0  0  0  0
  189.8170  177.1960  135.7880 O   0  0  0  0  0  1  0  0  0  0  0  0
  190.2790  176.0710  136.4820 C   0  0  1  0  0  3  0  0  0  0  0  0
  189.6870  174.7870  135.8760 C   0  0  1  0  0  0  0  0  0  0  0  0
  190.4240  174.4630  134.7390 O   0  0  0  0  0  1  0  0  0  0  0  0
  189.8170  173.6230  136.8590 C   0  0  0  0  0  1  0  0  0  0  0  0
  188.2400  175.0640  135.4120 C   0  0  0  0  0  2  0  0  0  0  0  0
  186.9780  174.1480  137.2140 O   0  0  0  0  0  0  0  0  0  0  0  0
  187.2060  175.1560  136.4900 C   0  0  0  0  0  0  0  0  0  0  0  0
  186.3520  177.2980  135.6310 C   0  0  0  0  0  1  0  0  0  0  0  0
  186.4950  176.3450  136.6710 O   0  0  0  0  0  0  0  0  0  0  0  0
  1 28  1  0  0  0  0
  2  1  1  1  0  0  0
  2  5  1  0  0  0  0
  4  5  2  0  0  0  0
  6 12  1  0  0  0  0
  6 10  2  0  0  0  0
  7  3  2  0  0  0  0
  7  6  1  0  0  0  0
  8  3  1  6  0  0  0
  8 10  1  0  0  0  0
  8  2  1  0  0  0  0
  9  7  1  0  0  0  0
 10  4  1  0  0  0  0
 11 12  1  0  0  0  0
 12 13  2  0  0  0  0
 14 18  1  0  0  0  0
 15 17  1  0  0  0  0
 15 14  2  0  0  0  0
 16 19  1  0  0  0  0
 17 21  2  0  0  0  0
 19 20  2  0  0  0  0
 20 18  1  0  0  0  0
 20 27  1  0  0  0  0
 21 11  1  0  0  0  0
 21 19  1  0  0  0  0
 22 23  1  0  0  0  0
 23 14  1  0  0  0  0
 23 25  1  0  0  0  0
 24 23  1  0  0  0  0
 26 27  1  0  0  0  0
 28 29  2  0  0  0  0
 30 33  1  6  0  0  0
 31 32  1  0  0  0  0
 31 30  1  0  0  0  0
 32 28  1  6  0  0  0
 32 30  1  0  0  0  0
 33 34  1  0  0  0  0
 35 36  1  0  0  0  0
 35 34  1  0  0  0  0
 36 39  1  0  0  0  0
 38 39  1  0  0  0  0
 39 37  1  0  0  0  0
 40  1  1  0  0  0  0
 41 40  1  0  0  0  0
 42 41  1  0  0  0  0
 43 42  3  0  0  0  0
 44 43  1  0  0  0  0
 46 45  1  6  0  0  0
 46 44  1  0  0  0  0
 47 46  1  0  0  0  0
 47 49  1  1  0  0  0
 48 47  1  0  0  0  0
 50 47  1  0  0  0  0
 50 52  1  0  0  0  0
 52 54  1  0  0  0  0
 52 51  2  0  0  0  0
 53 54  1  0  0  0  0
M  END
>  <MODEL>
8

>  <REMARK>
 VINA RESULT:      -6.0      3.432      8.051
  Name = 
  21 active torsions:
  status: ('A' for Active; 'I' for Inactive)
    1  A    between atoms: C_2  and  N_10
    2  A    between atoms: C_2  and  C_41
    3  A    between atoms: N_3  and  C_52
    4  A    between atoms: C_4  and  N_10
    5  A    between atoms: O_6  and  C_50
    6  A    between atoms: O_7  and  C_49
    7  A    between atoms: C_8  and  C_27
    8  A    between atoms: C_9  and  C_35
    9  A    between atoms: C_9  and  C_39
   10  A    between atoms: N_10  and  C_42
   11  A    between atoms: C_13  and  C_25
   12  A    between atoms: C_17  and  C_28
   13  A    between atoms: C_17  and  C_35
   14  A    between atoms: C_25  and  C_45
   15  A    between atoms: C_28  and  C_49
   16  A    between atoms: C_31  and  C_36
   17  A    between atoms: C_33  and  C_37
   18  A    between atoms: C_33  and  C_43
   19  A    between atoms: C_38  and  C_54
   20  A    between atoms: C_42  and  C_54
   21  A    between atoms: C_43  and  C_45
                            x       y       z     vdW  Elec       q    Type
                         _______ _______ _______ _____ _____    ______ ____

>  <TORSDO>
F 21

$$$$
=
 OpenBabel10222415363D

 54 57  0  0  1  0  0  0  0  0999 V2000
  190.4910  176.5780  136.9690 N   0  0  0  0  0  0  0  0  0  0  0  0
  190.2340  177.8550  137.6400 C   0  0  1  0  0  3  0  0  0  0  0  0
  190.1640  177.1050  140.0660 N   0  0  0  0  0  0  0  0  0  0  0  0
  187.9970  178.8600  137.9520 N   0  0  0  0  0  0  0  0  0  0  0  0
  189.0790  178.6750  136.9560 C   0  0  0  0  0  3  0  0  0  0  0  0
  187.9900  178.0920  140.3530 C   0  0  0  0  0  0  0  0  0  0  0  0
  189.0970  177.3710  141.0000 C   0  0  0  0  0  0  0  0  0  0  0  0
  189.6840  177.6240  138.9860 C   0  0  0  0  0  0  0  0  0  0  0  0
  189.0970  176.9350  142.2170 N   0  0  0  0  0  2  0  0  0  0  0  0
  188.4310  178.1960  139.1180 C   0  0  0  0  0  0  0  0  0  0  0  0
  185.4870  178.2960  140.3390 N   0  0  0  0  0  2  0  0  0  0  0  0
  186.7510  178.6210  140.9310 C   0  0  0  0  0  0  0  0  0  0  0  0
  186.8240  179.3890  141.9210 O   0  0  0  0  0  0  0  0  0  0  0  0
  181.4000  178.7040  142.1280 C   0  0  0  0  0  0  0  0  0  0  0  0
  182.5880  178.7200  142.7400 C   0  0  0  0  0  3  0  0  0  0  0  0
  183.8940  180.5130  139.0880 O   0  0  0  0  0  1  0  0  0  0  0  0
  183.8810  178.4610  142.0630 C   0  0  0  0  0  3  0  0  0  0  0  0
  181.2950  178.3440  140.6790 C   0  0  0  0  0  2  0  0  0  0  0  0
  183.3080  179.5390  139.8940 C   0  0  0  0  0  0  0  0  0  0  0  0
  181.9780  179.3700  139.8280 C   0  0  0  0  0  0  0  0  0  0  0  0
  184.1960  178.7270  140.7870 C   0  0  0  0  0  0  0  0  0  0  0  0
  179.9080  180.2870  143.0730 F   0  0  0  0  0  0  0  0  0  0  0  0
  180.1430  178.9300  142.9250 C   0  0  0  0  0  0  0  0  0  0  0  0
  180.2500  178.3560  144.1800 F   0  0  0  0  0  0  0  0  0  0  0  0
  179.0690  178.3460  142.2720 F   0  0  0  0  0  0  0  0  0  0  0  0
  179.9260  180.5940  139.2020 C   0  0  0  0  0  1  0  0  0  0  0  0
  181.2470  180.1490  138.9340 O   0  0  0  0  0  0  0  0  0  0  0  0
  189.4540  175.6110  136.7620 C   0  0  0  0  0  0  0  0  0  0  0  0
  189.4600  174.5090  137.5130 C   0  0  0  0  0  2  0  0  0  0  0  0
  187.3320  175.8220  135.3510 C   0  0  2  0  0  3  0  0  0  0  0  0
  187.8970  174.4710  135.1910 N   0  0  0  0  0  2  0  0  0  0  0  0
  188.8000  175.6200  135.4020 C   0  0  2  0  0  3  0  0  0  0  0  0
  186.5870  175.8920  136.6830 C   0  0  0  0  0  2  0  0  0  0  0  0
  185.2420  175.1690  136.5980 C   0  0  0  0  0  2  0  0  0  0  0  0
  184.1330  175.8690  137.3930 C   0  0  0  0  0  2  0  0  0  0  0  0
  182.7530  175.3060  137.0610 C   0  0  0  0  0  2  0  0  0  0  0  0
  182.2680  177.6320  136.9440 O   0  0  0  0  0  1  0  0  0  0  0  0
  180.7250  176.1690  136.1260 O   0  0  0  0  0  1  0  0  0  0  0  0
  181.6800  176.3800  137.1230 C   0  0  0  0  0  3  0  0  0  0  0  0
  191.8640  176.2620  136.5930 C   0  0  0  0  0  2  0  0  0  0  0  0
  192.6180  175.6850  137.7880 C   0  0  0  0  0  2  0  0  0  0  0  0
  193.4380  174.5470  137.3480 C   0  0  0  0  0  0  0  0  0  0  0  0
  194.1150  173.6080  137.0090 C   0  0  0  0  0  0  0  0  0  0  0  0
  194.9070  172.4330  136.6290 C   0  0  0  0  0  2  0  0  0  0  0  0
  196.5810  171.0650  137.6740 O   0  0  0  0  0  1  0  0  0  0  0  0
  196.2100  172.3920  137.4210 C   0  0  1  0  0  3  0  0  0  0  0  0
  197.3510  173.1430  136.7160 C   0  0  1  0  0  0  0  0  0  0  0  0
  198.5590  172.5770  137.1190 O   0  0  0  0  0  1  0  0  0  0  0  0
  197.2450  172.9740  135.2000 C   0  0  0  0  0  1  0  0  0  0  0  0
  197.3610  174.6130  137.1890 C   0  0  0  0  0  2  0  0  0  0  0  0
  199.1770  174.9430  138.6970 O   0  0  0  0  0  0  0  0  0  0  0  0
  197.9250  174.8660  138.5520 C   0  0  0  0  0  0  0  0  0  0  0  0
  197.5490  175.3120  140.9420 C   0  0  0  0  0  1  0  0  0  0  0  0
  197.0670  174.9960  139.6470 O   0  0  0  0  0  0  0  0  0  0  0  0
  2  1  1  6  0  0  0
  2  8  1  0  0  0  0
  3  7  1  0  0  0  0
  4 10  1  0  0  0  0
  5  2  1  0  0  0  0
  5  4  2  0  0  0  0
  6 12  1  0  0  0  0
  6  7  1  0  0  0  0
  7  9  2  0  0  0  0
  8 10  1  0  0  0  0
  8  3  2  0  0  0  0
 10  6  2  0  0  0  0
 11 21  1  0  0  0  0
 11 12  1  0  0  0  0
 12 13  2  0  0  0  0
 14 15  2  0  0  0  0
 14 23  1  0  0  0  0
 16 19  1  0  0  0  0
 17 15  1  0  0  0  0
 18 14  1  0  0  0  0
 19 21  1  0  0  0  0
 20 19  2  0  0  0  0
 20 18  1  0  0  0  0
 21 17  2  0  0  0  0
 23 22  1  0  0  0  0
 23 24  1  0  0  0  0
 25 23  1  0  0  0  0
 27 26  1  0  0  0  0
 27 20  1  0  0  0  0
 28  1  1  0  0  0  0
 28 29  2  0  0  0  0
 30 32  1  0  0  0  0
 30 33  1  1  0  0  0
 31 30  1  0  0  0  0
 31 32  1  0  0  0  0
 32 28  1  1  0  0  0
 34 33  1  0  0  0  0
 34 35  1  0  0  0  0
 36 39  1  0  0  0  0
 36 35  1  0  0  0  0
 37 39  1  0  0  0  0
 38 39  1  0  0  0  0
 40  1  1  0  0  0  0
 40 41  1  0  0  0  0
 42 41  1  0  0  0  0
 43 42  3  0  0  0  0
 44 43  1  0  0  0  0
 44 46  1  0  0  0  0
 46 45  1  6  0  0  0
 47 49  1  6  0  0  0
 47 48  1  0  0  0  0
 47 50  1  0  0  0  0
 47 46  1  0  0  0  0
 50 52  1  0  0  0  0
 52 51  2  0  0  0  0
 52 54  1  0  0  0  0
 54 53  1  0  0  0  0
M  END
>  <MODEL>
9

>  <REMARK>
 VINA RESULT:      -6.0      2.693      7.558
  Name = 
  21 active torsions:
  status: ('A' for Active; 'I' for Inactive)
    1  A    between atoms: C_2  and  N_10
    2  A    between atoms: C_2  and  C_41
    3  A    between atoms: N_3  and  C_52
    4  A    between atoms: C_4  and  N_10
    5  A    between atoms: O_6  and  C_50
    6  A    between atoms: O_7  and  C_49
    7  A    between atoms: C_8  and  C_27
    8  A    between atoms: C_9  and  C_35
    9  A    between atoms: C_9  and  C_39
   10  A    between atoms: N_10  and  C_42
   11  A    between atoms: C_13  and  C_25
   12  A    between atoms: C_17  and  C_28
   13  A    between atoms: C_17  and  C_35
   14  A    between atoms: C_25  and  C_45
   15  A    between atoms: C_28  and  C_49
   16  A    between atoms: C_31  and  C_36
   17  A    between atoms: C_33  and  C_37
   18  A    between atoms: C_33  and  C_43
   19  A    between atoms: C_38  and  C_54
   20  A    between atoms: C_42  and  C_54
   21  A    between atoms: C_43  and  C_45
                            x       y       z     vdW  Elec       q    Type
                         _______ _______ _______ _____ _____    ______ ____

>  <TORSDO>
F 21

$$$$
