=
 OpenBabel10222417373D

 49 55  0  0  1  0  0  0  0  0999 V2000
  183.4750  178.3760  141.2120 C   0  0  0  0  0  0  0  0  0  0  0  0
  181.9900  178.5920  141.3040 C   0  0  1  0  0  3  0  0  0  0  0  0
  184.6450  179.1740  145.1040 C   0  0  0  0  0  2  0  0  0  0  0  0
  185.6370  178.4750  144.1810 C   0  0  0  0  0  0  0  0  0  0  0  0
  181.7840  178.8710  142.7310 N   0  0  0  0  0  0  0  0  0  0  0  0
  183.1630  178.8810  144.7900 C   0  0  0  0  0  2  0  0  0  0  0  0
  182.9370  178.8660  143.3120 C   0  0  0  0  0  0  0  0  0  0  0  0
  185.3460  178.2440  142.8890 C   0  0  0  0  0  3  0  0  0  0  0  0
  183.9980  178.5450  142.4070 C   0  0  0  0  0  0  0  0  0  0  0  0
  184.1980  177.8260  140.1040 N   0  0  0  0  0  2  0  0  0  0  0  0
  186.4840  178.4670  139.6060 C   0  0  0  0  0  1  0  0  0  0  0  0
  185.0310  178.5770  139.1680 C   0  0  2  0  0  0  0  0  0  0  0  0
  184.6480  179.9240  139.1660 O   0  0  0  0  0  1  0  0  0  0  0  0
  186.1890  177.6200  137.1340 C   0  0  0  0  0  0  0  0  0  0  0  0
  186.2840  176.2160  136.8990 N   0  0  0  0  0  0  0  0  0  0  0  0
  187.3770  175.5250  136.2270 C   0  0  0  0  0  1  0  0  0  0  0  0
  184.2390  176.6010  137.7790 C   0  0  0  0  0  0  0  0  0  0  0  0
  183.0660  176.3610  138.1670 O   0  0  0  0  0  0  0  0  0  0  0  0
  185.0950  175.5890  137.2690 N   0  0  0  0  0  2  0  0  0  0  0  0
  187.0000  178.5090  136.5720 C   0  0  0  0  0  2  0  0  0  0  0  0
  184.8660  177.9710  137.7560 C   0  0  1  0  0  3  0  0  0  0  0  0
  181.5600  179.7900  140.4730 C   0  0  0  0  0  2  0  0  0  0  0  0
  180.3340  179.4730  139.7630 N   0  0  0  0  0  2  0  0  0  0  0  0
  180.7100  178.7450  138.5620 C   0  0  0  0  0  2  0  0  0  0  0  0
  181.3670  179.6850  137.5690 C   0  0  0  0  0  2  0  0  0  0  0  0
  180.5010  180.9120  137.3390 C   0  0  0  0  0  2  0  0  0  0  0  0
  181.2640  182.0810  137.4610 O   0  0  0  0  0  0  0  0  0  0  0  0
  180.4760  183.0750  136.8760 C   0  0  0  0  0  2  0  0  0  0  0  0
  182.2900  184.6330  137.5700 O   0  0  0  0  0  1  0  0  0  0  0  0
  181.0760  185.0390  135.6680 O   0  0  0  0  0  0  0  0  0  0  0  0
  181.2860  184.3030  136.6700 C   0  0  0  0  0  0  0  0  0  0  0  0
  186.9910  178.0810  144.6800 C   0  0  1  0  0  3  0  0  0  0  0  0
  188.1790  177.3690  146.7650 C   0  0  2  0  0  3  0  0  0  0  0  0
  186.9000  177.2490  145.9570 C   0  0  1  0  0  3  0  0  0  0  0  0
  187.8000  177.4790  148.2340 C   0  0  0  0  0  2  0  0  0  0  0  0
  186.9650  178.1650  147.1700 C   0  0  1  0  0  3  0  0  0  0  0  0
  187.7990  177.4060  143.5650 C   0  0  2  0  0  3  0  0  0  0  0  0
  187.6960  176.0120  143.6380 O   0  0  0  0  0  1  0  0  0  0  0  0
  191.2790  178.6680  142.9840 N   0  0  0  0  0  0  0  0  0  0  0  0
  189.8910  178.0530  144.6560 N   0  0  0  0  0  0  0  0  0  0  0  0
  191.1590  178.5480  144.2640 C   0  0  0  0  0  3  0  0  0  0  0  0
  189.2330  177.8520  143.5620 C   0  0  0  0  0  0  0  0  0  0  0  0
  190.0330  178.2450  142.3650 C   0  0  2  0  0  3  0  0  0  0  0  0
  190.2120  177.4910  140.0400 C   0  0  1  0  0  3  0  0  0  0  0  0
  189.1410  176.8340  140.6580 O   0  0  0  0  0  0  0  0  0  0  0  0
  190.2830  177.0570  141.4490 C   0  0  2  0  0  3  0  0  0  0  0  0
  190.2520  175.5020  138.5490 O   0  0  0  0  0  0  0  0  0  0  0  0
  192.1800  176.6480  139.0060 O   0  0  0  0  0  1  0  0  0  0  0  0
  190.9390  176.5390  139.1640 C   0  0  0  0  0  0  0  0  0  0  0  0
  1  2  1  0  0  0  0
  1  9  2  0  0  0  0
  2 22  1  6  0  0  0
  2  5  1  0  0  0  0
  4 32  1  0  0  0  0
  4  3  1  0  0  0  0
  5  7  2  0  0  0  0
  6  3  1  0  0  0  0
  7  6  1  0  0  0  0
  8  4  2  0  0  0  0
  9  8  1  0  0  0  0
  9  7  1  0  0  0  0
 10  1  1  0  0  0  0
 12 11  1  1  0  0  0
 12 10  1  0  0  0  0
 13 12  1  0  0  0  0
 14 21  1  0  0  0  0
 15 14  1  0  0  0  0
 15 19  1  0  0  0  0
 16 15  1  0  0  0  0
 17 18  2  0  0  0  0
 19 17  1  0  0  0  0
 20 14  2  0  0  0  0
 21 17  1  0  0  0  0
 21 12  1  1  0  0  0
 23 22  1  0  0  0  0
 24 23  1  0  0  0  0
 25 24  1  0  0  0  0
 26 27  1  0  0  0  0
 26 25  1  0  0  0  0
 28 27  1  0  0  0  0
 30 31  2  0  0  0  0
 31 28  1  0  0  0  0
 31 29  1  0  0  0  0
 32 37  1  6  0  0  0
 33 36  1  0  0  0  0
 33 35  1  1  0  0  0
 34 32  1  6  0  0  0
 34 33  1  0  0  0  0
 34 36  1  0  0  0  0
 36 35  1  1  0  0  0
 37 38  1  1  0  0  0
 39 41  2  0  0  0  0
 41 40  1  0  0  0  0
 42 37  1  0  0  0  0
 42 40  2  0  0  0  0
 43 39  1  1  0  0  0
 43 42  1  0  0  0  0
 44 49  1  6  0  0  0
 44 45  1  0  0  0  0
 44 46  1  0  0  0  0
 46 45  1  6  0  0  0
 46 43  1  0  0  0  0
 47 49  2  0  0  0  0
 48 49  1  0  0  0  0
M  END
>  <MODEL>
1

>  <REMARK>
 VINA RESULT:      -8.5      0.000      0.000
  Name = 
  17 active torsions:
  status: ('A' for Active; 'I' for Inactive)
    1  A    between atoms: C_1  and  C_10
    2  A    between atoms: C_1  and  N_39
    3  A    between atoms: C_4  and  N_7
    4  A    between atoms: N_7  and  C_30
    5  A    between atoms: C_8  and  C_27
    6  A    between atoms: C_10  and  C_25
    7  A    between atoms: C_14  and  C_45
    8  A    between atoms: C_15  and  C_45
    9  A    between atoms: C_19  and  C_44
   10  A    between atoms: C_19  and  C_45
   11  A    between atoms: O_21  and  C_25
   12  A    between atoms: O_21  and  C_43
   13  A    between atoms: C_27  and  N_39
   14  A    between atoms: C_29  and  C_32
   15  A    between atoms: C_30  and  C_49
   16  A    between atoms: C_38  and  C_43
   17  A    between atoms: C_42  and  C_48
                            x       y       z     vdW  Elec       q    Type
                         _______ _______ _______ _____ _____    ______ ____

>  <TORSDO>
F 17

$$$$
=
 OpenBabel10222417373D

 49 55  0  0  1  0  0  0  0  0999 V2000
  183.5100  178.3560  141.0870 C   0  0  0  0  0  0  0  0  0  0  0  0
  182.0210  178.5550  141.1430 C   0  0  1  0  0  3  0  0  0  0  0  0
  184.5750  179.1700  145.0060 C   0  0  0  0  0  2  0  0  0  0  0  0
  185.5980  178.4830  144.1070 C   0  0  0  0  0  0  0  0  0  0  0  0
  181.7760  178.8320  142.5640 N   0  0  0  0  0  0  0  0  0  0  0  0
  183.1040  178.8590  144.6560 C   0  0  0  0  0  2  0  0  0  0  0  0
  182.9150  178.8410  143.1730 C   0  0  0  0  0  0  0  0  0  0  0  0
  185.3400  178.2470  142.8100 C   0  0  0  0  0  3  0  0  0  0  0  0
  184.0010  178.5320  142.2940 C   0  0  0  0  0  0  0  0  0  0  0  0
  184.2660  177.8140  139.9980 N   0  0  0  0  0  2  0  0  0  0  0  0
  186.5380  178.4090  139.3890 C   0  0  0  0  0  1  0  0  0  0  0  0
  185.0650  178.5810  139.0460 C   0  0  2  0  0  0  0  0  0  0  0  0
  184.7260  179.9380  139.1250 O   0  0  0  0  0  1  0  0  0  0  0  0
  186.0530  177.5540  136.9560 C   0  0  0  0  0  0  0  0  0  0  0  0
  185.9710  176.1580  136.6790 N   0  0  0  0  0  0  0  0  0  0  0  0
  186.9550  175.3600  135.9600 C   0  0  0  0  0  1  0  0  0  0  0  0
  184.0080  176.7600  137.6220 C   0  0  0  0  0  0  0  0  0  0  0  0
  182.8230  176.6510  138.0330 O   0  0  0  0  0  0  0  0  0  0  0  0
  184.7220  175.6680  137.0620 N   0  0  0  0  0  2  0  0  0  0  0  0
  186.9530  178.3560  136.3990 C   0  0  0  0  0  2  0  0  0  0  0  0
  184.7960  178.0440  137.6210 C   0  0  1  0  0  3  0  0  0  0  0  0
  181.5970  179.7470  140.3010 C   0  0  0  0  0  2  0  0  0  0  0  0
  180.1820  179.6420  139.9880 N   0  0  0  0  0  2  0  0  0  0  0  0
  179.9410  178.2790  139.5450 C   0  0  0  0  0  2  0  0  0  0  0  0
  179.1820  178.2860  138.2310 C   0  0  0  0  0  2  0  0  0  0  0  0
  178.9910  176.8700  137.7160 C   0  0  0  0  0  2  0  0  0  0  0  0
  179.6320  175.9510  138.5570 O   0  0  0  0  0  0  0  0  0  0  0  0
  179.8000  174.8120  137.7670 C   0  0  0  0  0  2  0  0  0  0  0  0
  180.1810  172.3720  138.0870 O   0  0  0  0  0  0  0  0  0  0  0  0
  179.5750  173.6950  139.8590 O   0  0  0  0  0  1  0  0  0  0  0  0
  179.8380  173.6030  138.6300 C   0  0  0  0  0  0  0  0  0  0  0  0
  186.9430  178.1050  144.6400 C   0  0  1  0  0  3  0  0  0  0  0  0
  188.1100  177.3980  146.7400 C   0  0  2  0  0  3  0  0  0  0  0  0
  186.8320  177.2920  145.9270 C   0  0  1  0  0  3  0  0  0  0  0  0
  187.7260  177.5340  148.2050 C   0  0  0  0  0  2  0  0  0  0  0  0
  186.9090  178.2220  147.1280 C   0  0  1  0  0  3  0  0  0  0  0  0
  187.7790  177.4200  143.5520 C   0  0  2  0  0  3  0  0  0  0  0  0
  187.6920  176.0260  143.6510 O   0  0  0  0  0  1  0  0  0  0  0  0
  191.2490  178.7230  143.0040 N   0  0  0  0  0  0  0  0  0  0  0  0
  189.8480  178.1010  144.6640 N   0  0  0  0  0  0  0  0  0  0  0  0
  191.1150  178.6110  144.2840 C   0  0  0  0  0  3  0  0  0  0  0  0
  189.2060  177.8840  143.5640 C   0  0  0  0  0  0  0  0  0  0  0  0
  190.0160  178.2790  142.3730 C   0  0  2  0  0  3  0  0  0  0  0  0
  190.2140  177.5050  140.0560 C   0  0  1  0  0  3  0  0  0  0  0  0
  189.1570  176.8310  140.6800 O   0  0  0  0  0  0  0  0  0  0  0  0
  190.2940  177.0870  141.4700 C   0  0  2  0  0  3  0  0  0  0  0  0
  190.2960  175.5100  138.5750 O   0  0  0  0  0  0  0  0  0  0  0  0
  192.2030  176.6870  139.0420 O   0  0  0  0  0  1  0  0  0  0  0  0
  190.9620  176.5600  139.1910 C   0  0  0  0  0  0  0  0  0  0  0  0
  1  2  1  0  0  0  0
  1  9  2  0  0  0  0
  2 22  1  6  0  0  0
  2  5  1  0  0  0  0
  4 32  1  0  0  0  0
  4  3  1  0  0  0  0
  5  7  2  0  0  0  0
  6  3  1  0  0  0  0
  7  6  1  0  0  0  0
  8  4  2  0  0  0  0
  9  8  1  0  0  0  0
  9  7  1  0  0  0  0
 10  1  1  0  0  0  0
 12 13  1  0  0  0  0
 12 11  1  1  0  0  0
 12 10  1  0  0  0  0
 14 21  1  0  0  0  0
 15 14  1  0  0  0  0
 15 19  1  0  0  0  0
 16 15  1  0  0  0  0
 17 18  2  0  0  0  0
 19 17  1  0  0  0  0
 20 14  2  0  0  0  0
 21 17  1  0  0  0  0
 21 12  1  1  0  0  0
 23 22  1  0  0  0  0
 24 23  1  0  0  0  0
 25 24  1  0  0  0  0
 26 25  1  0  0  0  0
 26 27  1  0  0  0  0
 28 27  1  0  0  0  0
 28 31  1  0  0  0  0
 29 31  2  0  0  0  0
 31 30  1  0  0  0  0
 32 37  1  6  0  0  0
 33 36  1  0  0  0  0
 33 35  1  1  0  0  0
 34 32  1  6  0  0  0
 34 33  1  0  0  0  0
 34 36  1  0  0  0  0
 36 35  1  1  0  0  0
 37 42  1  0  0  0  0
 37 38  1  1  0  0  0
 39 41  2  0  0  0  0
 41 40  1  0  0  0  0
 42 40  2  0  0  0  0
 43 39  1  1  0  0  0
 43 42  1  0  0  0  0
 44 49  1  6  0  0  0
 44 45  1  0  0  0  0
 44 46  1  0  0  0  0
 46 45  1  6  0  0  0
 46 43  1  0  0  0  0
 47 49  2  0  0  0  0
 48 49  1  0  0  0  0
M  END
>  <MODEL>
2

>  <REMARK>
 VINA RESULT:      -7.8      1.911      3.393
  Name = 
  17 active torsions:
  status: ('A' for Active; 'I' for Inactive)
    1  A    between atoms: C_1  and  C_10
    2  A    between atoms: C_1  and  N_39
    3  A    between atoms: C_4  and  N_7
    4  A    between atoms: N_7  and  C_30
    5  A    between atoms: C_8  and  C_27
    6  A    between atoms: C_10  and  C_25
    7  A    between atoms: C_14  and  C_45
    8  A    between atoms: C_15  and  C_45
    9  A    between atoms: C_19  and  C_44
   10  A    between atoms: C_19  and  C_45
   11  A    between atoms: O_21  and  C_25
   12  A    between atoms: O_21  and  C_43
   13  A    between atoms: C_27  and  N_39
   14  A    between atoms: C_29  and  C_32
   15  A    between atoms: C_30  and  C_49
   16  A    between atoms: C_38  and  C_43
   17  A    between atoms: C_42  and  C_48
                            x       y       z     vdW  Elec       q    Type
                         _______ _______ _______ _____ _____    ______ ____

>  <TORSDO>
F 17

$$$$
=
 OpenBabel10222417373D

 49 55  0  0  1  0  0  0  0  0999 V2000
  188.5850  178.0500  139.3810 C   0  0  0  0  0  0  0  0  0  0  0  0
  189.9380  177.9010  138.7420 C   0  0  1  0  0  3  0  0  0  0  0  0
  189.4190  176.9590  143.2890 C   0  0  0  0  0  2  0  0  0  0  0  0
  188.0980  177.6640  143.0020 C   0  0  0  0  0  0  0  0  0  0  0  0
  190.8020  177.5460  139.8750 N   0  0  0  0  0  0  0  0  0  0  0  0
  190.5690  177.3430  142.3330 C   0  0  0  0  0  2  0  0  0  0  0  0
  190.0650  177.4590  140.9310 C   0  0  0  0  0  0  0  0  0  0  0  0
  187.7360  177.9880  141.7490 C   0  0  0  0  0  3  0  0  0  0  0  0
  188.6960  177.7830  140.6640 C   0  0  0  0  0  0  0  0  0  0  0  0
  187.4150  178.6320  138.7940 N   0  0  0  0  0  2  0  0  0  0  0  0
  186.6930  176.5090  137.8670 C   0  0  0  0  0  1  0  0  0  0  0  0
  186.5850  178.0230  137.7580 C   0  0  2  0  0  0  0  0  0  0  0  0
  187.0290  178.4290  136.4930 O   0  0  0  0  0  1  0  0  0  0  0  0
  184.1470  177.3550  137.6460 C   0  0  0  0  0  0  0  0  0  0  0  0
  183.4090  176.9660  138.8020 N   0  0  0  0  0  0  0  0  0  0  0  0
  182.3200  175.9990  138.8470 C   0  0  0  0  0  1  0  0  0  0  0  0
  184.7760  178.6530  139.4290 C   0  0  0  0  0  0  0  0  0  0  0  0
  185.2880  179.5330  140.1690 O   0  0  0  0  0  0  0  0  0  0  0  0
  183.7680  177.7640  139.8890 N   0  0  0  0  0  2  0  0  0  0  0  0
  183.7880  177.0330  136.4090 C   0  0  0  0  0  2  0  0  0  0  0  0
  185.1170  178.4570  137.9750 C   0  0  1  0  0  3  0  0  0  0  0  0
  189.9370  176.7790  137.7170 C   0  0  0  0  0  2  0  0  0  0  0  0
  190.2730  175.5260  138.3690 N   0  0  0  0  0  2  0  0  0  0  0  0
  191.1960  174.8220  137.4950 C   0  0  0  0  0  2  0  0  0  0  0  0
  191.9490  175.8130  136.6260 C   0  0  0  0  0  2  0  0  0  0  0  0
  193.4250  175.8230  136.9840 C   0  0  0  0  0  2  0  0  0  0  0  0
  193.9010  174.5150  137.1420 O   0  0  0  0  0  0  0  0  0  0  0  0
  195.2530  174.6700  137.4540 C   0  0  0  0  0  2  0  0  0  0  0  0
  196.0460  174.9800  139.7940 O   0  0  0  0  0  1  0  0  0  0  0  0
  195.2490  172.9470  139.0980 O   0  0  0  0  0  0  0  0  0  0  0  0
  195.5190  174.1460  138.8190 C   0  0  0  0  0  0  0  0  0  0  0  0
  187.1400  177.9610  144.1110 C   0  0  1  0  0  3  0  0  0  0  0  0
  184.7880  178.5850  144.7030 C   0  0  2  0  0  3  0  0  0  0  0  0
  185.7090  178.1000  143.5980 C   0  0  1  0  0  3  0  0  0  0  0  0
  183.8300  179.6040  144.1060 C   0  0  0  0  0  2  0  0  0  0  0  0
  185.2800  179.5580  143.6640 C   0  0  1  0  0  3  0  0  0  0  0  0
  187.2890  176.9350  145.2400 C   0  0  2  0  0  3  0  0  0  0  0  0
  186.1000  176.2220  145.4360 O   0  0  0  0  0  1  0  0  0  0  0  0
  189.0090  178.5750  148.1370 N   0  0  0  0  0  0  0  0  0  0  0  0
  186.9490  177.9880  147.4210 N   0  0  0  0  0  0  0  0  0  0  0  0
  187.7490  178.5980  148.4190 C   0  0  0  0  0  3  0  0  0  0  0  0
  187.7680  177.5670  146.5150 C   0  0  0  0  0  0  0  0  0  0  0  0
  189.1800  177.9140  146.8520 C   0  0  2  0  0  3  0  0  0  0  0  0
  191.4540  177.0030  146.7900 C   0  0  1  0  0  3  0  0  0  0  0  0
  190.6810  176.3850  145.8000 O   0  0  0  0  0  0  0  0  0  0  0  0
  190.0340  176.6670  147.0180 C   0  0  2  0  0  3  0  0  0  0  0  0
  192.5750  174.7840  146.8000 O   0  0  0  0  0  0  0  0  0  0  0  0
  192.8420  176.2260  148.5580 O   0  0  0  0  0  1  0  0  0  0  0  0
  192.3370  175.9970  147.4300 C   0  0  0  0  0  0  0  0  0  0  0  0
  1  9  2  0  0  0  0
  2 22  1  6  0  0  0
  2  1  1  0  0  0  0
  2  5  1  0  0  0  0
  4  3  1  0  0  0  0
  4 32  1  0  0  0  0
  5  7  2  0  0  0  0
  6  3  1  0  0  0  0
  7  6  1  0  0  0  0
  8  4  2  0  0  0  0
  9  7  1  0  0  0  0
  9  8  1  0  0  0  0
 10  1  1  0  0  0  0
 12 11  1  1  0  0  0
 12 10  1  0  0  0  0
 13 12  1  0  0  0  0
 14 21  1  0  0  0  0
 14 15  1  0  0  0  0
 15 16  1  0  0  0  0
 15 19  1  0  0  0  0
 17 19  1  0  0  0  0
 17 18  2  0  0  0  0
 20 14  2  0  0  0  0
 21 12  1  1  0  0  0
 21 17  1  0  0  0  0
 22 23  1  0  0  0  0
 24 23  1  0  0  0  0
 25 26  1  0  0  0  0
 25 24  1  0  0  0  0
 26 27  1  0  0  0  0
 27 28  1  0  0  0  0
 28 31  1  0  0  0  0
 31 30  2  0  0  0  0
 31 29  1  0  0  0  0
 32 37  1  1  0  0  0
 33 35  1  6  0  0  0
 34 36  1  0  0  0  0
 34 32  1  1  0  0  0
 34 33  1  0  0  0  0
 36 35  1  6  0  0  0
 36 33  1  0  0  0  0
 37 38  1  1  0  0  0
 37 42  1  0  0  0  0
 39 41  2  0  0  0  0
 40 41  1  0  0  0  0
 42 40  2  0  0  0  0
 43 42  1  1  0  0  0
 43 46  1  0  0  0  0
 43 39  1  0  0  0  0
 44 46  1  0  0  0  0
 44 49  1  1  0  0  0
 45 44  1  0  0  0  0
 46 45  1  6  0  0  0
 47 49  2  0  0  0  0
 49 48  1  0  0  0  0
M  END
>  <MODEL>
3

>  <REMARK>
 VINA RESULT:      -7.7      3.181      8.057
  Name = 
  17 active torsions:
  status: ('A' for Active; 'I' for Inactive)
    1  A    between atoms: C_1  and  C_10
    2  A    between atoms: C_1  and  N_39
    3  A    between atoms: C_4  and  N_7
    4  A    between atoms: N_7  and  C_30
    5  A    between atoms: C_8  and  C_27
    6  A    between atoms: C_10  and  C_25
    7  A    between atoms: C_14  and  C_45
    8  A    between atoms: C_15  and  C_45
    9  A    between atoms: C_19  and  C_44
   10  A    between atoms: C_19  and  C_45
   11  A    between atoms: O_21  and  C_25
   12  A    between atoms: O_21  and  C_43
   13  A    between atoms: C_27  and  N_39
   14  A    between atoms: C_29  and  C_32
   15  A    between atoms: C_30  and  C_49
   16  A    between atoms: C_38  and  C_43
   17  A    between atoms: C_42  and  C_48
                            x       y       z     vdW  Elec       q    Type
                         _______ _______ _______ _____ _____    ______ ____

>  <TORSDO>
F 17

$$$$
=
 OpenBabel10222417373D

 49 55  0  0  1  0  0  0  0  0999 V2000
  183.2490  178.1450  141.2820 C   0  0  0  0  0  0  0  0  0  0  0  0
  181.8090  178.5190  141.4930 C   0  0  1  0  0  3  0  0  0  0  0  0
  184.9090  179.2810  144.9030 C   0  0  0  0  0  2  0  0  0  0  0  0
  185.7280  178.3800  143.9840 C   0  0  0  0  0  0  0  0  0  0  0  0
  181.7870  178.9870  142.8840 N   0  0  0  0  0  0  0  0  0  0  0  0
  183.3810  179.1040  144.7770 C   0  0  0  0  0  2  0  0  0  0  0  0
  182.9920  178.9350  143.3440 C   0  0  0  0  0  0  0  0  0  0  0  0
  185.2750  178.0260  142.7690 C   0  0  0  0  0  3  0  0  0  0  0  0
  183.9140  178.4020  142.3880 C   0  0  0  0  0  0  0  0  0  0  0  0
  183.7940  177.3950  140.1900 N   0  0  0  0  0  2  0  0  0  0  0  0
  185.6170  178.6170  139.1550 C   0  0  0  0  0  1  0  0  0  0  0  0
  184.2690  177.9490  138.9250 C   0  0  2  0  0  0  0  0  0  0  0  0
  183.3560  178.9000  138.4490 O   0  0  0  0  0  1  0  0  0  0  0  0
  183.0980  176.2360  137.4780 C   0  0  0  0  0  0  0  0  0  0  0  0
  182.8850  176.4330  136.0820 N   0  0  0  0  0  0  0  0  0  0  0  0
  181.7580  175.9400  135.3010 C   0  0  0  0  0  1  0  0  0  0  0  0
  184.9260  177.2750  136.5640 C   0  0  0  0  0  0  0  0  0  0  0  0
  186.0600  177.7850  136.3670 O   0  0  0  0  0  0  0  0  0  0  0  0
  184.0010  177.0460  135.5110 N   0  0  0  0  0  2  0  0  0  0  0  0
  182.3880  175.3850  138.2100 C   0  0  0  0  0  2  0  0  0  0  0  0
  184.4250  176.8000  137.9030 C   0  0  1  0  0  3  0  0  0  0  0  0
  181.3960  179.6460  140.5590 C   0  0  0  0  0  2  0  0  0  0  0  0
  179.9550  179.8160  140.6110 N   0  0  0  0  0  2  0  0  0  0  0  0
  179.4940  179.9920  139.2440 C   0  0  0  0  0  2  0  0  0  0  0  0
  180.1690  181.1990  138.6190 C   0  0  0  0  0  2  0  0  0  0  0  0
  179.2770  182.4240  138.7220 C   0  0  0  0  0  2  0  0  0  0  0  0
  179.4870  183.2770  137.6310 O   0  0  0  0  0  0  0  0  0  0  0  0
  180.8320  183.0940  137.2990 C   0  0  0  0  0  2  0  0  0  0  0  0
  180.9110  185.3240  136.1920 O   0  0  0  0  0  0  0  0  0  0  0  0
  182.5320  184.7140  137.6940 O   0  0  0  0  0  1  0  0  0  0  0  0
  181.4780  184.4130  137.0730 C   0  0  0  0  0  0  0  0  0  0  0  0
  187.0880  177.9130  144.3940 C   0  0  1  0  0  3  0  0  0  0  0  0
  188.3130  177.3790  146.5120 C   0  0  2  0  0  3  0  0  0  0  0  0
  187.0460  177.1400  145.7100 C   0  0  1  0  0  3  0  0  0  0  0  0
  187.9220  177.5360  147.9730 C   0  0  0  0  0  2  0  0  0  0  0  0
  187.0490  178.1150  146.8770 C   0  0  1  0  0  3  0  0  0  0  0  0
  187.7590  177.1420  143.2520 C   0  0  2  0  0  3  0  0  0  0  0  0
  187.5880  175.7610  143.4040 O   0  0  0  0  0  1  0  0  0  0  0  0
  191.2160  178.2750  142.3520 N   0  0  0  0  0  0  0  0  0  0  0  0
  190.0170  177.5190  144.1120 N   0  0  0  0  0  0  0  0  0  0  0  0
  191.2560  177.9910  143.6120 C   0  0  0  0  0  3  0  0  0  0  0  0
  189.2090  177.5040  143.1040 C   0  0  0  0  0  0  0  0  0  0  0  0
  189.8710  178.0090  141.8660 C   0  0  2  0  0  3  0  0  0  0  0  0
  190.0430  177.5820  139.4580 C   0  0  1  0  0  3  0  0  0  0  0  0
  188.8090  177.1130  139.9250 O   0  0  0  0  0  0  0  0  0  0  0  0
  189.9120  176.9420  140.7820 C   0  0  2  0  0  3  0  0  0  0  0  0
  191.9500  176.6500  138.1640 O   0  0  0  0  0  1  0  0  0  0  0  0
  189.8370  175.8140  137.8820 O   0  0  0  0  0  0  0  0  0  0  0  0
  190.5970  176.6250  138.4690 C   0  0  0  0  0  0  0  0  0  0  0  0
  1  2  1  0  0  0  0
  1  9  2  0  0  0  0
  2 22  1  6  0  0  0
  2  5  1  0  0  0  0
  4 32  1  0  0  0  0
  4  3  1  0  0  0  0
  5  7  2  0  0  0  0
  6  3  1  0  0  0  0
  7  6  1  0  0  0  0
  8  4  2  0  0  0  0
  9  8  1  0  0  0  0
  9  7  1  0  0  0  0
 10  1  1  0  0  0  0
 12 11  1  1  0  0  0
 12 10  1  0  0  0  0
 13 12  1  0  0  0  0
 14 21  1  0  0  0  0
 14 20  2  0  0  0  0
 15 14  1  0  0  0  0
 16 15  1  0  0  0  0
 17 21  1  0  0  0  0
 18 17  2  0  0  0  0
 19 15  1  0  0  0  0
 19 17  1  0  0  0  0
 21 12  1  1  0  0  0
 22 23  1  0  0  0  0
 24 23  1  0  0  0  0
 25 26  1  0  0  0  0
 25 24  1  0  0  0  0
 27 26  1  0  0  0  0
 28 27  1  0  0  0  0
 29 31  2  0  0  0  0
 31 28  1  0  0  0  0
 31 30  1  0  0  0  0
 32 37  1  6  0  0  0
 33 36  1  0  0  0  0
 33 35  1  1  0  0  0
 34 32  1  6  0  0  0
 34 33  1  0  0  0  0
 34 36  1  0  0  0  0
 36 35  1  1  0  0  0
 37 38  1  1  0  0  0
 39 41  2  0  0  0  0
 41 40  1  0  0  0  0
 42 37  1  0  0  0  0
 42 40  2  0  0  0  0
 43 39  1  1  0  0  0
 43 42  1  0  0  0  0
 44 49  1  6  0  0  0
 44 45  1  0  0  0  0
 44 46  1  0  0  0  0
 46 45  1  6  0  0  0
 46 43  1  0  0  0  0
 47 49  1  0  0  0  0
 48 49  2  0  0  0  0
M  END
>  <MODEL>
4

>  <REMARK>
 VINA RESULT:      -7.7      1.269      1.858
  Name = 
  17 active torsions:
  status: ('A' for Active; 'I' for Inactive)
    1  A    between atoms: C_1  and  C_10
    2  A    between atoms: C_1  and  N_39
    3  A    between atoms: C_4  and  N_7
    4  A    between atoms: N_7  and  C_30
    5  A    between atoms: C_8  and  C_27
    6  A    between atoms: C_10  and  C_25
    7  A    between atoms: C_14  and  C_45
    8  A    between atoms: C_15  and  C_45
    9  A    between atoms: C_19  and  C_44
   10  A    between atoms: C_19  and  C_45
   11  A    between atoms: O_21  and  C_25
   12  A    between atoms: O_21  and  C_43
   13  A    between atoms: C_27  and  N_39
   14  A    between atoms: C_29  and  C_32
   15  A    between atoms: C_30  and  C_49
   16  A    between atoms: C_38  and  C_43
   17  A    between atoms: C_42  and  C_48
                            x       y       z     vdW  Elec       q    Type
                         _______ _______ _______ _____ _____    ______ ____

>  <TORSDO>
F 17

$$$$
=
 OpenBabel10222417373D

 49 55  0  0  1  0  0  0  0  0999 V2000
  186.4000  177.8640  143.8110 C   0  0  0  0  0  0  0  0  0  0  0  0
  186.6650  178.4750  145.1590 C   0  0  1  0  0  3  0  0  0  0  0  0
  182.4820  179.0370  143.1550 C   0  0  0  0  0  2  0  0  0  0  0  0
  183.2820  178.4980  141.9740 C   0  0  0  0  0  0  0  0  0  0  0  0
  185.4270  179.2130  145.4380 N   0  0  0  0  0  0  0  0  0  0  0  0
  183.3300  179.7490  144.2310 C   0  0  0  0  0  2  0  0  0  0  0  0
  184.6090  179.0090  144.4600 C   0  0  0  0  0  0  0  0  0  0  0  0
  184.5360  178.0410  142.1300 C   0  0  0  0  0  3  0  0  0  0  0  0
  185.1860  178.1970  143.4320 C   0  0  0  0  0  0  0  0  0  0  0  0
  187.3570  177.2470  142.9420 N   0  0  0  0  0  2  0  0  0  0  0  0
  189.2940  178.6280  143.4190 C   0  0  0  0  0  1  0  0  0  0  0  0
  188.5100  177.9060  142.3330 C   0  0  2  0  0  0  0  0  0  0  0  0
  188.0760  178.8360  141.3790 O   0  0  0  0  0  1  0  0  0  0  0  0
  190.4370  177.4440  140.7610 C   0  0  0  0  0  0  0  0  0  0  0  0
  191.7550  177.1660  141.2290 N   0  0  0  0  0  0  0  0  0  0  0  0
  193.0010  177.5140  140.5600 C   0  0  0  0  0  1  0  0  0  0  0  0
  190.3210  176.1510  142.6510 C   0  0  0  0  0  0  0  0  0  0  0  0
  189.9320  175.4290  143.6050 O   0  0  0  0  0  0  0  0  0  0  0  0
  191.6960  176.3620  142.3670 N   0  0  0  0  0  2  0  0  0  0  0  0
  190.1760  177.8750  139.5320 C   0  0  0  0  0  2  0  0  0  0  0  0
  189.4050  176.8350  141.6690 C   0  0  1  0  0  3  0  0  0  0  0  0
  186.8780  177.4000  146.2130 C   0  0  0  0  0  2  0  0  0  0  0  0
  187.0160  178.0200  147.5180 N   0  0  0  0  0  2  0  0  0  0  0  0
  188.1120  177.3500  148.1980 C   0  0  0  0  0  2  0  0  0  0  0  0
  189.4400  177.8920  147.7030 C   0  0  0  0  0  2  0  0  0  0  0  0
  190.0330  176.9710  146.6500 C   0  0  0  0  0  2  0  0  0  0  0  0
  191.3510  177.3460  146.3560 O   0  0  0  0  0  0  0  0  0  0  0  0
  192.0560  176.1410  146.3130 C   0  0  0  0  0  2  0  0  0  0  0  0
  193.1130  176.3800  148.5560 O   0  0  0  0  0  1  0  0  0  0  0  0
  191.7620  174.5870  148.0940 O   0  0  0  0  0  0  0  0  0  0  0  0
  192.3020  175.6530  147.6950 C   0  0  0  0  0  0  0  0  0  0  0  0
  182.6640  178.4110  140.6150 C   0  0  1  0  0  3  0  0  0  0  0  0
  180.3940  178.4240  139.5590 C   0  0  2  0  0  3  0  0  0  0  0  0
  181.3020  179.0990  140.5710 C   0  0  1  0  0  3  0  0  0  0  0  0
  178.9990  178.3430  140.1580 C   0  0  0  0  0  2  0  0  0  0  0  0
  180.2230  178.1290  141.0270 C   0  0  1  0  0  3  0  0  0  0  0  0
  183.6410  178.9150  139.5470 C   0  0  2  0  0  3  0  0  0  0  0  0
  183.3330  180.2240  139.1570 O   0  0  0  0  0  1  0  0  0  0  0  0
  184.3460  176.4520  136.8110 N   0  0  0  0  0  0  0  0  0  0  0  0
  182.6560  177.6720  137.6850 N   0  0  0  0  0  0  0  0  0  0  0  0
  183.0860  176.7240  136.7220 C   0  0  0  0  0  3  0  0  0  0  0  0
  183.7070  177.9910  138.3650 C   0  0  0  0  0  0  0  0  0  0  0  0
  184.9070  177.2310  137.9040 C   0  0  2  0  0  3  0  0  0  0  0  0
  187.3110  177.5320  137.5390 C   0  0  1  0  0  3  0  0  0  0  0  0
  186.8530  178.5090  138.4310 O   0  0  0  0  0  0  0  0  0  0  0  0
  185.9860  178.1640  137.3770 C   0  0  2  0  0  3  0  0  0  0  0  0
  188.7750  179.4160  136.8390 O   0  0  0  0  0  1  0  0  0  0  0  0
  188.6630  177.5050  135.5830 O   0  0  0  0  0  0  0  0  0  0  0  0
  188.2930  178.1360  136.6040 C   0  0  0  0  0  0  0  0  0  0  0  0
  1  2  1  0  0  0  0
  2  5  1  0  0  0  0
  2 22  1  1  0  0  0
  3  6  1  0  0  0  0
  4  8  2  0  0  0  0
  4  3  1  0  0  0  0
  6  7  1  0  0  0  0
  7  5  2  0  0  0  0
  8  9  1  0  0  0  0
  9  1  2  0  0  0  0
  9  7  1  0  0  0  0
 10  1  1  0  0  0  0
 12 10  1  0  0  0  0
 12 11  1  1  0  0  0
 13 12  1  0  0  0  0
 14 15  1  0  0  0  0
 14 21  1  0  0  0  0
 15 19  1  0  0  0  0
 16 15  1  0  0  0  0
 17 18  2  0  0  0  0
 19 17  1  0  0  0  0
 20 14  2  0  0  0  0
 21 12  1  1  0  0  0
 21 17  1  0  0  0  0
 22 23  1  0  0  0  0
 23 24  1  0  0  0  0
 25 24  1  0  0  0  0
 26 25  1  0  0  0  0
 27 26  1  0  0  0  0
 28 27  1  0  0  0  0
 28 31  1  0  0  0  0
 31 30  2  0  0  0  0
 31 29  1  0  0  0  0
 32 37  1  6  0  0  0
 32  4  1  0  0  0  0
 33 35  1  1  0  0  0
 33 34  1  0  0  0  0
 33 36  1  0  0  0  0
 34 32  1  6  0  0  0
 34 36  1  0  0  0  0
 36 35  1  1  0  0  0
 37 38  1  6  0  0  0
 40 42  2  0  0  0  0
 41 39  2  0  0  0  0
 41 40  1  0  0  0  0
 42 37  1  0  0  0  0
 43 39  1  6  0  0  0
 43 42  1  0  0  0  0
 44 49  1  6  0  0  0
 44 45  1  0  0  0  0
 46 44  1  0  0  0  0
 46 43  1  0  0  0  0
 46 45  1  1  0  0  0
 48 49  2  0  0  0  0
 49 47  1  0  0  0  0
M  END
>  <MODEL>
5

>  <REMARK>
 VINA RESULT:      -7.6      2.612      8.836
  Name = 
  17 active torsions:
  status: ('A' for Active; 'I' for Inactive)
    1  A    between atoms: C_1  and  C_10
    2  A    between atoms: C_1  and  N_39
    3  A    between atoms: C_4  and  N_7
    4  A    between atoms: N_7  and  C_30
    5  A    between atoms: C_8  and  C_27
    6  A    between atoms: C_10  and  C_25
    7  A    between atoms: C_14  and  C_45
    8  A    between atoms: C_15  and  C_45
    9  A    between atoms: C_19  and  C_44
   10  A    between atoms: C_19  and  C_45
   11  A    between atoms: O_21  and  C_25
   12  A    between atoms: O_21  and  C_43
   13  A    between atoms: C_27  and  N_39
   14  A    between atoms: C_29  and  C_32
   15  A    between atoms: C_30  and  C_49
   16  A    between atoms: C_38  and  C_43
   17  A    between atoms: C_42  and  C_48
                            x       y       z     vdW  Elec       q    Type
                         _______ _______ _______ _____ _____    ______ ____

>  <TORSDO>
F 17

$$$$
=
 OpenBabel10222417373D

 49 55  0  0  1  0  0  0  0  0999 V2000
  185.4810  178.7790  142.5240 C   0  0  0  0  0  0  0  0  0  0  0  0
  185.2830  179.2220  143.9470 C   0  0  1  0  0  3  0  0  0  0  0  0
  181.5690  178.1010  141.3440 C   0  0  0  0  0  2  0  0  0  0  0  0
  182.6440  178.1850  140.2660 C   0  0  0  0  0  0  0  0  0  0  0  0
  183.8210  179.2530  144.0840 N   0  0  0  0  0  0  0  0  0  0  0  0
  181.8590  178.9450  142.6040 C   0  0  0  0  0  2  0  0  0  0  0  0
  183.3050  178.8520  142.9710 C   0  0  0  0  0  0  0  0  0  0  0  0
  183.9410  178.3390  140.5830 C   0  0  0  0  0  3  0  0  0  0  0  0
  184.3010  178.5700  141.9820 C   0  0  0  0  0  0  0  0  0  0  0  0
  186.6990  178.8180  141.7710 N   0  0  0  0  0  2  0  0  0  0  0  0
  187.5280  176.9290  143.0490 C   0  0  0  0  0  1  0  0  0  0  0  0
  187.8660  177.9660  141.9880 C   0  0  2  0  0  0  0  0  0  0  0  0
  188.9460  178.7430  142.4260 O   0  0  0  0  0  1  0  0  0  0  0  0
  187.9420  178.1250  139.4640 C   0  0  0  0  0  0  0  0  0  0  0  0
  189.1440  178.4110  138.7530 N   0  0  0  0  0  0  0  0  0  0  0  0
  189.2520  179.1410  137.4970 C   0  0  0  0  0  1  0  0  0  0  0  0
  189.7040  177.0650  140.4800 C   0  0  0  0  0  0  0  0  0  0  0  0
  190.4230  176.3410  141.2160 O   0  0  0  0  0  0  0  0  0  0  0  0
  190.2200  177.7540  139.3510 N   0  0  0  0  0  2  0  0  0  0  0  0
  186.7310  178.3090  138.9520 C   0  0  0  0  0  2  0  0  0  0  0  0
  188.2200  177.2570  140.6600 C   0  0  1  0  0  3  0  0  0  0  0  0
  185.8760  178.2150  144.9190 C   0  0  0  0  0  2  0  0  0  0  0  0
  185.1960  178.3180  146.1980 N   0  0  0  0  0  2  0  0  0  0  0  0
  186.2130  178.5690  147.2060 C   0  0  0  0  0  2  0  0  0  0  0  0
  187.4830  177.8130  146.8630 C   0  0  0  0  0  2  0  0  0  0  0  0
  188.3740  177.6840  148.0860 C   0  0  0  0  0  2  0  0  0  0  0  0
  189.6660  177.2900  147.7120 O   0  0  0  0  0  0  0  0  0  0  0  0
  189.6030  177.1590  146.3230 C   0  0  0  0  0  2  0  0  0  0  0  0
  192.0420  176.7260  146.5770 O   0  0  0  0  0  1  0  0  0  0  0  0
  191.1750  177.3250  144.5410 O   0  0  0  0  0  0  0  0  0  0  0  0
  190.9770  177.0830  145.7620 C   0  0  0  0  0  0  0  0  0  0  0  0
  182.2840  178.0390  138.8220 C   0  0  1  0  0  3  0  0  0  0  0  0
  181.2190  179.4480  137.0480 C   0  0  2  0  0  3  0  0  0  0  0  0
  182.3170  179.3800  138.0930 C   0  0  1  0  0  3  0  0  0  0  0  0
  180.6140  180.8430  137.0910 C   0  0  0  0  0  2  0  0  0  0  0  0
  181.0330  180.1450  138.3710 C   0  0  1  0  0  3  0  0  0  0  0  0
  183.1490  176.9600  138.1590 C   0  0  2  0  0  3  0  0  0  0  0  0
  183.9060  177.4920  137.1100 O   0  0  0  0  0  1  0  0  0  0  0  0
  181.5190  173.6920  137.3170 N   0  0  0  0  0  0  0  0  0  0  0  0
  181.1190  175.9160  137.2800 N   0  0  0  0  0  0  0  0  0  0  0  0
  180.6460  174.6020  137.0370 C   0  0  0  0  0  3  0  0  0  0  0  0
  182.3310  175.7840  137.7060 C   0  0  0  0  0  0  0  0  0  0  0  0
  182.7230  174.3470  137.8040 C   0  0  2  0  0  3  0  0  0  0  0  0
  184.7470  172.9960  137.5170 C   0  0  1  0  0  3  0  0  0  0  0  0
  185.0960  174.3520  137.5480 O   0  0  0  0  0  0  0  0  0  0  0  0
  183.8950  174.0270  136.8900 C   0  0  2  0  0  3  0  0  0  0  0  0
  186.9420  172.4320  136.4940 O   0  0  0  0  0  1  0  0  0  0  0  0
  185.0000  171.6160  135.5970 O   0  0  0  0  0  0  0  0  0  0  0  0
  185.5610  172.2980  136.4900 C   0  0  0  0  0  0  0  0  0  0  0  0
  1  2  1  0  0  0  0
  2  5  1  0  0  0  0
  2 22  1  1  0  0  0
  3  6  1  0  0  0  0
  4  8  2  0  0  0  0
  4  3  1  0  0  0  0
  6  7  1  0  0  0  0
  7  5  2  0  0  0  0
  8  9  1  0  0  0  0
  9  1  2  0  0  0  0
  9  7  1  0  0  0  0
 10 12  1  0  0  0  0
 10  1  1  0  0  0  0
 12 13  1  0  0  0  0
 12 11  1  1  0  0  0
 14 21  1  0  0  0  0
 15 19  1  0  0  0  0
 15 14  1  0  0  0  0
 16 15  1  0  0  0  0
 17 21  1  0  0  0  0
 17 18  2  0  0  0  0
 19 17  1  0  0  0  0
 20 14  2  0  0  0  0
 21 12  1  1  0  0  0
 22 23  1  0  0  0  0
 23 24  1  0  0  0  0
 25 24  1  0  0  0  0
 25 26  1  0  0  0  0
 27 26  1  0  0  0  0
 28 27  1  0  0  0  0
 30 31  2  0  0  0  0
 31 28  1  0  0  0  0
 31 29  1  0  0  0  0
 32 37  1  6  0  0  0
 32  4  1  0  0  0  0
 33 35  1  6  0  0  0
 33 34  1  0  0  0  0
 33 36  1  0  0  0  0
 34 36  1  0  0  0  0
 34 32  1  1  0  0  0
 36 35  1  6  0  0  0
 37 38  1  6  0  0  0
 40 42  2  0  0  0  0
 41 40  1  0  0  0  0
 41 39  2  0  0  0  0
 42 43  1  0  0  0  0
 42 37  1  0  0  0  0
 43 39  1  6  0  0  0
 44 49  1  6  0  0  0
 44 45  1  0  0  0  0
 46 44  1  0  0  0  0
 46 45  1  1  0  0  0
 46 43  1  0  0  0  0
 48 49  2  0  0  0  0
 49 47  1  0  0  0  0
M  END
>  <MODEL>
6

>  <REMARK>
 VINA RESULT:      -7.4      2.791      8.673
  Name = 
  17 active torsions:
  status: ('A' for Active; 'I' for Inactive)
    1  A    between atoms: C_1  and  C_10
    2  A    between atoms: C_1  and  N_39
    3  A    between atoms: C_4  and  N_7
    4  A    between atoms: N_7  and  C_30
    5  A    between atoms: C_8  and  C_27
    6  A    between atoms: C_10  and  C_25
    7  A    between atoms: C_14  and  C_45
    8  A    between atoms: C_15  and  C_45
    9  A    between atoms: C_19  and  C_44
   10  A    between atoms: C_19  and  C_45
   11  A    between atoms: O_21  and  C_25
   12  A    between atoms: O_21  and  C_43
   13  A    between atoms: C_27  and  N_39
   14  A    between atoms: C_29  and  C_32
   15  A    between atoms: C_30  and  C_49
   16  A    between atoms: C_38  and  C_43
   17  A    between atoms: C_42  and  C_48
                            x       y       z     vdW  Elec       q    Type
                         _______ _______ _______ _____ _____    ______ ____

>  <TORSDO>
F 17

$$$$
=
 OpenBabel10222417373D

 49 55  0  0  1  0  0  0  0  0999 V2000
  189.6580  177.4500  140.2610 C   0  0  0  0  0  0  0  0  0  0  0  0
  188.7530  178.6510  140.2390 C   0  0  1  0  0  3  0  0  0  0  0  0
  189.6810  176.3900  136.2570 C   0  0  0  0  0  2  0  0  0  0  0  0
  190.7360  175.7780  137.1720 C   0  0  0  0  0  0  0  0  0  0  0  0
  188.4660  178.8230  138.8090 N   0  0  0  0  0  0  0  0  0  0  0  0
  189.2060  177.7970  136.6790 C   0  0  0  0  0  2  0  0  0  0  0  0
  189.0510  177.8710  138.1640 C   0  0  0  0  0  0  0  0  0  0  0  0
  190.7460  176.0300  138.4920 C   0  0  0  0  0  3  0  0  0  0  0  0
  189.8110  177.0190  139.0280 C   0  0  0  0  0  0  0  0  0  0  0  0
  190.4460  176.9860  141.3630 N   0  0  0  0  0  2  0  0  0  0  0  0
  190.9860  175.5500  143.2430 C   0  0  0  0  0  1  0  0  0  0  0  0
  189.9280  176.4480  142.6180 C   0  0  2  0  0  0  0  0  0  0  0  0
  188.7700  175.6990  142.3730 O   0  0  0  0  0  1  0  0  0  0  0  0
  188.6810  177.2170  144.6810 C   0  0  0  0  0  0  0  0  0  0  0  0
  189.3150  177.3470  145.9520 N   0  0  0  0  0  0  0  0  0  0  0  0
  188.6940  177.1350  147.2530 C   0  0  0  0  0  1  0  0  0  0  0  0
  190.8030  178.0380  144.3980 C   0  0  0  0  0  0  0  0  0  0  0  0
  191.8620  178.5280  143.9260 O   0  0  0  0  0  0  0  0  0  0  0  0
  190.5990  177.8660  145.7930 N   0  0  0  0  0  2  0  0  0  0  0  0
  187.3680  177.0890  144.5310 C   0  0  0  0  0  2  0  0  0  0  0  0
  189.6130  177.6230  143.5730 C   0  0  1  0  0  3  0  0  0  0  0  0
  187.4650  178.3770  140.9990 C   0  0  0  0  0  2  0  0  0  0  0  0
  186.3320  178.5300  140.1040 N   0  0  0  0  0  2  0  0  0  0  0  0
  185.3240  179.2980  140.8150 C   0  0  0  0  0  2  0  0  0  0  0  0
  185.5520  179.1950  142.3120 C   0  0  0  0  0  2  0  0  0  0  0  0
  184.2280  179.0790  143.0480 C   0  0  0  0  0  2  0  0  0  0  0  0
  184.2990  179.7250  144.2900 O   0  0  0  0  0  0  0  0  0  0  0  0
  183.9120  178.7500  145.2130 C   0  0  0  0  0  2  0  0  0  0  0  0
  186.0510  179.4520  146.2760 O   0  0  0  0  0  0  0  0  0  0  0  0
  184.6210  178.0330  147.3710 O   0  0  0  0  0  1  0  0  0  0  0  0
  184.8760  178.7160  146.3430 C   0  0  0  0  0  0  0  0  0  0  0  0
  191.7570  174.8310  136.6270 C   0  0  1  0  0  3  0  0  0  0  0  0
  191.6110  172.6130  135.4750 C   0  0  2  0  0  3  0  0  0  0  0  0
  191.2330  174.0810  135.4040 C   0  0  1  0  0  3  0  0  0  0  0  0
  190.4200  171.7960  134.9980 C   0  0  0  0  0  2  0  0  0  0  0  0
  190.2130  173.0400  135.8400 C   0  0  1  0  0  3  0  0  0  0  0  0
  193.0850  175.5550  136.3790 C   0  0  2  0  0  3  0  0  0  0  0  0
  193.0120  176.3720  135.2450 O   0  0  0  0  0  1  0  0  0  0  0  0
  195.8910  173.1010  136.7620 N   0  0  0  0  0  0  0  0  0  0  0  0
  194.6360  174.1010  135.1710 N   0  0  0  0  0  0  0  0  0  0  0  0
  195.6680  173.1840  135.4920 C   0  0  0  0  0  3  0  0  0  0  0  0
  194.2390  174.5990  136.2950 C   0  0  0  0  0  0  0  0  0  0  0  0
  194.9770  174.0010  137.4470 C   0  0  2  0  0  3  0  0  0  0  0  0
  196.2120  174.5010  139.5040 C   0  0  1  0  0  3  0  0  0  0  0  0
  195.0960  175.3420  139.4190 O   0  0  0  0  0  0  0  0  0  0  0  0
  195.7610  175.0560  138.2120 C   0  0  2  0  0  3  0  0  0  0  0  0
  198.5110  175.4120  139.2450 O   0  0  0  0  0  0  0  0  0  0  0  0
  197.3380  175.7570  141.1810 O   0  0  0  0  0  1  0  0  0  0  0  0
  197.3710  175.2670  140.0240 C   0  0  0  0  0  0  0  0  0  0  0  0
  1 10  1  0  0  0  0
  2  1  1  0  0  0  0
  2 22  1  1  0  0  0
  3  6  1  0  0  0  0
  3  4  1  0  0  0  0
  4  8  2  0  0  0  0
  5  2  1  0  0  0  0
  6  7  1  0  0  0  0
  7  5  2  0  0  0  0
  7  9  1  0  0  0  0
  8  9  1  0  0  0  0
  9  1  2  0  0  0  0
 10 12  1  0  0  0  0
 12 11  1  1  0  0  0
 13 12  1  0  0  0  0
 14 15  1  0  0  0  0
 15 16  1  0  0  0  0
 17 19  1  0  0  0  0
 18 17  2  0  0  0  0
 19 15  1  0  0  0  0
 20 14  2  0  0  0  0
 21 12  1  6  0  0  0
 21 17  1  0  0  0  0
 21 14  1  0  0  0  0
 23 24  1  0  0  0  0
 23 22  1  0  0  0  0
 24 25  1  0  0  0  0
 25 26  1  0  0  0  0
 26 27  1  0  0  0  0
 27 28  1  0  0  0  0
 28 31  1  0  0  0  0
 29 31  2  0  0  0  0
 31 30  1  0  0  0  0
 32 37  1  6  0  0  0
 32  4  1  0  0  0  0
 33 35  1  6  0  0  0
 33 36  1  0  0  0  0
 34 33  1  0  0  0  0
 34 36  1  0  0  0  0
 34 32  1  1  0  0  0
 36 35  1  6  0  0  0
 37 38  1  6  0  0  0
 39 43  1  0  0  0  0
 40 41  1  0  0  0  0
 40 42  2  0  0  0  0
 41 39  2  0  0  0  0
 42 37  1  0  0  0  0
 43 42  1  6  0  0  0
 43 46  1  0  0  0  0
 44 49  1  1  0  0  0
 45 44  1  0  0  0  0
 46 45  1  1  0  0  0
 46 44  1  0  0  0  0
 47 49  2  0  0  0  0
 49 48  1  0  0  0  0
M  END
>  <MODEL>
7

>  <REMARK>
 VINA RESULT:      -7.4      3.993      9.075
  Name = 
  17 active torsions:
  status: ('A' for Active; 'I' for Inactive)
    1  A    between atoms: C_1  and  C_10
    2  A    between atoms: C_1  and  N_39
    3  A    between atoms: C_4  and  N_7
    4  A    between atoms: N_7  and  C_30
    5  A    between atoms: C_8  and  C_27
    6  A    between atoms: C_10  and  C_25
    7  A    between atoms: C_14  and  C_45
    8  A    between atoms: C_15  and  C_45
    9  A    between atoms: C_19  and  C_44
   10  A    between atoms: C_19  and  C_45
   11  A    between atoms: O_21  and  C_25
   12  A    between atoms: O_21  and  C_43
   13  A    between atoms: C_27  and  N_39
   14  A    between atoms: C_29  and  C_32
   15  A    between atoms: C_30  and  C_49
   16  A    between atoms: C_38  and  C_43
   17  A    between atoms: C_42  and  C_48
                            x       y       z     vdW  Elec       q    Type
                         _______ _______ _______ _____ _____    ______ ____

>  <TORSDO>
F 17

$$$$
=
 OpenBabel10222417373D

 49 55  0  0  1  0  0  0  0  0999 V2000
  189.5910  177.4000  140.5780 C   0  0  0  0  0  0  0  0  0  0  0  0
  188.7190  178.6240  140.6280 C   0  0  1  0  0  3  0  0  0  0  0  0
  189.3730  176.4230  136.5590 C   0  0  0  0  0  2  0  0  0  0  0  0
  190.4580  175.7650  137.4050 C   0  0  0  0  0  0  0  0  0  0  0  0
  188.3610  178.8330  139.2200 N   0  0  0  0  0  0  0  0  0  0  0  0
  188.9600  177.8330  137.0330 C   0  0  0  0  0  2  0  0  0  0  0  0
  188.8860  177.8800  138.5260 C   0  0  0  0  0  0  0  0  0  0  0  0
  190.5450  175.9890  138.7270 C   0  0  0  0  0  3  0  0  0  0  0  0
  189.6660  176.9900  139.3310 C   0  0  0  0  0  0  0  0  0  0  0  0
  190.4230  176.8920  141.6280 N   0  0  0  0  0  2  0  0  0  0  0  0
  191.0200  175.3980  143.4440 C   0  0  0  0  0  1  0  0  0  0  0  0
  189.9580  176.3420  142.8980 C   0  0  2  0  0  0  0  0  0  0  0  0
  188.7660  175.6330  142.7010 O   0  0  0  0  0  1  0  0  0  0  0  0
  188.7510  177.1390  144.9730 C   0  0  0  0  0  0  0  0  0  0  0  0
  189.3740  177.1650  146.2560 N   0  0  0  0  0  0  0  0  0  0  0  0
  188.7160  176.9600  147.5400 C   0  0  0  0  0  1  0  0  0  0  0  0
  190.9410  177.7800  144.7490 C   0  0  0  0  0  0  0  0  0  0  0  0
  192.0460  178.1920  144.3090 O   0  0  0  0  0  0  0  0  0  0  0  0
  190.7010  177.5740  146.1330 N   0  0  0  0  0  2  0  0  0  0  0  0
  187.4340  177.1330  144.8020 C   0  0  0  0  0  2  0  0  0  0  0  0
  189.7320  177.5030  143.8930 C   0  0  1  0  0  3  0  0  0  0  0  0
  187.4670  178.3680  141.4510 C   0  0  0  0  0  2  0  0  0  0  0  0
  186.2990  178.8070  140.7070 N   0  0  0  0  0  2  0  0  0  0  0  0
  185.3320  179.2960  141.6740 C   0  0  0  0  0  2  0  0  0  0  0  0
  184.2660  178.2450  141.9210 C   0  0  0  0  0  2  0  0  0  0  0  0
  183.1970  178.3040  140.8420 C   0  0  0  0  0  2  0  0  0  0  0  0
  183.2950  177.1940  139.9930 O   0  0  0  0  0  0  0  0  0  0  0  0
  182.8010  177.6470  138.7680 C   0  0  0  0  0  2  0  0  0  0  0  0
  185.1290  177.7200  137.8880 O   0  0  0  0  0  1  0  0  0  0  0  0
  183.4340  176.8450  136.6160 O   0  0  0  0  0  0  0  0  0  0  0  0
  183.7960  177.3860  137.6960 C   0  0  0  0  0  0  0  0  0  0  0  0
  191.4220  174.8030  136.7870 C   0  0  1  0  0  3  0  0  0  0  0  0
  191.1700  172.6730  135.4950 C   0  0  2  0  0  3  0  0  0  0  0  0
  190.8460  174.1560  135.5310 C   0  0  1  0  0  3  0  0  0  0  0  0
  189.9400  171.9340  134.9940 C   0  0  0  0  0  2  0  0  0  0  0  0
  189.7970  173.1250  135.9200 C   0  0  1  0  0  3  0  0  0  0  0  0
  192.7820  175.4740  136.5620 C   0  0  2  0  0  3  0  0  0  0  0  0
  192.7480  176.3270  135.4530 O   0  0  0  0  0  1  0  0  0  0  0  0
  195.5240  172.9400  136.8810 N   0  0  0  0  0  0  0  0  0  0  0  0
  194.1830  173.8910  135.3320 N   0  0  0  0  0  0  0  0  0  0  0  0
  195.2050  172.9550  135.6300 C   0  0  0  0  0  3  0  0  0  0  0  0
  193.8930  174.4700  136.4500 C   0  0  0  0  0  0  0  0  0  0  0  0
  194.6980  173.9140  137.5770 C   0  0  2  0  0  3  0  0  0  0  0  0
  196.0810  174.4980  139.5140 C   0  0  1  0  0  3  0  0  0  0  0  0
  195.0010  175.3850  139.4320 O   0  0  0  0  0  0  0  0  0  0  0  0
  195.5750  174.9810  138.2130 C   0  0  2  0  0  3  0  0  0  0  0  0
  198.3920  175.2840  139.0460 O   0  0  0  0  0  0  0  0  0  0  0  0
  197.3700  175.8030  141.0270 O   0  0  0  0  0  1  0  0  0  0  0  0
  197.3040  175.2410  139.9050 C   0  0  0  0  0  0  0  0  0  0  0  0
  1  2  1  0  0  0  0
  1 10  1  0  0  0  0
  2 22  1  1  0  0  0
  3  6  1  0  0  0  0
  3  4  1  0  0  0  0
  4  8  2  0  0  0  0
  5  2  1  0  0  0  0
  6  7  1  0  0  0  0
  7  5  2  0  0  0  0
  7  9  1  0  0  0  0
  8  9  1  0  0  0  0
  9  1  2  0  0  0  0
 10 12  1  0  0  0  0
 12 11  1  1  0  0  0
 13 12  1  0  0  0  0
 14 15  1  0  0  0  0
 15 16  1  0  0  0  0
 17 19  1  0  0  0  0
 18 17  2  0  0  0  0
 19 15  1  0  0  0  0
 20 14  2  0  0  0  0
 21 12  1  6  0  0  0
 21 17  1  0  0  0  0
 21 14  1  0  0  0  0
 23 22  1  0  0  0  0
 23 24  1  0  0  0  0
 24 25  1  0  0  0  0
 26 25  1  0  0  0  0
 27 26  1  0  0  0  0
 28 27  1  0  0  0  0
 30 31  2  0  0  0  0
 31 29  1  0  0  0  0
 31 28  1  0  0  0  0
 32 37  1  6  0  0  0
 32  4  1  0  0  0  0
 33 35  1  6  0  0  0
 33 34  1  0  0  0  0
 33 36  1  0  0  0  0
 34 36  1  0  0  0  0
 34 32  1  1  0  0  0
 36 35  1  6  0  0  0
 37 38  1  6  0  0  0
 39 43  1  0  0  0  0
 40 41  1  0  0  0  0
 40 42  2  0  0  0  0
 41 39  2  0  0  0  0
 42 37  1  0  0  0  0
 43 42  1  6  0  0  0
 43 46  1  0  0  0  0
 44 49  1  1  0  0  0
 45 44  1  0  0  0  0
 46 45  1  1  0  0  0
 46 44  1  0  0  0  0
 47 49  2  0  0  0  0
 49 48  1  0  0  0  0
M  END
>  <MODEL>
8

>  <REMARK>
 VINA RESULT:      -7.1      3.657      8.566
  Name = 
  17 active torsions:
  status: ('A' for Active; 'I' for Inactive)
    1  A    between atoms: C_1  and  C_10
    2  A    between atoms: C_1  and  N_39
    3  A    between atoms: C_4  and  N_7
    4  A    between atoms: N_7  and  C_30
    5  A    between atoms: C_8  and  C_27
    6  A    between atoms: C_10  and  C_25
    7  A    between atoms: C_14  and  C_45
    8  A    between atoms: C_15  and  C_45
    9  A    between atoms: C_19  and  C_44
   10  A    between atoms: C_19  and  C_45
   11  A    between atoms: O_21  and  C_25
   12  A    between atoms: O_21  and  C_43
   13  A    between atoms: C_27  and  N_39
   14  A    between atoms: C_29  and  C_32
   15  A    between atoms: C_30  and  C_49
   16  A    between atoms: C_38  and  C_43
   17  A    between atoms: C_42  and  C_48
                            x       y       z     vdW  Elec       q    Type
                         _______ _______ _______ _____ _____    ______ ____

>  <TORSDO>
F 17

$$$$
=
 OpenBabel10222417373D

 49 55  0  0  1  0  0  0  0  0999 V2000
  185.3000  178.2950  143.2710 C   0  0  0  0  0  0  0  0  0  0  0  0
  185.2650  179.0640  144.5620 C   0  0  1  0  0  3  0  0  0  0  0  0
  181.3030  178.3670  142.1870 C   0  0  0  0  0  2  0  0  0  0  0  0
  182.3290  177.9530  141.1370 C   0  0  0  0  0  0  0  0  0  0  0  0
  183.8610  179.4820  144.6610 N   0  0  0  0  0  0  0  0  0  0  0  0
  181.8330  179.3600  143.2430 C   0  0  0  0  0  2  0  0  0  0  0  0
  183.2240  178.9940  143.6500 C   0  0  0  0  0  0  0  0  0  0  0  0
  183.6340  177.8470  141.4390 C   0  0  0  0  0  3  0  0  0  0  0  0
  184.0860  178.2730  142.7640 C   0  0  0  0  0  0  0  0  0  0  0  0
  186.4640  177.8720  142.5510 N   0  0  0  0  0  2  0  0  0  0  0  0
  188.0960  176.2130  143.2370 C   0  0  0  0  0  1  0  0  0  0  0  0
  187.8010  177.7010  143.1120 C   0  0  2  0  0  0  0  0  0  0  0  0
  187.8650  178.2940  144.3800 O   0  0  0  0  0  1  0  0  0  0  0  0
  190.2410  178.1850  142.6510 C   0  0  0  0  0  0  0  0  0  0  0  0
  191.0100  177.4190  141.7260 N   0  0  0  0  0  0  0  0  0  0  0  0
  192.4350  177.1300  141.8180 C   0  0  0  0  0  1  0  0  0  0  0  0
  188.9430  177.6410  140.8410 C   0  0  0  0  0  0  0  0  0  0  0  0
  188.0140  177.5540  139.9960 O   0  0  0  0  0  0  0  0  0  0  0  0
  190.2360  177.1010  140.6110 N   0  0  0  0  0  2  0  0  0  0  0  0
  190.7820  178.9190  143.6170 C   0  0  0  0  0  2  0  0  0  0  0  0
  188.8300  178.3570  142.1620 C   0  0  1  0  0  3  0  0  0  0  0  0
  185.6260  178.1710  145.7380 C   0  0  0  0  0  2  0  0  0  0  0  0
  185.2200  178.8130  146.9770 N   0  0  0  0  0  2  0  0  0  0  0  0
  186.4330  179.1710  147.6920 C   0  0  0  0  0  2  0  0  0  0  0  0
  187.4650  178.0660  147.5530 C   0  0  0  0  0  2  0  0  0  0  0  0
  188.3210  177.9740  148.8050 C   0  0  0  0  0  2  0  0  0  0  0  0
  189.6800  177.9200  148.4670 O   0  0  0  0  0  0  0  0  0  0  0  0
  189.6940  177.4530  147.1500 C   0  0  0  0  0  2  0  0  0  0  0  0
  191.9780  176.7430  147.8420 O   0  0  0  0  0  1  0  0  0  0  0  0
  191.2210  176.3140  145.7210 O   0  0  0  0  0  0  0  0  0  0  0  0
  191.0020  176.8120  146.8580 C   0  0  0  0  0  0  0  0  0  0  0  0
  181.8940  177.5970  139.7510 C   0  0  1  0  0  3  0  0  0  0  0  0
  180.3230  175.9720  138.6740 C   0  0  2  0  0  3  0  0  0  0  0  0
  180.4680  177.0540  139.7290 C   0  0  1  0  0  3  0  0  0  0  0  0
  179.4630  174.8610  139.2540 C   0  0  0  0  0  2  0  0  0  0  0  0
  180.4740  175.5840  140.1220 C   0  0  1  0  0  3  0  0  0  0  0  0
  182.1150  178.7780  138.7980 C   0  0  2  0  0  3  0  0  0  0  0  0
  181.0750  179.7090  138.8970 O   0  0  0  0  0  1  0  0  0  0  0  0
  183.0580  177.3060  135.4830 N   0  0  0  0  0  0  0  0  0  0  0  0
  181.4250  178.5190  136.4660 N   0  0  0  0  0  0  0  0  0  0  0  0
  181.9170  177.8840  135.2990 C   0  0  0  0  0  3  0  0  0  0  0  0
  182.3170  178.3260  137.3800 C   0  0  0  0  0  0  0  0  0  0  0  0
  183.4550  177.5060  136.8680 C   0  0  2  0  0  3  0  0  0  0  0  0
  185.8890  177.3340  137.0950 C   0  0  1  0  0  3  0  0  0  0  0  0
  185.3730  178.0570  138.1770 O   0  0  0  0  0  0  0  0  0  0  0  0
  184.7650  178.2770  136.9270 C   0  0  2  0  0  3  0  0  0  0  0  0
  187.9060  177.3500  135.6420 O   0  0  0  0  0  0  0  0  0  0  0  0
  187.5790  179.0040  137.1910 O   0  0  0  0  0  1  0  0  0  0  0  0
  187.1600  177.9530  136.6440 C   0  0  0  0  0  0  0  0  0  0  0  0
  1  2  1  0  0  0  0
  2  5  1  0  0  0  0
  2 22  1  1  0  0  0
  3  6  1  0  0  0  0
  4  8  2  0  0  0  0
  4  3  1  0  0  0  0
  6  7  1  0  0  0  0
  7  5  2  0  0  0  0
  8  9  1  0  0  0  0
  9  1  2  0  0  0  0
  9  7  1  0  0  0  0
 10 12  1  0  0  0  0
 10  1  1  0  0  0  0
 12 11  1  1  0  0  0
 12 13  1  0  0  0  0
 14 20  2  0  0  0  0
 15 16  1  0  0  0  0
 15 14  1  0  0  0  0
 17 21  1  0  0  0  0
 18 17  2  0  0  0  0
 19 17  1  0  0  0  0
 19 15  1  0  0  0  0
 21 14  1  0  0  0  0
 21 12  1  1  0  0  0
 22 23  1  0  0  0  0
 23 24  1  0  0  0  0
 25 24  1  0  0  0  0
 25 26  1  0  0  0  0
 27 26  1  0  0  0  0
 28 27  1  0  0  0  0
 30 31  2  0  0  0  0
 31 28  1  0  0  0  0
 31 29  1  0  0  0  0
 32 37  1  6  0  0  0
 32  4  1  0  0  0  0
 33 35  1  1  0  0  0
 33 34  1  0  0  0  0
 33 36  1  0  0  0  0
 34 32  1  6  0  0  0
 34 36  1  0  0  0  0
 36 35  1  1  0  0  0
 37 38  1  6  0  0  0
 40 42  2  0  0  0  0
 41 39  2  0  0  0  0
 41 40  1  0  0  0  0
 42 37  1  0  0  0  0
 43 39  1  6  0  0  0
 43 46  1  0  0  0  0
 43 42  1  0  0  0  0
 44 49  1  6  0  0  0
 44 45  1  0  0  0  0
 46 44  1  0  0  0  0
 46 45  1  1  0  0  0
 47 49  2  0  0  0  0
 49 48  1  0  0  0  0
M  END
>  <MODEL>
9

>  <REMARK>
 VINA RESULT:      -7.0      2.578      8.762
  Name = 
  17 active torsions:
  status: ('A' for Active; 'I' for Inactive)
    1  A    between atoms: C_1  and  C_10
    2  A    between atoms: C_1  and  N_39
    3  A    between atoms: C_4  and  N_7
    4  A    between atoms: N_7  and  C_30
    5  A    between atoms: C_8  and  C_27
    6  A    between atoms: C_10  and  C_25
    7  A    between atoms: C_14  and  C_45
    8  A    between atoms: C_15  and  C_45
    9  A    between atoms: C_19  and  C_44
   10  A    between atoms: C_19  and  C_45
   11  A    between atoms: O_21  and  C_25
   12  A    between atoms: O_21  and  C_43
   13  A    between atoms: C_27  and  N_39
   14  A    between atoms: C_29  and  C_32
   15  A    between atoms: C_30  and  C_49
   16  A    between atoms: C_38  and  C_43
   17  A    between atoms: C_42  and  C_48
                            x       y       z     vdW  Elec       q    Type
                         _______ _______ _______ _____ _____    ______ ____

>  <TORSDO>
F 17

$$$$
