=
 OpenBabel10222418133D

 45 50  0  0  1  0  0  0  0  0999 V2000
  189.3470  177.5300  140.6440 C   0  0  0  0  0  2  0  0  0  0  0  0
  193.0240  177.1960  138.5870 C   0  0  0  0  0  2  0  0  0  0  0  0
  192.4030  175.2470  137.0410 C   0  0  0  0  0  0  0  0  0  0  0  0
  189.3740  176.6920  139.5160 O   0  0  0  0  0  0  0  0  0  0  0  0
  191.7790  176.8100  139.3920 C   0  0  1  0  0  3  0  0  0  0  0  0
  188.7730  174.8670  136.7170 O   0  0  0  0  0  0  0  0  0  0  0  0
  191.8310  177.4930  140.7550 C   0  0  0  0  0  2  0  0  0  0  0  0
  190.3030  176.5930  137.2590 C   0  0  2  0  0  3  0  0  0  0  0  0
  190.0210  174.2870  136.8150 C   0  0  0  0  0  0  0  0  0  0  0  0
  190.4330  177.1450  138.7010 C   0  0  1  0  0  3  0  0  0  0  0  0
  188.8370  176.2810  136.8710 C   0  0  1  0  0  3  0  0  0  0  0  0
  190.5500  177.2250  141.5390 C   0  0  1  0  0  3  0  0  0  0  0  0
  191.0450  175.2980  137.0580 C   0  0  0  0  0  0  0  0  0  0  0  0
  193.1320  176.5600  137.1930 C   0  0  0  0  0  2  0  0  0  0  0  0
  190.1870  173.0440  136.7360 O   0  0  0  0  0  0  0  0  0  0  0  0
  194.5150  174.1450  135.9040 C   0  0  1  0  0  3  0  0  0  0  0  0
  193.2550  173.4130  135.4230 C   0  0  0  0  0  2  0  0  0  0  0  0
  193.2860  174.0360  136.7920 C   0  0  2  0  0  0  0  0  0  0  0  0
  193.3430  173.0750  137.8100 O   0  0  0  0  0  1  0  0  0  0  0  0
  195.5630  173.1410  136.2470 C   0  0  0  0  0  3  0  0  0  0  0  0
  196.7170  173.5340  136.7720 C   0  0  0  0  0  3  0  0  0  0  0  0
  197.7660  172.5730  137.1270 C   0  0  0  0  0  0  0  0  0  0  0  0
  197.4470  171.3990  137.4480 O   0  0  0  0  0  0  0  0  0  0  0  0
  199.1410  172.9490  137.1120 N   0  0  0  0  0  1  0  0  0  0  0  0
  188.4260  176.9700  135.5700 C   0  0  1  0  0  3  0  0  0  0  0  0
  187.8480  175.9580  134.5940 C   0  0  0  0  0  1  0  0  0  0  0  0
  187.4620  178.0350  135.8280 N   0  0  0  0  0  2  0  0  0  0  0  0
  184.6460  179.0790  141.2380 C   0  0  0  0  0  2  0  0  0  0  0  0
  186.4050  177.9430  136.7850 C   0  0  0  0  0  0  0  0  0  0  0  0
  183.6690  177.9140  141.1030 C   0  0  0  0  0  2  0  0  0  0  0  0
  183.3460  177.6850  139.6950 N   0  0  0  0  0  2  0  0  0  0  0  0
  186.6170  178.4290  138.0790 C   0  0  0  0  0  3  0  0  0  0  0  0
  185.1580  177.3920  136.4450 C   0  0  0  0  0  3  0  0  0  0  0  0
  185.5960  178.3610  139.0290 C   0  0  0  0  0  0  0  0  0  0  0  0
  184.3630  177.7850  138.6950 C   0  0  0  0  0  0  0  0  0  0  0  0
  185.7880  178.8860  140.3460 N   0  0  0  0  0  2  0  0  0  0  0  0
  184.1390  177.3110  137.4000 C   0  0  0  0  0  3  0  0  0  0  0  0
  190.5200  178.0430  142.6710 O   0  0  0  0  0  0  0  0  0  0  0  0
  190.3700  176.9950  143.9970 P   0  0  2  0  0  0  0  0  0  0  0  0
  191.7150  176.8160  144.6660 O   0  0  0  0  0  1  0  0  0  0  0  0
  189.8210  175.4920  143.4490 O   0  0  0  0  0  0  0  0  0  0  0  0
  187.2180  177.2490  143.6220 C   0  0  0  0  0  1  0  0  0  0  0  0
  187.0500  178.1760  145.7980 O   0  0  0  0  0  0  0  0  0  0  0  0
  187.8100  177.7100  144.9100 C   0  0  0  0  0  0  0  0  0  0  0  0
  189.2180  177.6440  145.1550 N   0  0  0  0  0  2  0  0  0  0  0  0
  1 12  1  0  0  0  0
  3 13  2  0  0  0  0
  3 14  1  0  0  0  0
  4  1  1  0  0  0  0
  5  2  1  6  0  0  0
  5  7  1  0  0  0  0
  6  9  1  0  0  0  0
  6 11  1  0  0  0  0
  7 12  1  0  0  0  0
  8 13  1  1  0  0  0
  8 10  1  0  0  0  0
  9 13  1  0  0  0  0
 10  5  1  0  0  0  0
 10  4  1  1  0  0  0
 11 25  1  6  0  0  0
 11  8  1  0  0  0  0
 12 38  1  1  0  0  0
 14  2  1  0  0  0  0
 15  9  2  0  0  0  0
 16 20  1  1  0  0  0
 16 18  1  0  0  0  0
 17 16  1  0  0  0  0
 17 18  1  0  0  0  0
 18  3  1  0  0  0  0
 18 19  1  1  0  0  0
 20 21  2  0  0  0  0
 21 22  1  0  0  0  0
 22 23  2  0  0  0  0
 24 22  1  0  0  0  0
 25 26  1  6  0  0  0
 25 27  1  0  0  0  0
 27 29  1  0  0  0  0
 29 32  1  0  0  0  0
 30 28  1  0  0  0  0
 31 30  1  0  0  0  0
 32 34  2  0  0  0  0
 33 29  2  0  0  0  0
 33 37  1  0  0  0  0
 34 36  1  0  0  0  0
 35 34  1  0  0  0  0
 35 31  1  0  0  0  0
 36 28  1  0  0  0  0
 37 35  2  0  0  0  0
 38 39  1  0  0  0  0
 39 41  2  6  0  0  0
 39 40  1  0  0  0  0
 39 45  1  0  0  0  0
 42 44  1  0  0  0  0
 44 45  1  0  0  0  0
 44 43  2  0  0  0  0
M  END
>  <MODEL>
1

>  <REMARK>
 VINA RESULT:      -7.0      0.000      0.000
  Name = 
  9 active torsions:
  status: ('A' for Active; 'I' for Inactive)
    1  A    between atoms: C_2  and  C_3
    2  A    between atoms: C_7  and  N_30
    3  A    between atoms: C_9  and  N_30
    4  A    between atoms: C_9  and  C_33
    5  A    between atoms: P_10  and  N_41
    6  A    between atoms: P_10  and  O_43
    7  A    between atoms: C_11  and  C_13
    8  A    between atoms: C_15  and  C_26
    9  A    between atoms: C_34  and  O_43
                            x       y       z     vdW  Elec       q    Type
                         _______ _______ _______ _____ _____    ______ ____

>  <TORSDO>
F 9

$$$$
=
 OpenBabel10222418133D

 45 50  0  0  1  0  0  0  0  0999 V2000
  185.9780  178.6730  141.6990 C   0  0  0  0  0  2  0  0  0  0  0  0
  187.7450  178.2880  137.8800 C   0  0  0  0  0  2  0  0  0  0  0  0
  185.9940  176.7440  136.8200 C   0  0  0  0  0  0  0  0  0  0  0  0
  185.2060  178.0590  140.6970 O   0  0  0  0  0  0  0  0  0  0  0  0
  187.1060  177.9110  139.2190 C   0  0  1  0  0  3  0  0  0  0  0  0
  182.8040  176.8640  138.6170 O   0  0  0  0  0  0  0  0  0  0  0  0
  188.0390  178.3210  140.3540 C   0  0  0  0  0  2  0  0  0  0  0  0
  184.6890  178.2670  138.3190 C   0  0  2  0  0  3  0  0  0  0  0  0
  183.7490  176.1320  137.9300 C   0  0  0  0  0  0  0  0  0  0  0  0
  185.7030  178.5250  139.4620 C   0  0  1  0  0  3  0  0  0  0  0  0
  183.2270  178.2070  138.8230 C   0  0  1  0  0  3  0  0  0  0  0  0
  187.3830  178.0680  141.7080 C   0  0  1  0  0  3  0  0  0  0  0  0
  184.9160  176.9520  137.6200 C   0  0  0  0  0  0  0  0  0  0  0  0
  186.9330  177.9110  136.6310 C   0  0  0  0  0  2  0  0  0  0  0  0
  183.5880  174.9130  137.6660 O   0  0  0  0  0  0  0  0  0  0  0  0
  186.7050  174.2050  136.7000 C   0  0  1  0  0  3  0  0  0  0  0  0
  187.7580  175.0490  135.9690 C   0  0  0  0  0  2  0  0  0  0  0  0
  186.3250  175.5030  136.0070 C   0  0  2  0  0  0  0  0  0  0  0  0
  185.6950  175.3770  134.7620 O   0  0  0  0  0  1  0  0  0  0  0  0
  186.3880  173.0000  135.8790 C   0  0  0  0  0  3  0  0  0  0  0  0
  185.4450  172.1540  136.2730 C   0  0  0  0  0  3  0  0  0  0  0  0
  185.1030  170.9650  135.4860 C   0  0  0  0  0  0  0  0  0  0  0  0
  185.9550  170.4770  134.6990 O   0  0  0  0  0  0  0  0  0  0  0  0
  183.8210  170.3520  135.6020 N   0  0  0  0  0  1  0  0  0  0  0  0
  182.3150  179.1670  138.0590 C   0  0  1  0  0  3  0  0  0  0  0  0
  181.7610  178.4960  136.8130 C   0  0  0  0  0  1  0  0  0  0  0  0
  181.2240  179.6350  138.9100 N   0  0  0  0  0  2  0  0  0  0  0  0
  180.1280  185.1470  136.3210 C   0  0  0  0  0  2  0  0  0  0  0  0
  180.6250  180.9280  138.8040 C   0  0  0  0  0  0  0  0  0  0  0  0
  179.5980  185.7890  137.6010 C   0  0  0  0  0  2  0  0  0  0  0  0
  178.9320  184.7860  138.4320 N   0  0  0  0  0  2  0  0  0  0  0  0
  181.0720  181.8030  137.8080 C   0  0  0  0  0  3  0  0  0  0  0  0
  179.5890  181.3260  139.6650 C   0  0  0  0  0  3  0  0  0  0  0  0
  180.4940  183.0670  137.6760 C   0  0  0  0  0  0  0  0  0  0  0  0
  179.4800  183.4720  138.5560 C   0  0  0  0  0  0  0  0  0  0  0  0
  180.9170  183.9590  136.6410 N   0  0  0  0  0  2  0  0  0  0  0  0
  179.0190  182.5970  139.5420 C   0  0  0  0  0  3  0  0  0  0  0  0
  188.1500  178.6610  142.7130 O   0  0  0  0  0  0  0  0  0  0  0  0
  189.0600  177.4070  143.4050 P   0  0  2  0  0  0  0  0  0  0  0  0
  190.4780  177.4500  142.8790 O   0  0  0  0  0  0  0  0  0  0  0  0
  188.3590  175.9260  142.9860 O   0  0  0  0  0  1  0  0  0  0  0  0
  186.5590  177.9510  145.2990 C   0  0  0  0  0  1  0  0  0  0  0  0
  187.9940  177.8830  147.1860 O   0  0  0  0  0  0  0  0  0  0  0  0
  187.8990  177.7980  145.9350 C   0  0  0  0  0  0  0  0  0  0  0  0
  189.0760  177.5650  145.1560 N   0  0  0  0  0  2  0  0  0  0  0  0
  1 12  1  0  0  0  0
  3 13  2  0  0  0  0
  4  1  1  0  0  0  0
  5  2  1  6  0  0  0
  5 10  1  0  0  0  0
  5  7  1  0  0  0  0
  6 11  1  0  0  0  0
  7 12  1  0  0  0  0
  8 13  1  1  0  0  0
  8 11  1  0  0  0  0
  8 10  1  0  0  0  0
  9  6  1  0  0  0  0
 10  4  1  1  0  0  0
 11 25  1  6  0  0  0
 12 38  1  1  0  0  0
 13  9  1  0  0  0  0
 14  3  1  0  0  0  0
 14  2  1  0  0  0  0
 15  9  2  0  0  0  0
 16 20  1  6  0  0  0
 17 18  1  0  0  0  0
 17 16  1  0  0  0  0
 18 19  1  6  0  0  0
 18 16  1  0  0  0  0
 18  3  1  0  0  0  0
 20 21  2  0  0  0  0
 22 24  1  0  0  0  0
 22 21  1  0  0  0  0
 23 22  2  0  0  0  0
 25 26  1  6  0  0  0
 25 27  1  0  0  0  0
 28 36  1  0  0  0  0
 28 30  1  0  0  0  0
 29 27  1  0  0  0  0
 29 33  1  0  0  0  0
 30 31  1  0  0  0  0
 31 35  1  0  0  0  0
 32 29  2  0  0  0  0
 34 32  1  0  0  0  0
 34 35  2  0  0  0  0
 35 37  1  0  0  0  0
 36 34  1  0  0  0  0
 37 33  2  0  0  0  0
 38 39  1  0  0  0  0
 39 40  2  6  0  0  0
 39 45  1  0  0  0  0
 41 39  1  0  0  0  0
 42 44  1  0  0  0  0
 44 43  2  0  0  0  0
 45 44  1  0  0  0  0
M  END
>  <MODEL>
2

>  <REMARK>
 VINA RESULT:      -6.5      4.870      7.061
  Name = 
  9 active torsions:
  status: ('A' for Active; 'I' for Inactive)
    1  A    between atoms: C_2  and  C_3
    2  A    between atoms: C_7  and  N_30
    3  A    between atoms: C_9  and  N_30
    4  A    between atoms: C_9  and  C_33
    5  A    between atoms: P_10  and  N_41
    6  A    between atoms: P_10  and  O_43
    7  A    between atoms: C_11  and  C_13
    8  A    between atoms: C_15  and  C_26
    9  A    between atoms: C_34  and  O_43
                            x       y       z     vdW  Elec       q    Type
                         _______ _______ _______ _____ _____    ______ ____

>  <TORSDO>
F 9

$$$$
=
 OpenBabel10222418133D

 45 50  0  0  1  0  0  0  0  0999 V2000
  188.0140  178.1770  137.4580 C   0  0  0  0  0  2  0  0  0  0  0  0
  189.5020  174.2750  136.8110 C   0  0  0  0  0  2  0  0  0  0  0  0
  191.9140  174.6690  137.5910 C   0  0  0  0  0  0  0  0  0  0  0  0
  189.2890  177.8860  137.9740 O   0  0  0  0  0  0  0  0  0  0  0  0
  189.3850  175.8010  136.7660 C   0  0  1  0  0  3  0  0  0  0  0  0
  192.1890  177.6380  139.7200 O   0  0  0  0  0  0  0  0  0  0  0  0
  188.1390  176.1850  135.9740 C   0  0  0  0  0  2  0  0  0  0  0  0
  190.5070  176.0910  139.0970 C   0  0  2  0  0  3  0  0  0  0  0  0
  192.7240  176.8310  138.7370 C   0  0  0  0  0  0  0  0  0  0  0  0
  189.3430  176.4880  138.1550 C   0  0  1  0  0  3  0  0  0  0  0  0
  190.8800  177.2190  140.0890 C   0  0  1  0  0  3  0  0  0  0  0  0
  187.9250  177.6950  136.0080 C   0  0  1  0  0  3  0  0  0  0  0  0
  191.7820  175.7840  138.3560 C   0  0  0  0  0  0  0  0  0  0  0  0
  190.7320  173.7300  137.5540 C   0  0  0  0  0  2  0  0  0  0  0  0
  193.8620  177.0420  138.2460 O   0  0  0  0  0  0  0  0  0  0  0  0
  193.6430  174.9530  135.6180 C   0  0  1  0  0  3  0  0  0  0  0  0
  192.9490  173.5920  135.4760 C   0  0  0  0  0  2  0  0  0  0  0  0
  193.1460  174.1970  136.8390 C   0  0  2  0  0  0  0  0  0  0  0  0
  194.1200  173.5190  137.5840 O   0  0  0  0  0  1  0  0  0  0  0  0
  195.1080  174.7820  135.3910 C   0  0  0  0  0  3  0  0  0  0  0  0
  195.9700  175.6370  135.9260 C   0  0  0  0  0  3  0  0  0  0  0  0
  197.4160  175.4940  135.7290 C   0  0  0  0  0  0  0  0  0  0  0  0
  197.9160  175.7490  134.6030 O   0  0  0  0  0  0  0  0  0  0  0  0
  198.2630  175.0700  136.7950 N   0  0  0  0  0  1  0  0  0  0  0  0
  190.8730  176.7360  141.5400 C   0  0  1  0  0  3  0  0  0  0  0  0
  191.3440  177.8420  142.4700 C   0  0  0  0  0  1  0  0  0  0  0  0
  189.5420  176.2790  141.9290 N   0  0  0  0  0  2  0  0  0  0  0  0
  184.6840  178.6060  144.9730 C   0  0  0  0  0  2  0  0  0  0  0  0
  188.8310  176.7650  143.0690 C   0  0  0  0  0  0  0  0  0  0  0  0
  185.5040  179.1220  146.1530 C   0  0  0  0  0  2  0  0  0  0  0  0
  186.6630  178.2590  146.3790 N   0  0  0  0  0  2  0  0  0  0  0  0
  187.5720  177.3460  142.8850 C   0  0  0  0  0  3  0  0  0  0  0  0
  189.3630  176.6530  144.3640 C   0  0  0  0  0  3  0  0  0  0  0  0
  186.8510  177.8180  143.9850 C   0  0  0  0  0  0  0  0  0  0  0  0
  187.3980  177.7310  145.2730 C   0  0  0  0  0  0  0  0  0  0  0  0
  185.5480  178.3830  143.8160 N   0  0  0  0  0  2  0  0  0  0  0  0
  188.6480  177.1370  145.4640 C   0  0  0  0  0  3  0  0  0  0  0  0
  186.6660  177.9970  135.4840 O   0  0  0  0  0  0  0  0  0  0  0  0
  185.5460  177.5540  136.6790 P   0  0  2  0  0  0  0  0  0  0  0  0
  185.8410  176.1520  137.1660 O   0  0  0  0  0  1  0  0  0  0  0  0
  183.9910  177.5920  136.0150 O   0  0  0  0  0  0  0  0  0  0  0  0
  183.5770  177.6800  139.1790 C   0  0  0  0  0  1  0  0  0  0  0  0
  184.8390  179.4840  140.0600 O   0  0  0  0  0  0  0  0  0  0  0  0
  184.7040  178.6550  139.1240 C   0  0  0  0  0  0  0  0  0  0  0  0
  185.6250  178.6760  138.0300 N   0  0  0  0  0  2  0  0  0  0  0  0
  1  4  1  0  0  0  0
  2 14  1  0  0  0  0
  3 13  2  0  0  0  0
  5  7  1  1  0  0  0
  5  2  1  0  0  0  0
  5 10  1  0  0  0  0
  6 11  1  0  0  0  0
  7 12  1  0  0  0  0
  8 13  1  6  0  0  0
  8 11  1  0  0  0  0
  9  6  1  0  0  0  0
 10  4  1  6  0  0  0
 10  8  1  0  0  0  0
 11 25  1  1  0  0  0
 12 38  1  1  0  0  0
 12  1  1  0  0  0  0
 13  9  1  0  0  0  0
 14  3  1  0  0  0  0
 15  9  2  0  0  0  0
 16 20  1  1  0  0  0
 16 18  1  0  0  0  0
 17 16  1  0  0  0  0
 17 18  1  0  0  0  0
 18 19  1  1  0  0  0
 18  3  1  0  0  0  0
 20 21  2  0  0  0  0
 22 21  1  0  0  0  0
 22 24  1  0  0  0  0
 23 22  2  0  0  0  0
 25 27  1  0  0  0  0
 25 26  1  1  0  0  0
 27 29  1  0  0  0  0
 28 30  1  0  0  0  0
 29 33  1  0  0  0  0
 30 31  1  0  0  0  0
 32 29  2  0  0  0  0
 32 34  1  0  0  0  0
 33 37  2  0  0  0  0
 34 35  2  0  0  0  0
 35 37  1  0  0  0  0
 35 31  1  0  0  0  0
 36 34  1  0  0  0  0
 36 28  1  0  0  0  0
 38 39  1  0  0  0  0
 39 41  2  6  0  0  0
 39 40  1  0  0  0  0
 39 45  1  0  0  0  0
 44 42  1  0  0  0  0
 44 43  2  0  0  0  0
 45 44  1  0  0  0  0
M  END
>  <MODEL>
3

>  <REMARK>
 VINA RESULT:      -6.4      2.701      5.587
  Name = 
  9 active torsions:
  status: ('A' for Active; 'I' for Inactive)
    1  A    between atoms: C_2  and  C_3
    2  A    between atoms: C_7  and  N_30
    3  A    between atoms: C_9  and  N_30
    4  A    between atoms: C_9  and  C_33
    5  A    between atoms: P_10  and  N_41
    6  A    between atoms: P_10  and  O_43
    7  A    between atoms: C_11  and  C_13
    8  A    between atoms: C_15  and  C_26
    9  A    between atoms: C_34  and  O_43
                            x       y       z     vdW  Elec       q    Type
                         _______ _______ _______ _____ _____    ______ ____

>  <TORSDO>
F 9

$$$$
=
 OpenBabel10222418133D

 45 50  0  0  1  0  0  0  0  0999 V2000
  188.9090  174.2030  136.6570 C   0  0  0  0  0  2  0  0  0  0  0  0
  187.3460  177.9670  137.7720 C   0  0  0  0  0  2  0  0  0  0  0  0
  188.5000  178.1830  140.0520 C   0  0  0  0  0  0  0  0  0  0  0  0
  189.4730  174.8190  137.7880 O   0  0  0  0  0  0  0  0  0  0  0  0
  187.7320  176.4870  137.8400 C   0  0  1  0  0  3  0  0  0  0  0  0
  191.4180  175.9830  140.3150 O   0  0  0  0  0  0  0  0  0  0  0  0
  186.9380  175.7120  136.7930 C   0  0  0  0  0  2  0  0  0  0  0  0
  190.1670  177.0190  138.5900 C   0  0  2  0  0  3  0  0  0  0  0  0
  190.3180  176.5670  140.9070 C   0  0  0  0  0  0  0  0  0  0  0  0
  189.2450  176.2040  137.6500 C   0  0  1  0  0  3  0  0  0  0  0  0
  191.4830  176.2750  138.9230 C   0  0  1  0  0  3  0  0  0  0  0  0
  187.3830  174.2540  136.7520 C   0  0  1  0  0  3  0  0  0  0  0  0
  189.5340  177.3100  139.9250 C   0  0  0  0  0  0  0  0  0  0  0  0
  188.0450  178.8790  138.7920 C   0  0  0  0  0  2  0  0  0  0  0  0
  190.0550  176.4130  142.1260 O   0  0  0  0  0  0  0  0  0  0  0  0
  186.8410  177.6860  142.0430 C   0  0  1  0  0  3  0  0  0  0  0  0
  186.3260  178.9020  141.2610 C   0  0  0  0  0  2  0  0  0  0  0  0
  187.8030  178.6210  141.3280 C   0  0  2  0  0  0  0  0  0  0  0  0
  188.4820  179.5440  142.1340 O   0  0  0  0  0  1  0  0  0  0  0  0
  186.7450  177.9680  143.5050 C   0  0  0  0  0  3  0  0  0  0  0  0
  187.4390  177.2410  144.3720 C   0  0  0  0  0  3  0  0  0  0  0  0
  187.3730  177.4950  145.8140 C   0  0  0  0  0  0  0  0  0  0  0  0
  186.3290  177.9950  146.3070 O   0  0  0  0  0  0  0  0  0  0  0  0
  188.4740  177.1840  146.6650 N   0  0  0  0  0  1  0  0  0  0  0  0
  192.7180  177.1250  138.6230 C   0  0  1  0  0  3  0  0  0  0  0  0
  193.6410  177.1660  139.8300 C   0  0  0  0  0  1  0  0  0  0  0  0
  193.4310  176.6120  137.4570 N   0  0  0  0  0  2  0  0  0  0  0  0
  195.3680  170.7600  137.9860 C   0  0  0  0  0  2  0  0  0  0  0  0
  193.5040  175.2280  137.1090 C   0  0  0  0  0  0  0  0  0  0  0  0
  194.9860  170.3670  136.5610 C   0  0  0  0  0  2  0  0  0  0  0  0
  193.8160  171.1270  136.1230 N   0  0  0  0  0  2  0  0  0  0  0  0
  194.4510  174.4190  137.7450 C   0  0  0  0  0  3  0  0  0  0  0  0
  192.6350  174.6670  136.1580 C   0  0  0  0  0  3  0  0  0  0  0  0
  194.5340  173.0600  137.4310 C   0  0  0  0  0  0  0  0  0  0  0  0
  193.6850  172.5100  136.4610 C   0  0  0  0  0  0  0  0  0  0  0  0
  195.4740  172.2130  138.0980 N   0  0  0  0  0  2  0  0  0  0  0  0
  192.7270  173.3100  135.8340 C   0  0  0  0  0  3  0  0  0  0  0  0
  186.8170  173.6270  135.6400 O   0  0  0  0  0  0  0  0  0  0  0  0
  185.5270  172.7000  136.2350 P   0  0  2  0  0  0  0  0  0  0  0  0
  185.5980  172.6280  137.7440 O   0  0  0  0  0  1  0  0  0  0  0  0
  185.6370  171.1360  135.6010 O   0  0  0  0  0  0  0  0  0  0  0  0
  182.6130  171.5820  136.8680 C   0  0  0  0  0  1  0  0  0  0  0  0
  181.6720  173.4300  135.7170 O   0  0  0  0  0  0  0  0  0  0  0  0
  182.7240  172.8490  136.0900 C   0  0  0  0  0  0  0  0  0  0  0  0
  183.9940  173.4130  135.7510 N   0  0  0  0  0  2  0  0  0  0  0  0
  1 12  1  0  0  0  0
  1  4  1  0  0  0  0
  2  5  1  0  0  0  0
  2 14  1  0  0  0  0
  3 18  1  0  0  0  0
  5  7  1  6  0  0  0
  6  9  1  0  0  0  0
  8 11  1  0  0  0  0
  8 13  1  1  0  0  0
  9 15  2  0  0  0  0
 10  4  1  1  0  0  0
 10  5  1  0  0  0  0
 10  8  1  0  0  0  0
 11 25  1  1  0  0  0
 11  6  1  0  0  0  0
 12 38  1  6  0  0  0
 12  7  1  0  0  0  0
 13  3  2  0  0  0  0
 13  9  1  0  0  0  0
 14  3  1  0  0  0  0
 16 20  1  1  0  0  0
 17 18  1  0  0  0  0
 17 16  1  0  0  0  0
 18 16  1  0  0  0  0
 18 19  1  1  0  0  0
 20 21  2  0  0  0  0
 21 22  1  0  0  0  0
 22 23  2  0  0  0  0
 22 24  1  0  0  0  0
 25 26  1  1  0  0  0
 27 25  1  0  0  0  0
 28 36  1  0  0  0  0
 29 27  1  0  0  0  0
 29 32  1  0  0  0  0
 30 28  1  0  0  0  0
 31 35  1  0  0  0  0
 31 30  1  0  0  0  0
 33 29  2  0  0  0  0
 34 32  2  0  0  0  0
 34 36  1  0  0  0  0
 35 34  1  0  0  0  0
 37 33  1  0  0  0  0
 37 35  2  0  0  0  0
 38 39  1  0  0  0  0
 39 41  2  6  0  0  0
 39 40  1  0  0  0  0
 43 44  2  0  0  0  0
 44 42  1  0  0  0  0
 45 44  1  0  0  0  0
 45 39  1  0  0  0  0
M  END
>  <MODEL>
4

>  <REMARK>
 VINA RESULT:      -6.2      3.219      9.401
  Name = 
  9 active torsions:
  status: ('A' for Active; 'I' for Inactive)
    1  A    between atoms: C_2  and  C_3
    2  A    between atoms: C_7  and  N_30
    3  A    between atoms: C_9  and  N_30
    4  A    between atoms: C_9  and  C_33
    5  A    between atoms: P_10  and  N_41
    6  A    between atoms: P_10  and  O_43
    7  A    between atoms: C_11  and  C_13
    8  A    between atoms: C_15  and  C_26
    9  A    between atoms: C_34  and  O_43
                            x       y       z     vdW  Elec       q    Type
                         _______ _______ _______ _____ _____    ______ ____

>  <TORSDO>
F 9

$$$$
=
 OpenBabel10222418133D

 45 50  0  0  1  0  0  0  0  0999 V2000
  185.7120  176.6450  137.3370 C   0  0  0  0  0  2  0  0  0  0  0  0
  183.0860  178.6610  139.9640 C   0  0  0  0  0  2  0  0  0  0  0  0
  181.1710  179.0870  138.3120 C   0  0  0  0  0  0  0  0  0  0  0  0
  184.4040  176.8760  136.8790 O   0  0  0  0  0  0  0  0  0  0  0  0
  183.9360  178.3520  138.7280 C   0  0  1  0  0  3  0  0  0  0  0  0
  181.3360  176.8360  135.4250 O   0  0  0  0  0  0  0  0  0  0  0  0
  185.4100  178.3520  139.1200 C   0  0  0  0  0  2  0  0  0  0  0  0
  182.0930  176.8490  137.6700 C   0  0  2  0  0  3  0  0  0  0  0  0
  181.0660  178.0880  135.9370 C   0  0  0  0  0  0  0  0  0  0  0  0
  183.5920  177.0140  138.0240 C   0  0  1  0  0  3  0  0  0  0  0  0
  181.8720  175.9670  136.4170 C   0  0  1  0  0  3  0  0  0  0  0  0
  186.2800  177.9310  137.9400 C   0  0  1  0  0  3  0  0  0  0  0  0
  181.4180  178.1570  137.3510 C   0  0  0  0  0  0  0  0  0  0  0  0
  181.5700  178.7250  139.7220 C   0  0  0  0  0  2  0  0  0  0  0  0
  180.6130  179.0180  135.2230 O   0  0  0  0  0  0  0  0  0  0  0  0
  181.2360  181.7170  138.0990 C   0  0  1  0  0  3  0  0  0  0  0  0
  180.4210  181.3400  139.3430 C   0  0  0  0  0  2  0  0  0  0  0  0
  180.4520  180.4160  138.1570 C   0  0  2  0  0  0  0  0  0  0  0  0
  179.2330  180.3970  137.4670 O   0  0  0  0  0  1  0  0  0  0  0  0
  180.5180  182.7880  137.3490 C   0  0  0  0  0  3  0  0  0  0  0  0
  181.1980  183.7790  136.7860 C   0  0  0  0  0  3  0  0  0  0  0  0
  180.5250  184.8440  136.0360 C   0  0  0  0  0  0  0  0  0  0  0  0
  180.7710  184.9900  134.8110 O   0  0  0  0  0  0  0  0  0  0  0  0
  179.5940  185.7150  136.6750 N   0  0  0  0  0  1  0  0  0  0  0  0
  180.9010  174.8170  136.6860 C   0  0  1  0  0  3  0  0  0  0  0  0
  180.2590  174.3500  135.3900 C   0  0  0  0  0  1  0  0  0  0  0  0
  181.5820  173.7050  137.3430 N   0  0  0  0  0  2  0  0  0  0  0  0
  187.5970  172.2730  137.1120 C   0  0  0  0  0  2  0  0  0  0  0  0
  182.7490  173.0630  136.8250 C   0  0  0  0  0  0  0  0  0  0  0  0
  187.5660  171.8150  135.6560 C   0  0  0  0  0  2  0  0  0  0  0  0
  186.2610  171.2380  135.3340 N   0  0  0  0  0  2  0  0  0  0  0  0
  184.0010  173.4140  137.3400 C   0  0  0  0  0  3  0  0  0  0  0  0
  182.6580  172.0790  135.8270 C   0  0  0  0  0  3  0  0  0  0  0  0
  185.1550  172.7920  136.8590 C   0  0  0  0  0  0  0  0  0  0  0  0
  185.0640  171.8310  135.8430 C   0  0  0  0  0  0  0  0  0  0  0  0
  186.4390  173.1160  137.4010 N   0  0  0  0  0  2  0  0  0  0  0  0
  183.8150  171.4650  135.3360 C   0  0  0  0  0  3  0  0  0  0  0  0
  187.5870  177.7120  138.3810 O   0  0  0  0  0  0  0  0  0  0  0  0
  188.5980  178.3220  137.1630 P   0  0  2  0  0  0  0  0  0  0  0  0
  189.0450  179.7230  137.5180 O   0  0  0  0  0  1  0  0  0  0  0  0
  187.7370  178.3690  135.7080 O   0  0  0  0  0  0  0  0  0  0  0  0
  190.5580  177.3060  139.4580 C   0  0  0  0  0  1  0  0  0  0  0  0
  191.8090  176.1100  137.8370 O   0  0  0  0  0  0  0  0  0  0  0  0
  190.8280  176.8650  138.0600 C   0  0  0  0  0  0  0  0  0  0  0  0
  190.0050  177.2860  136.9680 N   0  0  0  0  0  2  0  0  0  0  0  0
  1 12  1  0  0  0  0
  3 14  1  0  0  0  0
  4  1  1  0  0  0  0
  5  7  1  1  0  0  0
  5  2  1  0  0  0  0
  6  9  1  0  0  0  0
  6 11  1  0  0  0  0
  8 13  1  6  0  0  0
  8 10  1  0  0  0  0
  9 13  1  0  0  0  0
 10  4  1  6  0  0  0
 10  5  1  0  0  0  0
 11 25  1  1  0  0  0
 11  8  1  0  0  0  0
 12 38  1  1  0  0  0
 12  7  1  0  0  0  0
 13  3  2  0  0  0  0
 14  2  1  0  0  0  0
 15  9  2  0  0  0  0
 16 20  1  6  0  0  0
 16 18  1  0  0  0  0
 16 17  1  0  0  0  0
 18 19  1  6  0  0  0
 18  3  1  0  0  0  0
 18 17  1  0  0  0  0
 21 20  2  0  0  0  0
 22 24  1  0  0  0  0
 22 21  1  0  0  0  0
 23 22  2  0  0  0  0
 25 26  1  6  0  0  0
 25 27  1  0  0  0  0
 28 36  1  0  0  0  0
 29 32  1  0  0  0  0
 29 27  1  0  0  0  0
 30 28  1  0  0  0  0
 31 30  1  0  0  0  0
 31 35  1  0  0  0  0
 33 29  2  0  0  0  0
 34 32  2  0  0  0  0
 34 36  1  0  0  0  0
 35 34  1  0  0  0  0
 37 33  1  0  0  0  0
 37 35  2  0  0  0  0
 39 41  2  6  0  0  0
 39 40  1  0  0  0  0
 39 38  1  0  0  0  0
 43 44  2  0  0  0  0
 44 42  1  0  0  0  0
 45 39  1  0  0  0  0
 45 44  1  0  0  0  0
M  END
>  <MODEL>
5

>  <REMARK>
 VINA RESULT:      -6.2      5.295     10.892
  Name = 
  9 active torsions:
  status: ('A' for Active; 'I' for Inactive)
    1  A    between atoms: C_2  and  C_3
    2  A    between atoms: C_7  and  N_30
    3  A    between atoms: C_9  and  N_30
    4  A    between atoms: C_9  and  C_33
    5  A    between atoms: P_10  and  N_41
    6  A    between atoms: P_10  and  O_43
    7  A    between atoms: C_11  and  C_13
    8  A    between atoms: C_15  and  C_26
    9  A    between atoms: C_34  and  O_43
                            x       y       z     vdW  Elec       q    Type
                         _______ _______ _______ _____ _____    ______ ____

>  <TORSDO>
F 9

$$$$
=
 OpenBabel10222418133D

 45 50  0  0  1  0  0  0  0  0999 V2000
  187.7680  174.2320  136.2390 C   0  0  0  0  0  2  0  0  0  0  0  0
  186.8420  178.0850  137.7070 C   0  0  0  0  0  2  0  0  0  0  0  0
  188.4370  178.1050  139.7150 C   0  0  0  0  0  0  0  0  0  0  0  0
  188.6020  174.7490  137.2460 O   0  0  0  0  0  0  0  0  0  0  0  0
  187.0830  176.5730  137.6720 C   0  0  1  0  0  3  0  0  0  0  0  0
  191.1130  175.6280  139.3550 O   0  0  0  0  0  0  0  0  0  0  0  0
  186.0250  175.9170  136.7900 C   0  0  0  0  0  2  0  0  0  0  0  0
  189.6590  176.8410  137.9320 C   0  0  2  0  0  3  0  0  0  0  0  0
  190.2140  176.2920  140.1640 C   0  0  0  0  0  0  0  0  0  0  0  0
  188.4920  176.1540  137.1800 C   0  0  1  0  0  3  0  0  0  0  0  0
  190.9320  175.9630  137.9840 C   0  0  1  0  0  3  0  0  0  0  0  0
  186.3030  174.4250  136.6360 C   0  0  1  0  0  3  0  0  0  0  0  0
  189.3330  177.1420  139.3710 C   0  0  0  0  0  0  0  0  0  0  0  0
  187.8160  178.8880  138.5840 C   0  0  0  0  0  2  0  0  0  0  0  0
  190.1810  176.1190  141.4080 O   0  0  0  0  0  0  0  0  0  0  0  0
  187.1430  177.7050  141.9810 C   0  0  1  0  0  3  0  0  0  0  0  0
  186.6320  179.0030  141.3400 C   0  0  0  0  0  2  0  0  0  0  0  0
  188.0510  178.5600  141.1120 C   0  0  2  0  0  0  0  0  0  0  0  0
  188.9740  179.3670  141.7910 O   0  0  0  0  0  1  0  0  0  0  0  0
  187.3610  177.9320  143.4390 C   0  0  0  0  0  3  0  0  0  0  0  0
  188.1670  177.1310  144.1250 C   0  0  0  0  0  3  0  0  0  0  0  0
  188.4090  177.3300  145.5580 C   0  0  0  0  0  0  0  0  0  0  0  0
  187.4580  177.6830  146.3030 O   0  0  0  0  0  0  0  0  0  0  0  0
  189.7040  177.1280  146.1180 N   0  0  0  0  0  1  0  0  0  0  0  0
  192.1640  176.7020  137.4590 C   0  0  1  0  0  3  0  0  0  0  0  0
  193.1990  176.8600  138.5610 C   0  0  0  0  0  1  0  0  0  0  0  0
  192.7420  176.0010  136.3160 N   0  0  0  0  0  2  0  0  0  0  0  0
  198.2630  173.2070  136.2780 C   0  0  0  0  0  2  0  0  0  0  0  0
  194.1460  175.8940  136.0700 C   0  0  0  0  0  0  0  0  0  0  0  0
  199.0640  174.5020  136.1690 C   0  0  0  0  0  2  0  0  0  0  0  0
  198.3070  175.5030  135.4180 N   0  0  0  0  0  2  0  0  0  0  0  0
  194.8350  174.7750  136.5510 C   0  0  0  0  0  3  0  0  0  0  0  0
  194.8370  176.8770  135.3430 C   0  0  0  0  0  3  0  0  0  0  0  0
  196.2050  174.6410  136.3130 C   0  0  0  0  0  0  0  0  0  0  0  0
  196.8970  175.6380  135.6130 C   0  0  0  0  0  0  0  0  0  0  0  0
  196.9150  173.4860  136.7690 N   0  0  0  0  0  2  0  0  0  0  0  0
  196.2120  176.7500  135.1160 C   0  0  0  0  0  3  0  0  0  0  0  0
  185.4700  173.8980  135.6480 O   0  0  0  0  0  0  0  0  0  0  0  0
  184.6210  172.6270  136.3860 P   0  0  2  0  0  0  0  0  0  0  0  0
  184.8840  172.6280  137.8750 O   0  0  0  0  0  1  0  0  0  0  0  0
  185.1510  171.1600  135.7310 O   0  0  0  0  0  0  0  0  0  0  0  0
  182.6900  174.8530  137.5930 C   0  0  0  0  0  1  0  0  0  0  0  0
  180.8750  173.9050  136.3960 O   0  0  0  0  0  0  0  0  0  0  0  0
  182.1020  173.8420  136.6680 C   0  0  0  0  0  0  0  0  0  0  0  0
  182.8960  172.8000  136.0930 N   0  0  0  0  0  2  0  0  0  0  0  0
  1 12  1  0  0  0  0
  1  4  1  0  0  0  0
  2 14  1  0  0  0  0
  3 18  1  0  0  0  0
  5  7  1  6  0  0  0
  5  2  1  0  0  0  0
  6  9  1  0  0  0  0
  8 11  1  0  0  0  0
  8 13  1  1  0  0  0
  9 15  2  0  0  0  0
 10  4  1  1  0  0  0
 10  5  1  0  0  0  0
 10  8  1  0  0  0  0
 11 25  1  1  0  0  0
 11  6  1  0  0  0  0
 12 38  1  6  0  0  0
 12  7  1  0  0  0  0
 13  3  2  0  0  0  0
 13  9  1  0  0  0  0
 14  3  1  0  0  0  0
 16 20  1  1  0  0  0
 17 16  1  0  0  0  0
 18 17  1  0  0  0  0
 18 19  1  1  0  0  0
 18 16  1  0  0  0  0
 20 21  2  0  0  0  0
 21 22  1  0  0  0  0
 22 24  1  0  0  0  0
 22 23  2  0  0  0  0
 25 26  1  1  0  0  0
 27 25  1  0  0  0  0
 28 36  1  0  0  0  0
 29 27  1  0  0  0  0
 29 32  1  0  0  0  0
 30 28  1  0  0  0  0
 31 35  1  0  0  0  0
 31 30  1  0  0  0  0
 33 29  2  0  0  0  0
 34 32  2  0  0  0  0
 34 36  1  0  0  0  0
 35 34  1  0  0  0  0
 37 33  1  0  0  0  0
 37 35  2  0  0  0  0
 38 39  1  0  0  0  0
 39 41  2  6  0  0  0
 39 40  1  0  0  0  0
 43 44  2  0  0  0  0
 44 42  1  0  0  0  0
 45 39  1  0  0  0  0
 45 44  1  0  0  0  0
M  END
>  <MODEL>
6

>  <REMARK>
 VINA RESULT:      -6.1      3.134      9.649
  Name = 
  9 active torsions:
  status: ('A' for Active; 'I' for Inactive)
    1  A    between atoms: C_2  and  C_3
    2  A    between atoms: C_7  and  N_30
    3  A    between atoms: C_9  and  N_30
    4  A    between atoms: C_9  and  C_33
    5  A    between atoms: P_10  and  N_41
    6  A    between atoms: P_10  and  O_43
    7  A    between atoms: C_11  and  C_13
    8  A    between atoms: C_15  and  C_26
    9  A    between atoms: C_34  and  O_43
                            x       y       z     vdW  Elec       q    Type
                         _______ _______ _______ _____ _____    ______ ____

>  <TORSDO>
F 9

$$$$
=
 OpenBabel10222418133D

 45 50  0  0  1  0  0  0  0  0999 V2000
  187.9300  178.2230  137.1030 C   0  0  0  0  0  2  0  0  0  0  0  0
  189.4450  174.3170  136.5550 C   0  0  0  0  0  2  0  0  0  0  0  0
  191.7730  174.6810  137.5670 C   0  0  0  0  0  0  0  0  0  0  0  0
  189.1470  177.9160  137.7350 O   0  0  0  0  0  0  0  0  0  0  0  0
  189.3440  175.8440  136.5170 C   0  0  1  0  0  3  0  0  0  0  0  0
  191.8650  177.6240  139.7490 O   0  0  0  0  0  0  0  0  0  0  0  0
  188.1830  176.2470  135.6140 C   0  0  0  0  0  2  0  0  0  0  0  0
  190.2390  176.0990  138.9480 C   0  0  2  0  0  3  0  0  0  0  0  0
  192.4860  176.8240  138.8120 C   0  0  0  0  0  0  0  0  0  0  0  0
  189.1730  176.5160  137.9040 C   0  0  1  0  0  3  0  0  0  0  0  0
  190.5230  177.2120  139.9850 C   0  0  1  0  0  3  0  0  0  0  0  0
  187.9770  177.7590  135.6460 C   0  0  1  0  0  3  0  0  0  0  0  0
  191.5770  175.7890  138.3300 C   0  0  0  0  0  0  0  0  0  0  0  0
  190.5940  173.7530  137.4060 C   0  0  0  0  0  2  0  0  0  0  0  0
  193.6670  177.0300  138.4350 O   0  0  0  0  0  0  0  0  0  0  0  0
  193.5500  174.8070  135.6200 C   0  0  1  0  0  3  0  0  0  0  0  0
  192.9750  173.3850  135.6750 C   0  0  0  0  0  2  0  0  0  0  0  0
  193.0690  174.2070  136.9310 C   0  0  2  0  0  0  0  0  0  0  0  0
  194.0640  173.7390  137.7990 O   0  0  0  0  0  1  0  0  0  0  0  0
  195.0320  174.7300  135.4620 C   0  0  0  0  0  3  0  0  0  0  0  0
  195.8100  175.6560  136.0070 C   0  0  0  0  0  3  0  0  0  0  0  0
  197.2700  175.6070  135.8770 C   0  0  0  0  0  0  0  0  0  0  0  0
  197.9850  175.6280  136.9120 O   0  0  0  0  0  0  0  0  0  0  0  0
  197.8900  175.5330  134.5950 N   0  0  0  0  0  1  0  0  0  0  0  0
  190.3740  176.7130  141.4220 C   0  0  1  0  0  3  0  0  0  0  0  0
  191.1630  177.5950  142.3760 C   0  0  0  0  0  1  0  0  0  0  0  0
  188.9680  176.6730  141.8150 N   0  0  0  0  0  2  0  0  0  0  0  0
  189.4180  177.7280  147.8950 C   0  0  0  0  0  2  0  0  0  0  0  0
  188.4890  177.0260  143.1140 C   0  0  0  0  0  0  0  0  0  0  0  0
  187.9230  177.5760  148.1650 C   0  0  0  0  0  2  0  0  0  0  0  0
  187.1520  178.0160  147.0030 N   0  0  0  0  0  2  0  0  0  0  0  0
  189.3390  176.8710  144.2140 C   0  0  0  0  0  3  0  0  0  0  0  0
  187.1950  177.5390  143.3010 C   0  0  0  0  0  3  0  0  0  0  0  0
  188.8990  177.2210  145.4930 C   0  0  0  0  0  0  0  0  0  0  0  0
  187.5970  177.7050  145.6800 C   0  0  0  0  0  0  0  0  0  0  0  0
  189.7680  177.1000  146.6230 N   0  0  0  0  0  2  0  0  0  0  0  0
  186.7490  177.8770  144.5830 C   0  0  0  0  0  3  0  0  0  0  0  0
  186.7770  178.0770  135.0070 O   0  0  0  0  0  0  0  0  0  0  0  0
  185.5740  177.1870  135.8070 P   0  0  2  0  0  0  0  0  0  0  0  0
  184.2240  177.4720  135.1860 O   0  0  0  0  0  0  0  0  0  0  0  0
  185.5420  177.6460  137.4340 O   0  0  0  0  0  1  0  0  0  0  0  0
  183.8770  174.8110  137.0770 C   0  0  0  0  0  1  0  0  0  0  0  0
  185.4040  173.2480  136.1550 O   0  0  0  0  0  0  0  0  0  0  0  0
  185.0940  174.4600  136.2910 C   0  0  0  0  0  0  0  0  0  0  0  0
  185.9200  175.4670  135.6990 N   0  0  0  0  0  2  0  0  0  0  0  0
  1  4  1  0  0  0  0
  2 14  1  0  0  0  0
  3 13  2  0  0  0  0
  5  7  1  6  0  0  0
  5  2  1  0  0  0  0
  5 10  1  0  0  0  0
  6 11  1  0  0  0  0
  7 12  1  0  0  0  0
  8 13  1  6  0  0  0
  8 11  1  0  0  0  0
  9  6  1  0  0  0  0
 10  4  1  6  0  0  0
 10  8  1  0  0  0  0
 11 25  1  1  0  0  0
 12 38  1  1  0  0  0
 12  1  1  0  0  0  0
 13  9  1  0  0  0  0
 14  3  1  0  0  0  0
 15  9  2  0  0  0  0
 16 20  1  1  0  0  0
 16 17  1  0  0  0  0
 16 18  1  0  0  0  0
 17 18  1  0  0  0  0
 18  3  1  0  0  0  0
 18 19  1  1  0  0  0
 20 21  2  0  0  0  0
 22 21  1  0  0  0  0
 22 23  2  0  0  0  0
 24 22  1  0  0  0  0
 25 27  1  0  0  0  0
 25 26  1  1  0  0  0
 27 29  1  0  0  0  0
 28 30  1  0  0  0  0
 29 33  2  0  0  0  0
 29 32  1  0  0  0  0
 31 30  1  0  0  0  0
 32 34  2  0  0  0  0
 33 37  1  0  0  0  0
 34 35  1  0  0  0  0
 34 36  1  0  0  0  0
 35 31  1  0  0  0  0
 36 28  1  0  0  0  0
 37 35  2  0  0  0  0
 38 39  1  0  0  0  0
 39 40  2  6  0  0  0
 39 41  1  0  0  0  0
 43 44  2  0  0  0  0
 44 42  1  0  0  0  0
 45 39  1  0  0  0  0
 45 44  1  0  0  0  0
M  END
>  <MODEL>
7

>  <REMARK>
 VINA RESULT:      -6.1      3.124      6.301
  Name = 
  9 active torsions:
  status: ('A' for Active; 'I' for Inactive)
    1  A    between atoms: C_2  and  C_3
    2  A    between atoms: C_7  and  N_30
    3  A    between atoms: C_9  and  N_30
    4  A    between atoms: C_9  and  C_33
    5  A    between atoms: P_10  and  N_41
    6  A    between atoms: P_10  and  O_43
    7  A    between atoms: C_11  and  C_13
    8  A    between atoms: C_15  and  C_26
    9  A    between atoms: C_34  and  O_43
                            x       y       z     vdW  Elec       q    Type
                         _______ _______ _______ _____ _____    ______ ____

>  <TORSDO>
F 9

$$$$
=
 OpenBabel10222418133D

 45 50  0  0  1  0  0  0  0  0999 V2000
  188.0000  178.1690  140.7960 C   0  0  0  0  0  2  0  0  0  0  0  0
  190.8920  177.0590  137.9230 C   0  0  0  0  0  2  0  0  0  0  0  0
  189.5110  175.2940  136.6750 C   0  0  0  0  0  0  0  0  0  0  0  0
  187.5680  177.3490  139.7390 O   0  0  0  0  0  0  0  0  0  0  0  0
  189.8350  176.9460  139.0250 C   0  0  1  0  0  3  0  0  0  0  0  0
  185.9190  175.7070  137.2670 O   0  0  0  0  0  0  0  0  0  0  0  0
  190.3680  177.5970  140.2980 C   0  0  0  0  0  2  0  0  0  0  0  0
  187.8620  177.0610  137.3320 C   0  0  2  0  0  3  0  0  0  0  0  0
  187.0010  174.8710  137.0860 C   0  0  0  0  0  0  0  0  0  0  0  0
  188.4600  177.5660  138.6680 C   0  0  1  0  0  3  0  0  0  0  0  0
  186.3150  177.0730  137.3300 C   0  0  1  0  0  3  0  0  0  0  0  0
  189.2960  177.6090  141.3840 C   0  0  1  0  0  3  0  0  0  0  0  0
  188.2420  175.6370  137.0200 C   0  0  0  0  0  0  0  0  0  0  0  0
  190.5130  176.4190  136.5780 C   0  0  0  0  0  2  0  0  0  0  0  0
  186.8780  173.6220  137.0310 O   0  0  0  0  0  0  0  0  0  0  0  0
  191.1820  173.7860  135.2970 C   0  0  1  0  0  3  0  0  0  0  0  0
  189.7450  173.4400  134.8820 C   0  0  0  0  0  2  0  0  0  0  0  0
  190.0300  173.9230  136.2780 C   0  0  2  0  0  0  0  0  0  0  0  0
  189.9030  172.9010  137.2290 O   0  0  0  0  0  1  0  0  0  0  0  0
  191.9540  172.5240  135.4870 C   0  0  0  0  0  3  0  0  0  0  0  0
  193.1670  172.5590  136.0240 C   0  0  0  0  0  3  0  0  0  0  0  0
  193.9500  171.3360  136.2310 C   0  0  0  0  0  0  0  0  0  0  0  0
  193.3810  170.2170  136.1610 O   0  0  0  0  0  0  0  0  0  0  0  0
  195.3470  171.3990  136.5110 N   0  0  0  0  0  1  0  0  0  0  0  0
  185.7450  177.8400  136.1350 C   0  0  1  0  0  3  0  0  0  0  0  0
  186.7930  177.9730  135.0420 C   0  0  0  0  0  1  0  0  0  0  0  0
  184.5510  177.1790  135.6160 N   0  0  0  0  0  2  0  0  0  0  0  0
  179.9760  179.0550  139.3350 C   0  0  0  0  0  2  0  0  0  0  0  0
  183.3290  177.0490  136.3440 C   0  0  0  0  0  0  0  0  0  0  0  0
  179.5090  177.6450  139.6880 C   0  0  0  0  0  2  0  0  0  0  0  0
  179.7420  176.7380  138.5650 N   0  0  0  0  0  2  0  0  0  0  0  0
  182.9530  178.0680  137.2250 C   0  0  0  0  0  3  0  0  0  0  0  0
  182.4950  175.9310  136.1760 C   0  0  0  0  0  3  0  0  0  0  0  0
  181.7560  177.9690  137.9390 C   0  0  0  0  0  0  0  0  0  0  0  0
  180.9410  176.8390  137.7920 C   0  0  0  0  0  0  0  0  0  0  0  0
  181.3420  179.0190  138.8180 N   0  0  0  0  0  2  0  0  0  0  0  0
  181.3030  175.8260  136.9010 C   0  0  0  0  0  3  0  0  0  0  0  0
  189.7210  178.4090  142.4460 O   0  0  0  0  0  0  0  0  0  0  0  0
  190.3560  177.3450  143.6050 P   0  0  2  0  0  0  0  0  0  0  0  0
  191.8630  177.4720  143.6500 O   0  0  0  0  0  1  0  0  0  0  0  0
  189.9480  175.7600  143.1770 O   0  0  0  0  0  0  0  0  0  0  0  0
  187.2900  177.2340  144.4570 C   0  0  0  0  0  1  0  0  0  0  0  0
  187.8950  177.8780  146.6580 O   0  0  0  0  0  0  0  0  0  0  0  0
  188.2920  177.6180  145.4930 C   0  0  0  0  0  0  0  0  0  0  0  0
  189.6870  177.7050  145.1900 N   0  0  0  0  0  2  0  0  0  0  0  0
  1 12  1  0  0  0  0
  3 13  2  0  0  0  0
  4  1  1  0  0  0  0
  5  2  1  6  0  0  0
  5  7  1  0  0  0  0
  6 11  1  0  0  0  0
  7 12  1  0  0  0  0
  8 13  1  1  0  0  0
  8 10  1  0  0  0  0
  9  6  1  0  0  0  0
 10  5  1  0  0  0  0
 10  4  1  1  0  0  0
 11 25  1  6  0  0  0
 11  8  1  0  0  0  0
 12 38  1  1  0  0  0
 13  9  1  0  0  0  0
 14  3  1  0  0  0  0
 14  2  1  0  0  0  0
 15  9  2  0  0  0  0
 16 20  1  1  0  0  0
 16 18  1  0  0  0  0
 17 16  1  0  0  0  0
 17 18  1  0  0  0  0
 18  3  1  0  0  0  0
 18 19  1  1  0  0  0
 20 21  2  0  0  0  0
 21 22  1  0  0  0  0
 22 24  1  0  0  0  0
 23 22  2  0  0  0  0
 25 26  1  6  0  0  0
 27 25  1  0  0  0  0
 27 29  1  0  0  0  0
 28 30  1  0  0  0  0
 29 32  1  0  0  0  0
 31 30  1  0  0  0  0
 32 34  2  0  0  0  0
 33 29  2  0  0  0  0
 33 37  1  0  0  0  0
 34 36  1  0  0  0  0
 35 34  1  0  0  0  0
 35 31  1  0  0  0  0
 36 28  1  0  0  0  0
 37 35  2  0  0  0  0
 38 39  1  0  0  0  0
 39 41  2  6  0  0  0
 39 40  1  0  0  0  0
 39 45  1  0  0  0  0
 42 44  1  0  0  0  0
 44 43  2  0  0  0  0
 45 44  1  0  0  0  0
M  END
>  <MODEL>
8

>  <REMARK>
 VINA RESULT:      -6.0      2.221      2.997
  Name = 
  9 active torsions:
  status: ('A' for Active; 'I' for Inactive)
    1  A    between atoms: C_2  and  C_3
    2  A    between atoms: C_7  and  N_30
    3  A    between atoms: C_9  and  N_30
    4  A    between atoms: C_9  and  C_33
    5  A    between atoms: P_10  and  N_41
    6  A    between atoms: P_10  and  O_43
    7  A    between atoms: C_11  and  C_13
    8  A    between atoms: C_15  and  C_26
    9  A    between atoms: C_34  and  O_43
                            x       y       z     vdW  Elec       q    Type
                         _______ _______ _______ _____ _____    ______ ____

>  <TORSDO>
F 9

$$$$
=
 OpenBabel10222418133D

 45 50  0  0  1  0  0  0  0  0999 V2000
  188.0290  178.3110  137.1370 C   0  0  0  0  0  2  0  0  0  0  0  0
  189.3990  174.3510  136.5960 C   0  0  0  0  0  2  0  0  0  0  0  0
  191.7450  174.6350  137.5950 C   0  0  0  0  0  0  0  0  0  0  0  0
  189.2380  177.9630  137.7640 O   0  0  0  0  0  0  0  0  0  0  0  0
  189.3530  175.8810  136.5530 C   0  0  1  0  0  3  0  0  0  0  0  0
  191.9550  177.5800  139.7630 O   0  0  0  0  0  0  0  0  0  0  0  0
  188.2020  176.3220  135.6550 C   0  0  0  0  0  2  0  0  0  0  0  0
  190.2700  176.1120  138.9780 C   0  0  2  0  0  3  0  0  0  0  0  0
  192.5410  176.7550  138.8260 C   0  0  0  0  0  0  0  0  0  0  0  0
  189.2150  176.5630  137.9380 C   0  0  1  0  0  3  0  0  0  0  0  0
  190.6000  177.2180  140.0090 C   0  0  1  0  0  3  0  0  0  0  0  0
  188.0510  177.8400  135.6820 C   0  0  1  0  0  3  0  0  0  0  0  0
  191.5920  175.7520  138.3540 C   0  0  0  0  0  0  0  0  0  0  0  0
  190.5320  173.7490  137.4430 C   0  0  0  0  0  2  0  0  0  0  0  0
  193.7260  176.9170  138.4420 O   0  0  0  0  0  0  0  0  0  0  0  0
  193.5150  174.6900  135.6380 C   0  0  1  0  0  3  0  0  0  0  0  0
  192.8880  173.2910  135.6990 C   0  0  0  0  0  2  0  0  0  0  0  0
  193.0180  174.1120  136.9530 C   0  0  2  0  0  0  0  0  0  0  0  0
  194.0000  173.6090  137.8170 O   0  0  0  0  0  1  0  0  0  0  0  0
  194.9920  174.5580  135.4720 C   0  0  0  0  0  3  0  0  0  0  0  0
  195.7910  175.5700  135.7860 C   0  0  0  0  0  3  0  0  0  0  0  0
  197.2470  175.4710  135.6420 C   0  0  0  0  0  0  0  0  0  0  0  0
  197.8000  175.9330  134.6110 O   0  0  0  0  0  0  0  0  0  0  0  0
  198.0450  174.8610  136.6540 N   0  0  0  0  0  1  0  0  0  0  0  0
  190.4410  176.7300  141.4490 C   0  0  1  0  0  3  0  0  0  0  0  0
  191.1800  177.6510  142.4070 C   0  0  0  0  0  1  0  0  0  0  0  0
  189.0300  176.6430  141.8150 N   0  0  0  0  0  2  0  0  0  0  0  0
  184.7410  178.6030  145.8210 C   0  0  0  0  0  2  0  0  0  0  0  0
  188.5130  177.0000  143.0990 C   0  0  0  0  0  0  0  0  0  0  0  0
  185.7430  178.9940  146.9050 C   0  0  0  0  0  2  0  0  0  0  0  0
  186.9130  178.1180  146.8510 N   0  0  0  0  0  2  0  0  0  0  0  0
  187.2480  177.5900  143.1800 C   0  0  0  0  0  3  0  0  0  0  0  0
  189.2420  176.7530  144.2740 C   0  0  0  0  0  3  0  0  0  0  0  0
  186.7160  177.9370  144.4240 C   0  0  0  0  0  0  0  0  0  0  0  0
  187.4580  177.7150  145.5920 C   0  0  0  0  0  0  0  0  0  0  0  0
  185.4090  178.5100  144.5250 N   0  0  0  0  0  2  0  0  0  0  0  0
  188.7150  177.1120  145.5190 C   0  0  0  0  0  3  0  0  0  0  0  0
  186.8600  178.1990  135.0480 O   0  0  0  0  0  0  0  0  0  0  0  0
  185.6840  177.1190  135.6220 P   0  0  2  0  0  0  0  0  0  0  0  0
  184.3200  177.5190  135.1040 O   0  0  0  0  0  0  0  0  0  0  0  0
  185.6700  177.1710  137.3130 O   0  0  0  0  0  1  0  0  0  0  0  0
  184.3540  174.4230  136.6740 C   0  0  0  0  0  1  0  0  0  0  0  0
  185.7130  173.1870  135.1750 O   0  0  0  0  0  0  0  0  0  0  0  0
  185.3990  174.3220  135.6160 C   0  0  0  0  0  0  0  0  0  0  0  0
  186.0560  175.4830  135.0970 N   0  0  0  0  0  2  0  0  0  0  0  0
  1  4  1  0  0  0  0
  2 14  1  0  0  0  0
  3 13  2  0  0  0  0
  5  7  1  6  0  0  0
  5  2  1  0  0  0  0
  5 10  1  0  0  0  0
  6 11  1  0  0  0  0
  7 12  1  0  0  0  0
  8 13  1  6  0  0  0
  8 11  1  0  0  0  0
  9  6  1  0  0  0  0
 10  4  1  6  0  0  0
 10  8  1  0  0  0  0
 11 25  1  1  0  0  0
 12 38  1  1  0  0  0
 12  1  1  0  0  0  0
 13  9  1  0  0  0  0
 14  3  1  0  0  0  0
 15  9  2  0  0  0  0
 16 20  1  1  0  0  0
 16 17  1  0  0  0  0
 16 18  1  0  0  0  0
 17 18  1  0  0  0  0
 18  3  1  0  0  0  0
 18 19  1  1  0  0  0
 20 21  2  0  0  0  0
 22 21  1  0  0  0  0
 22 24  1  0  0  0  0
 23 22  2  0  0  0  0
 25 27  1  0  0  0  0
 25 26  1  1  0  0  0
 27 29  1  0  0  0  0
 28 30  1  0  0  0  0
 29 32  2  0  0  0  0
 29 33  1  0  0  0  0
 31 30  1  0  0  0  0
 32 34  1  0  0  0  0
 33 37  2  0  0  0  0
 34 36  1  0  0  0  0
 34 35  2  0  0  0  0
 35 31  1  0  0  0  0
 36 28  1  0  0  0  0
 37 35  1  0  0  0  0
 38 39  1  0  0  0  0
 39 40  2  6  0  0  0
 39 41  1  0  0  0  0
 43 44  2  0  0  0  0
 44 42  1  0  0  0  0
 45 44  1  0  0  0  0
 45 39  1  0  0  0  0
M  END
>  <MODEL>
9

>  <REMARK>
 VINA RESULT:      -6.0      3.145      6.184
  Name = 
  9 active torsions:
  status: ('A' for Active; 'I' for Inactive)
    1  A    between atoms: C_2  and  C_3
    2  A    between atoms: C_7  and  N_30
    3  A    between atoms: C_9  and  N_30
    4  A    between atoms: C_9  and  C_33
    5  A    between atoms: P_10  and  N_41
    6  A    between atoms: P_10  and  O_43
    7  A    between atoms: C_11  and  C_13
    8  A    between atoms: C_15  and  C_26
    9  A    between atoms: C_34  and  O_43
                            x       y       z     vdW  Elec       q    Type
                         _______ _______ _______ _____ _____    ______ ____

>  <TORSDO>
F 9

$$$$
