=
 OpenBabel10222420123D

 27 30  0  0  1  0  0  0  0  0999 V2000
  185.0870  178.3080  142.8800 C   0  0  1  0  0  3  0  0  0  0  0  0
  185.7200  178.9920  146.5900 C   0  0  0  0  0  3  0  0  0  0  0  0
  185.6610  178.2490  144.2790 C   0  0  0  0  0  0  0  0  0  0  0  0
  186.7740  178.1140  146.8560 C   0  0  0  0  0  0  0  0  0  0  0  0
  186.7170  177.3710  144.5440 C   0  0  0  0  0  3  0  0  0  0  0  0
  185.1650  179.0610  145.3100 C   0  0  0  0  0  3  0  0  0  0  0  0
  187.2710  177.3020  145.8230 C   0  0  0  0  0  3  0  0  0  0  0  0
  188.7070  178.0450  148.3990 C   0  0  0  0  0  1  0  0  0  0  0  0
  187.3080  178.0690  148.1470 O   0  0  0  0  0  0  0  0  0  0  0  0
  183.1390  179.3220  143.7830 C   0  0  0  0  0  1  0  0  0  0  0  0
  183.6150  178.3490  142.8090 N   0  0  0  0  0  0  0  0  0  0  0  0
  182.9180  177.5280  140.6170 C   0  0  0  0  0  2  0  0  0  0  0  0
  181.0560  179.0310  140.2790 N   0  0  0  0  0  1  0  0  0  0  0  0
  181.7320  178.2060  141.2630 C   0  0  2  0  0  3  0  0  0  0  0  0
  183.1330  178.7520  141.4880 C   0  0  1  0  0  3  0  0  0  0  0  0
  185.7170  179.3970  142.0080 C   0  0  0  0  0  2  0  0  0  0  0  0
  186.6500  178.3520  138.5420 N   0  0  0  0  0  0  0  0  0  0  0  0
  186.1200  178.7870  139.6870 N   0  0  0  0  0  0  0  0  0  0  0  0
  188.1090  177.4260  136.9110 N   0  0  0  0  0  1  0  0  0  0  0  0
  187.8340  178.3440  141.3860 C   0  0  0  0  0  3  0  0  0  0  0  0
  190.7290  176.8440  140.0260 C   0  0  0  0  0  3  0  0  0  0  0  0
  188.8210  177.7780  140.6190 C   0  0  0  0  0  0  0  0  0  0  0  0
  186.5960  178.8020  140.9600 C   0  0  0  0  0  0  0  0  0  0  0  0
  190.0140  176.9500  138.8860 N   0  0  0  0  0  0  0  0  0  0  0  0
  187.8490  177.7800  138.2660 C   0  0  0  0  0  0  0  0  0  0  0  0
  188.8370  177.5180  139.2060 C   0  0  0  0  0  0  0  0  0  0  0  0
  190.0290  177.3420  141.1140 C   0  0  0  0  0  3  0  0  0  0  0  0
  1 16  1  1  0  0  0
  1  3  1  0  0  0  0
  2  4  1  0  0  0  0
  3  5  2  0  0  0  0
  3  6  1  0  0  0  0
  4  9  1  0  0  0  0
  5  7  1  0  0  0  0
  6  2  2  0  0  0  0
  7  4  2  0  0  0  0
  9  8  1  0  0  0  0
 11  1  1  0  0  0  0
 11 10  1  0  0  0  0
 12 14  1  0  0  0  0
 12 15  1  0  0  0  0
 14 13  1  6  0  0  0
 14 15  1  0  0  0  0
 15 11  1  1  0  0  0
 17 18  1  0  0  0  0
 18 23  2  0  0  0  0
 19 25  1  0  0  0  0
 21 27  2  0  0  0  0
 22 27  1  0  0  0  0
 22 20  2  0  0  0  0
 23 20  1  0  0  0  0
 23 16  1  0  0  0  0
 24 26  2  0  0  0  0
 24 21  1  0  0  0  0
 25 17  2  0  0  0  0
 25 26  1  0  0  0  0
 26 22  1  0  0  0  0
M  END
>  <MODEL>
1

>  <REMARK>
 VINA RESULT:      -8.4      0.000      0.000
  Name = 
  6 active torsions:
  status: ('A' for Active; 'I' for Inactive)
    1  A    between atoms: C_6  and  C_12
    2  A    between atoms: C_6  and  C_21
    3  A    between atoms: C_7  and  C_12
    4  A    between atoms: C_12  and  N_16
    5  A    between atoms: C_13  and  O_23
    6  A    between atoms: N_16  and  C_20
                            x       y       z     vdW  Elec       q    Type
                         _______ _______ _______ _____ _____    ______ ____

>  <TORSDO>
F 6

$$$$
=
 OpenBabel10222420123D

 27 30  0  0  1  0  0  0  0  0999 V2000
  183.3630  178.3310  140.5080 C   0  0  1  0  0  3  0  0  0  0  0  0
  185.0380  178.4610  143.9450 C   0  0  0  0  0  3  0  0  0  0  0  0
  183.5900  178.4910  141.9960 C   0  0  0  0  0  0  0  0  0  0  0  0
  183.9550  178.7830  144.7670 C   0  0  0  0  0  0  0  0  0  0  0  0
  182.5060  178.8130  142.8180 C   0  0  0  0  0  3  0  0  0  0  0  0
  184.8600  178.3150  142.5670 C   0  0  0  0  0  3  0  0  0  0  0  0
  182.6840  178.9590  144.1950 C   0  0  0  0  0  3  0  0  0  0  0  0
  185.3610  178.4950  146.7820 C   0  0  0  0  0  1  0  0  0  0  0  0
  184.1660  178.9220  146.1420 O   0  0  0  0  0  0  0  0  0  0  0  0
  181.6630  179.5790  139.4160 C   0  0  0  0  0  1  0  0  0  0  0  0
  181.9490  178.3190  140.0890 N   0  0  0  0  0  0  0  0  0  0  0  0
  182.3320  175.9530  139.6240 C   0  0  0  0  0  2  0  0  0  0  0  0
  180.0990  175.3960  138.8870 N   0  0  0  0  0  1  0  0  0  0  0  0
  180.8550  176.1500  139.8700 C   0  0  2  0  0  3  0  0  0  0  0  0
  181.6550  177.2280  139.1590 C   0  0  1  0  0  3  0  0  0  0  0  0
  184.1890  179.2980  139.6580 C   0  0  0  0  0  2  0  0  0  0  0  0
  187.7340  178.2130  139.1770 N   0  0  0  0  0  0  0  0  0  0  0  0
  186.5490  178.7190  139.5240 N   0  0  0  0  0  0  0  0  0  0  0  0
  189.4740  177.0340  138.0700 N   0  0  0  0  0  1  0  0  0  0  0  0
  184.9750  177.8410  137.8590 C   0  0  0  0  0  3  0  0  0  0  0  0
  186.5490  175.7630  135.4740 C   0  0  0  0  0  3  0  0  0  0  0  0
  185.8150  177.0900  137.0760 C   0  0  0  0  0  0  0  0  0  0  0  0
  185.3110  178.5900  138.9770 C   0  0  0  0  0  0  0  0  0  0  0  0
  187.6380  176.0700  136.2120 N   0  0  0  0  0  0  0  0  0  0  0  0
  188.0990  177.3930  138.1590 C   0  0  0  0  0  0  0  0  0  0  0  0
  187.2310  176.8810  137.2040 C   0  0  0  0  0  0  0  0  0  0  0  0
  185.4090  176.3720  135.9750 C   0  0  0  0  0  3  0  0  0  0  0  0
  1 16  1  6  0  0  0
  1  3  1  0  0  0  0
  2  4  1  0  0  0  0
  3  6  1  0  0  0  0
  3  5  2  0  0  0  0
  4  9  1  0  0  0  0
  5  7  1  0  0  0  0
  6  2  2  0  0  0  0
  7  4  2  0  0  0  0
  9  8  1  0  0  0  0
 10 11  1  0  0  0  0
 11  1  1  0  0  0  0
 12 14  1  0  0  0  0
 14 13  1  6  0  0  0
 15 12  1  0  0  0  0
 15 14  1  0  0  0  0
 15 11  1  1  0  0  0
 17 18  1  0  0  0  0
 19 25  1  0  0  0  0
 20 23  1  0  0  0  0
 21 27  2  0  0  0  0
 21 24  1  0  0  0  0
 22 26  1  0  0  0  0
 22 20  2  0  0  0  0
 23 18  2  0  0  0  0
 23 16  1  0  0  0  0
 24 26  2  0  0  0  0
 25 17  2  0  0  0  0
 26 25  1  0  0  0  0
 27 22  1  0  0  0  0
M  END
>  <MODEL>
2

>  <REMARK>
 VINA RESULT:      -8.3      2.087      3.669
  Name = 
  6 active torsions:
  status: ('A' for Active; 'I' for Inactive)
    1  A    between atoms: C_6  and  C_12
    2  A    between atoms: C_6  and  C_21
    3  A    between atoms: C_7  and  C_12
    4  A    between atoms: C_12  and  N_16
    5  A    between atoms: C_13  and  O_23
    6  A    between atoms: N_16  and  C_20
                            x       y       z     vdW  Elec       q    Type
                         _______ _______ _______ _____ _____    ______ ____

>  <TORSDO>
F 6

$$$$
=
 OpenBabel10222420123D

 27 30  0  0  1  0  0  0  0  0999 V2000
  189.7740  177.4680  142.7050 C   0  0  1  0  0  3  0  0  0  0  0  0
  191.3960  177.0160  146.1400 C   0  0  0  0  0  3  0  0  0  0  0  0
  190.5550  176.8900  143.8660 C   0  0  0  0  0  0  0  0  0  0  0  0
  192.0320  175.7810  145.9830 C   0  0  0  0  0  0  0  0  0  0  0  0
  191.1920  175.6550  143.7080 C   0  0  0  0  0  3  0  0  0  0  0  0
  190.6620  177.5690  145.0890 C   0  0  0  0  0  3  0  0  0  0  0  0
  191.9260  175.1010  144.7590 C   0  0  0  0  0  3  0  0  0  0  0  0
  192.8150  175.8810  148.3280 C   0  0  0  0  0  1  0  0  0  0  0  0
  192.7600  175.2540  147.0540 O   0  0  0  0  0  0  0  0  0  0  0  0
  191.9630  177.5540  141.7870 C   0  0  0  0  0  1  0  0  0  0  0  0
  190.5470  177.6530  141.4620 N   0  0  0  0  0  0  0  0  0  0  0  0
  189.6060  177.2780  139.2400 C   0  0  0  0  0  2  0  0  0  0  0  0
  191.1990  175.6270  138.4810 N   0  0  0  0  0  1  0  0  0  0  0  0
  191.0620  176.8760  139.2070 C   0  0  2  0  0  3  0  0  0  0  0  0
  190.2370  176.6320  140.4600 C   0  0  1  0  0  3  0  0  0  0  0  0
  188.4530  176.7450  142.4390 C   0  0  0  0  0  2  0  0  0  0  0  0
  185.1840  178.5400  142.6990 N   0  0  0  0  0  0  0  0  0  0  0  0
  186.3190  177.9130  142.3820 N   0  0  0  0  0  0  0  0  0  0  0  0
  183.3970  179.5590  143.8870 N   0  0  0  0  0  1  0  0  0  0  0  0
  187.3970  177.4330  144.5330 C   0  0  0  0  0  3  0  0  0  0  0  0
  185.4990  178.5810  147.2830 C   0  0  0  0  0  3  0  0  0  0  0  0
  186.4840  177.9660  145.4080 C   0  0  0  0  0  0  0  0  0  0  0  0
  187.3240  177.4120  143.1490 C   0  0  0  0  0  0  0  0  0  0  0  0
  184.6700  178.9830  146.2960 N   0  0  0  0  0  0  0  0  0  0  0  0
  184.6510  178.8840  143.8980 C   0  0  0  0  0  0  0  0  0  0  0  0
  185.2370  178.6250  145.1300 C   0  0  0  0  0  0  0  0  0  0  0  0
  186.6250  177.9510  146.7770 C   0  0  0  0  0  3  0  0  0  0  0  0
  1 16  1  6  0  0  0
  1  3  1  0  0  0  0
  3  6  1  0  0  0  0
  4  2  1  0  0  0  0
  4  9  1  0  0  0  0
  5  3  2  0  0  0  0
  5  7  1  0  0  0  0
  6  2  2  0  0  0  0
  7  4  2  0  0  0  0
  9  8  1  0  0  0  0
 11 10  1  0  0  0  0
 11  1  1  0  0  0  0
 12 15  1  0  0  0  0
 14 13  1  6  0  0  0
 14 12  1  0  0  0  0
 14 15  1  0  0  0  0
 15 11  1  1  0  0  0
 16 23  1  0  0  0  0
 17 25  1  0  0  0  0
 18 17  2  0  0  0  0
 18 23  1  0  0  0  0
 19 25  1  0  0  0  0
 20 22  1  0  0  0  0
 22 27  2  0  0  0  0
 23 20  2  0  0  0  0
 24 21  2  0  0  0  0
 25 26  2  0  0  0  0
 26 22  1  0  0  0  0
 26 24  1  0  0  0  0
 27 21  1  0  0  0  0
M  END
>  <MODEL>
3

>  <REMARK>
 VINA RESULT:      -8.2      2.758      6.620
  Name = 
  6 active torsions:
  status: ('A' for Active; 'I' for Inactive)
    1  A    between atoms: C_6  and  C_12
    2  A    between atoms: C_6  and  C_21
    3  A    between atoms: C_7  and  C_12
    4  A    between atoms: C_12  and  N_16
    5  A    between atoms: C_13  and  O_23
    6  A    between atoms: N_16  and  C_20
                            x       y       z     vdW  Elec       q    Type
                         _______ _______ _______ _____ _____    ______ ____

>  <TORSDO>
F 6

$$$$
=
 OpenBabel10222420123D

 27 30  0  0  1  0  0  0  0  0999 V2000
  189.6370  177.4830  142.9050 C   0  0  1  0  0  3  0  0  0  0  0  0
  191.9400  175.1470  144.8740 C   0  0  0  0  0  3  0  0  0  0  0  0
  190.4960  176.8950  144.0040 C   0  0  0  0  0  0  0  0  0  0  0  0
  192.0640  175.8380  146.0830 C   0  0  0  0  0  0  0  0  0  0  0  0
  190.6190  177.5870  145.2140 C   0  0  0  0  0  3  0  0  0  0  0  0
  191.1610  175.6700  143.8400 C   0  0  0  0  0  3  0  0  0  0  0  0
  191.3980  177.0640  146.2480 C   0  0  0  0  0  3  0  0  0  0  0  0
  192.8490  175.7900  148.4290 C   0  0  0  0  0  1  0  0  0  0  0  0
  192.8510  175.2880  147.0990 O   0  0  0  0  0  0  0  0  0  0  0  0
  191.7620  177.6260  141.8540 C   0  0  0  0  0  1  0  0  0  0  0  0
  190.3260  177.6920  141.6180 N   0  0  0  0  0  0  0  0  0  0  0  0
  189.2710  177.3070  139.4490 C   0  0  0  0  0  2  0  0  0  0  0  0
  190.8490  175.6860  138.5990 N   0  0  0  0  0  1  0  0  0  0  0  0
  190.7300  176.9300  139.3360 C   0  0  2  0  0  3  0  0  0  0  0  0
  189.9780  176.6690  140.6300 C   0  0  1  0  0  3  0  0  0  0  0  0
  188.3070  176.7510  142.7140 C   0  0  0  0  0  2  0  0  0  0  0  0
  186.8030  177.8070  145.9700 N   0  0  0  0  0  0  0  0  0  0  0  0
  187.5130  177.3570  144.9330 N   0  0  0  0  0  0  0  0  0  0  0  0
  185.0980  178.7540  147.3260 N   0  0  0  0  0  1  0  0  0  0  0  0
  186.1040  177.7800  142.9690 C   0  0  0  0  0  3  0  0  0  0  0  0
  183.0300  179.3030  143.8140 C   0  0  0  0  0  3  0  0  0  0  0  0
  185.0060  178.3570  143.5560 C   0  0  0  0  0  0  0  0  0  0  0  0
  187.2500  177.3190  143.6000 C   0  0  0  0  0  0  0  0  0  0  0  0
  183.5470  179.2080  145.0580 N   0  0  0  0  0  0  0  0  0  0  0  0
  185.5760  178.3820  146.0370 C   0  0  0  0  0  0  0  0  0  0  0  0
  184.7570  178.6330  144.9440 C   0  0  0  0  0  0  0  0  0  0  0  0
  183.8990  178.7900  142.8630 C   0  0  0  0  0  3  0  0  0  0  0  0
  1 16  1  6  0  0  0
  1  3  1  0  0  0  0
  2  4  1  0  0  0  0
  3  5  2  0  0  0  0
  4  7  2  0  0  0  0
  4  9  1  0  0  0  0
  5  7  1  0  0  0  0
  6  3  1  0  0  0  0
  6  2  2  0  0  0  0
  9  8  1  0  0  0  0
 11 10  1  0  0  0  0
 11  1  1  0  0  0  0
 12 15  1  0  0  0  0
 14 13  1  6  0  0  0
 14 12  1  0  0  0  0
 14 15  1  0  0  0  0
 15 11  1  1  0  0  0
 16 23  1  0  0  0  0
 17 25  1  0  0  0  0
 18 17  2  0  0  0  0
 20 22  1  0  0  0  0
 20 23  2  0  0  0  0
 21 24  2  0  0  0  0
 22 26  1  0  0  0  0
 23 18  1  0  0  0  0
 25 19  1  0  0  0  0
 26 24  1  0  0  0  0
 26 25  2  0  0  0  0
 27 22  2  0  0  0  0
 27 21  1  0  0  0  0
M  END
>  <MODEL>
4

>  <REMARK>
 VINA RESULT:      -8.1      3.041      6.892
  Name = 
  6 active torsions:
  status: ('A' for Active; 'I' for Inactive)
    1  A    between atoms: C_6  and  C_12
    2  A    between atoms: C_6  and  C_21
    3  A    between atoms: C_7  and  C_12
    4  A    between atoms: C_12  and  N_16
    5  A    between atoms: C_13  and  O_23
    6  A    between atoms: N_16  and  C_20
                            x       y       z     vdW  Elec       q    Type
                         _______ _______ _______ _____ _____    ______ ____

>  <TORSDO>
F 6

$$$$
=
 OpenBabel10222420123D

 27 30  0  0  1  0  0  0  0  0999 V2000
  183.6310  178.2900  140.8280 C   0  0  1  0  0  3  0  0  0  0  0  0
  185.2910  178.3360  144.2740 C   0  0  0  0  0  3  0  0  0  0  0  0
  183.8590  178.4430  142.3160 C   0  0  0  0  0  0  0  0  0  0  0  0
  184.2240  178.7250  145.0880 C   0  0  0  0  0  0  0  0  0  0  0  0
  182.7900  178.8320  143.1300 C   0  0  0  0  0  3  0  0  0  0  0  0
  185.1120  178.1950  142.8960 C   0  0  0  0  0  3  0  0  0  0  0  0
  182.9690  178.9730  144.5080 C   0  0  0  0  0  3  0  0  0  0  0  0
  185.7260  178.7770  147.0540 C   0  0  0  0  0  1  0  0  0  0  0  0
  184.4350  178.8570  146.4640 O   0  0  0  0  0  0  0  0  0  0  0  0
  181.7510  179.5010  140.0290 C   0  0  0  0  0  1  0  0  0  0  0  0
  182.2180  178.1780  140.4200 N   0  0  0  0  0  0  0  0  0  0  0  0
  182.7450  175.9590  139.5450 C   0  0  0  0  0  2  0  0  0  0  0  0
  180.5960  175.4790  138.5500 N   0  0  0  0  0  1  0  0  0  0  0  0
  181.2460  176.0550  139.7120 C   0  0  2  0  0  3  0  0  0  0  0  0
  182.0400  177.2770  139.2800 C   0  0  1  0  0  3  0  0  0  0  0  0
  184.3740  179.3310  139.9870 C   0  0  0  0  0  2  0  0  0  0  0  0
  186.4290  177.9720  137.1750 N   0  0  0  0  0  0  0  0  0  0  0  0
  185.5300  178.4740  138.0250 N   0  0  0  0  0  0  0  0  0  0  0  0
  188.4070  177.0690  136.2200 N   0  0  0  0  0  1  0  0  0  0  0  0
  186.6800  178.5490  140.1910 C   0  0  0  0  0  3  0  0  0  0  0  0
  189.9990  177.3490  140.0010 C   0  0  0  0  0  3  0  0  0  0  0  0
  187.9100  178.0440  139.8510 C   0  0  0  0  0  0  0  0  0  0  0  0
  185.5900  178.7420  139.3570 C   0  0  0  0  0  0  0  0  0  0  0  0
  189.6580  177.1800  138.7050 N   0  0  0  0  0  0  0  0  0  0  0  0
  187.7100  177.5640  137.3580 C   0  0  0  0  0  0  0  0  0  0  0  0
  188.3860  177.5950  138.5710 C   0  0  0  0  0  0  0  0  0  0  0  0
  188.9500  177.8780  140.7370 C   0  0  0  0  0  3  0  0  0  0  0  0
  1 16  1  6  0  0  0
  1  3  1  0  0  0  0
  2  4  1  0  0  0  0
  3  6  1  0  0  0  0
  3  5  2  0  0  0  0
  4  9  1  0  0  0  0
  5  7  1  0  0  0  0
  6  2  2  0  0  0  0
  7  4  2  0  0  0  0
  9  8  1  0  0  0  0
 10 11  1  0  0  0  0
 11  1  1  0  0  0  0
 12 14  1  0  0  0  0
 14 13  1  6  0  0  0
 15 12  1  0  0  0  0
 15 14  1  0  0  0  0
 15 11  1  1  0  0  0
 17 25  2  0  0  0  0
 17 18  1  0  0  0  0
 18 23  2  0  0  0  0
 19 25  1  0  0  0  0
 21 27  2  0  0  0  0
 22 20  2  0  0  0  0
 22 27  1  0  0  0  0
 23 16  1  0  0  0  0
 23 20  1  0  0  0  0
 24 21  1  0  0  0  0
 25 26  1  0  0  0  0
 26 24  2  0  0  0  0
 26 22  1  0  0  0  0
M  END
>  <MODEL>
5

>  <REMARK>
 VINA RESULT:      -7.9      1.570      2.611
  Name = 
  6 active torsions:
  status: ('A' for Active; 'I' for Inactive)
    1  A    between atoms: C_6  and  C_12
    2  A    between atoms: C_6  and  C_21
    3  A    between atoms: C_7  and  C_12
    4  A    between atoms: C_12  and  N_16
    5  A    between atoms: C_13  and  O_23
    6  A    between atoms: N_16  and  C_20
                            x       y       z     vdW  Elec       q    Type
                         _______ _______ _______ _____ _____    ______ ____

>  <TORSDO>
F 6

$$$$
=
 OpenBabel10222420123D

 27 30  0  0  1  0  0  0  0  0999 V2000
  188.5700  177.5850  145.0270 C   0  0  1  0  0  3  0  0  0  0  0  0
  185.2340  179.0000  146.2520 C   0  0  0  0  0  3  0  0  0  0  0  0
  187.1240  178.0290  145.0770 C   0  0  0  0  0  0  0  0  0  0  0  0
  184.4270  178.8190  145.1250 C   0  0  0  0  0  0  0  0  0  0  0  0
  186.3170  177.8470  143.9490 C   0  0  0  0  0  3  0  0  0  0  0  0
  186.5740  178.6080  146.2310 C   0  0  0  0  0  3  0  0  0  0  0  0
  184.9770  178.2380  143.9710 C   0  0  0  0  0  3  0  0  0  0  0  0
  182.1710  178.9730  144.1230 C   0  0  0  0  0  1  0  0  0  0  0  0
  183.0900  179.2210  145.1780 O   0  0  0  0  0  0  0  0  0  0  0  0
  188.2370  176.8630  147.2640 C   0  0  0  0  0  1  0  0  0  0  0  0
  189.2180  177.4160  146.3410 N   0  0  0  0  0  0  0  0  0  0  0  0
  191.6270  177.2690  145.9670 C   0  0  0  0  0  2  0  0  0  0  0  0
  192.1320  175.6600  147.6980 N   0  0  0  0  0  1  0  0  0  0  0  0
  191.3450  176.8390  147.3880 C   0  0  2  0  0  3  0  0  0  0  0  0
  190.3580  176.5000  146.2830 C   0  0  1  0  0  3  0  0  0  0  0  0
  188.8040  176.3690  144.1290 C   0  0  0  0  0  2  0  0  0  0  0  0
  191.7400  176.9040  141.8780 N   0  0  0  0  0  0  0  0  0  0  0  0
  190.8460  176.6550  142.8370 N   0  0  0  0  0  0  0  0  0  0  0  0
  192.7750  177.5070  139.8260 N   0  0  0  0  0  1  0  0  0  0  0  0
  188.6720  177.1690  141.8230 C   0  0  0  0  0  3  0  0  0  0  0  0
  188.9660  178.2620  138.4760 C   0  0  0  0  0  3  0  0  0  0  0  0
  189.0560  177.5590  140.5650 C   0  0  0  0  0  0  0  0  0  0  0  0
  189.4910  176.7600  142.8640 C   0  0  0  0  0  0  0  0  0  0  0  0
  190.2780  178.0720  138.7320 N   0  0  0  0  0  0  0  0  0  0  0  0
  191.5930  177.3420  140.6020 C   0  0  0  0  0  0  0  0  0  0  0  0
  190.3760  177.6410  140.0030 C   0  0  0  0  0  0  0  0  0  0  0  0
  188.1820  177.9560  139.5780 C   0  0  0  0  0  3  0  0  0  0  0  0
  1 16  1  1  0  0  0
  1  3  1  0  0  0  0
  1 11  1  0  0  0  0
  3  6  2  0  0  0  0
  4  9  1  0  0  0  0
  4  2  2  0  0  0  0
  5  7  2  0  0  0  0
  5  3  1  0  0  0  0
  6  2  1  0  0  0  0
  7  4  1  0  0  0  0
  8  9  1  0  0  0  0
 11 10  1  0  0  0  0
 12 15  1  0  0  0  0
 12 14  1  0  0  0  0
 14 13  1  6  0  0  0
 15 11  1  1  0  0  0
 15 14  1  0  0  0  0
 17 18  1  0  0  0  0
 18 23  2  0  0  0  0
 19 25  1  0  0  0  0
 20 23  1  0  0  0  0
 21 24  1  0  0  0  0
 21 27  2  0  0  0  0
 22 20  2  0  0  0  0
 23 16  1  0  0  0  0
 24 26  2  0  0  0  0
 25 17  2  0  0  0  0
 26 22  1  0  0  0  0
 26 25  1  0  0  0  0
 27 22  1  0  0  0  0
M  END
>  <MODEL>
6

>  <REMARK>
 VINA RESULT:      -7.8      3.113      5.814
  Name = 
  6 active torsions:
  status: ('A' for Active; 'I' for Inactive)
    1  A    between atoms: C_6  and  C_12
    2  A    between atoms: C_6  and  C_21
    3  A    between atoms: C_7  and  C_12
    4  A    between atoms: C_12  and  N_16
    5  A    between atoms: C_13  and  O_23
    6  A    between atoms: N_16  and  C_20
                            x       y       z     vdW  Elec       q    Type
                         _______ _______ _______ _____ _____    ______ ____

>  <TORSDO>
F 6

$$$$
=
 OpenBabel10222420123D

 27 30  0  0  1  0  0  0  0  0999 V2000
  187.8950  177.4170  142.7160 C   0  0  1  0  0  3  0  0  0  0  0  0
  190.0700  177.8380  145.8350 C   0  0  0  0  0  3  0  0  0  0  0  0
  189.0050  177.2550  143.7320 C   0  0  0  0  0  0  0  0  0  0  0  0
  191.1000  176.9290  145.5770 C   0  0  0  0  0  0  0  0  0  0  0  0
  190.0360  176.3460  143.4730 C   0  0  0  0  0  3  0  0  0  0  0  0
  189.0280  178.0020  144.9200 C   0  0  0  0  0  3  0  0  0  0  0  0
  191.0780  176.1820  144.3880 C   0  0  0  0  0  3  0  0  0  0  0  0
  192.3200  175.6010  147.2700 C   0  0  0  0  0  1  0  0  0  0  0  0
  192.1290  176.7880  146.5130 O   0  0  0  0  0  0  0  0  0  0  0  0
  186.6280  177.0950  144.6990 C   0  0  0  0  0  1  0  0  0  0  0  0
  186.5290  177.3300  143.2650 N   0  0  0  0  0  0  0  0  0  0  0  0
  184.6060  178.3020  142.1150 C   0  0  0  0  0  2  0  0  0  0  0  0
  183.8150  179.7020  143.9190 N   0  0  0  0  0  1  0  0  0  0  0  0
  184.3590  178.3940  143.6020 C   0  0  2  0  0  3  0  0  0  0  0  0
  185.7670  178.5620  143.0560 C   0  0  1  0  0  3  0  0  0  0  0  0
  188.0600  178.6490  141.8240 C   0  0  0  0  0  2  0  0  0  0  0  0
  187.2180  178.2980  138.1990 N   0  0  0  0  0  0  0  0  0  0  0  0
  187.3090  178.5080  139.5140 N   0  0  0  0  0  0  0  0  0  0  0  0
  187.6760  177.6820  135.9510 N   0  0  0  0  0  1  0  0  0  0  0  0
  189.5400  177.6910  140.1310 C   0  0  0  0  0  3  0  0  0  0  0  0
  191.3290  176.4240  137.3600 C   0  0  0  0  0  3  0  0  0  0  0  0
  190.0080  177.2660  138.9120 C   0  0  0  0  0  0  0  0  0  0  0  0
  188.3030  178.2550  140.4060 C   0  0  0  0  0  0  0  0  0  0  0  0
  190.1960  176.7740  136.7140 N   0  0  0  0  0  0  0  0  0  0  0  0
  188.0930  177.7640  137.3100 C   0  0  0  0  0  0  0  0  0  0  0  0
  189.3600  177.2950  137.6300 C   0  0  0  0  0  0  0  0  0  0  0  0
  191.2510  176.7110  138.7140 C   0  0  0  0  0  3  0  0  0  0  0  0
  1 16  1  1  0  0  0
  1 11  1  0  0  0  0
  1  3  1  0  0  0  0
  3  6  1  0  0  0  0
  4  2  1  0  0  0  0
  4  9  1  0  0  0  0
  5  3  2  0  0  0  0
  5  7  1  0  0  0  0
  6  2  2  0  0  0  0
  7  4  2  0  0  0  0
  9  8  1  0  0  0  0
 11 10  1  0  0  0  0
 12 15  1  0  0  0  0
 12 14  1  0  0  0  0
 14 13  1  6  0  0  0
 15 11  1  1  0  0  0
 15 14  1  0  0  0  0
 17 18  1  0  0  0  0
 18 23  2  0  0  0  0
 19 25  1  0  0  0  0
 20 23  1  0  0  0  0
 21 27  2  0  0  0  0
 22 20  2  0  0  0  0
 23 16  1  0  0  0  0
 24 21  1  0  0  0  0
 24 26  2  0  0  0  0
 25 26  1  0  0  0  0
 25 17  2  0  0  0  0
 26 22  1  0  0  0  0
 27 22  1  0  0  0  0
M  END
>  <MODEL>
7

>  <REMARK>
 VINA RESULT:      -7.8      2.304      3.229
  Name = 
  6 active torsions:
  status: ('A' for Active; 'I' for Inactive)
    1  A    between atoms: C_6  and  C_12
    2  A    between atoms: C_6  and  C_21
    3  A    between atoms: C_7  and  C_12
    4  A    between atoms: C_12  and  N_16
    5  A    between atoms: C_13  and  O_23
    6  A    between atoms: N_16  and  C_20
                            x       y       z     vdW  Elec       q    Type
                         _______ _______ _______ _____ _____    ______ ____

>  <TORSDO>
F 6

$$$$
=
 OpenBabel10222420123D

 27 30  0  0  1  0  0  0  0  0999 V2000
  189.7140  177.6960  144.3540 C   0  0  1  0  0  3  0  0  0  0  0  0
  192.2890  175.6330  146.2890 C   0  0  0  0  0  3  0  0  0  0  0  0
  190.5500  177.1200  145.4760 C   0  0  0  0  0  0  0  0  0  0  0  0
  192.0630  176.0680  147.5980 C   0  0  0  0  0  0  0  0  0  0  0  0
  190.3230  177.5550  146.7860 C   0  0  0  0  0  3  0  0  0  0  0  0
  191.5380  176.1540  145.2330 C   0  0  0  0  0  3  0  0  0  0  0  0
  191.0730  177.0340  147.8420 C   0  0  0  0  0  3  0  0  0  0  0  0
  193.5530  176.3320  149.5550 C   0  0  0  0  0  1  0  0  0  0  0  0
  192.8310  175.5270  148.6330 O   0  0  0  0  0  0  0  0  0  0  0  0
  191.3230  179.3810  143.8900 C   0  0  0  0  0  1  0  0  0  0  0  0
  190.4800  178.3600  143.2820 N   0  0  0  0  0  0  0  0  0  0  0  0
  190.5550  176.7340  141.4620 C   0  0  0  0  0  2  0  0  0  0  0  0
  192.7160  177.3400  140.5670 N   0  0  0  0  0  1  0  0  0  0  0  0
  191.4820  177.8740  141.1110 C   0  0  2  0  0  3  0  0  0  0  0  0
  191.3430  177.4270  142.5570 C   0  0  1  0  0  3  0  0  0  0  0  0
  188.6970  176.7070  143.7820 C   0  0  0  0  0  2  0  0  0  0  0  0
  186.3340  178.2900  141.3550 N   0  0  0  0  0  0  0  0  0  0  0  0
  187.3130  177.6990  142.0420 N   0  0  0  0  0  0  0  0  0  0  0  0
  184.3090  179.3700  140.7430 N   0  0  0  0  0  1  0  0  0  0  0  0
  186.5250  177.6660  144.3660 C   0  0  0  0  0  3  0  0  0  0  0  0
  183.3300  179.1310  144.7300 C   0  0  0  0  0  3  0  0  0  0  0  0
  185.3030  178.2750  144.2350 C   0  0  0  0  0  0  0  0  0  0  0  0
  187.4470  177.4060  143.3630 C   0  0  0  0  0  0  0  0  0  0  0  0
  183.4700  179.3010  143.3970 N   0  0  0  0  0  0  0  0  0  0  0  0
  185.1370  178.7950  141.7480 C   0  0  0  0  0  0  0  0  0  0  0  0
  184.6660  178.7900  143.0540 C   0  0  0  0  0  0  0  0  0  0  0  0
  184.4370  178.5030  145.2800 C   0  0  0  0  0  3  0  0  0  0  0  0
  1 16  1  6  0  0  0
  1  3  1  0  0  0  0
  2  4  1  0  0  0  0
  3  5  2  0  0  0  0
  4  7  2  0  0  0  0
  4  9  1  0  0  0  0
  5  7  1  0  0  0  0
  6  3  1  0  0  0  0
  6  2  2  0  0  0  0
  9  8  1  0  0  0  0
 11 10  1  0  0  0  0
 11  1  1  0  0  0  0
 12 15  1  0  0  0  0
 14 13  1  6  0  0  0
 14 12  1  0  0  0  0
 14 15  1  0  0  0  0
 15 11  1  1  0  0  0
 17 25  2  0  0  0  0
 17 18  1  0  0  0  0
 18 23  2  0  0  0  0
 19 25  1  0  0  0  0
 21 27  2  0  0  0  0
 22 20  2  0  0  0  0
 22 27  1  0  0  0  0
 23 16  1  0  0  0  0
 23 20  1  0  0  0  0
 24 21  1  0  0  0  0
 25 26  1  0  0  0  0
 26 24  2  0  0  0  0
 26 22  1  0  0  0  0
M  END
>  <MODEL>
8

>  <REMARK>
 VINA RESULT:      -7.7      2.951      6.485
  Name = 
  6 active torsions:
  status: ('A' for Active; 'I' for Inactive)
    1  A    between atoms: C_6  and  C_12
    2  A    between atoms: C_6  and  C_21
    3  A    between atoms: C_7  and  C_12
    4  A    between atoms: C_12  and  N_16
    5  A    between atoms: C_13  and  O_23
    6  A    between atoms: N_16  and  C_20
                            x       y       z     vdW  Elec       q    Type
                         _______ _______ _______ _____ _____    ______ ____

>  <TORSDO>
F 6

$$$$
=
 OpenBabel10222420123D

 27 30  0  0  1  0  0  0  0  0999 V2000
  188.7670  177.9060  141.8190 C   0  0  1  0  0  3  0  0  0  0  0  0
  190.6270  176.3780  138.8460 C   0  0  0  0  0  3  0  0  0  0  0  0
  189.8660  177.4980  140.8610 C   0  0  0  0  0  0  0  0  0  0  0  0
  191.9440  176.7510  139.1240 C   0  0  0  0  0  0  0  0  0  0  0  0
  191.1840  177.8720  141.1410 C   0  0  0  0  0  3  0  0  0  0  0  0
  189.5920  176.7480  139.7080 C   0  0  0  0  0  3  0  0  0  0  0  0
  192.2190  177.5020  140.2790 C   0  0  0  0  0  3  0  0  0  0  0  0
  193.0460  175.0550  137.7000 C   0  0  0  0  0  1  0  0  0  0  0  0
  192.9580  176.3660  138.2420 O   0  0  0  0  0  0  0  0  0  0  0  0
  187.5980  178.2630  139.7830 C   0  0  0  0  0  1  0  0  0  0  0  0
  187.6240  178.6020  141.2000 N   0  0  0  0  0  0  0  0  0  0  0  0
  185.7280  179.3680  142.5360 C   0  0  0  0  0  2  0  0  0  0  0  0
  183.9780  178.2600  141.2910 N   0  0  0  0  0  1  0  0  0  0  0  0
  185.2180  179.0040  141.1610 C   0  0  2  0  0  3  0  0  0  0  0  0
  186.3450  178.2000  141.7880 C   0  0  1  0  0  3  0  0  0  0  0  0
  188.3010  176.7690  142.7310 C   0  0  0  0  0  2  0  0  0  0  0  0
  190.9160  176.7190  145.4020 N   0  0  0  0  0  0  0  0  0  0  0  0
  190.1460  176.6570  144.3140 N   0  0  0  0  0  0  0  0  0  0  0  0
  191.7120  177.0430  147.6170 N   0  0  0  0  0  1  0  0  0  0  0  0
  187.9310  177.3990  145.0640 C   0  0  0  0  0  3  0  0  0  0  0  0
  187.8760  178.2330  148.4970 C   0  0  0  0  0  3  0  0  0  0  0  0
  188.1760  177.6530  146.3900 C   0  0  0  0  0  0  0  0  0  0  0  0
  188.8310  176.9400  144.1150 C   0  0  0  0  0  0  0  0  0  0  0  0
  189.1750  177.8780  148.4060 N   0  0  0  0  0  0  0  0  0  0  0  0
  190.6430  177.0920  146.6780 C   0  0  0  0  0  0  0  0  0  0  0  0
  189.4000  177.5160  147.1300 C   0  0  0  0  0  0  0  0  0  0  0  0
  187.2280  178.1080  147.2780 C   0  0  0  0  0  3  0  0  0  0  0  0
  1 16  1  6  0  0  0
  2  4  2  0  0  0  0
  2  6  1  0  0  0  0
  3  5  1  0  0  0  0
  3  1  1  0  0  0  0
  4  7  1  0  0  0  0
  6  3  2  0  0  0  0
  7  5  2  0  0  0  0
  8  9  1  0  0  0  0
  9  4  1  0  0  0  0
 10 11  1  0  0  0  0
 11  1  1  0  0  0  0
 14 13  1  1  0  0  0
 14 15  1  0  0  0  0
 14 12  1  0  0  0  0
 15 11  1  6  0  0  0
 15 12  1  0  0  0  0
 16 23  1  0  0  0  0
 17 25  1  0  0  0  0
 18 17  2  0  0  0  0
 20 22  1  0  0  0  0
 22 26  1  0  0  0  0
 22 27  2  0  0  0  0
 23 18  1  0  0  0  0
 23 20  2  0  0  0  0
 24 21  2  0  0  0  0
 25 26  2  0  0  0  0
 25 19  1  0  0  0  0
 26 24  1  0  0  0  0
 27 21  1  0  0  0  0
M  END
>  <MODEL>
9

>  <REMARK>
 VINA RESULT:      -7.5      3.883      7.273
  Name = 
  6 active torsions:
  status: ('A' for Active; 'I' for Inactive)
    1  A    between atoms: C_6  and  C_12
    2  A    between atoms: C_6  and  C_21
    3  A    between atoms: C_7  and  C_12
    4  A    between atoms: C_12  and  N_16
    5  A    between atoms: C_13  and  O_23
    6  A    between atoms: N_16  and  C_20
                            x       y       z     vdW  Elec       q    Type
                         _______ _______ _______ _____ _____    ______ ____

>  <TORSDO>
F 6

$$$$
