=
 OpenBabel10222417283D

 60 67  0  0  1  0  0  0  0  0999 V2000
  181.6650  177.5940  140.1060 C   0  0  0  0  0  0  0  0  0  0  0  0
  185.2570  178.6310  139.0970 C   0  0  0  0  0  2  0  0  0  0  0  0
  180.7580  177.0840  141.1760 C   0  0  2  0  0  3  0  0  0  0  0  0
  181.1500  177.2690  138.9220 C   0  0  0  0  0  0  0  0  0  0  0  0
  183.0880  178.0480  140.3440 C   0  0  0  0  0  2  0  0  0  0  0  0
  179.7140  176.3900  140.4260 N   0  0  0  0  0  0  0  0  0  0  0  0
  179.9310  176.5290  139.1660 C   0  0  0  0  0  0  0  0  0  0  0  0
  183.5840  177.3010  138.0270 C   0  0  1  0  0  3  0  0  0  0  0  0
  183.9820  175.8710  135.5430 O   0  0  0  0  0  0  0  0  0  0  0  0
  183.7610  178.4120  139.0290 C   0  0  2  0  0  3  0  0  0  0  0  0
  185.7250  178.3110  137.6790 C   0  0  0  0  0  2  0  0  0  0  0  0
  181.9330  177.5200  137.3080 S   0  0  0  0  0  0  0  0  0  0  0  0
  184.8980  176.6300  135.9560 C   0  0  0  0  0  0  0  0  0  0  0  0
  184.6750  177.4820  137.0910 N   0  0  0  0  0  0  0  0  0  0  0  0
  178.9660  178.2510  142.1880 O   0  0  0  0  0  0  0  0  0  0  0  0
  180.1680  178.2080  141.9670 C   0  0  0  0  0  0  0  0  0  0  0  0
  181.2420  179.4490  142.6700 S   0  0  0  0  0  0  0  0  0  0  0  0
  181.9660  178.2920  143.8680 C   0  0  0  0  0  2  0  0  0  0  0  0
  183.2680  178.8410  144.4060 C   0  0  1  0  0  3  0  0  0  0  0  0
  184.3840  178.3910  143.4850 C   0  0  1  0  0  3  0  0  0  0  0  0
  183.8550  179.8080  143.4020 C   0  0  0  0  0  2  0  0  0  0  0  0
  185.6900  178.3840  144.2550 C   0  0  0  0  0  2  0  0  0  0  0  0
  187.8160  178.3980  141.1420 O   0  0  0  0  0  0  0  0  0  0  0  0
  187.6280  176.8780  144.6020 N   0  0  2  0  0  0  0  0  0  0  0  0
  187.7010  177.4410  143.2480 N   0  0  0  0  0  0  0  0  0  0  0  0
  186.4600  177.0980  143.9320 C   0  0  2  0  0  3  0  0  0  0  0  0
  188.4350  177.9530  142.1410 C   0  0  0  0  0  0  0  0  0  0  0  0
  187.4160  177.2090  147.8550 C   0  0  0  0  0  3  0  0  0  0  0  0
  189.5000  177.6640  145.9990 C   0  0  0  0  0  2  0  0  0  0  0  0
  189.6770  177.8600  147.5080 C   0  0  0  0  0  2  0  0  0  0  0  0
  188.0530  177.9330  145.5280 C   0  0  2  0  0  3  0  0  0  0  0  0
  188.6490  177.1320  148.2220 N   0  0  0  0  0  0  0  0  0  0  0  0
  187.0350  178.0690  146.6820 C   0  0  0  0  0  2  0  0  0  0  0  0
  190.5710  176.7370  142.1730 C   0  0  0  0  0  1  0  0  0  0  0  0
  189.8290  177.9470  142.1820 O   0  0  0  0  0  0  0  0  0  0  0  0
  186.2350  176.5670  135.2940 C   0  0  0  0  0  2  0  0  0  0  0  0
  187.0690  175.5060  135.9740 C   0  0  0  0  0  2  0  0  0  0  0  0
  188.5190  175.8650  135.9450 C   0  0  0  0  0  0  0  0  0  0  0  0
  189.1180  175.7880  134.8850 O   0  0  0  0  0  0  0  0  0  0  0  0
  189.4610  177.8750  137.0250 C   0  0  0  0  0  1  0  0  0  0  0  0
  189.2140  176.3810  137.1840 C   0  0  1  0  0  0  0  0  0  0  0  0
  188.3900  176.2070  138.2980 O   0  0  0  0  0  1  0  0  0  0  0  0
  190.3490  174.3340  137.8020 O   0  0  0  0  0  1  0  0  0  0  0  0
  190.5540  175.6690  137.4420 C   0  0  2  0  0  3  0  0  0  0  0  0
  191.4120  176.3560  138.5090 C   0  0  0  0  0  2  0  0  0  0  0  0
  192.8360  176.5810  138.0290 C   0  0  0  0  0  2  0  0  0  0  0  0
  193.6830  176.8140  139.1140 O   0  0  0  0  0  1  0  0  0  0  0  0
  179.1180  175.8580  138.1030 C   0  0  0  0  0  2  0  0  0  0  0  0
  179.7710  172.2880  137.7250 C   0  0  0  0  0  3  0  0  0  0  0  0
  178.9310  173.3040  138.1420 C   0  0  0  0  0  3  0  0  0  0  0  0
  180.8040  174.1540  137.2470 C   0  0  0  0  0  3  0  0  0  0  0  0
  179.5990  174.4700  137.8280 C   0  0  0  0  0  0  0  0  0  0  0  0
  180.8930  172.8130  137.1860 N   0  0  0  0  0  0  0  0  0  0  0  0
  182.8650  170.2020  135.3570 C   0  0  0  0  0  3  0  0  0  0  0  0
  181.7820  170.9350  135.8610 C   0  0  0  0  0  3  0  0  0  0  0  0
  184.4050  171.7140  136.4370 C   0  0  0  0  0  0  0  0  0  0  0  0
  181.9980  172.0650  136.6560 C   0  0  0  0  0  0  0  0  0  0  0  0
  185.6680  172.0970  136.7040 F   0  0  0  0  0  0  0  0  0  0  0  0
  183.3250  172.4470  136.9410 C   0  0  0  0  0  3  0  0  0  0  0  0
  184.1740  170.5920  135.6440 C   0  0  0  0  0  3  0  0  0  0  0  0
  1  5  1  0  0  0  0
  1  3  1  0  0  0  0
  3 16  1  6  0  0  0
  4  7  1  0  0  0  0
  4  1  2  0  0  0  0
  6  3  1  0  0  0  0
  7  6  2  0  0  0  0
  8 12  1  6  0  0  0
  8 10  1  0  0  0  0
  9 13  2  0  0  0  0
 10  2  1  1  0  0  0
 10  5  1  0  0  0  0
 11  2  1  0  0  0  0
 12  4  1  0  0  0  0
 13 14  1  0  0  0  0
 14 11  1  0  0  0  0
 14  8  1  0  0  0  0
 16 15  2  0  0  0  0
 16 17  1  0  0  0  0
 17 18  1  0  0  0  0
 19 18  1  6  0  0  0
 20 22  1  1  0  0  0
 20 19  1  0  0  0  0
 21 20  1  0  0  0  0
 21 19  1  0  0  0  0
 23 27  2  0  0  0  0
 24 25  1  6  0  0  0
 24 31  1  0  0  0  0
 25 26  1  0  0  0  0
 26 22  1  1  0  0  0
 26 24  1  0  0  0  0
 27 35  1  0  0  0  0
 27 25  1  0  0  0  0
 28 32  2  0  0  0  0
 29 30  1  0  0  0  0
 30 32  1  0  0  0  0
 31 29  1  1  0  0  0
 31 33  1  0  0  0  0
 33 28  1  0  0  0  0
 34 35  1  0  0  0  0
 36 13  1  0  0  0  0
 36 37  1  0  0  0  0
 38 37  1  0  0  0  0
 38 41  1  0  0  0  0
 39 38  2  0  0  0  0
 41 40  1  6  0  0  0
 41 44  1  0  0  0  0
 41 42  1  0  0  0  0
 44 43  1  1  0  0  0
 44 45  1  0  0  0  0
 46 45  1  0  0  0  0
 46 47  1  0  0  0  0
 48  7  1  0  0  0  0
 49 50  2  0  0  0  0
 51 52  2  0  0  0  0
 52 48  1  0  0  0  0
 52 50  1  0  0  0  0
 53 51  1  0  0  0  0
 53 49  1  0  0  0  0
 54 60  2  0  0  0  0
 54 55  1  0  0  0  0
 55 57  2  0  0  0  0
 56 58  1  0  0  0  0
 56 59  2  0  0  0  0
 57 59  1  0  0  0  0
 57 53  1  0  0  0  0
 60 56  1  0  0  0  0
M  END
>  <MODEL>
1

>  <REMARK>
 VINA RESULT:      -7.5      0.000      0.000
  Name = 
  18 active torsions:
  status: ('A' for Active; 'I' for Inactive)
    1  A    between atoms: C_9  and  C_25
    2  A    between atoms: C_10  and  C_60
    3  A    between atoms: O_12  and  C_48
    4  A    between atoms: C_13  and  C_18
    5  A    between atoms: C_13  and  C_27
    6  A    between atoms: C_15  and  C_24
    7  A    between atoms: C_15  and  C_47
    8  A    between atoms: C_18  and  C_57
    9  A    between atoms: C_20  and  C_42
   10  A    between atoms: C_25  and  S_56
   11  A    between atoms: C_27  and  C_44
   12  A    between atoms: C_28  and  C_29
   13  A    between atoms: C_29  and  C_37
   14  A    between atoms: C_32  and  N_52
   15  A    between atoms: N_40  and  C_50
   16  A    between atoms: C_42  and  S_56
   17  A    between atoms: C_44  and  C_59
   18  A    between atoms: C_59  and  C_60
                            x       y       z     vdW  Elec       q    Type
                         _______ _______ _______ _____ _____    ______ ____

>  <TORSDO>
F 18

$$$$
=
 OpenBabel10222417283D

 60 67  0  0  1  0  0  0  0  0999 V2000
  187.1640  176.5590  136.9500 C   0  0  0  0  0  0  0  0  0  0  0  0
  187.7310  178.3130  140.3540 C   0  0  0  0  0  2  0  0  0  0  0  0
  186.3270  175.6240  136.1410 C   0  0  2  0  0  3  0  0  0  0  0  0
  188.3980  176.5630  136.4500 C   0  0  0  0  0  0  0  0  0  0  0  0
  186.7710  177.0920  138.3090 C   0  0  0  0  0  2  0  0  0  0  0  0
  187.2760  175.0760  135.1760 N   0  0  0  0  0  0  0  0  0  0  0  0
  188.4230  175.6350  135.3410 C   0  0  0  0  0  0  0  0  0  0  0  0
  189.1960  177.1900  138.8370 C   0  0  1  0  0  3  0  0  0  0  0  0
  191.9990  176.6860  139.3510 O   0  0  0  0  0  0  0  0  0  0  0  0
  187.8900  177.9380  138.8970 C   0  0  2  0  0  3  0  0  0  0  0  0
  189.1690  178.5240  140.8230 C   0  0  0  0  0  2  0  0  0  0  0  0
  189.8350  177.4130  137.1550 S   0  0  0  0  0  0  0  0  0  0  0  0
  191.3510  177.3850  140.1730 C   0  0  0  0  0  0  0  0  0  0  0  0
  190.0080  177.7960  139.8730 N   0  0  0  0  0  0  0  0  0  0  0  0
  185.4690  177.3630  134.7860 O   0  0  0  0  0  0  0  0  0  0  0  0
  185.2300  176.3530  135.4340 C   0  0  0  0  0  0  0  0  0  0  0  0
  183.5710  175.6940  135.4650 S   0  0  0  0  0  0  0  0  0  0  0  0
  183.8100  174.8890  137.0750 C   0  0  0  0  0  2  0  0  0  0  0  0
  182.7870  175.3920  138.0690 C   0  0  1  0  0  3  0  0  0  0  0  0
  183.2060  176.7790  138.5150 C   0  0  1  0  0  3  0  0  0  0  0  0
  182.0940  176.6090  137.5000 C   0  0  0  0  0  2  0  0  0  0  0  0
  182.6070  177.0630  139.8780 C   0  0  0  0  0  2  0  0  0  0  0  0
  178.9390  177.7600  140.3970 O   0  0  0  0  0  0  0  0  0  0  0  0
  182.3650  179.1900  141.1270 N   0  0  2  0  0  0  0  0  0  0  0  0
  181.0280  178.6590  140.8300 N   0  0  0  0  0  0  0  0  0  0  0  0
  182.1800  178.5340  139.9450 C   0  0  2  0  0  3  0  0  0  0  0  0
  179.6670  178.4290  141.1730 C   0  0  0  0  0  0  0  0  0  0  0  0
  185.1790  179.3170  142.8010 C   0  0  0  0  0  3  0  0  0  0  0  0
  182.4790  179.0140  143.5830 C   0  0  0  0  0  2  0  0  0  0  0  0
  183.6300  179.0870  144.5900 C   0  0  0  0  0  2  0  0  0  0  0  0
  182.9060  178.3930  142.2330 C   0  0  2  0  0  3  0  0  0  0  0  0
  184.7890  179.6940  143.9700 N   0  0  0  0  0  0  0  0  0  0  0  0
  184.4340  178.2330  142.0750 C   0  0  0  0  0  2  0  0  0  0  0  0
  179.4170  180.2940  142.7560 C   0  0  0  0  0  1  0  0  0  0  0  0
  179.1610  178.9540  142.3630 O   0  0  0  0  0  0  0  0  0  0  0  0
  191.9760  177.7070  141.4900 C   0  0  0  0  0  2  0  0  0  0  0  0
  191.2020  177.0090  142.5850 C   0  0  0  0  0  2  0  0  0  0  0  0
  191.4470  177.6560  143.9090 C   0  0  0  0  0  0  0  0  0  0  0  0
  191.8100  178.8200  143.9320 O   0  0  0  0  0  0  0  0  0  0  0  0
  191.5740  175.4490  145.0080 C   0  0  0  0  0  1  0  0  0  0  0  0
  191.1830  176.9080  145.1960 C   0  0  1  0  0  0  0  0  0  0  0  0
  191.9800  177.4290  146.2190 O   0  0  0  0  0  1  0  0  0  0  0  0
  188.9670  177.7650  144.7320 O   0  0  0  0  0  1  0  0  0  0  0  0
  189.7090  176.9880  145.6270 C   0  0  2  0  0  3  0  0  0  0  0  0
  189.5180  177.5310  147.0480 C   0  0  0  0  0  2  0  0  0  0  0  0
  188.2290  177.0290  147.6750 C   0  0  0  0  0  2  0  0  0  0  0  0
  187.1290  177.4440  146.9230 O   0  0  0  0  0  1  0  0  0  0  0  0
  189.6570  175.2370  134.5940 C   0  0  0  0  0  2  0  0  0  0  0  0
  191.6860  173.4770  137.0630 C   0  0  0  0  0  3  0  0  0  0  0  0
  190.4490  173.7040  136.4860 C   0  0  0  0  0  3  0  0  0  0  0  0
  192.0230  174.9570  135.4900 C   0  0  0  0  0  3  0  0  0  0  0  0
  190.6860  174.6360  135.4960 C   0  0  0  0  0  0  0  0  0  0  0  0
  192.6230  174.2340  136.4530 N   0  0  0  0  0  0  0  0  0  0  0  0
  195.8610  173.6640  138.2530 C   0  0  0  0  0  3  0  0  0  0  0  0
  194.5000  173.6120  137.9240 C   0  0  0  0  0  3  0  0  0  0  0  0
  196.2890  175.0390  136.3160 C   0  0  0  0  0  0  0  0  0  0  0  0
  194.0180  174.2720  136.7890 C   0  0  0  0  0  0  0  0  0  0  0  0
  197.1510  175.7160  135.5340 F   0  0  0  0  0  0  0  0  0  0  0  0
  194.9290  174.9890  135.9870 C   0  0  0  0  0  3  0  0  0  0  0  0
  196.7540  174.3760  137.4500 C   0  0  0  0  0  3  0  0  0  0  0  0
  1  5  1  0  0  0  0
  2 11  1  0  0  0  0
  3 16  1  6  0  0  0
  3  1  1  0  0  0  0
  4  1  2  0  0  0  0
  4 12  1  0  0  0  0
  6  7  2  0  0  0  0
  6  3  1  0  0  0  0
  7  4  1  0  0  0  0
  8 12  1  6  0  0  0
  8 10  1  0  0  0  0
  8 14  1  0  0  0  0
  9 13  2  0  0  0  0
 10  5  1  1  0  0  0
 10  2  1  0  0  0  0
 13 36  1  0  0  0  0
 14 13  1  0  0  0  0
 14 11  1  0  0  0  0
 15 16  2  0  0  0  0
 16 17  1  0  0  0  0
 17 18  1  0  0  0  0
 19 18  1  6  0  0  0
 19 20  1  0  0  0  0
 20 22  1  1  0  0  0
 21 19  1  0  0  0  0
 21 20  1  0  0  0  0
 23 27  2  0  0  0  0
 24 25  1  1  0  0  0
 24 31  1  0  0  0  0
 25 27  1  0  0  0  0
 26 22  1  1  0  0  0
 26 25  1  0  0  0  0
 26 24  1  0  0  0  0
 27 35  1  0  0  0  0
 28 32  2  0  0  0  0
 29 30  1  0  0  0  0
 31 33  1  1  0  0  0
 31 29  1  0  0  0  0
 32 30  1  0  0  0  0
 33 28  1  0  0  0  0
 35 34  1  0  0  0  0
 36 37  1  0  0  0  0
 37 38  1  0  0  0  0
 38 39  2  0  0  0  0
 38 41  1  0  0  0  0
 41 40  1  6  0  0  0
 41 44  1  0  0  0  0
 41 42  1  0  0  0  0
 44 43  1  6  0  0  0
 44 45  1  0  0  0  0
 45 46  1  0  0  0  0
 47 46  1  0  0  0  0
 48  7  1  0  0  0  0
 48 52  1  0  0  0  0
 50 49  2  0  0  0  0
 51 52  2  0  0  0  0
 51 53  1  0  0  0  0
 52 50  1  0  0  0  0
 53 57  1  0  0  0  0
 53 49  1  0  0  0  0
 55 54  1  0  0  0  0
 56 60  1  0  0  0  0
 57 55  2  0  0  0  0
 58 56  1  0  0  0  0
 59 56  2  0  0  0  0
 59 57  1  0  0  0  0
 60 54  2  0  0  0  0
M  END
>  <MODEL>
2

>  <REMARK>
 VINA RESULT:      -6.9      3.368      8.948
  Name = 
  18 active torsions:
  status: ('A' for Active; 'I' for Inactive)
    1  A    between atoms: C_9  and  C_25
    2  A    between atoms: C_10  and  C_60
    3  A    between atoms: O_12  and  C_48
    4  A    between atoms: C_13  and  C_18
    5  A    between atoms: C_13  and  C_27
    6  A    between atoms: C_15  and  C_24
    7  A    between atoms: C_15  and  C_47
    8  A    between atoms: C_18  and  C_57
    9  A    between atoms: C_20  and  C_42
   10  A    between atoms: C_25  and  S_56
   11  A    between atoms: C_27  and  C_44
   12  A    between atoms: C_28  and  C_29
   13  A    between atoms: C_29  and  C_37
   14  A    between atoms: C_32  and  N_52
   15  A    between atoms: N_40  and  C_50
   16  A    between atoms: C_42  and  S_56
   17  A    between atoms: C_44  and  C_59
   18  A    between atoms: C_59  and  C_60
                            x       y       z     vdW  Elec       q    Type
                         _______ _______ _______ _____ _____    ______ ____

>  <TORSDO>
F 18

$$$$
=
 OpenBabel10222417283D

 60 67  0  0  1  0  0  0  0  0999 V2000
  189.0680  177.6880  138.7310 C   0  0  0  0  0  0  0  0  0  0  0  0
  189.8250  177.1630  134.9710 C   0  0  0  0  0  2  0  0  0  0  0  0
  188.5640  178.6050  139.7960 C   0  0  2  0  0  3  0  0  0  0  0  0
  189.9040  176.8130  139.2860 C   0  0  0  0  0  0  0  0  0  0  0  0
  188.9460  177.9600  137.2490 C   0  0  0  0  0  2  0  0  0  0  0  0
  189.2770  178.1550  140.9890 N   0  0  0  0  0  0  0  0  0  0  0  0
  189.9980  177.1310  140.6940 C   0  0  0  0  0  0  0  0  0  0  0  0
  191.0480  176.6680  136.9630 C   0  0  1  0  0  3  0  0  0  0  0  0
  193.7400  175.6060  137.0000 O   0  0  0  0  0  0  0  0  0  0  0  0
  189.6490  176.8750  136.4460 C   0  0  2  0  0  3  0  0  0  0  0  0
  191.0510  176.3340  134.5940 C   0  0  0  0  0  2  0  0  0  0  0  0
  190.9020  175.5820  138.4080 S   0  0  0  0  0  0  0  0  0  0  0  0
  193.1530  175.7230  135.8930 C   0  0  0  0  0  0  0  0  0  0  0  0
  191.7640  176.0870  135.8450 N   0  0  0  0  0  0  0  0  0  0  0  0
  186.3450  178.3390  139.0200 O   0  0  0  0  0  0  0  0  0  0  0  0
  187.0880  178.4550  139.9850 C   0  0  0  0  0  0  0  0  0  0  0  0
  186.4160  178.3560  141.6360 S   0  0  0  0  0  0  0  0  0  0  0  0
  184.8380  179.1130  141.1500 C   0  0  0  0  0  2  0  0  0  0  0  0
  184.1730  178.2910  140.0690 C   0  0  1  0  0  3  0  0  0  0  0  0
  182.7520  177.9980  140.5070 C   0  0  1  0  0  3  0  0  0  0  0  0
  183.0240  179.0780  139.4790 C   0  0  0  0  0  2  0  0  0  0  0  0
  182.2660  176.7450  139.8070 C   0  0  0  0  0  2  0  0  0  0  0  0
  184.1500  177.5100  136.6330 O   0  0  0  0  0  0  0  0  0  0  0  0
  180.8470  176.1380  137.8670 N   0  0  2  0  0  0  0  0  0  0  0  0
  182.1150  176.6910  137.3730 N   0  0  0  0  0  0  0  0  0  0  0  0
  181.4340  177.1410  138.5810 C   0  0  2  0  0  3  0  0  0  0  0  0
  183.1880  176.7250  136.4400 C   0  0  0  0  0  0  0  0  0  0  0  0
  178.9330  173.5340  138.4040 C   0  0  0  0  0  3  0  0  0  0  0  0
  181.4210  173.8650  137.1040 C   0  0  0  0  0  2  0  0  0  0  0  0
  180.7000  172.5160  137.1820 C   0  0  0  0  0  2  0  0  0  0  0  0
  181.1250  174.7710  138.3210 C   0  0  2  0  0  3  0  0  0  0  0  0
  179.2960  172.7250  137.4700 N   0  0  0  0  0  0  0  0  0  0  0  0
  179.9700  174.2620  139.2120 C   0  0  0  0  0  2  0  0  0  0  0  0
  184.3030  175.1860  134.8780 C   0  0  0  0  0  1  0  0  0  0  0  0
  183.1520  175.8900  135.3230 O   0  0  0  0  0  0  0  0  0  0  0  0
  193.9460  175.5540  134.6390 C   0  0  0  0  0  2  0  0  0  0  0  0
  195.0880  174.6010  134.9060 C   0  0  0  0  0  2  0  0  0  0  0  0
  196.3790  175.3390  135.0490 C   0  0  0  0  0  0  0  0  0  0  0  0
  196.4590  176.4690  134.5940 O   0  0  0  0  0  0  0  0  0  0  0  0
  197.8900  173.3910  135.1690 C   0  0  0  0  0  1  0  0  0  0  0  0
  197.5410  174.7310  135.8020 C   0  0  1  0  0  0  0  0  0  0  0  0
  198.6630  175.5550  135.6890 O   0  0  0  0  0  1  0  0  0  0  0  0
  198.3150  174.8850  138.0900 O   0  0  0  0  0  1  0  0  0  0  0  0
  197.2260  174.5220  137.2930 C   0  0  2  0  0  3  0  0  0  0  0  0
  196.8070  173.0870  137.6310 C   0  0  0  0  0  2  0  0  0  0  0  0
  195.4860  173.0470  138.3810 C   0  0  0  0  0  2  0  0  0  0  0  0
  195.2480  171.7650  138.8770 O   0  0  0  0  0  1  0  0  0  0  0  0
  190.9430  176.4760  141.6520 C   0  0  0  0  0  2  0  0  0  0  0  0
  190.8360  177.3040  145.2040 C   0  0  0  0  0  3  0  0  0  0  0  0
  191.5760  176.9790  144.0810 C   0  0  0  0  0  3  0  0  0  0  0  0
  189.3920  177.0840  143.5770 C   0  0  0  0  0  3  0  0  0  0  0  0
  190.6480  176.8490  143.0690 C   0  0  0  0  0  0  0  0  0  0  0  0
  189.5250  177.3670  144.8850 N   0  0  0  0  0  0  0  0  0  0  0  0
  187.6450  178.0780  148.0500 C   0  0  0  0  0  3  0  0  0  0  0  0
  188.6960  177.7980  147.1660 C   0  0  0  0  0  3  0  0  0  0  0  0
  186.0860  178.1000  146.2070 C   0  0  0  0  0  0  0  0  0  0  0  0
  188.4550  177.6670  145.7950 C   0  0  0  0  0  0  0  0  0  0  0  0
  184.8320  178.2580  145.7430 F   0  0  0  0  0  0  0  0  0  0  0  0
  187.1350  177.8200  145.3230 C   0  0  0  0  0  3  0  0  0  0  0  0
  186.3430  178.2300  147.5700 C   0  0  0  0  0  3  0  0  0  0  0  0
  1  4  2  0  0  0  0
  1  3  1  0  0  0  0
  3 16  1  1  0  0  0
  3  6  1  0  0  0  0
  4  7  1  0  0  0  0
  5  1  1  0  0  0  0
  7  6  2  0  0  0  0
  7 48  1  0  0  0  0
  8 12  1  1  0  0  0
 10  2  1  6  0  0  0
 10  8  1  0  0  0  0
 10  5  1  0  0  0  0
 11  2  1  0  0  0  0
 11 14  1  0  0  0  0
 12  4  1  0  0  0  0
 13  9  2  0  0  0  0
 14 13  1  0  0  0  0
 14  8  1  0  0  0  0
 15 16  2  0  0  0  0
 16 17  1  0  0  0  0
 18 17  1  0  0  0  0
 19 20  1  0  0  0  0
 19 18  1  1  0  0  0
 20 22  1  6  0  0  0
 21 19  1  0  0  0  0
 21 20  1  0  0  0  0
 24 25  1  6  0  0  0
 24 31  1  0  0  0  0
 24 26  1  0  0  0  0
 25 26  1  0  0  0  0
 26 22  1  1  0  0  0
 27 23  2  0  0  0  0
 27 25  1  0  0  0  0
 28 33  1  0  0  0  0
 29 30  1  0  0  0  0
 30 32  1  0  0  0  0
 31 29  1  6  0  0  0
 31 33  1  0  0  0  0
 32 28  2  0  0  0  0
 34 35  1  0  0  0  0
 35 27  1  0  0  0  0
 36 37  1  0  0  0  0
 36 13  1  0  0  0  0
 37 38  1  0  0  0  0
 38 41  1  0  0  0  0
 39 38  2  0  0  0  0
 41 40  1  6  0  0  0
 41 44  1  0  0  0  0
 42 41  1  0  0  0  0
 44 45  1  0  0  0  0
 44 43  1  1  0  0  0
 45 46  1  0  0  0  0
 46 47  1  0  0  0  0
 48 52  1  0  0  0  0
 50 49  2  0  0  0  0
 51 53  1  0  0  0  0
 52 51  2  0  0  0  0
 52 50  1  0  0  0  0
 53 49  1  0  0  0  0
 53 57  1  0  0  0  0
 55 54  2  0  0  0  0
 56 60  2  0  0  0  0
 57 55  1  0  0  0  0
 58 56  1  0  0  0  0
 59 57  2  0  0  0  0
 59 56  1  0  0  0  0
 60 54  1  0  0  0  0
M  END
>  <MODEL>
3

>  <REMARK>
 VINA RESULT:      -6.5      3.503      9.661
  Name = 
  18 active torsions:
  status: ('A' for Active; 'I' for Inactive)
    1  A    between atoms: C_9  and  C_25
    2  A    between atoms: C_10  and  C_60
    3  A    between atoms: O_12  and  C_48
    4  A    between atoms: C_13  and  C_18
    5  A    between atoms: C_13  and  C_27
    6  A    between atoms: C_15  and  C_24
    7  A    between atoms: C_15  and  C_47
    8  A    between atoms: C_18  and  C_57
    9  A    between atoms: C_20  and  C_42
   10  A    between atoms: C_25  and  S_56
   11  A    between atoms: C_27  and  C_44
   12  A    between atoms: C_28  and  C_29
   13  A    between atoms: C_29  and  C_37
   14  A    between atoms: C_32  and  N_52
   15  A    between atoms: N_40  and  C_50
   16  A    between atoms: C_42  and  S_56
   17  A    between atoms: C_44  and  C_59
   18  A    between atoms: C_59  and  C_60
                            x       y       z     vdW  Elec       q    Type
                         _______ _______ _______ _____ _____    ______ ____

>  <TORSDO>
F 18

$$$$
=
 OpenBabel10222417283D

 60 67  0  0  1  0  0  0  0  0999 V2000
  190.9480  176.6340  137.6220 C   0  0  0  0  0  0  0  0  0  0  0  0
  187.5440  178.2330  138.5420 C   0  0  0  0  0  2  0  0  0  0  0  0
  192.4160  176.8240  137.4310 C   0  0  2  0  0  3  0  0  0  0  0  0
  190.5540  175.6020  136.8770 C   0  0  0  0  0  0  0  0  0  0  0  0
  190.0300  177.6640  138.2420 C   0  0  0  0  0  2  0  0  0  0  0  0
  192.7600  175.8050  136.4440 N   0  0  0  0  0  0  0  0  0  0  0  0
  191.7140  175.1090  136.1680 C   0  0  0  0  0  0  0  0  0  0  0  0
  188.2270  176.7460  136.8010 C   0  0  1  0  0  3  0  0  0  0  0  0
  186.5050  175.8500  134.6550 O   0  0  0  0  0  0  0  0  0  0  0  0
  188.5850  177.1910  138.1940 C   0  0  2  0  0  3  0  0  0  0  0  0
  186.2990  177.7480  137.8020 C   0  0  0  0  0  2  0  0  0  0  0  0
  188.8460  175.0490  136.6320 S   0  0  0  0  0  0  0  0  0  0  0  0
  186.0060  176.5440  135.5780 C   0  0  0  0  0  0  0  0  0  0  0  0
  186.7840  176.8670  136.7420 N   0  0  0  0  0  0  0  0  0  0  0  0
  193.8850  175.6080  138.8310 O   0  0  0  0  0  0  0  0  0  0  0  0
  193.1630  176.5870  138.7050 C   0  0  0  0  0  0  0  0  0  0  0  0
  193.0690  177.7920  140.0200 S   0  0  0  0  0  0  0  0  0  0  0  0
  192.1060  176.6920  141.0980 C   0  0  0  0  0  2  0  0  0  0  0  0
  191.0810  177.4870  141.8760 C   0  0  1  0  0  3  0  0  0  0  0  0
  190.0940  176.5120  142.4850 C   0  0  1  0  0  3  0  0  0  0  0  0
  191.1810  177.1280  143.3420 C   0  0  0  0  0  2  0  0  0  0  0  0
  188.7820  177.2290  142.7390 C   0  0  0  0  0  2  0  0  0  0  0  0
  189.6670  177.1620  146.4030 O   0  0  0  0  0  0  0  0  0  0  0  0
  186.7110  176.8900  144.0570 N   0  0  2  0  0  0  0  0  0  0  0  0
  187.8520  176.9690  144.9780 N   0  0  0  0  0  0  0  0  0  0  0  0
  187.9030  176.3660  143.6520 C   0  0  2  0  0  3  0  0  0  0  0  0
  188.4420  177.3660  146.2110 C   0  0  0  0  0  0  0  0  0  0  0  0
  184.4550  178.1540  142.0450 C   0  0  0  0  0  3  0  0  0  0  0  0
  185.4200  178.9210  144.5890 C   0  0  0  0  0  2  0  0  0  0  0  0
  184.3030  179.6770  143.8650 C   0  0  0  0  0  2  0  0  0  0  0  0
  186.4210  178.2580  143.6150 C   0  0  2  0  0  3  0  0  0  0  0  0
  183.7110  178.8280  142.8520 N   0  0  0  0  0  0  0  0  0  0  0  0
  185.9510  178.2540  142.1440 C   0  0  0  0  0  2  0  0  0  0  0  0
  188.1600  178.2830  148.4750 C   0  0  0  0  0  1  0  0  0  0  0  0
  187.6490  177.9680  147.1880 O   0  0  0  0  0  0  0  0  0  0  0  0
  184.6260  177.0860  135.4030 C   0  0  0  0  0  2  0  0  0  0  0  0
  183.6460  176.1610  136.0890 C   0  0  0  0  0  2  0  0  0  0  0  0
  182.5750  176.9380  136.7820 C   0  0  0  0  0  0  0  0  0  0  0  0
  181.9490  177.7690  136.1440 O   0  0  0  0  0  0  0  0  0  0  0  0
  183.0470  175.4700  138.7100 C   0  0  0  0  0  1  0  0  0  0  0  0
  182.2240  176.6550  138.2260 C   0  0  1  0  0  0  0  0  0  0  0  0
  182.5600  177.7540  139.0200 O   0  0  0  0  0  1  0  0  0  0  0  0
  180.2520  176.8890  139.6100 O   0  0  0  0  0  1  0  0  0  0  0  0
  180.7280  176.3460  138.4140 C   0  0  2  0  0  3  0  0  0  0  0  0
  180.4080  174.8470  138.3750 C   0  0  0  0  0  2  0  0  0  0  0  0
  179.4230  174.5100  137.2680 C   0  0  0  0  0  2  0  0  0  0  0  0
  179.2740  175.5960  136.4040 O   0  0  0  0  0  1  0  0  0  0  0  0
  191.6770  174.0460  135.1150 C   0  0  0  0  0  2  0  0  0  0  0  0
  193.5600  170.9980  135.8060 C   0  0  0  0  0  3  0  0  0  0  0  0
  192.3520  171.6100  135.5250 C   0  0  0  0  0  3  0  0  0  0  0  0
  194.0020  173.1290  135.6000 C   0  0  0  0  0  3  0  0  0  0  0  0
  192.6540  172.9500  135.3950 C   0  0  0  0  0  0  0  0  0  0  0  0
  194.5440  171.9230  135.8460 N   0  0  0  0  0  0  0  0  0  0  0  0
  197.8840  170.2250  135.9670 C   0  0  0  0  0  3  0  0  0  0  0  0
  196.5350  170.4800  135.6840 C   0  0  0  0  0  3  0  0  0  0  0  0
  198.0490  172.3320  137.1330 C   0  0  0  0  0  0  0  0  0  0  0  0
  195.9290  171.6610  136.1200 C   0  0  0  0  0  0  0  0  0  0  0  0
  198.7800  173.2310  137.8190 F   0  0  0  0  0  0  0  0  0  0  0  0
  196.7010  172.5870  136.8510 C   0  0  0  0  0  3  0  0  0  0  0  0
  198.6390  171.1510  136.6890 C   0  0  0  0  0  3  0  0  0  0  0  0
  1  5  1  0  0  0  0
  3  1  1  0  0  0  0
  3 16  1  1  0  0  0
  4  1  2  0  0  0  0
  6  3  1  0  0  0  0
  7  6  2  0  0  0  0
  7  4  1  0  0  0  0
  8 12  1  1  0  0  0
  8 10  1  0  0  0  0
  9 13  2  0  0  0  0
 10  5  1  6  0  0  0
 10  2  1  0  0  0  0
 11  2  1  0  0  0  0
 12  4  1  0  0  0  0
 13 14  1  0  0  0  0
 14  8  1  0  0  0  0
 14 11  1  0  0  0  0
 16 15  2  0  0  0  0
 16 17  1  0  0  0  0
 17 18  1  0  0  0  0
 19 18  1  6  0  0  0
 19 20  1  0  0  0  0
 19 21  1  0  0  0  0
 20 22  1  1  0  0  0
 20 21  1  0  0  0  0
 24 25  1  1  0  0  0
 25 27  1  0  0  0  0
 26 22  1  6  0  0  0
 26 24  1  0  0  0  0
 26 25  1  0  0  0  0
 27 23  2  0  0  0  0
 27 35  1  0  0  0  0
 28 33  1  0  0  0  0
 28 32  2  0  0  0  0
 30 29  1  0  0  0  0
 31 33  1  6  0  0  0
 31 24  1  0  0  0  0
 31 29  1  0  0  0  0
 32 30  1  0  0  0  0
 35 34  1  0  0  0  0
 36 13  1  0  0  0  0
 36 37  1  0  0  0  0
 37 38  1  0  0  0  0
 38 41  1  0  0  0  0
 39 38  2  0  0  0  0
 41 44  1  0  0  0  0
 41 40  1  1  0  0  0
 41 42  1  0  0  0  0
 44 43  1  1  0  0  0
 45 44  1  0  0  0  0
 46 45  1  0  0  0  0
 47 46  1  0  0  0  0
 48 52  1  0  0  0  0
 48  7  1  0  0  0  0
 49 53  1  0  0  0  0
 50 49  2  0  0  0  0
 51 53  1  0  0  0  0
 52 50  1  0  0  0  0
 52 51  2  0  0  0  0
 53 57  1  0  0  0  0
 54 60  1  0  0  0  0
 55 54  2  0  0  0  0
 55 57  1  0  0  0  0
 56 58  1  0  0  0  0
 57 59  2  0  0  0  0
 59 56  1  0  0  0  0
 60 56  2  0  0  0  0
M  END
>  <MODEL>
4

>  <REMARK>
 VINA RESULT:      -6.0      4.394      9.587
  Name = 
  18 active torsions:
  status: ('A' for Active; 'I' for Inactive)
    1  A    between atoms: C_9  and  C_25
    2  A    between atoms: C_10  and  C_60
    3  A    between atoms: O_12  and  C_48
    4  A    between atoms: C_13  and  C_18
    5  A    between atoms: C_13  and  C_27
    6  A    between atoms: C_15  and  C_24
    7  A    between atoms: C_15  and  C_47
    8  A    between atoms: C_18  and  C_57
    9  A    between atoms: C_20  and  C_42
   10  A    between atoms: C_25  and  S_56
   11  A    between atoms: C_27  and  C_44
   12  A    between atoms: C_28  and  C_29
   13  A    between atoms: C_29  and  C_37
   14  A    between atoms: C_32  and  N_52
   15  A    between atoms: N_40  and  C_50
   16  A    between atoms: C_42  and  S_56
   17  A    between atoms: C_44  and  C_59
   18  A    between atoms: C_59  and  C_60
                            x       y       z     vdW  Elec       q    Type
                         _______ _______ _______ _____ _____    ______ ____

>  <TORSDO>
F 18

$$$$
=
 OpenBabel10222417283D

 60 67  0  0  1  0  0  0  0  0999 V2000
  185.7910  178.1470  137.9600 C   0  0  0  0  0  0  0  0  0  0  0  0
  182.6530  178.8670  140.1110 C   0  0  0  0  0  2  0  0  0  0  0  0
  187.0850  178.6540  137.4140 C   0  0  2  0  0  3  0  0  0  0  0  0
  185.3340  177.1940  137.1500 C   0  0  0  0  0  0  0  0  0  0  0  0
  184.9770  178.8600  139.0160 C   0  0  0  0  0  2  0  0  0  0  0  0
  187.2440  177.8980  136.1750 N   0  0  0  0  0  0  0  0  0  0  0  0
  186.2730  177.0620  136.0580 C   0  0  0  0  0  0  0  0  0  0  0  0
  182.9630  177.8490  137.9710 C   0  0  1  0  0  3  0  0  0  0  0  0
  180.8020  176.9900  136.2480 O   0  0  0  0  0  0  0  0  0  0  0  0
  183.6700  178.1240  139.2720 C   0  0  2  0  0  3  0  0  0  0  0  0
  181.3210  178.2720  139.6600 C   0  0  0  0  0  2  0  0  0  0  0  0
  183.7310  176.3600  137.2780 S   0  0  0  0  0  0  0  0  0  0  0  0
  180.5230  177.4120  137.4010 C   0  0  0  0  0  0  0  0  0  0  0  0
  181.5710  177.6890  138.3430 N   0  0  0  0  0  0  0  0  0  0  0  0
  188.1120  178.6010  139.5450 O   0  0  0  0  0  0  0  0  0  0  0  0
  188.2160  178.3660  138.3490 C   0  0  0  0  0  0  0  0  0  0  0  0
  189.6980  177.5890  137.7260 S   0  0  0  0  0  0  0  0  0  0  0  0
  189.9520  176.6230  139.2420 C   0  0  0  0  0  2  0  0  0  0  0  0
  189.8420  177.5160  140.4580 C   0  0  1  0  0  3  0  0  0  0  0  0
  189.8710  176.6370  141.6920 C   0  0  1  0  0  3  0  0  0  0  0  0
  191.1090  177.4030  141.2750 C   0  0  0  0  0  2  0  0  0  0  0  0
  189.1870  177.3630  142.8330 C   0  0  0  0  0  2  0  0  0  0  0  0
  190.4510  177.0030  146.3670 O   0  0  0  0  0  0  0  0  0  0  0  0
  187.2950  176.7180  144.2990 N   0  0  2  0  0  0  0  0  0  0  0  0
  188.5170  176.8010  145.1100 N   0  0  0  0  0  0  0  0  0  0  0  0
  188.4740  176.3410  143.7270 C   0  0  2  0  0  3  0  0  0  0  0  0
  189.2010  177.1200  146.3160 C   0  0  0  0  0  0  0  0  0  0  0  0
  184.7120  177.9820  142.7290 C   0  0  0  0  0  3  0  0  0  0  0  0
  185.9570  178.5850  145.1940 C   0  0  0  0  0  2  0  0  0  0  0  0
  184.7060  179.3160  144.6970 C   0  0  0  0  0  2  0  0  0  0  0  0
  186.8590  178.0950  144.0390 C   0  0  2  0  0  3  0  0  0  0  0  0
  184.0400  178.5200  143.6880 N   0  0  0  0  0  0  0  0  0  0  0  0
  186.1980  178.1890  142.6460 C   0  0  0  0  0  2  0  0  0  0  0  0
  189.1080  178.1030  148.5680 C   0  0  0  0  0  1  0  0  0  0  0  0
  188.4720  177.5520  147.4240 O   0  0  0  0  0  0  0  0  0  0  0  0
  179.0950  177.6900  137.7370 C   0  0  0  0  0  2  0  0  0  0  0  0
  178.9310  179.1710  137.9910 C   0  0  0  0  0  2  0  0  0  0  0  0
  179.3670  179.9690  136.8060 C   0  0  0  0  0  0  0  0  0  0  0  0
  178.9310  179.6680  135.7070 O   0  0  0  0  0  0  0  0  0  0  0  0
  180.2910  181.5760  138.4360 C   0  0  0  0  0  1  0  0  0  0  0  0
  180.2750  181.1670  136.9700 C   0  0  1  0  0  0  0  0  0  0  0  0
  181.5820  180.8240  136.6140 O   0  0  0  0  0  1  0  0  0  0  0  0
  180.9070  182.9180  135.4230 O   0  0  0  0  0  1  0  0  0  0  0  0
  179.8260  182.3630  136.1130 C   0  0  2  0  0  3  0  0  0  0  0  0
  179.1230  183.4590  136.9210 C   0  0  0  0  0  2  0  0  0  0  0  0
  179.7250  184.8290  136.6560 C   0  0  0  0  0  2  0  0  0  0  0  0
  180.2530  185.3630  137.8320 O   0  0  0  0  0  1  0  0  0  0  0  0
  186.0600  176.1990  134.8550 C   0  0  0  0  0  2  0  0  0  0  0  0
  185.8720  172.7160  135.9280 C   0  0  0  0  0  3  0  0  0  0  0  0
  186.6100  173.8780  135.7880 C   0  0  0  0  0  3  0  0  0  0  0  0
  184.5160  174.1830  135.0410 C   0  0  0  0  0  3  0  0  0  0  0  0
  185.7360  174.7890  135.2310 C   0  0  0  0  0  0  0  0  0  0  0  0
  184.6140  172.9150  135.4780 N   0  0  0  0  0  0  0  0  0  0  0  0
  182.8310  169.6280  135.2110 C   0  0  0  0  0  3  0  0  0  0  0  0
  183.8590  170.5810  135.2460 C   0  0  0  0  0  3  0  0  0  0  0  0
  181.1960  171.3630  135.5940 C   0  0  0  0  0  0  0  0  0  0  0  0
  183.5680  171.9320  135.4540 C   0  0  0  0  0  0  0  0  0  0  0  0
  179.9160  171.7390  135.7740 F   0  0  0  0  0  0  0  0  0  0  0  0
  182.2220  172.3150  135.6280 C   0  0  0  0  0  3  0  0  0  0  0  0
  181.5020  170.0200  135.3860 C   0  0  0  0  0  3  0  0  0  0  0  0
  1  5  1  0  0  0  0
  3  1  1  0  0  0  0
  3 16  1  1  0  0  0
  4 12  1  0  0  0  0
  4  1  2  0  0  0  0
  6  3  1  0  0  0  0
  7  6  2  0  0  0  0
  7  4  1  0  0  0  0
  8 12  1  1  0  0  0
  8 14  1  0  0  0  0
  8 10  1  0  0  0  0
  9 13  2  0  0  0  0
 10  5  1  6  0  0  0
 10  2  1  0  0  0  0
 11  2  1  0  0  0  0
 13 36  1  0  0  0  0
 13 14  1  0  0  0  0
 14 11  1  0  0  0  0
 16 15  2  0  0  0  0
 17 16  1  0  0  0  0
 17 18  1  0  0  0  0
 19 18  1  6  0  0  0
 19 21  1  0  0  0  0
 19 20  1  0  0  0  0
 20 22  1  1  0  0  0
 21 20  1  0  0  0  0
 24 25  1  1  0  0  0
 25 27  1  0  0  0  0
 26 22  1  6  0  0  0
 26 24  1  0  0  0  0
 26 25  1  0  0  0  0
 27 23  2  0  0  0  0
 27 35  1  0  0  0  0
 28 32  2  0  0  0  0
 30 29  1  0  0  0  0
 31 33  1  6  0  0  0
 31 24  1  0  0  0  0
 31 29  1  0  0  0  0
 32 30  1  0  0  0  0
 33 28  1  0  0  0  0
 35 34  1  0  0  0  0
 36 37  1  0  0  0  0
 38 41  1  0  0  0  0
 38 37  1  0  0  0  0
 39 38  2  0  0  0  0
 41 40  1  1  0  0  0
 42 41  1  0  0  0  0
 44 43  1  1  0  0  0
 44 45  1  0  0  0  0
 44 41  1  0  0  0  0
 46 45  1  0  0  0  0
 46 47  1  0  0  0  0
 48 52  1  0  0  0  0
 48  7  1  0  0  0  0
 50 49  2  0  0  0  0
 51 52  2  0  0  0  0
 51 53  1  0  0  0  0
 52 50  1  0  0  0  0
 53 49  1  0  0  0  0
 54 55  2  0  0  0  0
 54 60  1  0  0  0  0
 55 57  1  0  0  0  0
 56 59  1  0  0  0  0
 56 58  1  0  0  0  0
 57 53  1  0  0  0  0
 57 59  2  0  0  0  0
 60 56  2  0  0  0  0
M  END
>  <MODEL>
5

>  <REMARK>
 VINA RESULT:      -5.9      3.382      7.196
  Name = 
  18 active torsions:
  status: ('A' for Active; 'I' for Inactive)
    1  A    between atoms: C_9  and  C_25
    2  A    between atoms: C_10  and  C_60
    3  A    between atoms: O_12  and  C_48
    4  A    between atoms: C_13  and  C_18
    5  A    between atoms: C_13  and  C_27
    6  A    between atoms: C_15  and  C_24
    7  A    between atoms: C_15  and  C_47
    8  A    between atoms: C_18  and  C_57
    9  A    between atoms: C_20  and  C_42
   10  A    between atoms: C_25  and  S_56
   11  A    between atoms: C_27  and  C_44
   12  A    between atoms: C_28  and  C_29
   13  A    between atoms: C_29  and  C_37
   14  A    between atoms: C_32  and  N_52
   15  A    between atoms: N_40  and  C_50
   16  A    between atoms: C_42  and  S_56
   17  A    between atoms: C_44  and  C_59
   18  A    between atoms: C_59  and  C_60
                            x       y       z     vdW  Elec       q    Type
                         _______ _______ _______ _____ _____    ______ ____

>  <TORSDO>
F 18

$$$$
=
 OpenBabel10222417283D

 60 67  0  0  1  0  0  0  0  0999 V2000
  187.3740  177.2620  136.7920 C   0  0  0  0  0  0  0  0  0  0  0  0
  187.4200  178.2550  140.5340 C   0  0  0  0  0  2  0  0  0  0  0  0
  186.6760  176.5300  135.6940 C   0  0  2  0  0  3  0  0  0  0  0  0
  188.6670  177.3510  136.4860 C   0  0  0  0  0  0  0  0  0  0  0  0
  186.7820  177.5050  138.1610 C   0  0  0  0  0  2  0  0  0  0  0  0
  187.7620  176.1820  134.7810 N   0  0  0  0  0  0  0  0  0  0  0  0
  188.8640  176.6750  135.2230 C   0  0  0  0  0  0  0  0  0  0  0  0
  189.1040  177.4510  139.0410 C   0  0  1  0  0  3  0  0  0  0  0  0
  191.8110  176.8070  139.8350 O   0  0  0  0  0  0  0  0  0  0  0  0
  187.7920  178.1910  139.0680 C   0  0  2  0  0  3  0  0  0  0  0  0
  188.7720  178.3400  141.2380 C   0  0  0  0  0  2  0  0  0  0  0  0
  189.9750  178.0110  137.5520 S   0  0  0  0  0  0  0  0  0  0  0  0
  191.0420  177.3280  140.6840 C   0  0  0  0  0  0  0  0  0  0  0  0
  189.7500  177.8150  140.2870 N   0  0  0  0  0  0  0  0  0  0  0  0
  186.0050  178.5150  134.5940 O   0  0  0  0  0  0  0  0  0  0  0  0
  185.6810  177.4090  135.0050 C   0  0  0  0  0  0  0  0  0  0  0  0
  184.0290  176.8020  134.7020 S   0  0  0  0  0  0  0  0  0  0  0  0
  183.8100  176.2420  136.4160 C   0  0  0  0  0  2  0  0  0  0  0  0
  183.2760  177.3700  137.2710 C   0  0  1  0  0  3  0  0  0  0  0  0
  181.7940  177.5120  136.9910 C   0  0  1  0  0  3  0  0  0  0  0  0
  182.2660  176.8160  138.2510 C   0  0  0  0  0  2  0  0  0  0  0  0
  181.3590  178.9250  137.3260 C   0  0  0  0  0  2  0  0  0  0  0  0
  180.5610  178.1480  140.9270 O   0  0  0  0  0  0  0  0  0  0  0  0
  179.2840  180.1220  137.9620 N   0  0  2  0  0  0  0  0  0  0  0  0
  179.7550  179.3410  139.1140 N   0  0  0  0  0  0  0  0  0  0  0  0
  179.8790  178.9170  137.7250 C   0  0  2  0  0  3  0  0  0  0  0  0
  179.9540  179.1670  140.5120 C   0  0  0  0  0  0  0  0  0  0  0  0
  180.0490  182.1250  135.4850 C   0  0  0  0  0  3  0  0  0  0  0  0
  179.3340  182.5760  138.1820 C   0  0  0  0  0  2  0  0  0  0  0  0
  179.6070  183.7150  137.1960 C   0  0  0  0  0  2  0  0  0  0  0  0
  180.1490  181.3030  137.8630 C   0  0  2  0  0  3  0  0  0  0  0  0
  179.4870  183.2290  135.8370 N   0  0  0  0  0  0  0  0  0  0  0  0
  180.8460  181.3360  136.4850 C   0  0  0  0  0  2  0  0  0  0  0  0
  179.9160  180.1970  142.7440 C   0  0  0  0  0  1  0  0  0  0  0  0
  179.4660  180.1270  141.3990 O   0  0  0  0  0  0  0  0  0  0  0  0
  191.4660  177.3570  142.1150 C   0  0  0  0  0  2  0  0  0  0  0  0
  190.8070  176.2100  142.8460 C   0  0  0  0  0  2  0  0  0  0  0  0
  191.0230  176.3210  144.3200 C   0  0  0  0  0  0  0  0  0  0  0  0
  191.9040  175.6500  144.8330 O   0  0  0  0  0  0  0  0  0  0  0  0
  190.7550  177.2910  146.5740 C   0  0  0  0  0  1  0  0  0  0  0  0
  190.2160  177.2930  145.1500 C   0  0  1  0  0  0  0  0  0  0  0  0
  190.3660  178.5870  144.6450 O   0  0  0  0  0  1  0  0  0  0  0  0
  188.3170  176.3870  143.9540 O   0  0  0  0  0  1  0  0  0  0  0  0
  188.7190  176.9400  145.1730 C   0  0  2  0  0  3  0  0  0  0  0  0
  187.8180  178.1320  145.5100 C   0  0  0  0  0  2  0  0  0  0  0  0
  186.3770  177.7050  145.7340 C   0  0  0  0  0  2  0  0  0  0  0  0
  185.5020  178.6950  145.2840 O   0  0  0  0  0  1  0  0  0  0  0  0
  190.1990  176.4230  134.5940 C   0  0  0  0  0  2  0  0  0  0  0  0
  191.3040  173.2120  135.9280 C   0  0  0  0  0  3  0  0  0  0  0  0
  190.3250  173.9680  135.3090 C   0  0  0  0  0  3  0  0  0  0  0  0
  192.1420  175.2190  135.7140 C   0  0  0  0  0  3  0  0  0  0  0  0
  190.8750  175.2270  135.1810 C   0  0  0  0  0  0  0  0  0  0  0  0
  192.3920  173.9770  136.1630 N   0  0  0  0  0  0  0  0  0  0  0  0
  195.2190  171.7940  137.3020 C   0  0  0  0  0  3  0  0  0  0  0  0
  194.0440  172.2180  136.6670 C   0  0  0  0  0  3  0  0  0  0  0  0
  195.5350  174.0040  138.2190 C   0  0  0  0  0  0  0  0  0  0  0  0
  193.6020  173.5380  136.8000 C   0  0  0  0  0  0  0  0  0  0  0  0
  196.2590  174.8680  138.9550 F   0  0  0  0  0  0  0  0  0  0  0  0
  194.3620  174.4290  137.5860 C   0  0  0  0  0  3  0  0  0  0  0  0
  195.9630  172.6860  138.0760 C   0  0  0  0  0  3  0  0  0  0  0  0
  1  5  1  0  0  0  0
  2 11  1  0  0  0  0
  3 16  1  6  0  0  0
  3  1  1  0  0  0  0
  4  1  2  0  0  0  0
  4 12  1  0  0  0  0
  6  7  2  0  0  0  0
  6  3  1  0  0  0  0
  7  4  1  0  0  0  0
  8 12  1  6  0  0  0
  8 10  1  0  0  0  0
  8 14  1  0  0  0  0
  9 13  2  0  0  0  0
 10  5  1  6  0  0  0
 10  2  1  0  0  0  0
 13 36  1  0  0  0  0
 14 13  1  0  0  0  0
 14 11  1  0  0  0  0
 15 16  2  0  0  0  0
 17 16  1  0  0  0  0
 17 18  1  0  0  0  0
 19 18  1  6  0  0  0
 19 21  1  0  0  0  0
 20 19  1  0  0  0  0
 20 22  1  1  0  0  0
 20 21  1  0  0  0  0
 24 25  1  1  0  0  0
 25 27  1  0  0  0  0
 26 22  1  6  0  0  0
 26 24  1  0  0  0  0
 26 25  1  0  0  0  0
 27 23  2  0  0  0  0
 27 35  1  0  0  0  0
 28 32  2  0  0  0  0
 28 33  1  0  0  0  0
 30 29  1  0  0  0  0
 31 33  1  6  0  0  0
 31 24  1  0  0  0  0
 31 29  1  0  0  0  0
 32 30  1  0  0  0  0
 35 34  1  0  0  0  0
 36 37  1  0  0  0  0
 37 38  1  0  0  0  0
 38 39  2  0  0  0  0
 38 41  1  0  0  0  0
 41 44  1  0  0  0  0
 41 40  1  1  0  0  0
 42 41  1  0  0  0  0
 44 43  1  6  0  0  0
 44 45  1  0  0  0  0
 45 46  1  0  0  0  0
 47 46  1  0  0  0  0
 48 52  1  0  0  0  0
 48  7  1  0  0  0  0
 49 53  1  0  0  0  0
 50 49  2  0  0  0  0
 51 53  1  0  0  0  0
 52 50  1  0  0  0  0
 52 51  2  0  0  0  0
 53 57  1  0  0  0  0
 54 60  1  0  0  0  0
 55 57  1  0  0  0  0
 55 54  2  0  0  0  0
 56 58  1  0  0  0  0
 57 59  2  0  0  0  0
 59 56  1  0  0  0  0
 60 56  2  0  0  0  0
M  END
>  <MODEL>
6

>  <REMARK>
 VINA RESULT:      -5.8      3.765      9.856
  Name = 
  18 active torsions:
  status: ('A' for Active; 'I' for Inactive)
    1  A    between atoms: C_9  and  C_25
    2  A    between atoms: C_10  and  C_60
    3  A    between atoms: O_12  and  C_48
    4  A    between atoms: C_13  and  C_18
    5  A    between atoms: C_13  and  C_27
    6  A    between atoms: C_15  and  C_24
    7  A    between atoms: C_15  and  C_47
    8  A    between atoms: C_18  and  C_57
    9  A    between atoms: C_20  and  C_42
   10  A    between atoms: C_25  and  S_56
   11  A    between atoms: C_27  and  C_44
   12  A    between atoms: C_28  and  C_29
   13  A    between atoms: C_29  and  C_37
   14  A    between atoms: C_32  and  N_52
   15  A    between atoms: N_40  and  C_50
   16  A    between atoms: C_42  and  S_56
   17  A    between atoms: C_44  and  C_59
   18  A    between atoms: C_59  and  C_60
                            x       y       z     vdW  Elec       q    Type
                         _______ _______ _______ _____ _____    ______ ____

>  <TORSDO>
F 18

$$$$
=
 OpenBabel10222417283D

 60 67  0  0  1  0  0  0  0  0999 V2000
  190.1940  176.5880  137.5140 C   0  0  0  0  0  0  0  0  0  0  0  0
  186.9820  178.2710  138.8730 C   0  0  0  0  0  2  0  0  0  0  0  0
  191.6320  176.7380  137.1470 C   0  0  2  0  0  3  0  0  0  0  0  0
  189.6780  175.5840  136.8070 C   0  0  0  0  0  0  0  0  0  0  0  0
  189.3930  177.6330  138.2590 C   0  0  0  0  0  2  0  0  0  0  0  0
  191.8190  175.7280  136.1080 N   0  0  0  0  0  0  0  0  0  0  0  0
  190.7250  175.0700  135.9520 C   0  0  0  0  0  0  0  0  0  0  0  0
  187.3980  176.7990  137.0360 C   0  0  1  0  0  3  0  0  0  0  0  0
  185.3970  175.9990  135.1050 O   0  0  0  0  0  0  0  0  0  0  0  0
  187.9380  177.2050  138.3820 C   0  0  2  0  0  3  0  0  0  0  0  0
  185.6410  177.8390  138.2840 C   0  0  0  0  0  2  0  0  0  0  0  0
  187.9360  175.0890  136.7660 S   0  0  0  0  0  0  0  0  0  0  0  0
  185.0380  176.6900  136.0940 C   0  0  0  0  0  0  0  0  0  0  0  0
  185.9630  176.9650  137.1580 N   0  0  0  0  0  0  0  0  0  0  0  0
  193.1110  175.3840  138.4040 O   0  0  0  0  0  0  0  0  0  0  0  0
  192.5220  176.4530  138.3150 C   0  0  0  0  0  0  0  0  0  0  0  0
  192.7960  177.7180  139.5440 S   0  0  0  0  0  0  0  0  0  0  0  0
  192.0150  176.7480  140.8660 C   0  0  0  0  0  2  0  0  0  0  0  0
  190.9950  177.5880  141.6000 C   0  0  1  0  0  3  0  0  0  0  0  0
  190.1950  176.6730  142.5050 C   0  0  1  0  0  3  0  0  0  0  0  0
  191.2890  177.5470  143.0830 C   0  0  0  0  0  2  0  0  0  0  0  0
  188.8440  177.3050  142.7800 C   0  0  0  0  0  2  0  0  0  0  0  0
  189.9270  176.9500  146.3740 O   0  0  0  0  0  0  0  0  0  0  0  0
  186.8480  176.8470  144.1770 N   0  0  2  0  0  0  0  0  0  0  0  0
  188.0380  176.8600  145.0380 N   0  0  0  0  0  0  0  0  0  0  0  0
  188.0180  176.3660  143.6670 C   0  0  2  0  0  3  0  0  0  0  0  0
  188.6930  177.1600  146.2650 C   0  0  0  0  0  0  0  0  0  0  0  0
  184.5930  178.2480  142.2560 C   0  0  0  0  0  3  0  0  0  0  0  0
  185.5000  178.7880  144.8780 C   0  0  0  0  0  2  0  0  0  0  0  0
  184.3760  179.5850  144.2100 C   0  0  0  0  0  2  0  0  0  0  0  0
  186.5320  178.2450  143.8630 C   0  0  2  0  0  3  0  0  0  0  0  0
  183.8200  178.8240  143.1110 N   0  0  0  0  0  0  0  0  0  0  0  0
  186.0840  178.3720  142.3900 C   0  0  0  0  0  2  0  0  0  0  0  0
  188.5810  178.1940  148.4940 C   0  0  0  0  0  1  0  0  0  0  0  0
  187.9530  177.6770  147.3290 O   0  0  0  0  0  0  0  0  0  0  0  0
  183.6650  177.2770  136.0990 C   0  0  0  0  0  2  0  0  0  0  0  0
  182.9540  176.8490  137.3630 C   0  0  0  0  0  2  0  0  0  0  0  0
  182.8890  175.3600  137.4610 C   0  0  0  0  0  0  0  0  0  0  0  0
  183.5640  174.8010  138.3100 O   0  0  0  0  0  0  0  0  0  0  0  0
  180.8700  173.9400  137.4410 C   0  0  0  0  0  1  0  0  0  0  0  0
  181.9550  174.5650  136.5760 C   0  0  1  0  0  0  0  0  0  0  0  0
  181.3290  175.4160  135.6630 O   0  0  0  0  0  1  0  0  0  0  0  0
  182.0300  173.1660  134.6020 O   0  0  0  0  0  1  0  0  0  0  0  0
  182.6880  173.4570  135.8010 C   0  0  2  0  0  3  0  0  0  0  0  0
  182.8660  172.1660  136.6070 C   0  0  0  0  0  2  0  0  0  0  0  0
  184.2190  171.5240  136.3530 C   0  0  0  0  0  2  0  0  0  0  0  0
  184.0590  170.2090  135.9150 O   0  0  0  0  0  1  0  0  0  0  0  0
  190.5250  174.0300  134.8950 C   0  0  0  0  0  2  0  0  0  0  0  0
  192.4040  170.9080  135.0850 C   0  0  0  0  0  3  0  0  0  0  0  0
  191.2220  171.5680  134.8010 C   0  0  0  0  0  3  0  0  0  0  0  0
  192.7980  173.0270  135.4490 C   0  0  0  0  0  3  0  0  0  0  0  0
  191.4940  172.9010  135.0330 C   0  0  0  0  0  0  0  0  0  0  0  0
  193.3440  171.7980  135.4710 N   0  0  0  0  0  0  0  0  0  0  0  0
  197.0880  171.6030  135.4710 C   0  0  0  0  0  3  0  0  0  0  0  0
  195.7760  171.9280  135.0970 C   0  0  0  0  0  3  0  0  0  0  0  0
  196.2530  170.3750  137.3740 C   0  0  0  0  0  0  0  0  0  0  0  0
  194.6900  171.4810  135.8560 C   0  0  0  0  0  0  0  0  0  0  0  0
  196.4810  169.6390  138.4780 F   0  0  0  0  0  0  0  0  0  0  0  0
  194.9430  170.6980  137.0010 C   0  0  0  0  0  3  0  0  0  0  0  0
  197.3240  170.8290  136.6080 C   0  0  0  0  0  3  0  0  0  0  0  0
  1  5  1  0  0  0  0
  3  1  1  0  0  0  0
  3 16  1  1  0  0  0
  4  1  2  0  0  0  0
  6  3  1  0  0  0  0
  7  6  2  0  0  0  0
  7  4  1  0  0  0  0
  8 12  1  1  0  0  0
  8 14  1  0  0  0  0
  8 10  1  0  0  0  0
  9 13  2  0  0  0  0
 10  5  1  6  0  0  0
 10  2  1  0  0  0  0
 11  2  1  0  0  0  0
 12  4  1  0  0  0  0
 13 36  1  0  0  0  0
 13 14  1  0  0  0  0
 14 11  1  0  0  0  0
 16 15  2  0  0  0  0
 16 17  1  0  0  0  0
 17 18  1  0  0  0  0
 19 18  1  6  0  0  0
 19 20  1  0  0  0  0
 19 21  1  0  0  0  0
 20 22  1  1  0  0  0
 20 21  1  0  0  0  0
 24 25  1  1  0  0  0
 25 27  1  0  0  0  0
 26 22  1  6  0  0  0
 26 24  1  0  0  0  0
 26 25  1  0  0  0  0
 27 23  2  0  0  0  0
 27 35  1  0  0  0  0
 28 33  1  0  0  0  0
 28 32  2  0  0  0  0
 30 29  1  0  0  0  0
 31 33  1  6  0  0  0
 31 24  1  0  0  0  0
 31 29  1  0  0  0  0
 32 30  1  0  0  0  0
 35 34  1  0  0  0  0
 36 37  1  0  0  0  0
 37 38  1  0  0  0  0
 38 39  2  0  0  0  0
 41 40  1  1  0  0  0
 41 38  1  0  0  0  0
 42 41  1  0  0  0  0
 44 43  1  6  0  0  0
 44 41  1  0  0  0  0
 44 45  1  0  0  0  0
 46 45  1  0  0  0  0
 47 46  1  0  0  0  0
 48 52  1  0  0  0  0
 48  7  1  0  0  0  0
 49 53  1  0  0  0  0
 50 52  1  0  0  0  0
 50 49  2  0  0  0  0
 51 53  1  0  0  0  0
 52 51  2  0  0  0  0
 53 57  1  0  0  0  0
 54 60  1  0  0  0  0
 55 54  2  0  0  0  0
 55 57  1  0  0  0  0
 56 58  1  0  0  0  0
 57 59  2  0  0  0  0
 59 56  1  0  0  0  0
 60 56  2  0  0  0  0
M  END
>  <MODEL>
7

>  <REMARK>
 VINA RESULT:      -5.6      4.098      8.895
  Name = 
  18 active torsions:
  status: ('A' for Active; 'I' for Inactive)
    1  A    between atoms: C_9  and  C_25
    2  A    between atoms: C_10  and  C_60
    3  A    between atoms: O_12  and  C_48
    4  A    between atoms: C_13  and  C_18
    5  A    between atoms: C_13  and  C_27
    6  A    between atoms: C_15  and  C_24
    7  A    between atoms: C_15  and  C_47
    8  A    between atoms: C_18  and  C_57
    9  A    between atoms: C_20  and  C_42
   10  A    between atoms: C_25  and  S_56
   11  A    between atoms: C_27  and  C_44
   12  A    between atoms: C_28  and  C_29
   13  A    between atoms: C_29  and  C_37
   14  A    between atoms: C_32  and  N_52
   15  A    between atoms: N_40  and  C_50
   16  A    between atoms: C_42  and  S_56
   17  A    between atoms: C_44  and  C_59
   18  A    between atoms: C_59  and  C_60
                            x       y       z     vdW  Elec       q    Type
                         _______ _______ _______ _____ _____    ______ ____

>  <TORSDO>
F 18

$$$$
=
 OpenBabel10222417283D

 60 67  0  0  1  0  0  0  0  0999 V2000
  182.7420  177.7170  140.2040 C   0  0  0  0  0  0  0  0  0  0  0  0
  179.7300  175.2930  139.9940 C   0  0  0  0  0  2  0  0  0  0  0  0
  183.2770  179.0170  140.7060 C   0  0  2  0  0  3  0  0  0  0  0  0
  183.4300  177.3670  139.1190 C   0  0  0  0  0  0  0  0  0  0  0  0
  181.4180  177.1220  140.6280 C   0  0  0  0  0  2  0  0  0  0  0  0
  184.3030  179.3580  139.7240 N   0  0  0  0  0  0  0  0  0  0  0  0
  184.3980  178.4100  138.8610 C   0  0  0  0  0  0  0  0  0  0  0  0
  181.3040  176.0790  138.3770 C   0  0  1  0  0  3  0  0  0  0  0  0
  181.1870  175.4570  135.5530 O   0  0  0  0  0  0  0  0  0  0  0  0
  181.1330  175.8440  139.8550 C   0  0  2  0  0  3  0  0  0  0  0  0
  179.5300  174.5070  138.7000 C   0  0  0  0  0  2  0  0  0  0  0  0
  183.0820  175.9520  138.0420 S   0  0  0  0  0  0  0  0  0  0  0  0
  180.3690  174.8970  136.3280 C   0  0  0  0  0  0  0  0  0  0  0  0
  180.5000  175.0490  137.7510 N   0  0  0  0  0  0  0  0  0  0  0  0
  185.1020  178.8210  142.1990 O   0  0  0  0  0  0  0  0  0  0  0  0
  183.8870  178.8630  142.0630 C   0  0  0  0  0  0  0  0  0  0  0  0
  182.8340  178.8310  143.5050 S   0  0  0  0  0  0  0  0  0  0  0  0
  184.1460  179.4380  144.6030 C   0  0  0  0  0  2  0  0  0  0  0  0
  185.0170  178.2910  145.0640 C   0  0  1  0  0  3  0  0  0  0  0  0
  186.2620  178.8720  145.7030 C   0  0  1  0  0  3  0  0  0  0  0  0
  185.1430  178.3330  146.5700 C   0  0  0  0  0  2  0  0  0  0  0  0
  187.3800  177.8510  145.6290 C   0  0  0  0  0  2  0  0  0  0  0  0
  189.5440  176.5340  148.4210 O   0  0  0  0  0  0  0  0  0  0  0  0
  189.7600  178.2180  145.0390 N   0  0  2  0  0  0  0  0  0  0  0  0
  189.6900  177.5860  146.3630 N   0  0  0  0  0  0  0  0  0  0  0  0
  188.7230  178.5540  145.8600 C   0  0  2  0  0  3  0  0  0  0  0  0
  190.1860  176.6910  147.3520 C   0  0  0  0  0  0  0  0  0  0  0  0
  189.6130  178.2230  141.7660 C   0  0  0  0  0  3  0  0  0  0  0  0
  190.8120  176.4820  143.6420 C   0  0  0  0  0  2  0  0  0  0  0  0
  190.9300  176.2770  142.1290 C   0  0  0  0  0  2  0  0  0  0  0  0
  189.4900  177.1690  144.0500 C   0  0  2  0  0  3  0  0  0  0  0  0
  190.6410  177.5180  141.4410 N   0  0  0  0  0  0  0  0  0  0  0  0
  188.6960  177.7520  142.8600 C   0  0  0  0  0  2  0  0  0  0  0  0
  192.4070  175.9450  148.1000 C   0  0  0  0  0  1  0  0  0  0  0  0
  191.3800  176.0070  147.1210 O   0  0  0  0  0  0  0  0  0  0  0  0
  179.2230  174.1430  135.7390 C   0  0  0  0  0  2  0  0  0  0  0  0
  179.7320  173.2880  134.6010 C   0  0  0  0  0  2  0  0  0  0  0  0
  181.0160  172.6190  134.9670 C   0  0  0  0  0  0  0  0  0  0  0  0
  182.0650  173.1580  134.6550 O   0  0  0  0  0  0  0  0  0  0  0  0
  179.8560  171.3640  136.7490 C   0  0  0  0  0  1  0  0  0  0  0  0
  181.0200  171.3370  135.7690 C   0  0  1  0  0  0  0  0  0  0  0  0
  180.8290  170.2450  134.9180 O   0  0  0  0  0  1  0  0  0  0  0  0
  182.6640  172.2850  137.2720 O   0  0  0  0  0  1  0  0  0  0  0  0
  182.3330  171.1370  136.5450 C   0  0  2  0  0  3  0  0  0  0  0  0
  183.5150  170.7460  135.6510 C   0  0  0  0  0  2  0  0  0  0  0  0
  184.7540  171.5690  135.9610 C   0  0  0  0  0  2  0  0  0  0  0  0
  185.8970  170.9180  135.4960 O   0  0  0  0  0  1  0  0  0  0  0  0
  185.2760  178.4730  137.6500 C   0  0  0  0  0  2  0  0  0  0  0  0
  188.4890  177.1290  138.7380 C   0  0  0  0  0  3  0  0  0  0  0  0
  187.3800  177.9120  138.9990 C   0  0  0  0  0  3  0  0  0  0  0  0
  187.2110  176.9630  136.9730 C   0  0  0  0  0  3  0  0  0  0  0  0
  186.5870  177.7910  137.8760 C   0  0  0  0  0  0  0  0  0  0  0  0
  188.3730  176.5620  137.5180 N   0  0  0  0  0  0  0  0  0  0  0  0
  190.0830  174.3580  135.0130 C   0  0  0  0  0  3  0  0  0  0  0  0
  189.1440  175.2170  135.6020 C   0  0  0  0  0  3  0  0  0  0  0  0
  191.4270  174.4340  137.0160 C   0  0  0  0  0  0  0  0  0  0  0  0
  189.3370  175.6930  136.9020 C   0  0  0  0  0  0  0  0  0  0  0  0
  192.5320  174.0680  137.6930 F   0  0  0  0  0  0  0  0  0  0  0  0
  190.4910  175.2900  137.6060 C   0  0  0  0  0  3  0  0  0  0  0  0
  191.2220  173.9690  135.7190 C   0  0  0  0  0  3  0  0  0  0  0  0
  1  5  1  0  0  0  0
  1  3  1  0  0  0  0
  3 16  1  1  0  0  0
  4  1  2  0  0  0  0
  6  3  1  0  0  0  0
  7  4  1  0  0  0  0
  7  6  2  0  0  0  0
  8 12  1  6  0  0  0
  8 10  1  0  0  0  0
  9 13  2  0  0  0  0
 10  2  1  6  0  0  0
 10  5  1  0  0  0  0
 11  2  1  0  0  0  0
 12  4  1  0  0  0  0
 13 14  1  0  0  0  0
 14  8  1  0  0  0  0
 14 11  1  0  0  0  0
 16 15  2  0  0  0  0
 16 17  1  0  0  0  0
 17 18  1  0  0  0  0
 19 18  1  1  0  0  0
 19 20  1  0  0  0  0
 19 21  1  0  0  0  0
 20 22  1  6  0  0  0
 20 21  1  0  0  0  0
 24 26  1  0  0  0  0
 24 25  1  1  0  0  0
 25 27  1  0  0  0  0
 26 22  1  6  0  0  0
 26 25  1  0  0  0  0
 27 23  2  0  0  0  0
 28 33  1  0  0  0  0
 29 31  1  0  0  0  0
 30 29  1  0  0  0  0
 31 33  1  6  0  0  0
 31 24  1  0  0  0  0
 32 28  2  0  0  0  0
 32 30  1  0  0  0  0
 35 27  1  0  0  0  0
 35 34  1  0  0  0  0
 36 13  1  0  0  0  0
 37 38  1  0  0  0  0
 37 36  1  0  0  0  0
 38 41  1  0  0  0  0
 39 38  2  0  0  0  0
 41 44  1  0  0  0  0
 41 40  1  1  0  0  0
 42 41  1  0  0  0  0
 44 43  1  6  0  0  0
 45 46  1  0  0  0  0
 45 44  1  0  0  0  0
 47 46  1  0  0  0  0
 48 52  1  0  0  0  0
 48  7  1  0  0  0  0
 49 50  2  0  0  0  0
 51 53  1  0  0  0  0
 51 52  2  0  0  0  0
 52 50  1  0  0  0  0
 53 49  1  0  0  0  0
 54 55  2  0  0  0  0
 54 60  1  0  0  0  0
 55 57  1  0  0  0  0
 56 59  1  0  0  0  0
 56 58  1  0  0  0  0
 57 53  1  0  0  0  0
 57 59  2  0  0  0  0
 60 56  2  0  0  0  0
M  END
>  <MODEL>
8

>  <REMARK>
 VINA RESULT:      -5.5      2.716      6.561
  Name = 
  18 active torsions:
  status: ('A' for Active; 'I' for Inactive)
    1  A    between atoms: C_9  and  C_25
    2  A    between atoms: C_10  and  C_60
    3  A    between atoms: O_12  and  C_48
    4  A    between atoms: C_13  and  C_18
    5  A    between atoms: C_13  and  C_27
    6  A    between atoms: C_15  and  C_24
    7  A    between atoms: C_15  and  C_47
    8  A    between atoms: C_18  and  C_57
    9  A    between atoms: C_20  and  C_42
   10  A    between atoms: C_25  and  S_56
   11  A    between atoms: C_27  and  C_44
   12  A    between atoms: C_28  and  C_29
   13  A    between atoms: C_29  and  C_37
   14  A    between atoms: C_32  and  N_52
   15  A    between atoms: N_40  and  C_50
   16  A    between atoms: C_42  and  S_56
   17  A    between atoms: C_44  and  C_59
   18  A    between atoms: C_59  and  C_60
                            x       y       z     vdW  Elec       q    Type
                         _______ _______ _______ _____ _____    ______ ____

>  <TORSDO>
F 18

$$$$
=
 OpenBabel10222417283D

 60 67  0  0  1  0  0  0  0  0999 V2000
  190.5610  177.1070  137.4650 C   0  0  0  0  0  0  0  0  0  0  0  0
  192.9800  175.7720  134.7520 C   0  0  0  0  0  2  0  0  0  0  0  0
  189.6510  178.2030  137.9080 C   0  0  2  0  0  3  0  0  0  0  0  0
  191.0040  176.4620  138.5440 C   0  0  0  0  0  0  0  0  0  0  0  0
  191.1620  177.0080  136.0810 C   0  0  0  0  0  2  0  0  0  0  0  0
  189.7000  178.1110  139.3650 N   0  0  0  0  0  0  0  0  0  0  0  0
  190.4360  177.1130  139.7040 C   0  0  0  0  0  0  0  0  0  0  0  0
  193.1010  175.8690  137.1370 C   0  0  1  0  0  3  0  0  0  0  0  0
  195.4150  175.0790  138.6840 O   0  0  0  0  0  0  0  0  0  0  0  0
  192.1190  175.8280  135.9960 C   0  0  2  0  0  3  0  0  0  0  0  0
  194.2060  174.9850  135.2080 C   0  0  0  0  0  2  0  0  0  0  0  0
  192.2510  175.1480  138.5680 S   0  0  0  0  0  0  0  0  0  0  0  0
  195.4240  174.8800  137.4410 C   0  0  0  0  0  0  0  0  0  0  0  0
  194.2360  175.1030  136.6640 N   0  0  0  0  0  0  0  0  0  0  0  0
  187.4850  178.9180  137.2790 O   0  0  0  0  0  0  0  0  0  0  0  0
  188.2550  177.9780  137.4200 C   0  0  0  0  0  0  0  0  0  0  0  0
  187.7380  176.3340  136.9540 S   0  0  0  0  0  0  0  0  0  0  0  0
  186.0740  176.8810  136.4770 C   0  0  0  0  0  2  0  0  0  0  0  0
  185.1500  176.8550  137.6750 C   0  0  1  0  0  3  0  0  0  0  0  0
  183.9140  177.6620  137.3330 C   0  0  1  0  0  3  0  0  0  0  0  0
  183.8670  176.1480  137.3000 C   0  0  0  0  0  2  0  0  0  0  0  0
  183.2770  178.1590  138.6160 C   0  0  0  0  0  2  0  0  0  0  0  0
  181.5420  178.7630  141.9080 O   0  0  0  0  0  0  0  0  0  0  0  0
  180.8400  177.8310  138.3080 N   0  0  2  0  0  0  0  0  0  0  0  0
  181.1000  178.1690  139.7140 N   0  0  0  0  0  0  0  0  0  0  0  0
  181.9890  177.3700  138.8790 C   0  0  2  0  0  3  0  0  0  0  0  0
  180.7490  178.8120  140.9340 C   0  0  0  0  0  0  0  0  0  0  0  0
  179.8510  178.7010  135.3080 C   0  0  0  0  0  3  0  0  0  0  0  0
  179.7290  179.9780  137.8270 C   0  0  0  0  0  2  0  0  0  0  0  0
  179.1410  180.5970  136.5550 C   0  0  0  0  0  2  0  0  0  0  0  0
  180.9510  179.0770  137.5410 C   0  0  2  0  0  3  0  0  0  0  0  0
  178.9310  179.5660  135.5590 N   0  0  0  0  0  0  0  0  0  0  0  0
  181.1600  178.7630  136.0440 C   0  0  0  0  0  2  0  0  0  0  0  0
  179.4460  180.8970  140.9540 C   0  0  0  0  0  1  0  0  0  0  0  0
  179.5290  179.4820  141.0300 O   0  0  0  0  0  0  0  0  0  0  0  0
  196.7070  174.4880  136.7860 C   0  0  0  0  0  2  0  0  0  0  0  0
  197.0100  173.0460  137.1270 C   0  0  0  0  0  2  0  0  0  0  0  0
  196.9620  172.1870  135.9060 C   0  0  0  0  0  0  0  0  0  0  0  0
  197.4450  172.6160  134.8700 O   0  0  0  0  0  0  0  0  0  0  0  0
  196.5250  170.1420  134.5940 C   0  0  0  0  0  1  0  0  0  0  0  0
  196.3890  170.7890  135.9650 C   0  0  1  0  0  0  0  0  0  0  0  0
  197.1200  170.0150  136.8700 O   0  0  0  0  0  1  0  0  0  0  0  0
  194.7770  170.4460  137.7370 O   0  0  0  0  0  1  0  0  0  0  0  0
  194.9100  170.7800  136.3860 C   0  0  2  0  0  3  0  0  0  0  0  0
  194.0430  169.8380  135.5440 C   0  0  0  0  0  2  0  0  0  0  0  0
  192.6650  170.4230  135.2830 C   0  0  0  0  0  2  0  0  0  0  0  0
  192.7050  171.8150  135.3660 O   0  0  0  0  0  1  0  0  0  0  0  0
  190.7930  176.7860  141.1200 C   0  0  0  0  0  2  0  0  0  0  0  0
  187.6520  177.3880  142.8770 C   0  0  0  0  0  3  0  0  0  0  0  0
  188.3240  177.1560  141.6900 C   0  0  0  0  0  3  0  0  0  0  0  0
  189.7600  177.1770  143.4140 C   0  0  0  0  0  3  0  0  0  0  0  0
  189.6490  177.0230  142.0520 C   0  0  0  0  0  0  0  0  0  0  0  0
  188.5270  177.3950  143.9050 N   0  0  0  0  0  0  0  0  0  0  0  0
  186.5550  178.0240  147.0310 C   0  0  0  0  0  3  0  0  0  0  0  0
  186.8690  177.7960  145.6840 C   0  0  0  0  0  3  0  0  0  0  0  0
  188.8940  177.8940  147.6100 C   0  0  0  0  0  0  0  0  0  0  0  0
  188.1970  177.6150  145.2850 C   0  0  0  0  0  0  0  0  0  0  0  0
  189.8690  177.9290  148.5380 F   0  0  0  0  0  0  0  0  0  0  0  0
  189.2100  177.6680  146.2650 C   0  0  0  0  0  3  0  0  0  0  0  0
  187.5660  178.0720  147.9910 C   0  0  0  0  0  3  0  0  0  0  0  0
  1  3  1  0  0  0  0
  1  4  2  0  0  0  0
  2 11  1  0  0  0  0
  3 16  1  6  0  0  0
  3  6  1  0  0  0  0
  4 12  1  0  0  0  0
  4  7  1  0  0  0  0
  5  1  1  0  0  0  0
  6  7  2  0  0  0  0
  7 48  1  0  0  0  0
  8 12  1  1  0  0  0
 10  2  1  6  0  0  0
 10  5  1  0  0  0  0
 10  8  1  0  0  0  0
 11 14  1  0  0  0  0
 13  9  2  0  0  0  0
 14  8  1  0  0  0  0
 14 13  1  0  0  0  0
 15 16  2  0  0  0  0
 17 16  1  0  0  0  0
 18 17  1  0  0  0  0
 19 18  1  6  0  0  0
 20 19  1  0  0  0  0
 20 22  1  1  0  0  0
 21 20  1  0  0  0  0
 21 19  1  0  0  0  0
 24 26  1  0  0  0  0
 24 25  1  1  0  0  0
 25 27  1  0  0  0  0
 26 22  1  6  0  0  0
 26 25  1  0  0  0  0
 27 35  1  0  0  0  0
 27 23  2  0  0  0  0
 28 32  2  0  0  0  0
 28 33  1  0  0  0  0
 30 29  1  0  0  0  0
 31 33  1  6  0  0  0
 31 29  1  0  0  0  0
 31 24  1  0  0  0  0
 32 30  1  0  0  0  0
 34 35  1  0  0  0  0
 36 37  1  0  0  0  0
 36 13  1  0  0  0  0
 38 41  1  0  0  0  0
 38 37  1  0  0  0  0
 39 38  2  0  0  0  0
 41 40  1  6  0  0  0
 41 44  1  0  0  0  0
 41 42  1  0  0  0  0
 44 43  1  1  0  0  0
 45 44  1  0  0  0  0
 46 47  1  0  0  0  0
 46 45  1  0  0  0  0
 48 52  1  0  0  0  0
 49 53  1  0  0  0  0
 50 52  1  0  0  0  0
 50 49  2  0  0  0  0
 51 53  1  0  0  0  0
 52 51  2  0  0  0  0
 53 57  1  0  0  0  0
 54 60  1  0  0  0  0
 55 54  2  0  0  0  0
 56 60  2  0  0  0  0
 56 58  1  0  0  0  0
 57 55  1  0  0  0  0
 57 59  2  0  0  0  0
 59 56  1  0  0  0  0
M  END
>  <MODEL>
9

>  <REMARK>
 VINA RESULT:      -5.3      4.419     10.453
  Name = 
  18 active torsions:
  status: ('A' for Active; 'I' for Inactive)
    1  A    between atoms: C_9  and  C_25
    2  A    between atoms: C_10  and  C_60
    3  A    between atoms: O_12  and  C_48
    4  A    between atoms: C_13  and  C_18
    5  A    between atoms: C_13  and  C_27
    6  A    between atoms: C_15  and  C_24
    7  A    between atoms: C_15  and  C_47
    8  A    between atoms: C_18  and  C_57
    9  A    between atoms: C_20  and  C_42
   10  A    between atoms: C_25  and  S_56
   11  A    between atoms: C_27  and  C_44
   12  A    between atoms: C_28  and  C_29
   13  A    between atoms: C_29  and  C_37
   14  A    between atoms: C_32  and  N_52
   15  A    between atoms: N_40  and  C_50
   16  A    between atoms: C_42  and  S_56
   17  A    between atoms: C_44  and  C_59
   18  A    between atoms: C_59  and  C_60
                            x       y       z     vdW  Elec       q    Type
                         _______ _______ _______ _____ _____    ______ ____

>  <TORSDO>
F 18

$$$$
