=
 OpenBabel10222416373D

 32 36  0  0  1  0  0  0  0  0999 V2000
  193.9090  173.5280  137.2280 C   0  0  0  0  0  2  0  0  0  0  0  0
  189.5640  176.8200  138.3940 C   0  0  1  0  0  3  0  0  0  0  0  0
  192.8170  175.6460  137.5100 C   0  0  0  0  0  0  0  0  0  0  0  0
  187.4370  172.7670  138.0600 O   0  0  0  0  0  0  0  0  0  0  0  0
  186.7250  177.7040  136.0450 C   0  0  1  0  0  3  0  0  0  0  0  0
  189.0660  173.3770  136.4660 C   0  0  0  0  0  0  0  0  0  0  0  0
  191.0580  177.1540  140.2030 C   0  0  0  0  0  2  0  0  0  0  0  0
  194.5630  176.9230  136.4680 O   0  0  0  0  0  0  0  0  0  0  0  0
  192.5740  174.1750  137.6670 C   0  0  1  0  0  3  0  0  0  0  0  0
  191.6170  173.5720  135.3920 C   0  0  0  0  0  3  0  0  0  0  0  0
  188.7940  177.3620  139.4450 O   0  0  0  0  0  0  0  0  0  0  0  0
  192.1040  176.6380  138.0450 C   0  0  0  0  0  3  0  0  0  0  0  0
  187.3520  178.8520  136.7980 C   0  0  0  0  0  3  0  0  0  0  0  0
  186.5110  178.1160  134.5940 C   0  0  0  0  0  1  0  0  0  0  0  0
  189.5810  177.7250  137.1400 C   0  0  2  0  0  3  0  0  0  0  0  0
  187.5460  176.4180  136.1580 C   0  0  2  0  0  3  0  0  0  0  0  0
  194.7050  174.5760  136.5930 N   0  0  0  0  0  2  0  0  0  0  0  0
  194.0630  175.8160  136.8090 C   0  0  0  0  0  0  0  0  0  0  0  0
  188.6280  178.8980  137.2260 C   0  0  0  0  0  0  0  0  0  0  0  0
  189.6370  177.5180  140.5640 C   0  0  1  0  0  3  0  0  0  0  0  0
  189.2730  176.7090  135.6540 S   0  0  0  0  0  0  0  0  0  0  0  0
  190.1520  173.6420  137.3030 C   0  0  0  0  0  3  0  0  0  0  0  0
  189.2930  173.2000  135.0960 C   0  0  0  0  0  3  0  0  0  0  0  0
  186.6630  174.1550  136.3650 N   0  0  0  0  0  2  0  0  0  0  0  0
  191.4420  173.7440  136.7740 C   0  0  0  0  0  0  0  0  0  0  0  0
  187.6970  173.3930  136.9990 C   0  0  0  0  0  0  0  0  0  0  0  0
  186.9240  175.2380  135.4220 C   0  0  0  0  0  2  0  0  0  0  0  0
  190.5530  173.2910  134.5940 N   0  0  0  0  0  0  0  0  0  0  0  0
  189.0550  180.0240  137.8540 F   0  0  0  0  0  0  0  0  0  0  0  0
  190.9220  176.3890  138.9310 C   0  0  2  0  0  3  0  0  0  0  0  0
  190.2400  176.0100  142.3070 O   0  0  0  0  0  1  0  0  0  0  0  0
  189.1520  176.6360  141.7000 C   0  0  0  0  0  2  0  0  0  0  0  0
  2 30  1  0  0  0  0
  2 11  1  1  0  0  0
  3  9  1  0  0  0  0
  3 12  2  0  0  0  0
  5 14  1  6  0  0  0
  5 16  1  0  0  0  0
  5 13  1  0  0  0  0
  6 26  1  0  0  0  0
  6 22  1  0  0  0  0
  7 20  1  0  0  0  0
  8 18  2  0  0  0  0
  9  1  1  6  0  0  0
 10 25  1  0  0  0  0
 11 20  1  0  0  0  0
 13 19  2  0  0  0  0
 15 21  1  6  0  0  0
 15 19  1  0  0  0  0
 15  2  1  0  0  0  0
 16 27  1  6  0  0  0
 17 18  1  0  0  0  0
 17  1  1  0  0  0  0
 18  3  1  0  0  0  0
 19 29  1  0  0  0  0
 20 32  1  1  0  0  0
 21 16  1  0  0  0  0
 23  6  2  0  0  0  0
 24 26  1  0  0  0  0
 25 22  2  0  0  0  0
 25  9  1  0  0  0  0
 26  4  2  0  0  0  0
 27 24  1  0  0  0  0
 28 23  1  0  0  0  0
 28 10  2  0  0  0  0
 30 12  1  6  0  0  0
 30  7  1  0  0  0  0
 32 31  1  0  0  0  0
M  END
>  <MODEL>
1

>  <REMARK>
 VINA RESULT:      -7.0      0.000      0.000
  Name = 
  1 active torsions:
  status: ('A' for Active; 'I' for Inactive)
    1  A    between atoms: C_21  and  C_25
                            x       y       z     vdW  Elec       q    Type
                         _______ _______ _______ _____ _____    ______ ____

>  <TORSDO>
F 1

$$$$
=
 OpenBabel10222416373D

 32 36  0  0  1  0  0  0  0  0999 V2000
  181.3370  172.5230  135.6120 C   0  0  0  0  0  2  0  0  0  0  0  0
  181.7670  177.8760  137.1080 C   0  0  1  0  0  3  0  0  0  0  0  0
  180.7350  174.4660  136.8840 C   0  0  0  0  0  0  0  0  0  0  0  0
  185.5820  177.4330  134.5960 O   0  0  0  0  0  0  0  0  0  0  0  0
  184.3410  179.3440  139.4700 C   0  0  1  0  0  3  0  0  0  0  0  0
  184.9890  175.7530  136.1440 C   0  0  0  0  0  0  0  0  0  0  0  0
  179.6760  177.7400  136.0020 C   0  0  0  0  0  2  0  0  0  0  0  0
  179.4130  173.2640  138.4890 O   0  0  0  0  0  0  0  0  0  0  0  0
  181.6300  174.0350  135.7620 C   0  0  1  0  0  3  0  0  0  0  0  0
  183.7550  173.4240  137.0120 C   0  0  0  0  0  3  0  0  0  0  0  0
  181.4350  179.1940  136.7340 O   0  0  0  0  0  0  0  0  0  0  0  0
  180.3790  175.7140  137.1920 C   0  0  0  0  0  3  0  0  0  0  0  0
  182.9080  179.7550  139.7030 C   0  0  0  0  0  3  0  0  0  0  0  0
  184.9950  179.0280  140.8090 C   0  0  0  0  0  1  0  0  0  0  0  0
  181.8950  177.7060  138.6400 C   0  0  2  0  0  3  0  0  0  0  0  0
  184.4580  178.1770  138.4880 C   0  0  2  0  0  3  0  0  0  0  0  0
  180.5580  172.1190  136.7800 N   0  0  0  0  0  2  0  0  0  0  0  0
  180.1810  173.2820  137.4880 C   0  0  0  0  0  0  0  0  0  0  0  0
  181.8260  179.0130  139.4030 C   0  0  0  0  0  0  0  0  0  0  0  0
  180.2220  179.1480  136.0160 C   0  0  1  0  0  3  0  0  0  0  0  0
  183.4200  176.7780  139.0230 S   0  0  0  0  0  0  0  0  0  0  0  0
  183.7010  175.4440  135.7010 C   0  0  0  0  0  3  0  0  0  0  0  0
  185.6390  174.8660  137.0110 C   0  0  0  0  0  3  0  0  0  0  0  0
  186.1870  177.8820  136.7940 N   0  0  0  0  0  2  0  0  0  0  0  0
  183.0690  174.2750  136.1310 C   0  0  0  0  0  0  0  0  0  0  0  0
  185.6060  177.0400  135.7920 C   0  0  0  0  0  0  0  0  0  0  0  0
  185.8970  177.7560  138.2190 C   0  0  0  0  0  2  0  0  0  0  0  0
  185.0180  173.7270  137.4160 N   0  0  0  0  0  0  0  0  0  0  0  0
  180.6000  179.5060  139.7160 F   0  0  0  0  0  0  0  0  0  0  0  0
  180.8400  176.8980  136.4000 C   0  0  2  0  0  3  0  0  0  0  0  0
  180.9590  180.9250  134.6100 O   0  0  0  0  0  1  0  0  0  0  0  0
  180.4490  179.6270  134.5940 C   0  0  0  0  0  2  0  0  0  0  0  0
  1 17  1  0  0  0  0
  2 11  1  1  0  0  0
  2 15  1  0  0  0  0
  3 12  2  0  0  0  0
  3 18  1  0  0  0  0
  4 26  2  0  0  0  0
  5 13  1  0  0  0  0
  5 14  1  1  0  0  0
  6 23  1  0  0  0  0
  7 20  1  0  0  0  0
  9  1  1  1  0  0  0
  9 25  1  0  0  0  0
  9  3  1  0  0  0  0
 10 28  1  0  0  0  0
 15 21  1  6  0  0  0
 15 19  1  0  0  0  0
 16 27  1  1  0  0  0
 16 21  1  0  0  0  0
 16  5  1  0  0  0  0
 17 18  1  0  0  0  0
 18  8  2  0  0  0  0
 19 13  2  0  0  0  0
 19 29  1  0  0  0  0
 20 32  1  6  0  0  0
 20 11  1  0  0  0  0
 22 25  1  0  0  0  0
 22  6  2  0  0  0  0
 23 28  2  0  0  0  0
 24 27  1  0  0  0  0
 25 10  2  0  0  0  0
 26  6  1  0  0  0  0
 26 24  1  0  0  0  0
 30  7  1  1  0  0  0
 30  2  1  0  0  0  0
 30 12  1  0  0  0  0
 32 31  1  0  0  0  0
M  END
>  <MODEL>
2

>  <REMARK>
 VINA RESULT:      -4.7      5.773      9.215
  Name = 
  1 active torsions:
  status: ('A' for Active; 'I' for Inactive)
    1  A    between atoms: C_21  and  C_25
                            x       y       z     vdW  Elec       q    Type
                         _______ _______ _______ _____ _____    ______ ____

>  <TORSDO>
F 1

$$$$
=
 OpenBabel10222416373D

 32 36  0  0  1  0  0  0  0  0999 V2000
  186.4660  178.5970  137.8440 C   0  0  0  0  0  2  0  0  0  0  0  0
  181.1930  176.9100  137.1820 C   0  0  1  0  0  3  0  0  0  0  0  0
  184.7610  177.0380  137.1950 C   0  0  0  0  0  0  0  0  0  0  0  0
  180.5280  180.6290  139.7870 O   0  0  0  0  0  0  0  0  0  0  0  0
  178.9380  175.4910  139.8760 C   0  0  1  0  0  3  0  0  0  0  0  0
  182.2610  179.1170  140.3140 C   0  0  0  0  0  0  0  0  0  0  0  0
  181.9950  177.2180  134.9740 C   0  0  0  0  0  2  0  0  0  0  0  0
  186.2590  175.1760  136.9570 O   0  0  0  0  0  0  0  0  0  0  0  0
  184.9320  178.4340  137.7110 C   0  0  1  0  0  3  0  0  0  0  0  0
  184.8270  178.0660  140.2220 C   0  0  0  0  0  3  0  0  0  0  0  0
  180.0510  177.0340  136.3640 O   0  0  0  0  0  0  0  0  0  0  0  0
  183.6720  176.5220  136.6220 C   0  0  0  0  0  3  0  0  0  0  0  0
  178.9770  174.7350  138.5700 C   0  0  0  0  0  3  0  0  0  0  0  0
  178.9980  174.4980  141.0300 C   0  0  0  0  0  1  0  0  0  0  0  0
  181.2690  175.5400  137.8970 C   0  0  2  0  0  3  0  0  0  0  0  0
  180.0430  176.5440  139.9710 C   0  0  2  0  0  3  0  0  0  0  0  0
  187.0520  177.2670  137.6940 N   0  0  0  0  0  2  0  0  0  0  0  0
  186.0380  176.3780  137.2720 C   0  0  0  0  0  0  0  0  0  0  0  0
  180.0230  174.6970  137.7230 C   0  0  0  0  0  0  0  0  0  0  0  0
  180.4870  177.2810  135.0460 C   0  0  1  0  0  3  0  0  0  0  0  0
  181.6750  175.7950  139.6580 S   0  0  0  0  0  0  0  0  0  0  0  0
  182.9610  179.1030  139.1070 C   0  0  0  0  0  3  0  0  0  0  0  0
  182.8800  178.6100  141.4630 C   0  0  0  0  0  3  0  0  0  0  0  0
  179.8480  178.7550  140.9800 N   0  0  0  0  0  2  0  0  0  0  0  0
  184.2530  178.5760  139.0470 C   0  0  0  0  0  0  0  0  0  0  0  0
  180.8580  179.5550  140.3540 C   0  0  0  0  0  0  0  0  0  0  0  0
  180.0140  177.3350  141.2720 C   0  0  0  0  0  2  0  0  0  0  0  0
  184.1410  178.1080  141.3960 N   0  0  0  0  0  0  0  0  0  0  0  0
  179.9180  173.9330  136.6060 F   0  0  0  0  0  0  0  0  0  0  0  0
  182.4280  177.3260  136.3960 C   0  0  2  0  0  3  0  0  0  0  0  0
  179.0180  179.1090  135.4640 O   0  0  0  0  0  1  0  0  0  0  0  0
  180.0060  178.6480  134.5940 C   0  0  0  0  0  2  0  0  0  0  0  0
  2 11  1  6  0  0  0
  2 15  1  0  0  0  0
  3 18  1  0  0  0  0
  3  9  1  0  0  0  0
  4 26  2  0  0  0  0
  5 16  1  0  0  0  0
  5 14  1  1  0  0  0
  6 26  1  0  0  0  0
  6 23  1  0  0  0  0
  7 20  1  0  0  0  0
  8 18  2  0  0  0  0
  9  1  1  1  0  0  0
  9 25  1  0  0  0  0
 10 28  1  0  0  0  0
 12  3  2  0  0  0  0
 13  5  1  0  0  0  0
 15 19  1  1  0  0  0
 15 21  1  0  0  0  0
 16 27  1  1  0  0  0
 17  1  1  0  0  0  0
 18 17  1  0  0  0  0
 19 13  2  0  0  0  0
 20 32  1  1  0  0  0
 20 11  1  0  0  0  0
 21 16  1  0  0  0  0
 22  6  2  0  0  0  0
 24 27  1  0  0  0  0
 25 22  1  0  0  0  0
 25 10  2  0  0  0  0
 26 24  1  0  0  0  0
 28 23  2  0  0  0  0
 29 19  1  0  0  0  0
 30  7  1  6  0  0  0
 30 12  1  0  0  0  0
 30  2  1  0  0  0  0
 32 31  1  0  0  0  0
M  END
>  <MODEL>
3

>  <REMARK>
 VINA RESULT:      -4.6      6.774      9.606
  Name = 
  1 active torsions:
  status: ('A' for Active; 'I' for Inactive)
    1  A    between atoms: C_21  and  C_25
                            x       y       z     vdW  Elec       q    Type
                         _______ _______ _______ _____ _____    ______ ____

>  <TORSDO>
F 1

$$$$
