=
 OpenBabel10222418273D

 28 30  0  0  1  0  0  0  0  0999 V2000
  189.0600  178.1700  141.6270 N   0  0  0  0  0  2  0  0  0  0  0  0
  190.8120  179.3300  143.3920 F   0  0  0  0  0  0  0  0  0  0  0  0
  190.0210  178.3090  143.8080 C   0  0  0  0  0  3  0  0  0  0  0  0
  189.1620  177.7250  142.9830 C   0  0  0  0  0  0  0  0  0  0  0  0
  188.1470  176.3780  143.5940 S   0  0  0  0  0  0  0  0  0  0  0  0
  185.4260  179.6330  141.5890 N   0  0  0  0  0  1  0  0  0  0  0  0
  184.5050  179.6080  143.8910 N   0  0  0  0  0  2  0  0  0  0  0  0
  186.1410  178.1390  143.2620 C   0  0  0  0  0  0  0  0  0  0  0  0
  187.7280  177.6320  146.5240 C   0  0  0  0  0  1  0  0  0  0  0  0
  185.2730  178.9940  142.8500 C   0  0  0  0  0  0  0  0  0  0  0  0
  186.8350  177.4770  144.1240 C   0  0  0  0  0  0  0  0  0  0  0  0
  185.5740  178.6150  145.9650 C   0  0  0  0  0  3  0  0  0  0  0  0
  184.2960  178.9430  145.1920 C   0  0  0  0  0  2  0  0  0  0  0  0
  186.6490  177.9050  145.5350 C   0  0  0  0  0  0  0  0  0  0  0  0
  188.5730  177.3370  140.6070 N   0  0  0  0  0  2  0  0  0  0  0  0
  188.3310  178.1930  138.2380 C   0  0  2  0  0  3  0  0  0  0  0  0
  189.2060  177.7270  139.3460 C   0  0  1  0  0  0  0  0  0  0  0  0
  189.0560  179.0940  139.0520 O   0  0  0  0  0  0  0  0  0  0  0  0
  191.6610  177.5030  139.8010 C   0  0  0  0  0  3  0  0  0  0  0  0
  194.3560  175.7150  138.0260 O   0  0  0  0  0  1  0  0  0  0  0  0
  193.0960  176.1990  138.3500 C   0  0  0  0  0  0  0  0  0  0  0  0
  190.7270  176.3650  137.8780 C   0  0  0  0  0  3  0  0  0  0  0  0
  192.9300  177.0140  139.4750 C   0  0  0  0  0  3  0  0  0  0  0  0
  190.5550  177.1750  139.0090 C   0  0  0  0  0  0  0  0  0  0  0  0
  191.9960  175.8760  137.5510 C   0  0  0  0  0  3  0  0  0  0  0  0
  186.8580  178.2530  138.6160 C   0  0  0  0  0  2  0  0  0  0  0  0
  186.8630  177.7710  136.1940 C   0  0  0  0  0  1  0  0  0  0  0  0
  186.0120  177.8000  137.4460 C   0  0  0  0  0  2  0  0  0  0  0  0
  1  4  1  0  0  0  0
  2  3  1  0  0  0  0
  4  5  1  0  0  0  0
  4  3  2  0  0  0  0
  5 11  1  0  0  0  0
  6 10  1  0  0  0  0
  7 13  1  0  0  0  0
  8 11  2  0  0  0  0
 10  8  2  0  0  0  0
 10  7  1  0  0  0  0
 11 14  1  0  0  0  0
 13 12  1  0  0  0  0
 14 12  2  0  0  0  0
 14  9  1  0  0  0  0
 15  1  1  0  0  0  0
 16 26  1  1  0  0  0
 16 18  1  0  0  0  0
 16 17  1  0  0  0  0
 17 15  1  1  0  0  0
 18 17  1  0  0  0  0
 20 21  1  0  0  0  0
 21 23  2  0  0  0  0
 22 24  1  0  0  0  0
 23 19  1  0  0  0  0
 24 17  1  0  0  0  0
 24 19  2  0  0  0  0
 25 22  2  0  0  0  0
 25 21  1  0  0  0  0
 27 28  1  0  0  0  0
 28 26  1  0  0  0  0
M  END
>  <MODEL>
1

>  <REMARK>
 VINA RESULT:      -7.6      0.000      0.000
  Name = 
  8 active torsions:
  status: ('A' for Active; 'I' for Inactive)
    1  A    between atoms: C_3  and  C_5
    2  A    between atoms: C_3  and  C_23
    3  A    between atoms: C_9  and  N_16
    4  A    between atoms: C_9  and  C_20
    5  A    between atoms: N_15  and  N_16
    6  A    between atoms: N_15  and  C_28
    7  A    between atoms: S_19  and  C_22
    8  A    between atoms: S_19  and  C_28
                            x       y       z     vdW  Elec       q    Type
                         _______ _______ _______ _____ _____    ______ ____

>  <TORSDO>
F 8

$$$$
=
 OpenBabel10222418273D

 28 30  0  0  1  0  0  0  0  0999 V2000
  189.4280  177.0990  141.7220 N   0  0  0  0  0  2  0  0  0  0  0  0
  192.1620  177.0910  141.9540 F   0  0  0  0  0  0  0  0  0  0  0  0
  191.5920  177.4770  140.7850 C   0  0  0  0  0  3  0  0  0  0  0  0
  190.2730  177.4920  140.6370 C   0  0  0  0  0  0  0  0  0  0  0  0
  189.5800  178.0180  139.0680 S   0  0  0  0  0  0  0  0  0  0  0  0
  193.6680  176.7220  137.1620 N   0  0  0  0  0  1  0  0  0  0  0  0
  192.3120  174.6790  136.7930 N   0  0  0  0  0  2  0  0  0  0  0  0
  191.4700  176.4550  137.9620 C   0  0  0  0  0  0  0  0  0  0  0  0
  187.9140  175.9820  137.2200 C   0  0  0  0  0  1  0  0  0  0  0  0
  192.5310  175.9230  137.4660 C   0  0  0  0  0  0  0  0  0  0  0  0
  190.2090  176.5830  138.1980 C   0  0  0  0  0  0  0  0  0  0  0  0
  189.7900  174.4600  136.9360 C   0  0  0  0  0  3  0  0  0  0  0  0
  191.1630  173.8130  137.1230 C   0  0  0  0  0  2  0  0  0  0  0  0
  189.3370  175.6240  137.4690 C   0  0  0  0  0  0  0  0  0  0  0  0
  188.9410  178.0250  142.6590 N   0  0  0  0  0  2  0  0  0  0  0  0
  187.0740  177.2320  144.1720 C   0  0  2  0  0  3  0  0  0  0  0  0
  188.5260  177.2970  143.8590 C   0  0  1  0  0  0  0  0  0  0  0  0
  187.7620  176.1510  143.5730 O   0  0  0  0  0  0  0  0  0  0  0  0
  190.8180  176.7100  144.6910 C   0  0  0  0  0  3  0  0  0  0  0  0
  192.2400  176.5060  148.0890 O   0  0  0  0  0  1  0  0  0  0  0  0
  191.3330  176.7060  147.0570 C   0  0  0  0  0  0  0  0  0  0  0  0
  189.1100  177.3010  146.3050 C   0  0  0  0  0  3  0  0  0  0  0  0
  191.7310  176.5100  145.7300 C   0  0  0  0  0  3  0  0  0  0  0  0
  189.5070  177.1140  144.9740 C   0  0  0  0  0  0  0  0  0  0  0  0
  190.0240  177.1000  147.3450 C   0  0  0  0  0  3  0  0  0  0  0  0
  186.2010  177.9080  143.1250 C   0  0  0  0  0  2  0  0  0  0  0  0
  185.2560  178.6290  145.2890 C   0  0  0  0  0  1  0  0  0  0  0  0
  185.0130  178.5620  143.7970 C   0  0  0  0  0  2  0  0  0  0  0  0
  1 15  1  0  0  0  0
  3  2  1  0  0  0  0
  4  3  2  0  0  0  0
  4  1  1  0  0  0  0
  5  4  1  0  0  0  0
  6 10  1  0  0  0  0
  7 13  1  0  0  0  0
  7 10  1  0  0  0  0
  8 11  2  0  0  0  0
  9 14  1  0  0  0  0
 10  8  2  0  0  0  0
 11  5  1  0  0  0  0
 12 13  1  0  0  0  0
 12 14  2  0  0  0  0
 14 11  1  0  0  0  0
 16 26  1  6  0  0  0
 17 15  1  6  0  0  0
 17 16  1  0  0  0  0
 17 24  1  0  0  0  0
 18 17  1  0  0  0  0
 18 16  1  0  0  0  0
 19 24  2  0  0  0  0
 19 23  1  0  0  0  0
 21 25  1  0  0  0  0
 21 20  1  0  0  0  0
 22 25  2  0  0  0  0
 23 21  2  0  0  0  0
 24 22  1  0  0  0  0
 26 28  1  0  0  0  0
 28 27  1  0  0  0  0
M  END
>  <MODEL>
2

>  <REMARK>
 VINA RESULT:      -7.6      3.304      7.590
  Name = 
  8 active torsions:
  status: ('A' for Active; 'I' for Inactive)
    1  A    between atoms: C_3  and  C_5
    2  A    between atoms: C_3  and  C_23
    3  A    between atoms: C_9  and  N_16
    4  A    between atoms: C_9  and  C_20
    5  A    between atoms: N_15  and  N_16
    6  A    between atoms: N_15  and  C_28
    7  A    between atoms: S_19  and  C_22
    8  A    between atoms: S_19  and  C_28
                            x       y       z     vdW  Elec       q    Type
                         _______ _______ _______ _____ _____    ______ ____

>  <TORSDO>
F 8

$$$$
=
 OpenBabel10222418273D

 28 30  0  0  1  0  0  0  0  0999 V2000
  189.2960  177.6310  143.2290 N   0  0  0  0  0  2  0  0  0  0  0  0
  191.0640  179.6610  143.7590 F   0  0  0  0  0  0  0  0  0  0  0  0
  191.4110  178.6830  142.8850 C   0  0  0  0  0  3  0  0  0  0  0  0
  190.5820  177.6860  142.6060 C   0  0  0  0  0  0  0  0  0  0  0  0
  191.1000  176.4250  141.4390 S   0  0  0  0  0  0  0  0  0  0  0  0
  186.9000  178.4250  140.8190 N   0  0  0  0  0  1  0  0  0  0  0  0
  187.9050  178.7430  138.5740 N   0  0  0  0  0  2  0  0  0  0  0  0
  189.1130  177.8240  140.2850 C   0  0  0  0  0  0  0  0  0  0  0  0
  191.3930  175.7460  138.3110 C   0  0  0  0  0  1  0  0  0  0  0  0
  188.0420  178.4640  139.9710 C   0  0  0  0  0  0  0  0  0  0  0  0
  190.2110  177.1810  140.0790 C   0  0  0  0  0  0  0  0  0  0  0  0
  189.9390  177.5680  137.6190 C   0  0  0  0  0  3  0  0  0  0  0  0
  189.0800  178.8320  137.6850 C   0  0  0  0  0  2  0  0  0  0  0  0
  190.5060  176.8920  138.6510 C   0  0  0  0  0  0  0  0  0  0  0  0
  188.9950  176.6950  144.2320 N   0  0  0  0  0  2  0  0  0  0  0  0
  189.2360  177.2330  146.6940 C   0  0  2  0  0  3  0  0  0  0  0  0
  188.5090  177.4160  145.4090 C   0  0  1  0  0  0  0  0  0  0  0  0
  189.4190  178.3780  145.8830 O   0  0  0  0  0  0  0  0  0  0  0  0
  186.3390  177.9430  144.2680 C   0  0  0  0  0  3  0  0  0  0  0  0
  183.1030  179.1680  145.5470 O   0  0  0  0  0  1  0  0  0  0  0  0
  184.4210  178.7340  145.5170 C   0  0  0  0  0  0  0  0  0  0  0  0
  186.4860  178.2190  146.6700 C   0  0  0  0  0  3  0  0  0  0  0  0
  185.0110  178.3790  144.3000 C   0  0  0  0  0  3  0  0  0  0  0  0
  187.0790  177.8540  145.4540 C   0  0  0  0  0  0  0  0  0  0  0  0
  185.1580  178.6560  146.7020 C   0  0  0  0  0  3  0  0  0  0  0  0
  190.4590  176.3360  146.5710 C   0  0  0  0  0  2  0  0  0  0  0  0
  192.5230  175.6330  147.7300 C   0  0  0  0  0  1  0  0  0  0  0  0
  191.4860  176.7290  147.6110 C   0  0  0  0  0  2  0  0  0  0  0  0
  1 15  1  0  0  0  0
  3  2  1  0  0  0  0
  4  3  2  0  0  0  0
  4  1  1  0  0  0  0
  5  4  1  0  0  0  0
  7 10  1  0  0  0  0
  9 14  1  0  0  0  0
 10  8  2  0  0  0  0
 10  6  1  0  0  0  0
 11  8  2  0  0  0  0
 11  5  1  0  0  0  0
 12 13  1  0  0  0  0
 12 14  2  0  0  0  0
 13  7  1  0  0  0  0
 14 11  1  0  0  0  0
 16 26  1  6  0  0  0
 17 15  1  6  0  0  0
 17 24  1  0  0  0  0
 17 18  1  0  0  0  0
 17 16  1  0  0  0  0
 18 16  1  0  0  0  0
 19 23  2  0  0  0  0
 19 24  1  0  0  0  0
 21 20  1  0  0  0  0
 21 25  2  0  0  0  0
 22 25  1  0  0  0  0
 23 21  1  0  0  0  0
 24 22  2  0  0  0  0
 26 28  1  0  0  0  0
 28 27  1  0  0  0  0
M  END
>  <MODEL>
3

>  <REMARK>
 VINA RESULT:      -7.6      2.915      7.920
  Name = 
  8 active torsions:
  status: ('A' for Active; 'I' for Inactive)
    1  A    between atoms: C_3  and  C_5
    2  A    between atoms: C_3  and  C_23
    3  A    between atoms: C_9  and  N_16
    4  A    between atoms: C_9  and  C_20
    5  A    between atoms: N_15  and  N_16
    6  A    between atoms: N_15  and  C_28
    7  A    between atoms: S_19  and  C_22
    8  A    between atoms: S_19  and  C_28
                            x       y       z     vdW  Elec       q    Type
                         _______ _______ _______ _____ _____    ______ ____

>  <TORSDO>
F 8

$$$$
=
 OpenBabel10222418273D

 28 30  0  0  1  0  0  0  0  0999 V2000
  188.9950  177.2520  141.6010 N   0  0  0  0  0  2  0  0  0  0  0  0
  191.6910  176.7570  141.4900 F   0  0  0  0  0  0  0  0  0  0  0  0
  191.0830  177.3770  140.4490 C   0  0  0  0  0  3  0  0  0  0  0  0
  189.7810  177.6320  140.4670 C   0  0  0  0  0  0  0  0  0  0  0  0
  189.0360  178.4590  139.0600 S   0  0  0  0  0  0  0  0  0  0  0  0
  191.5350  174.9330  137.2310 N   0  0  0  0  0  1  0  0  0  0  0  0
  189.2260  174.1060  136.8680 N   0  0  0  0  0  2  0  0  0  0  0  0
  189.6140  176.0540  138.0020 C   0  0  0  0  0  0  0  0  0  0  0  0
  186.4890  177.7950  137.2140 C   0  0  0  0  0  1  0  0  0  0  0  0
  190.1450  174.9820  137.5280 C   0  0  0  0  0  0  0  0  0  0  0  0
  188.6810  176.9170  138.2180 C   0  0  0  0  0  0  0  0  0  0  0  0
  187.0770  175.4470  136.9770 C   0  0  0  0  0  3  0  0  0  0  0  0
  187.7860  174.1090  137.1920 C   0  0  0  0  0  2  0  0  0  0  0  0
  187.4110  176.6590  137.4880 C   0  0  0  0  0  0  0  0  0  0  0  0
  188.7270  178.1440  142.6510 N   0  0  0  0  0  2  0  0  0  0  0  0
  186.9330  177.2670  144.2060 C   0  0  2  0  0  3  0  0  0  0  0  0
  188.3710  177.3680  143.8400 C   0  0  1  0  0  0  0  0  0  0  0  0
  187.6150  176.2190  143.5440 O   0  0  0  0  0  0  0  0  0  0  0  0
  190.6920  176.7570  144.5670 C   0  0  0  0  0  3  0  0  0  0  0  0
  192.2560  176.4990  147.8980 O   0  0  0  0  0  1  0  0  0  0  0  0
  191.3070  176.7190  146.9090 C   0  0  0  0  0  0  0  0  0  0  0  0
  189.0580  177.3360  146.2590 C   0  0  0  0  0  3  0  0  0  0  0  0
  191.6470  176.5380  145.5640 C   0  0  0  0  0  3  0  0  0  0  0  0
  189.3970  177.1650  144.9100 C   0  0  0  0  0  0  0  0  0  0  0  0
  190.0130  177.1160  147.2560 C   0  0  0  0  0  3  0  0  0  0  0  0
  186.0090  177.9620  143.2170 C   0  0  0  0  0  2  0  0  0  0  0  0
  185.2730  178.8080  145.4170 C   0  0  0  0  0  1  0  0  0  0  0  0
  184.8820  178.6430  143.9640 C   0  0  0  0  0  2  0  0  0  0  0  0
  1 15  1  0  0  0  0
  3  4  2  0  0  0  0
  3  2  1  0  0  0  0
  4  1  1  0  0  0  0
  5  4  1  0  0  0  0
  6 10  1  0  0  0  0
  7 13  1  0  0  0  0
  7 10  1  0  0  0  0
  8 11  2  0  0  0  0
  9 14  1  0  0  0  0
 10  8  2  0  0  0  0
 11  5  1  0  0  0  0
 12 13  1  0  0  0  0
 12 14  2  0  0  0  0
 14 11  1  0  0  0  0
 16 26  1  6  0  0  0
 17 15  1  6  0  0  0
 17 16  1  0  0  0  0
 17 24  1  0  0  0  0
 18 17  1  0  0  0  0
 18 16  1  0  0  0  0
 19 24  2  0  0  0  0
 19 23  1  0  0  0  0
 21 25  1  0  0  0  0
 21 20  1  0  0  0  0
 22 25  2  0  0  0  0
 23 21  2  0  0  0  0
 24 22  1  0  0  0  0
 26 28  1  0  0  0  0
 28 27  1  0  0  0  0
M  END
>  <MODEL>
4

>  <REMARK>
 VINA RESULT:      -7.5      3.203      7.168
  Name = 
  8 active torsions:
  status: ('A' for Active; 'I' for Inactive)
    1  A    between atoms: C_3  and  C_5
    2  A    between atoms: C_3  and  C_23
    3  A    between atoms: C_9  and  N_16
    4  A    between atoms: C_9  and  C_20
    5  A    between atoms: N_15  and  N_16
    6  A    between atoms: N_15  and  C_28
    7  A    between atoms: S_19  and  C_22
    8  A    between atoms: S_19  and  C_28
                            x       y       z     vdW  Elec       q    Type
                         _______ _______ _______ _____ _____    ______ ____

>  <TORSDO>
F 8

$$$$
=
 OpenBabel10222418273D

 28 30  0  0  1  0  0  0  0  0999 V2000
  188.6900  177.3120  141.8940 N   0  0  0  0  0  2  0  0  0  0  0  0
  186.5110  178.4540  140.6790 F   0  0  0  0  0  0  0  0  0  0  0  0
  187.6650  178.3100  139.9820 C   0  0  0  0  0  3  0  0  0  0  0  0
  188.7390  177.7630  140.5370 C   0  0  0  0  0  0  0  0  0  0  0  0
  190.2340  177.5950  139.5600 S   0  0  0  0  0  0  0  0  0  0  0  0
  190.1240  173.5370  137.2060 N   0  0  0  0  0  1  0  0  0  0  0  0
  188.3640  174.8160  136.0150 N   0  0  0  0  0  2  0  0  0  0  0  0
  189.4120  175.6860  137.8520 C   0  0  0  0  0  0  0  0  0  0  0  0
  189.1000  179.2450  137.0450 C   0  0  0  0  0  1  0  0  0  0  0  0
  189.2080  174.6240  137.1550 C   0  0  0  0  0  0  0  0  0  0  0  0
  189.3520  176.9410  138.1430 C   0  0  0  0  0  0  0  0  0  0  0  0
  187.9600  177.3180  136.0960 C   0  0  0  0  0  3  0  0  0  0  0  0
  187.3760  175.9110  135.9600 C   0  0  0  0  0  2  0  0  0  0  0  0
  188.7520  177.7990  137.0880 C   0  0  0  0  0  0  0  0  0  0  0  0
  188.5380  178.2050  142.9670 N   0  0  0  0  0  2  0  0  0  0  0  0
  186.8250  177.3720  144.6340 C   0  0  2  0  0  3  0  0  0  0  0  0
  188.2380  177.4330  144.1740 C   0  0  1  0  0  0  0  0  0  0  0  0
  187.4290  176.3090  143.9240 O   0  0  0  0  0  0  0  0  0  0  0  0
  190.6000  176.8080  144.7370 C   0  0  0  0  0  3  0  0  0  0  0  0
  192.3590  176.4220  147.9570 O   0  0  0  0  0  1  0  0  0  0  0  0
  191.3530  176.6760  147.0350 C   0  0  0  0  0  0  0  0  0  0  0  0
  189.0670  177.3040  146.5450 C   0  0  0  0  0  3  0  0  0  0  0  0
  191.6130  176.5540  145.6660 C   0  0  0  0  0  3  0  0  0  0  0  0
  189.3260  177.1910  145.1730 C   0  0  0  0  0  0  0  0  0  0  0  0
  190.0800  177.0490  147.4740 C   0  0  0  0  0  3  0  0  0  0  0  0
  185.8590  178.1020  143.7120 C   0  0  0  0  0  2  0  0  0  0  0  0
  185.1010  178.6090  146.0070 C   0  0  0  0  0  1  0  0  0  0  0  0
  184.8230  178.8350  144.5360 C   0  0  0  0  0  2  0  0  0  0  0  0
  1 15  1  0  0  0  0
  3  4  2  0  0  0  0
  3  2  1  0  0  0  0
  4  1  1  0  0  0  0
  5  4  1  0  0  0  0
  7 10  1  0  0  0  0
  8 11  2  0  0  0  0
  9 14  1  0  0  0  0
 10  6  1  0  0  0  0
 10  8  2  0  0  0  0
 11  5  1  0  0  0  0
 12 14  2  0  0  0  0
 13  7  1  0  0  0  0
 13 12  1  0  0  0  0
 14 11  1  0  0  0  0
 16 26  1  6  0  0  0
 17 15  1  6  0  0  0
 17 16  1  0  0  0  0
 17 24  1  0  0  0  0
 18 17  1  0  0  0  0
 18 16  1  0  0  0  0
 19 24  2  0  0  0  0
 19 23  1  0  0  0  0
 21 25  1  0  0  0  0
 21 20  1  0  0  0  0
 22 25  2  0  0  0  0
 23 21  2  0  0  0  0
 24 22  1  0  0  0  0
 26 28  1  0  0  0  0
 28 27  1  0  0  0  0
M  END
>  <MODEL>
5

>  <REMARK>
 VINA RESULT:      -7.4      3.306      7.433
  Name = 
  8 active torsions:
  status: ('A' for Active; 'I' for Inactive)
    1  A    between atoms: C_3  and  C_5
    2  A    between atoms: C_3  and  C_23
    3  A    between atoms: C_9  and  N_16
    4  A    between atoms: C_9  and  C_20
    5  A    between atoms: N_15  and  N_16
    6  A    between atoms: N_15  and  C_28
    7  A    between atoms: S_19  and  C_22
    8  A    between atoms: S_19  and  C_28
                            x       y       z     vdW  Elec       q    Type
                         _______ _______ _______ _____ _____    ______ ____

>  <TORSDO>
F 8

$$$$
=
 OpenBabel10222418273D

 28 30  0  0  1  0  0  0  0  0999 V2000
  188.3160  177.6280  141.2510 N   0  0  0  0  0  2  0  0  0  0  0  0
  190.3890  175.8850  141.6930 F   0  0  0  0  0  0  0  0  0  0  0  0
  190.3820  176.6440  140.5690 C   0  0  0  0  0  3  0  0  0  0  0  0
  189.3950  177.4960  140.3220 C   0  0  0  0  0  0  0  0  0  0  0  0
  189.4470  178.4750  138.8190 S   0  0  0  0  0  0  0  0  0  0  0  0
  184.8640  178.9790  139.6920 N   0  0  0  0  0  1  0  0  0  0  0  0
  184.8050  177.3680  137.8080 N   0  0  0  0  0  2  0  0  0  0  0  0
  186.7810  178.2730  138.5220 C   0  0  0  0  0  0  0  0  0  0  0  0
  189.0280  175.5430  137.5700 C   0  0  0  0  0  1  0  0  0  0  0  0
  185.4980  178.3500  138.5850 C   0  0  0  0  0  0  0  0  0  0  0  0
  187.9220  177.7720  138.1930 C   0  0  0  0  0  0  0  0  0  0  0  0
  186.7290  175.9820  136.9100 C   0  0  0  0  0  3  0  0  0  0  0  0
  185.4280  176.7360  136.6290 C   0  0  0  0  0  2  0  0  0  0  0  0
  187.8500  176.4510  137.5150 C   0  0  0  0  0  0  0  0  0  0  0  0
  188.4080  178.4500  142.3860 N   0  0  0  0  0  2  0  0  0  0  0  0
  186.6490  177.5520  143.9690 C   0  0  2  0  0  3  0  0  0  0  0  0
  188.0780  177.6510  143.5670 C   0  0  1  0  0  0  0  0  0  0  0  0
  187.3050  176.5140  143.2660 O   0  0  0  0  0  0  0  0  0  0  0  0
  188.7600  177.1780  145.9330 C   0  0  0  0  0  3  0  0  0  0  0  0
  192.0660  176.8480  147.5370 O   0  0  0  0  0  1  0  0  0  0  0  0
  191.0940  177.0380  146.5650 C   0  0  0  0  0  0  0  0  0  0  0  0
  190.4880  177.4750  144.2620 C   0  0  0  0  0  3  0  0  0  0  0  0
  189.7390  176.9860  146.9110 C   0  0  0  0  0  3  0  0  0  0  0  0
  189.1300  177.4160  144.6030 C   0  0  0  0  0  0  0  0  0  0  0  0
  191.4680  177.2840  145.2410 C   0  0  0  0  0  3  0  0  0  0  0  0
  185.7040  178.2770  143.0220 C   0  0  0  0  0  2  0  0  0  0  0  0
  184.8290  178.8700  145.2530 C   0  0  0  0  0  1  0  0  0  0  0  0
  184.4870  178.7550  143.7830 C   0  0  0  0  0  2  0  0  0  0  0  0
  1 15  1  0  0  0  0
  3  2  1  0  0  0  0
  4  3  2  0  0  0  0
  4  1  1  0  0  0  0
  5  4  1  0  0  0  0
  7 10  1  0  0  0  0
  8 10  2  0  0  0  0
 10  6  1  0  0  0  0
 11  8  2  0  0  0  0
 11  5  1  0  0  0  0
 12 14  2  0  0  0  0
 13 12  1  0  0  0  0
 13  7  1  0  0  0  0
 14  9  1  0  0  0  0
 14 11  1  0  0  0  0
 16 26  1  6  0  0  0
 17 15  1  6  0  0  0
 17 16  1  0  0  0  0
 17 24  1  0  0  0  0
 18 17  1  0  0  0  0
 18 16  1  0  0  0  0
 19 23  1  0  0  0  0
 21 23  2  0  0  0  0
 21 20  1  0  0  0  0
 22 24  1  0  0  0  0
 22 25  2  0  0  0  0
 24 19  2  0  0  0  0
 25 21  1  0  0  0  0
 26 28  1  0  0  0  0
 28 27  1  0  0  0  0
M  END
>  <MODEL>
6

>  <REMARK>
 VINA RESULT:      -7.2      2.874      6.464
  Name = 
  8 active torsions:
  status: ('A' for Active; 'I' for Inactive)
    1  A    between atoms: C_3  and  C_5
    2  A    between atoms: C_3  and  C_23
    3  A    between atoms: C_9  and  N_16
    4  A    between atoms: C_9  and  C_20
    5  A    between atoms: N_15  and  N_16
    6  A    between atoms: N_15  and  C_28
    7  A    between atoms: S_19  and  C_22
    8  A    between atoms: S_19  and  C_28
                            x       y       z     vdW  Elec       q    Type
                         _______ _______ _______ _____ _____    ______ ____

>  <TORSDO>
F 8

$$$$
=
 OpenBabel10222418273D

 28 30  0  0  1  0  0  0  0  0999 V2000
  188.4970  176.6080  142.6380 N   0  0  0  0  0  2  0  0  0  0  0  0
  191.1670  176.0080  142.8430 F   0  0  0  0  0  0  0  0  0  0  0  0
  190.7470  176.8680  141.8810 C   0  0  0  0  0  3  0  0  0  0  0  0
  189.4640  177.1800  141.7530 C   0  0  0  0  0  0  0  0  0  0  0  0
  188.9730  178.3280  140.4640 S   0  0  0  0  0  0  0  0  0  0  0  0
  192.6910  176.4050  138.3430 N   0  0  0  0  0  1  0  0  0  0  0  0
  190.8390  175.1900  137.2290 N   0  0  0  0  0  2  0  0  0  0  0  0
  190.4260  176.6640  138.9290 C   0  0  0  0  0  0  0  0  0  0  0  0
  187.0510  177.7080  137.9630 C   0  0  0  0  0  1  0  0  0  0  0  0
  191.3310  175.9930  138.3080 C   0  0  0  0  0  0  0  0  0  0  0  0
  189.2470  177.1310  139.1580 C   0  0  0  0  0  0  0  0  0  0  0  0
  188.3820  175.8160  137.2100 C   0  0  0  0  0  3  0  0  0  0  0  0
  189.4420  174.7140  137.1940 C   0  0  0  0  0  2  0  0  0  0  0  0
  188.2390  176.8230  138.1100 C   0  0  0  0  0  0  0  0  0  0  0  0
  188.8050  176.2930  143.9710 N   0  0  0  0  0  2  0  0  0  0  0  0
  189.4620  177.8590  145.8480 C   0  0  2  0  0  3  0  0  0  0  0  0
  188.4810  177.4500  144.8080 C   0  0  1  0  0  0  0  0  0  0  0  0
  189.3530  178.5360  144.6110 O   0  0  0  0  0  0  0  0  0  0  0  0
  186.2900  178.2300  143.8710 C   0  0  0  0  0  3  0  0  0  0  0  0
  183.0610  179.0310  145.4650 O   0  0  0  0  0  1  0  0  0  0  0  0
  184.3820  178.6380  145.3070 C   0  0  0  0  0  0  0  0  0  0  0  0
  186.4690  177.8640  146.2590 C   0  0  0  0  0  3  0  0  0  0  0  0
  184.9580  178.6240  144.0320 C   0  0  0  0  0  3  0  0  0  0  0  0
  187.0480  177.8410  144.9830 C   0  0  0  0  0  0  0  0  0  0  0  0
  185.1380  178.2600  146.4200 C   0  0  0  0  0  3  0  0  0  0  0  0
  190.7300  177.0180  145.8460 C   0  0  0  0  0  2  0  0  0  0  0  0
  192.1940  175.6290  147.2680 C   0  0  0  0  0  1  0  0  0  0  0  0
  191.1500  176.7240  147.2700 C   0  0  0  0  0  2  0  0  0  0  0  0
  1 15  1  0  0  0  0
  3  2  1  0  0  0  0
  4  3  2  0  0  0  0
  4  1  1  0  0  0  0
  5  4  1  0  0  0  0
  7 10  1  0  0  0  0
  8 11  2  0  0  0  0
  9 14  1  0  0  0  0
 10  6  1  0  0  0  0
 10  8  2  0  0  0  0
 11  5  1  0  0  0  0
 12 14  2  0  0  0  0
 13 12  1  0  0  0  0
 13  7  1  0  0  0  0
 14 11  1  0  0  0  0
 16 26  1  6  0  0  0
 17 15  1  6  0  0  0
 17 24  1  0  0  0  0
 17 16  1  0  0  0  0
 18 17  1  0  0  0  0
 18 16  1  0  0  0  0
 19 23  2  0  0  0  0
 19 24  1  0  0  0  0
 21 20  1  0  0  0  0
 21 25  2  0  0  0  0
 22 25  1  0  0  0  0
 23 21  1  0  0  0  0
 24 22  2  0  0  0  0
 26 28  1  0  0  0  0
 27 28  1  0  0  0  0
M  END
>  <MODEL>
7

>  <REMARK>
 VINA RESULT:      -7.1      3.084      8.226
  Name = 
  8 active torsions:
  status: ('A' for Active; 'I' for Inactive)
    1  A    between atoms: C_3  and  C_5
    2  A    between atoms: C_3  and  C_23
    3  A    between atoms: C_9  and  N_16
    4  A    between atoms: C_9  and  C_20
    5  A    between atoms: N_15  and  N_16
    6  A    between atoms: N_15  and  C_28
    7  A    between atoms: S_19  and  C_22
    8  A    between atoms: S_19  and  C_28
                            x       y       z     vdW  Elec       q    Type
                         _______ _______ _______ _____ _____    ______ ____

>  <TORSDO>
F 8

$$$$
=
 OpenBabel10222418273D

 28 30  0  0  1  0  0  0  0  0999 V2000
  189.3240  177.8980  141.9320 N   0  0  0  0  0  2  0  0  0  0  0  0
  186.8500  178.7940  141.1540 F   0  0  0  0  0  0  0  0  0  0  0  0
  187.6860  178.2540  140.2320 C   0  0  0  0  0  3  0  0  0  0  0  0
  188.8890  177.8110  140.5720 C   0  0  0  0  0  0  0  0  0  0  0  0
  189.9450  177.1020  139.3060 S   0  0  0  0  0  0  0  0  0  0  0  0
  187.8100  173.7270  136.8430 N   0  0  0  0  0  1  0  0  0  0  0  0
  186.4800  175.7080  136.1690 N   0  0  0  0  0  2  0  0  0  0  0  0
  188.1270  175.8770  137.7470 C   0  0  0  0  0  0  0  0  0  0  0  0
  189.0580  179.3800  137.2180 C   0  0  0  0  0  1  0  0  0  0  0  0
  187.3940  175.0690  137.0660 C   0  0  0  0  0  0  0  0  0  0  0  0
  188.6150  177.0140  138.1080 C   0  0  0  0  0  0  0  0  0  0  0  0
  187.0980  178.1490  136.4700 C   0  0  0  0  0  3  0  0  0  0  0  0
  186.0020  177.0850  136.4050 C   0  0  0  0  0  2  0  0  0  0  0  0
  188.1950  178.1680  137.2690 C   0  0  0  0  0  0  0  0  0  0  0  0
  189.1100  176.8570  142.8490 N   0  0  0  0  0  2  0  0  0  0  0  0
  190.1100  177.1900  145.1490 C   0  0  2  0  0  3  0  0  0  0  0  0
  189.0010  177.4330  144.1890 C   0  0  1  0  0  0  0  0  0  0  0  0
  189.9760  178.4130  144.4510 O   0  0  0  0  0  0  0  0  0  0  0  0
  186.5630  177.9190  143.8560 C   0  0  0  0  0  3  0  0  0  0  0  0
  183.8630  178.7750  146.2200 O   0  0  0  0  0  1  0  0  0  0  0  0
  185.1170  178.4400  145.7280 C   0  0  0  0  0  0  0  0  0  0  0  0
  187.4590  177.9580  146.1060 C   0  0  0  0  0  3  0  0  0  0  0  0
  185.3010  178.2540  144.3530 C   0  0  0  0  0  3  0  0  0  0  0  0
  187.6450  177.7620  144.7310 C   0  0  0  0  0  0  0  0  0  0  0  0
  186.1960  178.2940  146.6030 C   0  0  0  0  0  3  0  0  0  0  0  0
  191.2620  176.3980  144.5510 C   0  0  0  0  0  2  0  0  0  0  0  0
  191.6150  176.2970  146.9930 C   0  0  0  0  0  1  0  0  0  0  0  0
  192.0560  175.7370  145.6570 C   0  0  0  0  0  2  0  0  0  0  0  0
  1 15  1  0  0  0  0
  3  4  2  0  0  0  0
  3  2  1  0  0  0  0
  4  1  1  0  0  0  0
  5  4  1  0  0  0  0
  6 10  1  0  0  0  0
  7 13  1  0  0  0  0
  7 10  1  0  0  0  0
  8 11  2  0  0  0  0
  9 14  1  0  0  0  0
 10  8  2  0  0  0  0
 11  5  1  0  0  0  0
 12 14  2  0  0  0  0
 13 12  1  0  0  0  0
 14 11  1  0  0  0  0
 16 26  1  6  0  0  0
 17 15  1  6  0  0  0
 17 18  1  0  0  0  0
 17 24  1  0  0  0  0
 17 16  1  0  0  0  0
 18 16  1  0  0  0  0
 19 23  2  0  0  0  0
 19 24  1  0  0  0  0
 21 20  1  0  0  0  0
 21 25  2  0  0  0  0
 22 25  1  0  0  0  0
 23 21  1  0  0  0  0
 24 22  2  0  0  0  0
 26 28  1  0  0  0  0
 28 27  1  0  0  0  0
M  END
>  <MODEL>
8

>  <REMARK>
 VINA RESULT:      -7.0      3.174      7.971
  Name = 
  8 active torsions:
  status: ('A' for Active; 'I' for Inactive)
    1  A    between atoms: C_3  and  C_5
    2  A    between atoms: C_3  and  C_23
    3  A    between atoms: C_9  and  N_16
    4  A    between atoms: C_9  and  C_20
    5  A    between atoms: N_15  and  N_16
    6  A    between atoms: N_15  and  C_28
    7  A    between atoms: S_19  and  C_22
    8  A    between atoms: S_19  and  C_28
                            x       y       z     vdW  Elec       q    Type
                         _______ _______ _______ _____ _____    ______ ____

>  <TORSDO>
F 8

$$$$
=
 OpenBabel10222418273D

 28 30  0  0  1  0  0  0  0  0999 V2000
  187.2600  177.3000  142.9500 N   0  0  0  0  0  2  0  0  0  0  0  0
  184.8250  177.8400  141.8060 F   0  0  0  0  0  0  0  0  0  0  0  0
  185.9200  178.5330  141.4050 C   0  0  0  0  0  3  0  0  0  0  0  0
  187.1130  178.2990  141.9370 C   0  0  0  0  0  0  0  0  0  0  0  0
  188.5230  179.2480  141.3600 S   0  0  0  0  0  0  0  0  0  0  0  0
  186.1850  177.5390  137.6680 N   0  0  0  0  0  1  0  0  0  0  0  0
  188.4100  176.4950  137.3360 N   0  0  0  0  0  2  0  0  0  0  0  0
  188.0520  177.9880  139.0310 C   0  0  0  0  0  0  0  0  0  0  0  0
  190.5520  176.7550  141.4060 C   0  0  0  0  0  1  0  0  0  0  0  0
  187.5800  177.4920  137.9420 C   0  0  0  0  0  0  0  0  0  0  0  0
  188.8670  178.1070  140.0220 C   0  0  0  0  0  0  0  0  0  0  0  0
  190.2830  176.2920  139.0340 C   0  0  0  0  0  3  0  0  0  0  0  0
  189.8670  176.4550  137.5710 C   0  0  0  0  0  2  0  0  0  0  0  0
  189.9190  177.0590  140.0940 C   0  0  0  0  0  0  0  0  0  0  0  0
  186.2840  177.0950  143.9380 N   0  0  0  0  0  2  0  0  0  0  0  0
  186.0170  179.0010  145.5820 C   0  0  2  0  0  3  0  0  0  0  0  0
  186.7210  177.7590  145.1670 C   0  0  1  0  0  0  0  0  0  0  0  0
  185.7430  177.7490  146.1790 O   0  0  0  0  0  0  0  0  0  0  0  0
  189.2040  177.7610  144.8150 C   0  0  0  0  0  3  0  0  0  0  0  0
  192.0150  176.7960  147.0010 O   0  0  0  0  0  1  0  0  0  0  0  0
  190.7220  177.0370  146.5580 C   0  0  0  0  0  0  0  0  0  0  0  0
  188.3340  177.0360  146.9570 C   0  0  0  0  0  3  0  0  0  0  0  0
  190.5060  177.5190  145.2630 C   0  0  0  0  0  3  0  0  0  0  0  0
  188.1140  177.5270  145.6630 C   0  0  0  0  0  0  0  0  0  0  0  0
  189.6370  176.7930  147.4040 C   0  0  0  0  0  3  0  0  0  0  0  0
  184.8650  179.3770  144.6610 C   0  0  0  0  0  2  0  0  0  0  0  0
  182.5110  178.8080  144.1830 C   0  0  0  0  0  1  0  0  0  0  0  0
  183.5560  178.9250  145.2710 C   0  0  0  0  0  2  0  0  0  0  0  0
  1 15  1  0  0  0  0
  3  2  1  0  0  0  0
  3  4  2  0  0  0  0
  4  1  1  0  0  0  0
  5  4  1  0  0  0  0
  6 10  1  0  0  0  0
  7 13  1  0  0  0  0
  7 10  1  0  0  0  0
  8 11  2  0  0  0  0
 10  8  2  0  0  0  0
 11 14  1  0  0  0  0
 11  5  1  0  0  0  0
 12 14  2  0  0  0  0
 13 12  1  0  0  0  0
 14  9  1  0  0  0  0
 16 26  1  6  0  0  0
 16 18  1  0  0  0  0
 17 15  1  6  0  0  0
 17 16  1  0  0  0  0
 17 24  1  0  0  0  0
 17 18  1  0  0  0  0
 19 23  2  0  0  0  0
 19 24  1  0  0  0  0
 21 20  1  0  0  0  0
 21 25  2  0  0  0  0
 22 25  1  0  0  0  0
 23 21  1  0  0  0  0
 24 22  2  0  0  0  0
 26 28  1  0  0  0  0
 27 28  1  0  0  0  0
M  END
>  <MODEL>
9

>  <REMARK>
 VINA RESULT:      -6.8      3.203      6.933
  Name = 
  8 active torsions:
  status: ('A' for Active; 'I' for Inactive)
    1  A    between atoms: C_3  and  C_5
    2  A    between atoms: C_3  and  C_23
    3  A    between atoms: C_9  and  N_16
    4  A    between atoms: C_9  and  C_20
    5  A    between atoms: N_15  and  N_16
    6  A    between atoms: N_15  and  C_28
    7  A    between atoms: S_19  and  C_22
    8  A    between atoms: S_19  and  C_28
                            x       y       z     vdW  Elec       q    Type
                         _______ _______ _______ _____ _____    ______ ____

>  <TORSDO>
F 8

$$$$
