=
 OpenBabel10222417533D

 53 56  0  0  1  0  0  0  0  0999 V2000
  185.5410  175.1460  134.9530 C   0  0  0  0  0  2  0  0  0  0  0  0
  185.8780  176.2880  135.9100 C   0  0  2  0  0  3  0  0  0  0  0  0
  184.7080  179.6060  139.9110 C   0  0  0  0  0  2  0  0  0  0  0  0
  184.7740  176.5420  136.8620 N   0  0  2  0  0  0  0  0  0  0  0  0
  180.2250  175.6750  136.9910 C   0  0  0  0  0  3  0  0  0  0  0  0
  182.6970  178.4310  140.8600 C   0  0  2  0  0  3  0  0  0  0  0  0
  188.0880  178.0170  140.5610 C   0  0  0  0  0  0  0  0  0  0  0  0
  182.6710  176.3880  139.5570 C   0  0  0  0  0  0  0  0  0  0  0  0
  188.2250  177.1780  139.4490 C   0  0  0  0  0  3  0  0  0  0  0  0
  184.9430  177.8190  137.5880 C   0  0  0  0  0  2  0  0  0  0  0  0
  184.6650  175.4390  137.8240 C   0  0  0  0  0  2  0  0  0  0  0  0
  183.0800  177.0110  140.6280 C   0  0  0  0  0  3  0  0  0  0  0  0
  185.6720  173.7960  135.6370 C   0  0  1  0  0  3  0  0  0  0  0  0
  184.0900  172.0550  136.9460 O   0  0  0  0  0  0  0  0  0  0  0  0
  181.6040  173.7850  136.3230 C   0  0  0  0  0  2  0  0  0  0  0  0
  182.9270  174.3910  136.4100 N   0  0  1  0  0  0  0  0  0  0  0  0
  183.2560  174.8090  137.7970 C   0  0  2  0  0  3  0  0  0  0  0  0
  184.0280  173.1330  135.8980 S   0  0  0  0  0  0  0  0  0  0  0  0
  186.9330  178.7890  140.7000 C   0  0  0  0  0  3  0  0  0  0  0  0
  187.2070  177.1040  138.4960 C   0  0  0  0  0  3  0  0  0  0  0  0
  182.2420  175.7420  138.4930 C   0  0  0  0  0  0  0  0  0  0  0  0
  180.7380  175.5080  138.3910 C   0  0  1  0  0  3  0  0  0  0  0  0
  185.9010  178.7140  139.7540 C   0  0  0  0  0  0  0  0  0  0  0  0
  186.0280  177.8510  138.6470 C   0  0  0  0  0  0  0  0  0  0  0  0
  183.5420  172.5350  134.6060 O   0  0  0  0  0  0  0  0  0  0  0  0
  180.6060  174.8480  136.0230 C   0  0  0  0  0  3  0  0  0  0  0  0
  183.9250  179.2710  141.1730 C   0  0  0  0  0  2  0  0  0  0  0  0
  187.4400  177.7800  134.7610 C   0  0  0  0  0  2  0  0  0  0  0  0
  185.1570  178.3020  134.5960 O   0  0  0  0  0  1  0  0  0  0  0  0
  186.1840  177.4940  135.0700 C   0  0  0  0  0  0  0  0  0  0  0  0
  179.2970  175.5040  140.4400 C   0  0  0  0  0  1  0  0  0  0  0  0
  179.8890  176.3620  139.3380 C   0  0  0  0  0  2  0  0  0  0  0  0
  185.9860  171.5670  134.7980 O   0  0  0  0  0  1  0  0  0  0  0  0
  186.5520  172.8440  134.8180 C   0  0  2  0  0  3  0  0  0  0  0  0
  188.1340  172.2000  137.1970 C   0  0  0  0  0  1  0  0  0  0  0  0
  189.0210  171.7490  134.7050 O   0  0  0  0  0  0  0  0  0  0  0  0
  188.2040  172.7300  135.5010 S   0  0  0  0  0  0  0  0  0  0  0  0
  188.8610  174.0800  135.4450 O   0  0  0  0  0  0  0  0  0  0  0  0
  181.0410  178.5520  142.8900 N   0  0  0  0  0  0  0  0  0  0  0  0
  181.7710  178.4990  141.9930 C   0  0  0  0  0  0  0  0  0  0  0  0
  189.1140  178.1100  141.5500 N   0  0  0  0  0  2  0  0  0  0  0  0
  189.6460  176.9450  142.2490 C   0  0  0  0  0  2  0  0  0  0  0  0
  189.6610  177.1660  143.7630 C   0  0  1  0  0  0  0  0  0  0  0  0
  189.9150  178.6560  144.0240 C   0  0  0  0  0  1  0  0  0  0  0  0
  187.5580  176.0550  143.3740 F   0  0  0  0  0  0  0  0  0  0  0  0
  188.2860  176.7350  144.3360 C   0  0  2  0  0  3  0  0  0  0  0  0
  187.4490  177.8940  144.8720 C   0  0  0  0  0  2  0  0  0  0  0  0
  186.1190  177.9620  144.1480 C   0  0  0  0  0  1  0  0  0  0  0  0
  190.7050  176.3700  144.3040 O   0  0  0  0  0  0  0  0  0  0  0  0
  191.3630  177.0650  145.3380 C   0  0  0  0  0  2  0  0  0  0  0  0
  192.3660  176.3960  147.3950 O   0  0  0  0  0  1  0  0  0  0  0  0
  191.1880  176.3250  146.6500 C   0  0  1  0  0  3  0  0  0  0  0  0
  190.0570  176.9540  147.4370 C   0  0  0  0  0  1  0  0  0  0  0  0
  1 13  1  0  0  0  0
  1  2  1  0  0  0  0
  2 30  1  6  0  0  0
  2  4  1  0  0  0  0
  3 27  1  0  0  0  0
  4 10  1  1  0  0  0
  4 11  1  0  0  0  0
  5 22  1  0  0  0  0
  6 27  1  0  0  0  0
  6 40  1  1  0  0  0
  7 19  1  0  0  0  0
  7 41  1  0  0  0  0
  8 12  2  0  0  0  0
  9  7  2  0  0  0  0
 10 24  1  0  0  0  0
 12  6  1  0  0  0  0
 13 34  1  6  0  0  0
 13 18  1  0  0  0  0
 16 15  1  1  0  0  0
 16 17  1  0  0  0  0
 17 11  1  6  0  0  0
 17 21  1  0  0  0  0
 18 16  1  0  0  0  0
 18 14  2  0  0  0  0
 20 24  2  0  0  0  0
 20  9  1  0  0  0  0
 21  8  2  0  0  0  0
 22 21  1  0  0  0  0
 22 32  1  1  0  0  0
 23  3  1  0  0  0  0
 23 19  2  0  0  0  0
 24 23  1  0  0  0  0
 25 18  2  0  0  0  0
 26 15  1  0  0  0  0
 26  5  2  0  0  0  0
 28 30  2  0  0  0  0
 29 30  1  0  0  0  0
 32 31  1  0  0  0  0
 34 33  1  1  0  0  0
 34 37  1  0  0  0  0
 36 37  2  0  0  0  0
 37 35  1  0  0  0  0
 38 37  2  0  0  0  0
 40 39  3  0  0  0  0
 41 42  1  0  0  0  0
 42 43  1  0  0  0  0
 43 44  1  1  0  0  0
 43 49  1  0  0  0  0
 43 46  1  0  0  0  0
 46 45  1  6  0  0  0
 46 47  1  0  0  0  0
 48 47  1  0  0  0  0
 49 50  1  0  0  0  0
 50 52  1  0  0  0  0
 52 51  1  0  0  0  0
 52 53  1  1  0  0  0
M  END
>  <MODEL>
1

>  <REMARK>
 VINA RESULT:      -6.0      0.000      0.000
  Name = 
  13 active torsions:
  status: ('A' for Active; 'I' for Inactive)
    1  A    between atoms: C_3  and  C_38
    2  A    between atoms: C_6  and  C_43
    3  A    between atoms: C_8  and  C_38
    4  A    between atoms: C_8  and  C_42
    5  A    between atoms: C_8  and  O_49
    6  A    between atoms: C_9  and  C_27
    7  A    between atoms: C_9  and  S_28
    8  A    between atoms: C_15  and  C_44
    9  A    between atoms: C_16  and  O_49
   10  A    between atoms: C_16  and  C_50
   11  A    between atoms: N_17  and  C_19
   12  A    between atoms: N_17  and  C_42
   13  A    between atoms: C_31  and  C_41
                            x       y       z     vdW  Elec       q    Type
                         _______ _______ _______ _____ _____    ______ ____

>  <TORSDO>
F 13

$$$$
=
 OpenBabel10222417533D

 53 56  0  0  1  0  0  0  0  0999 V2000
  186.2270  175.0470  135.0660 C   0  0  0  0  0  2  0  0  0  0  0  0
  186.0690  176.2690  135.9700 C   0  0  2  0  0  3  0  0  0  0  0  0
  183.3440  179.2770  139.4210 C   0  0  0  0  0  2  0  0  0  0  0  0
  184.7780  176.2460  136.6920 N   0  0  2  0  0  0  0  0  0  0  0  0
  180.6700  174.1860  136.1030 C   0  0  0  0  0  3  0  0  0  0  0  0
  181.5660  177.6340  140.1010 C   0  0  2  0  0  3  0  0  0  0  0  0
  186.8350  178.6830  140.7740 C   0  0  0  0  0  0  0  0  0  0  0  0
  182.3180  175.6180  138.9860 C   0  0  0  0  0  0  0  0  0  0  0  0
  187.3930  177.8760  139.7750 C   0  0  0  0  0  3  0  0  0  0  0  0
  184.4690  177.5440  137.3280 C   0  0  0  0  0  2  0  0  0  0  0  0
  184.7790  175.1870  137.7080 C   0  0  0  0  0  2  0  0  0  0  0  0
  182.3410  176.3630  140.0560 C   0  0  0  0  0  3  0  0  0  0  0  0
  186.5730  173.8060  135.8700 C   0  0  1  0  0  3  0  0  0  0  0  0
  185.2790  171.7460  137.0240 O   0  0  0  0  0  0  0  0  0  0  0  0
  182.5930  172.7180  135.8410 C   0  0  0  0  0  2  0  0  0  0  0  0
  183.6720  173.6610  136.1050 N   0  0  1  0  0  0  0  0  0  0  0  0
  183.6140  174.1990  137.4890 C   0  0  2  0  0  3  0  0  0  0  0  0
  185.1390  172.7320  135.8970 S   0  0  0  0  0  0  0  0  0  0  0  0
  185.5150  179.1180  140.6470 C   0  0  0  0  0  3  0  0  0  0  0  0
  186.6280  177.4990  138.6700 C   0  0  0  0  0  3  0  0  0  0  0  0
  182.2800  174.8450  137.9200 C   0  0  0  0  0  0  0  0  0  0  0  0
  180.9350  174.2100  137.5790 C   0  0  1  0  0  3  0  0  0  0  0  0
  184.7350  178.7350  139.5470 C   0  0  0  0  0  0  0  0  0  0  0  0
  185.2890  177.9030  138.5520 C   0  0  0  0  0  0  0  0  0  0  0  0
  185.0780  171.9830  134.5930 O   0  0  0  0  0  0  0  0  0  0  0  0
  181.4290  173.4610  135.2860 C   0  0  0  0  0  3  0  0  0  0  0  0
  182.4510  178.7840  140.5520 C   0  0  0  0  0  2  0  0  0  0  0  0
  187.4080  177.9440  134.7920 C   0  0  0  0  0  2  0  0  0  0  0  0
  185.0750  178.1180  134.5940 O   0  0  0  0  0  1  0  0  0  0  0  0
  186.2040  177.4840  135.0980 C   0  0  0  0  0  0  0  0  0  0  0  0
  179.3900  174.0490  139.5450 C   0  0  0  0  0  1  0  0  0  0  0  0
  179.7310  174.8330  138.2910 C   0  0  0  0  0  2  0  0  0  0  0  0
  187.7700  171.7400  135.6100 O   0  0  0  0  0  1  0  0  0  0  0  0
  187.8080  173.1010  135.2970 C   0  0  2  0  0  3  0  0  0  0  0  0
  190.6930  172.7170  135.6200 C   0  0  0  0  0  1  0  0  0  0  0  0
  189.5810  175.1400  135.3220 O   0  0  0  0  0  0  0  0  0  0  0  0
  189.3220  173.7990  135.9510 S   0  0  0  0  0  0  0  0  0  0  0  0
  189.1910  173.9690  137.4390 O   0  0  0  0  0  0  0  0  0  0  0  0
  179.5820  177.3680  141.7940 N   0  0  0  0  0  0  0  0  0  0  0  0
  180.4580  177.4860  141.0470 C   0  0  0  0  0  0  0  0  0  0  0  0
  187.5960  179.0820  141.9140 N   0  0  0  0  0  2  0  0  0  0  0  0
  188.7180  178.3050  142.4280 C   0  0  0  0  0  2  0  0  0  0  0  0
  188.2870  177.4090  143.5920 C   0  0  1  0  0  0  0  0  0  0  0  0
  188.4580  175.9480  143.1570 C   0  0  0  0  0  1  0  0  0  0  0  0
  189.8780  178.9070  144.6070 F   0  0  0  0  0  0  0  0  0  0  0  0
  189.1840  177.7260  144.8160 C   0  0  2  0  0  3  0  0  0  0  0  0
  190.1750  176.6180  145.1590 C   0  0  0  0  0  2  0  0  0  0  0  0
  191.0950  177.0600  146.2800 C   0  0  0  0  0  1  0  0  0  0  0  0
  186.9250  177.6980  143.8760 O   0  0  0  0  0  0  0  0  0  0  0  0
  186.7310  177.8190  145.2660 C   0  0  0  0  0  2  0  0  0  0  0  0
  185.5390  179.3500  146.6520 O   0  0  0  0  0  1  0  0  0  0  0  0
  185.4110  178.5120  145.5440 C   0  0  1  0  0  3  0  0  0  0  0  0
  185.0090  179.3320  144.3370 C   0  0  0  0  0  1  0  0  0  0  0  0
  1 13  1  0  0  0  0
  1  2  1  0  0  0  0
  2 30  1  6  0  0  0
  2  4  1  0  0  0  0
  3 23  1  0  0  0  0
  3 27  1  0  0  0  0
  4 10  1  1  0  0  0
  4 11  1  0  0  0  0
  5 22  1  0  0  0  0
  6 27  1  0  0  0  0
  6 40  1  1  0  0  0
  7 41  1  0  0  0  0
  8 12  2  0  0  0  0
  9  7  2  0  0  0  0
 10 24  1  0  0  0  0
 12  6  1  0  0  0  0
 13 34  1  6  0  0  0
 13 18  1  0  0  0  0
 16 15  1  1  0  0  0
 16 17  1  0  0  0  0
 17 11  1  6  0  0  0
 17 21  1  0  0  0  0
 18 16  1  0  0  0  0
 18 14  2  0  0  0  0
 19  7  1  0  0  0  0
 20  9  1  0  0  0  0
 21  8  2  0  0  0  0
 22 21  1  0  0  0  0
 22 32  1  1  0  0  0
 23 19  2  0  0  0  0
 24 20  2  0  0  0  0
 24 23  1  0  0  0  0
 25 18  2  0  0  0  0
 26 15  1  0  0  0  0
 26  5  2  0  0  0  0
 28 30  2  0  0  0  0
 29 30  1  0  0  0  0
 32 31  1  0  0  0  0
 34 33  1  1  0  0  0
 34 37  1  0  0  0  0
 35 37  1  0  0  0  0
 36 37  2  0  0  0  0
 37 38  2  0  0  0  0
 40 39  3  0  0  0  0
 41 42  1  0  0  0  0
 42 43  1  0  0  0  0
 43 44  1  6  0  0  0
 43 49  1  0  0  0  0
 43 46  1  0  0  0  0
 46 45  1  6  0  0  0
 46 47  1  0  0  0  0
 47 48  1  0  0  0  0
 49 50  1  0  0  0  0
 50 52  1  0  0  0  0
 52 53  1  6  0  0  0
 52 51  1  0  0  0  0
M  END
>  <MODEL>
2

>  <REMARK>
 VINA RESULT:      -4.4      1.691      2.522
  Name = 
  13 active torsions:
  status: ('A' for Active; 'I' for Inactive)
    1  A    between atoms: C_3  and  C_38
    2  A    between atoms: C_6  and  C_43
    3  A    between atoms: C_8  and  C_38
    4  A    between atoms: C_8  and  C_42
    5  A    between atoms: C_8  and  O_49
    6  A    between atoms: C_9  and  C_27
    7  A    between atoms: C_9  and  S_28
    8  A    between atoms: C_15  and  C_44
    9  A    between atoms: C_16  and  O_49
   10  A    between atoms: C_16  and  C_50
   11  A    between atoms: N_17  and  C_19
   12  A    between atoms: N_17  and  C_42
   13  A    between atoms: C_31  and  C_41
                            x       y       z     vdW  Elec       q    Type
                         _______ _______ _______ _____ _____    ______ ____

>  <TORSDO>
F 13

$$$$
=
 OpenBabel10222417533D

 53 56  0  0  1  0  0  0  0  0999 V2000
  185.2510  175.8770  135.2710 C   0  0  0  0  0  2  0  0  0  0  0  0
  185.9890  176.7750  136.2620 C   0  0  2  0  0  3  0  0  0  0  0  0
  186.2340  179.7400  140.6830 C   0  0  0  0  0  2  0  0  0  0  0  0
  185.1200  177.1610  137.3960 N   0  0  2  0  0  0  0  0  0  0  0  0
  180.5580  177.3900  138.1660 C   0  0  0  0  0  3  0  0  0  0  0  0
  184.1340  178.9650  141.8270 C   0  0  2  0  0  3  0  0  0  0  0  0
  189.1550  177.3240  140.6410 C   0  0  0  0  0  0  0  0  0  0  0  0
  183.4200  177.1690  140.3650 C   0  0  0  0  0  0  0  0  0  0  0  0
  188.9280  176.6250  139.4500 C   0  0  0  0  0  3  0  0  0  0  0  0
  185.7010  178.2580  138.1990 C   0  0  0  0  0  2  0  0  0  0  0  0
  184.8620  176.0020  138.2590 C   0  0  0  0  0  2  0  0  0  0  0  0
  184.1100  177.5360  141.4090 C   0  0  0  0  0  3  0  0  0  0  0  0
  185.1240  174.4590  135.8000 C   0  0  1  0  0  3  0  0  0  0  0  0
  183.3380  172.9920  137.1800 O   0  0  0  0  0  0  0  0  0  0  0  0
  181.3120  175.3270  137.1180 C   0  0  0  0  0  2  0  0  0  0  0  0
  182.7450  175.5850  137.0500 N   0  0  1  0  0  0  0  0  0  0  0  0
  183.3490  175.7340  138.3990 C   0  0  2  0  0  3  0  0  0  0  0  0
  183.4150  174.1770  136.2570 S   0  0  0  0  0  0  0  0  0  0  0  0
  188.2630  178.3240  141.0310 C   0  0  0  0  0  3  0  0  0  0  0  0
  187.8100  176.9170  138.6680 C   0  0  0  0  0  3  0  0  0  0  0  0
  182.7050  176.7840  139.3280 C   0  0  0  0  0  0  0  0  0  0  0  0
  181.1900  176.9290  139.4450 C   0  0  1  0  0  3  0  0  0  0  0  0
  187.1310  178.6170  140.2580 C   0  0  0  0  0  0  0  0  0  0  0  0
  186.8880  177.8970  139.0710 C   0  0  0  0  0  0  0  0  0  0  0  0
  182.6280  173.8810  135.0090 O   0  0  0  0  0  0  0  0  0  0  0  0
  180.5870  176.6260  137.0780 C   0  0  0  0  0  3  0  0  0  0  0  0
  185.5640  179.4430  142.0170 C   0  0  0  0  0  2  0  0  0  0  0  0
  185.6320  178.6680  134.7530 C   0  0  0  0  0  2  0  0  0  0  0  0
  187.8090  178.3650  135.5790 O   0  0  0  0  0  1  0  0  0  0  0  0
  186.4780  177.9710  135.4970 C   0  0  0  0  0  0  0  0  0  0  0  0
  180.2660  179.1780  140.0500 C   0  0  0  0  0  1  0  0  0  0  0  0
  180.7180  177.8330  140.5880 C   0  0  0  0  0  2  0  0  0  0  0  0
  184.6630  172.4340  134.5940 O   0  0  0  0  0  1  0  0  0  0  0  0
  185.6190  173.4370  134.7690 C   0  0  2  0  0  3  0  0  0  0  0  0
  187.3660  172.8420  137.0430 C   0  0  0  0  0  1  0  0  0  0  0  0
  187.1630  171.2240  134.9120 O   0  0  0  0  0  0  0  0  0  0  0  0
  187.1580  172.6810  135.2840 S   0  0  0  0  0  0  0  0  0  0  0  0
  188.3050  173.3700  134.5990 O   0  0  0  0  0  0  0  0  0  0  0  0
  182.8440  179.2180  144.0960 N   0  0  0  0  0  0  0  0  0  0  0  0
  183.4120  179.1070  143.0940 C   0  0  0  0  0  0  0  0  0  0  0  0
  190.2920  177.0440  141.4590 N   0  0  0  0  0  2  0  0  0  0  0  0
  190.5960  177.7940  142.6730 C   0  0  0  0  0  2  0  0  0  0  0  0
  190.1820  177.0160  143.9240 C   0  0  1  0  0  0  0  0  0  0  0  0
  189.5060  175.7150  143.4720 C   0  0  0  0  0  1  0  0  0  0  0  0
  191.9740  175.4790  144.4050 F   0  0  0  0  0  0  0  0  0  0  0  0
  191.4530  176.7130  144.7580 C   0  0  2  0  0  3  0  0  0  0  0  0
  191.2250  176.7470  146.2670 C   0  0  0  0  0  2  0  0  0  0  0  0
  192.2350  175.8650  146.9740 C   0  0  0  0  0  1  0  0  0  0  0  0
  189.2780  177.8290  144.6580 O   0  0  0  0  0  0  0  0  0  0  0  0
  187.9480  177.4520  144.3830 C   0  0  0  0  0  2  0  0  0  0  0  0
  185.7440  177.5160  145.2880 O   0  0  0  0  0  1  0  0  0  0  0  0
  187.0130  178.0840  145.3960 C   0  0  1  0  0  3  0  0  0  0  0  0
  187.5510  177.8520  146.7920 C   0  0  0  0  0  1  0  0  0  0  0  0
  1 13  1  0  0  0  0
  1  2  1  0  0  0  0
  2 30  1  6  0  0  0
  2  4  1  0  0  0  0
  3 27  1  0  0  0  0
  4 10  1  1  0  0  0
  4 11  1  0  0  0  0
  5 22  1  0  0  0  0
  6 27  1  0  0  0  0
  6 40  1  1  0  0  0
  7 19  1  0  0  0  0
  7 41  1  0  0  0  0
  8 12  2  0  0  0  0
  9  7  2  0  0  0  0
 10 24  1  0  0  0  0
 12  6  1  0  0  0  0
 13 34  1  6  0  0  0
 13 18  1  0  0  0  0
 16 15  1  1  0  0  0
 16 17  1  0  0  0  0
 17 11  1  6  0  0  0
 17 21  1  0  0  0  0
 18 16  1  0  0  0  0
 18 14  2  0  0  0  0
 20 24  2  0  0  0  0
 20  9  1  0  0  0  0
 21 22  1  0  0  0  0
 21  8  2  0  0  0  0
 22 32  1  1  0  0  0
 23  3  1  0  0  0  0
 23 19  2  0  0  0  0
 24 23  1  0  0  0  0
 25 18  2  0  0  0  0
 26 15  1  0  0  0  0
 26  5  2  0  0  0  0
 28 30  2  0  0  0  0
 30 29  1  0  0  0  0
 31 32  1  0  0  0  0
 34 33  1  1  0  0  0
 34 37  1  0  0  0  0
 36 37  2  0  0  0  0
 37 35  1  0  0  0  0
 38 37  2  0  0  0  0
 40 39  3  0  0  0  0
 41 42  1  0  0  0  0
 42 43  1  0  0  0  0
 43 44  1  6  0  0  0
 43 49  1  0  0  0  0
 43 46  1  0  0  0  0
 46 45  1  6  0  0  0
 46 47  1  0  0  0  0
 47 48  1  0  0  0  0
 50 49  1  0  0  0  0
 50 52  1  0  0  0  0
 51 52  1  0  0  0  0
 52 53  1  1  0  0  0
M  END
>  <MODEL>
3

>  <REMARK>
 VINA RESULT:      -4.3      1.595      2.427
  Name = 
  13 active torsions:
  status: ('A' for Active; 'I' for Inactive)
    1  A    between atoms: C_3  and  C_38
    2  A    between atoms: C_6  and  C_43
    3  A    between atoms: C_8  and  C_38
    4  A    between atoms: C_8  and  C_42
    5  A    between atoms: C_8  and  O_49
    6  A    between atoms: C_9  and  C_27
    7  A    between atoms: C_9  and  S_28
    8  A    between atoms: C_15  and  C_44
    9  A    between atoms: C_16  and  O_49
   10  A    between atoms: C_16  and  C_50
   11  A    between atoms: N_17  and  C_19
   12  A    between atoms: N_17  and  C_42
   13  A    between atoms: C_31  and  C_41
                            x       y       z     vdW  Elec       q    Type
                         _______ _______ _______ _____ _____    ______ ____

>  <TORSDO>
F 13

$$$$
=
 OpenBabel10222417533D

 53 56  0  0  1  0  0  0  0  0999 V2000
  187.7630  176.0660  137.1220 C   0  0  0  0  0  2  0  0  0  0  0  0
  186.2350  176.0670  137.0880 C   0  0  2  0  0  3  0  0  0  0  0  0
  181.4570  176.9160  139.2870 C   0  0  0  0  0  2  0  0  0  0  0  0
  185.6650  176.5850  138.3510 N   0  0  2  0  0  0  0  0  0  0  0  0
  187.1400  177.0720  142.7160 C   0  0  0  0  0  3  0  0  0  0  0  0
  182.1420  178.3230  141.2560 C   0  0  2  0  0  3  0  0  0  0  0  0
  181.5690  178.5680  135.8770 C   0  0  0  0  0  0  0  0  0  0  0  0
  184.5020  178.6550  140.8150 C   0  0  0  0  0  0  0  0  0  0  0  0
  182.8720  178.2710  135.4600 C   0  0  0  0  0  3  0  0  0  0  0  0
  184.2160  176.3160  138.4630 C   0  0  0  0  0  2  0  0  0  0  0  0
  185.9090  178.0270  138.4690 C   0  0  0  0  0  2  0  0  0  0  0  0
  183.2790  179.0800  140.6630 C   0  0  0  0  0  3  0  0  0  0  0  0
  188.3200  177.4660  136.9280 C   0  0  1  0  0  3  0  0  0  0  0  0
  189.1180  179.5300  138.4630 O   0  0  0  0  0  0  0  0  0  0  0  0
  188.7060  177.8410  141.0190 C   0  0  0  0  0  2  0  0  0  0  0  0
  187.9330  177.5650  139.8150 N   0  0  1  0  0  0  0  0  0  0  0  0
  186.6800  178.3610  139.7640 C   0  0  2  0  0  3  0  0  0  0  0  0
  188.9800  178.0320  138.4950 S   0  0  0  0  0  0  0  0  0  0  0  0
  181.1310  178.1300  137.1280 C   0  0  0  0  0  3  0  0  0  0  0  0
  183.7300  177.5560  136.2970 C   0  0  0  0  0  3  0  0  0  0  0  0
  185.7430  178.2470  140.9850 C   0  0  0  0  0  0  0  0  0  0  0  0
  186.2820  178.2640  142.4130 C   0  0  1  0  0  3  0  0  0  0  0  0
  181.9890  177.4200  137.9800 C   0  0  0  0  0  0  0  0  0  0  0  0
  183.3090  177.1420  137.5710 C   0  0  0  0  0  0  0  0  0  0  0  0
  190.3400  177.4180  138.6910 O   0  0  0  0  0  0  0  0  0  0  0  0
  188.2950  176.8860  142.0840 C   0  0  0  0  0  3  0  0  0  0  0  0
  181.0700  178.0630  140.2100 C   0  0  0  0  0  2  0  0  0  0  0  0
  185.0720  174.3940  135.7340 C   0  0  0  0  0  2  0  0  0  0  0  0
  186.1680  173.6240  137.6610 O   0  0  0  0  0  1  0  0  0  0  0  0
  185.7980  174.6580  136.8100 C   0  0  0  0  0  0  0  0  0  0  0  0
  185.8140  178.1360  144.8710 C   0  0  0  0  0  1  0  0  0  0  0  0
  185.2140  178.3990  143.5020 C   0  0  0  0  0  2  0  0  0  0  0  0
  188.7750  177.8030  134.5940 O   0  0  0  0  0  1  0  0  0  0  0  0
  189.3750  177.4940  135.8170 C   0  0  2  0  0  3  0  0  0  0  0  0
  191.7890  176.1250  134.8810 C   0  0  0  0  0  1  0  0  0  0  0  0
  190.4010  175.3060  137.0260 O   0  0  0  0  0  0  0  0  0  0  0  0
  190.2070  175.9150  135.6650 S   0  0  0  0  0  0  0  0  0  0  0  0
  189.3720  174.9900  134.8250 O   0  0  0  0  0  0  0  0  0  0  0  0
  181.1010  179.7210  143.2140 N   0  0  0  0  0  0  0  0  0  0  0  0
  181.5620  179.1050  142.3490 C   0  0  0  0  0  0  0  0  0  0  0  0
  180.6720  179.2990  135.0400 N   0  0  0  0  0  2  0  0  0  0  0  0
  180.9400  180.6620  134.5940 C   0  0  0  0  0  2  0  0  0  0  0  0
  180.3110  181.6890  135.5380 C   0  0  1  0  0  0  0  0  0  0  0  0
  178.9360  182.0720  134.9760 C   0  0  0  0  0  1  0  0  0  0  0  0
  178.9330  180.4370  137.0670 F   0  0  0  0  0  0  0  0  0  0  0  0
  180.1710  181.0460  136.9420 C   0  0  2  0  0  3  0  0  0  0  0  0
  180.3660  182.0280  138.0940 C   0  0  0  0  0  2  0  0  0  0  0  0
  180.3470  181.2950  139.4210 C   0  0  0  0  0  1  0  0  0  0  0  0
  181.1730  182.8170  135.5840 O   0  0  0  0  0  0  0  0  0  0  0  0
  180.4270  184.0070  135.4670 C   0  0  0  0  0  2  0  0  0  0  0  0
  180.0620  185.7570  137.0440 O   0  0  0  0  0  1  0  0  0  0  0  0
  181.0520  185.0940  136.3200 C   0  0  1  0  0  3  0  0  0  0  0  0
  182.0450  184.4720  137.2800 C   0  0  0  0  0  1  0  0  0  0  0  0
  2 30  1  1  0  0  0
  2  1  1  0  0  0  0
  2  4  1  0  0  0  0
  3 27  1  0  0  0  0
  4 10  1  6  0  0  0
  4 11  1  0  0  0  0
  6 40  1  1  0  0  0
  7 19  1  0  0  0  0
  8 21  2  0  0  0  0
  9  7  2  0  0  0  0
  9 20  1  0  0  0  0
 12  8  2  0  0  0  0
 12  6  1  0  0  0  0
 13 34  1  6  0  0  0
 13  1  1  0  0  0  0
 13 18  1  0  0  0  0
 14 18  2  0  0  0  0
 15 26  1  0  0  0  0
 16 15  1  1  0  0  0
 17 11  1  6  0  0  0
 17 16  1  0  0  0  0
 17 21  1  0  0  0  0
 18 25  2  0  0  0  0
 18 16  1  0  0  0  0
 19 23  2  0  0  0  0
 20 24  2  0  0  0  0
 21 22  1  0  0  0  0
 22  5  1  0  0  0  0
 22 32  1  1  0  0  0
 23  3  1  0  0  0  0
 24 23  1  0  0  0  0
 24 10  1  0  0  0  0
 26  5  2  0  0  0  0
 27  6  1  0  0  0  0
 28 30  2  0  0  0  0
 30 29  1  0  0  0  0
 32 31  1  0  0  0  0
 34 33  1  6  0  0  0
 35 37  1  0  0  0  0
 37 34  1  0  0  0  0
 37 36  2  0  0  0  0
 38 37  2  0  0  0  0
 40 39  3  0  0  0  0
 41  7  1  0  0  0  0
 42 41  1  0  0  0  0
 42 43  1  0  0  0  0
 43 44  1  6  0  0  0
 43 49  1  0  0  0  0
 43 46  1  0  0  0  0
 46 45  1  6  0  0  0
 46 47  1  0  0  0  0
 47 48  1  0  0  0  0
 50 49  1  0  0  0  0
 50 52  1  0  0  0  0
 52 51  1  0  0  0  0
 52 53  1  1  0  0  0
M  END
>  <MODEL>
4

>  <REMARK>
 VINA RESULT:      -4.0      4.044      8.370
  Name = 
  13 active torsions:
  status: ('A' for Active; 'I' for Inactive)
    1  A    between atoms: C_3  and  C_38
    2  A    between atoms: C_6  and  C_43
    3  A    between atoms: C_8  and  C_38
    4  A    between atoms: C_8  and  C_42
    5  A    between atoms: C_8  and  O_49
    6  A    between atoms: C_9  and  C_27
    7  A    between atoms: C_9  and  S_28
    8  A    between atoms: C_15  and  C_44
    9  A    between atoms: C_16  and  O_49
   10  A    between atoms: C_16  and  C_50
   11  A    between atoms: N_17  and  C_19
   12  A    between atoms: N_17  and  C_42
   13  A    between atoms: C_31  and  C_41
                            x       y       z     vdW  Elec       q    Type
                         _______ _______ _______ _____ _____    ______ ____

>  <TORSDO>
F 13

$$$$
=
 OpenBabel10222417533D

 53 56  0  0  1  0  0  0  0  0999 V2000
  187.5960  175.4250  135.5120 C   0  0  0  0  0  2  0  0  0  0  0  0
  187.0840  176.5270  136.4380 C   0  0  2  0  0  3  0  0  0  0  0  0
  183.3140  178.8290  139.4170 C   0  0  0  0  0  2  0  0  0  0  0  0
  185.6910  176.2730  136.8660 N   0  0  2  0  0  0  0  0  0  0  0  0
  182.1280  173.7690  135.2860 C   0  0  0  0  0  3  0  0  0  0  0  0
  181.6910  176.9160  139.5960 C   0  0  2  0  0  3  0  0  0  0  0  0
  186.5090  178.5630  141.4400 C   0  0  0  0  0  0  0  0  0  0  0  0
  182.9360  175.1250  138.5400 C   0  0  0  0  0  0  0  0  0  0  0  0
  187.3670  177.9300  140.5330 C   0  0  0  0  0  3  0  0  0  0  0  0
  185.0760  177.4560  137.5050 C   0  0  0  0  0  2  0  0  0  0  0  0
  185.6410  175.1330  137.7890 C   0  0  0  0  0  2  0  0  0  0  0  0
  182.6350  175.7650  139.6360 C   0  0  0  0  0  3  0  0  0  0  0  0
  187.9480  174.1690  136.2910 C   0  0  1  0  0  3  0  0  0  0  0  0
  186.7590  171.8630  137.0090 O   0  0  0  0  0  0  0  0  0  0  0  0
  184.2560  172.5890  135.3450 C   0  0  0  0  0  2  0  0  0  0  0  0
  185.1110  173.6340  135.8940 N   0  0  1  0  0  0  0  0  0  0  0  0
  184.6980  174.0290  137.2650 C   0  0  2  0  0  3  0  0  0  0  0  0
  186.7080  172.9230  135.9430 S   0  0  0  0  0  0  0  0  0  0  0  0
  185.1920  178.8360  141.0640 C   0  0  0  0  0  3  0  0  0  0  0  0
  186.9040  177.5620  139.2690 C   0  0  0  0  0  3  0  0  0  0  0  0
  183.2260  174.4560  137.4430 C   0  0  0  0  0  0  0  0  0  0  0  0
  182.0830  173.6890  136.7840 C   0  0  1  0  0  3  0  0  0  0  0  0
  184.7150  178.4610  139.8010 C   0  0  0  0  0  0  0  0  0  0  0  0
  185.5720  177.8020  138.8960 C   0  0  0  0  0  0  0  0  0  0  0  0
  187.0200  172.2960  134.6110 O   0  0  0  0  0  0  0  0  0  0  0  0
  183.1320  173.2260  134.6050 C   0  0  0  0  0  3  0  0  0  0  0  0
  182.2920  178.1240  140.2980 C   0  0  0  0  0  2  0  0  0  0  0  0
  186.3580  178.1230  134.7310 C   0  0  0  0  0  2  0  0  0  0  0  0
  188.2190  178.7290  136.0270 O   0  0  0  0  0  1  0  0  0  0  0  0
  187.2160  177.8260  135.6960 C   0  0  0  0  0  0  0  0  0  0  0  0
  179.6550  173.0720  136.7910 C   0  0  0  0  0  1  0  0  0  0  0  0
  180.6830  174.0850  137.2620 C   0  0  0  0  0  2  0  0  0  0  0  0
  189.5860  172.4270  136.5140 O   0  0  0  0  0  1  0  0  0  0  0  0
  189.3620  173.6840  135.9490 C   0  0  2  0  0  3  0  0  0  0  0  0
  191.9620  173.9170  137.2770 C   0  0  0  0  0  1  0  0  0  0  0  0
  191.1180  175.6720  135.4320 O   0  0  0  0  0  0  0  0  0  0  0  0
  190.6070  174.8170  136.5590 S   0  0  0  0  0  0  0  0  0  0  0  0
  190.0040  175.7010  137.6140 O   0  0  0  0  0  0  0  0  0  0  0  0
  179.4640  176.2460  140.8070 N   0  0  0  0  0  0  0  0  0  0  0  0
  180.4480  176.5420  140.2730 C   0  0  0  0  0  0  0  0  0  0  0  0
  186.9580  178.9490  142.7400 N   0  0  0  0  0  2  0  0  0  0  0  0
  188.3280  178.7400  143.1970 C   0  0  0  0  0  2  0  0  0  0  0  0
  188.3860  177.6980  144.3170 C   0  0  1  0  0  0  0  0  0  0  0  0
  189.2720  178.2560  145.4390 C   0  0  0  0  0  1  0  0  0  0  0  0
  186.0940  177.2050  143.7640 F   0  0  0  0  0  0  0  0  0  0  0  0
  186.9450  177.4460  144.8300 C   0  0  2  0  0  3  0  0  0  0  0  0
  186.3810  178.5860  145.6740 C   0  0  0  0  0  2  0  0  0  0  0  0
  184.8890  178.7270  145.4410 C   0  0  0  0  0  1  0  0  0  0  0  0
  188.9440  176.5110  143.7730 O   0  0  0  0  0  0  0  0  0  0  0  0
  189.7430  176.8150  142.6530 C   0  0  0  0  0  2  0  0  0  0  0  0
  192.0620  177.3270  142.4470 O   0  0  0  0  0  1  0  0  0  0  0  0
  191.1670  176.3550  142.8960 C   0  0  1  0  0  3  0  0  0  0  0  0
  191.3770  176.1260  144.3780 C   0  0  0  0  0  1  0  0  0  0  0  0
  1 13  1  0  0  0  0
  1  2  1  0  0  0  0
  2 30  1  6  0  0  0
  2  4  1  0  0  0  0
  3 23  1  0  0  0  0
  3 27  1  0  0  0  0
  4 10  1  1  0  0  0
  4 11  1  0  0  0  0
  5 22  1  0  0  0  0
  6 12  1  0  0  0  0
  6 40  1  1  0  0  0
  6 27  1  0  0  0  0
  7 41  1  0  0  0  0
  8 12  2  0  0  0  0
  9  7  2  0  0  0  0
 10 24  1  0  0  0  0
 13 34  1  6  0  0  0
 16 15  1  1  0  0  0
 16 18  1  0  0  0  0
 16 17  1  0  0  0  0
 17 21  1  0  0  0  0
 17 11  1  6  0  0  0
 18 13  1  0  0  0  0
 18 14  2  0  0  0  0
 19  7  1  0  0  0  0
 20  9  1  0  0  0  0
 21  8  2  0  0  0  0
 22 32  1  1  0  0  0
 22 21  1  0  0  0  0
 23 19  2  0  0  0  0
 24 20  2  0  0  0  0
 24 23  1  0  0  0  0
 25 18  2  0  0  0  0
 26  5  2  0  0  0  0
 26 15  1  0  0  0  0
 28 30  2  0  0  0  0
 30 29  1  0  0  0  0
 31 32  1  0  0  0  0
 34 33  1  1  0  0  0
 34 37  1  0  0  0  0
 36 37  2  0  0  0  0
 37 35  1  0  0  0  0
 37 38  2  0  0  0  0
 40 39  3  0  0  0  0
 41 42  1  0  0  0  0
 42 43  1  0  0  0  0
 43 46  1  0  0  0  0
 43 44  1  1  0  0  0
 46 45  1  6  0  0  0
 46 47  1  0  0  0  0
 48 47  1  0  0  0  0
 49 43  1  0  0  0  0
 50 52  1  0  0  0  0
 50 49  1  0  0  0  0
 51 52  1  0  0  0  0
 52 53  1  1  0  0  0
M  END
>  <MODEL>
5

>  <REMARK>
 VINA RESULT:      -3.3      1.843      2.622
  Name = 
  13 active torsions:
  status: ('A' for Active; 'I' for Inactive)
    1  A    between atoms: C_3  and  C_38
    2  A    between atoms: C_6  and  C_43
    3  A    between atoms: C_8  and  C_38
    4  A    between atoms: C_8  and  C_42
    5  A    between atoms: C_8  and  O_49
    6  A    between atoms: C_9  and  C_27
    7  A    between atoms: C_9  and  S_28
    8  A    between atoms: C_15  and  C_44
    9  A    between atoms: C_16  and  O_49
   10  A    between atoms: C_16  and  C_50
   11  A    between atoms: N_17  and  C_19
   12  A    between atoms: N_17  and  C_42
   13  A    between atoms: C_31  and  C_41
                            x       y       z     vdW  Elec       q    Type
                         _______ _______ _______ _____ _____    ______ ____

>  <TORSDO>
F 13

$$$$
