=
 OpenBabel10222417453D

 52 55  0  0  1  0  0  0  0  0999 V2000
  189.9010  177.9410  144.8840 C   0  0  0  0  0  0  0  0  0  0  0  0
  185.7590  177.7420  143.2790 C   0  0  1  0  0  3  0  0  0  0  0  0
  189.0250  176.8460  146.8180 N   0  0  0  0  0  0  0  0  0  0  0  0
  191.3560  176.9920  146.5250 N   0  0  0  0  0  0  0  0  0  0  0  0
  186.5340  180.0250  143.5990 O   0  0  0  0  0  1  0  0  0  0  0  0
  187.0190  177.2550  143.9330 C   0  0  0  0  0  0  0  0  0  0  0  0
  185.3360  178.7390  146.1330 C   0  0  0  0  0  3  0  0  0  0  0  0
  184.6550  179.3070  144.9110 C   0  0  1  0  0  3  0  0  0  0  0  0
  185.4110  179.1940  143.5970 C   0  0  2  0  0  3  0  0  0  0  0  0
  191.1860  177.6650  145.3580 C   0  0  0  0  0  3  0  0  0  0  0  0
  187.6880  176.3480  143.3640 O   0  0  0  0  0  0  0  0  0  0  0  0
  186.5100  178.1070  146.2630 C   0  0  0  0  0  3  0  0  0  0  0  0
  188.7980  177.5100  145.6490 C   0  0  0  0  0  0  0  0  0  0  0  0
  187.4430  177.7490  145.2240 N   0  0  0  0  0  0  0  0  0  0  0  0
  190.2850  176.5870  147.2540 C   0  0  0  0  0  3  0  0  0  0  0  0
  185.7140  177.4750  141.8730 O   0  0  0  0  0  0  0  0  0  0  0  0
  184.7870  179.0010  140.1370 C   0  0  0  0  0  1  0  0  0  0  0  0
  187.1100  178.7950  140.5750 O   0  0  0  0  0  0  0  0  0  0  0  0
  185.9440  178.4250  140.8710 C   0  0  0  0  0  0  0  0  0  0  0  0
  189.7370  178.7270  143.6230 C   0  0  0  0  0  2  0  0  0  0  0  0
  190.9050  178.4790  142.6850 C   0  0  0  0  0  2  0  0  0  0  0  0
  190.5570  177.3490  141.7370 C   0  0  0  0  0  2  0  0  0  0  0  0
  190.4380  177.8560  140.3790 N   0  0  0  0  0  2  0  0  0  0  0  0
  190.4090  177.0010  139.2360 C   0  0  0  0  0  0  0  0  0  0  0  0
  190.3700  175.7490  139.3810 O   0  0  0  0  0  0  0  0  0  0  0  0
  190.4190  177.5720  137.9620 O   0  0  0  0  0  0  0  0  0  0  0  0
  189.1780  177.8640  135.4940 O   0  0  0  0  0  0  0  0  0  0  0  0
  188.7330  179.5260  137.4740 O   0  0  0  0  0  1  0  0  0  0  0  0
  188.9780  178.0640  137.1650 P   0  0  2  0  0  0  0  0  0  0  0  0
  187.6860  177.1140  137.7450 O   0  0  0  0  0  0  0  0  0  0  0  0
  186.8340  176.3130  135.2110 O   0  0  0  0  0  0  0  0  0  0  0  0
  187.4890  175.7960  136.6850 P   0  0  0  0  0  0  0  0  0  0  0  0
  189.0070  175.1110  136.3880 O   0  0  0  0  0  1  0  0  0  0  0  0
  186.5930  174.7420  137.2990 O   0  0  0  0  0  1  0  0  0  0  0  0
  183.2530  178.7340  144.7620 C   0  0  0  0  0  2  0  0  0  0  0  0
  181.3220  179.0200  143.3590 N   0  0  0  0  0  0  0  0  0  0  0  0
  182.5610  179.3110  143.5770 C   0  0  0  0  0  3  0  0  0  0  0  0
  179.5110  180.1630  142.4080 O   0  0  0  0  0  0  0  0  0  0  0  0
  180.5920  179.5350  142.2430 C   0  0  0  0  0  0  0  0  0  0  0  0
  181.1410  179.3500  140.8660 C   0  0  0  0  0  2  0  0  0  0  0  0
  178.9310  179.3180  139.9560 O   0  0  0  0  0  1  0  0  0  0  0  0
  180.6530  178.6170  138.5940 O   0  0  0  0  0  0  0  0  0  0  0  0
  180.1520  178.6420  139.9360 C   0  0  1  0  0  0  0  0  0  0  0  0
  183.5250  176.0270  136.4910 N   0  0  0  0  0  0  0  0  0  0  0  0
  179.9360  177.2140  140.4460 C   0  0  0  0  0  2  0  0  0  0  0  0
  182.9420  175.1090  137.1990 C   0  0  0  0  0  3  0  0  0  0  0  0
  181.0790  176.3930  140.1920 O   0  0  0  0  0  0  0  0  0  0  0  0
  183.7750  177.3830  136.9480 C   0  0  0  0  0  2  0  0  0  0  0  0
  181.7520  176.4510  138.9700 C   0  0  0  0  0  0  0  0  0  0  0  0
  182.5130  178.1090  137.2660 C   0  0  0  0  0  3  0  0  0  0  0  0
  182.3210  175.3260  138.5200 C   0  0  0  0  0  3  0  0  0  0  0  0
  181.6570  177.7240  138.2130 C   0  0  0  0  0  0  0  0  0  0  0  0
  1 10  2  0  0  0  0
  1 13  1  0  0  0  0
  2 16  1  6  0  0  0
  2  9  1  0  0  0  0
  2  6  1  0  0  0  0
  3 15  1  0  0  0  0
  4 15  2  0  0  0  0
  6 14  1  0  0  0  0
  7 12  2  0  0  0  0
  8 35  1  6  0  0  0
  8  7  1  0  0  0  0
  9  5  1  1  0  0  0
  9  8  1  0  0  0  0
 10  4  1  0  0  0  0
 11  6  2  0  0  0  0
 13  3  2  0  0  0  0
 14 13  1  0  0  0  0
 14 12  1  0  0  0  0
 17 19  1  0  0  0  0
 18 19  2  0  0  0  0
 19 16  1  0  0  0  0
 20  1  1  0  0  0  0
 21 20  1  0  0  0  0
 22 21  1  0  0  0  0
 23 22  1  0  0  0  0
 24 25  2  0  0  0  0
 24 23  1  0  0  0  0
 26 24  1  0  0  0  0
 29 27  2  6  0  0  0
 29 28  1  0  0  0  0
 29 30  1  0  0  0  0
 29 26  1  0  0  0  0
 31 32  2  0  0  0  0
 32 34  1  0  0  0  0
 32 30  1  0  0  0  0
 33 32  1  0  0  0  0
 36 37  2  0  0  0  0
 37 35  1  0  0  0  0
 39 38  2  0  0  0  0
 39 36  1  0  0  0  0
 40 39  1  0  0  0  0
 42 43  1  0  0  0  0
 43 41  1  1  0  0  0
 43 45  1  0  0  0  0
 43 40  1  0  0  0  0
 44 48  1  0  0  0  0
 44 46  2  0  0  0  0
 46 51  1  0  0  0  0
 47 45  1  0  0  0  0
 48 50  1  0  0  0  0
 49 47  1  0  0  0  0
 50 52  2  0  0  0  0
 51 49  2  0  0  0  0
 52 42  1  0  0  0  0
 52 49  1  0  0  0  0
M  END
>  <MODEL>
1

>  <REMARK>
 VINA RESULT:      -6.8      0.000      0.000
  Name = 
  15 active torsions:
  status: ('A' for Active; 'I' for Inactive)
    1  A    between atoms: C_1  and  C_22
    2  A    between atoms: C_2  and  O_13
    3  A    between atoms: C_6  and  C_45
    4  A    between atoms: N_11  and  C_21
    5  A    between atoms: O_12  and  P_18
    6  A    between atoms: O_12  and  P_31
    7  A    between atoms: O_13  and  C_49
    8  A    between atoms: C_16  and  O_34
    9  A    between atoms: C_21  and  C_25
   10  A    between atoms: C_22  and  C_25
   11  A    between atoms: N_29  and  C_41
   12  A    between atoms: C_30  and  C_44
   13  A    between atoms: P_31  and  O_34
   14  A    between atoms: C_41  and  C_45
   15  A    between atoms: C_44  and  C_52
                            x       y       z     vdW  Elec       q    Type
                         _______ _______ _______ _____ _____    ______ ____

>  <TORSDO>
F 15

$$$$
=
 OpenBabel10222417453D

 52 55  0  0  1  0  0  0  0  0999 V2000
  187.0860  175.3620  135.2420 C   0  0  0  0  0  0  0  0  0  0  0  0
  191.1750  176.3880  136.6560 C   0  0  1  0  0  3  0  0  0  0  0  0
  186.4100  177.4360  136.2180 N   0  0  0  0  0  0  0  0  0  0  0  0
  184.9430  176.3060  134.7650 N   0  0  0  0  0  0  0  0  0  0  0  0
  190.2970  174.3740  137.7010 O   0  0  0  0  0  1  0  0  0  0  0  0
  189.8390  176.5950  136.0040 C   0  0  0  0  0  0  0  0  0  0  0  0
  189.4400  176.9880  139.0960 C   0  0  0  0  0  3  0  0  0  0  0  0
  190.7550  176.2460  139.1340 C   0  0  1  0  0  3  0  0  0  0  0  0
  191.1370  175.4760  137.8800 C   0  0  2  0  0  3  0  0  0  0  0  0
  185.8490  175.3100  134.5940 C   0  0  0  0  0  3  0  0  0  0  0  0
  189.7990  176.8310  134.7640 O   0  0  0  0  0  0  0  0  0  0  0  0
  188.5390  177.1150  138.1130 C   0  0  0  0  0  3  0  0  0  0  0  0
  187.3590  176.4670  136.0740 C   0  0  0  0  0  0  0  0  0  0  0  0
  188.6140  176.5990  136.7690 N   0  0  0  0  0  0  0  0  0  0  0  0
  185.2170  177.3610  135.5730 C   0  0  0  0  0  3  0  0  0  0  0  0
  192.2010  176.0050  135.7330 O   0  0  0  0  0  0  0  0  0  0  0  0
  194.1970  174.5240  135.8870 C   0  0  0  0  0  1  0  0  0  0  0  0
  194.2320  176.8160  136.5010 O   0  0  0  0  0  0  0  0  0  0  0  0
  193.5540  175.8530  136.0590 C   0  0  0  0  0  0  0  0  0  0  0  0
  188.0480  174.2310  135.0790 C   0  0  0  0  0  2  0  0  0  0  0  0
  187.3110  172.9500  134.7290 C   0  0  0  0  0  2  0  0  0  0  0  0
  186.8740  172.2560  136.0040 C   0  0  0  0  0  2  0  0  0  0  0  0
  185.6400  171.5230  135.7730 N   0  0  0  0  0  2  0  0  0  0  0  0
  184.4580  171.7380  136.5450 C   0  0  0  0  0  0  0  0  0  0  0  0
  184.4150  172.6730  137.3900 O   0  0  0  0  0  0  0  0  0  0  0  0
  183.3560  170.9070  136.3420 O   0  0  0  0  0  0  0  0  0  0  0  0
  180.8010  170.3560  135.4000 O   0  0  0  0  0  1  0  0  0  0  0  0
  181.8140  172.7740  135.3250 O   0  0  0  0  0  0  0  0  0  0  0  0
  181.7600  171.5210  136.1730 P   0  0  2  0  0  0  0  0  0  0  0  0
  181.1510  171.8840  137.7240 O   0  0  0  0  0  0  0  0  0  0  0  0
  179.3240  173.5690  138.9950 O   0  0  0  0  0  1  0  0  0  0  0  0
  180.2800  173.3440  137.6150 P   0  0  0  0  0  0  0  0  0  0  0  0
  181.3840  174.6230  137.5110 O   0  0  0  0  0  1  0  0  0  0  0  0
  179.4050  173.3570  136.3800 O   0  0  0  0  0  0  0  0  0  0  0  0
  191.8860  177.1780  139.5430 C   0  0  0  0  0  2  0  0  0  0  0  0
  190.9290  177.6650  141.6940 N   0  0  0  0  0  0  0  0  0  0  0  0
  191.9720  177.3000  141.0240 C   0  0  0  0  0  3  0  0  0  0  0  0
  192.0110  177.7480  143.7700 O   0  0  0  0  0  0  0  0  0  0  0  0
  190.9340  177.8040  143.1160 C   0  0  0  0  0  0  0  0  0  0  0  0
  189.6450  178.0530  143.8290 C   0  0  0  0  0  2  0  0  0  0  0  0
  189.3090  175.7490  143.2890 O   0  0  0  0  0  1  0  0  0  0  0  0
  187.8470  176.7160  144.7860 O   0  0  0  0  0  0  0  0  0  0  0  0
  188.6310  176.9270  143.6060 C   0  0  1  0  0  0  0  0  0  0  0  0
  184.3090  178.7280  146.4620 N   0  0  0  0  0  0  0  0  0  0  0  0
  187.7250  177.3090  142.4310 C   0  0  0  0  0  2  0  0  0  0  0  0
  183.9670  178.7790  145.2120 C   0  0  0  0  0  3  0  0  0  0  0  0
  186.8070  178.3430  142.7980 O   0  0  0  0  0  0  0  0  0  0  0  0
  185.6720  178.8540  146.9490 C   0  0  0  0  0  2  0  0  0  0  0  0
  186.1430  178.3150  144.0270 C   0  0  0  0  0  0  0  0  0  0  0  0
  186.5550  177.7720  146.4280 C   0  0  0  0  0  3  0  0  0  0  0  0
  184.9110  178.8360  144.0780 C   0  0  0  0  0  3  0  0  0  0  0  0
  186.8110  177.5860  145.1330 C   0  0  0  0  0  0  0  0  0  0  0  0
  1 13  1  0  0  0  0
  2 16  1  6  0  0  0
  2  9  1  0  0  0  0
  4 15  2  0  0  0  0
  6  2  1  0  0  0  0
  6 14  1  0  0  0  0
  7  8  1  0  0  0  0
  8 35  1  6  0  0  0
  9  5  1  6  0  0  0
  9  8  1  0  0  0  0
 10  4  1  0  0  0  0
 10  1  2  0  0  0  0
 11  6  2  0  0  0  0
 12  7  2  0  0  0  0
 13  3  2  0  0  0  0
 13 14  1  0  0  0  0
 14 12  1  0  0  0  0
 15  3  1  0  0  0  0
 16 19  1  0  0  0  0
 17 19  1  0  0  0  0
 19 18  2  0  0  0  0
 20  1  1  0  0  0  0
 21 20  1  0  0  0  0
 21 22  1  0  0  0  0
 23 22  1  0  0  0  0
 23 24  1  0  0  0  0
 24 25  2  0  0  0  0
 26 24  1  0  0  0  0
 27 29  1  0  0  0  0
 29 28  2  6  0  0  0
 29 26  1  0  0  0  0
 29 30  1  0  0  0  0
 32 30  1  0  0  0  0
 32 31  1  0  0  0  0
 33 32  1  0  0  0  0
 34 32  2  0  0  0  0
 35 37  1  0  0  0  0
 36 39  1  0  0  0  0
 37 36  2  0  0  0  0
 39 38  2  0  0  0  0
 39 40  1  0  0  0  0
 42 52  1  0  0  0  0
 43 41  1  6  0  0  0
 43 40  1  0  0  0  0
 43 42  1  0  0  0  0
 44 48  1  0  0  0  0
 45 47  1  0  0  0  0
 45 43  1  0  0  0  0
 46 44  2  0  0  0  0
 47 49  1  0  0  0  0
 49 51  2  0  0  0  0
 49 52  1  0  0  0  0
 50 48  1  0  0  0  0
 51 46  1  0  0  0  0
 52 50  2  0  0  0  0
M  END
>  <MODEL>
2

>  <REMARK>
 VINA RESULT:      -6.6      3.709      9.531
  Name = 
  15 active torsions:
  status: ('A' for Active; 'I' for Inactive)
    1  A    between atoms: C_1  and  C_22
    2  A    between atoms: C_2  and  O_13
    3  A    between atoms: C_6  and  C_45
    4  A    between atoms: N_11  and  C_21
    5  A    between atoms: O_12  and  P_18
    6  A    between atoms: O_12  and  P_31
    7  A    between atoms: O_13  and  C_49
    8  A    between atoms: C_16  and  O_34
    9  A    between atoms: C_21  and  C_25
   10  A    between atoms: C_22  and  C_25
   11  A    between atoms: N_29  and  C_41
   12  A    between atoms: C_30  and  C_44
   13  A    between atoms: P_31  and  O_34
   14  A    between atoms: C_41  and  C_45
   15  A    between atoms: C_44  and  C_52
                            x       y       z     vdW  Elec       q    Type
                         _______ _______ _______ _____ _____    ______ ____

>  <TORSDO>
F 15

$$$$
=
 OpenBabel10222417453D

 52 55  0  0  1  0  0  0  0  0999 V2000
  184.7110  177.5700  137.2730 C   0  0  0  0  0  0  0  0  0  0  0  0
  189.1460  177.8290  137.4700 C   0  0  1  0  0  3  0  0  0  0  0  0
  184.7060  179.2000  139.0200 N   0  0  0  0  0  0  0  0  0  0  0  0
  182.7070  178.7260  137.8710 N   0  0  0  0  0  0  0  0  0  0  0  0
  188.3060  175.6230  138.0590 O   0  0  0  0  0  1  0  0  0  0  0  0
  187.7280  178.3180  137.4070 C   0  0  0  0  0  0  0  0  0  0  0  0
  188.3450  177.6210  140.4090 C   0  0  0  0  0  3  0  0  0  0  0  0
  189.4710  176.8480  139.7650 C   0  0  1  0  0  3  0  0  0  0  0  0
  189.3290  176.5490  138.2810 C   0  0  2  0  0  3  0  0  0  0  0  0
  183.3460  177.8100  137.1000 C   0  0  0  0  0  3  0  0  0  0  0  0
  187.3560  178.9760  136.3950 O   0  0  0  0  0  0  0  0  0  0  0  0
  187.2230  178.1290  139.8810 C   0  0  0  0  0  3  0  0  0  0  0  0
  185.3970  178.2970  138.2670 C   0  0  0  0  0  0  0  0  0  0  0  0
  186.8060  178.1140  138.5020 N   0  0  0  0  0  0  0  0  0  0  0  0
  183.3790  179.4160  138.8280 C   0  0  0  0  0  3  0  0  0  0  0  0
  189.7700  177.7440  136.1840 O   0  0  0  0  0  0  0  0  0  0  0  0
  188.7320  176.1150  134.6120 C   0  0  0  0  0  1  0  0  0  0  0  0
  190.9480  175.8930  135.4320 O   0  0  0  0  0  0  0  0  0  0  0  0
  189.8870  176.5710  135.4280 C   0  0  0  0  0  0  0  0  0  0  0  0
  185.3820  176.5210  136.4480 C   0  0  0  0  0  2  0  0  0  0  0  0
  185.1410  175.1430  137.0370 C   0  0  0  0  0  2  0  0  0  0  0  0
  184.1980  174.3690  136.1370 C   0  0  0  0  0  2  0  0  0  0  0  0
  183.0500  173.9050  136.9000 N   0  0  0  0  0  2  0  0  0  0  0  0
  181.7430  174.4570  136.7400 C   0  0  0  0  0  0  0  0  0  0  0  0
  181.5190  175.3010  135.8300 O   0  0  0  0  0  0  0  0  0  0  0  0
  180.7230  174.0420  137.5970 O   0  0  0  0  0  0  0  0  0  0  0  0
  178.9520  174.2460  139.7280 O   0  0  0  0  0  1  0  0  0  0  0  0
  178.9840  176.0020  137.7800 O   0  0  0  0  0  0  0  0  0  0  0  0
  179.8890  175.1340  138.6290 P   0  0  2  0  0  0  0  0  0  0  0  0
  181.0380  176.0980  139.4410 O   0  0  0  0  0  0  0  0  0  0  0  0
  179.0510  176.5460  141.3500 O   0  0  0  0  0  1  0  0  0  0  0  0
  180.1940  177.2760  140.3360 P   0  0  0  0  0  0  0  0  0  0  0  0
  181.3020  178.1210  141.2950 O   0  0  0  0  0  1  0  0  0  0  0  0
  179.5040  178.2580  139.4130 O   0  0  0  0  0  0  0  0  0  0  0  0
  190.8090  177.5200  140.0390 C   0  0  0  0  0  2  0  0  0  0  0  0
  190.6370  176.3830  142.1500 N   0  0  0  0  0  0  0  0  0  0  0  0
  191.2730  177.2430  141.4260 C   0  0  0  0  0  3  0  0  0  0  0  0
  192.1840  175.6480  143.7490 O   0  0  0  0  0  0  0  0  0  0  0  0
  191.0230  176.0660  143.4890 C   0  0  0  0  0  0  0  0  0  0  0  0
  190.0400  176.2660  144.5970 C   0  0  0  0  0  2  0  0  0  0  0  0
  191.1670  178.3610  144.8260 O   0  0  0  0  0  1  0  0  0  0  0  0
  188.9330  178.4100  144.2580 O   0  0  0  0  0  0  0  0  0  0  0  0
  189.9370  177.7330  145.0240 C   0  0  1  0  0  0  0  0  0  0  0  0
  184.5500  178.6580  144.5690 N   0  0  0  0  0  0  0  0  0  0  0  0
  189.5880  177.7850  146.5150 C   0  0  0  0  0  2  0  0  0  0  0  0
  184.8210  178.6940  145.8370 C   0  0  0  0  0  3  0  0  0  0  0  0
  188.2270  177.4090  146.7440 O   0  0  0  0  0  0  0  0  0  0  0  0
  185.2930  177.8820  143.5910 C   0  0  0  0  0  2  0  0  0  0  0  0
  187.2020  177.8710  145.9160 C   0  0  0  0  0  0  0  0  0  0  0  0
  186.7190  178.3060  143.5060 C   0  0  0  0  0  3  0  0  0  0  0  0
  185.9990  178.0690  146.4690 C   0  0  0  0  0  3  0  0  0  0  0  0
  187.5740  178.2320  144.5260 C   0  0  0  0  0  0  0  0  0  0  0  0
  1 13  1  0  0  0  0
  2 16  1  6  0  0  0
  2  9  1  0  0  0  0
  4 15  2  0  0  0  0
  6  2  1  0  0  0  0
  6 14  1  0  0  0  0
  8 35  1  6  0  0  0
  8  7  1  0  0  0  0
  9  5  1  1  0  0  0
  9  8  1  0  0  0  0
 10  1  2  0  0  0  0
 10  4  1  0  0  0  0
 11  6  2  0  0  0  0
 12  7  2  0  0  0  0
 13 14  1  0  0  0  0
 13  3  2  0  0  0  0
 14 12  1  0  0  0  0
 15  3  1  0  0  0  0
 17 19  1  0  0  0  0
 19 18  2  0  0  0  0
 19 16  1  0  0  0  0
 20 21  1  0  0  0  0
 20  1  1  0  0  0  0
 22 23  1  0  0  0  0
 22 21  1  0  0  0  0
 24 23  1  0  0  0  0
 24 26  1  0  0  0  0
 25 24  2  0  0  0  0
 26 29  1  0  0  0  0
 29 28  2  6  0  0  0
 29 30  1  0  0  0  0
 29 27  1  0  0  0  0
 30 32  1  0  0  0  0
 32 33  1  0  0  0  0
 32 31  1  0  0  0  0
 34 32  2  0  0  0  0
 35 37  1  0  0  0  0
 36 39  1  0  0  0  0
 37 36  2  0  0  0  0
 39 38  2  0  0  0  0
 39 40  1  0  0  0  0
 40 43  1  0  0  0  0
 42 52  1  0  0  0  0
 42 43  1  0  0  0  0
 43 41  1  6  0  0  0
 43 45  1  0  0  0  0
 44 46  2  0  0  0  0
 45 47  1  0  0  0  0
 46 51  1  0  0  0  0
 48 44  1  0  0  0  0
 49 51  2  0  0  0  0
 49 47  1  0  0  0  0
 50 48  1  0  0  0  0
 50 52  2  0  0  0  0
 52 49  1  0  0  0  0
M  END
>  <MODEL>
3

>  <REMARK>
 VINA RESULT:      -6.6      2.910      9.190
  Name = 
  15 active torsions:
  status: ('A' for Active; 'I' for Inactive)
    1  A    between atoms: C_1  and  C_22
    2  A    between atoms: C_2  and  O_13
    3  A    between atoms: C_6  and  C_45
    4  A    between atoms: N_11  and  C_21
    5  A    between atoms: O_12  and  P_18
    6  A    between atoms: O_12  and  P_31
    7  A    between atoms: O_13  and  C_49
    8  A    between atoms: C_16  and  O_34
    9  A    between atoms: C_21  and  C_25
   10  A    between atoms: C_22  and  C_25
   11  A    between atoms: N_29  and  C_41
   12  A    between atoms: C_30  and  C_44
   13  A    between atoms: P_31  and  O_34
   14  A    between atoms: C_41  and  C_45
   15  A    between atoms: C_44  and  C_52
                            x       y       z     vdW  Elec       q    Type
                         _______ _______ _______ _____ _____    ______ ____

>  <TORSDO>
F 15

$$$$
=
 OpenBabel10222417453D

 52 55  0  0  1  0  0  0  0  0999 V2000
  190.2660  177.6320  145.1050 C   0  0  0  0  0  0  0  0  0  0  0  0
  186.0310  177.6490  143.7490 C   0  0  1  0  0  3  0  0  0  0  0  0
  189.4720  176.4430  147.0200 N   0  0  0  0  0  0  0  0  0  0  0  0
  191.7850  176.5410  146.5930 N   0  0  0  0  0  0  0  0  0  0  0  0
  186.8960  179.8860  144.1590 O   0  0  0  0  0  1  0  0  0  0  0  0
  187.3120  177.0880  144.2950 C   0  0  0  0  0  0  0  0  0  0  0  0
  185.8110  178.4780  146.6800 C   0  0  0  0  0  3  0  0  0  0  0  0
  185.0770  179.1410  145.5380 C   0  0  1  0  0  3  0  0  0  0  0  0
  185.7490  179.0880  144.1750 C   0  0  2  0  0  3  0  0  0  0  0  0
  191.5670  177.2900  145.4820 C   0  0  0  0  0  3  0  0  0  0  0  0
  187.9170  176.1990  143.6310 O   0  0  0  0  0  0  0  0  0  0  0  0
  186.9700  177.8070  146.6980 C   0  0  0  0  0  3  0  0  0  0  0  0
  189.1970  177.1850  145.9090 C   0  0  0  0  0  0  0  0  0  0  0  0
  187.8270  177.4880  145.5840 N   0  0  0  0  0  0  0  0  0  0  0  0
  190.7470  176.1220  147.3610 C   0  0  0  0  0  3  0  0  0  0  0  0
  185.8940  177.4720  142.3350 O   0  0  0  0  0  0  0  0  0  0  0  0
  187.5720  178.5620  140.8530 C   0  0  0  0  0  1  0  0  0  0  0  0
  185.2990  179.2350  140.9520 O   0  0  0  0  0  0  0  0  0  0  0  0
  186.1860  178.4480  141.3750 C   0  0  0  0  0  0  0  0  0  0  0  0
  190.0520  178.4990  143.9070 C   0  0  0  0  0  2  0  0  0  0  0  0
  191.1880  178.3260  142.9140 C   0  0  0  0  0  2  0  0  0  0  0  0
  190.8050  177.2760  141.8900 C   0  0  0  0  0  2  0  0  0  0  0  0
  191.5450  177.4900  140.6570 N   0  0  0  0  0  2  0  0  0  0  0  0
  191.2660  176.7730  139.4540 C   0  0  0  0  0  0  0  0  0  0  0  0
  190.2720  175.9990  139.3950 O   0  0  0  0  0  0  0  0  0  0  0  0
  192.1020  176.9480  138.3510 O   0  0  0  0  0  0  0  0  0  0  0  0
  193.3180  176.0370  136.0260 O   0  0  0  0  0  0  0  0  0  0  0  0
  192.0940  174.4090  137.6780 O   0  0  0  0  0  1  0  0  0  0  0  0
  192.9670  175.6450  137.6370 P   0  0  2  0  0  0  0  0  0  0  0  0
  194.3960  175.3880  138.5310 O   0  0  0  0  0  0  0  0  0  0  0  0
  196.3060  175.4420  136.4970 O   0  0  0  0  0  0  0  0  0  0  0  0
  195.4510  174.4540  137.5740 P   0  0  0  0  0  0  0  0  0  0  0  0
  196.5600  173.6810  138.5910 O   0  0  0  0  0  1  0  0  0  0  0  0
  194.6850  173.4010  136.8020 O   0  0  0  0  0  1  0  0  0  0  0  0
  183.6510  178.6170  145.4410 C   0  0  0  0  0  2  0  0  0  0  0  0
  181.7250  178.8830  144.0270 N   0  0  0  0  0  0  0  0  0  0  0  0
  182.9870  179.0990  144.1990 C   0  0  0  0  0  3  0  0  0  0  0  0
  180.2570  180.3190  142.8980 O   0  0  0  0  0  0  0  0  0  0  0  0
  181.0190  179.3150  142.8610 C   0  0  0  0  0  0  0  0  0  0  0  0
  181.2170  178.5800  141.5760 C   0  0  0  0  0  2  0  0  0  0  0  0
  178.9310  177.8880  141.6640 O   0  0  0  0  0  1  0  0  0  0  0  0
  179.4600  179.6430  140.2660 O   0  0  0  0  0  0  0  0  0  0  0  0
  179.9080  178.3930  140.8050 C   0  0  1  0  0  0  0  0  0  0  0  0
  180.5310  181.9370  136.6640 N   0  0  0  0  0  0  0  0  0  0  0  0
  180.1430  177.3850  139.6750 C   0  0  0  0  0  2  0  0  0  0  0  0
  180.5750  180.7510  136.1400 C   0  0  0  0  0  3  0  0  0  0  0  0
  180.9230  177.9580  138.6220 O   0  0  0  0  0  0  0  0  0  0  0  0
  180.9320  182.2500  138.0260 C   0  0  0  0  0  2  0  0  0  0  0  0
  180.6780  179.2560  138.1670 C   0  0  0  0  0  0  0  0  0  0  0  0
  180.1060  181.5250  139.0330 C   0  0  0  0  0  3  0  0  0  0  0  0
  180.9060  179.5130  136.8730 C   0  0  0  0  0  3  0  0  0  0  0  0
  180.0550  180.1970  139.1300 C   0  0  0  0  0  0  0  0  0  0  0  0
  1 10  2  0  0  0  0
  1 13  1  0  0  0  0
  2 16  1  6  0  0  0
  2  9  1  0  0  0  0
  2  6  1  0  0  0  0
  3 15  1  0  0  0  0
  4 15  2  0  0  0  0
  6 14  1  0  0  0  0
  7 12  2  0  0  0  0
  8 35  1  6  0  0  0
  8  7  1  0  0  0  0
  9  5  1  1  0  0  0
  9  8  1  0  0  0  0
 10  4  1  0  0  0  0
 11  6  2  0  0  0  0
 13  3  2  0  0  0  0
 14 13  1  0  0  0  0
 14 12  1  0  0  0  0
 17 19  1  0  0  0  0
 18 19  2  0  0  0  0
 19 16  1  0  0  0  0
 20  1  1  0  0  0  0
 21 20  1  0  0  0  0
 22 21  1  0  0  0  0
 23 22  1  0  0  0  0
 24 23  1  0  0  0  0
 25 24  2  0  0  0  0
 26 24  1  0  0  0  0
 29 27  2  6  0  0  0
 29 28  1  0  0  0  0
 29 26  1  0  0  0  0
 29 30  1  0  0  0  0
 31 32  2  0  0  0  0
 32 30  1  0  0  0  0
 32 33  1  0  0  0  0
 34 32  1  0  0  0  0
 36 37  2  0  0  0  0
 37 35  1  0  0  0  0
 39 38  2  0  0  0  0
 39 36  1  0  0  0  0
 40 39  1  0  0  0  0
 42 43  1  0  0  0  0
 43 40  1  0  0  0  0
 43 41  1  1  0  0  0
 44 48  1  0  0  0  0
 45 43  1  0  0  0  0
 46 44  2  0  0  0  0
 46 51  1  0  0  0  0
 47 45  1  0  0  0  0
 48 50  1  0  0  0  0
 49 47  1  0  0  0  0
 49 52  1  0  0  0  0
 50 52  2  0  0  0  0
 51 49  2  0  0  0  0
 52 42  1  0  0  0  0
M  END
>  <MODEL>
4

>  <REMARK>
 VINA RESULT:      -6.5      2.613      3.513
  Name = 
  15 active torsions:
  status: ('A' for Active; 'I' for Inactive)
    1  A    between atoms: C_1  and  C_22
    2  A    between atoms: C_2  and  O_13
    3  A    between atoms: C_6  and  C_45
    4  A    between atoms: N_11  and  C_21
    5  A    between atoms: O_12  and  P_18
    6  A    between atoms: O_12  and  P_31
    7  A    between atoms: O_13  and  C_49
    8  A    between atoms: C_16  and  O_34
    9  A    between atoms: C_21  and  C_25
   10  A    between atoms: C_22  and  C_25
   11  A    between atoms: N_29  and  C_41
   12  A    between atoms: C_30  and  C_44
   13  A    between atoms: P_31  and  O_34
   14  A    between atoms: C_41  and  C_45
   15  A    between atoms: C_44  and  C_52
                            x       y       z     vdW  Elec       q    Type
                         _______ _______ _______ _____ _____    ______ ____

>  <TORSDO>
F 15

$$$$
=
 OpenBabel10222417453D

 52 55  0  0  1  0  0  0  0  0999 V2000
  181.4950  175.8930  135.9980 C   0  0  0  0  0  0  0  0  0  0  0  0
  181.1690  178.9430  139.2180 C   0  0  1  0  0  3  0  0  0  0  0  0
  181.1390  174.2780  137.7220 N   0  0  0  0  0  0  0  0  0  0  0  0
  180.9810  173.6200  135.4680 N   0  0  0  0  0  0  0  0  0  0  0  0
  183.3610  178.9200  138.1630 O   0  0  0  0  0  1  0  0  0  0  0  0
  180.8030  177.7310  138.4110 C   0  0  0  0  0  0  0  0  0  0  0  0
  183.0410  176.8610  140.4380 C   0  0  0  0  0  3  0  0  0  0  0  0
  183.2570  178.3550  140.4950 C   0  0  1  0  0  3  0  0  0  0  0  0
  182.6720  179.1710  139.3530 C   0  0  2  0  0  3  0  0  0  0  0  0
  181.2680  174.8830  135.0600 C   0  0  0  0  0  3  0  0  0  0  0  0
  179.7080  177.7300  137.7810 O   0  0  0  0  0  0  0  0  0  0  0  0
  182.3800  176.1090  139.5470 C   0  0  0  0  0  3  0  0  0  0  0  0
  181.4220  175.5640  137.3670 C   0  0  0  0  0  0  0  0  0  0  0  0
  181.6350  176.5500  138.3950 N   0  0  0  0  0  0  0  0  0  0  0  0
  180.9190  173.3160  136.7890 C   0  0  0  0  0  3  0  0  0  0  0  0
  180.4820  180.1270  138.8010 O   0  0  0  0  0  0  0  0  0  0  0  0
  181.3130  182.3660  138.0950 C   0  0  0  0  0  1  0  0  0  0  0  0
  180.9340  180.5840  136.5740 O   0  0  0  0  0  0  0  0  0  0  0  0
  180.9030  180.9750  137.7700 C   0  0  0  0  0  0  0  0  0  0  0  0
  181.8590  177.2640  135.5270 C   0  0  0  0  0  2  0  0  0  0  0  0
  183.0730  177.2100  134.6160 C   0  0  0  0  0  2  0  0  0  0  0  0
  184.1100  176.2820  135.2150 C   0  0  0  0  0  2  0  0  0  0  0  0
  185.3660  176.9920  135.4010 N   0  0  0  0  0  2  0  0  0  0  0  0
  186.2730  176.6920  136.4630 C   0  0  0  0  0  0  0  0  0  0  0  0
  186.0600  175.7040  137.2170 O   0  0  0  0  0  0  0  0  0  0  0  0
  187.3950  177.5010  136.6440 O   0  0  0  0  0  0  0  0  0  0  0  0
  186.5390  178.5840  139.0560 O   0  0  0  0  0  1  0  0  0  0  0  0
  188.8700  179.1860  138.0160 O   0  0  0  0  0  0  0  0  0  0  0  0
  187.8970  178.0420  138.1970 P   0  0  2  0  0  0  0  0  0  0  0  0
  188.6540  176.7440  139.0040 O   0  0  0  0  0  0  0  0  0  0  0  0
  189.2190  174.8290  137.0540 O   0  0  0  0  0  1  0  0  0  0  0  0
  189.8470  176.1090  137.9670 P   0  0  0  0  0  0  0  0  0  0  0  0
  190.3480  177.3300  136.9090 O   0  0  0  0  0  0  0  0  0  0  0  0
  191.0460  175.6310  138.7580 O   0  0  0  0  0  1  0  0  0  0  0  0
  182.7910  178.9140  141.8320 C   0  0  0  0  0  2  0  0  0  0  0  0
  183.8010  179.3120  143.9770 N   0  0  0  0  0  0  0  0  0  0  0  0
  183.7480  178.5720  142.9190 C   0  0  0  0  0  3  0  0  0  0  0  0
  184.2690  178.9520  146.2440 O   0  0  0  0  0  0  0  0  0  0  0  0
  184.6940  179.0470  145.0610 C   0  0  0  0  0  0  0  0  0  0  0  0
  186.1470  178.8480  144.7750 C   0  0  0  0  0  2  0  0  0  0  0  0
  185.5910  176.7490  145.7740 O   0  0  0  0  0  1  0  0  0  0  0  0
  187.3170  176.7770  144.2460 O   0  0  0  0  0  0  0  0  0  0  0  0
  186.6620  177.5030  145.2940 C   0  0  1  0  0  0  0  0  0  0  0  0
  191.3610  176.9550  142.5170 N   0  0  0  0  0  0  0  0  0  0  0  0
  187.6390  177.7630  146.4450 C   0  0  0  0  0  2  0  0  0  0  0  0
  191.6890  177.1380  143.7590 C   0  0  0  0  0  3  0  0  0  0  0  0
  188.8800  178.2870  145.9650 O   0  0  0  0  0  0  0  0  0  0  0  0
  190.1480  177.4670  141.9030 C   0  0  0  0  0  2  0  0  0  0  0  0
  189.4920  177.7620  144.8240 C   0  0  0  0  0  0  0  0  0  0  0  0
  188.9200  176.9180  142.5460 C   0  0  0  0  0  3  0  0  0  0  0  0
  190.8300  177.7720  144.7770 C   0  0  0  0  0  3  0  0  0  0  0  0
  188.6060  177.1140  143.8270 C   0  0  0  0  0  0  0  0  0  0  0  0
  1 13  1  0  0  0  0
  2 16  1  6  0  0  0
  2  9  1  0  0  0  0
  4 15  2  0  0  0  0
  6  2  1  0  0  0  0
  7  8  1  0  0  0  0
  8 35  1  1  0  0  0
  9  5  1  6  0  0  0
  9  8  1  0  0  0  0
 10  4  1  0  0  0  0
 10  1  2  0  0  0  0
 11  6  2  0  0  0  0
 12  7  2  0  0  0  0
 13  3  2  0  0  0  0
 13 14  1  0  0  0  0
 14  6  1  0  0  0  0
 14 12  1  0  0  0  0
 15  3  1  0  0  0  0
 18 19  2  0  0  0  0
 19 17  1  0  0  0  0
 19 16  1  0  0  0  0
 20  1  1  0  0  0  0
 21 22  1  0  0  0  0
 21 20  1  0  0  0  0
 22 23  1  0  0  0  0
 23 24  1  0  0  0  0
 24 26  1  0  0  0  0
 24 25  2  0  0  0  0
 26 29  1  0  0  0  0
 29 28  2  6  0  0  0
 29 30  1  0  0  0  0
 29 27  1  0  0  0  0
 31 32  1  0  0  0  0
 32 34  1  0  0  0  0
 32 30  1  0  0  0  0
 33 32  2  0  0  0  0
 35 37  1  0  0  0  0
 36 39  1  0  0  0  0
 37 36  2  0  0  0  0
 39 38  2  0  0  0  0
 40 39  1  0  0  0  0
 40 43  1  0  0  0  0
 42 43  1  0  0  0  0
 43 41  1  1  0  0  0
 43 45  1  0  0  0  0
 44 46  2  0  0  0  0
 46 51  1  0  0  0  0
 47 45  1  0  0  0  0
 48 44  1  0  0  0  0
 48 50  1  0  0  0  0
 49 47  1  0  0  0  0
 50 52  2  0  0  0  0
 51 49  2  0  0  0  0
 52 42  1  0  0  0  0
 52 49  1  0  0  0  0
M  END
>  <MODEL>
5

>  <REMARK>
 VINA RESULT:      -6.5      2.104      8.178
  Name = 
  15 active torsions:
  status: ('A' for Active; 'I' for Inactive)
    1  A    between atoms: C_1  and  C_22
    2  A    between atoms: C_2  and  O_13
    3  A    between atoms: C_6  and  C_45
    4  A    between atoms: N_11  and  C_21
    5  A    between atoms: O_12  and  P_18
    6  A    between atoms: O_12  and  P_31
    7  A    between atoms: O_13  and  C_49
    8  A    between atoms: C_16  and  O_34
    9  A    between atoms: C_21  and  C_25
   10  A    between atoms: C_22  and  C_25
   11  A    between atoms: N_29  and  C_41
   12  A    between atoms: C_30  and  C_44
   13  A    between atoms: P_31  and  O_34
   14  A    between atoms: C_41  and  C_45
   15  A    between atoms: C_44  and  C_52
                            x       y       z     vdW  Elec       q    Type
                         _______ _______ _______ _____ _____    ______ ____

>  <TORSDO>
F 15

$$$$
=
 OpenBabel10222417453D

 52 55  0  0  1  0  0  0  0  0999 V2000
  189.9240  177.8700  145.1040 C   0  0  0  0  0  0  0  0  0  0  0  0
  185.7650  177.7720  143.5340 C   0  0  1  0  0  3  0  0  0  0  0  0
  189.0730  176.6360  146.9640 N   0  0  0  0  0  0  0  0  0  0  0  0
  191.4000  176.8100  146.6570 N   0  0  0  0  0  0  0  0  0  0  0  0
  186.5380  180.0300  144.0090 O   0  0  0  0  0  1  0  0  0  0  0  0
  187.0340  177.2450  144.1380 C   0  0  0  0  0  0  0  0  0  0  0  0
  185.3710  178.5600  146.4570 C   0  0  0  0  0  3  0  0  0  0  0  0
  184.6750  179.2130  145.2870 C   0  0  1  0  0  3  0  0  0  0  0  0
  185.4170  179.1970  143.9590 C   0  0  2  0  0  3  0  0  0  0  0  0
  191.2150  177.5650  145.5430 C   0  0  0  0  0  3  0  0  0  0  0  0
  187.6990  176.3830  143.4970 O   0  0  0  0  0  0  0  0  0  0  0  0
  186.5480  177.9250  146.5280 C   0  0  0  0  0  3  0  0  0  0  0  0
  188.8310  177.3810  145.8480 C   0  0  0  0  0  0  0  0  0  0  0  0
  187.4700  177.6450  145.4560 N   0  0  0  0  0  0  0  0  0  0  0  0
  190.3380  176.3500  147.3660 C   0  0  0  0  0  3  0  0  0  0  0  0
  185.7060  177.6080  142.1130 O   0  0  0  0  0  0  0  0  0  0  0  0
  187.5420  178.6280  140.7760 C   0  0  0  0  0  1  0  0  0  0  0  0
  185.2950  179.3840  140.6800 O   0  0  0  0  0  0  0  0  0  0  0  0
  186.1130  178.5670  141.1790 C   0  0  0  0  0  0  0  0  0  0  0  0
  189.7450  178.7440  143.9050 C   0  0  0  0  0  2  0  0  0  0  0  0
  190.8380  178.4820  142.8850 C   0  0  0  0  0  2  0  0  0  0  0  0
  190.8140  177.0200  142.4860 C   0  0  0  0  0  2  0  0  0  0  0  0
  190.5150  176.8940  141.0690 N   0  0  0  0  0  2  0  0  0  0  0  0
  191.4630  177.2120  140.0490 C   0  0  0  0  0  0  0  0  0  0  0  0
  192.6500  177.5070  140.3570 O   0  0  0  0  0  0  0  0  0  0  0  0
  191.0570  177.1840  138.7140 O   0  0  0  0  0  0  0  0  0  0  0  0
  190.9760  176.3220  136.0750 O   0  0  0  0  0  0  0  0  0  0  0  0
  191.6570  174.7180  138.0350 O   0  0  0  0  0  1  0  0  0  0  0  0
  191.7870  176.1470  137.5530 P   0  0  2  0  0  0  0  0  0  0  0  0
  193.4310  176.5730  137.4040 O   0  0  0  0  0  0  0  0  0  0  0  0
  193.4990  174.3110  135.7700 O   0  0  0  0  0  0  0  0  0  0  0  0
  194.3000  175.1670  136.9930 P   0  0  0  0  0  0  0  0  0  0  0  0
  195.8240  175.6250  136.4190 O   0  0  0  0  0  1  0  0  0  0  0  0
  194.4850  174.2760  138.2020 O   0  0  0  0  0  1  0  0  0  0  0  0
  183.2730  178.6470  145.1120 C   0  0  0  0  0  2  0  0  0  0  0  0
  181.5070  178.6520  143.4810 N   0  0  0  0  0  0  0  0  0  0  0  0
  182.7140  179.0040  143.7790 C   0  0  0  0  0  3  0  0  0  0  0  0
  179.6760  179.2410  142.1430 O   0  0  0  0  0  0  0  0  0  0  0  0
  180.9020  178.9580  142.2220 C   0  0  0  0  0  0  0  0  0  0  0  0
  181.7490  178.9740  140.9920 C   0  0  0  0  0  2  0  0  0  0  0  0
  179.8520  179.3170  139.5790 O   0  0  0  0  0  1  0  0  0  0  0  0
  181.8060  178.6070  138.5840 O   0  0  0  0  0  0  0  0  0  0  0  0
  180.9800  178.5130  139.7500 C   0  0  1  0  0  0  0  0  0  0  0  0
  184.9080  176.0010  136.8620 N   0  0  0  0  0  0  0  0  0  0  0  0
  180.5280  177.0650  139.9630 C   0  0  0  0  0  2  0  0  0  0  0  0
  184.0930  175.0720  137.2550 C   0  0  0  0  0  3  0  0  0  0  0  0
  181.6300  176.1580  139.8690 O   0  0  0  0  0  0  0  0  0  0  0  0
  185.1390  177.2470  137.5730 C   0  0  0  0  0  2  0  0  0  0  0  0
  182.5970  176.2980  138.8710 C   0  0  0  0  0  0  0  0  0  0  0  0
  183.8990  178.0660  137.6840 C   0  0  0  0  0  3  0  0  0  0  0  0
  183.1720  175.1840  138.4030 C   0  0  0  0  0  3  0  0  0  0  0  0
  182.8010  177.6610  138.3230 C   0  0  0  0  0  0  0  0  0  0  0  0
  1 10  2  0  0  0  0
  1 13  1  0  0  0  0
  2 16  1  6  0  0  0
  2  9  1  0  0  0  0
  2  6  1  0  0  0  0
  3 15  1  0  0  0  0
  4 15  2  0  0  0  0
  6 14  1  0  0  0  0
  7 12  2  0  0  0  0
  8 35  1  6  0  0  0
  8  7  1  0  0  0  0
  9  5  1  1  0  0  0
  9  8  1  0  0  0  0
 10  4  1  0  0  0  0
 11  6  2  0  0  0  0
 13  3  2  0  0  0  0
 14 13  1  0  0  0  0
 14 12  1  0  0  0  0
 17 19  1  0  0  0  0
 18 19  2  0  0  0  0
 19 16  1  0  0  0  0
 20  1  1  0  0  0  0
 21 20  1  0  0  0  0
 22 21  1  0  0  0  0
 23 22  1  0  0  0  0
 24 25  2  0  0  0  0
 24 23  1  0  0  0  0
 26 24  1  0  0  0  0
 29 27  2  6  0  0  0
 29 28  1  0  0  0  0
 29 26  1  0  0  0  0
 30 29  1  0  0  0  0
 31 32  2  0  0  0  0
 32 30  1  0  0  0  0
 32 34  1  0  0  0  0
 33 32  1  0  0  0  0
 36 37  2  0  0  0  0
 37 35  1  0  0  0  0
 38 39  2  0  0  0  0
 39 36  1  0  0  0  0
 40 39  1  0  0  0  0
 42 43  1  0  0  0  0
 43 41  1  6  0  0  0
 43 45  1  0  0  0  0
 43 40  1  0  0  0  0
 44 46  2  0  0  0  0
 44 48  1  0  0  0  0
 46 51  1  0  0  0  0
 47 45  1  0  0  0  0
 48 50  1  0  0  0  0
 49 47  1  0  0  0  0
 50 52  2  0  0  0  0
 51 49  2  0  0  0  0
 52 42  1  0  0  0  0
 52 49  1  0  0  0  0
M  END
>  <MODEL>
6

>  <REMARK>
 VINA RESULT:      -6.4      1.881      2.533
  Name = 
  15 active torsions:
  status: ('A' for Active; 'I' for Inactive)
    1  A    between atoms: C_1  and  C_22
    2  A    between atoms: C_2  and  O_13
    3  A    between atoms: C_6  and  C_45
    4  A    between atoms: N_11  and  C_21
    5  A    between atoms: O_12  and  P_18
    6  A    between atoms: O_12  and  P_31
    7  A    between atoms: O_13  and  C_49
    8  A    between atoms: C_16  and  O_34
    9  A    between atoms: C_21  and  C_25
   10  A    between atoms: C_22  and  C_25
   11  A    between atoms: N_29  and  C_41
   12  A    between atoms: C_30  and  C_44
   13  A    between atoms: P_31  and  O_34
   14  A    between atoms: C_41  and  C_45
   15  A    between atoms: C_44  and  C_52
                            x       y       z     vdW  Elec       q    Type
                         _______ _______ _______ _____ _____    ______ ____

>  <TORSDO>
F 15

$$$$
=
 OpenBabel10222417453D

 52 55  0  0  1  0  0  0  0  0999 V2000
  186.8230  175.9030  135.3510 C   0  0  0  0  0  0  0  0  0  0  0  0
  190.7820  176.8060  137.1630 C   0  0  1  0  0  3  0  0  0  0  0  0
  186.0860  177.9420  136.3540 N   0  0  0  0  0  0  0  0  0  0  0  0
  184.7410  176.8970  134.7290 N   0  0  0  0  0  0  0  0  0  0  0  0
  189.7920  174.7630  138.0370 O   0  0  0  0  0  1  0  0  0  0  0  0
  189.5110  177.0600  136.4060 C   0  0  0  0  0  0  0  0  0  0  0  0
  188.8440  177.3280  139.4650 C   0  0  0  0  0  3  0  0  0  0  0  0
  190.1420  176.5650  139.5860 C   0  0  1  0  0  3  0  0  0  0  0  0
  190.6250  175.8430  138.3380 C   0  0  2  0  0  3  0  0  0  0  0  0
  185.6480  175.8960  134.5950 C   0  0  0  0  0  3  0  0  0  0  0  0
  189.5840  177.3500  135.1780 O   0  0  0  0  0  0  0  0  0  0  0  0
  188.0350  177.5100  138.4130 C   0  0  0  0  0  3  0  0  0  0  0  0
  187.0330  176.9670  136.2520 C   0  0  0  0  0  0  0  0  0  0  0  0
  188.2230  177.0500  137.0600 N   0  0  0  0  0  0  0  0  0  0  0  0
  184.9540  177.9130  135.6040 C   0  0  0  0  0  3  0  0  0  0  0  0
  191.8800  176.4480  136.3180 O   0  0  0  0  0  0  0  0  0  0  0  0
  194.1390  175.4930  135.8840 C   0  0  0  0  0  1  0  0  0  0  0  0
  193.5780  176.6370  137.8860 O   0  0  0  0  0  0  0  0  0  0  0  0
  193.1910  176.2290  136.7600 C   0  0  0  0  0  0  0  0  0  0  0  0
  187.7830  174.7650  135.2240 C   0  0  0  0  0  2  0  0  0  0  0  0
  187.6240  173.8000  136.3860 C   0  0  0  0  0  2  0  0  0  0  0  0
  186.2280  173.2090  136.3620 C   0  0  0  0  0  2  0  0  0  0  0  0
  185.4760  173.6600  137.5210 N   0  0  0  0  0  2  0  0  0  0  0  0
  184.1240  174.1120  137.4360 C   0  0  0  0  0  0  0  0  0  0  0  0
  183.4940  174.0230  136.3470 O   0  0  0  0  0  0  0  0  0  0  0  0
  183.5150  174.6440  138.5730 O   0  0  0  0  0  0  0  0  0  0  0  0
  181.6310  176.2780  139.7980 O   0  0  0  0  0  1  0  0  0  0  0  0
  182.1930  176.4850  137.2450 O   0  0  0  0  0  0  0  0  0  0  0  0
  182.8240  176.2180  138.5950 P   0  0  2  0  0  0  0  0  0  0  0  0
  184.0620  177.3500  138.9020 O   0  0  0  0  0  0  0  0  0  0  0  0
  182.5850  178.9890  140.6120 O   0  0  0  0  0  1  0  0  0  0  0  0
  183.3360  178.8780  139.0980 P   0  0  0  0  0  0  0  0  0  0  0  0
  184.5420  180.0620  139.0070 O   0  0  0  0  0  1  0  0  0  0  0  0
  182.3220  179.1350  138.0050 O   0  0  0  0  0  0  0  0  0  0  0  0
  191.2430  177.4630  140.1330 C   0  0  0  0  0  2  0  0  0  0  0  0
  190.7820  176.2950  142.1830 N   0  0  0  0  0  0  0  0  0  0  0  0
  191.4720  177.2070  141.5820 C   0  0  0  0  0  3  0  0  0  0  0  0
  192.0340  175.5360  144.0120 O   0  0  0  0  0  0  0  0  0  0  0  0
  190.9450  175.9930  143.5710 C   0  0  0  0  0  0  0  0  0  0  0  0
  189.8150  176.2580  144.5120 C   0  0  0  0  0  2  0  0  0  0  0  0
  190.9590  178.3370  144.7920 O   0  0  0  0  0  1  0  0  0  0  0  0
  188.7960  178.4110  143.9980 O   0  0  0  0  0  0  0  0  0  0  0  0
  189.7020  177.7390  144.8820 C   0  0  1  0  0  0  0  0  0  0  0  0
  184.4100  178.7520  143.8550 N   0  0  0  0  0  0  0  0  0  0  0  0
  189.2060  177.8460  146.3280 C   0  0  0  0  0  2  0  0  0  0  0  0
  184.5520  178.8240  145.1420 C   0  0  0  0  0  3  0  0  0  0  0  0
  187.8210  177.5030  146.4280 O   0  0  0  0  0  0  0  0  0  0  0  0
  185.2300  177.9310  142.9810 C   0  0  0  0  0  2  0  0  0  0  0  0
  186.8940  177.9590  145.4870 C   0  0  0  0  0  0  0  0  0  0  0  0
  186.6670  178.3250  143.0290 C   0  0  0  0  0  3  0  0  0  0  0  0
  185.6470  178.1970  145.9090 C   0  0  0  0  0  3  0  0  0  0  0  0
  187.4130  178.2670  144.1320 C   0  0  0  0  0  0  0  0  0  0  0  0
  1 13  1  0  0  0  0
  2 16  1  6  0  0  0
  2  9  1  0  0  0  0
  4 15  2  0  0  0  0
  6 14  1  0  0  0  0
  6  2  1  0  0  0  0
  7  8  1  0  0  0  0
  8 35  1  6  0  0  0
  9  5  1  6  0  0  0
  9  8  1  0  0  0  0
 10  4  1  0  0  0  0
 10  1  2  0  0  0  0
 11  6  2  0  0  0  0
 12  7  2  0  0  0  0
 13  3  2  0  0  0  0
 13 14  1  0  0  0  0
 14 12  1  0  0  0  0
 15  3  1  0  0  0  0
 16 19  1  0  0  0  0
 17 19  1  0  0  0  0
 19 18  2  0  0  0  0
 20  1  1  0  0  0  0
 20 21  1  0  0  0  0
 22 21  1  0  0  0  0
 22 23  1  0  0  0  0
 24 23  1  0  0  0  0
 24 26  1  0  0  0  0
 25 24  2  0  0  0  0
 26 29  1  0  0  0  0
 29 28  2  6  0  0  0
 29 30  1  0  0  0  0
 29 27  1  0  0  0  0
 30 32  1  0  0  0  0
 32 31  1  0  0  0  0
 33 32  1  0  0  0  0
 34 32  2  0  0  0  0
 35 37  1  0  0  0  0
 36 39  1  0  0  0  0
 37 36  2  0  0  0  0
 39 38  2  0  0  0  0
 39 40  1  0  0  0  0
 40 43  1  0  0  0  0
 42 52  1  0  0  0  0
 42 43  1  0  0  0  0
 43 41  1  6  0  0  0
 43 45  1  0  0  0  0
 44 46  2  0  0  0  0
 45 47  1  0  0  0  0
 46 51  1  0  0  0  0
 48 50  1  0  0  0  0
 48 44  1  0  0  0  0
 49 51  2  0  0  0  0
 49 47  1  0  0  0  0
 50 52  2  0  0  0  0
 52 49  1  0  0  0  0
M  END
>  <MODEL>
7

>  <REMARK>
 VINA RESULT:      -6.4      3.015      9.024
  Name = 
  15 active torsions:
  status: ('A' for Active; 'I' for Inactive)
    1  A    between atoms: C_1  and  C_22
    2  A    between atoms: C_2  and  O_13
    3  A    between atoms: C_6  and  C_45
    4  A    between atoms: N_11  and  C_21
    5  A    between atoms: O_12  and  P_18
    6  A    between atoms: O_12  and  P_31
    7  A    between atoms: O_13  and  C_49
    8  A    between atoms: C_16  and  O_34
    9  A    between atoms: C_21  and  C_25
   10  A    between atoms: C_22  and  C_25
   11  A    between atoms: N_29  and  C_41
   12  A    between atoms: C_30  and  C_44
   13  A    between atoms: P_31  and  O_34
   14  A    between atoms: C_41  and  C_45
   15  A    between atoms: C_44  and  C_52
                            x       y       z     vdW  Elec       q    Type
                         _______ _______ _______ _____ _____    ______ ____

>  <TORSDO>
F 15

$$$$
=
 OpenBabel10222417453D

 52 55  0  0  1  0  0  0  0  0999 V2000
  189.7680  177.9040  145.0280 C   0  0  0  0  0  0  0  0  0  0  0  0
  185.5820  177.7390  143.5380 C   0  0  1  0  0  3  0  0  0  0  0  0
  188.9580  176.7210  146.9380 N   0  0  0  0  0  0  0  0  0  0  0  0
  191.2780  176.8980  146.5830 N   0  0  0  0  0  0  0  0  0  0  0  0
  186.3510  180.0130  143.9320 O   0  0  0  0  0  1  0  0  0  0  0  0
  186.8640  177.2350  144.1340 C   0  0  0  0  0  0  0  0  0  0  0  0
  185.2370  178.6110  146.4440 C   0  0  0  0  0  3  0  0  0  0  0  0
  184.5160  179.2250  145.2680 C   0  0  1  0  0  3  0  0  0  0  0  0
  185.2340  179.1730  143.9280 C   0  0  2  0  0  3  0  0  0  0  0  0
  191.0690  177.6180  145.4510 C   0  0  0  0  0  3  0  0  0  0  0  0
  187.5230  176.3580  143.5070 O   0  0  0  0  0  0  0  0  0  0  0  0
  186.4190  177.9840  146.5120 C   0  0  0  0  0  3  0  0  0  0  0  0
  188.6920  177.4320  145.8060 C   0  0  0  0  0  0  0  0  0  0  0  0
  187.3230  177.6770  145.4310 N   0  0  0  0  0  0  0  0  0  0  0  0
  190.2320  176.4540  147.3250 C   0  0  0  0  0  3  0  0  0  0  0  0
  185.4970  177.5310  142.1240 O   0  0  0  0  0  0  0  0  0  0  0  0
  187.3650  178.3190  140.6770 C   0  0  0  0  0  1  0  0  0  0  0  0
  185.2180  179.3290  140.6870 O   0  0  0  0  0  0  0  0  0  0  0  0
  185.9620  178.4290  141.1550 C   0  0  0  0  0  0  0  0  0  0  0  0
  189.5620  178.7410  143.8070 C   0  0  0  0  0  2  0  0  0  0  0  0
  190.7790  178.6730  142.9010 C   0  0  0  0  0  2  0  0  0  0  0  0
  190.5240  177.6710  141.7920 C   0  0  0  0  0  2  0  0  0  0  0  0
  191.6390  177.6680  140.8580 N   0  0  0  0  0  2  0  0  0  0  0  0
  191.6990  176.7940  139.7300 C   0  0  0  0  0  0  0  0  0  0  0  0
  190.7110  176.0650  139.4410 O   0  0  0  0  0  0  0  0  0  0  0  0
  192.8590  176.7670  138.9550 O   0  0  0  0  0  0  0  0  0  0  0  0
  194.2570  176.5840  136.5620 O   0  0  0  0  0  0  0  0  0  0  0  0
  191.6510  176.3150  136.6670 O   0  0  0  0  0  1  0  0  0  0  0  0
  192.9220  175.9920  137.4220 P   0  0  2  0  0  0  0  0  0  0  0  0
  193.0500  174.3100  137.6700 O   0  0  0  0  0  0  0  0  0  0  0  0
  195.4380  175.1270  138.8620 O   0  0  0  0  0  1  0  0  0  0  0  0
  194.6960  173.9400  137.9100 P   0  0  0  0  0  0  0  0  0  0  0  0
  194.8020  172.4580  138.7180 O   0  0  0  0  0  1  0  0  0  0  0  0
  195.4180  173.8220  136.5850 O   0  0  0  0  0  0  0  0  0  0  0  0
  183.1140  178.6470  145.1350 C   0  0  0  0  0  2  0  0  0  0  0  0
  181.2540  178.8070  143.6210 N   0  0  0  0  0  0  0  0  0  0  0  0
  182.3530  179.3310  144.0550 C   0  0  0  0  0  3  0  0  0  0  0  0
  180.2190  180.6410  142.5940 O   0  0  0  0  0  0  0  0  0  0  0  0
  180.4690  179.4050  142.5870 C   0  0  0  0  0  0  0  0  0  0  0  0
  179.9680  178.5530  141.4670 C   0  0  0  0  0  2  0  0  0  0  0  0
  182.0170  179.3680  140.5450 O   0  0  0  0  0  1  0  0  0  0  0  0
  181.3760  177.2250  139.9870 O   0  0  0  0  0  0  0  0  0  0  0  0
  180.9180  178.5540  140.2660 C   0  0  1  0  0  0  0  0  0  0  0  0
  179.6250  173.8230  137.8090 N   0  0  0  0  0  0  0  0  0  0  0  0
  180.1750  179.1220  139.0540 C   0  0  0  0  0  2  0  0  0  0  0  0
  179.2210  174.7690  137.0180 C   0  0  0  0  0  3  0  0  0  0  0  0
  179.2110  178.1930  138.5520 O   0  0  0  0  0  0  0  0  0  0  0  0
  179.7320  173.9480  139.2530 C   0  0  0  0  0  2  0  0  0  0  0  0
  179.5130  176.8340  138.4320 C   0  0  0  0  0  0  0  0  0  0  0  0
  180.6990  175.0090  139.6540 C   0  0  0  0  0  3  0  0  0  0  0  0
  178.9360  176.1560  137.4330 C   0  0  0  0  0  3  0  0  0  0  0  0
  180.5550  176.2970  139.3420 C   0  0  0  0  0  0  0  0  0  0  0  0
  1 10  2  0  0  0  0
  1 13  1  0  0  0  0
  2 16  1  6  0  0  0
  2  9  1  0  0  0  0
  2  6  1  0  0  0  0
  3 15  1  0  0  0  0
  4 15  2  0  0  0  0
  6 14  1  0  0  0  0
  7 12  2  0  0  0  0
  8 35  1  6  0  0  0
  8  7  1  0  0  0  0
  9  5  1  1  0  0  0
  9  8  1  0  0  0  0
 10  4  1  0  0  0  0
 11  6  2  0  0  0  0
 13  3  2  0  0  0  0
 14 13  1  0  0  0  0
 14 12  1  0  0  0  0
 17 19  1  0  0  0  0
 18 19  2  0  0  0  0
 19 16  1  0  0  0  0
 20  1  1  0  0  0  0
 21 20  1  0  0  0  0
 22 21  1  0  0  0  0
 23 22  1  0  0  0  0
 24 23  1  0  0  0  0
 25 24  2  0  0  0  0
 26 24  1  0  0  0  0
 28 29  1  0  0  0  0
 29 27  2  6  0  0  0
 29 30  1  0  0  0  0
 29 26  1  0  0  0  0
 30 32  1  0  0  0  0
 32 33  1  0  0  0  0
 32 31  1  0  0  0  0
 34 32  2  0  0  0  0
 36 37  2  0  0  0  0
 37 35  1  0  0  0  0
 39 38  2  0  0  0  0
 39 36  1  0  0  0  0
 40 39  1  0  0  0  0
 42 43  1  0  0  0  0
 43 41  1  1  0  0  0
 43 40  1  0  0  0  0
 44 48  1  0  0  0  0
 45 43  1  0  0  0  0
 46 51  1  0  0  0  0
 46 44  2  0  0  0  0
 47 45  1  0  0  0  0
 48 50  1  0  0  0  0
 49 47  1  0  0  0  0
 49 52  1  0  0  0  0
 51 49  2  0  0  0  0
 52 50  2  0  0  0  0
 52 42  1  0  0  0  0
M  END
>  <MODEL>
8

>  <REMARK>
 VINA RESULT:      -6.3      2.384      3.237
  Name = 
  15 active torsions:
  status: ('A' for Active; 'I' for Inactive)
    1  A    between atoms: C_1  and  C_22
    2  A    between atoms: C_2  and  O_13
    3  A    between atoms: C_6  and  C_45
    4  A    between atoms: N_11  and  C_21
    5  A    between atoms: O_12  and  P_18
    6  A    between atoms: O_12  and  P_31
    7  A    between atoms: O_13  and  C_49
    8  A    between atoms: C_16  and  O_34
    9  A    between atoms: C_21  and  C_25
   10  A    between atoms: C_22  and  C_25
   11  A    between atoms: N_29  and  C_41
   12  A    between atoms: C_30  and  C_44
   13  A    between atoms: P_31  and  O_34
   14  A    between atoms: C_41  and  C_45
   15  A    between atoms: C_44  and  C_52
                            x       y       z     vdW  Elec       q    Type
                         _______ _______ _______ _____ _____    ______ ____

>  <TORSDO>
F 15

$$$$
=
 OpenBabel10222417453D

 52 55  0  0  1  0  0  0  0  0999 V2000
  180.4010  175.4680  136.5470 C   0  0  0  0  0  0  0  0  0  0  0  0
  181.1860  178.8740  139.2950 C   0  0  1  0  0  3  0  0  0  0  0  0
  180.2910  174.1210  138.5180 N   0  0  0  0  0  0  0  0  0  0  0  0
  179.5300  173.2430  136.4710 N   0  0  0  0  0  0  0  0  0  0  0  0
  183.0480  178.4280  137.7950 O   0  0  0  0  0  1  0  0  0  0  0  0
  180.5080  177.6430  138.7690 C   0  0  0  0  0  0  0  0  0  0  0  0
  183.0540  176.7020  140.3510 C   0  0  0  0  0  3  0  0  0  0  0  0
  183.4400  178.1480  140.1480 C   0  0  1  0  0  3  0  0  0  0  0  0
  182.6940  178.9040  139.0600 C   0  0  2  0  0  3  0  0  0  0  0  0
  179.8480  174.4000  135.8350 C   0  0  0  0  0  3  0  0  0  0  0  0
  179.3010  177.7230  138.4040 O   0  0  0  0  0  0  0  0  0  0  0  0
  182.1230  175.9550  139.7450 C   0  0  0  0  0  3  0  0  0  0  0  0
  180.6200  175.3070  137.9310 C   0  0  0  0  0  0  0  0  0  0  0  0
  181.1780  176.3630  138.7360 N   0  0  0  0  0  0  0  0  0  0  0  0
  179.7510  173.1010  137.8020 C   0  0  0  0  0  3  0  0  0  0  0  0
  180.5530  180.0890  138.8780 O   0  0  0  0  0  0  0  0  0  0  0  0
  180.5830  180.4890  136.4200 C   0  0  0  0  0  1  0  0  0  0  0  0
  181.6750  181.9070  137.9780 O   0  0  0  0  0  0  0  0  0  0  0  0
  180.9720  180.8790  137.8000 C   0  0  0  0  0  0  0  0  0  0  0  0
  180.7900  176.7120  135.8180 C   0  0  0  0  0  2  0  0  0  0  0  0
  181.8950  176.4220  134.8180 C   0  0  0  0  0  2  0  0  0  0  0  0
  182.9440  175.5420  135.4680 C   0  0  0  0  0  2  0  0  0  0  0  0
  184.2730  175.9630  135.0560 N   0  0  0  0  0  2  0  0  0  0  0  0
  185.4300  175.1410  135.2210 C   0  0  0  0  0  0  0  0  0  0  0  0
  185.3100  173.9550  135.6330 O   0  0  0  0  0  0  0  0  0  0  0  0
  186.6840  175.6690  134.9130 O   0  0  0  0  0  0  0  0  0  0  0  0
  189.3370  176.2500  135.4990 O   0  0  0  0  0  0  0  0  0  0  0  0
  187.6900  175.3150  137.3140 O   0  0  0  0  0  1  0  0  0  0  0  0
  187.7600  176.2460  136.1220 P   0  0  2  0  0  0  0  0  0  0  0  0
  187.2760  177.8180  136.5730 O   0  0  0  0  0  0  0  0  0  0  0  0
  189.0570  179.4410  137.9820 O   0  0  0  0  0  0  0  0  0  0  0  0
  187.9560  178.1590  138.0970 P   0  0  0  0  0  0  0  0  0  0  0  0
  186.7140  178.6100  139.1530 O   0  0  0  0  0  1  0  0  0  0  0  0
  188.6510  176.9380  138.6590 O   0  0  0  0  0  1  0  0  0  0  0  0
  183.3690  178.9130  141.4620 C   0  0  0  0  0  2  0  0  0  0  0  0
  185.5680  178.3460  142.2510 N   0  0  0  0  0  0  0  0  0  0  0  0
  184.2950  178.3310  142.4710 C   0  0  0  0  0  3  0  0  0  0  0  0
  186.3580  177.9300  144.4170 O   0  0  0  0  0  0  0  0  0  0  0  0
  186.5180  177.8050  143.1730 C   0  0  0  0  0  0  0  0  0  0  0  0
  187.6980  177.0550  142.6460 C   0  0  0  0  0  2  0  0  0  0  0  0
  188.7680  178.9800  141.7180 O   0  0  0  0  0  1  0  0  0  0  0  0
  189.2630  178.4360  143.9030 O   0  0  0  0  0  0  0  0  0  0  0  0
  188.9620  177.9170  142.6010 C   0  0  1  0  0  0  0  0  0  0  0  0
  191.2860  176.7530  147.4310 N   0  0  0  0  0  0  0  0  0  0  0  0
  190.1240  177.0570  142.0940 C   0  0  0  0  0  2  0  0  0  0  0  0
  192.0540  176.2370  146.5220 C   0  0  0  0  0  3  0  0  0  0  0  0
  190.5490  176.1200  143.0870 O   0  0  0  0  0  0  0  0  0  0  0  0
  189.8540  176.9520  147.2830 C   0  0  0  0  0  2  0  0  0  0  0  0
  190.6800  176.4980  144.4260 C   0  0  0  0  0  0  0  0  0  0  0  0
  189.5310  177.8770  146.1600 C   0  0  0  0  0  3  0  0  0  0  0  0
  191.6310  175.8960  145.1500 C   0  0  0  0  0  3  0  0  0  0  0  0
  189.8420  177.6310  144.8870 C   0  0  0  0  0  0  0  0  0  0  0  0
  1 13  1  0  0  0  0
  2 16  1  6  0  0  0
  4 15  2  0  0  0  0
  6  2  1  0  0  0  0
  8  7  1  0  0  0  0
  8 35  1  1  0  0  0
  9  5  1  6  0  0  0
  9  2  1  0  0  0  0
  9  8  1  0  0  0  0
 10  4  1  0  0  0  0
 10  1  2  0  0  0  0
 11  6  2  0  0  0  0
 12  7  2  0  0  0  0
 13  3  2  0  0  0  0
 13 14  1  0  0  0  0
 14  6  1  0  0  0  0
 14 12  1  0  0  0  0
 15  3  1  0  0  0  0
 17 19  1  0  0  0  0
 19 18  2  0  0  0  0
 19 16  1  0  0  0  0
 20  1  1  0  0  0  0
 21 22  1  0  0  0  0
 21 20  1  0  0  0  0
 23 24  1  0  0  0  0
 23 22  1  0  0  0  0
 24 25  2  0  0  0  0
 26 24  1  0  0  0  0
 26 29  1  0  0  0  0
 29 27  2  6  0  0  0
 29 30  1  0  0  0  0
 29 28  1  0  0  0  0
 30 32  1  0  0  0  0
 31 32  2  0  0  0  0
 32 34  1  0  0  0  0
 32 33  1  0  0  0  0
 35 37  1  0  0  0  0
 36 37  2  0  0  0  0
 36 39  1  0  0  0  0
 39 38  2  0  0  0  0
 40 39  1  0  0  0  0
 42 52  1  0  0  0  0
 43 41  1  6  0  0  0
 43 40  1  0  0  0  0
 43 42  1  0  0  0  0
 45 43  1  0  0  0  0
 45 47  1  0  0  0  0
 46 44  2  0  0  0  0
 47 49  1  0  0  0  0
 48 44  1  0  0  0  0
 49 52  1  0  0  0  0
 49 51  2  0  0  0  0
 50 48  1  0  0  0  0
 51 46  1  0  0  0  0
 52 50  2  0  0  0  0
M  END
>  <MODEL>
9

>  <REMARK>
 VINA RESULT:      -6.3      2.217      8.913
  Name = 
  15 active torsions:
  status: ('A' for Active; 'I' for Inactive)
    1  A    between atoms: C_1  and  C_22
    2  A    between atoms: C_2  and  O_13
    3  A    between atoms: C_6  and  C_45
    4  A    between atoms: N_11  and  C_21
    5  A    between atoms: O_12  and  P_18
    6  A    between atoms: O_12  and  P_31
    7  A    between atoms: O_13  and  C_49
    8  A    between atoms: C_16  and  O_34
    9  A    between atoms: C_21  and  C_25
   10  A    between atoms: C_22  and  C_25
   11  A    between atoms: N_29  and  C_41
   12  A    between atoms: C_30  and  C_44
   13  A    between atoms: P_31  and  O_34
   14  A    between atoms: C_41  and  C_45
   15  A    between atoms: C_44  and  C_52
                            x       y       z     vdW  Elec       q    Type
                         _______ _______ _______ _____ _____    ______ ____

>  <TORSDO>
F 15

$$$$
