=
 OpenBabel10222421073D

 29 34  0  0  1  0  0  0  0  0999 V2000
  189.7430  177.3310  139.9380 C   0  0  0  0  0  0  0  0  0  0  0  0
  188.1320  178.6880  140.3860 C   0  0  0  0  0  0  0  0  0  0  0  0
  191.1610  176.8620  138.0890 O   0  0  0  0  0  0  0  0  0  0  0  0
  186.3570  178.7330  141.6280 C   0  0  0  0  0  0  0  0  0  0  0  0
  188.5860  178.2580  141.5830 C   0  0  1  0  0  3  0  0  0  0  0  0
  187.4460  178.2020  142.5320 C   0  0  0  0  0  3  0  0  0  0  0  0
  189.6050  177.3620  141.3200 C   0  0  0  0  0  0  0  0  0  0  0  0
  189.4590  178.0040  136.8740 C   0  0  0  0  0  2  0  0  0  0  0  0
  186.7460  178.9750  140.4110 N   0  0  0  0  0  0  0  0  0  0  0  0
  188.8110  178.1350  139.3590 N   0  0  0  0  0  0  0  0  0  0  0  0
  190.5410  176.2960  139.2040 C   0  0  0  0  0  2  0  0  0  0  0  0
  190.2400  176.7130  137.0470 C   0  0  0  0  0  2  0  0  0  0  0  0
  187.2780  178.5300  137.6350 O   0  0  0  0  0  0  0  0  0  0  0  0
  188.4500  178.2060  137.9650 C   0  0  0  0  0  0  0  0  0  0  0  0
  183.2050  178.9870  143.3710 C   0  0  0  0  0  0  0  0  0  0  0  0
  184.9630  178.9020  142.0600 C   0  0  0  0  0  0  0  0  0  0  0  0
  183.7780  178.2900  141.4160 C   0  0  0  0  0  3  0  0  0  0  0  0
  183.0000  178.6350  144.6280 C   0  0  0  0  0  3  0  0  0  0  0  0
  184.2820  178.9480  145.3110 C   0  0  0  0  0  3  0  0  0  0  0  0
  185.2070  179.3330  144.4780 N   0  0  0  0  0  0  0  0  0  0  0  0
  182.7420  178.3210  142.2070 N   0  0  0  0  0  0  0  0  0  0  0  0
  184.5480  179.3640  143.2280 C   0  0  0  0  0  0  0  0  0  0  0  0
  191.6060  176.3680  145.3610 C   0  0  0  0  0  0  0  0  0  0  0  0
  190.1420  176.3830  142.2160 N   0  0  0  0  0  2  0  0  0  0  0  0
  191.0730  175.7440  144.3430 O   0  0  0  0  0  0  0  0  0  0  0  0
  191.6100  177.7240  145.1160 C   0  0  0  0  0  3  0  0  0  0  0  0
  191.0550  177.9170  143.9010 N   0  0  0  0  0  0  0  0  0  0  0  0
  190.7430  176.6740  143.4810 C   0  0  0  0  0  0  0  0  0  0  0  0
  192.1240  175.7000  146.5830 C   0  0  0  0  0  1  0  0  0  0  0  0
  1  7  2  0  0  0  0
  2  9  2  0  0  0  0
  2  5  1  0  0  0  0
  3 11  1  0  0  0  0
  4 16  1  0  0  0  0
  4  6  2  0  0  0  0
  5  6  1  6  0  0  0
  7  5  1  0  0  0  0
  7 24  1  0  0  0  0
  8 12  1  0  0  0  0
  8 14  1  0  0  0  0
  9  4  1  0  0  0  0
 10  1  1  0  0  0  0
 10  2  1  0  0  0  0
 11  1  1  0  0  0  0
 12  3  1  0  0  0  0
 13 14  2  0  0  0  0
 14 10  1  0  0  0  0
 15 18  1  0  0  0  0
 16 22  1  0  0  0  0
 17 16  2  0  0  0  0
 17 21  1  0  0  0  0
 18 19  2  0  0  0  0
 20 19  1  0  0  0  0
 21 15  2  0  0  0  0
 22 15  1  0  0  0  0
 22 20  2  0  0  0  0
 23 29  1  0  0  0  0
 24 28  1  0  0  0  0
 25 23  1  0  0  0  0
 26 23  2  0  0  0  0
 27 26  1  0  0  0  0
 28 27  2  0  0  0  0
 28 25  1  0  0  0  0
M  END
>  <MODEL>
1

>  <REMARK>
 VINA RESULT:      -9.3      0.000      0.000
  Name = 
  2 active torsions:
  status: ('A' for Active; 'I' for Inactive)
    1  A    between atoms: C_3  and  C_6
    2  A    between atoms: C_10  and  N_15
                            x       y       z     vdW  Elec       q    Type
                         _______ _______ _______ _____ _____    ______ ____

>  <TORSDO>
F 2

$$$$
=
 OpenBabel10222421073D

 29 34  0  0  0  0  0  0  0  0999 V2000
  188.9450  176.8990  138.1940 C   0  0  0  0  0  0  0  0  0  0  0  0
  188.9330  178.1030  139.9790 C   0  0  0  0  0  0  0  0  0  0  0  0
  187.8380  176.8910  136.0910 O   0  0  0  0  0  0  0  0  0  0  0  0
  189.2640  177.8420  142.1050 C   0  0  0  0  0  0  0  0  0  0  0  0
  190.0850  177.4000  140.0250 C   0  0  0  0  0  0  0  0  0  0  0  0
  190.4120  177.1140  141.4450 C   0  0  0  0  0  3  0  0  0  0  0  0
  190.1020  176.5970  138.9010 C   0  0  0  0  0  0  0  0  0  0  0  0
  186.2830  178.2850  137.2390 C   0  0  0  0  0  2  0  0  0  0  0  0
  188.4170  178.3700  141.2700 N   0  0  0  0  0  2  0  0  0  0  0  0
  188.2080  177.8150  138.8780 N   0  0  0  0  0  0  0  0  0  0  0  0
  188.4250  176.0720  137.0570 C   0  0  0  0  0  2  0  0  0  0  0  0
  186.4950  176.9930  136.4690 C   0  0  0  0  0  2  0  0  0  0  0  0
  186.1210  178.6050  139.5810 O   0  0  0  0  0  0  0  0  0  0  0  0
  186.8460  178.2150  138.6270 C   0  0  0  0  0  0  0  0  0  0  0  0
  189.4690  177.6330  145.7040 C   0  0  0  0  0  0  0  0  0  0  0  0
  189.0750  177.8980  143.5610 C   0  0  0  0  0  0  0  0  0  0  0  0
  187.8510  177.4980  144.2900 C   0  0  0  0  0  3  0  0  0  0  0  0
  190.3790  176.9490  146.3750 C   0  0  0  0  0  3  0  0  0  0  0  0
  191.6050  177.0500  145.5410 C   0  0  0  0  0  3  0  0  0  0  0  0
  191.3820  177.6420  144.4020 N   0  0  0  0  0  0  0  0  0  0  0  0
  188.0940  177.3190  145.5590 N   0  0  0  0  0  0  0  0  0  0  0  0
  190.0220  178.0230  144.4760 C   0  0  0  0  0  0  0  0  0  0  0  0
  193.8800  174.6820  137.0600 C   0  0  0  0  0  0  0  0  0  0  0  0
  190.9100  175.4340  138.6870 N   0  0  0  0  0  2  0  0  0  0  0  0
  192.9070  174.3630  137.8740 O   0  0  0  0  0  0  0  0  0  0  0  0
  193.6730  175.9560  136.5760 C   0  0  0  0  0  3  0  0  0  0  0  0
  192.5300  176.4160  137.1250 N   0  0  0  0  0  0  0  0  0  0  0  0
  192.1120  175.4020  137.9110 C   0  0  0  0  0  0  0  0  0  0  0  0
  195.0220  173.7930  136.7200 C   0  0  0  0  0  1  0  0  0  0  0  0
  1 10  1  0  0  0  0
  1  7  2  0  0  0  0
  2  5  2  0  0  0  0
  2  9  1  0  0  0  0
  3 12  1  0  0  0  0
  3 11  1  0  0  0  0
  4 16  1  0  0  0  0
  5  6  1  0  0  0  0
  6  4  2  0  0  0  0
  7  5  1  0  0  0  0
  8 14  1  0  0  0  0
  9  4  1  0  0  0  0
 10  2  1  0  0  0  0
 11  1  1  0  0  0  0
 12  8  1  0  0  0  0
 14 10  1  0  0  0  0
 14 13  2  0  0  0  0
 15 18  1  0  0  0  0
 16 17  2  0  0  0  0
 16 22  1  0  0  0  0
 17 21  1  0  0  0  0
 19 18  2  0  0  0  0
 20 22  2  0  0  0  0
 20 19  1  0  0  0  0
 21 15  2  0  0  0  0
 22 15  1  0  0  0  0
 23 25  1  0  0  0  0
 24  7  1  0  0  0  0
 25 28  1  0  0  0  0
 26 23  2  0  0  0  0
 26 27  1  0  0  0  0
 27 28  2  0  0  0  0
 28 24  1  0  0  0  0
 29 23  1  0  0  0  0
M  END
>  <MODEL>
2

>  <REMARK>
 VINA RESULT:      -9.0      3.033      5.372
  Name = 
  2 active torsions:
  status: ('A' for Active; 'I' for Inactive)
    1  A    between atoms: C_3  and  C_6
    2  A    between atoms: C_10  and  N_15
                            x       y       z     vdW  Elec       q    Type
                         _______ _______ _______ _____ _____    ______ ____

>  <TORSDO>
F 2

$$$$
=
 OpenBabel10222421073D

 29 34  0  0  0  0  0  0  0  0999 V2000
  188.9360  176.8090  138.0760 C   0  0  0  0  0  0  0  0  0  0  0  0
  189.0750  177.8940  139.9310 C   0  0  0  0  0  0  0  0  0  0  0  0
  187.7200  176.9870  136.0420 O   0  0  0  0  0  0  0  0  0  0  0  0
  189.5050  177.4820  142.0140 C   0  0  0  0  0  0  0  0  0  0  0  0
  190.1930  177.1390  139.8690 C   0  0  0  0  0  0  0  0  0  0  0  0
  190.5800  176.7480  141.2480 C   0  0  0  0  0  3  0  0  0  0  0  0
  190.1130  176.4110  138.6980 C   0  0  0  0  0  0  0  0  0  0  0  0
  186.2970  178.3720  137.3590 C   0  0  0  0  0  2  0  0  0  0  0  0
  188.6410  178.1000  141.2630 N   0  0  0  0  0  2  0  0  0  0  0  0
  188.2800  177.7110  138.8560 N   0  0  0  0  0  0  0  0  0  0  0  0
  188.3170  176.0820  136.9210 C   0  0  0  0  0  2  0  0  0  0  0  0
  186.4050  177.1240  136.4990 C   0  0  0  0  0  2  0  0  0  0  0  0
  186.2740  178.5470  139.7220 O   0  0  0  0  0  0  0  0  0  0  0  0
  186.9280  178.1880  138.7070 C   0  0  0  0  0  0  0  0  0  0  0  0
  188.5100  177.5480  145.4850 C   0  0  0  0  0  0  0  0  0  0  0  0
  189.3960  177.4520  143.4790 C   0  0  0  0  0  0  0  0  0  0  0  0
  190.2790  178.1700  144.4270 C   0  0  0  0  0  3  0  0  0  0  0  0
  187.3250  177.9290  145.9290 C   0  0  0  0  0  3  0  0  0  0  0  0
  186.3780  177.5000  144.8680 C   0  0  0  0  0  3  0  0  0  0  0  0
  186.9900  177.0200  143.8220 N   0  0  0  0  0  0  0  0  0  0  0  0
  189.7390  178.2450  145.6120 N   0  0  0  0  0  0  0  0  0  0  0  0
  188.3560  177.0430  144.1870 C   0  0  0  0  0  0  0  0  0  0  0  0
  193.9500  174.4830  136.9990 C   0  0  0  0  0  0  0  0  0  0  0  0
  190.8510  175.2290  138.3670 N   0  0  0  0  0  2  0  0  0  0  0  0
  192.8530  174.1240  137.6140 O   0  0  0  0  0  0  0  0  0  0  0  0
  193.9090  175.8370  136.7420 C   0  0  0  0  0  3  0  0  0  0  0  0
  192.7390  176.3040  137.2260 N   0  0  0  0  0  0  0  0  0  0  0  0
  192.1420  175.2150  137.7500 C   0  0  0  0  0  0  0  0  0  0  0  0
  195.0570  173.5590  136.6370 C   0  0  0  0  0  1  0  0  0  0  0  0
  1  7  2  0  0  0  0
  1 10  1  0  0  0  0
  2  9  1  0  0  0  0
  3 12  1  0  0  0  0
  3 11  1  0  0  0  0
  4 16  1  0  0  0  0
  5  2  2  0  0  0  0
  5  6  1  0  0  0  0
  6  4  2  0  0  0  0
  7  5  1  0  0  0  0
  8 14  1  0  0  0  0
  9  4  1  0  0  0  0
 10  2  1  0  0  0  0
 11  1  1  0  0  0  0
 12  8  1  0  0  0  0
 14 10  1  0  0  0  0
 14 13  2  0  0  0  0
 15 21  1  0  0  0  0
 15 18  2  0  0  0  0
 16 22  2  0  0  0  0
 16 17  1  0  0  0  0
 17 21  2  0  0  0  0
 19 18  1  0  0  0  0
 20 22  1  0  0  0  0
 20 19  2  0  0  0  0
 22 15  1  0  0  0  0
 23 25  1  0  0  0  0
 24  7  1  0  0  0  0
 25 28  1  0  0  0  0
 26 23  2  0  0  0  0
 26 27  1  0  0  0  0
 27 28  2  0  0  0  0
 28 24  1  0  0  0  0
 29 23  1  0  0  0  0
M  END
>  <MODEL>
3

>  <REMARK>
 VINA RESULT:      -8.9      2.871      5.134
  Name = 
  2 active torsions:
  status: ('A' for Active; 'I' for Inactive)
    1  A    between atoms: C_3  and  C_6
    2  A    between atoms: C_10  and  N_15
                            x       y       z     vdW  Elec       q    Type
                         _______ _______ _______ _____ _____    ______ ____

>  <TORSDO>
F 2

$$$$
=
 OpenBabel10222421073D

 29 34  0  0  1  0  0  0  0  0999 V2000
  189.4520  177.4690  140.3780 C   0  0  0  0  0  0  0  0  0  0  0  0
  187.7190  178.6110  140.9520 C   0  0  0  0  0  0  0  0  0  0  0  0
  190.8750  177.2960  138.4830 O   0  0  0  0  0  0  0  0  0  0  0  0
  185.9720  178.3740  142.2120 C   0  0  0  0  0  0  0  0  0  0  0  0
  188.2370  178.1370  142.1050 C   0  0  1  0  0  3  0  0  0  0  0  0
  187.1260  177.8880  143.0590 C   0  0  0  0  0  3  0  0  0  0  0  0
  189.3360  177.3750  141.7600 C   0  0  0  0  0  0  0  0  0  0  0  0
  189.0430  178.3490  137.3820 C   0  0  0  0  0  2  0  0  0  0  0  0
  186.3120  178.7500  141.0140 N   0  0  0  0  0  0  0  0  0  0  0  0
  188.4320  178.2150  139.8760 N   0  0  0  0  0  0  0  0  0  0  0  0
  190.3370  176.5820  139.5560 C   0  0  0  0  0  2  0  0  0  0  0  0
  189.9550  177.1360  137.4420 C   0  0  0  0  0  2  0  0  0  0  0  0
  186.8340  178.5850  138.2060 O   0  0  0  0  0  0  0  0  0  0  0  0
  188.0390  178.3580  138.4960 C   0  0  0  0  0  0  0  0  0  0  0  0
  182.3970  178.6250  142.6530 C   0  0  0  0  0  0  0  0  0  0  0  0
  184.5760  178.3630  142.6700 C   0  0  0  0  0  0  0  0  0  0  0  0
  184.0860  178.8960  143.9610 C   0  0  0  0  0  3  0  0  0  0  0  0
  181.5690  179.2280  141.8180 C   0  0  0  0  0  3  0  0  0  0  0  0
  182.1610  178.9900  140.4760 C   0  0  0  0  0  3  0  0  0  0  0  0
  183.3230  178.4030  140.5440 N   0  0  0  0  0  0  0  0  0  0  0  0
  182.7940  179.0730  143.9400 N   0  0  0  0  0  0  0  0  0  0  0  0
  183.5020  178.1610  141.9260 C   0  0  0  0  0  0  0  0  0  0  0  0
  191.6810  176.3180  145.5960 C   0  0  0  0  0  0  0  0  0  0  0  0
  189.9880  176.3890  142.5690 N   0  0  0  0  0  2  0  0  0  0  0  0
  191.1060  175.7110  144.5910 O   0  0  0  0  0  0  0  0  0  0  0  0
  191.5980  177.6820  145.4150 C   0  0  0  0  0  3  0  0  0  0  0  0
  190.9460  177.8970  144.2530 N   0  0  0  0  0  0  0  0  0  0  0  0
  190.6660  176.6570  143.7990 C   0  0  0  0  0  0  0  0  0  0  0  0
  192.3220  175.6280  146.7450 C   0  0  0  0  0  1  0  0  0  0  0  0
  1  7  2  0  0  0  0
  2  9  2  0  0  0  0
  2  5  1  0  0  0  0
  3 11  1  0  0  0  0
  4 16  1  0  0  0  0
  4  6  2  0  0  0  0
  5  6  1  6  0  0  0
  7  5  1  0  0  0  0
  7 24  1  0  0  0  0
  8 12  1  0  0  0  0
  8 14  1  0  0  0  0
  9  4  1  0  0  0  0
 10  1  1  0  0  0  0
 10  2  1  0  0  0  0
 11  1  1  0  0  0  0
 12  3  1  0  0  0  0
 13 14  2  0  0  0  0
 14 10  1  0  0  0  0
 15 21  1  0  0  0  0
 16 17  1  0  0  0  0
 18 15  2  0  0  0  0
 19 20  2  0  0  0  0
 19 18  1  0  0  0  0
 20 22  1  0  0  0  0
 21 17  2  0  0  0  0
 22 15  1  0  0  0  0
 22 16  2  0  0  0  0
 23 29  1  0  0  0  0
 24 28  1  0  0  0  0
 25 23  1  0  0  0  0
 26 23  2  0  0  0  0
 27 26  1  0  0  0  0
 28 27  2  0  0  0  0
 28 25  1  0  0  0  0
M  END
>  <MODEL>
4

>  <REMARK>
 VINA RESULT:      -8.9      0.950      1.680
  Name = 
  2 active torsions:
  status: ('A' for Active; 'I' for Inactive)
    1  A    between atoms: C_3  and  C_6
    2  A    between atoms: C_10  and  N_15
                            x       y       z     vdW  Elec       q    Type
                         _______ _______ _______ _____ _____    ______ ____

>  <TORSDO>
F 2

$$$$
=
 OpenBabel10222421073D

 29 34  0  0  0  0  0  0  0  0999 V2000
  188.2630  177.8560  140.1660 C   0  0  0  0  0  0  0  0  0  0  0  0
  188.7770  176.8890  142.0210 C   0  0  0  0  0  0  0  0  0  0  0  0
  188.9630  177.7550  137.8970 O   0  0  0  0  0  0  0  0  0  0  0  0
  188.7950  177.3590  144.1360 C   0  0  0  0  0  0  0  0  0  0  0  0
  187.5580  177.4340  142.2230 C   0  0  0  0  0  0  0  0  0  0  0  0
  187.4500  177.8440  143.6460 C   0  0  0  0  0  3  0  0  0  0  0  0
  187.2180  178.0860  141.0530 C   0  0  0  0  0  0  0  0  0  0  0  0
  190.8910  176.7270  138.8480 C   0  0  0  0  0  2  0  0  0  0  0  0
  189.5490  176.8490  143.2060 N   0  0  0  0  0  2  0  0  0  0  0  0
  189.2410  177.1350  140.7770 N   0  0  0  0  0  0  0  0  0  0  0  0
  188.4400  178.6000  138.8780 C   0  0  0  0  0  2  0  0  0  0  0  0
  190.3510  177.8770  138.0150 C   0  0  0  0  0  2  0  0  0  0  0  0
  191.5150  176.7160  141.1330 O   0  0  0  0  0  0  0  0  0  0  0  0
  190.5810  176.8890  140.3060 C   0  0  0  0  0  0  0  0  0  0  0  0
  190.4080  177.1910  147.3620 C   0  0  0  0  0  0  0  0  0  0  0  0
  189.2460  177.5040  145.5260 C   0  0  0  0  0  0  0  0  0  0  0  0
  188.3750  177.5010  146.7230 C   0  0  0  0  0  3  0  0  0  0  0  0
  191.3040  176.2870  147.7180 C   0  0  0  0  0  3  0  0  0  0  0  0
  192.0550  176.0020  146.4680 C   0  0  0  0  0  3  0  0  0  0  0  0
  191.5430  176.6040  145.4330 N   0  0  0  0  0  0  0  0  0  0  0  0
  189.0650  177.2910  147.8100 N   0  0  0  0  0  0  0  0  0  0  0  0
  190.4840  177.3690  145.9740 C   0  0  0  0  0  0  0  0  0  0  0  0
  183.2780  179.4840  139.0920 C   0  0  0  0  0  0  0  0  0  0  0  0
  186.2180  179.0990  140.8910 N   0  0  0  0  0  2  0  0  0  0  0  0
  184.1130  179.8760  140.0200 O   0  0  0  0  0  0  0  0  0  0  0  0
  183.7580  178.3390  138.4960 C   0  0  0  0  0  3  0  0  0  0  0  0
  184.9290  178.0330  139.0950 N   0  0  0  0  0  0  0  0  0  0  0  0
  185.0890  179.0030  140.0180 C   0  0  0  0  0  0  0  0  0  0  0  0
  182.0120  180.1830  138.7460 C   0  0  0  0  0  1  0  0  0  0  0  0
  1 10  1  0  0  0  0
  1  7  2  0  0  0  0
  2  5  2  0  0  0  0
  2  9  1  0  0  0  0
  3 12  1  0  0  0  0
  3 11  1  0  0  0  0
  4 16  1  0  0  0  0
  5  6  1  0  0  0  0
  6  4  2  0  0  0  0
  7  5  1  0  0  0  0
  8 14  1  0  0  0  0
  9  4  1  0  0  0  0
 10  2  1  0  0  0  0
 11  1  1  0  0  0  0
 12  8  1  0  0  0  0
 14 10  1  0  0  0  0
 14 13  2  0  0  0  0
 15 18  2  0  0  0  0
 15 21  1  0  0  0  0
 16 22  2  0  0  0  0
 16 17  1  0  0  0  0
 17 21  2  0  0  0  0
 19 18  1  0  0  0  0
 20 22  1  0  0  0  0
 20 19  2  0  0  0  0
 22 15  1  0  0  0  0
 23 25  1  0  0  0  0
 24  7  1  0  0  0  0
 26 23  2  0  0  0  0
 26 27  1  0  0  0  0
 27 28  2  0  0  0  0
 28 25  1  0  0  0  0
 28 24  1  0  0  0  0
 29 23  1  0  0  0  0
M  END
>  <MODEL>
5

>  <REMARK>
 VINA RESULT:      -8.4      2.269      6.510
  Name = 
  2 active torsions:
  status: ('A' for Active; 'I' for Inactive)
    1  A    between atoms: C_3  and  C_6
    2  A    between atoms: C_10  and  N_15
                            x       y       z     vdW  Elec       q    Type
                         _______ _______ _______ _____ _____    ______ ____

>  <TORSDO>
F 2

$$$$
=
 OpenBabel10222421073D

 29 34  0  0  1  0  0  0  0  0999 V2000
  188.1710  177.7300  143.8200 C   0  0  0  0  0  0  0  0  0  0  0  0
  189.4970  178.1180  142.1680 C   0  0  0  0  0  0  0  0  0  0  0  0
  188.3120  177.6810  146.1910 O   0  0  0  0  0  0  0  0  0  0  0  0
  189.7280  177.5030  140.1030 C   0  0  0  0  0  0  0  0  0  0  0  0
  188.2500  178.2500  141.6680 C   0  0  1  0  0  3  0  0  0  0  0  0
  188.2570  177.8160  140.2480 C   0  0  0  0  0  3  0  0  0  0  0  0
  187.3780  177.9780  142.7060 C   0  0  0  0  0  0  0  0  0  0  0  0
  190.6460  177.4920  145.7520 C   0  0  0  0  0  2  0  0  0  0  0  0
  190.4150  177.6460  141.1990 N   0  0  0  0  0  0  0  0  0  0  0  0
  189.4860  177.7930  143.4780 N   0  0  0  0  0  0  0  0  0  0  0  0
  187.6550  177.1280  145.0910 C   0  0  0  0  0  2  0  0  0  0  0  0
  189.4250  176.8610  146.4000 C   0  0  0  0  0  2  0  0  0  0  0  0
  191.6650  176.9630  143.6800 O   0  0  0  0  0  0  0  0  0  0  0  0
  190.6220  177.3690  144.2580 C   0  0  0  0  0  0  0  0  0  0  0  0
  190.5710  176.5630  136.7200 C   0  0  0  0  0  0  0  0  0  0  0  0
  190.3280  177.0140  138.8550 C   0  0  0  0  0  0  0  0  0  0  0  0
  190.9300  175.6770  138.6490 C   0  0  0  0  0  3  0  0  0  0  0  0
  189.7450  176.6120  135.6890 C   0  0  0  0  0  3  0  0  0  0  0  0
  188.8800  177.7880  135.9660 C   0  0  0  0  0  3  0  0  0  0  0  0
  189.1060  178.3040  137.1410 N   0  0  0  0  0  0  0  0  0  0  0  0
  191.0510  175.4030  137.3800 N   0  0  0  0  0  0  0  0  0  0  0  0
  190.1800  177.5380  137.6490 C   0  0  0  0  0  0  0  0  0  0  0  0
  182.9650  178.9800  143.6230 C   0  0  0  0  0  0  0  0  0  0  0  0
  185.9920  177.6330  142.5970 N   0  0  0  0  0  2  0  0  0  0  0  0
  183.6570  178.1250  142.9160 O   0  0  0  0  0  0  0  0  0  0  0  0
  183.8240  179.7810  144.3430 C   0  0  0  0  0  3  0  0  0  0  0  0
  185.0820  179.3870  144.0530 N   0  0  0  0  0  0  0  0  0  0  0  0
  184.9160  178.3780  143.1740 C   0  0  0  0  0  0  0  0  0  0  0  0
  181.4800  179.0580  143.6360 C   0  0  0  0  0  1  0  0  0  0  0  0
  1 11  1  0  0  0  0
  2 10  1  0  0  0  0
  3 12  1  0  0  0  0
  4  6  2  0  0  0  0
  4  9  1  0  0  0  0
  5  6  1  6  0  0  0
  5  2  1  0  0  0  0
  5  7  1  0  0  0  0
  7  1  2  0  0  0  0
  8 12  1  0  0  0  0
  9  2  2  0  0  0  0
 10  1  1  0  0  0  0
 10 14  1  0  0  0  0
 11  3  1  0  0  0  0
 13 14  2  0  0  0  0
 14  8  1  0  0  0  0
 15 21  1  0  0  0  0
 15 22  1  0  0  0  0
 16  4  1  0  0  0  0
 17 16  1  0  0  0  0
 18 19  1  0  0  0  0
 18 15  2  0  0  0  0
 19 20  2  0  0  0  0
 20 22  1  0  0  0  0
 21 17  2  0  0  0  0
 22 16  2  0  0  0  0
 23 29  1  0  0  0  0
 23 26  2  0  0  0  0
 24  7  1  0  0  0  0
 24 28  1  0  0  0  0
 25 28  1  0  0  0  0
 25 23  1  0  0  0  0
 27 26  1  0  0  0  0
 28 27  2  0  0  0  0
M  END
>  <MODEL>
6

>  <REMARK>
 VINA RESULT:      -8.3      2.154      7.437
  Name = 
  2 active torsions:
  status: ('A' for Active; 'I' for Inactive)
    1  A    between atoms: C_3  and  C_6
    2  A    between atoms: C_10  and  N_15
                            x       y       z     vdW  Elec       q    Type
                         _______ _______ _______ _____ _____    ______ ____

>  <TORSDO>
F 2

$$$$
=
 OpenBabel10222421073D

 29 34  0  0  1  0  0  0  0  0999 V2000
  187.9340  177.8420  141.8030 C   0  0  0  0  0  0  0  0  0  0  0  0
  186.4300  178.9270  140.7080 C   0  0  0  0  0  0  0  0  0  0  0  0
  190.2300  177.2930  141.5290 O   0  0  0  0  0  0  0  0  0  0  0  0
  184.2810  178.8790  140.4370 C   0  0  0  0  0  0  0  0  0  0  0  0
  185.9650  178.8390  141.9720 C   0  0  1  0  0  3  0  0  0  0  0  0
  184.4830  178.7570  141.9290 C   0  0  0  0  0  3  0  0  0  0  0  0
  186.9020  178.1210  142.6890 C   0  0  0  0  0  0  0  0  0  0  0  0
  189.7800  177.8230  139.2500 C   0  0  0  0  0  2  0  0  0  0  0  0
  185.3860  178.9430  139.7530 N   0  0  0  0  0  0  0  0  0  0  0  0
  187.6280  178.3200  140.5670 N   0  0  0  0  0  0  0  0  0  0  0  0
  189.0250  176.8530  142.0800 C   0  0  0  0  0  2  0  0  0  0  0  0
  190.2510  176.7660  140.2340 C   0  0  0  0  0  2  0  0  0  0  0  0
  187.6500  178.0630  138.2410 O   0  0  0  0  0  0  0  0  0  0  0  0
  188.2980  178.0410  139.3210 C   0  0  0  0  0  0  0  0  0  0  0  0
  181.1030  179.5840  138.8740 C   0  0  0  0  0  0  0  0  0  0  0  0
  182.9580  178.8610  139.7980 C   0  0  0  0  0  0  0  0  0  0  0  0
  181.7850  178.0850  140.2610 C   0  0  0  0  0  3  0  0  0  0  0  0
  180.5620  180.7840  138.7590 C   0  0  0  0  0  3  0  0  0  0  0  0
  181.7230  181.6950  138.5830 C   0  0  0  0  0  3  0  0  0  0  0  0
  182.8630  181.0790  138.7190 N   0  0  0  0  0  0  0  0  0  0  0  0
  180.6820  178.5320  139.7270 N   0  0  0  0  0  0  0  0  0  0  0  0
  182.4970  179.7260  138.9100 C   0  0  0  0  0  0  0  0  0  0  0  0
  188.2300  177.4460  147.0610 C   0  0  0  0  0  0  0  0  0  0  0  0
  186.7040  177.4610  143.9460 N   0  0  0  0  0  2  0  0  0  0  0  0
  187.2380  177.1290  146.2700 O   0  0  0  0  0  0  0  0  0  0  0  0
  189.1790  178.1460  146.3480 C   0  0  0  0  0  3  0  0  0  0  0  0
  188.7330  178.2530  145.0790 N   0  0  0  0  0  0  0  0  0  0  0  0
  187.5430  177.6180  145.0940 C   0  0  0  0  0  0  0  0  0  0  0  0
  188.3060  177.0920  148.5030 C   0  0  0  0  0  1  0  0  0  0  0  0
  1 11  1  0  0  0  0
  1  7  2  0  0  0  0
  2  5  1  0  0  0  0
  3 11  1  0  0  0  0
  4  6  2  0  0  0  0
  5  6  1  6  0  0  0
  5  7  1  0  0  0  0
  7 24  1  0  0  0  0
  8 14  1  0  0  0  0
  8 12  1  0  0  0  0
  9  4  1  0  0  0  0
  9  2  2  0  0  0  0
 10  2  1  0  0  0  0
 10  1  1  0  0  0  0
 12  3  1  0  0  0  0
 13 14  2  0  0  0  0
 14 10  1  0  0  0  0
 15 22  1  0  0  0  0
 15 21  1  0  0  0  0
 16 17  1  0  0  0  0
 16  4  1  0  0  0  0
 18 15  2  0  0  0  0
 19 20  2  0  0  0  0
 19 18  1  0  0  0  0
 20 22  1  0  0  0  0
 21 17  2  0  0  0  0
 22 16  2  0  0  0  0
 23 29  1  0  0  0  0
 24 28  1  0  0  0  0
 25 23  1  0  0  0  0
 26 23  2  0  0  0  0
 27 28  2  0  0  0  0
 27 26  1  0  0  0  0
 28 25  1  0  0  0  0
M  END
>  <MODEL>
7

>  <REMARK>
 VINA RESULT:      -8.3      2.746      3.756
  Name = 
  2 active torsions:
  status: ('A' for Active; 'I' for Inactive)
    1  A    between atoms: C_3  and  C_6
    2  A    between atoms: C_10  and  N_15
                            x       y       z     vdW  Elec       q    Type
                         _______ _______ _______ _____ _____    ______ ____

>  <TORSDO>
F 2

$$$$
=
 OpenBabel10222421073D

 29 34  0  0  1  0  0  0  0  0999 V2000
  187.5860  177.7250  145.3150 C   0  0  0  0  0  0  0  0  0  0  0  0
  188.3180  176.9760  143.4330 C   0  0  0  0  0  0  0  0  0  0  0  0
  185.4770  178.2330  146.2850 O   0  0  0  0  0  0  0  0  0  0  0  0
  190.0870  177.1670  142.1970 C   0  0  0  0  0  0  0  0  0  0  0  0
  189.3260  176.7920  144.3120 C   0  0  1  0  0  3  0  0  0  0  0  0
  190.6170  176.9390  143.5940 C   0  0  0  0  0  3  0  0  0  0  0  0
  188.8890  177.2920  145.5240 C   0  0  0  0  0  0  0  0  0  0  0  0
  184.7680  178.2530  144.0100 C   0  0  0  0  0  2  0  0  0  0  0  0
  188.7890  177.2180  142.1210 N   0  0  0  0  0  0  0  0  0  0  0  0
  187.2420  177.5520  144.0100 N   0  0  0  0  0  0  0  0  0  0  0  0
  186.8290  178.5820  146.2830 C   0  0  0  0  0  2  0  0  0  0  0  0
  184.8920  179.0400  145.3040 C   0  0  0  0  0  2  0  0  0  0  0  0
  186.1540  178.3300  142.0900 O   0  0  0  0  0  0  0  0  0  0  0  0
  186.0900  178.0810  143.3240 C   0  0  0  0  0  0  0  0  0  0  0  0
  191.8220  177.1280  139.0300 C   0  0  0  0  0  0  0  0  0  0  0  0
  190.9550  177.3800  141.0310 C   0  0  0  0  0  0  0  0  0  0  0  0
  192.4300  177.5030  141.0610 C   0  0  0  0  0  3  0  0  0  0  0  0
  191.6800  176.2020  138.0970 C   0  0  0  0  0  3  0  0  0  0  0  0
  190.2550  175.7950  138.1960 C   0  0  0  0  0  3  0  0  0  0  0  0
  189.6480  176.3540  139.2050 N   0  0  0  0  0  0  0  0  0  0  0  0
  192.9440  177.3290  139.8750 N   0  0  0  0  0  0  0  0  0  0  0  0
  190.6280  177.2090  139.7600 C   0  0  0  0  0  0  0  0  0  0  0  0
  192.4310  176.3320  148.3280 C   0  0  0  0  0  0  0  0  0  0  0  0
  189.7000  177.6560  146.6470 N   0  0  0  0  0  2  0  0  0  0  0  0
  191.5980  177.3120  148.0880 O   0  0  0  0  0  0  0  0  0  0  0  0
  192.1090  175.2530  147.5350 C   0  0  0  0  0  3  0  0  0  0  0  0
  191.0400  175.6040  146.7890 N   0  0  0  0  0  0  0  0  0  0  0  0
  190.7780  176.8720  147.1670 C   0  0  0  0  0  0  0  0  0  0  0  0
  193.5440  176.3920  149.3110 C   0  0  0  0  0  1  0  0  0  0  0  0
  1  7  2  0  0  0  0
  1 11  1  0  0  0  0
  2 10  1  0  0  0  0
  2  5  1  0  0  0  0
  4  6  2  0  0  0  0
  5  6  1  6  0  0  0
  5  7  1  0  0  0  0
  7 24  1  0  0  0  0
  8 12  1  0  0  0  0
  9  4  1  0  0  0  0
  9  2  2  0  0  0  0
 10  1  1  0  0  0  0
 11  3  1  0  0  0  0
 12  3  1  0  0  0  0
 13 14  2  0  0  0  0
 14 10  1  0  0  0  0
 14  8  1  0  0  0  0
 15 22  1  0  0  0  0
 15 21  1  0  0  0  0
 16 17  1  0  0  0  0
 16  4  1  0  0  0  0
 18 19  1  0  0  0  0
 18 15  2  0  0  0  0
 19 20  2  0  0  0  0
 20 22  1  0  0  0  0
 21 17  2  0  0  0  0
 22 16  2  0  0  0  0
 23 29  1  0  0  0  0
 24 28  1  0  0  0  0
 25 23  1  0  0  0  0
 26 23  2  0  0  0  0
 27 28  2  0  0  0  0
 27 26  1  0  0  0  0
 28 25  1  0  0  0  0
M  END
>  <MODEL>
8

>  <REMARK>
 VINA RESULT:      -8.2      2.678      6.666
  Name = 
  2 active torsions:
  status: ('A' for Active; 'I' for Inactive)
    1  A    between atoms: C_3  and  C_6
    2  A    between atoms: C_10  and  N_15
                            x       y       z     vdW  Elec       q    Type
                         _______ _______ _______ _____ _____    ______ ____

>  <TORSDO>
F 2

$$$$
=
 OpenBabel10222421073D

 29 34  0  0  0  0  0  0  0  0999 V2000
  183.9860  178.7860  140.9340 C   0  0  0  0  0  0  0  0  0  0  0  0
  185.1540  179.0680  142.7210 C   0  0  0  0  0  0  0  0  0  0  0  0
  181.7640  179.2290  140.2170 O   0  0  0  0  0  0  0  0  0  0  0  0
  186.8100  178.1090  143.7360 C   0  0  0  0  0  0  0  0  0  0  0  0
  186.0510  178.8780  141.7300 C   0  0  0  0  0  0  0  0  0  0  0  0
  187.2370  178.1820  142.2880 C   0  0  0  0  0  3  0  0  0  0  0  0
  185.3230  178.6660  140.5750 C   0  0  0  0  0  0  0  0  0  0  0  0
  181.3530  179.3700  142.5600 C   0  0  0  0  0  2  0  0  0  0  0  0
  185.6200  178.5830  143.9660 N   0  0  0  0  0  2  0  0  0  0  0  0
  183.8820  179.0100  142.2710 N   0  0  0  0  0  0  0  0  0  0  0  0
  182.8480  178.3640  140.0550 C   0  0  0  0  0  2  0  0  0  0  0  0
  181.0080  178.6750  141.2540 C   0  0  0  0  0  2  0  0  0  0  0  0
  182.7800  178.6320  144.3010 O   0  0  0  0  0  0  0  0  0  0  0  0
  182.6940  178.9540  143.0860 C   0  0  0  0  0  0  0  0  0  0  0  0
  188.5410  177.1490  146.7570 C   0  0  0  0  0  0  0  0  0  0  0  0
  187.6330  177.4970  144.7890 C   0  0  0  0  0  0  0  0  0  0  0  0
  189.0630  177.1360  144.6680 C   0  0  0  0  0  3  0  0  0  0  0  0
  188.5680  177.8540  147.8740 C   0  0  0  0  0  3  0  0  0  0  0  0
  187.2360  178.5100  147.9280 C   0  0  0  0  0  3  0  0  0  0  0  0
  186.5360  178.3010  146.8500 N   0  0  0  0  0  0  0  0  0  0  0  0
  189.6050  176.9520  145.8400 N   0  0  0  0  0  0  0  0  0  0  0  0
  187.3480  177.4360  146.0790 C   0  0  0  0  0  0  0  0  0  0  0  0
  188.8220  177.7580  137.7020 C   0  0  0  0  0  0  0  0  0  0  0  0
  185.7920  178.0690  139.3600 N   0  0  0  0  0  2  0  0  0  0  0  0
  187.5640  177.4380  137.8570 O   0  0  0  0  0  0  0  0  0  0  0  0
  189.1820  178.6820  138.6580 C   0  0  0  0  0  3  0  0  0  0  0  0
  188.0930  178.9230  139.4170 N   0  0  0  0  0  0  0  0  0  0  0  0
  187.1390  178.1320  138.8840 C   0  0  0  0  0  0  0  0  0  0  0  0
  189.7110  177.2020  136.6470 C   0  0  0  0  0  1  0  0  0  0  0  0
  1 10  1  0  0  0  0
  2  9  1  0  0  0  0
  3 12  1  0  0  0  0
  4  9  1  0  0  0  0
  4 16  1  0  0  0  0
  5  6  1  0  0  0  0
  5  2  2  0  0  0  0
  6  4  2  0  0  0  0
  7  1  2  0  0  0  0
  7  5  1  0  0  0  0
  8 14  1  0  0  0  0
 10  2  1  0  0  0  0
 10 14  1  0  0  0  0
 11  3  1  0  0  0  0
 11  1  1  0  0  0  0
 12  8  1  0  0  0  0
 14 13  2  0  0  0  0
 15 18  1  0  0  0  0
 16 22  1  0  0  0  0
 17 16  2  0  0  0  0
 17 21  1  0  0  0  0
 18 19  2  0  0  0  0
 20 19  1  0  0  0  0
 21 15  2  0  0  0  0
 22 15  1  0  0  0  0
 22 20  2  0  0  0  0
 23 25  1  0  0  0  0
 23 26  2  0  0  0  0
 24  7  1  0  0  0  0
 25 28  1  0  0  0  0
 26 27  1  0  0  0  0
 28 24  1  0  0  0  0
 28 27  2  0  0  0  0
 29 23  1  0  0  0  0
M  END
>  <MODEL>
9

>  <REMARK>
 VINA RESULT:      -8.0      2.741      6.565
  Name = 
  2 active torsions:
  status: ('A' for Active; 'I' for Inactive)
    1  A    between atoms: C_3  and  C_6
    2  A    between atoms: C_10  and  N_15
                            x       y       z     vdW  Elec       q    Type
                         _______ _______ _______ _____ _____    ______ ____

>  <TORSDO>
F 2

$$$$
