=
 OpenBabel10222416253D

 38 43  0  0  1  0  0  0  0  0999 V2000
  184.4510  179.0570  142.2150 C   0  0  0  0  0  0  0  0  0  0  0  0
  183.8770  177.8790  137.9430 C   0  0  0  0  0  3  0  0  0  0  0  0
  185.3040  178.9900  141.1570 N   0  0  0  0  0  0  0  0  0  0  0  0
  183.1720  178.7160  141.8990 N   0  0  0  0  0  0  0  0  0  0  0  0
  184.8930  178.3070  138.8160 C   0  0  0  0  0  3  0  0  0  0  0  0
  184.5330  178.5710  140.1400 C   0  0  0  0  0  0  0  0  0  0  0  0
  182.2230  178.0030  139.7480 C   0  0  0  0  0  3  0  0  0  0  0  0
  181.5610  177.3020  137.5280 O   0  0  0  0  0  1  0  0  0  0  0  0
  182.5470  177.7290  138.4050 C   0  0  0  0  0  0  0  0  0  0  0  0
  183.2540  178.4190  140.5880 C   0  0  0  0  0  0  0  0  0  0  0  0
  185.0330  178.2310  144.4440 N   0  0  1  0  0  0  0  0  0  0  0  0
  183.8380  179.0770  144.5600 C   0  0  0  0  0  2  0  0  0  0  0  0
  184.8840  179.4300  143.6020 C   0  0  2  0  0  3  0  0  0  0  0  0
  185.9170  178.6070  145.5280 C   0  0  1  0  0  3  0  0  0  0  0  0
  185.6130  177.8410  146.6640 O   0  0  0  0  0  0  0  0  0  0  0  0
  186.7460  177.4430  145.9270 C   0  0  2  0  0  3  0  0  0  0  0  0
  188.4710  177.1280  147.7810 C   0  0  0  0  0  2  0  0  0  0  0  0
  189.0750  177.9500  145.6130 O   0  0  0  0  0  0  0  0  0  0  0  0
  189.9950  176.9570  145.9960 C   0  0  2  0  0  3  0  0  0  0  0  0
  189.8830  176.7440  147.4840 C   0  0  0  0  0  2  0  0  0  0  0  0
  188.0410  177.9420  146.5720 C   0  0  1  0  0  3  0  0  0  0  0  0
  191.4040  177.3970  145.6610 C   0  0  0  0  0  2  0  0  0  0  0  0
  191.5610  177.4770  144.2170 N   0  0  0  0  0  2  0  0  0  0  0  0
  191.5360  176.1140  143.7180 C   0  0  0  0  0  1  0  0  0  0  0  0
  187.4520  178.0850  141.9380 C   0  0  0  0  0  2  0  0  0  0  0  0
  186.7530  179.1950  141.1740 C   0  0  1  0  0  3  0  0  0  0  0  0
  187.4260  178.0600  140.4280 C   0  0  1  0  0  3  0  0  0  0  0  0
  188.7540  178.5440  139.8790 C   0  0  0  0  0  2  0  0  0  0  0  0
  190.4160  176.3220  138.8290 C   0  0  0  0  0  1  0  0  0  0  0  0
  188.8200  178.2250  138.4220 C   0  0  0  0  0  0  0  0  0  0  0  0
  188.2140  178.9690  137.6030 O   0  0  0  0  0  0  0  0  0  0  0  0
  189.5010  177.0460  137.9580 N   0  0  0  0  0  0  0  0  0  0  0  0
  189.1450  176.4450  136.6780 C   0  0  0  0  0  2  0  0  0  0  0  0
  188.4410  175.1180  136.9000 C   0  0  0  0  0  2  0  0  0  0  0  0
  186.5590  172.9570  137.3330 O   0  0  0  0  0  0  0  0  0  0  0  0
  184.8790  174.5070  137.3840 O   0  0  0  0  0  1  0  0  0  0  0  0
  186.1050  174.2670  137.2670 C   0  0  0  0  0  0  0  0  0  0  0  0
  187.0210  175.3430  137.0900 N   0  0  0  0  0  2  0  0  0  0  0  0
  2  9  2  0  0  0  0
  2  5  1  0  0  0  0
  3  1  1  0  0  0  0
  4  1  2  0  0  0  0
  5  6  2  0  0  0  0
  6 10  1  0  0  0  0
  6  3  1  0  0  0  0
  7 10  2  0  0  0  0
  8  9  1  0  0  0  0
  9  7  1  0  0  0  0
 10  4  1  0  0  0  0
 11 12  1  1  0  0  0
 11 14  1  0  0  0  0
 13  1  1  6  0  0  0
 13 11  1  0  0  0  0
 13 12  1  0  0  0  0
 14 16  1  0  0  0  0
 14 15  1  1  0  0  0
 16 21  1  0  0  0  0
 16 15  1  1  0  0  0
 18 19  1  0  0  0  0
 18 21  1  0  0  0  0
 19 22  1  1  0  0  0
 19 20  1  0  0  0  0
 20 17  1  0  0  0  0
 21 17  1  1  0  0  0
 23 22  1  0  0  0  0
 24 23  1  0  0  0  0
 26  3  1  1  0  0  0
 26 25  1  0  0  0  0
 27 28  1  6  0  0  0
 27 26  1  0  0  0  0
 27 25  1  0  0  0  0
 30 28  1  0  0  0  0
 31 30  2  0  0  0  0
 32 30  1  0  0  0  0
 32 29  1  0  0  0  0
 33 34  1  0  0  0  0
 33 32  1  0  0  0  0
 34 38  1  0  0  0  0
 37 35  2  0  0  0  0
 37 36  1  0  0  0  0
 38 37  1  0  0  0  0
M  END
>  <MODEL>
1

>  <REMARK>
 VINA RESULT:      -7.5      0.000      0.000
  Name = 
  11 active torsions:
  status: ('A' for Active; 'I' for Inactive)
    1  A    between atoms: C_1  and  C_36
    2  A    between atoms: N_2  and  C_3
    3  A    between atoms: N_6  and  C_23
    4  A    between atoms: C_8  and  C_17
    5  A    between atoms: C_8  and  C_29
    6  A    between atoms: C_12  and  C_27
    7  A    between atoms: C_12  and  N_34
    8  A    between atoms: N_16  and  C_38
    9  A    between atoms: C_22  and  C_38
   10  A    between atoms: C_27  and  N_37
   11  A    between atoms: C_30  and  C_35
                            x       y       z     vdW  Elec       q    Type
                         _______ _______ _______ _____ _____    ______ ____

>  <TORSDO>
F 11

$$$$
=
 OpenBabel10222416253D

 38 43  0  0  1  0  0  0  0  0999 V2000
  184.3080  179.0830  142.2380 C   0  0  0  0  0  0  0  0  0  0  0  0
  183.7330  177.8410  137.9840 C   0  0  0  0  0  3  0  0  0  0  0  0
  185.1600  179.0010  141.1800 N   0  0  0  0  0  0  0  0  0  0  0  0
  183.0290  178.7360  141.9270 N   0  0  0  0  0  0  0  0  0  0  0  0
  184.7490  178.2830  138.8500 C   0  0  0  0  0  3  0  0  0  0  0  0
  184.3890  178.5660  140.1700 C   0  0  0  0  0  0  0  0  0  0  0  0
  182.0800  177.9900  139.7870 C   0  0  0  0  0  3  0  0  0  0  0  0
  181.4180  177.2550  137.5780 O   0  0  0  0  0  1  0  0  0  0  0  0
  182.4040  177.6960  138.4490 C   0  0  0  0  0  0  0  0  0  0  0  0
  183.1100  178.4200  140.6210 C   0  0  0  0  0  0  0  0  0  0  0  0
  184.8580  178.2940  144.4870 N   0  0  1  0  0  0  0  0  0  0  0  0
  183.6820  179.1690  144.5770 C   0  0  0  0  0  2  0  0  0  0  0  0
  184.7410  179.4780  143.6180 C   0  0  2  0  0  3  0  0  0  0  0  0
  185.7440  178.6750  145.5690 C   0  0  1  0  0  3  0  0  0  0  0  0
  185.4050  177.9540  146.7240 O   0  0  0  0  0  0  0  0  0  0  0  0
  186.5320  177.4970  146.0110 C   0  0  2  0  0  3  0  0  0  0  0  0
  188.2690  177.1360  147.8450 C   0  0  0  0  0  2  0  0  0  0  0  0
  188.8620  177.9900  145.6860 O   0  0  0  0  0  0  0  0  0  0  0  0
  189.7770  176.9830  146.0440 C   0  0  2  0  0  3  0  0  0  0  0  0
  189.6750  176.7450  147.5290 C   0  0  0  0  0  2  0  0  0  0  0  0
  187.8360  177.9740  146.6540 C   0  0  1  0  0  3  0  0  0  0  0  0
  191.1860  177.4170  145.7040 C   0  0  0  0  0  2  0  0  0  0  0  0
  191.4140  177.2680  144.2760 N   0  0  0  0  0  2  0  0  0  0  0  0
  191.5850  178.6050  143.7380 C   0  0  0  0  0  1  0  0  0  0  0  0
  187.3130  178.0870  141.9370 C   0  0  0  0  0  2  0  0  0  0  0  0
  186.6090  179.2080  141.1930 C   0  0  1  0  0  3  0  0  0  0  0  0
  187.2800  178.0850  140.4280 C   0  0  1  0  0  3  0  0  0  0  0  0
  188.6050  178.5790  139.8790 C   0  0  0  0  0  2  0  0  0  0  0  0
  191.0800  176.9420  139.8480 C   0  0  0  0  0  1  0  0  0  0  0  0
  188.9850  177.7400  138.7050 C   0  0  0  0  0  0  0  0  0  0  0  0
  188.2760  177.7870  137.6620 O   0  0  0  0  0  0  0  0  0  0  0  0
  190.0990  176.8330  138.7780 N   0  0  0  0  0  0  0  0  0  0  0  0
  190.1650  175.6740  137.8970 C   0  0  0  0  0  2  0  0  0  0  0  0
  191.5870  175.1430  137.8340 C   0  0  0  0  0  2  0  0  0  0  0  0
  194.4540  175.5040  138.0660 O   0  0  0  0  0  1  0  0  0  0  0  0
  194.3790  176.8330  136.2080 O   0  0  0  0  0  0  0  0  0  0  0  0
  193.7610  176.1160  137.0320 C   0  0  0  0  0  0  0  0  0  0  0  0
  192.3580  175.9210  136.8830 N   0  0  0  0  0  2  0  0  0  0  0  0
  2  9  2  0  0  0  0
  2  5  1  0  0  0  0
  3  1  1  0  0  0  0
  4  1  2  0  0  0  0
  5  6  2  0  0  0  0
  6 10  1  0  0  0  0
  6  3  1  0  0  0  0
  7 10  2  0  0  0  0
  8  9  1  0  0  0  0
  9  7  1  0  0  0  0
 10  4  1  0  0  0  0
 11 12  1  1  0  0  0
 11 14  1  0  0  0  0
 13  1  1  6  0  0  0
 13 11  1  0  0  0  0
 13 12  1  0  0  0  0
 14 16  1  0  0  0  0
 14 15  1  1  0  0  0
 16 21  1  0  0  0  0
 16 15  1  1  0  0  0
 18 19  1  0  0  0  0
 18 21  1  0  0  0  0
 19 22  1  1  0  0  0
 19 20  1  0  0  0  0
 20 17  1  0  0  0  0
 21 17  1  1  0  0  0
 23 22  1  0  0  0  0
 24 23  1  0  0  0  0
 26  3  1  1  0  0  0
 26 25  1  0  0  0  0
 27 28  1  6  0  0  0
 27 26  1  0  0  0  0
 27 25  1  0  0  0  0
 30 32  1  0  0  0  0
 30 28  1  0  0  0  0
 31 30  2  0  0  0  0
 32 29  1  0  0  0  0
 33 32  1  0  0  0  0
 34 33  1  0  0  0  0
 36 37  2  0  0  0  0
 37 35  1  0  0  0  0
 38 37  1  0  0  0  0
 38 34  1  0  0  0  0
M  END
>  <MODEL>
2

>  <REMARK>
 VINA RESULT:      -7.4      1.896      2.729
  Name = 
  11 active torsions:
  status: ('A' for Active; 'I' for Inactive)
    1  A    between atoms: C_1  and  C_36
    2  A    between atoms: N_2  and  C_3
    3  A    between atoms: N_6  and  C_23
    4  A    between atoms: C_8  and  C_17
    5  A    between atoms: C_8  and  C_29
    6  A    between atoms: C_12  and  C_27
    7  A    between atoms: C_12  and  N_34
    8  A    between atoms: N_16  and  C_38
    9  A    between atoms: C_22  and  C_38
   10  A    between atoms: C_27  and  N_37
   11  A    between atoms: C_30  and  C_35
                            x       y       z     vdW  Elec       q    Type
                         _______ _______ _______ _____ _____    ______ ____

>  <TORSDO>
F 11

$$$$
=
 OpenBabel10222416253D

 38 43  0  0  1  0  0  0  0  0999 V2000
  189.0640  177.1830  143.2340 C   0  0  0  0  0  0  0  0  0  0  0  0
  189.6670  177.0840  147.6600 C   0  0  0  0  0  3  0  0  0  0  0  0
  188.1950  177.1990  144.2810 N   0  0  0  0  0  0  0  0  0  0  0  0
  190.3700  177.1490  143.6170 N   0  0  0  0  0  0  0  0  0  0  0  0
  188.6280  177.1260  146.7140 C   0  0  0  0  0  3  0  0  0  0  0  0
  188.9870  177.1540  145.3650 C   0  0  0  0  0  0  0  0  0  0  0  0
  191.3430  177.1000  145.8720 C   0  0  0  0  0  3  0  0  0  0  0  0
  192.0300  177.0270  148.1910 O   0  0  0  0  0  1  0  0  0  0  0  0
  191.0200  177.0720  147.2420 C   0  0  0  0  0  0  0  0  0  0  0  0
  190.2900  177.1350  144.9610 C   0  0  0  0  0  0  0  0  0  0  0  0
  189.7360  177.5460  140.9090 N   0  0  1  0  0  0  0  0  0  0  0  0
  188.6840  178.5140  141.2450 C   0  0  0  0  0  2  0  0  0  0  0  0
  188.6260  177.1630  141.7990 C   0  0  2  0  0  3  0  0  0  0  0  0
  189.4080  177.0110  139.6030 C   0  0  1  0  0  3  0  0  0  0  0  0
  189.8480  177.9000  138.6110 O   0  0  0  0  0  0  0  0  0  0  0  0
  190.6530  176.7640  138.8350 C   0  0  2  0  0  3  0  0  0  0  0  0
  190.4660  176.1810  136.3570 C   0  0  0  0  0  2  0  0  0  0  0  0
  191.3140  174.6220  137.9670 O   0  0  0  0  0  0  0  0  0  0  0  0
  192.1650  174.6290  136.8480 C   0  0  2  0  0  3  0  0  0  0  0  0
  191.4370  175.2630  135.6910 C   0  0  0  0  0  2  0  0  0  0  0  0
  190.3950  175.6770  137.7890 C   0  0  1  0  0  3  0  0  0  0  0  0
  192.5500  173.2120  136.4790 C   0  0  0  0  0  2  0  0  0  0  0  0
  193.9940  173.1180  136.3350 N   0  0  0  0  0  2  0  0  0  0  0  0
  194.5690  173.6000  137.5780 C   0  0  0  0  0  1  0  0  0  0  0  0
  186.1080  178.0260  145.2810 C   0  0  0  0  0  2  0  0  0  0  0  0
  186.7340  177.1380  144.2200 C   0  0  1  0  0  3  0  0  0  0  0  0
  186.1930  178.5050  143.8510 C   0  0  1  0  0  3  0  0  0  0  0  0
  184.8490  178.3400  143.1680 C   0  0  0  0  0  2  0  0  0  0  0  0
  183.1350  177.3410  140.9620 C   0  0  0  0  0  1  0  0  0  0  0  0
  184.9390  178.8910  141.7840 C   0  0  0  0  0  0  0  0  0  0  0  0
  185.8240  179.7520  141.5220 O   0  0  0  0  0  0  0  0  0  0  0  0
  183.9880  178.5060  140.7760 N   0  0  0  0  0  0  0  0  0  0  0  0
  183.7260  179.3780  139.6380 C   0  0  0  0  0  2  0  0  0  0  0  0
  183.9310  178.6180  138.3380 C   0  0  0  0  0  2  0  0  0  0  0  0
  184.9240  176.9550  136.1820 O   0  0  0  0  0  0  0  0  0  0  0  0
  187.0350  177.2430  137.0100 O   0  0  0  0  0  1  0  0  0  0  0  0
  185.8090  177.4910  137.1070 C   0  0  0  0  0  0  0  0  0  0  0  0
  185.3420  178.3390  138.1510 N   0  0  0  0  0  2  0  0  0  0  0  0
  1  4  2  0  0  0  0
  1  3  1  0  0  0  0
  3  6  1  0  0  0  0
  4 10  1  0  0  0  0
  5  2  2  0  0  0  0
  6  5  1  0  0  0  0
  7  9  2  0  0  0  0
  9  2  1  0  0  0  0
  9  8  1  0  0  0  0
 10  6  2  0  0  0  0
 10  7  1  0  0  0  0
 11 12  1  6  0  0  0
 11 13  1  0  0  0  0
 12 13  1  0  0  0  0
 13  1  1  1  0  0  0
 14 15  1  6  0  0  0
 14 11  1  0  0  0  0
 16 15  1  6  0  0  0
 16 14  1  0  0  0  0
 19 22  1  6  0  0  0
 19 18  1  0  0  0  0
 20 17  1  0  0  0  0
 20 19  1  0  0  0  0
 21 17  1  6  0  0  0
 21 18  1  0  0  0  0
 21 16  1  0  0  0  0
 23 22  1  0  0  0  0
 23 24  1  0  0  0  0
 26  3  1  1  0  0  0
 26 25  1  0  0  0  0
 27 28  1  6  0  0  0
 27 26  1  0  0  0  0
 27 25  1  0  0  0  0
 30 28  1  0  0  0  0
 31 30  2  0  0  0  0
 32 29  1  0  0  0  0
 32 30  1  0  0  0  0
 33 32  1  0  0  0  0
 34 33  1  0  0  0  0
 35 37  2  0  0  0  0
 36 37  1  0  0  0  0
 37 38  1  0  0  0  0
 38 34  1  0  0  0  0
M  END
>  <MODEL>
3

>  <REMARK>
 VINA RESULT:      -7.4      2.576      7.857
  Name = 
  11 active torsions:
  status: ('A' for Active; 'I' for Inactive)
    1  A    between atoms: C_1  and  C_36
    2  A    between atoms: N_2  and  C_3
    3  A    between atoms: N_6  and  C_23
    4  A    between atoms: C_8  and  C_17
    5  A    between atoms: C_8  and  C_29
    6  A    between atoms: C_12  and  C_27
    7  A    between atoms: C_12  and  N_34
    8  A    between atoms: N_16  and  C_38
    9  A    between atoms: C_22  and  C_38
   10  A    between atoms: C_27  and  N_37
   11  A    between atoms: C_30  and  C_35
                            x       y       z     vdW  Elec       q    Type
                         _______ _______ _______ _____ _____    ______ ____

>  <TORSDO>
F 11

$$$$
=
 OpenBabel10222416253D

 38 43  0  0  1  0  0  0  0  0999 V2000
  188.9840  177.1820  142.9590 C   0  0  0  0  0  0  0  0  0  0  0  0
  189.5250  177.0140  147.3910 C   0  0  0  0  0  3  0  0  0  0  0  0
  188.1000  177.1760  143.9940 N   0  0  0  0  0  0  0  0  0  0  0  0
  190.2840  177.1510  143.3610 N   0  0  0  0  0  0  0  0  0  0  0  0
  188.4990  177.0660  146.4320 C   0  0  0  0  0  3  0  0  0  0  0  0
  188.8770  177.1190  145.0890 C   0  0  0  0  0  0  0  0  0  0  0  0
  191.2260  177.0700  145.6280 C   0  0  0  0  0  3  0  0  0  0  0  0
  191.8800  176.9640  147.9560 O   0  0  0  0  0  1  0  0  0  0  0  0
  190.8830  177.0180  146.9930 C   0  0  0  0  0  0  0  0  0  0  0  0
  190.1850  177.1140  144.7020 C   0  0  0  0  0  0  0  0  0  0  0  0
  189.7050  177.5190  140.6450 N   0  0  1  0  0  0  0  0  0  0  0  0
  188.6920  178.5320  140.9670 C   0  0  0  0  0  2  0  0  0  0  0  0
  188.5670  177.1840  141.5180 C   0  0  2  0  0  3  0  0  0  0  0  0
  189.3730  177.0000  139.3340 C   0  0  1  0  0  3  0  0  0  0  0  0
  189.9120  177.8420  138.3490 O   0  0  0  0  0  0  0  0  0  0  0  0
  190.6160  176.6470  138.6040 C   0  0  2  0  0  3  0  0  0  0  0  0
  190.4360  176.0640  136.1260 C   0  0  0  0  0  2  0  0  0  0  0  0
  191.1380  174.4580  137.7590 O   0  0  0  0  0  0  0  0  0  0  0  0
  192.0100  174.3970  136.6580 C   0  0  2  0  0  3  0  0  0  0  0  0
  191.3520  175.0750  135.4840 C   0  0  0  0  0  2  0  0  0  0  0  0
  190.3010  175.5750  137.5580 C   0  0  1  0  0  3  0  0  0  0  0  0
  192.2990  172.9550  136.3030 C   0  0  0  0  0  2  0  0  0  0  0  0
  193.7370  172.7380  136.2660 N   0  0  0  0  0  2  0  0  0  0  0  0
  194.3220  173.6480  137.2340 C   0  0  0  0  0  1  0  0  0  0  0  0
  185.9960  178.1980  144.7480 C   0  0  0  0  0  2  0  0  0  0  0  0
  186.6410  177.1070  143.9120 C   0  0  1  0  0  3  0  0  0  0  0  0
  186.1180  178.3680  143.2530 C   0  0  1  0  0  3  0  0  0  0  0  0
  184.7890  178.0670  142.5860 C   0  0  0  0  0  2  0  0  0  0  0  0
  183.0010  177.1940  140.3860 C   0  0  0  0  0  1  0  0  0  0  0  0
  184.7280  178.7900  141.2820 C   0  0  0  0  0  0  0  0  0  0  0  0
  185.5150  179.7550  141.0780 O   0  0  0  0  0  0  0  0  0  0  0  0
  183.7370  178.4470  140.2970 N   0  0  0  0  0  0  0  0  0  0  0  0
  183.3180  179.4250  139.3010 C   0  0  0  0  0  2  0  0  0  0  0  0
  181.8430  179.2510  138.9840 C   0  0  0  0  0  2  0  0  0  0  0  0
  180.2650  179.1390  141.4130 O   0  0  0  0  0  1  0  0  0  0  0  0
  179.6360  181.3040  141.0350 O   0  0  0  0  0  0  0  0  0  0  0  0
  180.2990  180.3060  140.6620 C   0  0  0  0  0  0  0  0  0  0  0  0
  181.0970  180.3890  139.4860 N   0  0  0  0  0  2  0  0  0  0  0  0
  1  4  2  0  0  0  0
  1  3  1  0  0  0  0
  3  6  1  0  0  0  0
  4 10  1  0  0  0  0
  5  2  2  0  0  0  0
  6  5  1  0  0  0  0
  7  9  2  0  0  0  0
  9  2  1  0  0  0  0
  9  8  1  0  0  0  0
 10  6  2  0  0  0  0
 10  7  1  0  0  0  0
 11 12  1  6  0  0  0
 11 13  1  0  0  0  0
 12 13  1  0  0  0  0
 13  1  1  1  0  0  0
 14 15  1  6  0  0  0
 14 11  1  0  0  0  0
 16 15  1  6  0  0  0
 16 14  1  0  0  0  0
 19 22  1  6  0  0  0
 19 18  1  0  0  0  0
 20 17  1  0  0  0  0
 20 19  1  0  0  0  0
 21 17  1  6  0  0  0
 21 18  1  0  0  0  0
 21 16  1  0  0  0  0
 23 22  1  0  0  0  0
 23 24  1  0  0  0  0
 26  3  1  1  0  0  0
 26 25  1  0  0  0  0
 27 28  1  6  0  0  0
 27 26  1  0  0  0  0
 27 25  1  0  0  0  0
 30 28  1  0  0  0  0
 31 30  2  0  0  0  0
 32 29  1  0  0  0  0
 32 30  1  0  0  0  0
 33 32  1  0  0  0  0
 34 33  1  0  0  0  0
 34 38  1  0  0  0  0
 37 36  2  0  0  0  0
 37 35  1  0  0  0  0
 38 37  1  0  0  0  0
M  END
>  <MODEL>
4

>  <REMARK>
 VINA RESULT:      -7.3      2.816      8.339
  Name = 
  11 active torsions:
  status: ('A' for Active; 'I' for Inactive)
    1  A    between atoms: C_1  and  C_36
    2  A    between atoms: N_2  and  C_3
    3  A    between atoms: N_6  and  C_23
    4  A    between atoms: C_8  and  C_17
    5  A    between atoms: C_8  and  C_29
    6  A    between atoms: C_12  and  C_27
    7  A    between atoms: C_12  and  N_34
    8  A    between atoms: N_16  and  C_38
    9  A    between atoms: C_22  and  C_38
   10  A    between atoms: C_27  and  N_37
   11  A    between atoms: C_30  and  C_35
                            x       y       z     vdW  Elec       q    Type
                         _______ _______ _______ _____ _____    ______ ____

>  <TORSDO>
F 11

$$$$
=
 OpenBabel10222416253D

 38 43  0  0  1  0  0  0  0  0999 V2000
  188.6100  177.9610  141.9680 C   0  0  0  0  0  0  0  0  0  0  0  0
  189.5910  176.9730  146.2140 C   0  0  0  0  0  3  0  0  0  0  0  0
  187.8340  177.6810  143.0500 N   0  0  0  0  0  0  0  0  0  0  0  0
  189.9430  177.9580  142.2450 N   0  0  0  0  0  0  0  0  0  0  0  0
  188.4750  177.1280  145.3730 C   0  0  0  0  0  3  0  0  0  0  0  0
  188.7160  177.4730  144.0420 C   0  0  0  0  0  0  0  0  0  0  0  0
  191.1050  177.5120  144.3630 C   0  0  0  0  0  3  0  0  0  0  0  0
  191.9890  177.0050  146.5580 O   0  0  0  0  0  1  0  0  0  0  0  0
  190.9010  177.1650  145.7120 C   0  0  0  0  0  0  0  0  0  0  0  0
  189.9780  177.6510  143.5550 C   0  0  0  0  0  0  0  0  0  0  0  0
  188.6140  177.2560  139.6250 N   0  0  1  0  0  0  0  0  0  0  0  0
  189.1280  178.6290  139.6970 C   0  0  0  0  0  2  0  0  0  0  0  0
  188.0550  178.2110  140.5970 C   0  0  2  0  0  3  0  0  0  0  0  0
  187.6810  177.2170  138.5170 C   0  0  1  0  0  3  0  0  0  0  0  0
  188.3760  177.4310  137.3160 O   0  0  0  0  0  0  0  0  0  0  0  0
  188.0280  176.0960  137.6080 C   0  0  2  0  0  3  0  0  0  0  0  0
  186.9150  175.7790  135.3340 C   0  0  0  0  0  2  0  0  0  0  0  0
  186.4510  174.3310  137.1860 O   0  0  0  0  0  0  0  0  0  0  0  0
  186.6730  173.5470  136.0400 C   0  0  2  0  0  3  0  0  0  0  0  0
  186.5450  174.4250  134.8220 C   0  0  0  0  0  2  0  0  0  0  0  0
  186.7770  175.6600  136.8420 C   0  0  1  0  0  3  0  0  0  0  0  0
  185.6460  172.4380  135.9630 C   0  0  0  0  0  2  0  0  0  0  0  0
  184.9180  172.3570  137.2190 N   0  0  0  0  0  2  0  0  0  0  0  0
  183.5180  172.1710  136.8800 C   0  0  0  0  0  1  0  0  0  0  0  0
  185.7180  178.6110  143.8860 C   0  0  0  0  0  2  0  0  0  0  0  0
  186.3810  177.5100  143.0770 C   0  0  1  0  0  3  0  0  0  0  0  0
  185.7270  178.6860  142.3780 C   0  0  1  0  0  3  0  0  0  0  0  0
  184.3810  178.2530  141.8290 C   0  0  0  0  0  2  0  0  0  0  0  0
  182.6840  176.8810  139.8190 C   0  0  0  0  0  1  0  0  0  0  0  0
  184.2440  178.7580  140.4310 C   0  0  0  0  0  0  0  0  0  0  0  0
  184.9300  179.7530  140.0680 O   0  0  0  0  0  0  0  0  0  0  0  0
  183.2910  178.1710  139.5270 N   0  0  0  0  0  0  0  0  0  0  0  0
  182.7730  178.9390  138.4020 C   0  0  0  0  0  2  0  0  0  0  0  0
  181.2740  179.1390  138.5490 C   0  0  0  0  0  2  0  0  0  0  0  0
  179.8810  178.6470  141.0420 O   0  0  0  0  0  0  0  0  0  0  0  0
  180.0550  180.8770  141.5130 O   0  0  0  0  0  1  0  0  0  0  0  0
  180.2950  179.9320  140.7230 C   0  0  0  0  0  0  0  0  0  0  0  0
  181.0130  180.1850  139.5190 N   0  0  0  0  0  2  0  0  0  0  0  0
  1  4  2  0  0  0  0
  1  3  1  0  0  0  0
  3  6  1  0  0  0  0
  4 10  1  0  0  0  0
  5  2  2  0  0  0  0
  6  5  1  0  0  0  0
  7  9  2  0  0  0  0
  9  2  1  0  0  0  0
  9  8  1  0  0  0  0
 10  6  2  0  0  0  0
 10  7  1  0  0  0  0
 11 12  1  6  0  0  0
 11 13  1  0  0  0  0
 12 13  1  0  0  0  0
 13  1  1  1  0  0  0
 14 15  1  6  0  0  0
 14 11  1  0  0  0  0
 16 15  1  6  0  0  0
 16 14  1  0  0  0  0
 19 22  1  6  0  0  0
 19 18  1  0  0  0  0
 20 17  1  0  0  0  0
 20 19  1  0  0  0  0
 21 17  1  6  0  0  0
 21 18  1  0  0  0  0
 21 16  1  0  0  0  0
 22 23  1  0  0  0  0
 24 23  1  0  0  0  0
 26  3  1  1  0  0  0
 26 25  1  0  0  0  0
 27 28  1  6  0  0  0
 27 26  1  0  0  0  0
 27 25  1  0  0  0  0
 30 28  1  0  0  0  0
 31 30  2  0  0  0  0
 32 29  1  0  0  0  0
 32 30  1  0  0  0  0
 33 34  1  0  0  0  0
 33 32  1  0  0  0  0
 34 38  1  0  0  0  0
 37 35  2  0  0  0  0
 37 36  1  0  0  0  0
 38 37  1  0  0  0  0
M  END
>  <MODEL>
5

>  <REMARK>
 VINA RESULT:      -7.2      2.341      8.496
  Name = 
  11 active torsions:
  status: ('A' for Active; 'I' for Inactive)
    1  A    between atoms: C_1  and  C_36
    2  A    between atoms: N_2  and  C_3
    3  A    between atoms: N_6  and  C_23
    4  A    between atoms: C_8  and  C_17
    5  A    between atoms: C_8  and  C_29
    6  A    between atoms: C_12  and  C_27
    7  A    between atoms: C_12  and  N_34
    8  A    between atoms: N_16  and  C_38
    9  A    between atoms: C_22  and  C_38
   10  A    between atoms: C_27  and  N_37
   11  A    between atoms: C_30  and  C_35
                            x       y       z     vdW  Elec       q    Type
                         _______ _______ _______ _____ _____    ______ ____

>  <TORSDO>
F 11

$$$$
=
 OpenBabel10222416253D

 38 43  0  0  1  0  0  0  0  0999 V2000
  187.1390  177.3010  145.7800 C   0  0  0  0  0  0  0  0  0  0  0  0
  191.5810  176.8200  145.8470 C   0  0  0  0  0  3  0  0  0  0  0  0
  188.0570  177.0920  144.7970 N   0  0  0  0  0  0  0  0  0  0  0  0
  187.6860  177.3530  147.0250 N   0  0  0  0  0  0  0  0  0  0  0  0
  190.5140  176.8510  144.9330 C   0  0  0  0  0  3  0  0  0  0  0  0
  189.2290  177.0300  145.4500 C   0  0  0  0  0  0  0  0  0  0  0  0
  190.0330  177.1440  147.7200 C   0  0  0  0  0  3  0  0  0  0  0  0
  192.4110  176.9330  148.1210 O   0  0  0  0  0  1  0  0  0  0  0  0
  191.3430  176.9640  147.2350 C   0  0  0  0  0  0  0  0  0  0  0  0
  188.9990  177.1770  146.7860 C   0  0  0  0  0  0  0  0  0  0  0  0
  185.4220  178.8230  144.9310 N   0  0  1  0  0  0  0  0  0  0  0  0
  185.1590  178.5740  146.3540 C   0  0  0  0  0  2  0  0  0  0  0  0
  185.6760  177.4950  145.5150 C   0  0  2  0  0  3  0  0  0  0  0  0
  184.1470  178.7260  144.2490 C   0  0  1  0  0  3  0  0  0  0  0  0
  183.8390  179.9620  143.6590 O   0  0  0  0  0  0  0  0  0  0  0  0
  184.3360  178.9640  142.7960 C   0  0  2  0  0  3  0  0  0  0  0  0
  182.1010  179.2270  141.5930 C   0  0  0  0  0  2  0  0  0  0  0  0
  183.7410  177.6280  140.8890 O   0  0  0  0  0  0  0  0  0  0  0  0
  183.2630  178.3160  139.7590 C   0  0  2  0  0  3  0  0  0  0  0  0
  181.9700  178.9990  140.1220 C   0  0  0  0  0  2  0  0  0  0  0  0
  183.2090  178.2790  142.0210 C   0  0  1  0  0  3  0  0  0  0  0  0
  183.0130  177.3440  138.6260 C   0  0  0  0  0  2  0  0  0  0  0  0
  182.6700  176.0390  139.1670 N   0  0  0  0  0  2  0  0  0  0  0  0
  183.0040  175.0620  138.1460 C   0  0  0  0  0  1  0  0  0  0  0  0
  187.7920  178.4910  142.7940 C   0  0  0  0  0  2  0  0  0  0  0  0
  187.8200  177.0800  143.3530 C   0  0  1  0  0  3  0  0  0  0  0  0
  189.0340  177.6450  142.6430 C   0  0  1  0  0  3  0  0  0  0  0  0
  189.1040  177.0710  141.2420 C   0  0  0  0  0  2  0  0  0  0  0  0
  189.9060  176.2490  138.5060 C   0  0  0  0  0  1  0  0  0  0  0  0
  190.5360  176.9490  140.8400 C   0  0  0  0  0  0  0  0  0  0  0  0
  191.4340  177.1240  141.7090 O   0  0  0  0  0  0  0  0  0  0  0  0
  190.8970  176.7100  139.4680 N   0  0  0  0  0  0  0  0  0  0  0  0
  192.2100  177.1020  138.9720 C   0  0  0  0  0  2  0  0  0  0  0  0
  192.5140  176.3830  137.6690 C   0  0  0  0  0  2  0  0  0  0  0  0
  193.8690  173.8390  137.9710 O   0  0  0  0  0  1  0  0  0  0  0  0
  195.8510  174.9160  137.5990 O   0  0  0  0  0  0  0  0  0  0  0  0
  194.6020  174.9860  137.7000 C   0  0  0  0  0  0  0  0  0  0  0  0
  193.9490  176.2380  137.5140 N   0  0  0  0  0  2  0  0  0  0  0  0
  1  4  2  0  0  0  0
  2  9  1  0  0  0  0
  3  6  1  0  0  0  0
  3  1  1  0  0  0  0
  5  6  1  0  0  0  0
  5  2  2  0  0  0  0
  6 10  2  0  0  0  0
  9  7  2  0  0  0  0
  9  8  1  0  0  0  0
 10  4  1  0  0  0  0
 10  7  1  0  0  0  0
 11 13  1  0  0  0  0
 11 12  1  1  0  0  0
 13  1  1  1  0  0  0
 13 12  1  0  0  0  0
 14 15  1  1  0  0  0
 14 11  1  0  0  0  0
 16 15  1  1  0  0  0
 16 14  1  0  0  0  0
 18 21  1  0  0  0  0
 19 22  1  6  0  0  0
 19 20  1  0  0  0  0
 19 18  1  0  0  0  0
 20 17  1  0  0  0  0
 21 17  1  6  0  0  0
 21 16  1  0  0  0  0
 22 23  1  0  0  0  0
 24 23  1  0  0  0  0
 26 25  1  1  0  0  0
 26  3  1  0  0  0  0
 27 28  1  6  0  0  0
 27 25  1  0  0  0  0
 27 26  1  0  0  0  0
 29 32  1  0  0  0  0
 30 28  1  0  0  0  0
 30 31  2  0  0  0  0
 32 30  1  0  0  0  0
 33 32  1  0  0  0  0
 34 33  1  0  0  0  0
 36 37  2  0  0  0  0
 37 35  1  0  0  0  0
 38 34  1  0  0  0  0
 38 37  1  0  0  0  0
M  END
>  <MODEL>
6

>  <REMARK>
 VINA RESULT:      -7.1      2.987      7.430
  Name = 
  11 active torsions:
  status: ('A' for Active; 'I' for Inactive)
    1  A    between atoms: C_1  and  C_36
    2  A    between atoms: N_2  and  C_3
    3  A    between atoms: N_6  and  C_23
    4  A    between atoms: C_8  and  C_17
    5  A    between atoms: C_8  and  C_29
    6  A    between atoms: C_12  and  C_27
    7  A    between atoms: C_12  and  N_34
    8  A    between atoms: N_16  and  C_38
    9  A    between atoms: C_22  and  C_38
   10  A    between atoms: C_27  and  N_37
   11  A    between atoms: C_30  and  C_35
                            x       y       z     vdW  Elec       q    Type
                         _______ _______ _______ _____ _____    ______ ____

>  <TORSDO>
F 11

$$$$
=
 OpenBabel10222416253D

 38 43  0  0  1  0  0  0  0  0999 V2000
  189.3020  177.3360  136.8320 C   0  0  0  0  0  0  0  0  0  0  0  0
  192.8900  174.7200  137.3340 C   0  0  0  0  0  3  0  0  0  0  0  0
  190.2100  177.2030  137.8370 N   0  0  0  0  0  0  0  0  0  0  0  0
  189.5530  176.5250  135.7680 N   0  0  0  0  0  0  0  0  0  0  0  0
  192.1690  175.7050  138.0300 C   0  0  0  0  0  3  0  0  0  0  0  0
  191.0540  176.2560  137.3940 C   0  0  0  0  0  0  0  0  0  0  0  0
  191.3570  174.8920  135.4290 C   0  0  0  0  0  3  0  0  0  0  0  0
  193.2120  173.3380  135.3700 O   0  0  0  0  0  1  0  0  0  0  0  0
  192.4880  174.3150  136.0380 C   0  0  0  0  0  0  0  0  0  0  0  0
  190.6610  175.8610  136.1490 C   0  0  0  0  0  0  0  0  0  0  0  0
  186.8970  177.5080  137.2470 N   0  0  1  0  0  0  0  0  0  0  0  0
  187.1590  177.9110  135.8590 C   0  0  0  0  0  2  0  0  0  0  0  0
  188.1200  178.2550  136.9060 C   0  0  2  0  0  3  0  0  0  0  0  0
  185.9710  178.4780  137.7950 C   0  0  1  0  0  3  0  0  0  0  0  0
  184.6560  178.0290  137.6000 O   0  0  0  0  0  0  0  0  0  0  0  0
  185.1890  177.8610  138.8950 C   0  0  2  0  0  3  0  0  0  0  0  0
  183.2270  178.8650  140.1790 C   0  0  0  0  0  2  0  0  0  0  0  0
  185.4630  178.9120  141.0390 O   0  0  0  0  0  0  0  0  0  0  0  0
  184.5910  178.4980  142.0620 C   0  0  2  0  0  3  0  0  0  0  0  0
  183.1820  178.8640  141.6720 C   0  0  0  0  0  2  0  0  0  0  0  0
  184.7070  178.9550  139.8490 C   0  0  1  0  0  3  0  0  0  0  0  0
  184.9450  179.1910  143.3590 C   0  0  0  0  0  2  0  0  0  0  0  0
  184.6930  178.2970  144.4780 N   0  0  0  0  0  2  0  0  0  0  0  0
  185.6210  178.6710  145.5300 C   0  0  0  0  0  1  0  0  0  0  0  0
  188.9910  177.3720  139.9640 C   0  0  0  0  0  2  0  0  0  0  0  0
  190.1800  177.8490  139.1490 C   0  0  1  0  0  3  0  0  0  0  0  0
  190.3630  176.8000  140.2270 C   0  0  1  0  0  3  0  0  0  0  0  0
  190.9690  177.4490  141.4560 C   0  0  0  0  0  2  0  0  0  0  0  0
  190.4840  179.0040  143.9360 C   0  0  0  0  0  1  0  0  0  0  0  0
  190.3700  176.8290  142.6750 C   0  0  0  0  0  0  0  0  0  0  0  0
  190.1350  175.5900  142.6810 O   0  0  0  0  0  0  0  0  0  0  0  0
  189.9950  177.6400  143.8040 N   0  0  0  0  0  0  0  0  0  0  0  0
  188.9730  177.1790  144.7340 C   0  0  0  0  0  2  0  0  0  0  0  0
  189.2360  177.7400  146.1210 C   0  0  0  0  0  2  0  0  0  0  0  0
  192.0580  177.0890  146.2340 O   0  0  0  0  0  0  0  0  0  0  0  0
  191.5560  175.4270  147.7210 O   0  0  0  0  0  1  0  0  0  0  0  0
  191.1500  176.3670  146.9950 C   0  0  0  0  0  0  0  0  0  0  0  0
  189.7640  176.6970  146.9790 N   0  0  0  0  0  2  0  0  0  0  0  0
  1  3  1  0  0  0  0
  2  5  1  0  0  0  0
  4 10  1  0  0  0  0
  4  1  2  0  0  0  0
  6  3  1  0  0  0  0
  6  5  2  0  0  0  0
  7  9  1  0  0  0  0
  7 10  2  0  0  0  0
  8  9  1  0  0  0  0
  9  2  2  0  0  0  0
 10  6  1  0  0  0  0
 11 12  1  6  0  0  0
 11 14  1  0  0  0  0
 12 13  1  0  0  0  0
 13  1  1  6  0  0  0
 13 11  1  0  0  0  0
 14 15  1  6  0  0  0
 14 16  1  0  0  0  0
 16 15  1  6  0  0  0
 16 21  1  0  0  0  0
 17 20  1  0  0  0  0
 18 19  1  0  0  0  0
 19 22  1  1  0  0  0
 20 19  1  0  0  0  0
 21 17  1  1  0  0  0
 21 18  1  0  0  0  0
 22 23  1  0  0  0  0
 23 24  1  0  0  0  0
 25 27  1  0  0  0  0
 26  3  1  6  0  0  0
 26 25  1  0  0  0  0
 26 27  1  0  0  0  0
 27 28  1  1  0  0  0
 28 30  1  0  0  0  0
 30 31  2  0  0  0  0
 30 32  1  0  0  0  0
 32 29  1  0  0  0  0
 32 33  1  0  0  0  0
 33 34  1  0  0  0  0
 34 38  1  0  0  0  0
 35 37  2  0  0  0  0
 37 36  1  0  0  0  0
 38 37  1  0  0  0  0
M  END
>  <MODEL>
7

>  <REMARK>
 VINA RESULT:      -7.0      2.482      8.178
  Name = 
  11 active torsions:
  status: ('A' for Active; 'I' for Inactive)
    1  A    between atoms: C_1  and  C_36
    2  A    between atoms: N_2  and  C_3
    3  A    between atoms: N_6  and  C_23
    4  A    between atoms: C_8  and  C_17
    5  A    between atoms: C_8  and  C_29
    6  A    between atoms: C_12  and  C_27
    7  A    between atoms: C_12  and  N_34
    8  A    between atoms: N_16  and  C_38
    9  A    between atoms: C_22  and  C_38
   10  A    between atoms: C_27  and  N_37
   11  A    between atoms: C_30  and  C_35
                            x       y       z     vdW  Elec       q    Type
                         _______ _______ _______ _____ _____    ______ ____

>  <TORSDO>
F 11

$$$$
=
 OpenBabel10222416253D

 38 43  0  0  1  0  0  0  0  0999 V2000
  186.9430  177.3650  145.8670 C   0  0  0  0  0  0  0  0  0  0  0  0
  191.3590  176.8490  145.4160 C   0  0  0  0  0  3  0  0  0  0  0  0
  187.7480  177.2390  144.7780 N   0  0  0  0  0  0  0  0  0  0  0  0
  187.6200  177.3020  147.0470 N   0  0  0  0  0  0  0  0  0  0  0  0
  190.2010  176.9700  144.6270 C   0  0  0  0  0  3  0  0  0  0  0  0
  188.9820  177.1100  145.2930 C   0  0  0  0  0  0  0  0  0  0  0  0
  190.0240  177.0150  147.4650 C   0  0  0  0  0  3  0  0  0  0  0  0
  192.4260  176.7520  147.5890 O   0  0  0  0  0  1  0  0  0  0  0  0
  191.2720  176.8700  146.8290 C   0  0  0  0  0  0  0  0  0  0  0  0
  188.8970  177.1380  146.6540 C   0  0  0  0  0  0  0  0  0  0  0  0
  185.1710  178.9490  145.2860 N   0  0  1  0  0  0  0  0  0  0  0  0
  185.0660  178.6390  146.7180 C   0  0  0  0  0  2  0  0  0  0  0  0
  185.4630  177.5920  145.7780 C   0  0  2  0  0  3  0  0  0  0  0  0
  183.8270  178.9020  144.7490 C   0  0  1  0  0  3  0  0  0  0  0  0
  183.5120  180.1420  144.1720 O   0  0  0  0  0  0  0  0  0  0  0  0
  183.8650  179.1090  143.2800 C   0  0  2  0  0  3  0  0  0  0  0  0
  181.4140  179.3770  142.6230 C   0  0  0  0  0  2  0  0  0  0  0  0
  182.9350  178.0470  141.3350 O   0  0  0  0  0  0  0  0  0  0  0  0
  182.1940  178.8640  140.4620 C   0  0  2  0  0  3  0  0  0  0  0  0
  180.9790  179.3740  141.1940 C   0  0  0  0  0  2  0  0  0  0  0  0
  182.6300  178.4660  142.6470 C   0  0  1  0  0  3  0  0  0  0  0  0
  181.7500  178.0660  139.2550 C   0  0  0  0  0  2  0  0  0  0  0  0
  182.8480  177.2390  138.7840 N   0  0  0  0  0  2  0  0  0  0  0  0
  182.3600  175.8710  138.7570 C   0  0  0  0  0  1  0  0  0  0  0  0
  187.3560  178.8100  142.9290 C   0  0  0  0  0  2  0  0  0  0  0  0
  187.3590  177.3580  143.3720 C   0  0  1  0  0  3  0  0  0  0  0  0
  188.5230  177.9180  142.5780 C   0  0  1  0  0  3  0  0  0  0  0  0
  188.4100  177.4590  141.1370 C   0  0  0  0  0  2  0  0  0  0  0  0
  189.6360  178.0450  138.5000 C   0  0  0  0  0  1  0  0  0  0  0  0
  189.7100  176.8590  140.7180 C   0  0  0  0  0  0  0  0  0  0  0  0
  190.2690  176.0160  141.4730 O   0  0  0  0  0  0  0  0  0  0  0  0
  190.3610  177.2850  139.5080 N   0  0  0  0  0  0  0  0  0  0  0  0
  191.8020  177.1310  139.3520 C   0  0  0  0  0  2  0  0  0  0  0  0
  192.1110  176.3390  138.0930 C   0  0  0  0  0  2  0  0  0  0  0  0
  190.3860  175.3130  136.0010 O   0  0  0  0  0  0  0  0  0  0  0  0
  190.0490  173.4450  137.2750 O   0  0  0  0  0  1  0  0  0  0  0  0
  190.6070  174.5610  137.1470 C   0  0  0  0  0  0  0  0  0  0  0  0
  191.4790  175.0350  138.1680 N   0  0  0  0  0  2  0  0  0  0  0  0
  1  4  2  0  0  0  0
  2  9  1  0  0  0  0
  3  6  1  0  0  0  0
  3  1  1  0  0  0  0
  5  6  1  0  0  0  0
  5  2  2  0  0  0  0
  6 10  2  0  0  0  0
  9  7  2  0  0  0  0
  9  8  1  0  0  0  0
 10  4  1  0  0  0  0
 10  7  1  0  0  0  0
 11 13  1  0  0  0  0
 11 12  1  1  0  0  0
 13  1  1  1  0  0  0
 13 12  1  0  0  0  0
 14 15  1  1  0  0  0
 14 11  1  0  0  0  0
 16 15  1  1  0  0  0
 16 14  1  0  0  0  0
 18 21  1  0  0  0  0
 19 22  1  6  0  0  0
 19 20  1  0  0  0  0
 19 18  1  0  0  0  0
 20 17  1  0  0  0  0
 21 17  1  6  0  0  0
 21 16  1  0  0  0  0
 23 22  1  0  0  0  0
 24 23  1  0  0  0  0
 26 25  1  1  0  0  0
 26  3  1  0  0  0  0
 27 28  1  6  0  0  0
 27 25  1  0  0  0  0
 27 26  1  0  0  0  0
 29 32  1  0  0  0  0
 30 28  1  0  0  0  0
 30 31  2  0  0  0  0
 32 30  1  0  0  0  0
 33 32  1  0  0  0  0
 34 38  1  0  0  0  0
 34 33  1  0  0  0  0
 35 37  2  0  0  0  0
 37 36  1  0  0  0  0
 37 38  1  0  0  0  0
M  END
>  <MODEL>
8

>  <REMARK>
 VINA RESULT:      -7.0      2.606      7.012
  Name = 
  11 active torsions:
  status: ('A' for Active; 'I' for Inactive)
    1  A    between atoms: C_1  and  C_36
    2  A    between atoms: N_2  and  C_3
    3  A    between atoms: N_6  and  C_23
    4  A    between atoms: C_8  and  C_17
    5  A    between atoms: C_8  and  C_29
    6  A    between atoms: C_12  and  C_27
    7  A    between atoms: C_12  and  N_34
    8  A    between atoms: N_16  and  C_38
    9  A    between atoms: C_22  and  C_38
   10  A    between atoms: C_27  and  N_37
   11  A    between atoms: C_30  and  C_35
                            x       y       z     vdW  Elec       q    Type
                         _______ _______ _______ _____ _____    ______ ____

>  <TORSDO>
F 11

$$$$
=
 OpenBabel10222416253D

 38 43  0  0  1  0  0  0  0  0999 V2000
  186.9710  177.7140  143.3560 C   0  0  0  0  0  0  0  0  0  0  0  0
  191.2700  176.9430  144.3010 C   0  0  0  0  0  3  0  0  0  0  0  0
  188.0390  177.3860  142.5800 N   0  0  0  0  0  0  0  0  0  0  0  0
  187.2750  177.8050  144.6800 N   0  0  0  0  0  0  0  0  0  0  0  0
  190.4000  176.9910  143.1970 C   0  0  0  0  0  3  0  0  0  0  0  0
  189.0580  177.2850  143.4490 C   0  0  0  0  0  0  0  0  0  0  0  0
  189.4250  177.4810  145.8230 C   0  0  0  0  0  3  0  0  0  0  0  0
  191.6610  177.1370  146.6840 O   0  0  0  0  0  1  0  0  0  0  0  0
  190.7850  177.1850  145.6090 C   0  0  0  0  0  0  0  0  0  0  0  0
  188.5920  177.5270  144.7070 C   0  0  0  0  0  0  0  0  0  0  0  0
  185.6360  179.1240  141.8670 N   0  0  1  0  0  0  0  0  0  0  0  0
  185.1500  179.3090  143.2400 C   0  0  0  0  0  2  0  0  0  0  0  0
  185.6030  177.9890  142.8050 C   0  0  2  0  0  3  0  0  0  0  0  0
  184.4650  178.9850  141.0260 C   0  0  1  0  0  3  0  0  0  0  0  0
  184.5640  179.8680  139.9390 O   0  0  0  0  0  0  0  0  0  0  0  0
  184.8680  178.5170  139.6760 C   0  0  2  0  0  3  0  0  0  0  0  0
  182.9090  178.6590  138.0480 C   0  0  0  0  0  2  0  0  0  0  0  0
  184.1570  176.6370  138.3570 O   0  0  0  0  0  0  0  0  0  0  0  0
  183.9880  176.8610  136.9790 C   0  0  2  0  0  3  0  0  0  0  0  0
  182.8780  177.8620  136.7850 C   0  0  0  0  0  2  0  0  0  0  0  0
  183.6920  177.7920  139.0190 C   0  0  1  0  0  3  0  0  0  0  0  0
  183.6200  175.5680  136.2840 C   0  0  0  0  0  2  0  0  0  0  0  0
  183.9020  174.4430  137.1610 N   0  0  0  0  0  2  0  0  0  0  0  0
  183.0650  173.3440  136.7140 C   0  0  0  0  0  1  0  0  0  0  0  0
  188.5030  178.6280  140.5100 C   0  0  0  0  0  2  0  0  0  0  0  0
  188.0790  177.3040  141.1190 C   0  0  1  0  0  3  0  0  0  0  0  0
  189.5050  177.5070  140.6470 C   0  0  1  0  0  3  0  0  0  0  0  0
  189.6910  176.8110  139.3120 C   0  0  0  0  0  2  0  0  0  0  0  0
  190.6940  174.9310  137.2480 C   0  0  0  0  0  1  0  0  0  0  0  0
  191.1490  176.5990  139.0770 C   0  0  0  0  0  0  0  0  0  0  0  0
  191.9830  177.1750  139.8280 O   0  0  0  0  0  0  0  0  0  0  0  0
  191.6070  175.8100  137.9640 N   0  0  0  0  0  0  0  0  0  0  0  0
  192.9420  176.0150  137.4150 C   0  0  0  0  0  2  0  0  0  0  0  0
  193.8260  174.8200  137.7280 C   0  0  0  0  0  2  0  0  0  0  0  0
  195.7320  172.9610  138.8740 O   0  0  0  0  0  0  0  0  0  0  0  0
  196.8650  174.7470  139.7400 O   0  0  0  0  0  1  0  0  0  0  0  0
  195.8960  174.3260  139.0630 C   0  0  0  0  0  0  0  0  0  0  0  0
  194.9890  175.2540  138.4770 N   0  0  0  0  0  2  0  0  0  0  0  0
  1  4  2  0  0  0  0
  2  9  1  0  0  0  0
  3  1  1  0  0  0  0
  3  6  1  0  0  0  0
  4 10  1  0  0  0  0
  5  6  1  0  0  0  0
  5  2  2  0  0  0  0
  6 10  2  0  0  0  0
  9  7  2  0  0  0  0
  9  8  1  0  0  0  0
 10  7  1  0  0  0  0
 11 13  1  0  0  0  0
 11 12  1  1  0  0  0
 13 12  1  0  0  0  0
 13  1  1  1  0  0  0
 14 15  1  6  0  0  0
 14 11  1  0  0  0  0
 16 15  1  6  0  0  0
 16 14  1  0  0  0  0
 18 21  1  0  0  0  0
 19 22  1  6  0  0  0
 19 18  1  0  0  0  0
 20 19  1  0  0  0  0
 20 17  1  0  0  0  0
 21 17  1  6  0  0  0
 21 16  1  0  0  0  0
 22 23  1  0  0  0  0
 24 23  1  0  0  0  0
 25 27  1  0  0  0  0
 26 25  1  6  0  0  0
 26  3  1  0  0  0  0
 27 28  1  6  0  0  0
 27 26  1  0  0  0  0
 29 32  1  0  0  0  0
 30 28  1  0  0  0  0
 30 31  2  0  0  0  0
 32 30  1  0  0  0  0
 33 34  1  0  0  0  0
 33 32  1  0  0  0  0
 34 38  1  0  0  0  0
 35 37  2  0  0  0  0
 37 36  1  0  0  0  0
 38 37  1  0  0  0  0
M  END
>  <MODEL>
9

>  <REMARK>
 VINA RESULT:      -6.9      3.333      7.723
  Name = 
  11 active torsions:
  status: ('A' for Active; 'I' for Inactive)
    1  A    between atoms: C_1  and  C_36
    2  A    between atoms: N_2  and  C_3
    3  A    between atoms: N_6  and  C_23
    4  A    between atoms: C_8  and  C_17
    5  A    between atoms: C_8  and  C_29
    6  A    between atoms: C_12  and  C_27
    7  A    between atoms: C_12  and  N_34
    8  A    between atoms: N_16  and  C_38
    9  A    between atoms: C_22  and  C_38
   10  A    between atoms: C_27  and  N_37
   11  A    between atoms: C_30  and  C_35
                            x       y       z     vdW  Elec       q    Type
                         _______ _______ _______ _____ _____    ______ ____

>  <TORSDO>
F 11

$$$$
