=
 OpenBabel10222418353D

 62 69  0  0  1  0  0  0  0  0999 V2000
  188.7820  174.8920  135.6350 C   0  0  0  0  0  3  0  0  0  0  0  0
  190.2640  177.3840  139.9180 N   0  0  0  0  0  2  0  0  0  0  0  0
  192.2500  175.5110  136.8430 C   0  0  0  0  0  0  0  0  0  0  0  0
  187.9950  175.1250  136.7920 C   0  0  0  0  0  0  0  0  0  0  0  0
  185.3880  174.5030  136.8390 C   0  0  0  0  0  3  0  0  0  0  0  0
  192.8260  175.9140  137.9880 N   0  0  0  0  0  0  0  0  0  0  0  0
  192.1000  176.2720  139.1170 N   0  0  0  0  0  0  0  0  0  0  0  0
  190.0320  175.9240  137.8580 C   0  0  2  0  0  3  0  0  0  0  0  0
  190.8370  175.0560  136.9740 C   0  0  1  0  0  3  0  0  0  0  0  0
  190.8050  176.3600  139.1240 C   0  0  0  0  0  0  0  0  0  0  0  0
  188.6730  175.4340  138.0890 C   0  0  0  0  0  2  0  0  0  0  0  0
  192.9130  175.6650  135.5800 N   0  0  0  0  0  2  0  0  0  0  0  0
  190.0870  174.8780  135.7650 N   0  0  0  0  0  0  0  0  0  0  0  0
  186.6440  174.9090  136.7450 C   0  0  0  0  0  0  0  0  0  0  0  0
  196.5780  176.2700  135.2000 C   0  0  0  0  0  0  0  0  0  0  0  0
  198.8380  175.5570  134.5940 C   0  0  0  0  0  1  0  0  0  0  0  0
  197.1830  173.9240  135.1470 C   0  0  0  0  0  3  0  0  0  0  0  0
  194.6960  173.8800  135.5830 C   0  0  0  0  0  3  0  0  0  0  0  0
  195.9170  173.3590  135.5980 C   0  0  0  0  0  3  0  0  0  0  0  0
  196.9590  177.5970  135.1800 N   0  0  0  0  0  0  0  0  0  0  0  0
  194.2520  175.1950  135.0790 C   0  0  2  0  0  3  0  0  0  0  0  0
  195.1910  176.2810  135.3410 N   0  0  0  0  0  0  0  0  0  0  0  0
  197.4740  175.1860  134.9470 C   0  0  0  0  0  0  0  0  0  0  0  0
  194.7390  177.4950  135.4250 N   0  0  0  0  0  0  0  0  0  0  0  0
  195.8130  178.2940  135.3250 C   0  0  0  0  0  3  0  0  0  0  0  0
  183.9030  174.7590  136.4480 C   0  0  0  0  0  0  0  0  0  0  0  0
  183.8040  174.9490  135.2030 O   0  0  0  0  0  0  0  0  0  0  0  0
  182.7070  174.8560  137.3020 N   0  0  0  0  0  2  0  0  0  0  0  0
  180.1870  177.4880  136.9380 C   0  0  0  0  0  0  0  0  0  0  0  0
  182.1750  178.6360  135.1680 C   0  0  0  0  0  3  0  0  0  0  0  0
  180.9520  180.8410  135.2620 C   0  0  0  0  0  1  0  0  0  0  0  0
  181.3060  175.1860  136.7440 C   0  0  2  0  0  0  0  0  0  0  0  0
  180.8020  179.2860  135.2310 C   0  0  2  0  0  3  0  0  0  0  0  0
  180.0630  178.8210  136.4580 C   0  0  0  0  0  0  0  0  0  0  0  0
  179.0990  179.4840  136.8730 O   0  0  0  0  0  0  0  0  0  0  0  0
  179.0040  175.6260  137.8880 C   0  0  0  0  0  3  0  0  0  0  0  0
  182.3440  177.4390  135.8230 C   0  0  0  0  0  3  0  0  0  0  0  0
  181.2510  176.7120  136.5690 C   0  0  0  0  0  0  0  0  0  0  0  0
  180.2460  174.8050  137.8280 C   0  0  0  0  0  2  0  0  0  0  0  0
  178.9560  176.9170  137.5640 C   0  0  0  0  0  3  0  0  0  0  0  0
  180.3150  175.0580  134.5940 O   0  0  0  0  0  0  0  0  0  0  0  0
  181.0040  174.4120  135.4620 C   0  0  0  0  0  0  0  0  0  0  0  0
  180.9400  173.0240  135.3920 O   0  0  0  0  0  1  0  0  0  0  0  0
  190.4500  177.5340  141.3360 C   0  0  0  0  0  2  0  0  0  0  0  0
  189.7010  178.7980  141.8810 C   0  0  0  0  0  2  0  0  0  0  0  0
  187.2540  178.4570  141.2280 N   0  0  0  0  0  2  0  0  0  0  0  0
  188.1680  177.6790  143.2140 O   0  0  0  0  0  0  0  0  0  0  0  0
  188.3320  178.2760  142.1650 C   0  0  0  0  0  0  0  0  0  0  0  0
  185.2120  179.8350  140.0760 O   0  0  0  0  0  1  0  0  0  0  0  0
  183.3120  176.7740  140.5890 O   0  0  0  0  0  1  0  0  0  0  0  0
  183.6170  178.1300  140.4460 C   0  0  1  0  0  3  0  0  0  0  0  0
  185.2970  178.8030  142.7890 C   0  0  0  0  0  2  0  0  0  0  0  0
  183.7710  178.4890  142.9480 C   0  0  0  0  0  2  0  0  0  0  0  0
  185.8750  178.0790  141.5210 C   0  0  1  0  0  3  0  0  0  0  0  0
  183.0760  178.8770  141.6440 C   0  0  2  0  0  3  0  0  0  0  0  0
  185.0800  178.4700  140.2810 C   0  0  2  0  0  3  0  0  0  0  0  0
  181.5970  179.0200  141.6460 N   0  0  1  0  0  0  0  0  0  0  0  0
  181.1290  179.3940  142.8760 O   0  0  0  0  0  0  0  0  0  0  0  0
  179.4570  179.5120  140.4560 C   0  0  0  0  0  2  0  0  0  0  0  0
  180.9660  179.6130  140.4430 C   0  0  0  0  0  2  0  0  0  0  0  0
  178.9310  179.7390  141.9200 C   0  0  0  0  0  2  0  0  0  0  0  0
  180.0400  180.2960  142.7420 C   0  0  0  0  0  2  0  0  0  0  0  0
  1 13  2  0  0  0  0
  1  4  1  0  0  0  0
  2 44  1  0  0  0  0
  3  9  1  0  0  0  0
  3  6  2  0  0  0  0
  4 11  1  0  0  0  0
  6  7  1  0  0  0  0
  7 10  2  0  0  0  0
  8 11  1  1  0  0  0
  8 10  1  0  0  0  0
  9 13  1  6  0  0  0
  9  8  1  0  0  0  0
 10  2  1  0  0  0  0
 12  3  1  0  0  0  0
 14  4  2  0  0  0  0
 14  5  2  0  0  0  0
 15 22  1  0  0  0  0
 16 23  1  0  0  0  0
 17 19  1  0  0  0  0
 18 19  2  0  0  0  0
 20 15  2  0  0  0  0
 20 25  1  0  0  0  0
 21 22  1  0  0  0  0
 21 12  1  1  0  0  0
 21 18  1  0  0  0  0
 22 24  1  0  0  0  0
 23 17  2  0  0  0  0
 23 15  1  0  0  0  0
 25 24  2  0  0  0  0
 26  5  1  0  0  0  0
 26 28  1  0  0  0  0
 27 26  2  0  0  0  0
 29 40  1  0  0  0  0
 30 33  1  0  0  0  0
 30 37  2  0  0  0  0
 32 42  1  6  0  0  0
 32 28  1  0  0  0  0
 32 39  1  0  0  0  0
 33 31  1  1  0  0  0
 33 34  1  0  0  0  0
 34 35  2  0  0  0  0
 34 29  1  0  0  0  0
 37 38  1  0  0  0  0
 38 32  1  0  0  0  0
 38 29  2  0  0  0  0
 39 36  1  0  0  0  0
 40 36  2  0  0  0  0
 41 42  2  0  0  0  0
 43 42  1  0  0  0  0
 44 45  1  0  0  0  0
 45 48  1  0  0  0  0
 46 48  1  0  0  0  0
 48 47  2  0  0  0  0
 51 50  1  1  0  0  0
 51 55  1  0  0  0  0
 52 53  1  0  0  0  0
 54 46  1  6  0  0  0
 54 52  1  0  0  0  0
 55 57  1  0  0  0  0
 55 53  1  1  0  0  0
 56 49  1  1  0  0  0
 56 51  1  0  0  0  0
 56 54  1  0  0  0  0
 57 60  1  6  0  0  0
 57 58  1  0  0  0  0
 59 61  1  0  0  0  0
 60 59  1  0  0  0  0
 61 62  1  0  0  0  0
 62 58  1  0  0  0  0
M  END
>  <MODEL>
1

>  <REMARK>
 VINA RESULT:      -6.4      0.000      0.000
  Name = 
  9 active torsions:
  status: ('A' for Active; 'I' for Inactive)
    1  A    between atoms: N_5  and  C_51
    2  A    between atoms: C_7  and  N_33
    3  A    between atoms: C_7  and  C_52
    4  A    between atoms: C_10  and  C_18
    5  A    between atoms: N_16  and  C_41
    6  A    between atoms: N_21  and  C_50
    7  A    between atoms: N_43  and  C_56
    8  A    between atoms: C_49  and  C_53
    9  A    between atoms: C_51  and  C_53
                            x       y       z     vdW  Elec       q    Type
                         _______ _______ _______ _____ _____    ______ ____

>  <TORSDO>
F 9

$$$$
=
 OpenBabel10222418353D

 62 69  0  0  1  0  0  0  0  0999 V2000
  189.9480  175.9830  136.5950 C   0  0  0  0  0  3  0  0  0  0  0  0
  191.0730  178.0150  141.2170 N   0  0  0  0  0  2  0  0  0  0  0  0
  193.3030  176.4210  138.1520 C   0  0  0  0  0  0  0  0  0  0  0  0
  189.0650  176.1140  137.6990 C   0  0  0  0  0  0  0  0  0  0  0  0
  186.4590  175.5340  137.4600 C   0  0  0  0  0  3  0  0  0  0  0  0
  193.7810  176.7000  139.3770 N   0  0  0  0  0  0  0  0  0  0  0  0
  192.9620  176.9560  140.4690 N   0  0  0  0  0  0  0  0  0  0  0  0
  191.0080  176.7690  139.0100 C   0  0  2  0  0  3  0  0  0  0  0  0
  191.8800  175.9800  138.1150 C   0  0  1  0  0  3  0  0  0  0  0  0
  191.6720  177.0650  140.3740 C   0  0  0  0  0  0  0  0  0  0  0  0
  189.6310  176.2810  139.0740 C   0  0  0  0  0  2  0  0  0  0  0  0
  194.0740  176.6880  136.9720 N   0  0  0  0  0  2  0  0  0  0  0  0
  191.2370  175.9350  136.8350 N   0  0  0  0  0  0  0  0  0  0  0  0
  187.7220  175.9270  137.5140 C   0  0  0  0  0  0  0  0  0  0  0  0
  196.3460  173.9540  135.8280 C   0  0  0  0  0  0  0  0  0  0  0  0
  198.4800  173.1370  134.9540 C   0  0  0  0  0  1  0  0  0  0  0  0
  197.8410  175.4120  134.5990 C   0  0  0  0  0  3  0  0  0  0  0  0
  196.0200  176.9710  135.3900 C   0  0  0  0  0  3  0  0  0  0  0  0
  197.0210  176.6170  134.5940 C   0  0  0  0  0  3  0  0  0  0  0  0
  195.9890  172.6820  136.2270 N   0  0  0  0  0  0  0  0  0  0  0  0
  195.4480  176.2480  136.5440 C   0  0  2  0  0  3  0  0  0  0  0  0
  195.3780  174.8010  136.3640 N   0  0  0  0  0  0  0  0  0  0  0  0
  197.5690  174.2570  135.1530 C   0  0  0  0  0  0  0  0  0  0  0  0
  194.4810  174.1300  137.0210 N   0  0  0  0  0  0  0  0  0  0  0  0
  194.8530  172.8440  136.9390 C   0  0  0  0  0  3  0  0  0  0  0  0
  185.0160  175.8540  136.9700 C   0  0  0  0  0  0  0  0  0  0  0  0
  184.9610  175.8090  135.7090 O   0  0  0  0  0  0  0  0  0  0  0  0
  183.8200  176.2280  137.7450 N   0  0  0  0  0  2  0  0  0  0  0  0
  180.6190  177.9420  138.2210 C   0  0  0  0  0  0  0  0  0  0  0  0
  182.2980  180.3040  138.1930 C   0  0  0  0  0  3  0  0  0  0  0  0
  180.3950  181.6420  139.1690 C   0  0  0  0  0  1  0  0  0  0  0  0
  182.4720  176.5790  137.0810 C   0  0  2  0  0  0  0  0  0  0  0  0
  180.7890  180.4910  138.1890 C   0  0  2  0  0  3  0  0  0  0  0  0
  180.1070  179.2130  138.6040 C   0  0  0  0  0  0  0  0  0  0  0  0
  178.9320  179.2540  138.9990 O   0  0  0  0  0  0  0  0  0  0  0  0
  180.0340  175.7370  137.4720 C   0  0  0  0  0  3  0  0  0  0  0  0
  182.7830  179.0270  138.0360 C   0  0  0  0  0  3  0  0  0  0  0  0
  181.9210  177.8060  137.8250 C   0  0  0  0  0  0  0  0  0  0  0  0
  181.4790  175.3990  137.3370 C   0  0  0  0  0  2  0  0  0  0  0  0
  179.5890  176.8880  137.9690 C   0  0  0  0  0  3  0  0  0  0  0  0
  182.7170  178.0170  135.2120 O   0  0  0  0  0  1  0  0  0  0  0  0
  182.6130  176.7910  135.5750 C   0  0  0  0  0  0  0  0  0  0  0  0
  182.1300  175.9030  134.6190 O   0  0  0  0  0  0  0  0  0  0  0  0
  191.1360  178.0200  142.6540 C   0  0  0  0  0  2  0  0  0  0  0  0
  190.1630  176.9600  143.2740 C   0  0  0  0  0  2  0  0  0  0  0  0
  187.9480  177.7510  142.2740 N   0  0  0  0  0  2  0  0  0  0  0  0
  188.6370  178.2730  144.4270 O   0  0  0  0  0  0  0  0  0  0  0  0
  188.8760  177.7100  143.3740 C   0  0  0  0  0  0  0  0  0  0  0  0
  185.7240  176.8620  143.5630 O   0  0  0  0  0  1  0  0  0  0  0  0
  184.8800  180.3930  143.8180 O   0  0  0  0  0  1  0  0  0  0  0  0
  184.7410  179.0060  143.7170 C   0  0  1  0  0  3  0  0  0  0  0  0
  185.8110  178.3090  141.0460 C   0  0  0  0  0  2  0  0  0  0  0  0
  184.4640  179.0910  141.2020 C   0  0  0  0  0  2  0  0  0  0  0  0
  186.7430  178.5750  142.2820 C   0  0  1  0  0  3  0  0  0  0  0  0
  183.8440  178.6940  142.5400 C   0  0  2  0  0  3  0  0  0  0  0  0
  186.0210  178.2170  143.5750 C   0  0  2  0  0  3  0  0  0  0  0  0
  182.4100  179.0060  142.7760 N   0  0  1  0  0  0  0  0  0  0  0  0
  181.6720  178.8750  141.6320 O   0  0  0  0  0  0  0  0  0  0  0  0
  180.4270  179.1080  144.2900 C   0  0  0  0  0  2  0  0  0  0  0  0
  181.8140  178.5540  144.0550 C   0  0  0  0  0  2  0  0  0  0  0  0
  179.6430  179.1500  142.9280 C   0  0  0  0  0  2  0  0  0  0  0  0
  180.3900  178.3390  141.9260 C   0  0  0  0  0  2  0  0  0  0  0  0
  1 13  2  0  0  0  0
  1  4  1  0  0  0  0
  2 44  1  0  0  0  0
  3  6  2  0  0  0  0
  4 11  1  0  0  0  0
  5 14  2  0  0  0  0
  6  7  1  0  0  0  0
  8 11  1  1  0  0  0
  8 10  1  0  0  0  0
  9 13  1  6  0  0  0
  9  3  1  0  0  0  0
  9  8  1  0  0  0  0
 10  7  2  0  0  0  0
 10  2  1  0  0  0  0
 12  3  1  0  0  0  0
 14  4  2  0  0  0  0
 15 20  2  0  0  0  0
 15 22  1  0  0  0  0
 16 23  1  0  0  0  0
 17 23  2  0  0  0  0
 18 21  1  0  0  0  0
 19 17  1  0  0  0  0
 19 18  2  0  0  0  0
 20 25  1  0  0  0  0
 21 12  1  6  0  0  0
 22 21  1  0  0  0  0
 22 24  1  0  0  0  0
 23 15  1  0  0  0  0
 25 24  2  0  0  0  0
 26  5  1  0  0  0  0
 26 28  1  0  0  0  0
 27 26  2  0  0  0  0
 29 34  1  0  0  0  0
 32 42  1  6  0  0  0
 32 39  1  0  0  0  0
 32 28  1  0  0  0  0
 32 38  1  0  0  0  0
 33 30  1  0  0  0  0
 33 34  1  0  0  0  0
 33 31  1  1  0  0  0
 34 35  2  0  0  0  0
 36 40  2  0  0  0  0
 37 30  2  0  0  0  0
 38 37  1  0  0  0  0
 38 29  2  0  0  0  0
 39 36  1  0  0  0  0
 40 29  1  0  0  0  0
 41 42  1  0  0  0  0
 43 42  2  0  0  0  0
 44 45  1  0  0  0  0
 45 48  1  0  0  0  0
 46 48  1  0  0  0  0
 48 47  2  0  0  0  0
 51 50  1  6  0  0  0
 52 53  1  0  0  0  0
 52 54  1  0  0  0  0
 54 46  1  6  0  0  0
 54 56  1  0  0  0  0
 55 53  1  6  0  0  0
 55 57  1  0  0  0  0
 55 51  1  0  0  0  0
 56 49  1  6  0  0  0
 56 51  1  0  0  0  0
 57 60  1  1  0  0  0
 58 62  1  0  0  0  0
 58 57  1  0  0  0  0
 60 59  1  0  0  0  0
 61 59  1  0  0  0  0
 62 61  1  0  0  0  0
M  END
>  <MODEL>
2

>  <REMARK>
 VINA RESULT:      -5.8      1.758      2.581
  Name = 
  9 active torsions:
  status: ('A' for Active; 'I' for Inactive)
    1  A    between atoms: N_5  and  C_51
    2  A    between atoms: C_7  and  N_33
    3  A    between atoms: C_7  and  C_52
    4  A    between atoms: C_10  and  C_18
    5  A    between atoms: N_16  and  C_41
    6  A    between atoms: N_21  and  C_50
    7  A    between atoms: N_43  and  C_56
    8  A    between atoms: C_49  and  C_53
    9  A    between atoms: C_51  and  C_53
                            x       y       z     vdW  Elec       q    Type
                         _______ _______ _______ _____ _____    ______ ____

>  <TORSDO>
F 9

$$$$
=
 OpenBabel10222418353D

 62 69  0  0  1  0  0  0  0  0999 V2000
  189.7600  176.2290  136.6760 C   0  0  0  0  0  3  0  0  0  0  0  0
  191.0020  178.3580  141.2240 N   0  0  0  0  0  2  0  0  0  0  0  0
  193.1470  176.6180  138.1770 C   0  0  0  0  0  0  0  0  0  0  0  0
  188.8970  176.4150  137.7860 C   0  0  0  0  0  0  0  0  0  0  0  0
  186.2720  175.9010  137.5970 C   0  0  0  0  0  3  0  0  0  0  0  0
  193.6480  176.9180  139.3880 N   0  0  0  0  0  0  0  0  0  0  0  0
  192.8510  177.2270  140.4830 N   0  0  0  0  0  0  0  0  0  0  0  0
  190.8740  177.0530  139.0540 C   0  0  2  0  0  3  0  0  0  0  0  0
  191.7120  176.2150  138.1710 C   0  0  1  0  0  3  0  0  0  0  0  0
  191.5640  177.3690  140.4010 C   0  0  0  0  0  0  0  0  0  0  0  0
  189.4850  176.6050  139.1480 C   0  0  0  0  0  2  0  0  0  0  0  0
  193.9090  176.8300  136.9800 N   0  0  0  0  0  2  0  0  0  0  0  0
  191.0510  176.1520  136.9010 N   0  0  0  0  0  0  0  0  0  0  0  0
  187.5460  176.2590  137.6240 C   0  0  0  0  0  0  0  0  0  0  0  0
  196.0510  174.0450  135.7180 C   0  0  0  0  0  0  0  0  0  0  0  0
  198.1530  173.1630  134.8300 C   0  0  0  0  0  1  0  0  0  0  0  0
  197.6430  175.4850  134.5940 C   0  0  0  0  0  3  0  0  0  0  0  0
  195.8940  177.0940  135.4450 C   0  0  0  0  0  3  0  0  0  0  0  0
  196.8890  176.7310  134.6440 C   0  0  0  0  0  3  0  0  0  0  0  0
  195.6200  172.7740  136.0400 N   0  0  0  0  0  0  0  0  0  0  0  0
  195.2650  176.3400  136.5480 C   0  0  2  0  0  3  0  0  0  0  0  0
  195.1210  174.9120  136.2860 N   0  0  0  0  0  0  0  0  0  0  0  0
  197.3010  174.3170  135.0780 C   0  0  0  0  0  0  0  0  0  0  0  0
  194.1780  174.2550  136.8920 N   0  0  0  0  0  0  0  0  0  0  0  0
  194.4830  172.9570  136.7440 C   0  0  0  0  0  3  0  0  0  0  0  0
  184.8320  176.2450  137.1160 C   0  0  0  0  0  0  0  0  0  0  0  0
  184.5980  175.6960  136.0040 O   0  0  0  0  0  0  0  0  0  0  0  0
  183.8170  177.1160  137.7340 N   0  0  0  0  0  2  0  0  0  0  0  0
  180.9680  175.6010  136.0040 C   0  0  0  0  0  0  0  0  0  0  0  0
  180.5050  174.3930  138.5980 C   0  0  0  0  0  3  0  0  0  0  0  0
  178.9310  172.7410  137.5230 C   0  0  0  0  0  1  0  0  0  0  0  0
  182.4500  177.4010  137.0760 C   0  0  2  0  0  0  0  0  0  0  0  0
  179.4490  174.2150  137.5190 C   0  0  2  0  0  3  0  0  0  0  0  0
  180.0240  174.5490  136.1680 C   0  0  0  0  0  0  0  0  0  0  0  0
  179.4520  174.1370  135.1460 O   0  0  0  0  0  0  0  0  0  0  0  0
  181.6500  177.4210  134.5940 C   0  0  0  0  0  3  0  0  0  0  0  0
  181.5400  175.2610  138.3390 C   0  0  0  0  0  3  0  0  0  0  0  0
  181.6780  176.0720  137.0730 C   0  0  0  0  0  0  0  0  0  0  0  0
  182.6970  177.7970  135.5840 C   0  0  0  0  0  2  0  0  0  0  0  0
  180.8770  176.3440  134.7100 C   0  0  0  0  0  3  0  0  0  0  0  0
  182.4460  179.3140  138.4770 O   0  0  0  0  0  1  0  0  0  0  0  0
  181.7050  178.5380  137.7740 C   0  0  0  0  0  0  0  0  0  0  0  0
  180.3600  178.4820  138.1260 O   0  0  0  0  0  0  0  0  0  0  0  0
  191.0840  178.4030  142.6580 C   0  0  0  0  0  2  0  0  0  0  0  0
  190.9300  176.9750  143.2860 C   0  0  0  0  0  2  0  0  0  0  0  0
  188.5390  177.7840  142.8870 N   0  0  0  0  0  2  0  0  0  0  0  0
  189.0850  175.5700  143.3100 O   0  0  0  0  0  0  0  0  0  0  0  0
  189.4640  176.7180  143.1700 C   0  0  0  0  0  0  0  0  0  0  0  0
  186.9180  179.9080  142.3790 O   0  0  0  0  0  1  0  0  0  0  0  0
  184.5190  177.3840  141.3200 O   0  0  0  0  0  1  0  0  0  0  0  0
  185.0450  178.5740  141.8320 C   0  0  1  0  0  3  0  0  0  0  0  0
  186.4550  177.7940  144.3160 C   0  0  0  0  0  2  0  0  0  0  0  0
  184.8930  177.7570  144.2240 C   0  0  0  0  0  2  0  0  0  0  0  0
  187.0900  177.6020  142.8930 C   0  0  1  0  0  3  0  0  0  0  0  0
  184.4590  178.8090  143.2060 C   0  0  2  0  0  3  0  0  0  0  0  0
  186.5510  178.6490  141.9270 C   0  0  2  0  0  3  0  0  0  0  0  0
  183.0340  179.2320  143.1880 N   0  0  1  0  0  0  0  0  0  0  0  0
  182.6110  179.5210  141.9190 O   0  0  0  0  0  0  0  0  0  0  0  0
  180.7350  179.1740  144.1620 C   0  0  0  0  0  2  0  0  0  0  0  0
  182.1010  178.5270  144.0980 C   0  0  0  0  0  2  0  0  0  0  0  0
  180.3360  179.6950  142.7340 C   0  0  0  0  0  2  0  0  0  0  0  0
  181.2670  179.1010  141.7350 C   0  0  0  0  0  2  0  0  0  0  0  0
  1 13  2  0  0  0  0
  1  4  1  0  0  0  0
  2 44  1  0  0  0  0
  3  6  2  0  0  0  0
  4 11  1  0  0  0  0
  5 14  2  0  0  0  0
  6  7  1  0  0  0  0
  8 11  1  1  0  0  0
  8 10  1  0  0  0  0
  9 13  1  6  0  0  0
  9  3  1  0  0  0  0
  9  8  1  0  0  0  0
 10  7  2  0  0  0  0
 10  2  1  0  0  0  0
 12  3  1  0  0  0  0
 14  4  2  0  0  0  0
 15 20  2  0  0  0  0
 15 22  1  0  0  0  0
 16 23  1  0  0  0  0
 17 19  1  0  0  0  0
 17 23  2  0  0  0  0
 18 21  1  0  0  0  0
 19 18  2  0  0  0  0
 20 25  1  0  0  0  0
 21 12  1  6  0  0  0
 22 21  1  0  0  0  0
 22 24  1  0  0  0  0
 23 15  1  0  0  0  0
 25 24  2  0  0  0  0
 26  5  1  0  0  0  0
 26 28  1  0  0  0  0
 27 26  2  0  0  0  0
 29 34  1  0  0  0  0
 29 38  2  0  0  0  0
 32 28  1  1  0  0  0
 32 42  1  0  0  0  0
 33 31  1  6  0  0  0
 33 30  1  0  0  0  0
 34 33  1  0  0  0  0
 35 34  2  0  0  0  0
 36 40  2  0  0  0  0
 36 39  1  0  0  0  0
 37 30  2  0  0  0  0
 38 32  1  0  0  0  0
 38 37  1  0  0  0  0
 39 32  1  0  0  0  0
 40 29  1  0  0  0  0
 42 43  2  0  0  0  0
 42 41  1  0  0  0  0
 44 45  1  0  0  0  0
 46 48  1  0  0  0  0
 48 45  1  0  0  0  0
 48 47  2  0  0  0  0
 51 50  1  1  0  0  0
 51 56  1  0  0  0  0
 51 55  1  0  0  0  0
 53 52  1  0  0  0  0
 54 46  1  1  0  0  0
 54 52  1  0  0  0  0
 55 53  1  1  0  0  0
 56 49  1  1  0  0  0
 56 54  1  0  0  0  0
 57 55  1  0  0  0  0
 57 60  1  6  0  0  0
 58 57  1  0  0  0  0
 60 59  1  0  0  0  0
 61 59  1  0  0  0  0
 62 58  1  0  0  0  0
 62 61  1  0  0  0  0
M  END
>  <MODEL>
3

>  <REMARK>
 VINA RESULT:      -5.4      1.732      3.242
  Name = 
  9 active torsions:
  status: ('A' for Active; 'I' for Inactive)
    1  A    between atoms: N_5  and  C_51
    2  A    between atoms: C_7  and  N_33
    3  A    between atoms: C_7  and  C_52
    4  A    between atoms: C_10  and  C_18
    5  A    between atoms: N_16  and  C_41
    6  A    between atoms: N_21  and  C_50
    7  A    between atoms: N_43  and  C_56
    8  A    between atoms: C_49  and  C_53
    9  A    between atoms: C_51  and  C_53
                            x       y       z     vdW  Elec       q    Type
                         _______ _______ _______ _____ _____    ______ ____

>  <TORSDO>
F 9

$$$$
=
 OpenBabel10222418353D

 62 69  0  0  1  0  0  0  0  0999 V2000
  185.9450  177.5600  144.4470 C   0  0  0  0  0  3  0  0  0  0  0  0
  189.8930  177.2760  141.1170 N   0  0  0  0  0  2  0  0  0  0  0  0
  189.5850  177.3770  145.2160 C   0  0  0  0  0  0  0  0  0  0  0  0
  185.9270  177.9410  143.0800 C   0  0  0  0  0  0  0  0  0  0  0  0
  183.6440  178.6640  141.8760 C   0  0  0  0  0  3  0  0  0  0  0  0
  190.7340  177.5220  144.5350 N   0  0  0  0  0  0  0  0  0  0  0  0
  190.7790  177.7760  143.1700 N   0  0  0  0  0  0  0  0  0  0  0  0
  188.3390  177.6160  143.0910 C   0  0  2  0  0  3  0  0  0  0  0  0
  188.3750  177.9210  144.5360 C   0  0  1  0  0  3  0  0  0  0  0  0
  189.7210  177.7780  142.4170 C   0  0  0  0  0  0  0  0  0  0  0  0
  187.2190  178.2350  142.3840 C   0  0  0  0  0  2  0  0  0  0  0  0
  189.5280  176.6120  146.4290 N   0  0  0  0  0  2  0  0  0  0  0  0
  187.0970  177.5570  145.0740 N   0  0  0  0  0  0  0  0  0  0  0  0
  184.7300  178.1880  142.4630 C   0  0  0  0  0  0  0  0  0  0  0  0
  192.7570  176.2820  148.2740 C   0  0  0  0  0  0  0  0  0  0  0  0
  194.1530  176.5690  150.2630 C   0  0  0  0  0  1  0  0  0  0  0  0
  192.2160  177.9360  149.9610 C   0  0  0  0  0  3  0  0  0  0  0  0
  190.2430  178.0320  148.3890 C   0  0  0  0  0  3  0  0  0  0  0  0
  191.0450  178.5250  149.3250 C   0  0  0  0  0  3  0  0  0  0  0  0
  193.6560  175.3820  147.7370 N   0  0  0  0  0  0  0  0  0  0  0  0
  190.2900  176.7150  147.7220 C   0  0  2  0  0  3  0  0  0  0  0  0
  191.6400  176.2380  147.4420 N   0  0  0  0  0  0  0  0  0  0  0  0
  192.9540  176.9440  149.5260 C   0  0  0  0  0  0  0  0  0  0  0  0
  191.8210  175.4080  146.4590 N   0  0  0  0  0  0  0  0  0  0  0  0
  193.0450  174.8870  146.6410 C   0  0  0  0  0  3  0  0  0  0  0  0
  182.2610  178.3410  141.2370 C   0  0  0  0  0  0  0  0  0  0  0  0
  181.3830  179.1410  141.6640 O   0  0  0  0  0  0  0  0  0  0  0  0
  181.8820  177.2580  140.3120 N   0  0  0  0  0  2  0  0  0  0  0  0
  179.7940  175.6350  137.7790 C   0  0  0  0  0  0  0  0  0  0  0  0
  180.6740  173.2250  139.1280 C   0  0  0  0  0  3  0  0  0  0  0  0
  179.8860  171.8610  137.1570 C   0  0  0  0  0  1  0  0  0  0  0  0
  180.4320  177.0450  139.8270 C   0  0  2  0  0  0  0  0  0  0  0  0
  179.5990  173.1030  138.0600 C   0  0  2  0  0  3  0  0  0  0  0  0
  179.5630  174.3500  137.2150 C   0  0  0  0  0  0  0  0  0  0  0  0
  179.0200  174.3110  136.0990 O   0  0  0  0  0  0  0  0  0  0  0  0
  179.1080  177.9360  137.7640 C   0  0  0  0  0  3  0  0  0  0  0  0
  181.0460  174.4910  139.5170 C   0  0  0  0  0  3  0  0  0  0  0  0
  180.4350  175.7630  138.9800 C   0  0  0  0  0  0  0  0  0  0  0  0
  180.0570  178.2280  138.8750 C   0  0  0  0  0  2  0  0  0  0  0  0
  179.0190  176.7530  137.1610 C   0  0  0  0  0  3  0  0  0  0  0  0
  178.9410  178.1480  141.3040 O   0  0  0  0  0  0  0  0  0  0  0  0
  179.4390  177.0090  140.9870 C   0  0  0  0  0  0  0  0  0  0  0  0
  179.4510  176.0410  141.9870 O   0  0  0  0  0  1  0  0  0  0  0  0
  190.8010  177.7960  140.1300 C   0  0  0  0  0  2  0  0  0  0  0  0
  191.5210  176.6430  139.3510 C   0  0  0  0  0  2  0  0  0  0  0  0
  189.4350  177.2140  137.9900 N   0  0  0  0  0  2  0  0  0  0  0  0
  190.9550  175.5740  137.3720 O   0  0  0  0  0  0  0  0  0  0  0  0
  190.6280  176.4290  138.1740 C   0  0  0  0  0  0  0  0  0  0  0  0
  186.8760  178.0950  138.2600 O   0  0  0  0  0  1  0  0  0  0  0  0
  186.8290  178.0170  134.6220 O   0  0  0  0  0  1  0  0  0  0  0  0
  186.3970  177.9570  135.9500 C   0  0  1  0  0  3  0  0  0  0  0  0
  187.7320  175.5760  137.0960 C   0  0  0  0  0  2  0  0  0  0  0  0
  186.5930  175.4340  136.0310 C   0  0  0  0  0  2  0  0  0  0  0  0
  188.4680  176.9520  136.9280 C   0  0  1  0  0  3  0  0  0  0  0  0
  185.6740  176.6460  136.1640 C   0  0  2  0  0  3  0  0  0  0  0  0
  187.4680  178.1000  137.0060 C   0  0  2  0  0  3  0  0  0  0  0  0
  184.3310  176.5890  135.5310 N   0  0  1  0  0  0  0  0  0  0  0  0
  184.0710  175.3500  135.0120 O   0  0  0  0  0  0  0  0  0  0  0  0
  181.9670  177.3780  135.3680 C   0  0  0  0  0  2  0  0  0  0  0  0
  183.2280  177.3170  136.2010 C   0  0  0  0  0  2  0  0  0  0  0  0
  181.7780  176.0170  134.6050 C   0  0  0  0  0  2  0  0  0  0  0  0
  182.7040  175.0100  135.1940 C   0  0  0  0  0  2  0  0  0  0  0  0
  1 13  2  0  0  0  0
  2 10  1  0  0  0  0
  3 12  1  0  0  0  0
  4  1  1  0  0  0  0
  5 14  2  0  0  0  0
  6  3  2  0  0  0  0
  7  6  1  0  0  0  0
  8 11  1  6  0  0  0
  8  9  1  0  0  0  0
  9 13  1  1  0  0  0
  9  3  1  0  0  0  0
 10  8  1  0  0  0  0
 10  7  2  0  0  0  0
 11  4  1  0  0  0  0
 14  4  2  0  0  0  0
 15 23  1  0  0  0  0
 18 19  2  0  0  0  0
 19 17  1  0  0  0  0
 20 15  2  0  0  0  0
 21 12  1  6  0  0  0
 21 18  1  0  0  0  0
 22 21  1  0  0  0  0
 22 15  1  0  0  0  0
 23 17  2  0  0  0  0
 23 16  1  0  0  0  0
 24 25  2  0  0  0  0
 24 22  1  0  0  0  0
 25 20  1  0  0  0  0
 26 27  2  0  0  0  0
 26  5  1  0  0  0  0
 28 26  1  0  0  0  0
 29 38  2  0  0  0  0
 30 37  2  0  0  0  0
 32 28  1  1  0  0  0
 32 42  1  0  0  0  0
 33 31  1  6  0  0  0
 33 30  1  0  0  0  0
 34 29  1  0  0  0  0
 34 33  1  0  0  0  0
 35 34  2  0  0  0  0
 36 39  1  0  0  0  0
 38 37  1  0  0  0  0
 38 32  1  0  0  0  0
 39 32  1  0  0  0  0
 40 36  2  0  0  0  0
 40 29  1  0  0  0  0
 42 41  2  0  0  0  0
 42 43  1  0  0  0  0
 44  2  1  0  0  0  0
 45 44  1  0  0  0  0
 46 48  1  0  0  0  0
 47 48  2  0  0  0  0
 48 45  1  0  0  0  0
 51 50  1  6  0  0  0
 51 55  1  0  0  0  0
 51 56  1  0  0  0  0
 53 52  1  0  0  0  0
 54 56  1  0  0  0  0
 54 52  1  0  0  0  0
 54 46  1  1  0  0  0
 55 53  1  6  0  0  0
 56 49  1  1  0  0  0
 57 55  1  0  0  0  0
 57 60  1  1  0  0  0
 58 62  1  0  0  0  0
 58 57  1  0  0  0  0
 59 60  1  0  0  0  0
 61 62  1  0  0  0  0
 61 59  1  0  0  0  0
M  END
>  <MODEL>
4

>  <REMARK>
 VINA RESULT:      -4.3      3.975      8.309
  Name = 
  9 active torsions:
  status: ('A' for Active; 'I' for Inactive)
    1  A    between atoms: N_5  and  C_51
    2  A    between atoms: C_7  and  N_33
    3  A    between atoms: C_7  and  C_52
    4  A    between atoms: C_10  and  C_18
    5  A    between atoms: N_16  and  C_41
    6  A    between atoms: N_21  and  C_50
    7  A    between atoms: N_43  and  C_56
    8  A    between atoms: C_49  and  C_53
    9  A    between atoms: C_51  and  C_53
                            x       y       z     vdW  Elec       q    Type
                         _______ _______ _______ _____ _____    ______ ____

>  <TORSDO>
F 9

$$$$
