=
 OpenBabel10222420423D

 66 71  0  0  1  0  0  0  0  0999 V2000
  188.6530  177.4570  140.2120 C   0  0  2  0  0  3  0  0  0  0  0  0
  192.2340  176.5970  138.9980 C   0  0  2  0  0  3  0  0  0  0  0  0
  190.1180  177.6980  139.8260 C   0  0  2  0  0  3  0  0  0  0  0  0
  190.5870  176.7760  138.3170 S   0  0  0  0  0  0  0  0  0  0  0  0
  191.0520  177.2260  140.9420 C   0  0  0  0  0  2  0  0  0  0  0  0
  192.3400  176.8710  140.2910 C   0  0  0  0  0  2  0  0  0  0  0  0
  193.4380  176.3070  138.1550 C   0  0  1  0  0  3  0  0  0  0  0  0
  194.5200  175.9850  138.9810 O   0  0  0  0  0  1  0  0  0  0  0  0
  193.2400  173.8670  134.5950 C   0  0  0  0  0  2  0  0  0  0  0  0
  193.1540  175.1730  137.1680 C   0  0  2  0  0  3  0  0  0  0  0  0
  194.1740  173.3900  135.7110 C   0  0  1  0  0  3  0  0  0  0  0  0
  194.4610  174.5270  136.6900 C   0  0  0  0  0  2  0  0  0  0  0  0
  192.4170  175.6860  136.0120 N   0  0  0  0  0  2  0  0  0  0  0  0
  192.0090  174.5580  135.1790 C   0  0  0  0  0  2  0  0  0  0  0  0
  193.6050  172.1830  136.4480 C   0  0  0  0  0  2  0  0  0  0  0  0
  196.1510  171.9420  136.0510 N   0  0  0  0  0  1  0  0  0  0  0  0
  194.9380  171.0730  136.9920 S   0  0  0  0  0  0  0  0  0  0  0  0
  187.0830  178.0990  138.4720 N   0  0  0  0  0  0  0  0  0  0  0  0
  187.7850  177.1750  139.0190 C   0  0  0  0  0  3  0  0  0  0  0  0
  186.2740  177.8080  137.3180 C   0  0  1  0  0  3  0  0  0  0  0  0
  184.9330  178.5170  137.4300 C   0  0  0  0  0  2  0  0  0  0  0  0
  184.2130  178.0940  138.6960 C   0  0  0  0  0  2  0  0  0  0  0  0
  182.8510  178.6030  138.6840 N   0  0  0  0  0  2  0  0  0  0  0  0
  181.9920  177.5990  139.3060 C   0  0  1  0  0  3  0  0  0  0  0  0
  181.1150  178.2210  140.2930 N   0  0  0  0  0  2  0  0  0  0  0  0
  180.6200  180.3690  138.9860 C   0  0  0  0  0  3  0  0  0  0  0  0
  179.8730  181.4280  139.2560 C   0  0  0  0  0  0  0  0  0  0  0  0
  179.6890  179.9740  141.0400 N   0  0  0  0  0  0  0  0  0  0  0  0
  179.2150  181.2720  140.5910 C   0  0  0  0  0  2  0  0  0  0  0  0
  180.4680  179.4880  140.1340 C   0  0  0  0  0  0  0  0  0  0  0  0
  179.2490  184.9400  138.0060 C   0  0  0  0  0  0  0  0  0  0  0  0
  178.9350  186.2880  138.5400 C   0  0  0  0  0  1  0  0  0  0  0  0
  179.8540  182.4400  136.9790 C   0  0  0  0  0  3  0  0  0  0  0  0
  179.4010  184.7450  136.6350 C   0  0  0  0  0  3  0  0  0  0  0  0
  179.7030  182.5870  138.3620 C   0  0  0  0  0  0  0  0  0  0  0  0
  179.6980  183.5090  136.1540 N   0  0  0  0  0  0  0  0  0  0  0  0
  179.3970  183.8570  138.8710 C   0  0  0  0  0  3  0  0  0  0  0  0
  179.3470  177.2660  136.5440 C   0  0  0  0  0  2  0  0  0  0  0  0
  179.8320  176.4960  138.7580 N   0  0  0  0  0  2  0  0  0  0  0  0
  179.0470  176.2060  137.5740 C   0  0  0  0  0  2  0  0  0  0  0  0
  181.1060  177.6570  136.6940 S   0  0  0  0  0  0  0  0  0  0  0  0
  181.1820  176.7820  138.2880 C   0  0  1  0  0  3  0  0  0  0  0  0
  186.9370  178.2380  136.1690 O   0  0  0  0  0  0  0  0  0  0  0  0
  186.5820  177.3170  135.1800 C   0  0  0  0  0  2  0  0  0  0  0  0
  188.2910  175.4600  135.7100 C   0  0  0  0  0  1  0  0  0  0  0  0
  185.9030  175.1610  136.1230 C   0  0  0  0  0  2  0  0  0  0  0  0
  186.8790  175.9330  135.6490 C   0  0  0  0  0  0  0  0  0  0  0  0
  188.0950  178.6410  140.9880 C   0  0  0  0  0  2  0  0  0  0  0  0
  188.0890  177.1910  142.9560 C   0  0  0  0  0  3  0  0  0  0  0  0
  188.2830  178.4010  142.4440 C   0  0  0  0  0  3  0  0  0  0  0  0
  188.2840  176.9470  144.4200 C   0  0  2  0  0  3  0  0  0  0  0  0
  187.0900  177.4320  145.1840 C   0  0  0  0  0  0  0  0  0  0  0  0
  186.6620  176.7800  146.1760 O   0  0  0  0  0  0  0  0  0  0  0  0
  186.4580  178.6520  144.7920 N   0  0  0  0  0  2  0  0  0  0  0  0
  185.4530  179.2120  146.9560 C   0  0  0  0  0  1  0  0  0  0  0  0
  185.2800  179.2120  145.4490 C   0  0  2  0  0  3  0  0  0  0  0  0
  184.0910  178.4620  145.0710 N   0  0  0  0  0  2  0  0  0  0  0  0
  181.9630  178.9140  144.0100 C   0  0  0  0  0  1  0  0  0  0  0  0
  183.4580  179.1530  143.9600 C   0  0  2  0  0  3  0  0  0  0  0  0
  184.1140  178.5290  142.3810 S   0  0  0  0  0  1  0  0  0  0  0  0
  189.5650  177.5570  144.9210 C   0  0  0  0  0  0  0  0  0  0  0  0
  189.5380  178.6650  145.5230 O   0  0  0  0  0  0  0  0  0  0  0  0
  190.7870  176.9420  144.6400 O   0  0  0  0  0  0  0  0  0  0  0  0
  191.8390  176.8950  145.5930 C   0  0  0  0  0  3  0  0  0  0  0  0
  191.2510  176.6530  146.9680 C   0  0  0  0  0  2  0  0  0  0  0  0
  191.8890  175.5110  146.2110 C   0  0  0  0  0  2  0  0  0  0  0  0
  1 19  1  6  0  0  0
  1 48  1  0  0  0  0
  2  7  1  6  0  0  0
  2  6  1  0  0  0  0
  3  1  1  1  0  0  0
  3  5  1  0  0  0  0
  4  2  1  0  0  0  0
  4  3  1  0  0  0  0
  6  5  1  0  0  0  0
  7  8  1  1  0  0  0
  9 14  1  0  0  0  0
  9 11  1  0  0  0  0
 10  7  1  1  0  0  0
 11 15  1  1  0  0  0
 11 12  1  0  0  0  0
 12 10  1  0  0  0  0
 13 10  1  0  0  0  0
 14 13  1  0  0  0  0
 15 17  1  0  0  0  0
 16 17  1  0  0  0  0
 18 19  2  0  0  0  0
 20 21  1  1  0  0  0
 20 18  1  0  0  0  0
 21 22  1  0  0  0  0
 23 22  1  0  0  0  0
 24 23  1  6  0  0  0
 24 25  1  0  0  0  0
 26 27  2  0  0  0  0
 26 30  1  0  0  0  0
 27 29  1  0  0  0  0
 29 28  1  0  0  0  0
 30 25  1  0  0  0  0
 30 28  2  0  0  0  0
 31 32  1  0  0  0  0
 31 37  1  0  0  0  0
 33 35  1  0  0  0  0
 34 31  2  0  0  0  0
 35 37  2  0  0  0  0
 35 27  1  0  0  0  0
 36 34  1  0  0  0  0
 36 33  2  0  0  0  0
 38 41  1  0  0  0  0
 38 40  1  0  0  0  0
 40 39  1  0  0  0  0
 41 42  1  0  0  0  0
 42 39  1  0  0  0  0
 42 24  1  1  0  0  0
 43 20  1  0  0  0  0
 44 47  1  0  0  0  0
 44 43  1  0  0  0  0
 47 45  1  0  0  0  0
 47 46  2  0  0  0  0
 48 50  1  0  0  0  0
 50 49  2  0  0  0  0
 51 49  1  6  0  0  0
 51 61  1  0  0  0  0
 51 52  1  0  0  0  0
 52 53  2  0  0  0  0
 54 52  1  0  0  0  0
 54 56  1  0  0  0  0
 56 55  1  1  0  0  0
 57 56  1  0  0  0  0
 59 58  1  6  0  0  0
 59 57  1  0  0  0  0
 60 59  1  0  0  0  0
 61 62  2  0  0  0  0
 63 61  1  0  0  0  0
 63 64  1  0  0  0  0
 64 66  1  0  0  0  0
 64 65  1  0  0  0  0
 66 65  1  0  0  0  0
M  END
>  <MODEL>
1

>  <REMARK>
 VINA RESULT:      -6.0      0.000      0.000
  Name = 
  27 active torsions:
  status: ('A' for Active; 'I' for Inactive)
    1  A    between atoms: C_3  and  C_5
    2  A    between atoms: C_3  and  C_14
    3  A    between atoms: C_6  and  N_10
    4  A    between atoms: C_6  and  N_50
    5  A    between atoms: C_6  and  C_61
    6  A    between atoms: O_7  and  C_37
    7  A    between atoms: O_7  and  C_45
    8  A    between atoms: C_8  and  C_17
    9  A    between atoms: C_9  and  C_42
   10  A    between atoms: N_11  and  C_37
   11  A    between atoms: C_13  and  C_42
   12  A    between atoms: C_13  and  O_53
   13  A    between atoms: C_17  and  C_18
   14  A    between atoms: C_17  and  C_26
   15  A    between atoms: C_18  and  C_48
   16  A    between atoms: C_23  and  C_49
   17  A    between atoms: C_27  and  C_28
   18  A    between atoms: C_27  and  C_37
   19  A    between atoms: C_28  and  N_50
   20  A    between atoms: C_29  and  C_55
   21  A    between atoms: C_31  and  C_42
   22  A    between atoms: C_35  and  O_53
   23  A    between atoms: C_44  and  C_45
   24  A    between atoms: C_46  and  N_59
   25  A    between atoms: C_46  and  N_66
   26  A    between atoms: C_51  and  N_59
   27  A    between atoms: C_55  and  S_60
                            x       y       z     vdW  Elec       q    Type
                         _______ _______ _______ _____ _____    ______ ____

>  <TORSDO>
F 27

$$$$
=
 OpenBabel10222420423D

 66 71  0  0  1  0  0  0  0  0999 V2000
  184.4830  178.1440  144.0410 C   0  0  2  0  0  3  0  0  0  0  0  0
  186.9090  178.1940  147.0660 C   0  0  2  0  0  3  0  0  0  0  0  0
  185.3790  178.7420  145.1340 C   0  0  2  0  0  3  0  0  0  0  0  0
  186.9450  177.8120  145.3170 S   0  0  0  0  0  0  0  0  0  0  0  0
  184.6760  178.6970  146.4910 C   0  0  0  0  0  2  0  0  0  0  0  0
  185.7470  178.6450  147.5190 C   0  0  0  0  0  2  0  0  0  0  0  0
  188.1300  178.1560  147.9340 C   0  0  1  0  0  3  0  0  0  0  0  0
  187.7970  177.6240  149.1840 O   0  0  0  0  0  1  0  0  0  0  0  0
  191.5400  176.9510  145.5710 C   0  0  0  0  0  2  0  0  0  0  0  0
  189.2430  177.3380  147.2760 C   0  0  2  0  0  3  0  0  0  0  0  0
  191.7310  177.0000  147.0900 C   0  0  1  0  0  3  0  0  0  0  0  0
  190.6220  177.8230  147.7420 C   0  0  0  0  0  2  0  0  0  0  0  0
  189.1570  177.4540  145.8200 N   0  0  0  0  0  2  0  0  0  0  0  0
  190.1150  176.5290  145.2200 C   0  0  0  0  0  2  0  0  0  0  0  0
  191.7870  175.6030  147.6980 C   0  0  0  0  0  2  0  0  0  0  0  0
  193.1240  177.0440  149.3810 N   0  0  0  0  0  1  0  0  0  0  0  0
  193.2680  175.4090  148.7340 S   0  0  0  0  0  0  0  0  0  0  0  0
  186.4250  178.0900  142.5800 N   0  0  0  0  0  0  0  0  0  0  0  0
  185.1470  178.1390  142.6940 C   0  0  0  0  0  3  0  0  0  0  0  0
  187.0360  178.0670  141.2780 C   0  0  1  0  0  3  0  0  0  0  0  0
  186.2740  178.9810  140.3300 C   0  0  0  0  0  2  0  0  0  0  0  0
  185.6030  178.1710  139.2370 C   0  0  0  0  0  2  0  0  0  0  0  0
  185.8710  178.7730  137.9410 N   0  0  0  0  0  2  0  0  0  0  0  0
  185.9800  177.6950  136.9610 C   0  0  1  0  0  3  0  0  0  0  0  0
  184.8790  177.7630  136.0060 N   0  0  0  0  0  2  0  0  0  0  0  0
  184.2040  175.2920  136.1040 C   0  0  0  0  0  3  0  0  0  0  0  0
  183.2540  174.6000  135.4960 C   0  0  0  0  0  0  0  0  0  0  0  0
  183.0800  176.7910  134.7880 N   0  0  0  0  0  0  0  0  0  0  0  0
  182.4550  175.4930  134.5990 C   0  0  0  0  0  2  0  0  0  0  0  0
  184.0500  176.6580  135.6280 C   0  0  0  0  0  0  0  0  0  0  0  0
  181.5080  171.2670  135.8430 C   0  0  0  0  0  0  0  0  0  0  0  0
  180.1350  170.7040  135.8150 C   0  0  0  0  0  1  0  0  0  0  0  0
  184.0840  172.2820  135.8830 C   0  0  0  0  0  3  0  0  0  0  0  0
  182.6050  170.4320  136.0430 C   0  0  0  0  0  3  0  0  0  0  0  0
  183.0110  173.1590  135.6860 C   0  0  0  0  0  0  0  0  0  0  0  0
  183.8600  170.9530  136.0570 N   0  0  0  0  0  0  0  0  0  0  0  0
  181.7120  172.6350  135.6680 C   0  0  0  0  0  3  0  0  0  0  0  0
  189.4410  176.1840  136.2680 C   0  0  0  0  0  2  0  0  0  0  0  0
  188.4140  178.1940  137.0660 N   0  0  0  0  0  2  0  0  0  0  0  0
  189.6420  177.6590  136.5120 C   0  0  0  0  0  2  0  0  0  0  0  0
  187.7360  175.9770  135.7050 S   0  0  0  0  0  0  0  0  0  0  0  0
  187.3350  177.6700  136.2380 C   0  0  1  0  0  3  0  0  0  0  0  0
  188.3580  178.4970  141.3810 O   0  0  0  0  0  0  0  0  0  0  0  0
  189.0980  177.3380  141.6280 C   0  0  0  0  0  2  0  0  0  0  0  0
  191.6560  177.5130  141.9040 C   0  0  0  0  0  1  0  0  0  0  0  0
  190.6070  177.4200  139.7010 C   0  0  0  0  0  2  0  0  0  0  0  0
  190.4550  177.4660  141.0220 C   0  0  0  0  0  0  0  0  0  0  0  0
  183.1580  178.8870  143.9610 C   0  0  0  0  0  2  0  0  0  0  0  0
  181.6210  179.2380  142.0920 C   0  0  0  0  0  3  0  0  0  0  0  0
  182.4000  178.4060  142.7750 C   0  0  0  0  0  3  0  0  0  0  0  0
  180.8640  178.7560  140.8940 C   0  0  2  0  0  3  0  0  0  0  0  0
  180.3710  179.9230  140.0950 C   0  0  0  0  0  0  0  0  0  0  0  0
  180.1720  181.0370  140.6530 O   0  0  0  0  0  0  0  0  0  0  0  0
  180.1540  179.7660  138.6910 N   0  0  0  0  0  2  0  0  0  0  0  0
  179.2370  180.2610  136.4720 C   0  0  0  0  0  1  0  0  0  0  0  0
  179.6600  180.8250  137.8160 C   0  0  2  0  0  3  0  0  0  0  0  0
  180.6810  181.8480  137.6400 N   0  0  0  0  0  2  0  0  0  0  0  0
  180.6250  182.6190  135.3460 C   0  0  0  0  0  1  0  0  0  0  0  0
  180.1440  182.8720  136.7600 C   0  0  2  0  0  3  0  0  0  0  0  0
  180.7080  184.5170  137.2990 S   0  0  0  0  0  1  0  0  0  0  0  0
  179.7510  177.8190  141.2780 C   0  0  0  0  0  0  0  0  0  0  0  0
  178.9430  178.1470  142.1900 O   0  0  0  0  0  0  0  0  0  0  0  0
  179.6690  176.5550  140.6900 O   0  0  0  0  0  0  0  0  0  0  0  0
  180.6150  176.1130  139.7270 C   0  0  0  0  0  3  0  0  0  0  0  0
  180.1470  174.7980  139.1390 C   0  0  0  0  0  2  0  0  0  0  0  0
  179.9580  176.0810  138.3620 C   0  0  0  0  0  2  0  0  0  0  0  0
  1 19  1  6  0  0  0
  2  6  1  0  0  0  0
  2  7  1  6  0  0  0
  3  1  1  6  0  0  0
  3  4  1  0  0  0  0
  3  5  1  0  0  0  0
  4  2  1  0  0  0  0
  5  6  1  0  0  0  0
  7  8  1  1  0  0  0
  9 11  1  0  0  0  0
 10 12  1  0  0  0  0
 10  7  1  1  0  0  0
 11 15  1  1  0  0  0
 11 12  1  0  0  0  0
 13 10  1  0  0  0  0
 14  9  1  0  0  0  0
 14 13  1  0  0  0  0
 15 17  1  0  0  0  0
 17 16  1  0  0  0  0
 18 19  2  0  0  0  0
 20 21  1  6  0  0  0
 20 43  1  0  0  0  0
 20 18  1  0  0  0  0
 22 21  1  0  0  0  0
 23 22  1  0  0  0  0
 24 25  1  6  0  0  0
 24 23  1  0  0  0  0
 27 35  1  0  0  0  0
 27 26  2  0  0  0  0
 28 30  2  0  0  0  0
 29 28  1  0  0  0  0
 29 27  1  0  0  0  0
 30 25  1  0  0  0  0
 30 26  1  0  0  0  0
 31 34  1  0  0  0  0
 32 31  1  0  0  0  0
 33 36  1  0  0  0  0
 34 36  2  0  0  0  0
 35 33  2  0  0  0  0
 37 35  1  0  0  0  0
 37 31  2  0  0  0  0
 38 40  1  0  0  0  0
 40 39  1  0  0  0  0
 41 42  1  0  0  0  0
 41 38  1  0  0  0  0
 42 24  1  1  0  0  0
 42 39  1  0  0  0  0
 43 44  1  0  0  0  0
 46 47  2  0  0  0  0
 47 44  1  0  0  0  0
 47 45  1  0  0  0  0
 48  1  1  0  0  0  0
 49 50  2  0  0  0  0
 50 48  1  0  0  0  0
 51 61  1  0  0  0  0
 51 49  1  1  0  0  0
 52 53  2  0  0  0  0
 52 51  1  0  0  0  0
 54 52  1  0  0  0  0
 56 55  1  6  0  0  0
 56 54  1  0  0  0  0
 57 56  1  0  0  0  0
 59 58  1  6  0  0  0
 59 60  1  0  0  0  0
 59 57  1  0  0  0  0
 61 62  2  0  0  0  0
 63 61  1  0  0  0  0
 64 63  1  0  0  0  0
 65 64  1  0  0  0  0
 66 65  1  0  0  0  0
 66 64  1  0  0  0  0
M  END
>  <MODEL>
2

>  <REMARK>
 VINA RESULT:      -5.8      3.711      9.648
  Name = 
  27 active torsions:
  status: ('A' for Active; 'I' for Inactive)
    1  A    between atoms: C_3  and  C_5
    2  A    between atoms: C_3  and  C_14
    3  A    between atoms: C_6  and  N_10
    4  A    between atoms: C_6  and  N_50
    5  A    between atoms: C_6  and  C_61
    6  A    between atoms: O_7  and  C_37
    7  A    between atoms: O_7  and  C_45
    8  A    between atoms: C_8  and  C_17
    9  A    between atoms: C_9  and  C_42
   10  A    between atoms: N_11  and  C_37
   11  A    between atoms: C_13  and  C_42
   12  A    between atoms: C_13  and  O_53
   13  A    between atoms: C_17  and  C_18
   14  A    between atoms: C_17  and  C_26
   15  A    between atoms: C_18  and  C_48
   16  A    between atoms: C_23  and  C_49
   17  A    between atoms: C_27  and  C_28
   18  A    between atoms: C_27  and  C_37
   19  A    between atoms: C_28  and  N_50
   20  A    between atoms: C_29  and  C_55
   21  A    between atoms: C_31  and  C_42
   22  A    between atoms: C_35  and  O_53
   23  A    between atoms: C_44  and  C_45
   24  A    between atoms: C_46  and  N_59
   25  A    between atoms: C_46  and  N_66
   26  A    between atoms: C_51  and  N_59
   27  A    between atoms: C_55  and  S_60
                            x       y       z     vdW  Elec       q    Type
                         _______ _______ _______ _____ _____    ______ ____

>  <TORSDO>
F 27

$$$$
=
 OpenBabel10222420423D

 66 71  0  0  1  0  0  0  0  0999 V2000
  185.0490  178.2880  141.5370 C   0  0  2  0  0  3  0  0  0  0  0  0
  185.2790  178.7240  145.3830 C   0  0  2  0  0  3  0  0  0  0  0  0
  185.1230  179.0240  142.8810 C   0  0  2  0  0  3  0  0  0  0  0  0
  186.3350  178.2530  144.0150 S   0  0  0  0  0  0  0  0  0  0  0  0
  183.7680  178.9880  143.5890 C   0  0  0  0  0  2  0  0  0  0  0  0
  184.0510  179.0900  145.0450 C   0  0  0  0  0  2  0  0  0  0  0  0
  185.7760  178.8450  146.7920 C   0  0  1  0  0  3  0  0  0  0  0  0
  185.0450  177.9870  147.6190 O   0  0  0  0  0  1  0  0  0  0  0  0
  189.6120  177.2300  147.9480 C   0  0  0  0  0  2  0  0  0  0  0  0
  187.2710  178.5320  146.8730 C   0  0  2  0  0  3  0  0  0  0  0  0
  189.0320  176.7500  146.6150 C   0  0  1  0  0  3  0  0  0  0  0  0
  187.5370  177.0590  146.5400 C   0  0  0  0  0  2  0  0  0  0  0  0
  187.7730  178.8230  148.2170 N   0  0  0  0  0  2  0  0  0  0  0  0
  189.2260  178.6840  148.2140 C   0  0  0  0  0  2  0  0  0  0  0  0
  189.7620  177.3650  145.4260 C   0  0  0  0  0  2  0  0  0  0  0  0
  191.5420  175.4900  145.5370 N   0  0  0  0  0  1  0  0  0  0  0  0
  191.5630  177.2510  145.6470 S   0  0  0  0  0  0  0  0  0  0  0  0
  186.6930  178.7960  139.8200 N   0  0  0  0  0  0  0  0  0  0  0  0
  186.3940  178.1450  140.8860 C   0  0  0  0  0  3  0  0  0  0  0  0
  187.9960  178.6560  139.2260 C   0  0  1  0  0  3  0  0  0  0  0  0
  188.6850  177.4150  139.7720 C   0  0  0  0  0  2  0  0  0  0  0  0
  190.0510  177.2430  139.1360 C   0  0  0  0  0  2  0  0  0  0  0  0
  189.9160  176.5990  137.8390 N   0  0  0  0  0  2  0  0  0  0  0  0
  191.2580  176.3770  137.3080 C   0  0  1  0  0  3  0  0  0  0  0  0
  192.2590  176.5900  138.3490 N   0  0  0  0  0  2  0  0  0  0  0  0
  193.9330  174.8150  137.5670 C   0  0  0  0  0  3  0  0  0  0  0  0
  195.1130  174.4330  138.0290 C   0  0  0  0  0  0  0  0  0  0  0  0
  194.3490  176.1330  139.3920 N   0  0  0  0  0  0  0  0  0  0  0  0
  195.4820  175.2360  139.2360 C   0  0  0  0  0  2  0  0  0  0  0  0
  193.4990  175.8820  138.4540 C   0  0  0  0  0  0  0  0  0  0  0  0
  196.6320  171.0590  137.2600 C   0  0  0  0  0  0  0  0  0  0  0  0
  196.5120  169.6430  137.6880 C   0  0  0  0  0  1  0  0  0  0  0  0
  196.8690  173.6880  136.4240 C   0  0  0  0  0  3  0  0  0  0  0  0
  197.5410  171.4170  136.2660 C   0  0  0  0  0  3  0  0  0  0  0  0
  195.9480  173.3760  137.4310 C   0  0  0  0  0  0  0  0  0  0  0  0
  197.6380  172.7150  135.8720 N   0  0  0  0  0  0  0  0  0  0  0  0
  195.8370  172.0420  137.8460 C   0  0  0  0  0  3  0  0  0  0  0  0
  190.2190  173.6260  134.8400 C   0  0  0  0  0  2  0  0  0  0  0  0
  190.4900  174.0150  137.1860 N   0  0  0  0  0  2  0  0  0  0  0  0
  190.3940  172.9690  136.1860 C   0  0  0  0  0  2  0  0  0  0  0  0
  191.2360  175.1200  134.8510 S   0  0  0  0  0  0  0  0  0  0  0  0
  191.4300  174.9960  136.6570 C   0  0  1  0  0  3  0  0  0  0  0  0
  187.8630  178.5480  137.8420 O   0  0  0  0  0  0  0  0  0  0  0  0
  186.4860  178.4950  137.6140 C   0  0  0  0  0  2  0  0  0  0  0  0
  184.7750  177.1030  136.2780 C   0  0  0  0  0  1  0  0  0  0  0  0
  187.1650  177.0090  135.7900 C   0  0  0  0  0  2  0  0  0  0  0  0
  186.1880  177.4840  136.5580 C   0  0  0  0  0  0  0  0  0  0  0  0
  184.0880  178.9900  140.5880 C   0  0  0  0  0  2  0  0  0  0  0  0
  182.4400  177.9760  139.0940 C   0  0  0  0  0  3  0  0  0  0  0  0
  182.9260  178.0990  140.3240 C   0  0  0  0  0  3  0  0  0  0  0  0
  181.2750  177.0750  138.8260 C   0  0  2  0  0  3  0  0  0  0  0  0
  181.7340  175.8400  138.1140 C   0  0  0  0  0  0  0  0  0  0  0  0
  182.7660  175.2270  138.5030 O   0  0  0  0  0  0  0  0  0  0  0  0
  180.9770  175.3510  137.0040 N   0  0  0  0  0  2  0  0  0  0  0  0
  180.5850  174.1450  134.9060 C   0  0  0  0  0  1  0  0  0  0  0  0
  181.3360  174.1700  136.2240 C   0  0  2  0  0  3  0  0  0  0  0  0
  181.0650  172.9620  136.9890 N   0  0  0  0  0  2  0  0  0  0  0  0
  179.8680  170.9040  136.5490 C   0  0  0  0  0  1  0  0  0  0  0  0
  180.9360  171.8570  136.0530 C   0  0  2  0  0  3  0  0  0  0  0  0
  182.5180  170.9670  135.9160 S   0  0  0  0  0  1  0  0  0  0  0  0
  180.1790  177.7860  138.0810 C   0  0  0  0  0  0  0  0  0  0  0  0
  179.1170  178.1050  138.6830 O   0  0  0  0  0  0  0  0  0  0  0  0
  180.3010  178.0120  136.7080 O   0  0  0  0  0  0  0  0  0  0  0  0
  180.0760  179.2930  136.1370 C   0  0  0  0  0  3  0  0  0  0  0  0
  181.0710  180.2760  136.7170 C   0  0  0  0  0  2  0  0  0  0  0  0
  181.2960  179.7020  135.3370 C   0  0  0  0  0  2  0  0  0  0  0  0
  1 48  1  6  0  0  0
  2  7  1  6  0  0  0
  3  1  1  6  0  0  0
  3  5  1  0  0  0  0
  3  4  1  0  0  0  0
  4  2  1  0  0  0  0
  5  6  1  0  0  0  0
  6  2  1  0  0  0  0
  7  8  1  1  0  0  0
  9 14  1  0  0  0  0
 10  7  1  1  0  0  0
 10 13  1  0  0  0  0
 11 15  1  6  0  0  0
 11  9  1  0  0  0  0
 12 11  1  0  0  0  0
 12 10  1  0  0  0  0
 14 13  1  0  0  0  0
 15 17  1  0  0  0  0
 16 17  1  0  0  0  0
 18 19  2  0  0  0  0
 19  1  1  0  0  0  0
 20 21  1  1  0  0  0
 20 18  1  0  0  0  0
 22 21  1  0  0  0  0
 23 22  1  0  0  0  0
 24 23  1  1  0  0  0
 24 25  1  0  0  0  0
 25 30  1  0  0  0  0
 26 27  2  0  0  0  0
 26 30  1  0  0  0  0
 27 29  1  0  0  0  0
 29 28  1  0  0  0  0
 30 28  2  0  0  0  0
 31 32  1  0  0  0  0
 31 37  1  0  0  0  0
 33 35  1  0  0  0  0
 34 31  2  0  0  0  0
 35 37  2  0  0  0  0
 35 27  1  0  0  0  0
 36 34  1  0  0  0  0
 36 33  2  0  0  0  0
 38 41  1  0  0  0  0
 38 40  1  0  0  0  0
 40 39  1  0  0  0  0
 41 42  1  0  0  0  0
 42 39  1  0  0  0  0
 42 24  1  1  0  0  0
 43 20  1  0  0  0  0
 44 43  1  0  0  0  0
 45 47  1  0  0  0  0
 46 47  2  0  0  0  0
 47 44  1  0  0  0  0
 49 50  2  0  0  0  0
 50 48  1  0  0  0  0
 51 49  1  6  0  0  0
 52 53  2  0  0  0  0
 52 51  1  0  0  0  0
 54 52  1  0  0  0  0
 56 55  1  6  0  0  0
 56 57  1  0  0  0  0
 56 54  1  0  0  0  0
 59 58  1  1  0  0  0
 59 57  1  0  0  0  0
 60 59  1  0  0  0  0
 61 62  2  0  0  0  0
 61 51  1  0  0  0  0
 63 61  1  0  0  0  0
 64 63  1  0  0  0  0
 64 65  1  0  0  0  0
 66 64  1  0  0  0  0
 66 65  1  0  0  0  0
M  END
>  <MODEL>
3

>  <REMARK>
 VINA RESULT:      -5.5      3.290     12.193
  Name = 
  27 active torsions:
  status: ('A' for Active; 'I' for Inactive)
    1  A    between atoms: C_3  and  C_5
    2  A    between atoms: C_3  and  C_14
    3  A    between atoms: C_6  and  N_10
    4  A    between atoms: C_6  and  N_50
    5  A    between atoms: C_6  and  C_61
    6  A    between atoms: O_7  and  C_37
    7  A    between atoms: O_7  and  C_45
    8  A    between atoms: C_8  and  C_17
    9  A    between atoms: C_9  and  C_42
   10  A    between atoms: N_11  and  C_37
   11  A    between atoms: C_13  and  C_42
   12  A    between atoms: C_13  and  O_53
   13  A    between atoms: C_17  and  C_18
   14  A    between atoms: C_17  and  C_26
   15  A    between atoms: C_18  and  C_48
   16  A    between atoms: C_23  and  C_49
   17  A    between atoms: C_27  and  C_28
   18  A    between atoms: C_27  and  C_37
   19  A    between atoms: C_28  and  N_50
   20  A    between atoms: C_29  and  C_55
   21  A    between atoms: C_31  and  C_42
   22  A    between atoms: C_35  and  O_53
   23  A    between atoms: C_44  and  C_45
   24  A    between atoms: C_46  and  N_59
   25  A    between atoms: C_46  and  N_66
   26  A    between atoms: C_51  and  N_59
   27  A    between atoms: C_55  and  S_60
                            x       y       z     vdW  Elec       q    Type
                         _______ _______ _______ _____ _____    ______ ____

>  <TORSDO>
F 27

$$$$
=
 OpenBabel10222420423D

 66 71  0  0  1  0  0  0  0  0999 V2000
  187.2490  178.4730  140.2680 C   0  0  2  0  0  3  0  0  0  0  0  0
  183.8440  178.8290  142.0880 C   0  0  2  0  0  3  0  0  0  0  0  0
  186.1710  178.2130  141.3290 C   0  0  2  0  0  3  0  0  0  0  0  0
  184.5010  178.1000  140.5900 S   0  0  0  0  0  0  0  0  0  0  0  0
  186.1300  179.3550  142.3450 C   0  0  0  0  0  2  0  0  0  0  0  0
  184.7450  179.3910  142.8810 C   0  0  0  0  0  2  0  0  0  0  0  0
  182.4100  178.6900  142.5020 C   0  0  1  0  0  3  0  0  0  0  0  0
  182.0600  179.7570  143.3360 O   0  0  0  0  0  1  0  0  0  0  0  0
  178.9430  178.4890  139.9330 C   0  0  0  0  0  2  0  0  0  0  0  0
  181.4920  178.6340  141.2800 C   0  0  2  0  0  3  0  0  0  0  0  0
  179.6880  179.8260  139.9870 C   0  0  1  0  0  3  0  0  0  0  0  0
  180.5990  179.8800  141.2120 C   0  0  0  0  0  2  0  0  0  0  0  0
  180.6490  177.4390  141.3390 N   0  0  0  0  0  2  0  0  0  0  0  0
  179.9150  177.3210  140.0820 C   0  0  0  0  0  2  0  0  0  0  0  0
  180.4910  180.0770  138.7150 C   0  0  0  0  0  2  0  0  0  0  0  0
  181.1240  182.2090  137.3920 N   0  0  0  0  0  1  0  0  0  0  0  0
  179.6450  181.2800  137.6470 S   0  0  0  0  0  0  0  0  0  0  0  0
  186.6930  177.7370  138.0200 N   0  0  0  0  0  0  0  0  0  0  0  0
  186.6690  178.6730  138.8980 C   0  0  0  0  0  3  0  0  0  0  0  0
  186.1130  177.9470  136.7200 C   0  0  1  0  0  3  0  0  0  0  0  0
  187.2110  178.1500  135.6870 C   0  0  0  0  0  2  0  0  0  0  0  0
  187.3580  176.9150  134.8190 C   0  0  0  0  0  2  0  0  0  0  0  0
  188.6670  176.3170  135.0280 N   0  0  0  0  0  2  0  0  0  0  0  0
  188.5200  175.2570  136.0220 C   0  0  1  0  0  3  0  0  0  0  0  0
  188.4720  173.9520  135.3700 N   0  0  0  0  0  2  0  0  0  0  0  0
  185.9670  173.5160  135.6900 C   0  0  0  0  0  3  0  0  0  0  0  0
  185.1820  172.5100  135.3390 C   0  0  0  0  0  0  0  0  0  0  0  0
  187.3140  172.0210  134.5990 N   0  0  0  0  0  0  0  0  0  0  0  0
  185.9710  171.4650  134.6150 C   0  0  0  0  0  2  0  0  0  0  0  0
  187.2900  173.1610  135.2010 C   0  0  0  0  0  0  0  0  0  0  0  0
  181.4820  173.2780  135.3280 C   0  0  0  0  0  0  0  0  0  0  0  0
  180.5350  174.2590  134.7410 C   0  0  0  0  0  1  0  0  0  0  0  0
  183.2190  171.4210  136.4240 C   0  0  0  0  0  3  0  0  0  0  0  0
  181.0140  172.2540  136.1480 C   0  0  0  0  0  3  0  0  0  0  0  0
  183.7360  172.4370  135.6120 C   0  0  0  0  0  0  0  0  0  0  0  0
  181.8860  171.3540  136.6740 N   0  0  0  0  0  0  0  0  0  0  0  0
  182.8470  173.3720  135.0620 C   0  0  0  0  0  3  0  0  0  0  0  0
  192.0950  175.9600  137.2340 C   0  0  0  0  0  2  0  0  0  0  0  0
  190.5300  174.1630  136.9970 N   0  0  0  0  0  2  0  0  0  0  0  0
  191.7390  174.5660  137.6880 C   0  0  0  0  0  2  0  0  0  0  0  0
  190.5370  176.8520  137.0220 S   0  0  0  0  0  0  0  0  0  0  0  0
  189.6090  175.2890  137.1050 C   0  0  1  0  0  3  0  0  0  0  0  0
  185.3430  176.8380  136.3730 O   0  0  0  0  0  0  0  0  0  0  0  0
  184.0190  177.2420  136.5680 C   0  0  0  0  0  2  0  0  0  0  0  0
  181.8930  176.4890  137.8180 C   0  0  0  0  0  1  0  0  0  0  0  0
  183.9850  175.2400  137.9780 C   0  0  0  0  0  2  0  0  0  0  0  0
  183.3390  176.3040  137.5080 C   0  0  0  0  0  0  0  0  0  0  0  0
  188.2640  177.3400  140.2380 C   0  0  0  0  0  2  0  0  0  0  0  0
  188.8940  177.5960  142.5870 C   0  0  0  0  0  3  0  0  0  0  0  0
  188.4430  176.8090  141.6160 C   0  0  0  0  0  3  0  0  0  0  0  0
  189.0680  177.0640  143.9750 C   0  0  2  0  0  3  0  0  0  0  0  0
  187.7750  177.1590  144.7260 C   0  0  0  0  0  0  0  0  0  0  0  0
  186.8490  176.3320  144.5050 O   0  0  0  0  0  0  0  0  0  0  0  0
  187.6140  178.1810  145.7130 N   0  0  0  0  0  2  0  0  0  0  0  0
  185.6540  179.6190  146.0260 C   0  0  0  0  0  1  0  0  0  0  0  0
  186.3960  178.3810  146.4930 C   0  0  2  0  0  3  0  0  0  0  0  0
  186.7190  178.4840  147.9090 N   0  0  0  0  0  2  0  0  0  0  0  0
  187.8900  176.3890  148.2250 C   0  0  0  0  0  1  0  0  0  0  0  0
  188.0310  177.8930  148.1140 C   0  0  2  0  0  3  0  0  0  0  0  0
  188.7750  178.5400  149.6440 S   0  0  0  0  0  1  0  0  0  0  0  0
  190.1960  177.7480  144.6970 C   0  0  0  0  0  0  0  0  0  0  0  0
  190.8960  178.6080  144.0940 O   0  0  0  0  0  0  0  0  0  0  0  0
  190.5240  177.3670  146.0000 O   0  0  0  0  0  0  0  0  0  0  0  0
  191.7130  176.6480  146.2930 C   0  0  0  0  0  3  0  0  0  0  0  0
  192.0200  176.7780  147.7710 C   0  0  0  0  0  2  0  0  0  0  0  0
  191.3870  175.5120  147.2430 C   0  0  0  0  0  2  0  0  0  0  0  0
  1 19  1  6  0  0  0
  2  7  1  1  0  0  0
  2  6  1  0  0  0  0
  3  1  1  6  0  0  0
  3  5  1  0  0  0  0
  4  3  1  0  0  0  0
  4  2  1  0  0  0  0
  5  6  1  0  0  0  0
  7  8  1  1  0  0  0
  9 11  1  0  0  0  0
  9 14  1  0  0  0  0
 10 13  1  0  0  0  0
 10  7  1  1  0  0  0
 11 15  1  6  0  0  0
 11 12  1  0  0  0  0
 12 10  1  0  0  0  0
 14 13  1  0  0  0  0
 16 17  1  0  0  0  0
 17 15  1  0  0  0  0
 18 19  2  0  0  0  0
 20 21  1  6  0  0  0
 20 18  1  0  0  0  0
 22 23  1  0  0  0  0
 22 21  1  0  0  0  0
 24 23  1  6  0  0  0
 25 24  1  0  0  0  0
 27 35  1  0  0  0  0
 27 26  2  0  0  0  0
 28 29  1  0  0  0  0
 28 30  2  0  0  0  0
 29 27  1  0  0  0  0
 30 25  1  0  0  0  0
 30 26  1  0  0  0  0
 31 34  1  0  0  0  0
 32 31  1  0  0  0  0
 33 36  1  0  0  0  0
 34 36  2  0  0  0  0
 35 33  2  0  0  0  0
 37 31  2  0  0  0  0
 37 35  1  0  0  0  0
 38 40  1  0  0  0  0
 39 42  1  0  0  0  0
 39 40  1  0  0  0  0
 41 42  1  0  0  0  0
 41 38  1  0  0  0  0
 42 24  1  6  0  0  0
 43 44  1  0  0  0  0
 43 20  1  0  0  0  0
 44 47  1  0  0  0  0
 47 45  1  0  0  0  0
 47 46  2  0  0  0  0
 48  1  1  0  0  0  0
 48 50  1  0  0  0  0
 50 49  2  0  0  0  0
 51 49  1  6  0  0  0
 51 61  1  0  0  0  0
 51 52  1  0  0  0  0
 52 54  1  0  0  0  0
 53 52  2  0  0  0  0
 54 56  1  0  0  0  0
 56 55  1  6  0  0  0
 56 57  1  0  0  0  0
 57 59  1  0  0  0  0
 59 58  1  1  0  0  0
 59 60  1  0  0  0  0
 61 63  1  0  0  0  0
 62 61  2  0  0  0  0
 63 64  1  0  0  0  0
 64 66  1  0  0  0  0
 64 65  1  0  0  0  0
 66 65  1  0  0  0  0
M  END
>  <MODEL>
4

>  <REMARK>
 VINA RESULT:      -5.4      2.795      9.223
  Name = 
  27 active torsions:
  status: ('A' for Active; 'I' for Inactive)
    1  A    between atoms: C_3  and  C_5
    2  A    between atoms: C_3  and  C_14
    3  A    between atoms: C_6  and  N_10
    4  A    between atoms: C_6  and  N_50
    5  A    between atoms: C_6  and  C_61
    6  A    between atoms: O_7  and  C_37
    7  A    between atoms: O_7  and  C_45
    8  A    between atoms: C_8  and  C_17
    9  A    between atoms: C_9  and  C_42
   10  A    between atoms: N_11  and  C_37
   11  A    between atoms: C_13  and  C_42
   12  A    between atoms: C_13  and  O_53
   13  A    between atoms: C_17  and  C_18
   14  A    between atoms: C_17  and  C_26
   15  A    between atoms: C_18  and  C_48
   16  A    between atoms: C_23  and  C_49
   17  A    between atoms: C_27  and  C_28
   18  A    between atoms: C_27  and  C_37
   19  A    between atoms: C_28  and  N_50
   20  A    between atoms: C_29  and  C_55
   21  A    between atoms: C_31  and  C_42
   22  A    between atoms: C_35  and  O_53
   23  A    between atoms: C_44  and  C_45
   24  A    between atoms: C_46  and  N_59
   25  A    between atoms: C_46  and  N_66
   26  A    between atoms: C_51  and  N_59
   27  A    between atoms: C_55  and  S_60
                            x       y       z     vdW  Elec       q    Type
                         _______ _______ _______ _____ _____    ______ ____

>  <TORSDO>
F 27

$$$$
=
 OpenBabel10222420423D

 66 71  0  0  1  0  0  0  0  0999 V2000
  186.2240  177.6760  139.0180 C   0  0  2  0  0  3  0  0  0  0  0  0
  182.5720  178.7210  138.2410 C   0  0  2  0  0  3  0  0  0  0  0  0
  184.8140  178.2180  139.2860 C   0  0  2  0  0  3  0  0  0  0  0  0
  183.5290  177.2210  138.4480 S   0  0  0  0  0  0  0  0  0  0  0  0
  184.6790  179.6480  138.7600 C   0  0  0  0  0  2  0  0  0  0  0  0
  183.2400  179.8470  138.4460 C   0  0  0  0  0  2  0  0  0  0  0  0
  181.0920  178.7170  138.0020 C   0  0  1  0  0  3  0  0  0  0  0  0
  180.4300  179.1120  139.1690 O   0  0  0  0  0  1  0  0  0  0  0  0
  178.9310  180.8260  134.9110 C   0  0  0  0  0  2  0  0  0  0  0  0
  180.7260  179.6360  136.8340 C   0  0  2  0  0  3  0  0  0  0  0  0
  179.3880  181.6470  136.1210 C   0  0  1  0  0  3  0  0  0  0  0  0
  179.7470  180.7260  137.2870 C   0  0  0  0  0  2  0  0  0  0  0  0
  180.1160  178.8570  135.7550 N   0  0  0  0  0  2  0  0  0  0  0  0
  179.9410  179.7250  134.5940 C   0  0  0  0  0  2  0  0  0  0  0  0
  180.5640  182.5540  135.7780 C   0  0  0  0  0  2  0  0  0  0  0  0
  179.7060  184.9750  136.1010 N   0  0  0  0  0  1  0  0  0  0  0  0
  180.7410  183.8750  137.0140 S   0  0  0  0  0  0  0  0  0  0  0  0
  188.1690  177.2630  140.4170 N   0  0  0  0  0  0  0  0  0  0  0  0
  187.1940  178.0390  140.1050 C   0  0  0  0  0  3  0  0  0  0  0  0
  189.0960  177.6430  141.4490 C   0  0  1  0  0  3  0  0  0  0  0  0
  188.6660  177.0450  142.7800 C   0  0  0  0  0  2  0  0  0  0  0  0
  187.3870  177.6990  143.2670 C   0  0  0  0  0  2  0  0  0  0  0  0
  186.7850  176.8880  144.3130 N   0  0  0  0  0  2  0  0  0  0  0  0
  185.6190  177.6070  144.8210 C   0  0  1  0  0  3  0  0  0  0  0  0
  185.9620  178.3340  146.0400 N   0  0  0  0  0  2  0  0  0  0  0  0
  188.2900  177.3210  146.3850 C   0  0  0  0  0  3  0  0  0  0  0  0
  189.2220  177.5140  147.3050 C   0  0  0  0  0  0  0  0  0  0  0  0
  187.4470  178.9000  147.8110 N   0  0  0  0  0  0  0  0  0  0  0  0
  188.7660  178.5360  148.2990 C   0  0  0  0  0  2  0  0  0  0  0  0
  187.2010  178.2140  146.7470 C   0  0  0  0  0  0  0  0  0  0  0  0
  192.1690  175.3540  146.3400 C   0  0  0  0  0  0  0  0  0  0  0  0
  192.6030  174.4670  145.2330 C   0  0  0  0  0  1  0  0  0  0  0  0
  191.3990  177.0190  148.4140 C   0  0  0  0  0  3  0  0  0  0  0  0
  193.0020  175.5670  147.4360 C   0  0  0  0  0  3  0  0  0  0  0  0
  190.5270  176.8300  147.3360 C   0  0  0  0  0  0  0  0  0  0  0  0
  192.6020  176.3900  148.4420 N   0  0  0  0  0  0  0  0  0  0  0  0
  190.9270  175.9850  146.2910 C   0  0  0  0  0  3  0  0  0  0  0  0
  182.6050  179.3120  143.1630 C   0  0  0  0  0  2  0  0  0  0  0  0
  184.4060  177.8170  142.6600 N   0  0  0  0  0  2  0  0  0  0  0  0
  183.4380  178.7120  142.0580 C   0  0  0  0  0  2  0  0  0  0  0  0
  183.7160  179.5890  144.5620 S   0  0  0  0  0  0  0  0  0  0  0  0
  184.9880  178.5450  143.7820 C   0  0  1  0  0  3  0  0  0  0  0  0
  190.3690  177.1820  141.1180 O   0  0  0  0  0  0  0  0  0  0  0  0
  190.5250  177.4880  139.7640 C   0  0  0  0  0  2  0  0  0  0  0  0
  192.1420  176.6640  137.9330 C   0  0  0  0  0  1  0  0  0  0  0  0
  192.9440  177.3740  140.1270 C   0  0  0  0  0  2  0  0  0  0  0  0
  191.9080  177.1440  139.3240 C   0  0  0  0  0  0  0  0  0  0  0  0
  186.7470  178.1650  137.6750 C   0  0  0  0  0  2  0  0  0  0  0  0
  186.8470  175.8830  136.8040 C   0  0  0  0  0  3  0  0  0  0  0  0
  186.4540  177.1410  136.6360 C   0  0  0  0  0  3  0  0  0  0  0  0
  186.5480  174.8510  135.7620 C   0  0  2  0  0  3  0  0  0  0  0  0
  185.5330  173.8780  136.2800 C   0  0  0  0  0  0  0  0  0  0  0  0
  185.5930  173.4720  137.4720 O   0  0  0  0  0  0  0  0  0  0  0  0
  184.4840  173.4370  135.4150 N   0  0  0  0  0  2  0  0  0  0  0  0
  183.9330  171.0560  135.6010 C   0  0  0  0  0  1  0  0  0  0  0  0
  183.4520  172.4800  135.8030 C   0  0  2  0  0  3  0  0  0  0  0  0
  182.2340  172.7200  135.0410 N   0  0  0  0  0  2  0  0  0  0  0  0
  180.9020  171.8720  136.8750 C   0  0  0  0  0  1  0  0  0  0  0  0
  181.1780  173.0610  135.9790 C   0  0  2  0  0  3  0  0  0  0  0  0
  179.6580  173.4980  135.0770 S   0  0  0  0  0  1  0  0  0  0  0  0
  187.7980  174.1660  135.2810 C   0  0  0  0  0  0  0  0  0  0  0  0
  187.9500  172.9290  135.4780 O   0  0  0  0  0  0  0  0  0  0  0  0
  188.8250  174.9140  134.7000 O   0  0  0  0  0  0  0  0  0  0  0  0
  189.6140  175.8190  135.4590 C   0  0  0  0  0  3  0  0  0  0  0  0
  190.7450  176.3360  134.5940 C   0  0  0  0  0  2  0  0  0  0  0  0
  189.5280  177.1980  134.8360 C   0  0  0  0  0  2  0  0  0  0  0  0
  1 48  1  6  0  0  0
  1 19  1  0  0  0  0
  2  7  1  1  0  0  0
  2  6  1  0  0  0  0
  2  4  1  0  0  0  0
  3  1  1  6  0  0  0
  4  3  1  0  0  0  0
  5  3  1  0  0  0  0
  6  5  1  0  0  0  0
  7  8  1  1  0  0  0
  9 11  1  0  0  0  0
 10 12  1  0  0  0  0
 10  7  1  1  0  0  0
 11 15  1  6  0  0  0
 11 12  1  0  0  0  0
 13 10  1  0  0  0  0
 14  9  1  0  0  0  0
 14 13  1  0  0  0  0
 15 17  1  0  0  0  0
 16 17  1  0  0  0  0
 18 20  1  0  0  0  0
 19 18  2  0  0  0  0
 20 21  1  1  0  0  0
 21 22  1  0  0  0  0
 22 23  1  0  0  0  0
 24 23  1  6  0  0  0
 24 25  1  0  0  0  0
 25 30  1  0  0  0  0
 26 30  1  0  0  0  0
 26 27  2  0  0  0  0
 27 35  1  0  0  0  0
 27 29  1  0  0  0  0
 28 29  1  0  0  0  0
 30 28  2  0  0  0  0
 31 34  1  0  0  0  0
 32 31  1  0  0  0  0
 33 36  1  0  0  0  0
 34 36  2  0  0  0  0
 35 33  2  0  0  0  0
 37 31  2  0  0  0  0
 37 35  1  0  0  0  0
 38 41  1  0  0  0  0
 39 42  1  0  0  0  0
 40 39  1  0  0  0  0
 40 38  1  0  0  0  0
 42 41  1  0  0  0  0
 42 24  1  1  0  0  0
 43 20  1  0  0  0  0
 44 43  1  0  0  0  0
 45 47  1  0  0  0  0
 47 44  1  0  0  0  0
 47 46  2  0  0  0  0
 50 49  2  0  0  0  0
 50 48  1  0  0  0  0
 51 52  1  0  0  0  0
 51 49  1  1  0  0  0
 52 53  2  0  0  0  0
 54 56  1  0  0  0  0
 54 52  1  0  0  0  0
 56 55  1  6  0  0  0
 57 56  1  0  0  0  0
 57 59  1  0  0  0  0
 59 58  1  1  0  0  0
 60 59  1  0  0  0  0
 61 62  2  0  0  0  0
 61 51  1  0  0  0  0
 63 61  1  0  0  0  0
 63 64  1  0  0  0  0
 65 66  1  0  0  0  0
 65 64  1  0  0  0  0
 66 64  1  0  0  0  0
M  END
>  <MODEL>
5

>  <REMARK>
 VINA RESULT:      -5.1      3.537     11.479
  Name = 
  27 active torsions:
  status: ('A' for Active; 'I' for Inactive)
    1  A    between atoms: C_3  and  C_5
    2  A    between atoms: C_3  and  C_14
    3  A    between atoms: C_6  and  N_10
    4  A    between atoms: C_6  and  N_50
    5  A    between atoms: C_6  and  C_61
    6  A    between atoms: O_7  and  C_37
    7  A    between atoms: O_7  and  C_45
    8  A    between atoms: C_8  and  C_17
    9  A    between atoms: C_9  and  C_42
   10  A    between atoms: N_11  and  C_37
   11  A    between atoms: C_13  and  C_42
   12  A    between atoms: C_13  and  O_53
   13  A    between atoms: C_17  and  C_18
   14  A    between atoms: C_17  and  C_26
   15  A    between atoms: C_18  and  C_48
   16  A    between atoms: C_23  and  C_49
   17  A    between atoms: C_27  and  C_28
   18  A    between atoms: C_27  and  C_37
   19  A    between atoms: C_28  and  N_50
   20  A    between atoms: C_29  and  C_55
   21  A    between atoms: C_31  and  C_42
   22  A    between atoms: C_35  and  O_53
   23  A    between atoms: C_44  and  C_45
   24  A    between atoms: C_46  and  N_59
   25  A    between atoms: C_46  and  N_66
   26  A    between atoms: C_51  and  N_59
   27  A    between atoms: C_55  and  S_60
                            x       y       z     vdW  Elec       q    Type
                         _______ _______ _______ _____ _____    ______ ____

>  <TORSDO>
F 27

$$$$
=
 OpenBabel10222420423D

 66 71  0  0  1  0  0  0  0  0999 V2000
  188.2510  177.6550  137.6460 C   0  0  2  0  0  3  0  0  0  0  0  0
  184.7360  177.1560  136.0880 C   0  0  2  0  0  3  0  0  0  0  0  0
  186.9240  178.0430  136.9810 C   0  0  2  0  0  3  0  0  0  0  0  0
  185.5080  177.1360  137.7030 S   0  0  0  0  0  0  0  0  0  0  0  0
  186.9520  177.7070  135.4900 C   0  0  0  0  0  2  0  0  0  0  0  0
  185.5410  177.4760  135.0840 C   0  0  0  0  0  2  0  0  0  0  0  0
  183.2620  176.9750  135.8860 C   0  0  1  0  0  3  0  0  0  0  0  0
  182.9030  177.4520  134.6210 O   0  0  0  0  0  1  0  0  0  0  0  0
  181.0040  173.3030  136.1750 C   0  0  0  0  0  2  0  0  0  0  0  0
  182.8650  175.5060  136.0430 C   0  0  2  0  0  3  0  0  0  0  0  0
  181.8430  173.5030  134.9090 C   0  0  1  0  0  3  0  0  0  0  0  0
  182.2320  174.9720  134.7520 C   0  0  0  0  0  2  0  0  0  0  0  0
  181.9140  175.3580  137.1460 N   0  0  0  0  0  2  0  0  0  0  0  0
  181.6910  173.9340  137.3840 C   0  0  0  0  0  2  0  0  0  0  0  0
  183.0860  172.6200  134.9090 C   0  0  0  0  0  2  0  0  0  0  0  0
  184.2690  170.4680  135.7260 N   0  0  0  0  0  1  0  0  0  0  0  0
  183.2040  171.6720  136.4550 S   0  0  0  0  0  0  0  0  0  0  0  0
  188.3160  177.6790  140.0760 N   0  0  0  0  0  0  0  0  0  0  0  0
  188.4440  178.3280  138.9750 C   0  0  0  0  0  3  0  0  0  0  0  0
  188.5250  178.3420  141.3360 C   0  0  1  0  0  3  0  0  0  0  0  0
  187.2240  178.3860  142.1230 C   0  0  0  0  0  2  0  0  0  0  0  0
  186.0340  178.3100  141.1860 C   0  0  0  0  0  2  0  0  0  0  0  0
  185.2040  179.4930  141.3440 N   0  0  0  0  0  2  0  0  0  0  0  0
  184.0380  179.1180  142.1390 C   0  0  1  0  0  3  0  0  0  0  0  0
  183.1940  178.1860  141.3970 N   0  0  0  0  0  2  0  0  0  0  0  0
  182.0190  179.9140  139.9130 C   0  0  0  0  0  3  0  0  0  0  0  0
  181.1060  179.8030  138.9620 C   0  0  0  0  0  0  0  0  0  0  0  0
  181.5750  177.6760  139.7280 N   0  0  0  0  0  0  0  0  0  0  0  0
  180.7380  178.3660  138.7620 C   0  0  0  0  0  2  0  0  0  0  0  0
  182.2800  178.5540  140.3580 C   0  0  0  0  0  0  0  0  0  0  0  0
  180.2750  182.1740  136.1390 C   0  0  0  0  0  0  0  0  0  0  0  0
  180.5630  182.3530  134.6940 C   0  0  0  0  0  1  0  0  0  0  0  0
  179.7020  181.8590  138.8290 C   0  0  0  0  0  3  0  0  0  0  0  0
  179.4500  183.0750  136.8070 C   0  0  0  0  0  3  0  0  0  0  0  0
  180.5420  180.9320  138.2010 C   0  0  0  0  0  0  0  0  0  0  0  0
  179.1820  182.8990  138.1280 N   0  0  0  0  0  0  0  0  0  0  0  0
  180.8260  181.1020  136.8390 C   0  0  0  0  0  3  0  0  0  0  0  0
  183.6910  178.9680  145.9590 C   0  0  0  0  0  2  0  0  0  0  0  0
  185.3090  179.4230  144.2540 N   0  0  0  0  0  2  0  0  0  0  0  0
  185.1640  179.0650  145.6520 C   0  0  0  0  0  2  0  0  0  0  0  0
  182.8990  178.2540  144.4990 S   0  0  0  0  0  0  0  0  0  0  0  0
  184.4030  178.5490  143.5180 C   0  0  1  0  0  3  0  0  0  0  0  0
  189.4910  177.6510  142.0660 O   0  0  0  0  0  0  0  0  0  0  0  0
  188.9970  177.6090  143.3720 C   0  0  0  0  0  2  0  0  0  0  0  0
  190.0730  177.5260  145.7140 C   0  0  0  0  0  1  0  0  0  0  0  0
  191.0310  178.8610  143.9080 C   0  0  0  0  0  2  0  0  0  0  0  0
  190.0490  178.0660  144.3250 C   0  0  0  0  0  0  0  0  0  0  0  0
  189.4270  177.9690  136.7330 C   0  0  0  0  0  2  0  0  0  0  0  0
  190.0750  175.6120  136.7360 C   0  0  0  0  0  3  0  0  0  0  0  0
  189.8530  176.7230  136.0410 C   0  0  0  0  0  3  0  0  0  0  0  0
  190.4970  174.3550  136.0400 C   0  0  2  0  0  3  0  0  0  0  0  0
  191.8310  174.5530  135.3880 C   0  0  0  0  0  0  0  0  0  0  0  0
  192.0140  175.5170  134.5940 O   0  0  0  0  0  0  0  0  0  0  0  0
  192.8990  173.6540  135.6940 N   0  0  0  0  0  2  0  0  0  0  0  0
  194.6980  172.3750  134.6280 C   0  0  0  0  0  1  0  0  0  0  0  0
  194.2330  173.7370  135.1080 C   0  0  2  0  0  3  0  0  0  0  0  0
  195.1730  174.2840  136.0760 N   0  0  0  0  0  2  0  0  0  0  0  0
  194.0950  174.8710  138.1620 C   0  0  0  0  0  1  0  0  0  0  0  0
  194.8080  173.7810  137.3900 C   0  0  2  0  0  3  0  0  0  0  0  0
  196.3000  173.2760  138.3020 S   0  0  0  0  0  1  0  0  0  0  0  0
  189.4540  173.8790  135.0660 C   0  0  0  0  0  0  0  0  0  0  0  0
  188.5040  174.6440  134.7430 O   0  0  0  0  0  0  0  0  0  0  0  0
  189.4870  172.5660  134.5940 O   0  0  0  0  0  0  0  0  0  0  0  0
  189.2200  171.4570  135.4410 C   0  0  0  0  0  3  0  0  0  0  0  0
  187.8780  171.6600  136.1140 C   0  0  0  0  0  2  0  0  0  0  0  0
  187.9930  170.7260  134.9320 C   0  0  0  0  0  2  0  0  0  0  0  0
  1 48  1  6  0  0  0
  1 19  1  0  0  0  0
  2  7  1  1  0  0  0
  2  4  1  0  0  0  0
  3  1  1  1  0  0  0
  3  4  1  0  0  0  0
  5  3  1  0  0  0  0
  6  5  1  0  0  0  0
  6  2  1  0  0  0  0
  7  8  1  6  0  0  0
  9 14  1  0  0  0  0
 10  7  1  6  0  0  0
 10 13  1  0  0  0  0
 11 15  1  1  0  0  0
 11  9  1  0  0  0  0
 12 11  1  0  0  0  0
 12 10  1  0  0  0  0
 13 14  1  0  0  0  0
 15 17  1  0  0  0  0
 16 17  1  0  0  0  0
 18 20  1  0  0  0  0
 19 18  2  0  0  0  0
 20 43  1  0  0  0  0
 20 21  1  1  0  0  0
 22 23  1  0  0  0  0
 22 21  1  0  0  0  0
 24 23  1  6  0  0  0
 25 24  1  0  0  0  0
 26 30  1  0  0  0  0
 27 26  2  0  0  0  0
 28 30  2  0  0  0  0
 29 27  1  0  0  0  0
 29 28  1  0  0  0  0
 30 25  1  0  0  0  0
 31 34  2  0  0  0  0
 31 37  1  0  0  0  0
 32 31  1  0  0  0  0
 34 36  1  0  0  0  0
 35 33  1  0  0  0  0
 35 27  1  0  0  0  0
 36 33  2  0  0  0  0
 37 35  2  0  0  0  0
 39 40  1  0  0  0  0
 40 38  1  0  0  0  0
 41 38  1  0  0  0  0
 42 24  1  6  0  0  0
 42 39  1  0  0  0  0
 42 41  1  0  0  0  0
 43 44  1  0  0  0  0
 44 47  1  0  0  0  0
 46 47  2  0  0  0  0
 47 45  1  0  0  0  0
 50 48  1  0  0  0  0
 50 49  2  0  0  0  0
 51 49  1  6  0  0  0
 52 54  1  0  0  0  0
 52 51  1  0  0  0  0
 53 52  2  0  0  0  0
 56 55  1  1  0  0  0
 56 54  1  0  0  0  0
 56 57  1  0  0  0  0
 57 59  1  0  0  0  0
 59 58  1  1  0  0  0
 59 60  1  0  0  0  0
 61 51  1  0  0  0  0
 62 61  2  0  0  0  0
 63 61  1  0  0  0  0
 63 64  1  0  0  0  0
 64 65  1  0  0  0  0
 66 64  1  0  0  0  0
 66 65  1  0  0  0  0
M  END
>  <MODEL>
6

>  <REMARK>
 VINA RESULT:      -5.0      2.837      9.108
  Name = 
  27 active torsions:
  status: ('A' for Active; 'I' for Inactive)
    1  A    between atoms: C_3  and  C_5
    2  A    between atoms: C_3  and  C_14
    3  A    between atoms: C_6  and  N_10
    4  A    between atoms: C_6  and  N_50
    5  A    between atoms: C_6  and  C_61
    6  A    between atoms: O_7  and  C_37
    7  A    between atoms: O_7  and  C_45
    8  A    between atoms: C_8  and  C_17
    9  A    between atoms: C_9  and  C_42
   10  A    between atoms: N_11  and  C_37
   11  A    between atoms: C_13  and  C_42
   12  A    between atoms: C_13  and  O_53
   13  A    between atoms: C_17  and  C_18
   14  A    between atoms: C_17  and  C_26
   15  A    between atoms: C_18  and  C_48
   16  A    between atoms: C_23  and  C_49
   17  A    between atoms: C_27  and  C_28
   18  A    between atoms: C_27  and  C_37
   19  A    between atoms: C_28  and  N_50
   20  A    between atoms: C_29  and  C_55
   21  A    between atoms: C_31  and  C_42
   22  A    between atoms: C_35  and  O_53
   23  A    between atoms: C_44  and  C_45
   24  A    between atoms: C_46  and  N_59
   25  A    between atoms: C_46  and  N_66
   26  A    between atoms: C_51  and  N_59
   27  A    between atoms: C_55  and  S_60
                            x       y       z     vdW  Elec       q    Type
                         _______ _______ _______ _____ _____    ______ ____

>  <TORSDO>
F 27

$$$$
=
 OpenBabel10222420423D

 66 71  0  0  1  0  0  0  0  0999 V2000
  185.7170  178.0580  142.5250 C   0  0  2  0  0  3  0  0  0  0  0  0
  187.4090  177.8780  146.0090 C   0  0  2  0  0  3  0  0  0  0  0  0
  186.0350  178.4560  143.9730 C   0  0  2  0  0  3  0  0  0  0  0  0
  187.8260  178.3490  144.3330 S   0  0  0  0  0  0  0  0  0  0  0  0
  185.3280  177.5210  144.9550 C   0  0  0  0  0  2  0  0  0  0  0  0
  186.1470  177.5160  146.1950 C   0  0  0  0  0  2  0  0  0  0  0  0
  188.3620  178.0200  147.1570 C   0  0  1  0  0  3  0  0  0  0  0  0
  187.8860  177.2910  148.2520 O   0  0  0  0  0  1  0  0  0  0  0  0
  191.8190  175.5830  146.2720 C   0  0  0  0  0  2  0  0  0  0  0  0
  189.7650  177.5510  146.7640 C   0  0  2  0  0  3  0  0  0  0  0  0
  191.1200  176.2530  145.0850 C   0  0  1  0  0  3  0  0  0  0  0  0
  189.7180  176.7130  145.4800 C   0  0  0  0  0  2  0  0  0  0  0  0
  190.3480  176.7510  147.8420 N   0  0  0  0  0  2  0  0  0  0  0  0
  191.7430  176.4700  147.5130 C   0  0  0  0  0  2  0  0  0  0  0  0
  191.9300  177.4220  144.5380 C   0  0  0  0  0  2  0  0  0  0  0  0
  191.6600  178.5580  142.2280 N   0  0  0  0  0  1  0  0  0  0  0  0
  190.8390  178.6670  143.7870 S   0  0  0  0  0  0  0  0  0  0  0  0
  187.2410  178.7320  140.7560 N   0  0  0  0  0  0  0  0  0  0  0  0
  186.9550  177.8990  141.6900 C   0  0  0  0  0  3  0  0  0  0  0  0
  188.4430  178.5690  139.9820 C   0  0  1  0  0  3  0  0  0  0  0  0
  189.1780  177.3130  140.4230 C   0  0  0  0  0  2  0  0  0  0  0  0
  190.3320  177.0150  139.4840 C   0  0  0  0  0  2  0  0  0  0  0  0
  189.8340  176.3770  138.2760 N   0  0  0  0  0  2  0  0  0  0  0  0
  190.9720  176.1480  137.3900 C   0  0  1  0  0  3  0  0  0  0  0  0
  192.2260  176.3280  138.1160 N   0  0  0  0  0  2  0  0  0  0  0  0
  193.4020  174.2120  137.2740 C   0  0  0  0  0  3  0  0  0  0  0  0
  194.6020  173.7050  137.5040 C   0  0  0  0  0  0  0  0  0  0  0  0
  194.4380  175.6730  138.7000 N   0  0  0  0  0  0  0  0  0  0  0  0
  195.3690  174.5880  138.4370 C   0  0  0  0  0  2  0  0  0  0  0  0
  193.3510  175.4450  138.0450 C   0  0  0  0  0  0  0  0  0  0  0  0
  196.9380  170.9520  136.3880 C   0  0  0  0  0  0  0  0  0  0  0  0
  198.3820  170.6120  136.4270 C   0  0  0  0  0  1  0  0  0  0  0  0
  194.2350  171.5460  136.3130 C   0  0  0  0  0  3  0  0  0  0  0  0
  196.0280  170.0810  135.7930 C   0  0  0  0  0  3  0  0  0  0  0  0
  195.1130  172.4550  136.9140 C   0  0  0  0  0  0  0  0  0  0  0  0
  194.7060  170.3940  135.7690 N   0  0  0  0  0  0  0  0  0  0  0  0
  196.4790  172.1440  136.9460 C   0  0  0  0  0  3  0  0  0  0  0  0
  189.4610  173.6300  134.9170 C   0  0  0  0  0  2  0  0  0  0  0  0
  189.9060  173.9060  137.2530 N   0  0  0  0  0  2  0  0  0  0  0  0
  189.6250  172.9130  136.2350 C   0  0  0  0  0  2  0  0  0  0  0  0
  190.6590  174.9840  134.9080 S   0  0  0  0  0  0  0  0  0  0  0  0
  190.9320  174.7790  136.6960 C   0  0  1  0  0  3  0  0  0  0  0  0
  188.1110  178.4680  138.6310 O   0  0  0  0  0  0  0  0  0  0  0  0
  186.7240  178.6220  138.5860 C   0  0  0  0  0  2  0  0  0  0  0  0
  184.6810  177.7300  137.2900 C   0  0  0  0  0  1  0  0  0  0  0  0
  186.9520  177.0020  136.7640 C   0  0  0  0  0  2  0  0  0  0  0  0
  186.1490  177.7220  137.5440 C   0  0  0  0  0  0  0  0  0  0  0  0
  184.7830  179.0690  141.8770 C   0  0  0  0  0  2  0  0  0  0  0  0
  182.6420  178.4340  140.8830 C   0  0  0  0  0  3  0  0  0  0  0  0
  183.3840  178.5730  141.9760 C   0  0  0  0  0  3  0  0  0  0  0  0
  181.2360  177.9290  140.9810 C   0  0  2  0  0  3  0  0  0  0  0  0
  181.0520  176.7470  140.0800 C   0  0  0  0  0  0  0  0  0  0  0  0
  180.6090  175.6590  140.5410 O   0  0  0  0  0  0  0  0  0  0  0  0
  181.3600  176.8720  138.6900 N   0  0  0  0  0  2  0  0  0  0  0  0
  182.0970  176.0510  136.5010 C   0  0  0  0  0  1  0  0  0  0  0  0
  181.2360  175.7860  137.7220 C   0  0  2  0  0  3  0  0  0  0  0  0
  179.8430  175.6140  137.3370 N   0  0  0  0  0  2  0  0  0  0  0  0
  178.9390  173.9870  138.8840 C   0  0  0  0  0  1  0  0  0  0  0  0
  179.5030  174.2100  137.4970 C   0  0  2  0  0  3  0  0  0  0  0  0
  180.9870  173.1790  137.2800 S   0  0  0  0  0  1  0  0  0  0  0  0
  180.2330  179.0150  140.7050 C   0  0  0  0  0  0  0  0  0  0  0  0
  179.8070  179.1910  139.5310 O   0  0  0  0  0  0  0  0  0  0  0  0
  179.8450  179.8830  141.7280 O   0  0  0  0  0  0  0  0  0  0  0  0
  180.0910  179.5880  143.0950 C   0  0  0  0  0  3  0  0  0  0  0  0
  178.9620  180.1480  143.9350 C   0  0  0  0  0  2  0  0  0  0  0  0
  178.9980  178.6720  143.6110 C   0  0  0  0  0  2  0  0  0  0  0  0
  1 19  1  6  0  0  0
  2  6  1  0  0  0  0
  2  7  1  1  0  0  0
  3  1  1  6  0  0  0
  3  4  1  0  0  0  0
  3  5  1  0  0  0  0
  4  2  1  0  0  0  0
  5  6  1  0  0  0  0
  7  8  1  1  0  0  0
  9 14  1  0  0  0  0
 10  7  1  1  0  0  0
 10 13  1  0  0  0  0
 11 15  1  1  0  0  0
 11 12  1  0  0  0  0
 11  9  1  0  0  0  0
 12 10  1  0  0  0  0
 14 13  1  0  0  0  0
 16 17  1  0  0  0  0
 17 15  1  0  0  0  0
 18 19  2  0  0  0  0
 20 21  1  1  0  0  0
 20 18  1  0  0  0  0
 22 21  1  0  0  0  0
 23 22  1  0  0  0  0
 24 25  1  1  0  0  0
 24 23  1  0  0  0  0
 26 27  2  0  0  0  0
 26 30  1  0  0  0  0
 27 29  1  0  0  0  0
 29 28  1  0  0  0  0
 30 25  1  0  0  0  0
 30 28  2  0  0  0  0
 31 32  1  0  0  0  0
 31 37  1  0  0  0  0
 33 35  1  0  0  0  0
 34 31  2  0  0  0  0
 35 37  2  0  0  0  0
 35 27  1  0  0  0  0
 36 34  1  0  0  0  0
 36 33  2  0  0  0  0
 38 40  1  0  0  0  0
 40 39  1  0  0  0  0
 41 38  1  0  0  0  0
 41 42  1  0  0  0  0
 42 39  1  0  0  0  0
 42 24  1  1  0  0  0
 43 20  1  0  0  0  0
 44 43  1  0  0  0  0
 45 47  1  0  0  0  0
 46 47  2  0  0  0  0
 47 44  1  0  0  0  0
 48 50  1  0  0  0  0
 48  1  1  0  0  0  0
 49 50  2  0  0  0  0
 51 49  1  6  0  0  0
 52 53  2  0  0  0  0
 52 51  1  0  0  0  0
 54 52  1  0  0  0  0
 56 55  1  6  0  0  0
 56 54  1  0  0  0  0
 57 59  1  0  0  0  0
 57 56  1  0  0  0  0
 59 58  1  1  0  0  0
 60 59  1  0  0  0  0
 61 51  1  0  0  0  0
 61 63  1  0  0  0  0
 62 61  2  0  0  0  0
 63 64  1  0  0  0  0
 64 66  1  0  0  0  0
 64 65  1  0  0  0  0
 66 65  1  0  0  0  0
M  END
>  <MODEL>
7

>  <REMARK>
 VINA RESULT:      -4.6      3.186     11.459
  Name = 
  27 active torsions:
  status: ('A' for Active; 'I' for Inactive)
    1  A    between atoms: C_3  and  C_5
    2  A    between atoms: C_3  and  C_14
    3  A    between atoms: C_6  and  N_10
    4  A    between atoms: C_6  and  N_50
    5  A    between atoms: C_6  and  C_61
    6  A    between atoms: O_7  and  C_37
    7  A    between atoms: O_7  and  C_45
    8  A    between atoms: C_8  and  C_17
    9  A    between atoms: C_9  and  C_42
   10  A    between atoms: N_11  and  C_37
   11  A    between atoms: C_13  and  C_42
   12  A    between atoms: C_13  and  O_53
   13  A    between atoms: C_17  and  C_18
   14  A    between atoms: C_17  and  C_26
   15  A    between atoms: C_18  and  C_48
   16  A    between atoms: C_23  and  C_49
   17  A    between atoms: C_27  and  C_28
   18  A    between atoms: C_27  and  C_37
   19  A    between atoms: C_28  and  N_50
   20  A    between atoms: C_29  and  C_55
   21  A    between atoms: C_31  and  C_42
   22  A    between atoms: C_35  and  O_53
   23  A    between atoms: C_44  and  C_45
   24  A    between atoms: C_46  and  N_59
   25  A    between atoms: C_46  and  N_66
   26  A    between atoms: C_51  and  N_59
   27  A    between atoms: C_55  and  S_60
                            x       y       z     vdW  Elec       q    Type
                         _______ _______ _______ _____ _____    ______ ____

>  <TORSDO>
F 27

$$$$
=
 OpenBabel10222420423D

 66 71  0  0  1  0  0  0  0  0999 V2000
  184.7740  178.2600  143.2260 C   0  0  2  0  0  3  0  0  0  0  0  0
  186.5550  178.1310  146.6680 C   0  0  2  0  0  3  0  0  0  0  0  0
  185.4250  178.7920  144.5090 C   0  0  2  0  0  3  0  0  0  0  0  0
  186.9430  177.8650  144.9400 S   0  0  0  0  0  0  0  0  0  0  0  0
  184.4690  178.6530  145.6950 C   0  0  0  0  0  2  0  0  0  0  0  0
  185.3180  178.5420  146.9100 C   0  0  0  0  0  2  0  0  0  0  0  0
  187.5810  178.0470  147.7570 C   0  0  1  0  0  3  0  0  0  0  0  0
  187.0960  177.2440  148.7940 O   0  0  0  0  0  1  0  0  0  0  0  0
  191.6260  177.6930  146.2800 C   0  0  0  0  0  2  0  0  0  0  0  0
  188.9030  177.4950  147.2190 C   0  0  2  0  0  3  0  0  0  0  0  0
  191.3550  177.1650  147.6920 C   0  0  1  0  0  3  0  0  0  0  0  0
  190.0370  177.7220  148.2270 C   0  0  0  0  0  2  0  0  0  0  0  0
  189.2430  178.1500  145.9550 N   0  0  0  0  0  2  0  0  0  0  0  0
  190.4090  177.4830  145.3820 C   0  0  0  0  0  2  0  0  0  0  0  0
  191.3440  175.6410  147.7330 C   0  0  0  0  0  2  0  0  0  0  0  0
  192.4220  174.5540  145.6460 N   0  0  0  0  0  1  0  0  0  0  0  0
  192.9700  174.9720  147.2710 S   0  0  0  0  0  0  0  0  0  0  0  0
  186.9740  177.7620  142.3210 N   0  0  0  0  0  0  0  0  0  0  0  0
  185.7590  178.1140  142.1020 C   0  0  0  0  0  3  0  0  0  0  0  0
  187.8940  177.6100  141.2240 C   0  0  1  0  0  3  0  0  0  0  0  0
  187.6140  178.6630  140.1630 C   0  0  0  0  0  2  0  0  0  0  0  0
  186.6430  178.1280  139.1280 C   0  0  0  0  0  2  0  0  0  0  0  0
  187.0830  178.5070  137.7950 N   0  0  0  0  0  2  0  0  0  0  0  0
  187.0480  177.3120  136.9560 C   0  0  1  0  0  3  0  0  0  0  0  0
  186.1770  177.5240  135.8040 N   0  0  0  0  0  2  0  0  0  0  0  0
  184.2260  176.0610  136.5920 C   0  0  0  0  0  3  0  0  0  0  0  0
  183.0510  175.7730  136.0560 C   0  0  0  0  0  0  0  0  0  0  0  0
  184.1430  177.2050  134.6100 N   0  0  0  0  0  0  0  0  0  0  0  0
  182.8940  176.4740  134.7430 C   0  0  0  0  0  2  0  0  0  0  0  0
  184.8690  176.9620  135.6480 C   0  0  0  0  0  0  0  0  0  0  0  0
  180.5560  172.9840  136.5850 C   0  0  0  0  0  0  0  0  0  0  0  0
  180.0000  171.8150  135.8600 C   0  0  0  0  0  1  0  0  0  0  0  0
  181.5870  175.1460  137.9740 C   0  0  0  0  0  3  0  0  0  0  0  0
  180.1320  173.2730  137.8800 C   0  0  0  0  0  3  0  0  0  0  0  0
  182.0370  174.8990  136.6720 C   0  0  0  0  0  0  0  0  0  0  0  0
  180.6540  174.3400  138.5420 N   0  0  0  0  0  0  0  0  0  0  0  0
  181.5080  173.8010  135.9780 C   0  0  0  0  0  3  0  0  0  0  0  0
  190.2710  175.2820  137.4370 C   0  0  0  0  0  2  0  0  0  0  0  0
  189.5100  177.5410  137.2180 N   0  0  0  0  0  2  0  0  0  0  0  0
  190.6830  176.6960  137.1090 C   0  0  0  0  0  2  0  0  0  0  0  0
  188.6140  175.0490  136.7530 S   0  0  0  0  0  0  0  0  0  0  0  0
  188.4420  176.8450  136.5110 C   0  0  1  0  0  3  0  0  0  0  0  0
  189.1990  177.7530  141.6940 O   0  0  0  0  0  0  0  0  0  0  0  0
  190.0050  177.2050  140.6930 C   0  0  0  0  0  2  0  0  0  0  0  0
  192.4530  177.5390  139.9530 C   0  0  0  0  0  1  0  0  0  0  0  0
  191.8100  177.5680  142.3090 C   0  0  0  0  0  2  0  0  0  0  0  0
  191.4430  177.4000  141.0400 C   0  0  0  0  0  0  0  0  0  0  0  0
  183.6230  179.1540  142.7910 C   0  0  0  0  0  2  0  0  0  0  0  0
  182.1360  179.0040  140.8560 C   0  0  0  0  0  3  0  0  0  0  0  0
  182.7340  178.3930  141.8730 C   0  0  0  0  0  3  0  0  0  0  0  0
  181.2460  178.2370  139.9290 C   0  0  2  0  0  3  0  0  0  0  0  0
  181.1060  178.9700  138.6300 C   0  0  0  0  0  0  0  0  0  0  0  0
  182.0450  178.9570  137.7880 O   0  0  0  0  0  0  0  0  0  0  0  0
  179.8870  179.6610  138.3460 N   0  0  0  0  0  2  0  0  0  0  0  0
  179.1570  179.5120  136.0110 C   0  0  0  0  0  1  0  0  0  0  0  0
  179.6430  180.4210  137.1240 C   0  0  2  0  0  3  0  0  0  0  0  0
  180.8530  181.1220  136.7190 N   0  0  0  0  0  2  0  0  0  0  0  0
  179.6600  182.7860  138.0090 C   0  0  0  0  0  1  0  0  0  0  0  0
  180.6140  182.5490  136.8570 C   0  0  2  0  0  3  0  0  0  0  0  0
  179.8840  183.2110  135.3270 S   0  0  0  0  0  1  0  0  0  0  0  0
  179.9140  177.9340  140.5570 C   0  0  0  0  0  0  0  0  0  0  0  0
  179.2000  177.0030  140.0940 O   0  0  0  0  0  0  0  0  0  0  0  0
  179.4300  178.7390  141.5910 O   0  0  0  0  0  0  0  0  0  0  0  0
  179.9780  178.6870  142.9000 C   0  0  0  0  0  3  0  0  0  0  0  0
  180.0470  180.0910  143.4650 C   0  0  0  0  0  2  0  0  0  0  0  0
  178.9370  179.1600  143.8950 C   0  0  0  0  0  2  0  0  0  0  0  0
  1 19  1  6  0  0  0
  2  6  1  0  0  0  0
  2  7  1  6  0  0  0
  3  1  1  6  0  0  0
  3  4  1  0  0  0  0
  3  5  1  0  0  0  0
  4  2  1  0  0  0  0
  5  6  1  0  0  0  0
  7  8  1  1  0  0  0
  9 11  1  0  0  0  0
 10  7  1  1  0  0  0
 10 12  1  0  0  0  0
 11 15  1  6  0  0  0
 11 12  1  0  0  0  0
 13 10  1  0  0  0  0
 14 13  1  0  0  0  0
 14  9  1  0  0  0  0
 16 17  1  0  0  0  0
 17 15  1  0  0  0  0
 19 18  2  0  0  0  0
 20 21  1  6  0  0  0
 20 43  1  0  0  0  0
 20 18  1  0  0  0  0
 22 21  1  0  0  0  0
 23 22  1  0  0  0  0
 24 25  1  6  0  0  0
 24 23  1  0  0  0  0
 27 26  2  0  0  0  0
 27 35  1  0  0  0  0
 28 29  1  0  0  0  0
 28 30  2  0  0  0  0
 29 27  1  0  0  0  0
 30 25  1  0  0  0  0
 30 26  1  0  0  0  0
 31 34  1  0  0  0  0
 32 31  1  0  0  0  0
 33 36  1  0  0  0  0
 34 36  2  0  0  0  0
 35 33  2  0  0  0  0
 37 31  2  0  0  0  0
 37 35  1  0  0  0  0
 40 39  1  0  0  0  0
 40 38  1  0  0  0  0
 41 38  1  0  0  0  0
 42 41  1  0  0  0  0
 42 24  1  1  0  0  0
 42 39  1  0  0  0  0
 44 47  1  0  0  0  0
 44 43  1  0  0  0  0
 45 47  1  0  0  0  0
 47 46  2  0  0  0  0
 48  1  1  0  0  0  0
 49 50  2  0  0  0  0
 50 48  1  0  0  0  0
 51 61  1  0  0  0  0
 51 49  1  1  0  0  0
 52 51  1  0  0  0  0
 53 52  2  0  0  0  0
 54 52  1  0  0  0  0
 56 55  1  6  0  0  0
 56 54  1  0  0  0  0
 57 59  1  0  0  0  0
 57 56  1  0  0  0  0
 59 58  1  1  0  0  0
 60 59  1  0  0  0  0
 61 63  1  0  0  0  0
 62 61  2  0  0  0  0
 63 64  1  0  0  0  0
 64 65  1  0  0  0  0
 64 66  1  0  0  0  0
 65 66  1  0  0  0  0
M  END
>  <MODEL>
8

>  <REMARK>
 VINA RESULT:      -4.6      3.213      9.339
  Name = 
  27 active torsions:
  status: ('A' for Active; 'I' for Inactive)
    1  A    between atoms: C_3  and  C_5
    2  A    between atoms: C_3  and  C_14
    3  A    between atoms: C_6  and  N_10
    4  A    between atoms: C_6  and  N_50
    5  A    between atoms: C_6  and  C_61
    6  A    between atoms: O_7  and  C_37
    7  A    between atoms: O_7  and  C_45
    8  A    between atoms: C_8  and  C_17
    9  A    between atoms: C_9  and  C_42
   10  A    between atoms: N_11  and  C_37
   11  A    between atoms: C_13  and  C_42
   12  A    between atoms: C_13  and  O_53
   13  A    between atoms: C_17  and  C_18
   14  A    between atoms: C_17  and  C_26
   15  A    between atoms: C_18  and  C_48
   16  A    between atoms: C_23  and  C_49
   17  A    between atoms: C_27  and  C_28
   18  A    between atoms: C_27  and  C_37
   19  A    between atoms: C_28  and  N_50
   20  A    between atoms: C_29  and  C_55
   21  A    between atoms: C_31  and  C_42
   22  A    between atoms: C_35  and  O_53
   23  A    between atoms: C_44  and  C_45
   24  A    between atoms: C_46  and  N_59
   25  A    between atoms: C_46  and  N_66
   26  A    between atoms: C_51  and  N_59
   27  A    between atoms: C_55  and  S_60
                            x       y       z     vdW  Elec       q    Type
                         _______ _______ _______ _____ _____    ______ ____

>  <TORSDO>
F 27

$$$$
=
 OpenBabel10222420423D

 66 71  0  0  1  0  0  0  0  0999 V2000
  188.5900  178.2270  139.6200 C   0  0  2  0  0  3  0  0  0  0  0  0
  186.3660  178.3770  142.7920 C   0  0  2  0  0  3  0  0  0  0  0  0
  187.6740  178.8440  140.6850 C   0  0  2  0  0  3  0  0  0  0  0  0
  188.1020  178.2720  142.3690 S   0  0  0  0  0  0  0  0  0  0  0  0
  186.2190  178.4460  140.4380 C   0  0  0  0  0  2  0  0  0  0  0  0
  185.5410  178.4860  141.7600 C   0  0  0  0  0  2  0  0  0  0  0  0
  185.8750  178.4880  144.2040 C   0  0  1  0  0  3  0  0  0  0  0  0
  184.8060  177.6070  144.3970 O   0  0  0  0  0  1  0  0  0  0  0  0
  188.3630  176.6580  147.2260 C   0  0  0  0  0  2  0  0  0  0  0  0
  187.0020  178.1970  145.1980 C   0  0  2  0  0  3  0  0  0  0  0  0
  188.8920  176.6410  145.7890 C   0  0  1  0  0  3  0  0  0  0  0  0
  187.7630  176.9260  144.8000 C   0  0  0  0  0  2  0  0  0  0  0  0
  186.4530  178.0300  146.5450 N   0  0  0  0  0  2  0  0  0  0  0  0
  187.5610  177.9300  147.4920 C   0  0  0  0  0  2  0  0  0  0  0  0
  190.0330  177.6340  145.5950 C   0  0  0  0  0  2  0  0  0  0  0  0
  190.7980  176.0780  143.6740 N   0  0  0  0  0  1  0  0  0  0  0  0
  191.5590  176.7750  145.1060 S   0  0  0  0  0  0  0  0  0  0  0  0
  186.7170  178.0600  138.0800 N   0  0  0  0  0  0  0  0  0  0  0  0
  187.8190  177.5640  138.5150 C   0  0  0  0  0  3  0  0  0  0  0  0
  186.0070  177.4160  137.0070 C   0  0  1  0  0  3  0  0  0  0  0  0
  184.5260  177.7540  137.0860 C   0  0  0  0  0  2  0  0  0  0  0  0
  183.9580  177.3380  138.4290 C   0  0  0  0  0  2  0  0  0  0  0  0
  182.7200  176.6000  138.2350 N   0  0  0  0  0  2  0  0  0  0  0  0
  181.6240  177.4290  138.7290 C   0  0  1  0  0  3  0  0  0  0  0  0
  180.3530  176.9740  138.1730 N   0  0  0  0  0  2  0  0  0  0  0  0
  181.2100  174.7970  137.1270 C   0  0  0  0  0  3  0  0  0  0  0  0
  180.6080  173.8340  136.4470 C   0  0  0  0  0  0  0  0  0  0  0  0
  179.0050  175.4000  137.0030 N   0  0  0  0  0  0  0  0  0  0  0  0
  179.1490  174.1340  136.3040 C   0  0  0  0  0  2  0  0  0  0  0  0
  180.1610  175.7510  137.4530 C   0  0  0  0  0  0  0  0  0  0  0  0
  183.2420  171.2350  135.6830 C   0  0  0  0  0  0  0  0  0  0  0  0
  184.6720  170.9580  135.9690 C   0  0  0  0  0  1  0  0  0  0  0  0
  180.5680  171.7100  135.1440 C   0  0  0  0  0  3  0  0  0  0  0  0
  182.4970  170.3470  134.9090 C   0  0  0  0  0  3  0  0  0  0  0  0
  181.2790  172.6330  135.9200 C   0  0  0  0  0  0  0  0  0  0  0  0
  181.1860  170.6010  134.6590 N   0  0  0  0  0  0  0  0  0  0  0  0
  182.6320  172.3820  136.1860 C   0  0  0  0  0  3  0  0  0  0  0  0
  179.9500  178.4740  142.0220 C   0  0  0  0  0  2  0  0  0  0  0  0
  181.9680  178.7990  140.7750 N   0  0  0  0  0  2  0  0  0  0  0  0
  181.3930  178.9070  142.1020 C   0  0  0  0  0  2  0  0  0  0  0  0
  179.8790  177.1060  140.8430 S   0  0  0  0  0  0  0  0  0  0  0  0
  181.5600  177.4970  140.2620 C   0  0  1  0  0  3  0  0  0  0  0  0
  186.5220  177.8510  135.7860 O   0  0  0  0  0  0  0  0  0  0  0  0
  186.5290  176.7160  134.9710 C   0  0  0  0  0  2  0  0  0  0  0  0
  186.6900  174.3730  136.0370 C   0  0  0  0  0  1  0  0  0  0  0  0
  188.6670  175.7630  135.6890 C   0  0  0  0  0  2  0  0  0  0  0  0
  187.3450  175.6420  135.6090 C   0  0  0  0  0  0  0  0  0  0  0  0
  189.5540  177.2300  140.2470 C   0  0  0  0  0  2  0  0  0  0  0  0
  191.3490  176.3790  138.8220 C   0  0  0  0  0  3  0  0  0  0  0  0
  190.8820  177.3580  139.5900 C   0  0  0  0  0  3  0  0  0  0  0  0
  192.6830  176.5100  138.1550 C   0  0  2  0  0  3  0  0  0  0  0  0
  192.7370  175.6360  136.9400 C   0  0  0  0  0  0  0  0  0  0  0  0
  192.3600  176.0780  135.8210 O   0  0  0  0  0  0  0  0  0  0  0  0
  193.2440  174.3040  137.0590 N   0  0  0  0  0  2  0  0  0  0  0  0
  192.0790  173.4210  135.0920 C   0  0  0  0  0  1  0  0  0  0  0  0
  193.3280  173.3580  135.9510 C   0  0  2  0  0  3  0  0  0  0  0  0
  193.5300  172.0080  136.4580 N   0  0  0  0  0  2  0  0  0  0  0  0
  194.5720  170.6840  134.7200 C   0  0  0  0  0  1  0  0  0  0  0  0
  194.8070  171.5270  135.9570 C   0  0  2  0  0  3  0  0  0  0  0  0
  195.6340  170.5150  137.2240 S   0  0  0  0  0  1  0  0  0  0  0  0
  193.8120  176.2290  139.1080 C   0  0  0  0  0  0  0  0  0  0  0  0
  193.9120  176.8950  140.1750 O   0  0  0  0  0  0  0  0  0  0  0  0
  194.7960  175.2970  138.7700 O   0  0  0  0  0  0  0  0  0  0  0  0
  195.4930  174.5510  139.7580 C   0  0  0  0  0  3  0  0  0  0  0  0
  196.8510  174.1560  139.2140 C   0  0  0  0  0  2  0  0  0  0  0  0
  196.7330  175.3170  140.1760 C   0  0  0  0  0  2  0  0  0  0  0  0
  1 19  1  6  0  0  0
  1 48  1  0  0  0  0
  2  7  1  1  0  0  0
  3  1  1  6  0  0  0
  3  4  1  0  0  0  0
  4  2  1  0  0  0  0
  5  3  1  0  0  0  0
  5  6  1  0  0  0  0
  6  2  1  0  0  0  0
  7  8  1  6  0  0  0
  9 14  1  0  0  0  0
 10  7  1  6  0  0  0
 10 13  1  0  0  0  0
 11 15  1  1  0  0  0
 11  9  1  0  0  0  0
 12 10  1  0  0  0  0
 12 11  1  0  0  0  0
 13 14  1  0  0  0  0
 16 17  1  0  0  0  0
 17 15  1  0  0  0  0
 18 19  2  0  0  0  0
 20 21  1  6  0  0  0
 20 18  1  0  0  0  0
 21 22  1  0  0  0  0
 23 22  1  0  0  0  0
 23 24  1  0  0  0  0
 24 25  1  1  0  0  0
 26 30  1  0  0  0  0
 27 26  2  0  0  0  0
 28 30  2  0  0  0  0
 29 27  1  0  0  0  0
 29 28  1  0  0  0  0
 30 25  1  0  0  0  0
 31 32  1  0  0  0  0
 31 37  1  0  0  0  0
 33 35  1  0  0  0  0
 34 31  2  0  0  0  0
 35 37  2  0  0  0  0
 35 27  1  0  0  0  0
 36 34  1  0  0  0  0
 36 33  2  0  0  0  0
 38 40  1  0  0  0  0
 39 40  1  0  0  0  0
 41 38  1  0  0  0  0
 42 24  1  6  0  0  0
 42 39  1  0  0  0  0
 42 41  1  0  0  0  0
 43 20  1  0  0  0  0
 44 47  1  0  0  0  0
 44 43  1  0  0  0  0
 47 46  2  0  0  0  0
 47 45  1  0  0  0  0
 49 50  2  0  0  0  0
 50 48  1  0  0  0  0
 51 49  1  1  0  0  0
 51 61  1  0  0  0  0
 52 54  1  0  0  0  0
 52 51  1  0  0  0  0
 53 52  2  0  0  0  0
 56 55  1  1  0  0  0
 56 57  1  0  0  0  0
 56 54  1  0  0  0  0
 59 58  1  6  0  0  0
 59 57  1  0  0  0  0
 59 60  1  0  0  0  0
 61 62  2  0  0  0  0
 63 61  1  0  0  0  0
 63 64  1  0  0  0  0
 64 66  1  0  0  0  0
 65 64  1  0  0  0  0
 65 66  1  0  0  0  0
M  END
>  <MODEL>
9

>  <REMARK>
 VINA RESULT:      -4.2      3.052      9.107
  Name = 
  27 active torsions:
  status: ('A' for Active; 'I' for Inactive)
    1  A    between atoms: C_3  and  C_5
    2  A    between atoms: C_3  and  C_14
    3  A    between atoms: C_6  and  N_10
    4  A    between atoms: C_6  and  N_50
    5  A    between atoms: C_6  and  C_61
    6  A    between atoms: O_7  and  C_37
    7  A    between atoms: O_7  and  C_45
    8  A    between atoms: C_8  and  C_17
    9  A    between atoms: C_9  and  C_42
   10  A    between atoms: N_11  and  C_37
   11  A    between atoms: C_13  and  C_42
   12  A    between atoms: C_13  and  O_53
   13  A    between atoms: C_17  and  C_18
   14  A    between atoms: C_17  and  C_26
   15  A    between atoms: C_18  and  C_48
   16  A    between atoms: C_23  and  C_49
   17  A    between atoms: C_27  and  C_28
   18  A    between atoms: C_27  and  C_37
   19  A    between atoms: C_28  and  N_50
   20  A    between atoms: C_29  and  C_55
   21  A    between atoms: C_31  and  C_42
   22  A    between atoms: C_35  and  O_53
   23  A    between atoms: C_44  and  C_45
   24  A    between atoms: C_46  and  N_59
   25  A    between atoms: C_46  and  N_66
   26  A    between atoms: C_51  and  N_59
   27  A    between atoms: C_55  and  S_60
                            x       y       z     vdW  Elec       q    Type
                         _______ _______ _______ _____ _____    ______ ____

>  <TORSDO>
F 27

$$$$
