=
 OpenBabel10222416323D

 32 33  0  0  1  0  0  0  0  0999 V2000
  190.3920  176.9360  144.3810 C   0  0  0  0  0  2  0  0  0  0  0  0
  191.0090  176.7100  147.3630 C   0  0  0  0  0  3  0  0  0  0  0  0
  187.5700  177.8350  146.3100 C   0  0  0  0  0  3  0  0  0  0  0  0
  188.0470  177.1540  144.2100 N   0  0  0  0  0  0  0  0  0  0  0  0
  189.1890  177.1310  144.9270 C   0  0  0  0  0  0  0  0  0  0  0  0
  187.0830  177.6240  145.0310 C   0  0  0  0  0  0  0  0  0  0  0  0
  191.6710  177.2810  145.0730 C   0  0  0  0  0  2  0  0  0  0  0  0
  191.8310  176.6240  146.3620 N   0  0  0  0  0  0  0  0  0  0  0  0
  189.6780  177.3480  147.3230 C   0  0  0  0  0  2  0  0  0  0  0  0
  188.9120  177.4970  146.2380 C   0  0  0  0  0  0  0  0  0  0  0  0
  187.8900  176.8940  142.7800 C   0  0  0  0  0  2  0  0  0  0  0  0
  187.8210  178.1940  141.9790 C   0  0  2  0  0  3  0  0  0  0  0  0
  185.9510  179.3500  141.7110 C   0  0  0  0  0  1  0  0  0  0  0  0
  186.6190  178.2060  141.2670 O   0  0  0  0  0  0  0  0  0  0  0  0
  188.5800  178.8010  139.7840 O   0  0  0  0  0  1  0  0  0  0  0  0
  189.0080  178.3040  141.0180 C   0  0  2  0  0  3  0  0  0  0  0  0
  189.6750  176.9500  140.8030 C   0  0  0  0  0  2  0  0  0  0  0  0
  190.0340  176.7570  139.3390 C   0  0  0  0  0  2  0  0  0  0  0  0
  191.0610  175.8190  139.2170 O   0  0  0  0  0  0  0  0  0  0  0  0
  191.5520  176.0040  137.9250 C   0  0  0  0  0  2  0  0  0  0  0  0
  193.0260  176.2480  137.9670 C   0  0  0  0  0  0  0  0  0  0  0  0
  193.4750  177.1280  138.6820 O   0  0  0  0  0  0  0  0  0  0  0  0
  193.9630  175.4010  137.1620 C   0  0  2  0  0  3  0  0  0  0  0  0
  195.0410  174.9970  137.9490 O   0  0  0  0  0  1  0  0  0  0  0  0
  194.4690  176.1700  135.9560 C   0  0  0  0  0  1  0  0  0  0  0  0
  185.6570  177.8170  144.6270 C   0  0  0  0  0  2  0  0  0  0  0  0
  185.0550  178.9610  145.4160 C   0  0  0  0  0  2  0  0  0  0  0  0
  183.5440  178.8780  145.3710 C   0  0  0  0  0  2  0  0  0  0  0  0
  183.0860  179.0060  143.9290 C   0  0  0  0  0  2  0  0  0  0  0  0
  181.5720  178.9360  143.8390 C   0  0  0  0  0  2  0  0  0  0  0  0
  182.3460  178.5770  141.5160 C   0  0  0  0  0  1  0  0  0  0  0  0
  181.1350  178.8220  142.3890 C   0  0  0  0  0  2  0  0  0  0  0  0
  1  5  1  0  0  0  0
  1  7  1  0  0  0  0
  4  5  1  0  0  0  0
  4  6  1  0  0  0  0
  5 10  2  0  0  0  0
  6  3  2  0  0  0  0
  7  8  1  0  0  0  0
  8  2  2  0  0  0  0
  9  2  1  0  0  0  0
 10  3  1  0  0  0  0
 10  9  1  0  0  0  0
 11  4  1  0  0  0  0
 12 11  1  6  0  0  0
 14 13  1  0  0  0  0
 14 12  1  0  0  0  0
 16 15  1  6  0  0  0
 16 12  1  0  0  0  0
 17 16  1  0  0  0  0
 18 17  1  0  0  0  0
 19 18  1  0  0  0  0
 20 21  1  0  0  0  0
 20 19  1  0  0  0  0
 21 22  2  0  0  0  0
 23 25  1  6  0  0  0
 23 24  1  0  0  0  0
 23 21  1  0  0  0  0
 26  6  1  0  0  0  0
 26 27  1  0  0  0  0
 28 27  1  0  0  0  0
 29 28  1  0  0  0  0
 30 29  1  0  0  0  0
 31 32  1  0  0  0  0
 32 30  1  0  0  0  0
M  END
>  <MODEL>
1

>  <REMARK>
 VINA RESULT:      -7.2      0.000      0.000
  Name = 
  16 active torsions:
  status: ('A' for Active; 'I' for Inactive)
    1  A    between atoms: C_1  and  C_22
    2  A    between atoms: C_1  and  C_24
    3  A    between atoms: C_2  and  C_7
    4  A    between atoms: C_2  and  C_25
    5  A    between atoms: C_6  and  C_9
    6  A    between atoms: C_6  and  C_32
    7  A    between atoms: C_9  and  O_12
    8  A    between atoms: N_10  and  C_20
    9  A    between atoms: O_12  and  C_25
   10  A    between atoms: C_14  and  C_17
   11  A    between atoms: C_14  and  C_19
   12  A    between atoms: C_16  and  O_18
   13  A    between atoms: C_16  and  C_20
   14  A    between atoms: C_16  and  C_32
   15  A    between atoms: C_17  and  C_21
   16  A    between atoms: C_21  and  C_24
                            x       y       z     vdW  Elec       q    Type
                         _______ _______ _______ _____ _____    ______ ____

>  <TORSDO>
F 16

$$$$
=
 OpenBabel10222416323D

 32 33  0  0  1  0  0  0  0  0999 V2000
  186.8160  178.7620  141.4070 C   0  0  0  0  0  2  0  0  0  0  0  0
  185.1570  178.9190  143.9650 C   0  0  0  0  0  3  0  0  0  0  0  0
  188.0500  176.5070  143.8330 C   0  0  0  0  0  3  0  0  0  0  0  0
  188.7650  177.5480  141.9610 N   0  0  0  0  0  0  0  0  0  0  0  0
  187.5250  177.9980  142.2420 C   0  0  0  0  0  0  0  0  0  0  0  0
  189.0600  176.6170  142.8920 C   0  0  0  0  0  0  0  0  0  0  0  0
  185.3370  178.9480  141.5210 C   0  0  0  0  0  2  0  0  0  0  0  0
  184.9140  179.4660  142.8130 N   0  0  0  0  0  0  0  0  0  0  0  0
  186.0510  177.7660  144.1920 C   0  0  0  0  0  2  0  0  0  0  0  0
  187.0830  177.4100  143.4200 C   0  0  0  0  0  0  0  0  0  0  0  0
  189.5790  177.8640  140.7880 C   0  0  0  0  0  2  0  0  0  0  0  0
  189.2210  176.9690  139.6020 C   0  0  2  0  0  3  0  0  0  0  0  0
  191.4320  176.9090  139.4850 C   0  0  0  0  0  1  0  0  0  0  0  0
  190.2940  176.1080  139.3620 O   0  0  0  0  0  0  0  0  0  0  0  0
  188.9900  179.1700  138.6720 O   0  0  0  0  0  1  0  0  0  0  0  0
  188.9280  177.8110  138.3560 C   0  0  2  0  0  3  0  0  0  0  0  0
  187.5500  177.4960  137.7860 C   0  0  0  0  0  2  0  0  0  0  0  0
  187.5850  176.2090  136.9790 C   0  0  0  0  0  2  0  0  0  0  0  0
  186.4020  175.4940  137.1650 O   0  0  0  0  0  0  0  0  0  0  0  0
  185.3910  176.4440  137.0140 C   0  0  0  0  0  2  0  0  0  0  0  0
  184.1390  175.9700  137.6800 C   0  0  0  0  0  0  0  0  0  0  0  0
  183.9180  174.7740  137.7750 O   0  0  0  0  0  0  0  0  0  0  0  0
  183.1670  176.9490  138.2610 C   0  0  2  0  0  3  0  0  0  0  0  0
  183.7190  178.2290  138.2660 O   0  0  0  0  0  1  0  0  0  0  0  0
  182.7900  176.5470  139.6740 C   0  0  0  0  0  1  0  0  0  0  0  0
  190.3460  175.8560  142.9410 C   0  0  0  0  0  2  0  0  0  0  0  0
  191.4510  176.7550  143.4550 C   0  0  0  0  0  2  0  0  0  0  0  0
  191.0720  177.3140  144.8090 C   0  0  0  0  0  2  0  0  0  0  0  0
  191.6410  176.4130  145.8910 C   0  0  0  0  0  2  0  0  0  0  0  0
  191.0580  176.7680  147.2470 C   0  0  0  0  0  2  0  0  0  0  0  0
  189.0500  177.9300  148.1090 C   0  0  0  0  0  1  0  0  0  0  0  0
  189.5440  176.8570  147.1640 C   0  0  0  0  0  2  0  0  0  0  0  0
  1  7  1  0  0  0  0
  1  5  1  0  0  0  0
  2  9  1  0  0  0  0
  4  5  1  0  0  0  0
  4  6  1  0  0  0  0
  5 10  2  0  0  0  0
  6 26  1  0  0  0  0
  6  3  2  0  0  0  0
  7  8  1  0  0  0  0
  8  2  2  0  0  0  0
 10  3  1  0  0  0  0
 10  9  1  0  0  0  0
 11  4  1  0  0  0  0
 12 11  1  1  0  0  0
 14 13  1  0  0  0  0
 14 12  1  0  0  0  0
 16 15  1  1  0  0  0
 16 12  1  0  0  0  0
 17 16  1  0  0  0  0
 18 19  1  0  0  0  0
 18 17  1  0  0  0  0
 20 19  1  0  0  0  0
 20 21  1  0  0  0  0
 21 22  2  0  0  0  0
 21 23  1  0  0  0  0
 23 24  1  0  0  0  0
 23 25  1  1  0  0  0
 26 27  1  0  0  0  0
 27 28  1  0  0  0  0
 28 29  1  0  0  0  0
 29 30  1  0  0  0  0
 32 30  1  0  0  0  0
 32 31  1  0  0  0  0
M  END
>  <MODEL>
2

>  <REMARK>
 VINA RESULT:      -7.2      2.588      6.954
  Name = 
  16 active torsions:
  status: ('A' for Active; 'I' for Inactive)
    1  A    between atoms: C_1  and  C_22
    2  A    between atoms: C_1  and  C_24
    3  A    between atoms: C_2  and  C_7
    4  A    between atoms: C_2  and  C_25
    5  A    between atoms: C_6  and  C_9
    6  A    between atoms: C_6  and  C_32
    7  A    between atoms: C_9  and  O_12
    8  A    between atoms: N_10  and  C_20
    9  A    between atoms: O_12  and  C_25
   10  A    between atoms: C_14  and  C_17
   11  A    between atoms: C_14  and  C_19
   12  A    between atoms: C_16  and  O_18
   13  A    between atoms: C_16  and  C_20
   14  A    between atoms: C_16  and  C_32
   15  A    between atoms: C_17  and  C_21
   16  A    between atoms: C_21  and  C_24
                            x       y       z     vdW  Elec       q    Type
                         _______ _______ _______ _____ _____    ______ ____

>  <TORSDO>
F 16

$$$$
=
 OpenBabel10222416323D

 32 33  0  0  1  0  0  0  0  0999 V2000
  190.3940  176.9770  144.4140 C   0  0  0  0  0  2  0  0  0  0  0  0
  190.9940  176.7500  147.3990 C   0  0  0  0  0  3  0  0  0  0  0  0
  187.5500  177.8420  146.3270 C   0  0  0  0  0  3  0  0  0  0  0  0
  188.0470  177.1710  144.2280 N   0  0  0  0  0  0  0  0  0  0  0  0
  189.1850  177.1580  144.9530 C   0  0  0  0  0  0  0  0  0  0  0  0
  187.0730  177.6280  145.0440 C   0  0  0  0  0  0  0  0  0  0  0  0
  191.6650  177.3330  145.1160 C   0  0  0  0  0  2  0  0  0  0  0  0
  191.8230  176.6740  146.4030 N   0  0  0  0  0  0  0  0  0  0  0  0
  189.6570  177.3730  147.3530 C   0  0  0  0  0  2  0  0  0  0  0  0
  188.8960  177.5180  146.2630 C   0  0  0  0  0  0  0  0  0  0  0  0
  187.9030  176.9120  142.7970 C   0  0  0  0  0  2  0  0  0  0  0  0
  187.7770  178.2130  142.0040 C   0  0  2  0  0  3  0  0  0  0  0  0
  185.8880  179.3180  141.6640 C   0  0  0  0  0  1  0  0  0  0  0  0
  186.5830  178.1700  141.2780 O   0  0  0  0  0  0  0  0  0  0  0  0
  188.5230  178.8360  139.8080 O   0  0  0  0  0  1  0  0  0  0  0  0
  188.9670  178.3890  141.0560 C   0  0  2  0  0  3  0  0  0  0  0  0
  189.7280  177.0810  140.8720 C   0  0  0  0  0  2  0  0  0  0  0  0
  191.2240  177.3370  140.8060 C   0  0  0  0  0  2  0  0  0  0  0  0
  191.7320  176.8960  139.5830 O   0  0  0  0  0  0  0  0  0  0  0  0
  190.6560  176.2610  138.9640 C   0  0  0  0  0  2  0  0  0  0  0  0
  190.6870  176.5180  137.4920 C   0  0  0  0  0  0  0  0  0  0  0  0
  191.7480  176.4810  136.8920 O   0  0  0  0  0  0  0  0  0  0  0  0
  189.4220  176.7910  136.7380 C   0  0  2  0  0  3  0  0  0  0  0  0
  189.2650  178.1620  136.5430 O   0  0  0  0  0  1  0  0  0  0  0  0
  188.2260  176.2400  137.4920 C   0  0  0  0  0  1  0  0  0  0  0  0
  185.6490  177.8080  144.6310 C   0  0  0  0  0  2  0  0  0  0  0  0
  185.0550  179.0000  145.3530 C   0  0  0  0  0  2  0  0  0  0  0  0
  183.5440  178.9160  145.3290 C   0  0  0  0  0  2  0  0  0  0  0  0
  183.0640  179.0890  143.8990 C   0  0  0  0  0  2  0  0  0  0  0  0
  181.5730  178.8240  143.7980 C   0  0  0  0  0  2  0  0  0  0  0  0
  182.2580  178.5910  141.4310 C   0  0  0  0  0  1  0  0  0  0  0  0
  181.1130  178.9420  142.3550 C   0  0  0  0  0  2  0  0  0  0  0  0
  1  5  1  0  0  0  0
  1  7  1  0  0  0  0
  4  5  1  0  0  0  0
  4  6  1  0  0  0  0
  5 10  2  0  0  0  0
  6  3  2  0  0  0  0
  7  8  1  0  0  0  0
  8  2  2  0  0  0  0
  9  2  1  0  0  0  0
 10  3  1  0  0  0  0
 10  9  1  0  0  0  0
 11  4  1  0  0  0  0
 12 11  1  6  0  0  0
 14 13  1  0  0  0  0
 14 12  1  0  0  0  0
 16 15  1  6  0  0  0
 16 12  1  0  0  0  0
 17 16  1  0  0  0  0
 18 17  1  0  0  0  0
 19 18  1  0  0  0  0
 20 19  1  0  0  0  0
 21 20  1  0  0  0  0
 22 21  2  0  0  0  0
 23 25  1  1  0  0  0
 23 21  1  0  0  0  0
 24 23  1  0  0  0  0
 26  6  1  0  0  0  0
 26 27  1  0  0  0  0
 28 27  1  0  0  0  0
 29 28  1  0  0  0  0
 30 29  1  0  0  0  0
 31 32  1  0  0  0  0
 32 30  1  0  0  0  0
M  END
>  <MODEL>
3

>  <REMARK>
 VINA RESULT:      -7.1      1.330      2.012
  Name = 
  16 active torsions:
  status: ('A' for Active; 'I' for Inactive)
    1  A    between atoms: C_1  and  C_22
    2  A    between atoms: C_1  and  C_24
    3  A    between atoms: C_2  and  C_7
    4  A    between atoms: C_2  and  C_25
    5  A    between atoms: C_6  and  C_9
    6  A    between atoms: C_6  and  C_32
    7  A    between atoms: C_9  and  O_12
    8  A    between atoms: N_10  and  C_20
    9  A    between atoms: O_12  and  C_25
   10  A    between atoms: C_14  and  C_17
   11  A    between atoms: C_14  and  C_19
   12  A    between atoms: C_16  and  O_18
   13  A    between atoms: C_16  and  C_20
   14  A    between atoms: C_16  and  C_32
   15  A    between atoms: C_17  and  C_21
   16  A    between atoms: C_21  and  C_24
                            x       y       z     vdW  Elec       q    Type
                         _______ _______ _______ _____ _____    ______ ____

>  <TORSDO>
F 16

$$$$
=
 OpenBabel10222416323D

 32 33  0  0  1  0  0  0  0  0999 V2000
  190.4710  176.8850  144.4390 C   0  0  0  0  0  2  0  0  0  0  0  0
  191.0330  176.6930  147.4330 C   0  0  0  0  0  3  0  0  0  0  0  0
  187.6380  177.8790  146.3050 C   0  0  0  0  0  3  0  0  0  0  0  0
  188.1340  177.1530  144.2240 N   0  0  0  0  0  0  0  0  0  0  0  0
  189.2630  177.1150  144.9610 C   0  0  0  0  0  0  0  0  0  0  0  0
  187.1680  177.6570  145.0210 C   0  0  0  0  0  0  0  0  0  0  0  0
  191.7460  177.2110  145.1470 C   0  0  0  0  0  2  0  0  0  0  0  0
  191.8690  176.5720  146.4480 N   0  0  0  0  0  0  0  0  0  0  0  0
  189.7180  177.3600  147.3610 C   0  0  0  0  0  2  0  0  0  0  0  0
  188.9730  177.5090  146.2610 C   0  0  0  0  0  0  0  0  0  0  0  0
  187.9950  176.8730  142.7960 C   0  0  0  0  0  2  0  0  0  0  0  0
  188.8450  177.8250  141.9550 C   0  0  2  0  0  3  0  0  0  0  0  0
  186.8190  178.4410  141.3050 C   0  0  0  0  0  1  0  0  0  0  0  0
  188.0730  178.9500  141.6520 O   0  0  0  0  0  0  0  0  0  0  0  0
  190.2770  176.1730  140.9630 O   0  0  0  0  0  1  0  0  0  0  0  0
  189.3140  177.1410  140.6670 C   0  0  2  0  0  3  0  0  0  0  0  0
  189.9080  178.1480  139.6890 C   0  0  0  0  0  2  0  0  0  0  0  0
  189.3180  177.9590  138.3020 C   0  0  0  0  0  2  0  0  0  0  0  0
  188.0970  178.6260  138.2040 O   0  0  0  0  0  0  0  0  0  0  0  0
  187.7730  178.5690  136.8490 C   0  0  0  0  0  2  0  0  0  0  0  0
  187.2250  177.2200  136.5090 C   0  0  0  0  0  0  0  0  0  0  0  0
  187.7440  176.5600  135.6240 O   0  0  0  0  0  0  0  0  0  0  0  0
  186.0620  176.6560  137.2660 C   0  0  2  0  0  3  0  0  0  0  0  0
  185.6150  175.4850  136.6560 O   0  0  0  0  0  1  0  0  0  0  0  0
  184.9320  177.6660  137.3300 C   0  0  0  0  0  1  0  0  0  0  0  0
  185.7540  177.8760  144.5900 C   0  0  0  0  0  2  0  0  0  0  0  0
  185.0940  178.8890  145.5030 C   0  0  0  0  0  2  0  0  0  0  0  0
  183.6180  178.9900  145.1780 C   0  0  0  0  0  2  0  0  0  0  0  0
  183.4320  178.8370  143.6790 C   0  0  0  0  0  2  0  0  0  0  0  0
  181.9930  179.1200  143.2860 C   0  0  0  0  0  2  0  0  0  0  0  0
  183.0560  178.3860  141.1760 C   0  0  0  0  0  1  0  0  0  0  0  0
  181.7370  178.6640  141.8610 C   0  0  0  0  0  2  0  0  0  0  0  0
  1  5  1  0  0  0  0
  1  7  1  0  0  0  0
  4  5  1  0  0  0  0
  4  6  1  0  0  0  0
  5 10  2  0  0  0  0
  6  3  2  0  0  0  0
  7  8  1  0  0  0  0
  8  2  2  0  0  0  0
  9  2  1  0  0  0  0
 10  3  1  0  0  0  0
 10  9  1  0  0  0  0
 11  4  1  0  0  0  0
 12 11  1  1  0  0  0
 13 14  1  0  0  0  0
 14 12  1  0  0  0  0
 16 15  1  1  0  0  0
 16 12  1  0  0  0  0
 17 16  1  0  0  0  0
 18 17  1  0  0  0  0
 19 18  1  0  0  0  0
 20 19  1  0  0  0  0
 21 20  1  0  0  0  0
 21 23  1  0  0  0  0
 22 21  2  0  0  0  0
 23 25  1  6  0  0  0
 24 23  1  0  0  0  0
 26  6  1  0  0  0  0
 26 27  1  0  0  0  0
 28 27  1  0  0  0  0
 29 28  1  0  0  0  0
 30 29  1  0  0  0  0
 31 32  1  0  0  0  0
 32 30  1  0  0  0  0
M  END
>  <MODEL>
4

>  <REMARK>
 VINA RESULT:      -7.0      2.216      3.515
  Name = 
  16 active torsions:
  status: ('A' for Active; 'I' for Inactive)
    1  A    between atoms: C_1  and  C_22
    2  A    between atoms: C_1  and  C_24
    3  A    between atoms: C_2  and  C_7
    4  A    between atoms: C_2  and  C_25
    5  A    between atoms: C_6  and  C_9
    6  A    between atoms: C_6  and  C_32
    7  A    between atoms: C_9  and  O_12
    8  A    between atoms: N_10  and  C_20
    9  A    between atoms: O_12  and  C_25
   10  A    between atoms: C_14  and  C_17
   11  A    between atoms: C_14  and  C_19
   12  A    between atoms: C_16  and  O_18
   13  A    between atoms: C_16  and  C_20
   14  A    between atoms: C_16  and  C_32
   15  A    between atoms: C_17  and  C_21
   16  A    between atoms: C_21  and  C_24
                            x       y       z     vdW  Elec       q    Type
                         _______ _______ _______ _____ _____    ______ ____

>  <TORSDO>
F 16

$$$$
=
 OpenBabel10222416323D

 32 33  0  0  1  0  0  0  0  0999 V2000
  186.8230  178.8080  141.2740 C   0  0  0  0  0  2  0  0  0  0  0  0
  185.1520  178.8640  143.8290 C   0  0  0  0  0  3  0  0  0  0  0  0
  188.0430  176.4550  143.6130 C   0  0  0  0  0  3  0  0  0  0  0  0
  188.7690  177.5700  141.7880 N   0  0  0  0  0  0  0  0  0  0  0  0
  187.5280  178.0100  142.0810 C   0  0  0  0  0  0  0  0  0  0  0  0
  189.0580  176.6010  142.6820 C   0  0  0  0  0  0  0  0  0  0  0  0
  185.3450  178.9910  141.3890 C   0  0  0  0  0  2  0  0  0  0  0  0
  184.9160  179.4580  142.6990 N   0  0  0  0  0  0  0  0  0  0  0  0
  186.0440  177.7020  144.0130 C   0  0  0  0  0  2  0  0  0  0  0  0
  187.0790  177.3750  143.2320 C   0  0  0  0  0  0  0  0  0  0  0  0
  189.5880  177.9310  140.6330 C   0  0  0  0  0  2  0  0  0  0  0  0
  189.2200  177.1010  139.4040 C   0  0  2  0  0  3  0  0  0  0  0  0
  191.3780  176.7140  139.0900 C   0  0  0  0  0  1  0  0  0  0  0  0
  190.1530  176.0690  139.2760 O   0  0  0  0  0  0  0  0  0  0  0  0
  188.9790  179.3040  138.4820 O   0  0  0  0  0  1  0  0  0  0  0  0
  189.2140  177.9690  138.1420 C   0  0  2  0  0  3  0  0  0  0  0  0
  188.1450  177.5110  137.1580 C   0  0  0  0  0  2  0  0  0  0  0  0
  186.7650  177.5910  137.7910 C   0  0  0  0  0  2  0  0  0  0  0  0
  185.7950  177.1780  136.8770 O   0  0  0  0  0  0  0  0  0  0  0  0
  186.3310  176.0330  136.2890 C   0  0  0  0  0  2  0  0  0  0  0  0
  185.7160  174.8110  136.8920 C   0  0  0  0  0  0  0  0  0  0  0  0
  186.4160  174.0110  137.4890 O   0  0  0  0  0  0  0  0  0  0  0  0
  184.2400  174.5740  136.7970 C   0  0  2  0  0  3  0  0  0  0  0  0
  183.6580  174.6580  138.0610 O   0  0  0  0  0  1  0  0  0  0  0  0
  183.9590  173.2110  136.1930 C   0  0  0  0  0  1  0  0  0  0  0  0
  190.3420  175.8380  142.7060 C   0  0  0  0  0  2  0  0  0  0  0  0
  191.3630  176.5820  143.5420 C   0  0  0  0  0  2  0  0  0  0  0  0
  191.6540  175.8080  144.8090 C   0  0  0  0  0  2  0  0  0  0  0  0
  191.6480  176.7680  145.9860 C   0  0  0  0  0  2  0  0  0  0  0  0
  190.2980  177.4490  146.1160 C   0  0  0  0  0  2  0  0  0  0  0  0
  188.1310  177.4710  147.3110 C   0  0  0  0  0  1  0  0  0  0  0  0
  189.4810  176.7950  147.2170 C   0  0  0  0  0  2  0  0  0  0  0  0
  1  7  1  0  0  0  0
  1  5  1  0  0  0  0
  2  9  1  0  0  0  0
  4  5  1  0  0  0  0
  4  6  1  0  0  0  0
  5 10  2  0  0  0  0
  6 26  1  0  0  0  0
  6  3  2  0  0  0  0
  7  8  1  0  0  0  0
  8  2  2  0  0  0  0
 10  3  1  0  0  0  0
 10  9  1  0  0  0  0
 11  4  1  0  0  0  0
 12 11  1  1  0  0  0
 13 14  1  0  0  0  0
 14 12  1  0  0  0  0
 16 15  1  1  0  0  0
 16 12  1  0  0  0  0
 17 18  1  0  0  0  0
 17 16  1  0  0  0  0
 19 18  1  0  0  0  0
 20 19  1  0  0  0  0
 20 21  1  0  0  0  0
 21 22  2  0  0  0  0
 23 25  1  1  0  0  0
 23 21  1  0  0  0  0
 23 24  1  0  0  0  0
 26 27  1  0  0  0  0
 27 28  1  0  0  0  0
 28 29  1  0  0  0  0
 29 30  1  0  0  0  0
 30 32  1  0  0  0  0
 32 31  1  0  0  0  0
M  END
>  <MODEL>
5

>  <REMARK>
 VINA RESULT:      -7.0      3.106      6.645
  Name = 
  16 active torsions:
  status: ('A' for Active; 'I' for Inactive)
    1  A    between atoms: C_1  and  C_22
    2  A    between atoms: C_1  and  C_24
    3  A    between atoms: C_2  and  C_7
    4  A    between atoms: C_2  and  C_25
    5  A    between atoms: C_6  and  C_9
    6  A    between atoms: C_6  and  C_32
    7  A    between atoms: C_9  and  O_12
    8  A    between atoms: N_10  and  C_20
    9  A    between atoms: O_12  and  C_25
   10  A    between atoms: C_14  and  C_17
   11  A    between atoms: C_14  and  C_19
   12  A    between atoms: C_16  and  O_18
   13  A    between atoms: C_16  and  C_20
   14  A    between atoms: C_16  and  C_32
   15  A    between atoms: C_17  and  C_21
   16  A    between atoms: C_21  and  C_24
                            x       y       z     vdW  Elec       q    Type
                         _______ _______ _______ _____ _____    ______ ____

>  <TORSDO>
F 16

$$$$
=
 OpenBabel10222416323D

 32 33  0  0  1  0  0  0  0  0999 V2000
  190.8940  178.2470  143.2850 C   0  0  0  0  0  2  0  0  0  0  0  0
  190.7230  176.8710  146.0050 C   0  0  0  0  0  3  0  0  0  0  0  0
  187.5250  177.6350  144.1620 C   0  0  0  0  0  3  0  0  0  0  0  0
  188.7510  178.0480  142.3110 N   0  0  0  0  0  0  0  0  0  0  0  0
  189.5960  177.9410  143.3570 C   0  0  0  0  0  0  0  0  0  0  0  0
  187.5030  177.9100  142.8040 C   0  0  0  0  0  0  0  0  0  0  0  0
  191.7440  178.5020  144.4870 C   0  0  0  0  0  2  0  0  0  0  0  0
  191.7630  177.3950  145.4320 N   0  0  0  0  0  0  0  0  0  0  0  0
  189.3180  177.1830  145.6760 C   0  0  0  0  0  2  0  0  0  0  0  0
  188.8690  177.6360  144.5010 C   0  0  0  0  0  0  0  0  0  0  0  0
  189.0840  178.4120  140.9350 C   0  0  0  0  0  2  0  0  0  0  0  0
  189.0750  177.1910  140.0160 C   0  0  2  0  0  3  0  0  0  0  0  0
  191.2700  177.1450  139.7250 C   0  0  0  0  0  1  0  0  0  0  0  0
  190.2130  176.4270  140.2890 O   0  0  0  0  0  0  0  0  0  0  0  0
  188.7120  178.9660  138.4410 O   0  0  0  0  0  1  0  0  0  0  0  0
  189.0640  177.6180  138.5450 C   0  0  2  0  0  3  0  0  0  0  0  0
  188.0800  176.7840  137.7330 C   0  0  0  0  0  2  0  0  0  0  0  0
  187.2320  177.6750  136.8400 C   0  0  0  0  0  2  0  0  0  0  0  0
  185.9070  177.2400  136.8470 O   0  0  0  0  0  0  0  0  0  0  0  0
  185.2920  178.0060  137.8370 C   0  0  0  0  0  2  0  0  0  0  0  0
  184.0410  177.3330  138.3030 C   0  0  0  0  0  0  0  0  0  0  0  0
  183.6070  176.3700  137.6940 O   0  0  0  0  0  0  0  0  0  0  0  0
  183.3310  177.8100  139.5330 C   0  0  2  0  0  3  0  0  0  0  0  0
  182.0980  177.1700  139.6540 O   0  0  0  0  0  1  0  0  0  0  0  0
  183.1250  179.3120  139.4770 C   0  0  0  0  0  1  0  0  0  0  0  0
  186.2610  177.9730  141.9760 C   0  0  0  0  0  2  0  0  0  0  0  0
  185.3260  179.0250  142.5370 C   0  0  0  0  0  2  0  0  0  0  0  0
  184.0750  178.3670  143.0770 C   0  0  0  0  0  2  0  0  0  0  0  0
  183.6110  179.1260  144.3070 C   0  0  0  0  0  2  0  0  0  0  0  0
  184.7790  179.4130  145.2340 C   0  0  0  0  0  2  0  0  0  0  0  0
  186.0230  178.6530  147.2330 C   0  0  0  0  0  1  0  0  0  0  0  0
  184.7800  178.4380  146.3980 C   0  0  0  0  0  2  0  0  0  0  0  0
  1  5  1  0  0  0  0
  1  7  1  0  0  0  0
  3 10  1  0  0  0  0
  4  6  1  0  0  0  0
  4  5  1  0  0  0  0
  5 10  2  0  0  0  0
  6  3  2  0  0  0  0
  7  8  1  0  0  0  0
  8  2  2  0  0  0  0
  9  2  1  0  0  0  0
 10  9  1  0  0  0  0
 11  4  1  0  0  0  0
 12 14  1  0  0  0  0
 12 11  1  1  0  0  0
 13 14  1  0  0  0  0
 16 15  1  1  0  0  0
 16 12  1  0  0  0  0
 17 16  1  0  0  0  0
 18 19  1  0  0  0  0
 18 17  1  0  0  0  0
 19 20  1  0  0  0  0
 20 21  1  0  0  0  0
 21 23  1  0  0  0  0
 22 21  2  0  0  0  0
 23 25  1  6  0  0  0
 23 24  1  0  0  0  0
 26 27  1  0  0  0  0
 26  6  1  0  0  0  0
 27 28  1  0  0  0  0
 28 29  1  0  0  0  0
 29 30  1  0  0  0  0
 30 32  1  0  0  0  0
 32 31  1  0  0  0  0
M  END
>  <MODEL>
6

>  <REMARK>
 VINA RESULT:      -6.9      2.313      5.462
  Name = 
  16 active torsions:
  status: ('A' for Active; 'I' for Inactive)
    1  A    between atoms: C_1  and  C_22
    2  A    between atoms: C_1  and  C_24
    3  A    between atoms: C_2  and  C_7
    4  A    between atoms: C_2  and  C_25
    5  A    between atoms: C_6  and  C_9
    6  A    between atoms: C_6  and  C_32
    7  A    between atoms: C_9  and  O_12
    8  A    between atoms: N_10  and  C_20
    9  A    between atoms: O_12  and  C_25
   10  A    between atoms: C_14  and  C_17
   11  A    between atoms: C_14  and  C_19
   12  A    between atoms: C_16  and  O_18
   13  A    between atoms: C_16  and  C_20
   14  A    between atoms: C_16  and  C_32
   15  A    between atoms: C_17  and  C_21
   16  A    between atoms: C_21  and  C_24
                            x       y       z     vdW  Elec       q    Type
                         _______ _______ _______ _____ _____    ______ ____

>  <TORSDO>
F 16

$$$$
=
 OpenBabel10222416323D

 32 33  0  0  1  0  0  0  0  0999 V2000
  184.7620  179.1410  143.6970 C   0  0  0  0  0  2  0  0  0  0  0  0
  185.1840  178.3410  146.6130 C   0  0  0  0  0  3  0  0  0  0  0  0
  187.4970  176.9220  143.9980 C   0  0  0  0  0  3  0  0  0  0  0  0
  186.7020  178.4520  142.5390 N   0  0  0  0  0  0  0  0  0  0  0  0
  185.9150  178.4690  143.6340 C   0  0  0  0  0  0  0  0  0  0  0  0
  187.6250  177.4870  142.7400 C   0  0  0  0  0  0  0  0  0  0  0  0
  183.7120  178.8730  144.7270 C   0  0  0  0  0  2  0  0  0  0  0  0
  184.1930  179.0000  146.0950 N   0  0  0  0  0  0  0  0  0  0  0  0
  186.1150  177.4700  145.8690 C   0  0  0  0  0  2  0  0  0  0  0  0
  186.4150  177.5720  144.5690 C   0  0  0  0  0  0  0  0  0  0  0  0
  186.5100  179.1970  141.2970 C   0  0  0  0  0  2  0  0  0  0  0  0
  185.7000  178.3930  140.2810 C   0  0  2  0  0  3  0  0  0  0  0  0
  187.1890  177.8840  138.7210 C   0  0  0  0  0  1  0  0  0  0  0  0
  186.1280  178.7490  138.9990 O   0  0  0  0  0  0  0  0  0  0  0  0
  183.5280  177.4910  140.7620 O   0  0  0  0  0  1  0  0  0  0  0  0
  184.2020  178.6710  140.4370 C   0  0  2  0  0  3  0  0  0  0  0  0
  183.6090  179.2450  139.1560 C   0  0  0  0  0  2  0  0  0  0  0  0
  182.0940  179.1190  139.1640 C   0  0  0  0  0  2  0  0  0  0  0  0
  181.5520  179.9220  140.1680 O   0  0  0  0  0  0  0  0  0  0  0  0
  180.2160  179.5280  140.2480 C   0  0  0  0  0  2  0  0  0  0  0  0
  179.9820  178.7640  141.5120 C   0  0  0  0  0  0  0  0  0  0  0  0
  180.2240  177.5690  141.5520 O   0  0  0  0  0  0  0  0  0  0  0  0
  179.4830  179.4570  142.7420 C   0  0  2  0  0  3  0  0  0  0  0  0
  180.0450  180.7290  142.8370 O   0  0  0  0  0  1  0  0  0  0  0  0
  179.8240  178.6510  143.9810 C   0  0  0  0  0  1  0  0  0  0  0  0
  188.6930  177.1300  141.7580 C   0  0  0  0  0  2  0  0  0  0  0  0
  189.9770  177.8460  142.1180 C   0  0  0  0  0  2  0  0  0  0  0  0
  191.1220  176.8560  142.1700 C   0  0  0  0  0  2  0  0  0  0  0  0
  191.2930  176.3760  143.6000 C   0  0  0  0  0  2  0  0  0  0  0  0
  191.1810  177.5350  144.5730 C   0  0  0  0  0  2  0  0  0  0  0  0
  189.9020  177.1310  146.6530 C   0  0  0  0  0  1  0  0  0  0  0  0
  191.2640  177.0330  146.0040 C   0  0  0  0  0  2  0  0  0  0  0  0
  1  7  1  0  0  0  0
  3 10  1  0  0  0  0
  4  6  1  0  0  0  0
  4  5  1  0  0  0  0
  5  1  1  0  0  0  0
  5 10  2  0  0  0  0
  6  3  2  0  0  0  0
  7  8  1  0  0  0  0
  8  2  2  0  0  0  0
  9  2  1  0  0  0  0
 10  9  1  0  0  0  0
 11  4  1  0  0  0  0
 12 16  1  0  0  0  0
 12 11  1  1  0  0  0
 13 14  1  0  0  0  0
 14 12  1  0  0  0  0
 16 15  1  6  0  0  0
 17 18  1  0  0  0  0
 17 16  1  0  0  0  0
 18 19  1  0  0  0  0
 19 20  1  0  0  0  0
 20 21  1  0  0  0  0
 21 22  2  0  0  0  0
 21 23  1  0  0  0  0
 23 24  1  0  0  0  0
 23 25  1  1  0  0  0
 26 27  1  0  0  0  0
 26  6  1  0  0  0  0
 27 28  1  0  0  0  0
 28 29  1  0  0  0  0
 29 30  1  0  0  0  0
 30 32  1  0  0  0  0
 32 31  1  0  0  0  0
M  END
>  <MODEL>
7

>  <REMARK>
 VINA RESULT:      -6.8      3.592      8.681
  Name = 
  16 active torsions:
  status: ('A' for Active; 'I' for Inactive)
    1  A    between atoms: C_1  and  C_22
    2  A    between atoms: C_1  and  C_24
    3  A    between atoms: C_2  and  C_7
    4  A    between atoms: C_2  and  C_25
    5  A    between atoms: C_6  and  C_9
    6  A    between atoms: C_6  and  C_32
    7  A    between atoms: C_9  and  O_12
    8  A    between atoms: N_10  and  C_20
    9  A    between atoms: O_12  and  C_25
   10  A    between atoms: C_14  and  C_17
   11  A    between atoms: C_14  and  C_19
   12  A    between atoms: C_16  and  O_18
   13  A    between atoms: C_16  and  C_20
   14  A    between atoms: C_16  and  C_32
   15  A    between atoms: C_17  and  C_21
   16  A    between atoms: C_21  and  C_24
                            x       y       z     vdW  Elec       q    Type
                         _______ _______ _______ _____ _____    ______ ____

>  <TORSDO>
F 16

$$$$
=
 OpenBabel10222416323D

 32 33  0  0  1  0  0  0  0  0999 V2000
  190.5960  178.3330  142.9190 C   0  0  0  0  0  2  0  0  0  0  0  0
  190.7220  176.7170  145.5060 C   0  0  0  0  0  3  0  0  0  0  0  0
  187.3440  177.5190  144.0400 C   0  0  0  0  0  3  0  0  0  0  0  0
  188.3780  178.1390  142.1300 N   0  0  0  0  0  0  0  0  0  0  0  0
  189.3190  177.9730  143.0810 C   0  0  0  0  0  0  0  0  0  0  0  0
  187.1860  177.9110  142.7210 C   0  0  0  0  0  0  0  0  0  0  0  0
  191.5470  178.5130  144.0570 C   0  0  0  0  0  2  0  0  0  0  0  0
  191.6880  177.3280  144.8910 N   0  0  0  0  0  0  0  0  0  0  0  0
  189.2840  177.0040  145.3370 C   0  0  0  0  0  2  0  0  0  0  0  0
  188.7130  177.5400  144.2540 C   0  0  0  0  0  0  0  0  0  0  0  0
  188.5680  178.6350  140.7690 C   0  0  0  0  0  2  0  0  0  0  0  0
  188.8540  177.4940  139.7930 C   0  0  2  0  0  3  0  0  0  0  0  0
  190.3970  176.1130  139.0060 C   0  0  0  0  0  1  0  0  0  0  0  0
  190.2330  177.2690  139.7740 O   0  0  0  0  0  0  0  0  0  0  0  0
  188.8900  179.0680  137.9800 O   0  0  0  0  0  1  0  0  0  0  0  0
  188.3550  177.8440  138.3870 C   0  0  2  0  0  3  0  0  0  0  0  0
  186.8340  177.9280  138.3440 C   0  0  0  0  0  2  0  0  0  0  0  0
  186.2810  177.0680  137.2210 C   0  0  0  0  0  2  0  0  0  0  0  0
  186.8610  175.7990  137.2580 O   0  0  0  0  0  0  0  0  0  0  0  0
  186.1260  175.0510  136.3380 C   0  0  0  0  0  2  0  0  0  0  0  0
  185.8790  173.6780  136.8760 C   0  0  0  0  0  0  0  0  0  0  0  0
  186.7650  172.8400  136.8310 O   0  0  0  0  0  0  0  0  0  0  0  0
  184.5630  173.3280  137.5000 C   0  0  2  0  0  3  0  0  0  0  0  0
  184.2380  172.0010  137.2230 O   0  0  0  0  0  1  0  0  0  0  0  0
  183.4700  174.2430  136.9810 C   0  0  0  0  0  1  0  0  0  0  0  0
  185.8700  178.0000  142.0190 C   0  0  0  0  0  2  0  0  0  0  0  0
  185.0370  179.1060  142.6320 C   0  0  0  0  0  2  0  0  0  0  0  0
  183.6170  178.6270  142.8410 C   0  0  0  0  0  2  0  0  0  0  0  0
  183.3100  178.6260  144.3280 C   0  0  0  0  0  2  0  0  0  0  0  0
  184.4370  179.2770  145.1080 C   0  0  0  0  0  2  0  0  0  0  0  0
  186.0330  178.8870  146.9600 C   0  0  0  0  0  1  0  0  0  0  0  0
  184.6620  178.5450  146.4200 C   0  0  0  0  0  2  0  0  0  0  0  0
  1  5  1  0  0  0  0
  1  7  1  0  0  0  0
  3 10  1  0  0  0  0
  4  6  1  0  0  0  0
  4  5  1  0  0  0  0
  5 10  2  0  0  0  0
  6  3  2  0  0  0  0
  7  8  1  0  0  0  0
  8  2  2  0  0  0  0
  9  2  1  0  0  0  0
 10  9  1  0  0  0  0
 11  4  1  0  0  0  0
 12 11  1  1  0  0  0
 13 14  1  0  0  0  0
 14 12  1  0  0  0  0
 16 15  1  1  0  0  0
 16 12  1  0  0  0  0
 17 16  1  0  0  0  0
 18 19  1  0  0  0  0
 18 17  1  0  0  0  0
 20 21  1  0  0  0  0
 20 19  1  0  0  0  0
 21 23  1  0  0  0  0
 22 21  2  0  0  0  0
 23 25  1  6  0  0  0
 24 23  1  0  0  0  0
 26 27  1  0  0  0  0
 26  6  1  0  0  0  0
 27 28  1  0  0  0  0
 28 29  1  0  0  0  0
 29 30  1  0  0  0  0
 30 32  1  0  0  0  0
 32 31  1  0  0  0  0
M  END
>  <MODEL>
8

>  <REMARK>
 VINA RESULT:      -6.7      3.241      4.943
  Name = 
  16 active torsions:
  status: ('A' for Active; 'I' for Inactive)
    1  A    between atoms: C_1  and  C_22
    2  A    between atoms: C_1  and  C_24
    3  A    between atoms: C_2  and  C_7
    4  A    between atoms: C_2  and  C_25
    5  A    between atoms: C_6  and  C_9
    6  A    between atoms: C_6  and  C_32
    7  A    between atoms: C_9  and  O_12
    8  A    between atoms: N_10  and  C_20
    9  A    between atoms: O_12  and  C_25
   10  A    between atoms: C_14  and  C_17
   11  A    between atoms: C_14  and  C_19
   12  A    between atoms: C_16  and  O_18
   13  A    between atoms: C_16  and  C_20
   14  A    between atoms: C_16  and  C_32
   15  A    between atoms: C_17  and  C_21
   16  A    between atoms: C_21  and  C_24
                            x       y       z     vdW  Elec       q    Type
                         _______ _______ _______ _____ _____    ______ ____

>  <TORSDO>
F 16

$$$$
=
 OpenBabel10222416323D

 32 33  0  0  1  0  0  0  0  0999 V2000
  186.9220  178.7250  141.3930 C   0  0  0  0  0  2  0  0  0  0  0  0
  185.2540  178.8280  143.9480 C   0  0  0  0  0  3  0  0  0  0  0  0
  188.1090  176.3760  143.7520 C   0  0  0  0  0  3  0  0  0  0  0  0
  188.8490  177.4630  141.9170 N   0  0  0  0  0  0  0  0  0  0  0  0
  187.6150  177.9240  142.2070 C   0  0  0  0  0  0  0  0  0  0  0  0
  189.1250  176.4980  142.8190 C   0  0  0  0  0  0  0  0  0  0  0  0
  185.4460  178.9300  141.5070 C   0  0  0  0  0  2  0  0  0  0  0  0
  185.0250  179.4150  142.8120 N   0  0  0  0  0  0  0  0  0  0  0  0
  186.1290  177.6550  144.1430 C   0  0  0  0  0  2  0  0  0  0  0  0
  187.1580  177.3060  143.3640 C   0  0  0  0  0  0  0  0  0  0  0  0
  189.6730  177.8020  140.7580 C   0  0  0  0  0  2  0  0  0  0  0  0
  189.2870  176.9710  139.5350 C   0  0  2  0  0  3  0  0  0  0  0  0
  191.4480  176.7540  139.0990 C   0  0  0  0  0  1  0  0  0  0  0  0
  190.2840  176.0150  139.3210 O   0  0  0  0  0  0  0  0  0  0  0  0
  189.0390  179.2020  138.6840 O   0  0  0  0  0  1  0  0  0  0  0  0
  189.1330  177.8620  138.2990 C   0  0  2  0  0  3  0  0  0  0  0  0
  187.8930  177.4880  137.4960 C   0  0  0  0  0  2  0  0  0  0  0  0
  188.2760  177.0400  136.0950 C   0  0  0  0  0  2  0  0  0  0  0  0
  189.6600  177.1070  135.9320 O   0  0  0  0  0  0  0  0  0  0  0  0
  189.9380  176.1920  134.9170 C   0  0  0  0  0  2  0  0  0  0  0  0
  191.0030  175.2410  135.3610 C   0  0  0  0  0  0  0  0  0  0  0  0
  192.1240  175.3220  134.8880 O   0  0  0  0  0  0  0  0  0  0  0  0
  190.7160  174.2080  136.4070 C   0  0  2  0  0  3  0  0  0  0  0  0
  191.9010  173.6030  136.8230 O   0  0  0  0  0  1  0  0  0  0  0  0
  189.7660  173.1560  135.8660 C   0  0  0  0  0  1  0  0  0  0  0  0
  190.3980  175.7170  142.8500 C   0  0  0  0  0  2  0  0  0  0  0  0
  191.2530  176.1780  144.0120 C   0  0  0  0  0  2  0  0  0  0  0  0
  191.1770  177.6840  144.1400 C   0  0  0  0  0  2  0  0  0  0  0  0
  190.8840  178.0420  145.5860 C   0  0  0  0  0  2  0  0  0  0  0  0
  190.8830  176.7990  146.4570 C   0  0  0  0  0  2  0  0  0  0  0  0
  188.7780  177.9720  147.0210 C   0  0  0  0  0  1  0  0  0  0  0  0
  189.6280  176.7550  147.3120 C   0  0  0  0  0  2  0  0  0  0  0  0
  1  7  1  0  0  0  0
  1  5  1  0  0  0  0
  2  9  1  0  0  0  0
  4  5  1  0  0  0  0
  4  6  1  0  0  0  0
  5 10  2  0  0  0  0
  6 26  1  0  0  0  0
  6  3  2  0  0  0  0
  7  8  1  0  0  0  0
  8  2  2  0  0  0  0
 10  3  1  0  0  0  0
 10  9  1  0  0  0  0
 11  4  1  0  0  0  0
 12 11  1  1  0  0  0
 13 14  1  0  0  0  0
 14 12  1  0  0  0  0
 16 15  1  1  0  0  0
 16 12  1  0  0  0  0
 17 16  1  0  0  0  0
 18 17  1  0  0  0  0
 19 18  1  0  0  0  0
 20 21  1  0  0  0  0
 20 19  1  0  0  0  0
 21 23  1  0  0  0  0
 22 21  2  0  0  0  0
 23 25  1  6  0  0  0
 23 24  1  0  0  0  0
 26 27  1  0  0  0  0
 27 28  1  0  0  0  0
 28 29  1  0  0  0  0
 29 30  1  0  0  0  0
 30 32  1  0  0  0  0
 31 32  1  0  0  0  0
M  END
>  <MODEL>
9

>  <REMARK>
 VINA RESULT:      -6.7      2.354      5.517
  Name = 
  16 active torsions:
  status: ('A' for Active; 'I' for Inactive)
    1  A    between atoms: C_1  and  C_22
    2  A    between atoms: C_1  and  C_24
    3  A    between atoms: C_2  and  C_7
    4  A    between atoms: C_2  and  C_25
    5  A    between atoms: C_6  and  C_9
    6  A    between atoms: C_6  and  C_32
    7  A    between atoms: C_9  and  O_12
    8  A    between atoms: N_10  and  C_20
    9  A    between atoms: O_12  and  C_25
   10  A    between atoms: C_14  and  C_17
   11  A    between atoms: C_14  and  C_19
   12  A    between atoms: C_16  and  O_18
   13  A    between atoms: C_16  and  C_20
   14  A    between atoms: C_16  and  C_32
   15  A    between atoms: C_17  and  C_21
   16  A    between atoms: C_21  and  C_24
                            x       y       z     vdW  Elec       q    Type
                         _______ _______ _______ _____ _____    ______ ____

>  <TORSDO>
F 16

$$$$
