=
 OpenBabel10222419133D

 56 60  0  0  1  0  0  0  0  0999 V2000
  182.4900  178.6470  142.3000 N   0  0  0  0  0  2  0  0  0  0  0  0
  182.9780  178.6650  143.6420 C   0  0  0  0  0  0  0  0  0  0  0  0
  182.1760  178.6370  144.6140 O   0  0  0  0  0  0  0  0  0  0  0  0
  185.1960  179.3900  142.7750 C   0  0  0  0  0  1  0  0  0  0  0  0
  184.4550  178.6420  143.8730 C   0  0  1  0  0  3  0  0  0  0  0  0
  184.7800  179.2330  145.2330 C   0  0  0  0  0  2  0  0  0  0  0  0
  188.7560  178.0300  146.5120 O   0  0  0  0  0  0  0  0  0  0  0  0
  186.0250  178.6280  145.7770 C   0  0  0  0  0  0  0  0  0  0  0  0
  186.1080  178.3870  147.0090 O   0  0  0  0  0  0  0  0  0  0  0  0
  187.0930  178.2890  144.8890 N   0  0  0  0  0  2  0  0  0  0  0  0
  188.4130  177.9280  145.3020 C   0  0  0  0  0  0  0  0  0  0  0  0
  190.0630  179.8080  144.0500 O   0  0  0  0  0  0  0  0  0  0  0  0
  191.2560  174.6330  143.1980 F   0  0  0  0  0  0  0  0  0  0  0  0
  192.8500  176.8130  141.9850 O   0  0  0  0  0  1  0  0  0  0  0  0
  191.5500  176.9320  142.4730 C   0  0  1  0  0  0  0  0  0  0  0  0
  190.2810  178.6050  143.7540 C   0  0  0  0  0  0  0  0  0  0  0  0
  190.8470  176.4600  145.9040 O   0  0  0  0  0  1  0  0  0  0  0  0
  191.3740  175.9380  143.6420 C   0  0  1  0  0  3  0  0  0  0  0  0
  189.4050  177.4950  144.2560 C   0  0  1  0  0  3  0  0  0  0  0  0
  191.3470  178.2770  142.9200 O   0  0  0  0  0  0  0  0  0  0  0  0
  190.2580  176.2710  144.6520 C   0  0  2  0  0  3  0  0  0  0  0  0
  190.5640  176.6080  141.3490 C   0  0  0  0  0  2  0  0  0  0  0  0
  190.8670  177.3520  140.2060 O   0  0  0  0  0  0  0  0  0  0  0  0
  188.0730  176.8060  137.3510 O   0  0  0  0  0  0  0  0  0  0  0  0
  190.2470  176.0670  138.2310 C   0  0  2  0  0  3  0  0  0  0  0  0
  189.2870  178.3870  138.7080 C   0  0  0  0  0  2  0  0  0  0  0  0
  191.5880  176.4320  137.6070 C   0  0  0  0  0  1  0  0  0  0  0  0
  189.1920  175.9740  137.1140 C   0  0  0  0  0  2  0  0  0  0  0  0
  188.5570  178.1240  137.3850 C   0  0  0  0  0  2  0  0  0  0  0  0
  189.8290  177.0850  139.3100 C   0  0  2  0  0  3  0  0  0  0  0  0
  181.0700  178.5880  141.9800 C   0  0  0  0  0  2  0  0  0  0  0  0
  180.8350  178.9810  140.5350 C   0  0  0  0  0  2  0  0  0  0  0  0
  181.7890  179.9220  140.1370 O   0  0  0  0  0  0  0  0  0  0  0  0
  183.2480  174.6520  136.9930 C   0  0  0  0  0  2  0  0  0  0  0  0
  179.3680  178.5000  136.3310 C   0  0  0  0  0  2  0  0  0  0  0  0
  180.7720  179.0580  136.1630 C   0  0  0  0  0  2  0  0  0  0  0  0
  183.5200  177.0570  138.2240 C   0  0  1  0  0  3  0  0  0  0  0  0
  180.9880  174.7370  138.0330 N   0  0  0  0  0  2  0  0  0  0  0  0
  182.4310  174.7860  138.2820 C   0  0  2  0  0  3  0  0  0  0  0  0
  180.4630  182.8390  136.3280 C   0  0  0  0  0  3  0  0  0  0  0  0
  181.0430  183.1220  137.5640 C   0  0  0  0  0  3  0  0  0  0  0  0
  182.8520  176.0070  139.1140 C   0  0  0  0  0  2  0  0  0  0  0  0
  181.4410  180.7520  137.9280 C   0  0  0  0  0  0  0  0  0  0  0  0
  184.0510  178.2110  139.0560 C   0  0  0  0  0  2  0  0  0  0  0  0
  182.0190  179.6590  138.7810 C   0  0  1  0  0  3  0  0  0  0  0  0
  181.5350  182.0840  138.3560 C   0  0  0  0  0  3  0  0  0  0  0  0
  180.5390  175.9280  137.3140 C   0  0  0  0  0  2  0  0  0  0  0  0
  180.8610  180.4670  136.6710 C   0  0  0  0  0  0  0  0  0  0  0  0
  180.3710  181.5220  135.8770 C   0  0  0  0  0  0  0  0  0  0  0  0
  183.5180  179.5320  138.5210 C   0  0  0  0  0  2  0  0  0  0  0  0
  179.1560  178.0370  137.6940 N   0  0  0  0  0  2  0  0  0  0  0  0
  179.4440  176.4710  139.3830 O   0  0  0  0  0  0  0  0  0  0  0  0
  179.7900  181.2670  134.6370 O   0  0  0  0  0  1  0  0  0  0  0  0
  184.6270  176.4480  137.3440 C   0  0  0  0  0  2  0  0  0  0  0  0
  184.5770  175.0350  137.2470 O   0  0  0  0  0  0  0  0  0  0  0  0
  179.7020  176.8140  138.1960 C   0  0  0  0  0  0  0  0  0  0  0  0
  1  2  1  0  0  0  0
  2  5  1  0  0  0  0
  2  3  2  0  0  0  0
  5  4  1  6  0  0  0
  5  6  1  0  0  0  0
  6  8  1  0  0  0  0
  8  9  2  0  0  0  0
 10 11  1  0  0  0  0
 10  8  1  0  0  0  0
 11  7  2  0  0  0  0
 15 14  1  6  0  0  0
 15 20  1  0  0  0  0
 15 18  1  0  0  0  0
 16 12  2  0  0  0  0
 16 19  1  0  0  0  0
 18 13  1  6  0  0  0
 18 21  1  0  0  0  0
 19 21  1  0  0  0  0
 19 11  1  1  0  0  0
 20 16  1  0  0  0  0
 21 17  1  1  0  0  0
 22 15  1  0  0  0  0
 23 22  1  0  0  0  0
 24 29  1  0  0  0  0
 25 27  1  6  0  0  0
 25 30  1  0  0  0  0
 26 30  1  0  0  0  0
 28 24  1  0  0  0  0
 28 25  1  0  0  0  0
 29 26  1  0  0  0  0
 30 23  1  6  0  0  0
 31  1  1  0  0  0  0
 32 31  1  0  0  0  0
 33 32  1  0  0  0  0
 34 55  1  0  0  0  0
 35 51  1  0  0  0  0
 36 35  1  0  0  0  0
 36 48  1  0  0  0  0
 37 54  1  1  0  0  0
 37 44  1  0  0  0  0
 37 42  1  0  0  0  0
 38 39  1  0  0  0  0
 39 34  1  6  0  0  0
 39 42  1  0  0  0  0
 40 41  1  0  0  0  0
 41 46  2  0  0  0  0
 43 46  1  0  0  0  0
 43 45  1  0  0  0  0
 45 33  1  1  0  0  0
 47 38  1  0  0  0  0
 47 56  1  0  0  0  0
 48 43  2  0  0  0  0
 49 40  2  0  0  0  0
 49 48  1  0  0  0  0
 50 45  1  0  0  0  0
 50 44  1  0  0  0  0
 51 56  1  0  0  0  0
 53 49  1  0  0  0  0
 55 54  1  0  0  0  0
 56 52  2  0  0  0  0
M  END
>  <MODEL>
1

>  <REMARK>
 VINA RESULT:      -8.0      0.000      0.000
  Name = 
  11 active torsions:
  status: ('A' for Active; 'I' for Inactive)
    1  A    between atoms: N_1  and  C_24
    2  A    between atoms: C_8  and  C_30
    3  A    between atoms: C_10  and  C_35
    4  A    between atoms: C_20  and  C_49
    5  A    between atoms: C_24  and  C_51
    6  A    between atoms: C_25  and  O_39
    7  A    between atoms: C_30  and  C_35
    8  A    between atoms: O_39  and  C_51
    9  A    between atoms: C_40  and  C_50
   10  A    between atoms: C_46  and  O_54
   11  A    between atoms: C_49  and  O_54
                            x       y       z     vdW  Elec       q    Type
                         _______ _______ _______ _____ _____    ______ ____

>  <TORSDO>
F 11

$$$$
=
 OpenBabel10222419133D

 56 60  0  0  1  0  0  0  0  0999 V2000
  186.4960  177.3590  135.5790 N   0  0  0  0  0  2  0  0  0  0  0  0
  187.7300  176.7060  135.8800 C   0  0  0  0  0  0  0  0  0  0  0  0
  187.8900  175.4860  135.6060 O   0  0  0  0  0  0  0  0  0  0  0  0
  188.4030  178.9270  136.7800 C   0  0  0  0  0  1  0  0  0  0  0  0
  188.8510  177.5100  136.4560 C   0  0  1  0  0  3  0  0  0  0  0  0
  189.3990  176.8280  137.6970 C   0  0  0  0  0  2  0  0  0  0  0  0
  187.6770  178.5700  141.2870 O   0  0  0  0  0  0  0  0  0  0  0  0
  188.6340  177.2490  138.9000 C   0  0  0  0  0  0  0  0  0  0  0  0
  187.4130  177.5320  138.7900 O   0  0  0  0  0  0  0  0  0  0  0  0
  189.2830  177.2870  140.1730 N   0  0  0  0  0  2  0  0  0  0  0  0
  188.7380  177.8890  141.3500 C   0  0  0  0  0  0  0  0  0  0  0  0
  188.6140  175.5180  142.8300 O   0  0  0  0  0  0  0  0  0  0  0  0
  192.3170  179.1060  144.3620 F   0  0  0  0  0  0  0  0  0  0  0  0
  191.9860  176.5210  145.7660 O   0  0  0  0  0  1  0  0  0  0  0  0
  191.0320  177.1320  144.9550 C   0  0  1  0  0  0  0  0  0  0  0  0
  189.4030  176.3960  143.2650 C   0  0  0  0  0  0  0  0  0  0  0  0
  191.6270  177.6240  141.5060 O   0  0  0  0  0  1  0  0  0  0  0  0
  191.7660  177.9400  143.8620 C   0  0  1  0  0  3  0  0  0  0  0  0
  189.4920  177.7590  142.6450 C   0  0  1  0  0  3  0  0  0  0  0  0
  190.2090  176.1190  144.3670 O   0  0  0  0  0  0  0  0  0  0  0  0
  190.9630  178.2250  142.5770 C   0  0  2  0  0  3  0  0  0  0  0  0
  190.1710  178.0620  145.8120 C   0  0  0  0  0  2  0  0  0  0  0  0
  189.1780  177.3350  146.4720 O   0  0  0  0  0  0  0  0  0  0  0  0
  185.6730  179.3270  146.4310 O   0  0  0  0  0  0  0  0  0  0  0  0
  187.5810  178.6050  147.8040 C   0  0  2  0  0  3  0  0  0  0  0  0
  186.9170  177.4190  145.6410 C   0  0  0  0  0  2  0  0  0  0  0  0
  187.5300  177.4490  148.7950 C   0  0  0  0  0  1  0  0  0  0  0  0
  186.1920  179.2670  147.7460 C   0  0  0  0  0  2  0  0  0  0  0  0
  185.5410  177.9990  145.9940 C   0  0  0  0  0  2  0  0  0  0  0  0
  188.0340  178.1350  146.4080 C   0  0  2  0  0  3  0  0  0  0  0  0
  185.3780  176.6750  134.9450 C   0  0  0  0  0  2  0  0  0  0  0  0
  184.1290  176.7970  135.7960 C   0  0  0  0  0  2  0  0  0  0  0  0
  184.4160  176.4320  137.1150 O   0  0  0  0  0  0  0  0  0  0  0  0
  178.9520  179.0710  138.8370 C   0  0  0  0  0  2  0  0  0  0  0  0
  180.2480  174.8990  135.4880 C   0  0  0  0  0  2  0  0  0  0  0  0
  180.6370  174.6260  136.9320 C   0  0  0  0  0  2  0  0  0  0  0  0
  181.4080  177.9260  139.0080 C   0  0  1  0  0  3  0  0  0  0  0  0
  179.5240  179.1760  136.4170 N   0  0  0  0  0  2  0  0  0  0  0  0
  179.9380  179.5550  137.7700 C   0  0  2  0  0  3  0  0  0  0  0  0
  183.0110  171.6620  136.8710 C   0  0  0  0  0  3  0  0  0  0  0  0
  184.2300  172.2630  137.1860 C   0  0  0  0  0  3  0  0  0  0  0  0
  181.3860  179.1480  138.0870 C   0  0  0  0  0  2  0  0  0  0  0  0
  183.1360  174.4290  137.3200 C   0  0  0  0  0  0  0  0  0  0  0  0
  182.8300  177.5930  139.4280 C   0  0  0  0  0  2  0  0  0  0  0  0
  183.2220  175.8990  137.6160 C   0  0  1  0  0  3  0  0  0  0  0  0
  184.2900  173.6380  137.4150 C   0  0  0  0  0  3  0  0  0  0  0  0
  179.6200  177.7300  136.2240 C   0  0  0  0  0  2  0  0  0  0  0  0
  181.8990  173.8190  137.0090 C   0  0  0  0  0  0  0  0  0  0  0  0
  181.8490  172.4290  136.7840 C   0  0  0  0  0  0  0  0  0  0  0  0
  183.1370  176.1340  139.1220 C   0  0  0  0  0  2  0  0  0  0  0  0
  181.0110  176.0150  134.9500 N   0  0  0  0  0  2  0  0  0  0  0  0
  181.4310  178.2890  134.7460 O   0  0  0  0  0  0  0  0  0  0  0  0
  180.6440  171.8050  136.4710 O   0  0  0  0  0  1  0  0  0  0  0  0
  180.4940  178.1110  140.2330 C   0  0  0  0  0  2  0  0  0  0  0  0
  179.5580  179.1660  140.1020 O   0  0  0  0  0  0  0  0  0  0  0  0
  180.7390  177.3790  135.2810 C   0  0  0  0  0  0  0  0  0  0  0  0
  1  2  1  0  0  0  0
  2  5  1  0  0  0  0
  3  2  2  0  0  0  0
  5  4  1  1  0  0  0
  5  6  1  0  0  0  0
  6  8  1  0  0  0  0
  7 11  2  0  0  0  0
  8 10  1  0  0  0  0
  9  8  2  0  0  0  0
 10 11  1  0  0  0  0
 12 16  2  0  0  0  0
 15 14  1  1  0  0  0
 15 22  1  0  0  0  0
 16 20  1  0  0  0  0
 18 13  1  1  0  0  0
 18 15  1  0  0  0  0
 19 11  1  6  0  0  0
 19 16  1  0  0  0  0
 20 15  1  0  0  0  0
 21 17  1  6  0  0  0
 21 19  1  0  0  0  0
 21 18  1  0  0  0  0
 22 23  1  0  0  0  0
 24 28  1  0  0  0  0
 25 27  1  1  0  0  0
 26 29  1  0  0  0  0
 26 30  1  0  0  0  0
 28 25  1  0  0  0  0
 29 24  1  0  0  0  0
 30 23  1  1  0  0  0
 30 25  1  0  0  0  0
 31  1  1  0  0  0  0
 31 32  1  0  0  0  0
 32 33  1  0  0  0  0
 34 55  1  0  0  0  0
 35 36  1  0  0  0  0
 36 48  1  0  0  0  0
 37 42  1  1  0  0  0
 37 44  1  0  0  0  0
 37 54  1  0  0  0  0
 38 39  1  0  0  0  0
 39 42  1  1  0  0  0
 39 34  1  0  0  0  0
 40 41  1  0  0  0  0
 41 46  2  0  0  0  0
 43 46  1  0  0  0  0
 43 45  1  0  0  0  0
 45 33  1  1  0  0  0
 45 50  1  0  0  0  0
 47 38  1  0  0  0  0
 48 43  2  0  0  0  0
 49 40  2  0  0  0  0
 49 48  1  0  0  0  0
 50 44  1  0  0  0  0
 51 56  1  0  0  0  0
 51 35  1  0  0  0  0
 52 56  2  0  0  0  0
 53 49  1  0  0  0  0
 55 54  1  0  0  0  0
 56 47  1  0  0  0  0
M  END
>  <MODEL>
2

>  <REMARK>
 VINA RESULT:      -8.0      2.391      6.800
  Name = 
  11 active torsions:
  status: ('A' for Active; 'I' for Inactive)
    1  A    between atoms: N_1  and  C_24
    2  A    between atoms: C_8  and  C_30
    3  A    between atoms: C_10  and  C_35
    4  A    between atoms: C_20  and  C_49
    5  A    between atoms: C_24  and  C_51
    6  A    between atoms: C_25  and  O_39
    7  A    between atoms: C_30  and  C_35
    8  A    between atoms: O_39  and  C_51
    9  A    between atoms: C_40  and  C_50
   10  A    between atoms: C_46  and  O_54
   11  A    between atoms: C_49  and  O_54
                            x       y       z     vdW  Elec       q    Type
                         _______ _______ _______ _____ _____    ______ ____

>  <TORSDO>
F 11

$$$$
=
 OpenBabel10222419133D

 56 60  0  0  1  0  0  0  0  0999 V2000
  185.2890  176.1530  137.0240 N   0  0  0  0  0  2  0  0  0  0  0  0
  186.3200  175.1850  136.8250 C   0  0  0  0  0  0  0  0  0  0  0  0
  186.3390  174.1240  137.5050 O   0  0  0  0  0  0  0  0  0  0  0  0
  187.7120  176.8870  135.6590 C   0  0  0  0  0  1  0  0  0  0  0  0
  187.3310  175.4170  135.7490 C   0  0  1  0  0  3  0  0  0  0  0  0
  188.5620  174.5630  135.9950 C   0  0  0  0  0  2  0  0  0  0  0  0
  191.8060  176.4120  138.2180 O   0  0  0  0  0  0  0  0  0  0  0  0
  189.6510  175.3810  136.5910 C   0  0  0  0  0  0  0  0  0  0  0  0
  190.6110  175.7530  135.8680 O   0  0  0  0  0  0  0  0  0  0  0  0
  189.5720  175.7700  137.9640 N   0  0  0  0  0  2  0  0  0  0  0  0
  190.6470  176.3460  138.7120 C   0  0  0  0  0  0  0  0  0  0  0  0
  192.7040  177.4540  140.2500 O   0  0  0  0  0  0  0  0  0  0  0  0
  187.7250  177.8950  142.2380 F   0  0  0  0  0  0  0  0  0  0  0  0
  190.0720  178.9840  143.6750 O   0  0  0  0  0  1  0  0  0  0  0  0
  190.1100  178.0030  142.6870 C   0  0  1  0  0  0  0  0  0  0  0  0
  191.5610  177.4610  140.7760 C   0  0  0  0  0  0  0  0  0  0  0  0
  189.1150  178.7250  139.3720 O   0  0  0  0  0  1  0  0  0  0  0  0
  188.9480  178.2580  141.7010 C   0  0  1  0  0  3  0  0  0  0  0  0
  190.3840  176.8010  140.1210 C   0  0  1  0  0  3  0  0  0  0  0  0
  191.3700  178.0770  142.0100 O   0  0  0  0  0  0  0  0  0  0  0  0
  189.1180  177.6690  140.2860 C   0  0  2  0  0  3  0  0  0  0  0  0
  189.9560  176.6290  143.3420 C   0  0  0  0  0  2  0  0  0  0  0  0
  191.0460  176.3630  144.1740 O   0  0  0  0  0  0  0  0  0  0  0  0
  190.0510  177.7900  147.8110 O   0  0  0  0  0  0  0  0  0  0  0  0
  191.7820  176.6610  146.4770 C   0  0  2  0  0  3  0  0  0  0  0  0
  189.3120  176.6410  145.8240 C   0  0  0  0  0  2  0  0  0  0  0  0
  192.0740  175.1680  146.5480 C   0  0  0  0  0  1  0  0  0  0  0  0
  191.3050  177.1370  147.8620 C   0  0  0  0  0  2  0  0  0  0  0  0
  189.1290  176.8440  147.3340 C   0  0  0  0  0  2  0  0  0  0  0  0
  190.7400  176.9830  145.3880 C   0  0  2  0  0  3  0  0  0  0  0  0
  184.2180  175.9740  137.9940 C   0  0  0  0  0  2  0  0  0  0  0  0
  183.5580  177.3030  138.3080 C   0  0  0  0  0  2  0  0  0  0  0  0
  184.0220  177.7860  139.5340 O   0  0  0  0  0  0  0  0  0  0  0  0
  178.9340  180.2830  136.7680 C   0  0  0  0  0  2  0  0  0  0  0  0
  179.7020  177.4630  141.4320 C   0  0  0  0  0  2  0  0  0  0  0  0
  180.4260  178.8000  141.4370 C   0  0  0  0  0  2  0  0  0  0  0  0
  181.4330  180.0590  137.8040 C   0  0  1  0  0  3  0  0  0  0  0  0
  178.9320  177.8140  137.0770 N   0  0  0  0  0  2  0  0  0  0  0  0
  179.6180  178.9490  136.4560 C   0  0  2  0  0  3  0  0  0  0  0  0
  182.9120  178.6750  144.3060 C   0  0  0  0  0  3  0  0  0  0  0  0
  184.1280  178.5900  143.6290 C   0  0  0  0  0  3  0  0  0  0  0  0
  181.1220  178.9790  136.7650 C   0  0  0  0  0  2  0  0  0  0  0  0
  182.9550  178.6160  141.5010 C   0  0  0  0  0  0  0  0  0  0  0  0
  182.9320  180.1810  138.0230 C   0  0  0  0  0  2  0  0  0  0  0  0
  183.0100  178.6350  140.0000 C   0  0  1  0  0  3  0  0  0  0  0  0
  184.1490  178.5660  142.2340 C   0  0  0  0  0  3  0  0  0  0  0  0
  179.0750  177.8470  138.5320 C   0  0  0  0  0  2  0  0  0  0  0  0
  181.7230  178.7110  142.1860 C   0  0  0  0  0  0  0  0  0  0  0  0
  181.7130  178.7380  143.5940 C   0  0  0  0  0  0  0  0  0  0  0  0
  183.2550  180.0580  139.5050 C   0  0  0  0  0  2  0  0  0  0  0  0
  180.2480  176.5830  140.4110 N   0  0  0  0  0  2  0  0  0  0  0  0
  180.4620  175.9120  138.1990 O   0  0  0  0  0  0  0  0  0  0  0  0
  180.5120  178.8250  144.2940 O   0  0  0  0  0  1  0  0  0  0  0  0
  180.8120  181.4170  137.4280 C   0  0  0  0  0  2  0  0  0  0  0  0
  179.8040  181.3370  136.4360 O   0  0  0  0  0  0  0  0  0  0  0  0
  179.9700  176.7390  139.0170 C   0  0  0  0  0  0  0  0  0  0  0  0
  1 31  1  0  0  0  0
  2  1  1  0  0  0  0
  2  3  2  0  0  0  0
  5  4  1  1  0  0  0
  5  6  1  0  0  0  0
  5  2  1  0  0  0  0
  6  8  1  0  0  0  0
  7 11  2  0  0  0  0
  8 10  1  0  0  0  0
  9  8  2  0  0  0  0
 10 11  1  0  0  0  0
 12 16  2  0  0  0  0
 15 22  1  0  0  0  0
 15 14  1  1  0  0  0
 16 20  1  0  0  0  0
 18 13  1  1  0  0  0
 18 15  1  0  0  0  0
 19 11  1  6  0  0  0
 19 21  1  0  0  0  0
 19 16  1  0  0  0  0
 20 15  1  0  0  0  0
 21 17  1  6  0  0  0
 21 18  1  0  0  0  0
 22 23  1  0  0  0  0
 24 28  1  0  0  0  0
 25 27  1  1  0  0  0
 25 28  1  0  0  0  0
 26 29  1  0  0  0  0
 29 24  1  0  0  0  0
 30 23  1  6  0  0  0
 30 26  1  0  0  0  0
 30 25  1  0  0  0  0
 31 32  1  0  0  0  0
 32 33  1  0  0  0  0
 35 36  1  0  0  0  0
 36 48  1  0  0  0  0
 37 42  1  6  0  0  0
 37 44  1  0  0  0  0
 38 47  1  0  0  0  0
 39 42  1  1  0  0  0
 39 34  1  0  0  0  0
 39 38  1  0  0  0  0
 41 40  1  0  0  0  0
 43 48  2  0  0  0  0
 43 46  1  0  0  0  0
 44 50  1  0  0  0  0
 45 33  1  1  0  0  0
 45 43  1  0  0  0  0
 46 41  2  0  0  0  0
 47 56  1  0  0  0  0
 48 49  1  0  0  0  0
 49 53  1  0  0  0  0
 49 40  2  0  0  0  0
 50 45  1  0  0  0  0
 51 35  1  0  0  0  0
 52 56  2  0  0  0  0
 54 37  1  0  0  0  0
 55 34  1  0  0  0  0
 55 54  1  0  0  0  0
 56 51  1  0  0  0  0
M  END
>  <MODEL>
3

>  <REMARK>
 VINA RESULT:      -7.4      2.186      6.674
  Name = 
  11 active torsions:
  status: ('A' for Active; 'I' for Inactive)
    1  A    between atoms: N_1  and  C_24
    2  A    between atoms: C_8  and  C_30
    3  A    between atoms: C_10  and  C_35
    4  A    between atoms: C_20  and  C_49
    5  A    between atoms: C_24  and  C_51
    6  A    between atoms: C_25  and  O_39
    7  A    between atoms: C_30  and  C_35
    8  A    between atoms: O_39  and  C_51
    9  A    between atoms: C_40  and  C_50
   10  A    between atoms: C_46  and  O_54
   11  A    between atoms: C_49  and  O_54
                            x       y       z     vdW  Elec       q    Type
                         _______ _______ _______ _____ _____    ______ ____

>  <TORSDO>
F 11

$$$$
=
 OpenBabel10222419133D

 56 60  0  0  1  0  0  0  0  0999 V2000
  184.1910  177.1020  136.5250 N   0  0  0  0  0  2  0  0  0  0  0  0
  185.3860  176.4060  136.8820 C   0  0  0  0  0  0  0  0  0  0  0  0
  185.3360  175.2090  137.2730 O   0  0  0  0  0  0  0  0  0  0  0  0
  186.6710  178.0610  135.5380 C   0  0  0  0  0  1  0  0  0  0  0  0
  186.7010  177.0960  136.7140 C   0  0  1  0  0  3  0  0  0  0  0  0
  187.0750  177.8270  137.9910 C   0  0  0  0  0  2  0  0  0  0  0  0
  190.5270  176.0240  139.9220 O   0  0  0  0  0  0  0  0  0  0  0  0
  188.3910  177.3500  138.4950 C   0  0  0  0  0  0  0  0  0  0  0  0
  189.2190  176.8530  137.6890 O   0  0  0  0  0  0  0  0  0  0  0  0
  188.7140  177.5000  139.8790 N   0  0  0  0  0  2  0  0  0  0  0  0
  189.8270  176.8810  140.5290 C   0  0  0  0  0  0  0  0  0  0  0  0
  189.7650  174.8800  142.4840 O   0  0  0  0  0  0  0  0  0  0  0  0
  191.7660  179.6410  143.9910 F   0  0  0  0  0  0  0  0  0  0  0  0
  191.5910  177.3640  145.8750 O   0  0  0  0  0  1  0  0  0  0  0  0
  190.8570  177.5020  144.6990 C   0  0  1  0  0  0  0  0  0  0  0  0
  190.1280  176.0200  142.8760 C   0  0  0  0  0  0  0  0  0  0  0  0
  192.4640  177.5470  141.5510 O   0  0  0  0  0  1  0  0  0  0  0  0
  191.7090  178.2930  143.6820 C   0  0  1  0  0  3  0  0  0  0  0  0
  190.1010  177.2150  141.9700 C   0  0  1  0  0  3  0  0  0  0  0  0
  190.5490  176.1990  144.1910 O   0  0  0  0  0  0  0  0  0  0  0  0
  191.3520  178.0910  142.1960 C   0  0  2  0  0  3  0  0  0  0  0  0
  189.5620  178.2560  145.0040 C   0  0  0  0  0  2  0  0  0  0  0  0
  188.5880  177.3770  145.4830 O   0  0  0  0  0  0  0  0  0  0  0  0
  185.4560  179.4020  147.0150 O   0  0  0  0  0  0  0  0  0  0  0  0
  187.6800  178.4540  147.4710 C   0  0  2  0  0  3  0  0  0  0  0  0
  186.1910  177.6170  145.5700 C   0  0  0  0  0  2  0  0  0  0  0  0
  187.9140  177.1630  148.2430 C   0  0  0  0  0  1  0  0  0  0  0  0
  186.4150  179.1370  148.0210 C   0  0  0  0  0  2  0  0  0  0  0  0
  185.0830  178.1570  146.4830 C   0  0  0  0  0  2  0  0  0  0  0  0
  187.5580  178.1930  145.9560 C   0  0  2  0  0  3  0  0  0  0  0  0
  182.8740  176.4820  136.5810 C   0  0  0  0  0  2  0  0  0  0  0  0
  182.2330  176.7210  137.9340 C   0  0  0  0  0  2  0  0  0  0  0  0
  180.8420  176.7600  137.8000 O   0  0  0  0  0  0  0  0  0  0  0  0
  180.7610  179.4040  143.5260 C   0  0  0  0  0  2  0  0  0  0  0  0
  182.8370  180.9590  138.6710 C   0  0  0  0  0  2  0  0  0  0  0  0
  181.3220  180.8390  138.6420 C   0  0  0  0  0  2  0  0  0  0  0  0
  179.9000  178.1990  141.2500 C   0  0  1  0  0  3  0  0  0  0  0  0
  182.9990  178.8680  142.5800 N   0  0  0  0  0  2  0  0  0  0  0  0
  181.7070  178.3210  143.0000 C   0  0  2  0  0  3  0  0  0  0  0  0
  180.3070  180.8290  134.9820 C   0  0  0  0  0  3  0  0  0  0  0  0
  179.9100  179.5050  134.7970 C   0  0  0  0  0  3  0  0  0  0  0  0
  181.0500  177.4460  141.9220 C   0  0  0  0  0  2  0  0  0  0  0  0
  180.4490  179.0120  137.1150 C   0  0  0  0  0  0  0  0  0  0  0  0
  179.1650  177.2990  140.2710 C   0  0  0  0  0  2  0  0  0  0  0  0
  180.4660  178.0310  138.2520 C   0  0  1  0  0  3  0  0  0  0  0  0
  179.9760  178.6030  135.8590 C   0  0  0  0  0  3  0  0  0  0  0  0
  182.8550  179.6920  141.3810 C   0  0  0  0  0  2  0  0  0  0  0  0
  180.8420  180.3560  137.3050 C   0  0  0  0  0  0  0  0  0  0  0  0
  180.7680  181.2590  136.2270 C   0  0  0  0  0  0  0  0  0  0  0  0
  179.0880  177.9650  138.9050 C   0  0  0  0  0  2  0  0  0  0  0  0
  183.4540  179.6620  138.9030 N   0  0  0  0  0  2  0  0  0  0  0  0
  184.0620  177.9150  140.3050 O   0  0  0  0  0  0  0  0  0  0  0  0
  181.1550  182.5870  136.3860 O   0  0  0  0  0  1  0  0  0  0  0  0
  178.9320  178.8100  142.2800 C   0  0  0  0  0  2  0  0  0  0  0  0
  179.4560  178.8830  143.5940 O   0  0  0  0  0  0  0  0  0  0  0  0
  183.4790  179.0280  140.1850 C   0  0  0  0  0  0  0  0  0  0  0  0
  1 31  1  0  0  0  0
  1  2  1  0  0  0  0
  2  3  2  0  0  0  0
  5  4  1  6  0  0  0
  5  2  1  0  0  0  0
  5  6  1  0  0  0  0
  6  8  1  0  0  0  0
  7 11  2  0  0  0  0
  8 10  1  0  0  0  0
  9  8  2  0  0  0  0
 10 11  1  0  0  0  0
 12 16  2  0  0  0  0
 15 22  1  0  0  0  0
 15 14  1  1  0  0  0
 16 20  1  0  0  0  0
 18 13  1  1  0  0  0
 18 15  1  0  0  0  0
 19 11  1  6  0  0  0
 19 21  1  0  0  0  0
 19 16  1  0  0  0  0
 20 15  1  0  0  0  0
 21 17  1  6  0  0  0
 21 18  1  0  0  0  0
 22 23  1  0  0  0  0
 24 28  1  0  0  0  0
 25 28  1  0  0  0  0
 25 27  1  1  0  0  0
 26 30  1  0  0  0  0
 26 29  1  0  0  0  0
 29 24  1  0  0  0  0
 30 23  1  1  0  0  0
 30 25  1  0  0  0  0
 31 32  1  0  0  0  0
 33 32  1  0  0  0  0
 34 55  1  0  0  0  0
 35 51  1  0  0  0  0
 36 35  1  0  0  0  0
 37 44  1  6  0  0  0
 37 42  1  0  0  0  0
 37 54  1  0  0  0  0
 38 39  1  0  0  0  0
 39 42  1  6  0  0  0
 39 34  1  0  0  0  0
 40 49  1  0  0  0  0
 41 40  2  0  0  0  0
 41 46  1  0  0  0  0
 43 48  1  0  0  0  0
 43 45  1  0  0  0  0
 45 33  1  6  0  0  0
 45 50  1  0  0  0  0
 46 43  2  0  0  0  0
 47 38  1  0  0  0  0
 48 36  1  0  0  0  0
 49 53  1  0  0  0  0
 49 48  2  0  0  0  0
 50 44  1  0  0  0  0
 51 56  1  0  0  0  0
 54 55  1  0  0  0  0
 56 52  2  0  0  0  0
 56 47  1  0  0  0  0
M  END
>  <MODEL>
4

>  <REMARK>
 VINA RESULT:      -7.4      2.073      6.145
  Name = 
  11 active torsions:
  status: ('A' for Active; 'I' for Inactive)
    1  A    between atoms: N_1  and  C_24
    2  A    between atoms: C_8  and  C_30
    3  A    between atoms: C_10  and  C_35
    4  A    between atoms: C_20  and  C_49
    5  A    between atoms: C_24  and  C_51
    6  A    between atoms: C_25  and  O_39
    7  A    between atoms: C_30  and  C_35
    8  A    between atoms: O_39  and  C_51
    9  A    between atoms: C_40  and  C_50
   10  A    between atoms: C_46  and  O_54
   11  A    between atoms: C_49  and  O_54
                            x       y       z     vdW  Elec       q    Type
                         _______ _______ _______ _____ _____    ______ ____

>  <TORSDO>
F 11

$$$$
=
 OpenBabel10222419133D

 56 60  0  0  1  0  0  0  0  0999 V2000
  188.6980  176.6840  142.4860 N   0  0  0  0  0  2  0  0  0  0  0  0
  188.1960  176.9180  143.8020 C   0  0  0  0  0  0  0  0  0  0  0  0
  188.9390  176.7520  144.8070 O   0  0  0  0  0  0  0  0  0  0  0  0
  186.4390  177.5890  145.4320 C   0  0  0  0  0  1  0  0  0  0  0  0
  186.8020  177.4320  143.9630 C   0  0  1  0  0  3  0  0  0  0  0  0
  186.6450  178.7530  143.2320 C   0  0  0  0  0  2  0  0  0  0  0  0
  182.4440  178.6280  142.1220 O   0  0  0  0  0  0  0  0  0  0  0  0
  185.2280  178.9580  142.8310 C   0  0  0  0  0  0  0  0  0  0  0  0
  184.5070  179.7520  143.4890 O   0  0  0  0  0  0  0  0  0  0  0  0
  184.7140  178.2840  141.6800 N   0  0  0  0  0  2  0  0  0  0  0  0
  183.3300  178.2080  141.3280 C   0  0  0  0  0  0  0  0  0  0  0  0
  180.7020  177.3540  140.8890 O   0  0  0  0  0  0  0  0  0  0  0  0
  183.9660  177.3540  136.6130 F   0  0  0  0  0  0  0  0  0  0  0  0
  181.1410  176.4940  136.4090 O   0  0  0  0  0  1  0  0  0  0  0  0
  181.8880  176.5540  137.5840 C   0  0  1  0  0  0  0  0  0  0  0  0
  181.4860  177.2430  139.9110 C   0  0  0  0  0  0  0  0  0  0  0  0
  183.0940  179.6420  138.8120 O   0  0  0  0  0  1  0  0  0  0  0  0
  182.9180  177.6970  137.4490 C   0  0  1  0  0  3  0  0  0  0  0  0
  182.9490  177.5510  140.0290 C   0  0  1  0  0  3  0  0  0  0  0  0
  181.0030  176.8010  138.6820 O   0  0  0  0  0  0  0  0  0  0  0  0
  183.4480  178.2920  138.7690 C   0  0  2  0  0  3  0  0  0  0  0  0
  182.6040  175.2180  137.7890 C   0  0  0  0  0  2  0  0  0  0  0  0
  182.3970  174.3810  136.6900 O   0  0  0  0  0  0  0  0  0  0  0  0
  185.9820  172.5990  136.2120 O   0  0  0  0  0  0  0  0  0  0  0  0
  183.5480  172.3660  135.9470 C   0  0  2  0  0  3  0  0  0  0  0  0
  184.6000  174.0120  137.5940 C   0  0  0  0  0  2  0  0  0  0  0  0
  182.6630  171.5500  136.8810 C   0  0  0  0  0  1  0  0  0  0  0  0
  184.9370  171.7050  135.8800 C   0  0  0  0  0  2  0  0  0  0  0  0
  185.7540  173.0030  137.5370 C   0  0  0  0  0  2  0  0  0  0  0  0
  183.6500  173.8350  136.4040 C   0  0  2  0  0  3  0  0  0  0  0  0
  190.0670  176.2580  142.2300 C   0  0  0  0  0  2  0  0  0  0  0  0
  190.5320  176.7540  140.8750 C   0  0  0  0  0  2  0  0  0  0  0  0
  190.1560  175.8440  139.8820 O   0  0  0  0  0  0  0  0  0  0  0  0
  194.3670  175.1940  135.2310 C   0  0  0  0  0  2  0  0  0  0  0  0
  188.8700  175.4590  135.3470 C   0  0  0  0  0  2  0  0  0  0  0  0
  189.5230  176.7420  135.8360 C   0  0  0  0  0  2  0  0  0  0  0  0
  193.1170  176.1710  137.4340 C   0  0  1  0  0  3  0  0  0  0  0  0
  192.7540  173.3240  135.5400 N   0  0  0  0  0  2  0  0  0  0  0  0
  193.8190  174.1120  136.1650 C   0  0  2  0  0  3  0  0  0  0  0  0
  186.8100  178.7350  137.5940 C   0  0  0  0  0  3  0  0  0  0  0  0
  187.1930  178.6270  138.9310 C   0  0  0  0  0  3  0  0  0  0  0  0
  193.4180  174.6750  137.5370 C   0  0  0  0  0  2  0  0  0  0  0  0
  189.0980  177.2630  138.2810 C   0  0  0  0  0  0  0  0  0  0  0  0
  192.8420  176.7630  138.8060 C   0  0  0  0  0  2  0  0  0  0  0  0
  190.3460  176.5240  138.6720 C   0  0  1  0  0  3  0  0  0  0  0  0
  188.3340  177.8990  139.2710 C   0  0  0  0  0  3  0  0  0  0  0  0
  191.5510  174.1320  135.3430 C   0  0  0  0  0  2  0  0  0  0  0  0
  188.7140  177.3800  136.9260 C   0  0  0  0  0  0  0  0  0  0  0  0
  187.5620  178.1200  136.5930 C   0  0  0  0  0  0  0  0  0  0  0  0
  191.5120  177.5020  138.8000 C   0  0  0  0  0  2  0  0  0  0  0  0
  189.1740  174.3520  136.2390 N   0  0  0  0  0  2  0  0  0  0  0  0
  190.6150  172.7230  137.0500 O   0  0  0  0  0  0  0  0  0  0  0  0
  187.1600  178.2470  135.2660 O   0  0  0  0  0  1  0  0  0  0  0  0
  194.2400  176.9380  136.7120 C   0  0  0  0  0  2  0  0  0  0  0  0
  195.1270  176.1090  135.9800 O   0  0  0  0  0  0  0  0  0  0  0  0
  190.4450  173.6960  136.2640 C   0  0  0  0  0  0  0  0  0  0  0  0
  1  2  1  0  0  0  0
  2  5  1  0  0  0  0
  2  3  2  0  0  0  0
  5  4  1  1  0  0  0
  6  5  1  0  0  0  0
  8  6  1  0  0  0  0
  8  9  2  0  0  0  0
 10  8  1  0  0  0  0
 11 10  1  0  0  0  0
 11  7  2  0  0  0  0
 15 14  1  6  0  0  0
 15 22  1  0  0  0  0
 15 20  1  0  0  0  0
 16 19  1  0  0  0  0
 16 12  2  0  0  0  0
 18 13  1  1  0  0  0
 18 15  1  0  0  0  0
 18 21  1  0  0  0  0
 19 11  1  1  0  0  0
 20 16  1  0  0  0  0
 21 17  1  1  0  0  0
 21 19  1  0  0  0  0
 23 22  1  0  0  0  0
 24 29  1  0  0  0  0
 25 30  1  0  0  0  0
 25 27  1  1  0  0  0
 28 25  1  0  0  0  0
 28 24  1  0  0  0  0
 29 26  1  0  0  0  0
 30 23  1  1  0  0  0
 30 26  1  0  0  0  0
 31  1  1  0  0  0  0
 32 31  1  0  0  0  0
 33 32  1  0  0  0  0
 34 55  1  0  0  0  0
 35 36  1  0  0  0  0
 35 51  1  0  0  0  0
 36 48  1  0  0  0  0
 37 54  1  1  0  0  0
 37 42  1  0  0  0  0
 37 44  1  0  0  0  0
 38 39  1  0  0  0  0
 39 34  1  6  0  0  0
 39 42  1  0  0  0  0
 40 41  1  0  0  0  0
 41 46  2  0  0  0  0
 43 45  1  0  0  0  0
 43 46  1  0  0  0  0
 45 50  1  0  0  0  0
 45 33  1  1  0  0  0
 47 38  1  0  0  0  0
 47 56  1  0  0  0  0
 48 43  2  0  0  0  0
 49 48  1  0  0  0  0
 49 40  2  0  0  0  0
 50 44  1  0  0  0  0
 51 56  1  0  0  0  0
 53 49  1  0  0  0  0
 55 54  1  0  0  0  0
 56 52  2  0  0  0  0
M  END
>  <MODEL>
5

>  <REMARK>
 VINA RESULT:      -7.1      3.328      8.859
  Name = 
  11 active torsions:
  status: ('A' for Active; 'I' for Inactive)
    1  A    between atoms: N_1  and  C_24
    2  A    between atoms: C_8  and  C_30
    3  A    between atoms: C_10  and  C_35
    4  A    between atoms: C_20  and  C_49
    5  A    between atoms: C_24  and  C_51
    6  A    between atoms: C_25  and  O_39
    7  A    between atoms: C_30  and  C_35
    8  A    between atoms: O_39  and  C_51
    9  A    between atoms: C_40  and  C_50
   10  A    between atoms: C_46  and  O_54
   11  A    between atoms: C_49  and  O_54
                            x       y       z     vdW  Elec       q    Type
                         _______ _______ _______ _____ _____    ______ ____

>  <TORSDO>
F 11

$$$$
=
 OpenBabel10222419133D

 56 60  0  0  1  0  0  0  0  0999 V2000
  180.9480  179.1440  138.2330 N   0  0  0  0  0  2  0  0  0  0  0  0
  181.7200  179.6950  139.3010 C   0  0  0  0  0  0  0  0  0  0  0  0
  182.8810  180.1370  139.0880 O   0  0  0  0  0  0  0  0  0  0  0  0
  179.5870  179.9340  140.5630 C   0  0  0  0  0  1  0  0  0  0  0  0
  181.1000  179.8070  140.6570 C   0  0  1  0  0  3  0  0  0  0  0  0
  181.4810  178.6080  141.5070 C   0  0  0  0  0  2  0  0  0  0  0  0
  184.7640  180.1150  143.9240 O   0  0  0  0  0  0  0  0  0  0  0  0
  182.5000  178.9930  142.5190 C   0  0  0  0  0  0  0  0  0  0  0  0
  182.1310  179.5260  143.5970 O   0  0  0  0  0  0  0  0  0  0  0  0
  183.8810  178.7150  142.2730 N   0  0  0  0  0  2  0  0  0  0  0  0
  184.9680  179.2360  143.0420 C   0  0  0  0  0  0  0  0  0  0  0  0
  185.8520  176.7250  143.9020 O   0  0  0  0  0  0  0  0  0  0  0  0
  189.0090  179.3020  140.3910 F   0  0  0  0  0  0  0  0  0  0  0  0
  189.7230  176.6320  141.4520 O   0  0  0  0  0  1  0  0  0  0  0  0
  188.8270  177.5240  142.0360 C   0  0  1  0  0  0  0  0  0  0  0  0
  186.6500  177.3670  143.1710 C   0  0  0  0  0  0  0  0  0  0  0  0
  185.8350  178.4330  140.3880 O   0  0  0  0  0  1  0  0  0  0  0  0
  188.1550  178.3470  140.9140 C   0  0  1  0  0  3  0  0  0  0  0  0
  186.3640  178.7710  142.7280 C   0  0  1  0  0  3  0  0  0  0  0  0
  187.8480  176.7800  142.7700 O   0  0  0  0  0  0  0  0  0  0  0  0
  186.7870  178.9700  141.2570 C   0  0  2  0  0  3  0  0  0  0  0  0
  189.5910  178.4490  142.9860 C   0  0  0  0  0  2  0  0  0  0  0  0
  190.8040  177.8670  143.3600 O   0  0  0  0  0  0  0  0  0  0  0  0
  190.5230  177.4110  147.3560 O   0  0  0  0  0  0  0  0  0  0  0  0
  191.7600  176.7870  145.3240 C   0  0  2  0  0  3  0  0  0  0  0  0
  189.3450  177.6200  145.2630 C   0  0  0  0  0  2  0  0  0  0  0  0
  191.6200  175.4440  144.6190 C   0  0  0  0  0  1  0  0  0  0  0  0
  191.5400  176.5780  146.8340 C   0  0  0  0  0  2  0  0  0  0  0  0
  189.3380  177.0580  146.6900 C   0  0  0  0  0  2  0  0  0  0  0  0
  190.7760  177.8290  144.7570 C   0  0  2  0  0  3  0  0  0  0  0  0
  181.4410  179.0680  136.8650 C   0  0  0  0  0  2  0  0  0  0  0  0
  182.0050  177.6900  136.5800 C   0  0  0  0  0  2  0  0  0  0  0  0
  183.3060  177.5960  137.0830 O   0  0  0  0  0  0  0  0  0  0  0  0
  179.0740  173.1620  138.5710 C   0  0  0  0  0  2  0  0  0  0  0  0
  183.4610  173.2400  135.2470 C   0  0  0  0  0  2  0  0  0  0  0  0
  183.8350  173.4540  136.7050 C   0  0  0  0  0  2  0  0  0  0  0  0
  180.9310  175.1230  138.8460 C   0  0  1  0  0  3  0  0  0  0  0  0
  179.1680  173.8520  136.1820 N   0  0  0  0  0  2  0  0  0  0  0  0
  178.9310  174.3000  137.5560 C   0  0  2  0  0  3  0  0  0  0  0  0
  187.3940  174.7770  136.7280 C   0  0  0  0  0  3  0  0  0  0  0  0
  187.2050  176.1060  137.1050 C   0  0  0  0  0  3  0  0  0  0  0  0
  179.7700  175.5290  137.9370 C   0  0  0  0  0  2  0  0  0  0  0  0
  184.8040  175.7430  137.2080 C   0  0  0  0  0  0  0  0  0  0  0  0
  181.6920  176.3460  139.3290 C   0  0  0  0  0  2  0  0  0  0  0  0
  183.4340  176.2720  137.5220 C   0  0  1  0  0  3  0  0  0  0  0  0
  185.9170  176.5840  137.3500 C   0  0  0  0  0  3  0  0  0  0  0  0
  180.5720  173.4980  135.9800 C   0  0  0  0  0  2  0  0  0  0  0  0
  184.9970  174.3940  136.8340 C   0  0  0  0  0  0  0  0  0  0  0  0
  186.3010  173.9210  136.5940 C   0  0  0  0  0  0  0  0  0  0  0  0
  183.1750  176.1940  139.0240 C   0  0  0  0  0  2  0  0  0  0  0  0
  182.6450  174.3390  134.7560 N   0  0  0  0  0  2  0  0  0  0  0  0
  180.6190  175.4610  134.5940 O   0  0  0  0  0  0  0  0  0  0  0  0
  186.5180  172.5970  136.2190 O   0  0  0  0  0  1  0  0  0  0  0  0
  180.4620  174.2560  140.0290 C   0  0  0  0  0  2  0  0  0  0  0  0
  179.1670  173.7060  139.8640 O   0  0  0  0  0  0  0  0  0  0  0  0
  181.2620  174.4930  135.0870 C   0  0  0  0  0  0  0  0  0  0  0  0
  1  2  1  0  0  0  0
  2  5  1  0  0  0  0
  3  2  2  0  0  0  0
  5  4  1  6  0  0  0
  5  6  1  0  0  0  0
  6  8  1  0  0  0  0
  8  9  2  0  0  0  0
 10  8  1  0  0  0  0
 10 11  1  0  0  0  0
 11  7  2  0  0  0  0
 15 14  1  6  0  0  0
 15 20  1  0  0  0  0
 15 22  1  0  0  0  0
 16 12  2  0  0  0  0
 18 13  1  1  0  0  0
 18 21  1  0  0  0  0
 18 15  1  0  0  0  0
 19 11  1  6  0  0  0
 19 16  1  0  0  0  0
 20 16  1  0  0  0  0
 21 17  1  6  0  0  0
 21 19  1  0  0  0  0
 22 23  1  0  0  0  0
 25 27  1  6  0  0  0
 25 28  1  0  0  0  0
 26 29  1  0  0  0  0
 28 24  1  0  0  0  0
 29 24  1  0  0  0  0
 30 23  1  6  0  0  0
 30 26  1  0  0  0  0
 30 25  1  0  0  0  0
 31  1  1  0  0  0  0
 32 31  1  0  0  0  0
 32 33  1  0  0  0  0
 34 55  1  0  0  0  0
 35 36  1  0  0  0  0
 36 48  1  0  0  0  0
 37 42  1  1  0  0  0
 37 44  1  0  0  0  0
 37 54  1  0  0  0  0
 38 39  1  0  0  0  0
 39 42  1  1  0  0  0
 39 34  1  0  0  0  0
 40 41  1  0  0  0  0
 41 46  2  0  0  0  0
 43 46  1  0  0  0  0
 43 45  1  0  0  0  0
 45 33  1  1  0  0  0
 45 50  1  0  0  0  0
 47 38  1  0  0  0  0
 48 43  2  0  0  0  0
 49 40  2  0  0  0  0
 49 48  1  0  0  0  0
 50 44  1  0  0  0  0
 51 56  1  0  0  0  0
 51 35  1  0  0  0  0
 52 56  2  0  0  0  0
 53 49  1  0  0  0  0
 55 54  1  0  0  0  0
 56 47  1  0  0  0  0
M  END
>  <MODEL>
6

>  <REMARK>
 VINA RESULT:      -6.7      2.440      5.917
  Name = 
  11 active torsions:
  status: ('A' for Active; 'I' for Inactive)
    1  A    between atoms: N_1  and  C_24
    2  A    between atoms: C_8  and  C_30
    3  A    between atoms: C_10  and  C_35
    4  A    between atoms: C_20  and  C_49
    5  A    between atoms: C_24  and  C_51
    6  A    between atoms: C_25  and  O_39
    7  A    between atoms: C_30  and  C_35
    8  A    between atoms: O_39  and  C_51
    9  A    between atoms: C_40  and  C_50
   10  A    between atoms: C_46  and  O_54
   11  A    between atoms: C_49  and  O_54
                            x       y       z     vdW  Elec       q    Type
                         _______ _______ _______ _____ _____    ______ ____

>  <TORSDO>
F 11

$$$$
=
 OpenBabel10222419133D

 56 60  0  0  1  0  0  0  0  0999 V2000
  185.8880  177.4250  136.2380 N   0  0  0  0  0  2  0  0  0  0  0  0
  186.4140  176.1630  136.6510 C   0  0  0  0  0  0  0  0  0  0  0  0
  185.9100  175.0900  136.2220 O   0  0  0  0  0  0  0  0  0  0  0  0
  188.5200  174.9610  137.2080 C   0  0  0  0  0  1  0  0  0  0  0  0
  187.6140  176.1370  137.5400 C   0  0  1  0  0  3  0  0  0  0  0  0
  188.3780  177.4440  137.4270 C   0  0  0  0  0  2  0  0  0  0  0  0
  191.4670  176.8560  140.4270 O   0  0  0  0  0  0  0  0  0  0  0  0
  189.5370  177.4500  138.3590 C   0  0  0  0  0  0  0  0  0  0  0  0
  190.7050  177.4730  137.8930 O   0  0  0  0  0  0  0  0  0  0  0  0
  189.3100  177.4710  139.7700 N   0  0  0  0  0  2  0  0  0  0  0  0
  190.3140  177.2430  140.7620 C   0  0  0  0  0  0  0  0  0  0  0  0
  189.8180  174.9940  142.3500 O   0  0  0  0  0  0  0  0  0  0  0  0
  190.2780  179.6930  144.9290 F   0  0  0  0  0  0  0  0  0  0  0  0
  189.7520  177.1690  146.3830 O   0  0  0  0  0  1  0  0  0  0  0  0
  189.5230  177.3860  145.0270 C   0  0  1  0  0  0  0  0  0  0  0  0
  189.8100  176.1010  142.9490 C   0  0  0  0  0  0  0  0  0  0  0  0
  192.2000  178.0560  142.8170 O   0  0  0  0  0  1  0  0  0  0  0  0
  190.5650  178.4050  144.5130 C   0  0  1  0  0  3  0  0  0  0  0  0
  189.9470  177.4010  142.2120 C   0  0  1  0  0  3  0  0  0  0  0  0
  189.6500  176.1410  144.3320 O   0  0  0  0  0  0  0  0  0  0  0  0
  190.8520  178.3740  142.9980 C   0  0  2  0  0  3  0  0  0  0  0  0
  188.1080  177.9370  144.8420 C   0  0  0  0  0  2  0  0  0  0  0  0
  187.2550  176.9380  144.3670 O   0  0  0  0  0  0  0  0  0  0  0  0
  183.7840  178.9820  144.1910 O   0  0  0  0  0  0  0  0  0  0  0  0
  185.5530  177.8700  142.8930 C   0  0  2  0  0  3  0  0  0  0  0  0
  185.9270  178.7370  145.2680 C   0  0  0  0  0  2  0  0  0  0  0  0
  186.6510  178.6110  142.1400 C   0  0  0  0  0  1  0  0  0  0  0  0
  184.2810  178.7370  142.8890 C   0  0  0  0  0  2  0  0  0  0  0  0
  184.7890  179.6870  144.8740 C   0  0  0  0  0  2  0  0  0  0  0  0
  185.9880  177.5250  144.3310 C   0  0  2  0  0  3  0  0  0  0  0  0
  184.7710  177.5470  135.3110 C   0  0  0  0  0  2  0  0  0  0  0  0
  183.4780  177.7830  136.0670 C   0  0  0  0  0  2  0  0  0  0  0  0
  182.5030  178.2800  135.1970 O   0  0  0  0  0  0  0  0  0  0  0  0
  179.9280  175.0580  139.9680 C   0  0  0  0  0  2  0  0  0  0  0  0
  181.4490  180.3100  139.3360 C   0  0  0  0  0  2  0  0  0  0  0  0
  180.3290  179.9130  138.3880 C   0  0  0  0  0  2  0  0  0  0  0  0
  180.3380  176.0450  137.4730 C   0  0  1  0  0  3  0  0  0  0  0  0
  182.1670  176.0600  140.3840 N   0  0  0  0  0  2  0  0  0  0  0  0
  181.4020  175.1210  139.5600 C   0  0  2  0  0  3  0  0  0  0  0  0
  180.1390  182.6280  135.7390 C   0  0  0  0  0  3  0  0  0  0  0  0
  180.6410  181.9700  134.6160 C   0  0  0  0  0  3  0  0  0  0  0  0
  181.5800  175.3670  138.0540 C   0  0  0  0  0  2  0  0  0  0  0  0
  180.9740  179.9560  135.9350 C   0  0  0  0  0  0  0  0  0  0  0  0
  180.4520  176.1780  135.9630 C   0  0  0  0  0  2  0  0  0  0  0  0
  181.3800  178.5110  136.0000 C   0  0  1  0  0  3  0  0  0  0  0  0
  181.0500  180.6400  134.7130 C   0  0  0  0  0  3  0  0  0  0  0  0
  181.7640  177.4400  140.1190 C   0  0  0  0  0  2  0  0  0  0  0  0
  180.4580  180.6200  137.0710 C   0  0  0  0  0  0  0  0  0  0  0  0
  180.0430  181.9620  136.9610 C   0  0  0  0  0  0  0  0  0  0  0  0
  180.2230  177.6240  135.5470 C   0  0  0  0  0  2  0  0  0  0  0  0
  182.6640  179.5680  139.0400 N   0  0  0  0  0  2  0  0  0  0  0  0
  183.9460  177.6350  139.1310 O   0  0  0  0  0  0  0  0  0  0  0  0
  179.5360  182.6400  138.0660 O   0  0  0  0  0  1  0  0  0  0  0  0
  179.0420  175.3150  137.8710 C   0  0  0  0  0  2  0  0  0  0  0  0
  179.1950  174.4150  138.9540 O   0  0  0  0  0  0  0  0  0  0  0  0
  182.8470  178.1960  139.3990 C   0  0  0  0  0  0  0  0  0  0  0  0
  1  2  1  0  0  0  0
  2  5  1  0  0  0  0
  3  2  2  0  0  0  0
  5  4  1  6  0  0  0
  6  5  1  0  0  0  0
  6  8  1  0  0  0  0
  7 11  2  0  0  0  0
  8 10  1  0  0  0  0
  9  8  2  0  0  0  0
 10 11  1  0  0  0  0
 12 16  2  0  0  0  0
 15 14  1  1  0  0  0
 16 20  1  0  0  0  0
 18 13  1  6  0  0  0
 18 15  1  0  0  0  0
 19 11  1  6  0  0  0
 19 16  1  0  0  0  0
 19 21  1  0  0  0  0
 20 15  1  0  0  0  0
 21 17  1  1  0  0  0
 21 18  1  0  0  0  0
 22 15  1  0  0  0  0
 23 22  1  0  0  0  0
 24 29  1  0  0  0  0
 25 27  1  1  0  0  0
 25 30  1  0  0  0  0
 28 25  1  0  0  0  0
 28 24  1  0  0  0  0
 29 26  1  0  0  0  0
 30 23  1  6  0  0  0
 30 26  1  0  0  0  0
 31 32  1  0  0  0  0
 31  1  1  0  0  0  0
 33 32  1  0  0  0  0
 36 35  1  0  0  0  0
 37 44  1  6  0  0  0
 37 54  1  0  0  0  0
 37 42  1  0  0  0  0
 39 42  1  6  0  0  0
 39 34  1  0  0  0  0
 39 38  1  0  0  0  0
 40 49  1  0  0  0  0
 41 46  1  0  0  0  0
 41 40  2  0  0  0  0
 43 45  1  0  0  0  0
 43 48  1  0  0  0  0
 45 33  1  6  0  0  0
 46 43  2  0  0  0  0
 47 38  1  0  0  0  0
 48 36  1  0  0  0  0
 49 48  2  0  0  0  0
 49 53  1  0  0  0  0
 50 44  1  0  0  0  0
 50 45  1  0  0  0  0
 51 35  1  0  0  0  0
 51 56  1  0  0  0  0
 52 56  2  0  0  0  0
 54 55  1  0  0  0  0
 55 34  1  0  0  0  0
 56 47  1  0  0  0  0
M  END
>  <MODEL>
7

>  <REMARK>
 VINA RESULT:      -6.7      2.199      5.507
  Name = 
  11 active torsions:
  status: ('A' for Active; 'I' for Inactive)
    1  A    between atoms: N_1  and  C_24
    2  A    between atoms: C_8  and  C_30
    3  A    between atoms: C_10  and  C_35
    4  A    between atoms: C_20  and  C_49
    5  A    between atoms: C_24  and  C_51
    6  A    between atoms: C_25  and  O_39
    7  A    between atoms: C_30  and  C_35
    8  A    between atoms: O_39  and  C_51
    9  A    between atoms: C_40  and  C_50
   10  A    between atoms: C_46  and  O_54
   11  A    between atoms: C_49  and  O_54
                            x       y       z     vdW  Elec       q    Type
                         _______ _______ _______ _____ _____    ______ ____

>  <TORSDO>
F 11

$$$$
=
 OpenBabel10222419133D

 56 60  0  0  1  0  0  0  0  0999 V2000
  184.8580  177.2840  136.0060 N   0  0  0  0  0  2  0  0  0  0  0  0
  186.2550  177.5400  136.1500 C   0  0  0  0  0  0  0  0  0  0  0  0
  186.9260  177.9860  135.1810 O   0  0  0  0  0  0  0  0  0  0  0  0
  187.5770  175.9860  137.5760 C   0  0  0  0  0  1  0  0  0  0  0  0
  186.8920  177.3410  137.4880 C   0  0  1  0  0  3  0  0  0  0  0  0
  187.8820  178.4570  137.7670 C   0  0  0  0  0  2  0  0  0  0  0  0
  191.0000  176.4290  140.0170 O   0  0  0  0  0  0  0  0  0  0  0  0
  189.1060  177.9140  138.4150 C   0  0  0  0  0  0  0  0  0  0  0  0
  190.0420  177.4750  137.6990 O   0  0  0  0  0  0  0  0  0  0  0  0
  189.2210  177.9360  139.8390 N   0  0  0  0  0  2  0  0  0  0  0  0
  190.2220  177.2420  140.5890 C   0  0  0  0  0  0  0  0  0  0  0  0
  189.3470  175.2300  142.3250 O   0  0  0  0  0  0  0  0  0  0  0  0
  192.0140  179.3310  144.5620 F   0  0  0  0  0  0  0  0  0  0  0  0
  190.9850  177.0800  146.1850 O   0  0  0  0  0  1  0  0  0  0  0  0
  190.5400  177.4330  144.9130 C   0  0  1  0  0  0  0  0  0  0  0  0
  189.8680  176.2370  142.8710 C   0  0  0  0  0  0  0  0  0  0  0  0
  192.6930  177.2370  142.1160 O   0  0  0  0  0  1  0  0  0  0  0  0
  191.7240  178.0480  144.1340 C   0  0  1  0  0  3  0  0  0  0  0  0
  190.2790  177.4430  142.0790 C   0  0  1  0  0  3  0  0  0  0  0  0
  190.0570  176.2590  144.2500 O   0  0  0  0  0  0  0  0  0  0  0  0
  191.6240  177.9960  142.5970 C   0  0  2  0  0  3  0  0  0  0  0  0
  189.4070  178.4530  145.0460 C   0  0  0  0  0  2  0  0  0  0  0  0
  188.2550  177.8380  145.5420 O   0  0  0  0  0  0  0  0  0  0  0  0
  185.0030  179.2100  143.5940 O   0  0  0  0  0  0  0  0  0  0  0  0
  186.0230  178.7830  145.7910 C   0  0  2  0  0  3  0  0  0  0  0  0
  186.7620  177.5630  143.6700 C   0  0  0  0  0  2  0  0  0  0  0  0
  185.6560  177.6070  146.6870 C   0  0  0  0  0  1  0  0  0  0  0  0
  184.7760  179.2010  144.9900 C   0  0  0  0  0  2  0  0  0  0  0  0
  185.3280  177.8920  143.2350 C   0  0  0  0  0  2  0  0  0  0  0  0
  187.1960  178.4350  144.8540 C   0  0  2  0  0  3  0  0  0  0  0  0
  184.1380  177.5240  134.7630 C   0  0  0  0  0  2  0  0  0  0  0  0
  183.0150  176.5190  134.5970 C   0  0  0  0  0  2  0  0  0  0  0  0
  181.7800  177.1660  134.7000 O   0  0  0  0  0  0  0  0  0  0  0  0
  180.5390  171.2020  136.3330 C   0  0  0  0  0  2  0  0  0  0  0  0
  182.9960  175.3970  138.9140 C   0  0  0  0  0  2  0  0  0  0  0  0
  181.5330  175.6790  138.6120 C   0  0  0  0  0  2  0  0  0  0  0  0
  180.1800  173.7330  135.4210 C   0  0  1  0  0  3  0  0  0  0  0  0
  182.9390  171.8540  136.2450 N   0  0  0  0  0  2  0  0  0  0  0  0
  181.6980  171.7240  135.4790 C   0  0  2  0  0  3  0  0  0  0  0  0
  181.0320  179.4140  139.0790 C   0  0  0  0  0  3  0  0  0  0  0  0
  180.8640  179.8490  137.7640 C   0  0  0  0  0  3  0  0  0  0  0  0
  181.3290  173.0070  134.7190 C   0  0  0  0  0  2  0  0  0  0  0  0
  181.1530  177.5710  136.9670 C   0  0  0  0  0  0  0  0  0  0  0  0
  179.7250  174.9350  134.6100 C   0  0  0  0  0  2  0  0  0  0  0  0
  181.1630  176.5990  135.8220 C   0  0  1  0  0  3  0  0  0  0  0  0
  180.9190  178.9310  136.7150 C   0  0  0  0  0  3  0  0  0  0  0  0
  182.8370  172.9280  137.2310 C   0  0  0  0  0  2  0  0  0  0  0  0
  181.3140  177.1300  138.3000 C   0  0  0  0  0  0  0  0  0  0  0  0
  181.2530  178.0640  139.3520 C   0  0  0  0  0  0  0  0  0  0  0  0
  179.7340  176.1850  135.4770 C   0  0  0  0  0  2  0  0  0  0  0  0
  183.7610  175.2610  137.6850 N   0  0  0  0  0  2  0  0  0  0  0  0
  184.4270  174.0500  135.8200 O   0  0  0  0  0  0  0  0  0  0  0  0
  181.4140  177.6560  140.6730 O   0  0  0  0  0  1  0  0  0  0  0  0
  179.0030  172.7900  135.7290 C   0  0  0  0  0  2  0  0  0  0  0  0
  179.3290  171.4130  135.6490 O   0  0  0  0  0  0  0  0  0  0  0  0
  183.7080  174.0970  136.8560 C   0  0  0  0  0  0  0  0  0  0  0  0
  1  2  1  0  0  0  0
  2  5  1  0  0  0  0
  3  2  2  0  0  0  0
  5  4  1  6  0  0  0
  5  6  1  0  0  0  0
  6  8  1  0  0  0  0
  7 11  2  0  0  0  0
  8 10  1  0  0  0  0
  9  8  2  0  0  0  0
 10 11  1  0  0  0  0
 12 16  2  0  0  0  0
 15 22  1  0  0  0  0
 15 14  1  1  0  0  0
 16 20  1  0  0  0  0
 18 13  1  6  0  0  0
 18 15  1  0  0  0  0
 19 11  1  6  0  0  0
 19 21  1  0  0  0  0
 19 16  1  0  0  0  0
 20 15  1  0  0  0  0
 21 17  1  1  0  0  0
 21 18  1  0  0  0  0
 22 23  1  0  0  0  0
 24 28  1  0  0  0  0
 25 27  1  6  0  0  0
 26 30  1  0  0  0  0
 28 25  1  0  0  0  0
 29 24  1  0  0  0  0
 29 26  1  0  0  0  0
 30 23  1  1  0  0  0
 30 25  1  0  0  0  0
 31  1  1  0  0  0  0
 32 33  1  0  0  0  0
 32 31  1  0  0  0  0
 36 35  1  0  0  0  0
 37 44  1  6  0  0  0
 37 54  1  0  0  0  0
 38 47  1  0  0  0  0
 39 42  1  1  0  0  0
 39 38  1  0  0  0  0
 39 34  1  0  0  0  0
 40 49  1  0  0  0  0
 41 40  2  0  0  0  0
 42 37  1  0  0  0  0
 43 48  1  0  0  0  0
 44 50  1  0  0  0  0
 45 33  1  6  0  0  0
 45 43  1  0  0  0  0
 46 43  2  0  0  0  0
 46 41  1  0  0  0  0
 48 36  1  0  0  0  0
 48 49  2  0  0  0  0
 49 53  1  0  0  0  0
 50 45  1  0  0  0  0
 51 35  1  0  0  0  0
 52 56  2  0  0  0  0
 55 54  1  0  0  0  0
 55 34  1  0  0  0  0
 56 47  1  0  0  0  0
 56 51  1  0  0  0  0
M  END
>  <MODEL>
8

>  <REMARK>
 VINA RESULT:      -6.6      2.546      6.070
  Name = 
  11 active torsions:
  status: ('A' for Active; 'I' for Inactive)
    1  A    between atoms: N_1  and  C_24
    2  A    between atoms: C_8  and  C_30
    3  A    between atoms: C_10  and  C_35
    4  A    between atoms: C_20  and  C_49
    5  A    between atoms: C_24  and  C_51
    6  A    between atoms: C_25  and  O_39
    7  A    between atoms: C_30  and  C_35
    8  A    between atoms: O_39  and  C_51
    9  A    between atoms: C_40  and  C_50
   10  A    between atoms: C_46  and  O_54
   11  A    between atoms: C_49  and  O_54
                            x       y       z     vdW  Elec       q    Type
                         _______ _______ _______ _____ _____    ______ ____

>  <TORSDO>
F 11

$$$$
=
 OpenBabel10222419133D

 56 60  0  0  1  0  0  0  0  0999 V2000
  186.9920  176.4760  137.1160 N   0  0  0  0  0  2  0  0  0  0  0  0
  188.0880  176.2280  136.2350 C   0  0  0  0  0  0  0  0  0  0  0  0
  188.1320  175.1680  135.5550 O   0  0  0  0  0  0  0  0  0  0  0  0
  188.8900  178.1310  134.8470 C   0  0  0  0  0  1  0  0  0  0  0  0
  189.1420  177.2760  136.0790 C   0  0  1  0  0  3  0  0  0  0  0  0
  189.2050  178.1420  137.3240 C   0  0  0  0  0  2  0  0  0  0  0  0
  191.2170  175.9860  140.5180 O   0  0  0  0  0  0  0  0  0  0  0  0
  190.0990  177.5250  138.3410 C   0  0  0  0  0  0  0  0  0  0  0  0
  191.1360  176.9200  137.9670 O   0  0  0  0  0  0  0  0  0  0  0  0
  189.7900  177.6620  139.7290 N   0  0  0  0  0  2  0  0  0  0  0  0
  190.4230  176.9300  140.7820 C   0  0  0  0  0  0  0  0  0  0  0  0
  190.0130  174.8840  142.6460 O   0  0  0  0  0  0  0  0  0  0  0  0
  190.3520  179.8810  144.6110 F   0  0  0  0  0  0  0  0  0  0  0  0
  189.9200  177.5450  146.3770 O   0  0  0  0  0  1  0  0  0  0  0  0
  189.6710  177.5830  145.0070 C   0  0  1  0  0  0  0  0  0  0  0  0
  189.9770  176.0570  143.1020 C   0  0  0  0  0  0  0  0  0  0  0  0
  192.3030  178.0500  142.6940 O   0  0  0  0  0  1  0  0  0  0  0  0
  190.6750  178.5600  144.3550 C   0  0  1  0  0  3  0  0  0  0  0  0
  190.0650  177.2570  142.2070 C   0  0  1  0  0  3  0  0  0  0  0  0
  189.8300  176.2640  144.4710 O   0  0  0  0  0  0  0  0  0  0  0  0
  190.9480  178.3480  142.8520 C   0  0  2  0  0  3  0  0  0  0  0  0
  188.2370  178.0640  144.7740 C   0  0  0  0  0  2  0  0  0  0  0  0
  187.4650  177.0410  144.2190 O   0  0  0  0  0  0  0  0  0  0  0  0
  183.8190  178.7610  144.2870 O   0  0  0  0  0  0  0  0  0  0  0  0
  185.6180  177.8730  142.8640 C   0  0  2  0  0  3  0  0  0  0  0  0
  186.0240  178.6700  145.2590 C   0  0  0  0  0  2  0  0  0  0  0  0
  186.6080  178.7430  142.1000 C   0  0  0  0  0  1  0  0  0  0  0  0
  184.2740  178.6180  142.9550 C   0  0  0  0  0  2  0  0  0  0  0  0
  184.7870  179.5260  144.9580 C   0  0  0  0  0  2  0  0  0  0  0  0
  186.1490  177.5090  144.2650 C   0  0  2  0  0  3  0  0  0  0  0  0
  185.8800  175.5480  137.2710 C   0  0  0  0  0  2  0  0  0  0  0  0
  184.6340  176.2830  137.7240 C   0  0  0  0  0  2  0  0  0  0  0  0
  183.5880  176.0410  136.8280 O   0  0  0  0  0  0  0  0  0  0  0  0
  179.3600  179.4450  140.0390 C   0  0  0  0  0  2  0  0  0  0  0  0
  178.9310  175.3520  136.3850 C   0  0  0  0  0  2  0  0  0  0  0  0
  179.6360  174.9180  137.6600 C   0  0  0  0  0  2  0  0  0  0  0  0
  181.5210  177.8920  139.5050 C   0  0  1  0  0  3  0  0  0  0  0  0
  179.2720  179.6160  137.5580 N   0  0  0  0  0  2  0  0  0  0  0  0
  180.0950  179.8260  138.7510 C   0  0  2  0  0  3  0  0  0  0  0  0
  181.3270  171.6060  136.8910 C   0  0  0  0  0  3  0  0  0  0  0  0
  182.6730  171.9680  136.8690 C   0  0  0  0  0  3  0  0  0  0  0  0
  181.4750  179.1590  138.6490 C   0  0  0  0  0  2  0  0  0  0  0  0
  182.0680  174.2750  137.3400 C   0  0  0  0  0  0  0  0  0  0  0  0
  182.9180  177.2940  139.5100 C   0  0  0  0  0  2  0  0  0  0  0  0
  182.4960  175.6860  137.6280 C   0  0  1  0  0  3  0  0  0  0  0  0
  183.0410  173.2940  137.0980 C   0  0  0  0  0  3  0  0  0  0  0  0
  179.0480  178.1910  137.3190 C   0  0  0  0  0  2  0  0  0  0  0  0
  180.7040  173.9060  137.3710 C   0  0  0  0  0  0  0  0  0  0  0  0
  180.3430  172.5630  137.1430 C   0  0  0  0  0  0  0  0  0  0  0  0
  182.8620  175.8290  139.1040 C   0  0  0  0  0  2  0  0  0  0  0  0
  179.7110  176.3560  135.6780 N   0  0  0  0  0  2  0  0  0  0  0  0
  180.4660  178.5340  135.4090 O   0  0  0  0  0  0  0  0  0  0  0  0
  179.0060  172.1750  137.1630 O   0  0  0  0  0  1  0  0  0  0  0  0
  181.0180  178.1450  140.9380 C   0  0  0  0  0  2  0  0  0  0  0  0
  180.2900  179.3500  141.0900 O   0  0  0  0  0  0  0  0  0  0  0  0
  179.7900  177.7200  136.0980 C   0  0  0  0  0  0  0  0  0  0  0  0
  1 31  1  0  0  0  0
  2  1  1  0  0  0  0
  3  2  2  0  0  0  0
  5  4  1  6  0  0  0
  5  2  1  0  0  0  0
  5  6  1  0  0  0  0
  6  8  1  0  0  0  0
  7 11  2  0  0  0  0
  8 10  1  0  0  0  0
  9  8  2  0  0  0  0
 10 11  1  0  0  0  0
 12 16  2  0  0  0  0
 15 14  1  1  0  0  0
 16 20  1  0  0  0  0
 18 13  1  6  0  0  0
 18 15  1  0  0  0  0
 19 11  1  6  0  0  0
 19 21  1  0  0  0  0
 19 16  1  0  0  0  0
 20 15  1  0  0  0  0
 21 17  1  1  0  0  0
 21 18  1  0  0  0  0
 22 15  1  0  0  0  0
 23 22  1  0  0  0  0
 24 29  1  0  0  0  0
 25 27  1  1  0  0  0
 25 28  1  0  0  0  0
 25 30  1  0  0  0  0
 28 24  1  0  0  0  0
 29 26  1  0  0  0  0
 30 23  1  6  0  0  0
 30 26  1  0  0  0  0
 31 32  1  0  0  0  0
 33 32  1  0  0  0  0
 34 55  1  0  0  0  0
 35 36  1  0  0  0  0
 37 42  1  6  0  0  0
 37 44  1  0  0  0  0
 37 54  1  0  0  0  0
 38 39  1  0  0  0  0
 39 42  1  6  0  0  0
 39 34  1  0  0  0  0
 40 49  1  0  0  0  0
 41 40  2  0  0  0  0
 41 46  1  0  0  0  0
 43 48  1  0  0  0  0
 43 45  1  0  0  0  0
 45 33  1  6  0  0  0
 45 50  1  0  0  0  0
 46 43  2  0  0  0  0
 47 38  1  0  0  0  0
 48 36  1  0  0  0  0
 49 53  1  0  0  0  0
 49 48  2  0  0  0  0
 50 44  1  0  0  0  0
 51 56  1  0  0  0  0
 51 35  1  0  0  0  0
 52 56  2  0  0  0  0
 54 55  1  0  0  0  0
 56 47  1  0  0  0  0
M  END
>  <MODEL>
9

>  <REMARK>
 VINA RESULT:      -6.3      2.260      6.561
  Name = 
  11 active torsions:
  status: ('A' for Active; 'I' for Inactive)
    1  A    between atoms: N_1  and  C_24
    2  A    between atoms: C_8  and  C_30
    3  A    between atoms: C_10  and  C_35
    4  A    between atoms: C_20  and  C_49
    5  A    between atoms: C_24  and  C_51
    6  A    between atoms: C_25  and  O_39
    7  A    between atoms: C_30  and  C_35
    8  A    between atoms: O_39  and  C_51
    9  A    between atoms: C_40  and  C_50
   10  A    between atoms: C_46  and  O_54
   11  A    between atoms: C_49  and  O_54
                            x       y       z     vdW  Elec       q    Type
                         _______ _______ _______ _____ _____    ______ ____

>  <TORSDO>
F 11

$$$$
