=
 OpenBabel10222417213D

 46 50  0  0  1  0  0  0  0  0999 V2000
  188.1650  177.5180  137.3430 C   0  0  0  0  0  0  0  0  0  0  0  0
  190.3960  176.7130  137.8800 C   0  0  0  0  0  3  0  0  0  0  0  0
  181.7220  174.9470  138.1750 C   0  0  0  0  0  2  0  0  0  0  0  0
  186.2810  178.6050  138.6090 C   0  0  0  0  0  0  0  0  0  0  0  0
  180.6710  177.9610  137.9570 C   0  0  0  0  0  2  0  0  0  0  0  0
  187.8340  176.2500  136.8300 C   0  0  0  0  0  0  0  0  0  0  0  0
  181.0360  177.1480  139.1940 C   0  0  0  0  0  2  0  0  0  0  0  0
  186.5470  176.0240  136.3310 O   0  0  0  0  0  0  0  0  0  0  0  0
  184.1490  179.1140  139.6700 C   0  0  0  0  0  0  0  0  0  0  0  0
  184.6700  178.7070  140.9010 C   0  0  0  0  0  3  0  0  0  0  0  0
  184.6290  174.7810  135.5500 C   0  0  1  0  0  3  0  0  0  0  0  0
  181.7180  175.8080  135.8340 C   0  0  0  0  0  1  0  0  0  0  0  0
  183.8650  175.0600  136.8450 C   0  0  0  0  0  2  0  0  0  0  0  0
  182.2080  180.0440  138.4230 C   0  0  1  0  0  3  0  0  0  0  0  0
  188.7970  175.2280  136.8390 C   0  0  0  0  0  3  0  0  0  0  0  0
  187.1340  178.6180  137.3730 C   0  0  1  0  0  3  0  0  0  0  0  0
  186.5420  177.8430  142.3100 C   0  0  0  0  0  1  0  0  0  0  0  0
  182.8300  179.5790  139.6180 O   0  0  0  0  0  0  0  0  0  0  0  0
  190.0720  175.4610  137.3570 C   0  0  0  0  0  0  0  0  0  0  0  0
  182.1910  176.1970  138.9190 C   0  0  0  0  0  2  0  0  0  0  0  0
  186.7980  178.2240  139.8560 C   0  0  0  0  0  3  0  0  0  0  0  0
  181.8290  178.8670  137.5000 C   0  0  2  0  0  3  0  0  0  0  0  0
  184.3520  175.7600  134.5950 O   0  0  0  0  0  1  0  0  0  0  0  0
  186.1220  174.7580  135.8360 C   0  0  0  0  0  2  0  0  0  0  0  0
  191.2620  174.1760  137.3600 Cl  0  0  0  0  0  0  0  0  0  0  0  0
  189.4460  177.7360  137.8760 C   0  0  0  0  0  3  0  0  0  0  0  0
  182.3490  174.7790  136.7710 C   0  0  1  0  0  0  0  0  0  0  0  0
  185.9920  178.2640  140.9960 C   0  0  0  0  0  0  0  0  0  0  0  0
  187.7290  179.8710  137.2100 O   0  0  0  0  0  1  0  0  0  0  0  0
  184.9600  179.0610  138.5240 C   0  0  0  0  0  3  0  0  0  0  0  0
  182.8710  171.0800  136.1830 C   0  0  2  0  0  3  0  0  0  0  0  0
  182.1090  173.4140  136.2410 N   0  0  2  0  0  0  0  0  0  0  0  0
  183.7360  170.1640  136.7800 O   0  0  0  0  0  1  0  0  0  0  0  0
  180.7270  172.9770  136.4960 C   0  0  0  0  0  2  0  0  0  0  0  0
  180.4630  171.6430  135.7980 C   0  0  1  0  0  3  0  0  0  0  0  0
  183.0210  172.4390  136.8610 C   0  0  0  0  0  2  0  0  0  0  0  0
  181.4340  170.5920  136.3280 C   0  0  0  0  0  2  0  0  0  0  0  0
  178.9540  169.8010  135.9610 O   0  0  0  0  0  1  0  0  0  0  0  0
  179.0380  171.1900  136.0580 C   0  0  0  0  0  2  0  0  0  0  0  0
  179.6090  182.6450  138.5260 C   0  0  0  0  0  3  0  0  0  0  0  0
  180.2960  180.8480  139.8320 C   0  0  0  0  0  3  0  0  0  0  0  0
  180.6430  182.0680  137.9340 C   0  0  0  0  0  3  0  0  0  0  0  0
  181.0580  180.9480  138.7550 C   0  0  0  0  0  0  0  0  0  0  0  0
  179.2740  181.9310  139.7970 C   0  0  0  0  0  2  0  0  0  0  0  0
  180.4710  179.1660  135.6770 C   0  0  0  0  0  1  0  0  0  0  0  0
  181.7990  179.2040  136.1300 O   0  0  0  0  0  0  0  0  0  0  0  0
  1 16  1  0  0  0  0
  1 26  1  0  0  0  0
  3 20  1  0  0  0  0
  4 21  1  0  0  0  0
  5  7  1  0  0  0  0
  6 15  1  0  0  0  0
  6  1  2  0  0  0  0
  8  6  1  0  0  0  0
  9 10  2  0  0  0  0
 10 28  1  0  0  0  0
 11 23  1  6  0  0  0
 11 24  1  0  0  0  0
 11 13  1  0  0  0  0
 14 43  1  1  0  0  0
 14 18  1  0  0  0  0
 15 19  2  0  0  0  0
 16 29  1  1  0  0  0
 16  4  1  0  0  0  0
 18  9  1  0  0  0  0
 19 25  1  0  0  0  0
 19  2  1  0  0  0  0
 20  7  1  0  0  0  0
 21 28  2  0  0  0  0
 22 46  1  6  0  0  0
 22  5  1  0  0  0  0
 22 14  1  0  0  0  0
 24  8  1  0  0  0  0
 26  2  2  0  0  0  0
 27 12  1  6  0  0  0
 27 13  1  0  0  0  0
 27  3  1  0  0  0  0
 28 17  1  0  0  0  0
 30  4  2  0  0  0  0
 30  9  1  0  0  0  0
 31 37  1  0  0  0  0
 31 33  1  1  0  0  0
 31 36  1  0  0  0  0
 32 34  1  1  0  0  0
 32 27  1  0  0  0  0
 32 36  1  0  0  0  0
 35 39  1  1  0  0  0
 35 37  1  0  0  0  0
 35 34  1  0  0  0  0
 38 39  1  0  0  0  0
 40 44  1  0  0  0  0
 42 40  2  0  0  0  0
 42 43  1  0  0  0  0
 43 41  2  0  0  0  0
 44 41  1  0  0  0  0
 45 46  1  0  0  0  0
M  END
>  <MODEL>
1

>  <REMARK>
 VINA RESULT:      -5.9      0.000      0.000
  Name = 
  4 active torsions:
  status: ('A' for Active; 'I' for Inactive)
    1  A    between atoms: N_16  and  C_41
    2  A    between atoms: C_22  and  C_29
    3  A    between atoms: C_26  and  C_35
    4  A    between atoms: C_33  and  O_39
                            x       y       z     vdW  Elec       q    Type
                         _______ _______ _______ _____ _____    ______ ____

>  <TORSDO>
F 4

$$$$
