=
 OpenBabel10222415233D

 47 51  0  0  1  0  0  0  0  0999 V2000
  190.0820  176.8480  138.3100 C   0  0  0  0  0  0  0  0  0  0  0  0
  188.8310  176.4750  137.9230 N   0  0  0  0  0  0  0  0  0  0  0  0
  188.6120  175.7880  136.7680 C   0  0  0  0  0  0  0  0  0  0  0  0
  189.6870  175.4500  135.9440 C   0  0  0  0  0  3  0  0  0  0  0  0
  191.1800  176.5250  137.5100 C   0  0  0  0  0  3  0  0  0  0  0  0
  190.9820  175.8150  136.3190 C   0  0  0  0  0  0  0  0  0  0  0  0
  186.7630  174.1370  137.1180 C   0  0  1  0  0  3  0  0  0  0  0  0
  183.5020  178.2430  138.1130 C   0  0  0  0  0  1  0  0  0  0  0  0
  187.2200  175.4130  136.3630 C   0  0  1  0  0  3  0  0  0  0  0  0
  182.7610  176.3200  136.8260 N   0  0  0  0  0  2  0  0  0  0  0  0
  184.5100  175.0500  137.1400 C   0  0  0  0  0  0  0  0  0  0  0  0
  183.8450  177.2780  136.9990 C   0  0  2  0  0  3  0  0  0  0  0  0
  186.2710  176.5860  136.5680 C   0  0  0  0  0  0  0  0  0  0  0  0
  186.5260  177.6710  136.0690 O   0  0  0  0  0  0  0  0  0  0  0  0
  183.2580  175.0180  136.8570 N   0  0  0  0  0  0  0  0  0  0  0  0
  185.0370  176.4100  137.4110 C   0  0  2  0  0  3  0  0  0  0  0  0
  185.3500  173.9470  137.0310 O   0  0  0  0  0  0  0  0  0  0  0  0
  188.2140  172.3210  137.6290 F   0  0  0  0  0  0  0  0  0  0  0  0
  187.4900  172.9010  136.6040 C   0  0  0  0  0  3  0  0  0  0  0  0
  186.5870  171.9840  136.0960 F   0  0  0  0  0  0  0  0  0  0  0  0
  190.2910  177.6110  139.5790 C   0  0  2  0  0  3  0  0  0  0  0  0
  191.6560  177.3040  140.1800 C   0  0  0  0  0  1  0  0  0  0  0  0
  189.1280  177.4020  140.5590 C   0  0  2  0  0  3  0  0  0  0  0  0
  187.1220  178.5430  139.8560 O   0  0  0  0  0  1  0  0  0  0  0  0
  188.2490  178.6470  140.6730 C   0  0  0  0  0  2  0  0  0  0  0  0
  189.5720  176.8800  141.9250 C   0  0  0  0  0  2  0  0  0  0  0  0
  189.4860  177.9800  142.9660 C   0  0  0  0  0  2  0  0  0  0  0  0
  189.5710  177.4250  144.2420 O   0  0  0  0  0  0  0  0  0  0  0  0
  188.3020  176.8870  144.4740 C   0  0  0  0  0  2  0  0  0  0  0  0
  183.8230  179.3080  144.8490 C   0  0  0  0  0  2  0  0  0  0  0  0
  184.9310  178.5280  145.5720 C   0  0  1  0  0  3  0  0  0  0  0  0
  185.9300  177.7780  144.6340 C   0  0  1  0  0  3  0  0  0  0  0  0
  186.3060  178.5320  147.3420 C   0  0  0  0  0  2  0  0  0  0  0  0
  183.4240  178.6180  143.5490 C   0  0  0  0  0  2  0  0  0  0  0  0
  184.6290  178.5330  142.6630 C   0  0  0  0  0  3  0  0  0  0  0  0
  187.5120  177.8900  146.6420 C   0  0  0  0  0  2  0  0  0  0  0  0
  185.8040  178.1540  143.1770 C   0  0  0  0  0  3  0  0  0  0  0  0
  185.6030  179.3760  146.4680 O   0  0  0  0  0  0  0  0  0  0  0  0
  187.3830  177.9220  145.1130 C   0  0  1  0  0  3  0  0  0  0  0  0
  192.0780  175.4730  135.4670 N   0  0  0  0  0  2  0  0  0  0  0  0
  192.9290  174.3080  135.6790 C   0  0  2  0  0  3  0  0  0  0  0  0
  192.3270  173.4510  136.6040 O   0  0  0  0  0  1  0  0  0  0  0  0
  194.3370  174.7080  136.1500 C   0  0  2  0  0  0  0  0  0  0  0  0
  195.2070  173.6420  135.9970 F   0  0  0  0  0  0  0  0  0  0  0  0
  194.2780  175.0350  137.5050 O   0  0  0  0  0  1  0  0  0  0  0  0
  194.6600  177.0980  136.0980 O   0  0  0  0  0  1  0  0  0  0  0  0
  194.8740  175.9170  135.3840 C   0  0  0  0  0  2  0  0  0  0  0  0
  1 21  1  0  0  0  0
  2  1  1  0  0  0  0
  3  2  2  0  0  0  0
  4  6  2  0  0  0  0
  4  3  1  0  0  0  0
  5  1  2  0  0  0  0
  6  5  1  0  0  0  0
  7 19  1  6  0  0  0
  9 13  1  0  0  0  0
  9  3  1  1  0  0  0
  9  7  1  0  0  0  0
 10 15  1  0  0  0  0
 10 12  1  0  0  0  0
 11 16  1  0  0  0  0
 12 16  1  0  0  0  0
 12  8  1  1  0  0  0
 14 13  2  0  0  0  0
 15 11  2  0  0  0  0
 16 13  1  6  0  0  0
 17  7  1  0  0  0  0
 17 11  1  0  0  0  0
 19 18  1  0  0  0  0
 20 19  1  0  0  0  0
 21 22  1  1  0  0  0
 21 23  1  0  0  0  0
 23 25  1  1  0  0  0
 23 26  1  0  0  0  0
 24 25  1  0  0  0  0
 26 27  1  0  0  0  0
 27 28  1  0  0  0  0
 28 29  1  0  0  0  0
 31 30  1  6  0  0  0
 31 38  1  0  0  0  0
 32 37  1  6  0  0  0
 32 39  1  0  0  0  0
 32 31  1  0  0  0  0
 34 30  1  0  0  0  0
 35 37  2  0  0  0  0
 35 34  1  0  0  0  0
 36 33  1  0  0  0  0
 38 33  1  0  0  0  0
 39 29  1  6  0  0  0
 39 36  1  0  0  0  0
 40 41  1  0  0  0  0
 40  6  1  0  0  0  0
 41 43  1  0  0  0  0
 41 42  1  1  0  0  0
 43 44  1  6  0  0  0
 43 45  1  0  0  0  0
 47 46  1  0  0  0  0
 47 43  1  0  0  0  0
M  END
>  <MODEL>
1

>  <REMARK>
 VINA RESULT:      -8.1      0.000      0.000
  Name = 
  14 active torsions:
  status: ('A' for Active; 'I' for Inactive)
    1  A    between atoms: C_1  and  C_32
    2  A    between atoms: C_1  and  C_39
    3  A    between atoms: C_2  and  C_28
    4  A    between atoms: C_4  and  C_18
    5  A    between atoms: C_6  and  C_33
    6  A    between atoms: C_6  and  C_44
    7  A    between atoms: C_7  and  C_16
    8  A    between atoms: O_8  and  C_10
    9  A    between atoms: O_8  and  C_39
   10  A    between atoms: C_10  and  C_42
   11  A    between atoms: C_18  and  C_32
   12  A    between atoms: C_32  and  C_36
   13  A    between atoms: C_33  and  N_34
   14  A    between atoms: N_34  and  C_38
                            x       y       z     vdW  Elec       q    Type
                         _______ _______ _______ _____ _____    ______ ____

>  <TORSDO>
F 14

$$$$
=
 OpenBabel10222415233D

 47 51  0  0  1  0  0  0  0  0999 V2000
  186.7980  178.4490  140.9760 C   0  0  0  0  0  0  0  0  0  0  0  0
  187.2190  177.9260  142.1610 N   0  0  0  0  0  0  0  0  0  0  0  0
  188.4640  177.3930  142.3070 C   0  0  0  0  0  0  0  0  0  0  0  0
  189.3450  177.3710  141.2240 C   0  0  0  0  0  3  0  0  0  0  0  0
  187.6540  178.4440  139.8720 C   0  0  0  0  0  3  0  0  0  0  0  0
  188.9400  177.9050  139.9980 C   0  0  0  0  0  0  0  0  0  0  0  0
  190.3270  177.2610  143.9740 C   0  0  1  0  0  3  0  0  0  0  0  0
  186.8470  178.7480  147.7380 C   0  0  0  0  0  1  0  0  0  0  0  0
  188.8860  176.8070  143.6190 C   0  0  1  0  0  3  0  0  0  0  0  0
  188.5360  177.0570  148.1730 N   0  0  0  0  0  2  0  0  0  0  0  0
  189.6640  177.2680  146.3140 C   0  0  0  0  0  0  0  0  0  0  0  0
  187.5310  177.5020  147.2180 C   0  0  2  0  0  3  0  0  0  0  0  0
  187.8780  177.1530  144.7060 C   0  0  0  0  0  0  0  0  0  0  0  0
  186.6950  176.8960  144.5460 O   0  0  0  0  0  0  0  0  0  0  0  0
  189.7620  176.8790  147.5340 N   0  0  0  0  0  0  0  0  0  0  0  0
  188.3410  177.8380  145.9630 C   0  0  2  0  0  3  0  0  0  0  0  0
  190.6340  177.0200  145.3490 O   0  0  0  0  0  0  0  0  0  0  0  0
  192.3210  177.4950  142.6980 F   0  0  0  0  0  0  0  0  0  0  0  0
  191.3560  176.5820  143.0810 C   0  0  0  0  0  3  0  0  0  0  0  0
  191.9530  175.5250  143.7450 F   0  0  0  0  0  0  0  0  0  0  0  0
  185.4220  179.0180  140.8420 C   0  0  2  0  0  3  0  0  0  0  0  0
  184.7440  179.1270  142.2020 C   0  0  0  0  0  1  0  0  0  0  0  0
  184.5930  178.2480  139.8050 C   0  0  2  0  0  3  0  0  0  0  0  0
  184.3010  180.5050  139.0030 O   0  0  0  0  0  1  0  0  0  0  0  0
  184.0870  179.1620  138.6890 C   0  0  0  0  0  2  0  0  0  0  0  0
  183.4710  177.4130  140.4210 C   0  0  0  0  0  2  0  0  0  0  0  0
  182.5330  176.9070  139.3420 C   0  0  0  0  0  2  0  0  0  0  0  0
  182.9110  175.6210  138.9590 O   0  0  0  0  0  0  0  0  0  0  0  0
  182.7770  175.6170  137.5680 C   0  0  0  0  0  2  0  0  0  0  0  0
  187.2710  175.5980  135.1480 C   0  0  0  0  0  2  0  0  0  0  0  0
  186.4400  175.0700  136.3260 C   0  0  1  0  0  3  0  0  0  0  0  0
  185.1110  175.8450  136.5960 C   0  0  1  0  0  3  0  0  0  0  0  0
  185.8030  173.2220  137.4240 C   0  0  0  0  0  2  0  0  0  0  0  0
  187.1160  177.1080  135.0000 C   0  0  0  0  0  2  0  0  0  0  0  0
  185.6700  177.4180  134.7630 C   0  0  0  0  0  3  0  0  0  0  0  0
  184.3760  173.6850  137.7540 C   0  0  0  0  0  2  0  0  0  0  0  0
  184.7330  176.8140  135.5020 C   0  0  0  0  0  3  0  0  0  0  0  0
  186.2090  173.6930  136.1650 O   0  0  0  0  0  0  0  0  0  0  0  0
  183.9470  174.8930  136.9120 C   0  0  1  0  0  3  0  0  0  0  0  0
  189.8440  177.8720  138.8910 N   0  0  0  0  0  2  0  0  0  0  0  0
  189.8820  176.7910  137.9130 C   0  0  2  0  0  3  0  0  0  0  0  0
  188.9200  175.8320  138.2410 O   0  0  0  0  0  1  0  0  0  0  0  0
  191.2760  176.1500  137.8250 C   0  0  2  0  0  0  0  0  0  0  0  0
  191.7640  176.2590  136.5340 F   0  0  0  0  0  0  0  0  0  0  0  0
  191.1650  174.7950  138.1390 O   0  0  0  0  0  1  0  0  0  0  0  0
  193.5780  176.6440  138.3500 O   0  0  0  0  0  1  0  0  0  0  0  0
  192.2640  176.7920  138.7980 C   0  0  0  0  0  2  0  0  0  0  0  0
  1  2  1  0  0  0  0
  2  3  2  0  0  0  0
  4  3  1  0  0  0  0
  5  6  1  0  0  0  0
  5  1  2  0  0  0  0
  6  4  2  0  0  0  0
  7 19  1  6  0  0  0
  7 17  1  0  0  0  0
  9  3  1  6  0  0  0
  9  7  1  0  0  0  0
  9 13  1  0  0  0  0
 11 15  2  0  0  0  0
 12  8  1  1  0  0  0
 12 10  1  0  0  0  0
 14 13  2  0  0  0  0
 15 10  1  0  0  0  0
 16 13  1  6  0  0  0
 16 11  1  0  0  0  0
 16 12  1  0  0  0  0
 17 11  1  0  0  0  0
 18 19  1  0  0  0  0
 19 20  1  0  0  0  0
 21  1  1  0  0  0  0
 21 22  1  1  0  0  0
 23 25  1  6  0  0  0
 23 26  1  0  0  0  0
 23 21  1  0  0  0  0
 25 24  1  0  0  0  0
 27 26  1  0  0  0  0
 28 27  1  0  0  0  0
 29 28  1  0  0  0  0
 31 30  1  6  0  0  0
 31 32  1  0  0  0  0
 32 37  1  6  0  0  0
 32 39  1  0  0  0  0
 33 36  1  0  0  0  0
 34 30  1  0  0  0  0
 35 34  1  0  0  0  0
 35 37  2  0  0  0  0
 38 31  1  0  0  0  0
 38 33  1  0  0  0  0
 39 29  1  1  0  0  0
 39 36  1  0  0  0  0
 40  6  1  0  0  0  0
 41 42  1  1  0  0  0
 41 40  1  0  0  0  0
 43 44  1  6  0  0  0
 43 41  1  0  0  0  0
 43 45  1  0  0  0  0
 43 47  1  0  0  0  0
 46 47  1  0  0  0  0
M  END
>  <MODEL>
2

>  <REMARK>
 VINA RESULT:      -8.1      3.267      7.996
  Name = 
  14 active torsions:
  status: ('A' for Active; 'I' for Inactive)
    1  A    between atoms: C_1  and  C_32
    2  A    between atoms: C_1  and  C_39
    3  A    between atoms: C_2  and  C_28
    4  A    between atoms: C_4  and  C_18
    5  A    between atoms: C_6  and  C_33
    6  A    between atoms: C_6  and  C_44
    7  A    between atoms: C_7  and  C_16
    8  A    between atoms: O_8  and  C_10
    9  A    between atoms: O_8  and  C_39
   10  A    between atoms: C_10  and  C_42
   11  A    between atoms: C_18  and  C_32
   12  A    between atoms: C_32  and  C_36
   13  A    between atoms: C_33  and  N_34
   14  A    between atoms: N_34  and  C_38
                            x       y       z     vdW  Elec       q    Type
                         _______ _______ _______ _____ _____    ______ ____

>  <TORSDO>
F 14

$$$$
=
 OpenBabel10222415233D

 47 51  0  0  1  0  0  0  0  0999 V2000
  186.9980  177.9190  137.4840 C   0  0  0  0  0  0  0  0  0  0  0  0
  186.0750  178.5930  138.2230 N   0  0  0  0  0  0  0  0  0  0  0  0
  184.8420  178.0740  138.4780 C   0  0  0  0  0  0  0  0  0  0  0  0
  184.4970  176.8180  137.9750 C   0  0  0  0  0  3  0  0  0  0  0  0
  186.6860  176.6600  136.9660 C   0  0  0  0  0  3  0  0  0  0  0  0
  185.4270  176.1020  137.2170 C   0  0  0  0  0  0  0  0  0  0  0  0
  182.4370  178.2090  139.1600 C   0  0  1  0  0  3  0  0  0  0  0  0
  184.0570  178.4060  144.2420 C   0  0  0  0  0  1  0  0  0  0  0  0
  183.8440  178.8540  139.2770 C   0  0  1  0  0  3  0  0  0  0  0  0
  182.2060  179.7660  143.4490 N   0  0  0  0  0  2  0  0  0  0  0  0
  182.0180  178.8930  141.4560 C   0  0  0  0  0  0  0  0  0  0  0  0
  183.5610  179.3250  143.1460 C   0  0  2  0  0  3  0  0  0  0  0  0
  184.3070  178.9910  140.7210 C   0  0  0  0  0  0  0  0  0  0  0  0
  185.4150  179.4410  140.9670 O   0  0  0  0  0  0  0  0  0  0  0  0
  181.3670  179.5300  142.3610 N   0  0  0  0  0  0  0  0  0  0  0  0
  183.4070  178.5420  141.8400 C   0  0  2  0  0  3  0  0  0  0  0  0
  181.5450  178.7000  140.1630 O   0  0  0  0  0  0  0  0  0  0  0  0
  180.7860  177.5600  137.5740 F   0  0  0  0  0  0  0  0  0  0  0  0
  181.8420  178.4290  137.7760 C   0  0  0  0  0  3  0  0  0  0  0  0
  181.4030  179.7350  137.6390 F   0  0  0  0  0  0  0  0  0  0  0  0
  188.3400  178.5190  137.2110 C   0  0  2  0  0  3  0  0  0  0  0  0
  188.8710  178.0700  135.8560 C   0  0  0  0  0  1  0  0  0  0  0  0
  189.3170  178.2620  138.3670 C   0  0  2  0  0  3  0  0  0  0  0  0
  191.1880  176.8040  137.9230 O   0  0  0  0  0  1  0  0  0  0  0  0
  189.8580  176.8320  138.3470 C   0  0  0  0  0  2  0  0  0  0  0  0
  188.7550  178.6480  139.7350 C   0  0  0  0  0  2  0  0  0  0  0  0
  188.8950  177.4950  140.7100 C   0  0  0  0  0  2  0  0  0  0  0  0
  188.2610  177.8170  141.9090 O   0  0  0  0  0  0  0  0  0  0  0  0
  188.5420  176.7390  142.7530 C   0  0  0  0  0  2  0  0  0  0  0  0
  189.3190  177.6930  147.7070 C   0  0  0  0  0  2  0  0  0  0  0  0
  189.7970  176.9590  146.4460 C   0  0  1  0  0  3  0  0  0  0  0  0
  188.7620  176.9160  145.2760 C   0  0  1  0  0  3  0  0  0  0  0  0
  191.5710  176.5430  145.1410 C   0  0  0  0  0  2  0  0  0  0  0  0
  187.8150  177.5320  147.9000 C   0  0  0  0  0  2  0  0  0  0  0  0
  187.1170  178.1000  146.7030 C   0  0  0  0  0  3  0  0  0  0  0  0
  190.8210  176.5430  143.8010 C   0  0  0  0  0  2  0  0  0  0  0  0
  187.5720  177.8220  145.4760 C   0  0  0  0  0  3  0  0  0  0  0  0
  191.0290  177.4880  146.0260 O   0  0  0  0  0  0  0  0  0  0  0  0
  189.4270  177.1760  143.9150 C   0  0  1  0  0  3  0  0  0  0  0  0
  185.0640  174.8200  136.6980 N   0  0  0  0  0  2  0  0  0  0  0  0
  184.2800  173.8420  137.4430 C   0  0  2  0  0  3  0  0  0  0  0  0
  185.1300  172.8660  137.9710 O   0  0  0  0  0  1  0  0  0  0  0  0
  183.1930  173.1970  136.5690 C   0  0  2  0  0  0  0  0  0  0  0  0
  183.2450  171.8190  136.6900 F   0  0  0  0  0  0  0  0  0  0  0  0
  183.4380  173.5280  135.2360 O   0  0  0  0  0  1  0  0  0  0  0  0
  181.8450  174.5970  137.9980 O   0  0  0  0  0  1  0  0  0  0  0  0
  181.7940  173.6890  136.9380 C   0  0  0  0  0  2  0  0  0  0  0  0
  1  2  1  0  0  0  0
  2  3  2  0  0  0  0
  4  3  1  0  0  0  0
  5  6  1  0  0  0  0
  5  1  2  0  0  0  0
  6  4  2  0  0  0  0
  7 19  1  6  0  0  0
  7  9  1  0  0  0  0
  7 17  1  0  0  0  0
  9  3  1  6  0  0  0
  9 13  1  0  0  0  0
 11 16  1  0  0  0  0
 11 15  2  0  0  0  0
 12 10  1  0  0  0  0
 12  8  1  1  0  0  0
 13 14  2  0  0  0  0
 15 10  1  0  0  0  0
 16 13  1  6  0  0  0
 16 12  1  0  0  0  0
 17 11  1  0  0  0  0
 18 19  1  0  0  0  0
 20 19  1  0  0  0  0
 21 22  1  6  0  0  0
 21  1  1  0  0  0  0
 21 23  1  0  0  0  0
 23 25  1  1  0  0  0
 23 26  1  0  0  0  0
 24 25  1  0  0  0  0
 26 27  1  0  0  0  0
 27 28  1  0  0  0  0
 28 29  1  0  0  0  0
 30 34  1  0  0  0  0
 31 30  1  1  0  0  0
 32 37  1  1  0  0  0
 32 31  1  0  0  0  0
 33 38  1  0  0  0  0
 35 34  1  0  0  0  0
 36 39  1  0  0  0  0
 36 33  1  0  0  0  0
 37 35  2  0  0  0  0
 38 31  1  0  0  0  0
 39 29  1  6  0  0  0
 39 32  1  0  0  0  0
 40  6  1  0  0  0  0
 40 41  1  0  0  0  0
 41 42  1  6  0  0  0
 43 45  1  6  0  0  0
 43 44  1  0  0  0  0
 43 47  1  0  0  0  0
 43 41  1  0  0  0  0
 47 46  1  0  0  0  0
M  END
>  <MODEL>
3

>  <REMARK>
 VINA RESULT:      -8.0      3.369      6.649
  Name = 
  14 active torsions:
  status: ('A' for Active; 'I' for Inactive)
    1  A    between atoms: C_1  and  C_32
    2  A    between atoms: C_1  and  C_39
    3  A    between atoms: C_2  and  C_28
    4  A    between atoms: C_4  and  C_18
    5  A    between atoms: C_6  and  C_33
    6  A    between atoms: C_6  and  C_44
    7  A    between atoms: C_7  and  C_16
    8  A    between atoms: O_8  and  C_10
    9  A    between atoms: O_8  and  C_39
   10  A    between atoms: C_10  and  C_42
   11  A    between atoms: C_18  and  C_32
   12  A    between atoms: C_32  and  C_36
   13  A    between atoms: C_33  and  N_34
   14  A    between atoms: N_34  and  C_38
                            x       y       z     vdW  Elec       q    Type
                         _______ _______ _______ _____ _____    ______ ____

>  <TORSDO>
F 14

$$$$
=
 OpenBabel10222415233D

 47 51  0  0  1  0  0  0  0  0999 V2000
  187.5100  177.8310  138.7660 C   0  0  0  0  0  0  0  0  0  0  0  0
  187.4020  178.2110  140.0690 N   0  0  0  0  0  0  0  0  0  0  0  0
  188.3430  177.8750  140.9940 C   0  0  0  0  0  0  0  0  0  0  0  0
  189.4540  177.1190  140.6160 C   0  0  0  0  0  3  0  0  0  0  0  0
  188.6090  177.0740  138.3530 C   0  0  0  0  0  3  0  0  0  0  0  0
  189.5930  176.7190  139.2840 C   0  0  0  0  0  0  0  0  0  0  0  0
  186.9480  177.5920  143.0530 C   0  0  1  0  0  3  0  0  0  0  0  0
  191.4170  176.4140  145.7220 C   0  0  0  0  0  1  0  0  0  0  0  0
  188.1800  178.2930  142.4230 C   0  0  1  0  0  3  0  0  0  0  0  0
  189.6720  177.7810  146.7160 N   0  0  0  0  0  2  0  0  0  0  0  0
  188.1610  177.5260  145.1600 C   0  0  0  0  0  0  0  0  0  0  0  0
  190.4620  177.5690  145.5120 C   0  0  2  0  0  3  0  0  0  0  0  0
  189.4620  178.0360  143.2020 C   0  0  0  0  0  0  0  0  0  0  0  0
  190.5230  178.4880  142.7990 O   0  0  0  0  0  0  0  0  0  0  0  0
  188.3140  177.8070  146.4030 N   0  0  0  0  0  0  0  0  0  0  0  0
  189.4220  177.1980  144.4520 C   0  0  2  0  0  3  0  0  0  0  0  0
  186.9580  177.6840  144.4800 O   0  0  0  0  0  0  0  0  0  0  0  0
  184.6100  177.8970  143.3770 F   0  0  0  0  0  0  0  0  0  0  0  0
  185.6470  178.1600  142.5020 C   0  0  0  0  0  3  0  0  0  0  0  0
  185.7580  179.5260  142.3090 F   0  0  0  0  0  0  0  0  0  0  0  0
  186.4560  178.2050  137.7740 C   0  0  2  0  0  3  0  0  0  0  0  0
  185.2370  178.7930  138.4720 C   0  0  0  0  0  1  0  0  0  0  0  0
  186.1220  177.0340  136.8390 C   0  0  2  0  0  3  0  0  0  0  0  0
  187.3290  178.4430  135.2950 O   0  0  0  0  0  1  0  0  0  0  0  0
  186.4570  177.3550  135.3830 C   0  0  0  0  0  2  0  0  0  0  0  0
  184.6930  176.5150  137.0020 C   0  0  0  0  0  2  0  0  0  0  0  0
  184.7030  175.0370  137.3440 C   0  0  0  0  0  2  0  0  0  0  0  0
  183.5470  174.7140  138.0520 O   0  0  0  0  0  0  0  0  0  0  0  0
  182.9500  175.9460  138.3300 C   0  0  0  0  0  2  0  0  0  0  0  0
  179.7860  177.8490  141.8540 C   0  0  0  0  0  2  0  0  0  0  0  0
  179.9360  177.0190  140.5710 C   0  0  1  0  0  3  0  0  0  0  0  0
  181.3200  177.1500  139.8580 C   0  0  1  0  0  3  0  0  0  0  0  0
  179.4010  175.0810  139.5800 C   0  0  0  0  0  2  0  0  0  0  0  0
  180.5840  179.1450  141.7670 C   0  0  0  0  0  2  0  0  0  0  0  0
  182.0280  178.8040  141.5640 C   0  0  0  0  0  3  0  0  0  0  0  0
  180.7220  174.8870  138.8230 C   0  0  0  0  0  2  0  0  0  0  0  0
  182.3690  177.8590  140.6820 C   0  0  0  0  0  3  0  0  0  0  0  0
  179.6170  175.6760  140.8340 O   0  0  0  0  0  0  0  0  0  0  0  0
  181.8390  175.7920  139.3620 C   0  0  1  0  0  3  0  0  0  0  0  0
  190.7290  175.9390  138.9050 N   0  0  0  0  0  2  0  0  0  0  0  0
  190.8640  175.2920  137.6050 C   0  0  2  0  0  3  0  0  0  0  0  0
  190.3540  173.9920  137.6750 O   0  0  0  0  0  1  0  0  0  0  0  0
  192.3240  175.2750  137.1250 C   0  0  2  0  0  0  0  0  0  0  0  0
  192.3660  175.2720  135.7420 F   0  0  0  0  0  0  0  0  0  0  0  0
  192.9310  174.1060  137.5840 O   0  0  0  0  0  1  0  0  0  0  0  0
  194.2030  176.0500  138.4250 O   0  0  0  0  0  1  0  0  0  0  0  0
  193.1150  176.4700  137.6570 C   0  0  0  0  0  2  0  0  0  0  0  0
  1  2  1  0  0  0  0
  2  3  2  0  0  0  0
  4  3  1  0  0  0  0
  5  1  2  0  0  0  0
  5  6  1  0  0  0  0
  6  4  2  0  0  0  0
  7 19  1  6  0  0  0
  7 17  1  0  0  0  0
  9  3  1  6  0  0  0
  9  7  1  0  0  0  0
  9 13  1  0  0  0  0
 11 15  2  0  0  0  0
 12  8  1  1  0  0  0
 12 10  1  0  0  0  0
 14 13  2  0  0  0  0
 15 10  1  0  0  0  0
 16 13  1  6  0  0  0
 16 11  1  0  0  0  0
 16 12  1  0  0  0  0
 17 11  1  0  0  0  0
 19 18  1  0  0  0  0
 20 19  1  0  0  0  0
 21 22  1  1  0  0  0
 21  1  1  0  0  0  0
 23 25  1  6  0  0  0
 23 26  1  0  0  0  0
 23 21  1  0  0  0  0
 24 25  1  0  0  0  0
 26 27  1  0  0  0  0
 27 28  1  0  0  0  0
 28 29  1  0  0  0  0
 31 38  1  0  0  0  0
 31 30  1  1  0  0  0
 32 31  1  0  0  0  0
 32 37  1  1  0  0  0
 33 38  1  0  0  0  0
 34 30  1  0  0  0  0
 35 34  1  0  0  0  0
 36 39  1  0  0  0  0
 36 33  1  0  0  0  0
 37 35  2  0  0  0  0
 39 29  1  6  0  0  0
 39 32  1  0  0  0  0
 40  6  1  0  0  0  0
 41 42  1  1  0  0  0
 41 40  1  0  0  0  0
 43 44  1  6  0  0  0
 43 45  1  0  0  0  0
 43 41  1  0  0  0  0
 43 47  1  0  0  0  0
 47 46  1  0  0  0  0
M  END
>  <MODEL>
4

>  <REMARK>
 VINA RESULT:      -8.0      3.564      6.970
  Name = 
  14 active torsions:
  status: ('A' for Active; 'I' for Inactive)
    1  A    between atoms: C_1  and  C_32
    2  A    between atoms: C_1  and  C_39
    3  A    between atoms: C_2  and  C_28
    4  A    between atoms: C_4  and  C_18
    5  A    between atoms: C_6  and  C_33
    6  A    between atoms: C_6  and  C_44
    7  A    between atoms: C_7  and  C_16
    8  A    between atoms: O_8  and  C_10
    9  A    between atoms: O_8  and  C_39
   10  A    between atoms: C_10  and  C_42
   11  A    between atoms: C_18  and  C_32
   12  A    between atoms: C_32  and  C_36
   13  A    between atoms: C_33  and  N_34
   14  A    between atoms: N_34  and  C_38
                            x       y       z     vdW  Elec       q    Type
                         _______ _______ _______ _____ _____    ______ ____

>  <TORSDO>
F 14

$$$$
=
 OpenBabel10222415233D

 47 51  0  0  1  0  0  0  0  0999 V2000
  186.7850  178.4530  141.0670 C   0  0  0  0  0  0  0  0  0  0  0  0
  187.2270  177.9230  142.2410 N   0  0  0  0  0  0  0  0  0  0  0  0
  188.4900  177.4330  142.3760 C   0  0  0  0  0  0  0  0  0  0  0  0
  189.3700  177.4650  141.2920 C   0  0  0  0  0  3  0  0  0  0  0  0
  187.6390  178.5020  139.9630 C   0  0  0  0  0  3  0  0  0  0  0  0
  188.9440  178.0080  140.0770 C   0  0  0  0  0  0  0  0  0  0  0  0
  190.3730  177.3070  144.0210 C   0  0  1  0  0  3  0  0  0  0  0  0
  186.9150  178.6970  147.8410 C   0  0  0  0  0  1  0  0  0  0  0  0
  188.9360  176.8370  143.6760 C   0  0  1  0  0  3  0  0  0  0  0  0
  188.6330  177.0250  148.2350 N   0  0  0  0  0  2  0  0  0  0  0  0
  189.7370  177.2750  146.3670 C   0  0  0  0  0  0  0  0  0  0  0  0
  187.6110  177.4670  147.2970 C   0  0  2  0  0  3  0  0  0  0  0  0
  187.9350  177.1540  144.7780 C   0  0  0  0  0  0  0  0  0  0  0  0
  186.7540  176.8820  144.6280 O   0  0  0  0  0  0  0  0  0  0  0  0
  189.8550  176.8730  147.5810 N   0  0  0  0  0  0  0  0  0  0  0  0
  188.4020  177.8310  146.0380 C   0  0  2  0  0  3  0  0  0  0  0  0
  190.7000  177.0530  145.3890 O   0  0  0  0  0  0  0  0  0  0  0  0
  192.3210  177.5970  142.6840 F   0  0  0  0  0  0  0  0  0  0  0  0
  191.4030  176.6550  143.1070 C   0  0  0  0  0  3  0  0  0  0  0  0
  192.0580  175.6310  143.7690 F   0  0  0  0  0  0  0  0  0  0  0  0
  185.3890  178.9740  140.9460 C   0  0  2  0  0  3  0  0  0  0  0  0
  184.6960  178.9940  142.3020 C   0  0  0  0  0  1  0  0  0  0  0  0
  184.6000  178.2220  139.8660 C   0  0  2  0  0  3  0  0  0  0  0  0
  184.1460  180.4570  139.0770 O   0  0  0  0  0  1  0  0  0  0  0  0
  184.2580  179.1230  138.6790 C   0  0  0  0  0  2  0  0  0  0  0  0
  183.3720  177.4900  140.4080 C   0  0  0  0  0  2  0  0  0  0  0  0
  182.3760  177.2300  139.2950 C   0  0  0  0  0  2  0  0  0  0  0  0
  182.2680  175.8570  139.0750 O   0  0  0  0  0  0  0  0  0  0  0  0
  182.6340  175.6880  137.7380 C   0  0  0  0  0  2  0  0  0  0  0  0
  184.5520  171.2440  136.1140 C   0  0  0  0  0  2  0  0  0  0  0  0
  184.7100  172.7700  136.1750 C   0  0  1  0  0  3  0  0  0  0  0  0
  183.4330  173.5490  136.6290 C   0  0  1  0  0  3  0  0  0  0  0  0
  186.1260  174.4380  136.6620 C   0  0  0  0  0  2  0  0  0  0  0  0
  183.1290  170.8550  135.7270 C   0  0  0  0  0  2  0  0  0  0  0  0
  182.1870  171.4090  136.7500 C   0  0  0  0  0  3  0  0  0  0  0  0
  185.0880  175.3940  137.2670 C   0  0  0  0  0  2  0  0  0  0  0  0
  182.3410  172.6650  137.1820 C   0  0  0  0  0  3  0  0  0  0  0  0
  185.8230  173.1010  136.9660 O   0  0  0  0  0  0  0  0  0  0  0  0
  183.7720  174.6820  137.6100 C   0  0  1  0  0  3  0  0  0  0  0  0
  189.8470  178.0300  138.9690 N   0  0  0  0  0  2  0  0  0  0  0  0
  189.8650  177.0130  137.9240 C   0  0  2  0  0  3  0  0  0  0  0  0
  188.7850  176.1440  138.1000 O   0  0  0  0  0  1  0  0  0  0  0  0
  191.1890  176.2340  137.9080 C   0  0  2  0  0  0  0  0  0  0  0  0
  191.6810  176.1640  136.6160 F   0  0  0  0  0  0  0  0  0  0  0  0
  190.9480  174.9350  138.3560 O   0  0  0  0  0  1  0  0  0  0  0  0
  193.5280  176.4770  138.4510 O   0  0  0  0  0  1  0  0  0  0  0  0
  192.2390  176.8710  138.8180 C   0  0  0  0  0  2  0  0  0  0  0  0
  1  2  1  0  0  0  0
  2  3  2  0  0  0  0
  4  3  1  0  0  0  0
  5  6  1  0  0  0  0
  5  1  2  0  0  0  0
  6  4  2  0  0  0  0
  7 19  1  6  0  0  0
  7 17  1  0  0  0  0
  9  3  1  6  0  0  0
  9  7  1  0  0  0  0
  9 13  1  0  0  0  0
 11 15  2  0  0  0  0
 12  8  1  1  0  0  0
 12 10  1  0  0  0  0
 14 13  2  0  0  0  0
 15 10  1  0  0  0  0
 16 13  1  6  0  0  0
 16 11  1  0  0  0  0
 16 12  1  0  0  0  0
 17 11  1  0  0  0  0
 18 19  1  0  0  0  0
 19 20  1  0  0  0  0
 21  1  1  0  0  0  0
 21 22  1  1  0  0  0
 23 25  1  6  0  0  0
 23 26  1  0  0  0  0
 23 21  1  0  0  0  0
 25 24  1  0  0  0  0
 27 26  1  0  0  0  0
 28 27  1  0  0  0  0
 29 28  1  0  0  0  0
 31 30  1  1  0  0  0
 31 32  1  0  0  0  0
 31 38  1  0  0  0  0
 32 37  1  1  0  0  0
 32 39  1  0  0  0  0
 33 38  1  0  0  0  0
 33 36  1  0  0  0  0
 34 30  1  0  0  0  0
 34 35  1  0  0  0  0
 35 37  2  0  0  0  0
 36 39  1  0  0  0  0
 39 29  1  6  0  0  0
 40  6  1  0  0  0  0
 41 42  1  1  0  0  0
 41 40  1  0  0  0  0
 43 44  1  6  0  0  0
 43 41  1  0  0  0  0
 43 45  1  0  0  0  0
 43 47  1  0  0  0  0
 46 47  1  0  0  0  0
M  END
>  <MODEL>
5

>  <REMARK>
 VINA RESULT:      -7.8      3.478      8.214
  Name = 
  14 active torsions:
  status: ('A' for Active; 'I' for Inactive)
    1  A    between atoms: C_1  and  C_32
    2  A    between atoms: C_1  and  C_39
    3  A    between atoms: C_2  and  C_28
    4  A    between atoms: C_4  and  C_18
    5  A    between atoms: C_6  and  C_33
    6  A    between atoms: C_6  and  C_44
    7  A    between atoms: C_7  and  C_16
    8  A    between atoms: O_8  and  C_10
    9  A    between atoms: O_8  and  C_39
   10  A    between atoms: C_10  and  C_42
   11  A    between atoms: C_18  and  C_32
   12  A    between atoms: C_32  and  C_36
   13  A    between atoms: C_33  and  N_34
   14  A    between atoms: N_34  and  C_38
                            x       y       z     vdW  Elec       q    Type
                         _______ _______ _______ _____ _____    ______ ____

>  <TORSDO>
F 14

$$$$
=
 OpenBabel10222415233D

 47 51  0  0  1  0  0  0  0  0999 V2000
  186.6670  178.4380  141.1830 C   0  0  0  0  0  0  0  0  0  0  0  0
  187.1110  177.9270  142.3640 N   0  0  0  0  0  0  0  0  0  0  0  0
  188.3590  177.3980  142.4920 C   0  0  0  0  0  0  0  0  0  0  0  0
  189.2200  177.3690  141.3930 C   0  0  0  0  0  3  0  0  0  0  0  0
  187.5020  178.4260  140.0630 C   0  0  0  0  0  3  0  0  0  0  0  0
  188.7920  177.8920  140.1700 C   0  0  0  0  0  0  0  0  0  0  0  0
  190.2540  177.2830  144.1240 C   0  0  1  0  0  3  0  0  0  0  0  0
  186.8470  178.8030  147.9400 C   0  0  0  0  0  1  0  0  0  0  0  0
  188.8070  176.8250  143.8010 C   0  0  1  0  0  3  0  0  0  0  0  0
  188.5450  177.1170  148.3580 N   0  0  0  0  0  2  0  0  0  0  0  0
  189.6370  177.3110  146.4760 C   0  0  0  0  0  0  0  0  0  0  0  0
  187.5210  177.5530  147.4180 C   0  0  2  0  0  3  0  0  0  0  0  0
  187.8200  177.1800  144.9040 C   0  0  0  0  0  0  0  0  0  0  0  0
  186.6340  176.9210  144.7690 O   0  0  0  0  0  0  0  0  0  0  0  0
  189.7590  176.9340  147.6970 N   0  0  0  0  0  0  0  0  0  0  0  0
  188.3070  177.8780  146.1460 C   0  0  2  0  0  3  0  0  0  0  0  0
  190.5880  177.0550  145.4950 O   0  0  0  0  0  0  0  0  0  0  0  0
  192.1950  177.5170  142.7680 F   0  0  0  0  0  0  0  0  0  0  0  0
  191.2670  176.5970  143.2170 C   0  0  0  0  0  3  0  0  0  0  0  0
  191.9120  175.5770  143.8950 F   0  0  0  0  0  0  0  0  0  0  0  0
  185.2870  179.0030  141.0690 C   0  0  2  0  0  3  0  0  0  0  0  0
  184.6070  179.0560  142.4310 C   0  0  0  0  0  1  0  0  0  0  0  0
  184.4640  178.2670  140.0030 C   0  0  2  0  0  3  0  0  0  0  0  0
  184.1810  180.4840  139.0930 O   0  0  0  0  0  1  0  0  0  0  0  0
  184.2410  179.1290  138.7610 C   0  0  0  0  0  2  0  0  0  0  0  0
  183.1590  177.6800  140.5400 C   0  0  0  0  0  2  0  0  0  0  0  0
  182.8010  176.4110  139.7900 C   0  0  0  0  0  2  0  0  0  0  0  0
  181.6890  176.6440  138.9810 O   0  0  0  0  0  0  0  0  0  0  0  0
  181.7420  175.6370  138.0150 C   0  0  0  0  0  2  0  0  0  0  0  0
  185.6520  173.9760  135.1850 C   0  0  0  0  0  2  0  0  0  0  0  0
  184.3460  174.7810  135.2310 C   0  0  1  0  0  3  0  0  0  0  0  0
  183.4760  174.5550  136.5090 C   0  0  1  0  0  3  0  0  0  0  0  0
  183.3930  176.7400  134.7020 C   0  0  0  0  0  2  0  0  0  0  0  0
  185.4930  172.6300  135.8840 C   0  0  0  0  0  2  0  0  0  0  0  0
  185.1140  172.8760  137.3120 C   0  0  0  0  0  3  0  0  0  0  0  0
  182.4790  176.8410  135.9320 C   0  0  0  0  0  2  0  0  0  0  0  0
  184.1800  173.7880  137.6020 C   0  0  0  0  0  3  0  0  0  0  0  0
  184.6210  176.1450  135.0300 O   0  0  0  0  0  0  0  0  0  0  0  0
  182.8970  175.8720  137.0480 C   0  0  1  0  0  3  0  0  0  0  0  0
  189.6750  177.8520  139.0470 N   0  0  0  0  0  2  0  0  0  0  0  0
  189.6340  176.8110  138.0260 C   0  0  2  0  0  3  0  0  0  0  0  0
  190.8860  176.1970  137.9350 O   0  0  0  0  0  1  0  0  0  0  0  0
  189.2030  177.3680  136.6600 C   0  0  2  0  0  0  0  0  0  0  0  0
  190.1920  177.1320  135.7210 F   0  0  0  0  0  0  0  0  0  0  0  0
  189.0290  178.7470  136.7760 O   0  0  0  0  0  1  0  0  0  0  0  0
  187.0010  176.5730  137.2440 O   0  0  0  0  0  1  0  0  0  0  0  0
  187.8880  176.7540  136.1800 C   0  0  0  0  0  2  0  0  0  0  0  0
  1  2  1  0  0  0  0
  2  3  2  0  0  0  0
  4  3  1  0  0  0  0
  5  6  1  0  0  0  0
  5  1  2  0  0  0  0
  6  4  2  0  0  0  0
  7 19  1  6  0  0  0
  7 17  1  0  0  0  0
  9  3  1  6  0  0  0
  9  7  1  0  0  0  0
  9 13  1  0  0  0  0
 11 15  2  0  0  0  0
 12  8  1  1  0  0  0
 12 10  1  0  0  0  0
 14 13  2  0  0  0  0
 15 10  1  0  0  0  0
 16 13  1  6  0  0  0
 16 11  1  0  0  0  0
 16 12  1  0  0  0  0
 17 11  1  0  0  0  0
 18 19  1  0  0  0  0
 19 20  1  0  0  0  0
 21  1  1  0  0  0  0
 21 22  1  1  0  0  0
 23 25  1  6  0  0  0
 23 26  1  0  0  0  0
 23 21  1  0  0  0  0
 25 24  1  0  0  0  0
 27 26  1  0  0  0  0
 28 27  1  0  0  0  0
 29 28  1  0  0  0  0
 30 34  1  0  0  0  0
 31 30  1  1  0  0  0
 31 32  1  0  0  0  0
 32 39  1  0  0  0  0
 32 37  1  1  0  0  0
 33 38  1  0  0  0  0
 33 36  1  0  0  0  0
 34 35  1  0  0  0  0
 35 37  2  0  0  0  0
 36 39  1  0  0  0  0
 38 31  1  0  0  0  0
 39 29  1  6  0  0  0
 40  6  1  0  0  0  0
 41 42  1  6  0  0  0
 41 40  1  0  0  0  0
 43 44  1  6  0  0  0
 43 45  1  0  0  0  0
 43 41  1  0  0  0  0
 47 43  1  0  0  0  0
 47 46  1  0  0  0  0
M  END
>  <MODEL>
6

>  <REMARK>
 VINA RESULT:      -7.7      3.476      8.444
  Name = 
  14 active torsions:
  status: ('A' for Active; 'I' for Inactive)
    1  A    between atoms: C_1  and  C_32
    2  A    between atoms: C_1  and  C_39
    3  A    between atoms: C_2  and  C_28
    4  A    between atoms: C_4  and  C_18
    5  A    between atoms: C_6  and  C_33
    6  A    between atoms: C_6  and  C_44
    7  A    between atoms: C_7  and  C_16
    8  A    between atoms: O_8  and  C_10
    9  A    between atoms: O_8  and  C_39
   10  A    between atoms: C_10  and  C_42
   11  A    between atoms: C_18  and  C_32
   12  A    between atoms: C_32  and  C_36
   13  A    between atoms: C_33  and  N_34
   14  A    between atoms: N_34  and  C_38
                            x       y       z     vdW  Elec       q    Type
                         _______ _______ _______ _____ _____    ______ ____

>  <TORSDO>
F 14

$$$$
=
 OpenBabel10222415233D

 47 51  0  0  1  0  0  0  0  0999 V2000
  185.1530  178.9770  140.4140 C   0  0  0  0  0  0  0  0  0  0  0  0
  185.9790  178.3920  139.5030 N   0  0  0  0  0  0  0  0  0  0  0  0
  185.5780  178.1510  138.2240 C   0  0  0  0  0  0  0  0  0  0  0  0
  184.2900  178.5050  137.8180 C   0  0  0  0  0  3  0  0  0  0  0  0
  183.8580  179.3450  140.0420 C   0  0  0  0  0  3  0  0  0  0  0  0
  183.4240  179.1120  138.7310 C   0  0  0  0  0  0  0  0  0  0  0  0
  187.9450  177.4370  137.8290 C   0  0  1  0  0  3  0  0  0  0  0  0
  186.1200  172.5350  136.7710 C   0  0  0  0  0  1  0  0  0  0  0  0
  186.5050  177.4850  137.2540 C   0  0  1  0  0  3  0  0  0  0  0  0
  187.9320  173.5160  135.4840 N   0  0  0  0  0  2  0  0  0  0  0  0
  188.2400  175.3010  136.7040 C   0  0  0  0  0  0  0  0  0  0  0  0
  186.6130  173.7700  136.0480 C   0  0  2  0  0  3  0  0  0  0  0  0
  185.9800  176.1080  136.8740 C   0  0  0  0  0  0  0  0  0  0  0  0
  184.8420  175.9850  136.4470 O   0  0  0  0  0  0  0  0  0  0  0  0
  188.8220  174.5150  135.8730 N   0  0  0  0  0  0  0  0  0  0  0  0
  186.8560  174.8980  137.0540 C   0  0  2  0  0  3  0  0  0  0  0  0
  188.7730  176.5200  137.1100 O   0  0  0  0  0  0  0  0  0  0  0  0
  189.2900  179.0020  139.0140 F   0  0  0  0  0  0  0  0  0  0  0  0
  188.5830  178.8200  137.8410 C   0  0  0  0  0  3  0  0  0  0  0  0
  189.4300  178.9710  136.7570 F   0  0  0  0  0  0  0  0  0  0  0  0
  185.6170  179.2190  141.8150 C   0  0  2  0  0  3  0  0  0  0  0  0
  187.0720  178.8040  141.9850 C   0  0  0  0  0  1  0  0  0  0  0  0
  184.6720  178.5750  142.8390 C   0  0  2  0  0  3  0  0  0  0  0  0
  182.2870  178.6670  143.1980 O   0  0  0  0  0  1  0  0  0  0  0  0
  183.4440  179.4450  143.1060 C   0  0  0  0  0  2  0  0  0  0  0  0
  185.3720  178.1530  144.1300 C   0  0  0  0  0  2  0  0  0  0  0  0
  185.2850  179.2580  145.1660 C   0  0  0  0  0  2  0  0  0  0  0  0
  185.9900  178.8840  146.3090 O   0  0  0  0  0  0  0  0  0  0  0  0
  186.3010  177.5370  146.1030 C   0  0  0  0  0  2  0  0  0  0  0  0
  191.3410  177.1060  145.4140 C   0  0  0  0  0  2  0  0  0  0  0  0
  190.2020  177.7010  146.2540 C   0  0  1  0  0  3  0  0  0  0  0  0
  188.7870  177.6260  145.5950 C   0  0  1  0  0  3  0  0  0  0  0  0
  189.4210  177.9700  148.3380 C   0  0  0  0  0  2  0  0  0  0  0  0
  191.0800  177.2920  143.9230 C   0  0  0  0  0  2  0  0  0  0  0  0
  189.7960  176.6050  143.5730 C   0  0  0  0  0  3  0  0  0  0  0  0
  187.9300  177.8320  147.9980 C   0  0  0  0  0  2  0  0  0  0  0  0
  188.7290  176.7510  144.3660 C   0  0  0  0  0  3  0  0  0  0  0  0
  190.2040  177.1250  147.5350 O   0  0  0  0  0  0  0  0  0  0  0  0
  187.7050  177.2210  146.6080 C   0  0  1  0  0  3  0  0  0  0  0  0
  182.1040  179.4650  138.3110 N   0  0  0  0  0  2  0  0  0  0  0  0
  181.3560  180.5870  138.8660 C   0  0  2  0  0  3  0  0  0  0  0  0
  180.5640  180.1410  139.9280 O   0  0  0  0  0  1  0  0  0  0  0  0
  180.4920  181.2800  137.8010 C   0  0  2  0  0  0  0  0  0  0  0  0
  179.1940  180.8020  137.8610 F   0  0  0  0  0  0  0  0  0  0  0  0
  181.0110  180.9790  136.5410 O   0  0  0  0  0  1  0  0  0  0  0  0
  181.1260  183.4260  136.8980 O   0  0  0  0  0  1  0  0  0  0  0  0
  180.4840  182.7990  137.9680 C   0  0  0  0  0  2  0  0  0  0  0  0
  1 21  1  0  0  0  0
  2  1  2  0  0  0  0
  3  2  1  0  0  0  0
  4  3  2  0  0  0  0
  4  6  1  0  0  0  0
  5  1  1  0  0  0  0
  6  5  2  0  0  0  0
  7 19  1  6  0  0  0
  9  7  1  0  0  0  0
  9  3  1  1  0  0  0
 10 15  1  0  0  0  0
 10 12  1  0  0  0  0
 11 17  1  0  0  0  0
 12  8  1  1  0  0  0
 12 16  1  0  0  0  0
 13 16  1  0  0  0  0
 13  9  1  0  0  0  0
 14 13  2  0  0  0  0
 15 11  2  0  0  0  0
 16 11  1  6  0  0  0
 17  7  1  0  0  0  0
 19 18  1  0  0  0  0
 20 19  1  0  0  0  0
 21 22  1  6  0  0  0
 21 23  1  0  0  0  0
 23 25  1  1  0  0  0
 23 26  1  0  0  0  0
 25 24  1  0  0  0  0
 26 27  1  0  0  0  0
 27 28  1  0  0  0  0
 29 28  1  0  0  0  0
 31 30  1  6  0  0  0
 31 38  1  0  0  0  0
 32 37  1  6  0  0  0
 32 31  1  0  0  0  0
 32 39  1  0  0  0  0
 34 30  1  0  0  0  0
 35 34  1  0  0  0  0
 35 37  2  0  0  0  0
 36 33  1  0  0  0  0
 38 33  1  0  0  0  0
 39 29  1  6  0  0  0
 39 36  1  0  0  0  0
 40  6  1  0  0  0  0
 40 41  1  0  0  0  0
 41 42  1  1  0  0  0
 43 45  1  6  0  0  0
 43 44  1  0  0  0  0
 43 47  1  0  0  0  0
 43 41  1  0  0  0  0
 46 47  1  0  0  0  0
M  END
>  <MODEL>
7

>  <REMARK>
 VINA RESULT:      -7.7      3.612      7.718
  Name = 
  14 active torsions:
  status: ('A' for Active; 'I' for Inactive)
    1  A    between atoms: C_1  and  C_32
    2  A    between atoms: C_1  and  C_39
    3  A    between atoms: C_2  and  C_28
    4  A    between atoms: C_4  and  C_18
    5  A    between atoms: C_6  and  C_33
    6  A    between atoms: C_6  and  C_44
    7  A    between atoms: C_7  and  C_16
    8  A    between atoms: O_8  and  C_10
    9  A    between atoms: O_8  and  C_39
   10  A    between atoms: C_10  and  C_42
   11  A    between atoms: C_18  and  C_32
   12  A    between atoms: C_32  and  C_36
   13  A    between atoms: C_33  and  N_34
   14  A    between atoms: N_34  and  C_38
                            x       y       z     vdW  Elec       q    Type
                         _______ _______ _______ _____ _____    ______ ____

>  <TORSDO>
F 14

$$$$
=
 OpenBabel10222415233D

 47 51  0  0  1  0  0  0  0  0999 V2000
  181.9340  178.6230  140.9370 C   0  0  0  0  0  0  0  0  0  0  0  0
  182.2970  177.7380  139.9680 N   0  0  0  0  0  0  0  0  0  0  0  0
  182.0590  177.9800  138.6490 C   0  0  0  0  0  0  0  0  0  0  0  0
  181.4250  179.1620  138.2610 C   0  0  0  0  0  3  0  0  0  0  0  0
  181.2980  179.8150  140.5840 C   0  0  0  0  0  3  0  0  0  0  0  0
  181.0460  180.0900  139.2340 C   0  0  0  0  0  0  0  0  0  0  0  0
  183.9020  176.4790  137.8630 C   0  0  1  0  0  3  0  0  0  0  0  0
  180.4290  172.4280  137.9690 C   0  0  0  0  0  1  0  0  0  0  0  0
  182.4530  176.9740  137.6120 C   0  0  1  0  0  3  0  0  0  0  0  0
  182.0680  172.6450  136.1890 N   0  0  0  0  0  2  0  0  0  0  0  0
  183.2180  174.2980  137.0320 C   0  0  0  0  0  0  0  0  0  0  0  0
  181.0840  173.3690  136.9810 C   0  0  2  0  0  3  0  0  0  0  0  0
  181.4450  175.8350  137.5650 C   0  0  0  0  0  0  0  0  0  0  0  0
  180.2570  176.0760  137.4180 O   0  0  0  0  0  0  0  0  0  0  0  0
  183.2950  173.3060  136.2220 N   0  0  0  0  0  0  0  0  0  0  0  0
  181.9150  174.4140  137.7300 C   0  0  2  0  0  3  0  0  0  0  0  0
  184.1900  175.2890  137.1270 O   0  0  0  0  0  0  0  0  0  0  0  0
  185.0100  178.4620  138.5730 F   0  0  0  0  0  0  0  0  0  0  0  0
  184.9220  177.5610  137.5290 C   0  0  0  0  0  3  0  0  0  0  0  0
  186.1640  176.9990  137.2930 F   0  0  0  0  0  0  0  0  0  0  0  0
  182.1980  178.3250  142.3780 C   0  0  2  0  0  3  0  0  0  0  0  0
  180.9870  178.6670  143.2350 C   0  0  0  0  0  1  0  0  0  0  0  0
  183.4960  178.9870  142.8600 C   0  0  2  0  0  3  0  0  0  0  0  0
  185.3740  179.3780  141.3950 O   0  0  0  0  0  1  0  0  0  0  0  0
  184.7250  178.4070  142.1610 C   0  0  0  0  0  2  0  0  0  0  0  0
  183.6460  178.9950  144.3810 C   0  0  0  0  0  2  0  0  0  0  0  0
  184.8580  179.8100  144.7900 C   0  0  0  0  0  2  0  0  0  0  0  0
  185.3080  179.3850  146.0390 O   0  0  0  0  0  0  0  0  0  0  0  0
  185.4280  177.9990  145.9140 C   0  0  0  0  0  2  0  0  0  0  0  0
  190.3000  176.8240  144.9400 C   0  0  0  0  0  2  0  0  0  0  0  0
  189.3160  177.6340  145.7970 C   0  0  1  0  0  3  0  0  0  0  0  0
  187.8580  177.7040  145.2400 C   0  0  1  0  0  3  0  0  0  0  0  0
  188.7390  178.1670  147.8960 C   0  0  0  0  0  2  0  0  0  0  0  0
  189.9530  176.9290  143.4590 C   0  0  0  0  0  2  0  0  0  0  0  0
  188.5670  176.4010  143.2530 C   0  0  0  0  0  3  0  0  0  0  0  0
  187.2210  178.2110  147.6660 C   0  0  0  0  0  2  0  0  0  0  0  0
  187.5920  176.7530  144.0980 C   0  0  0  0  0  3  0  0  0  0  0  0
  189.3400  177.1630  147.1210 O   0  0  0  0  0  0  0  0  0  0  0  0
  186.8120  177.5320  146.3520 C   0  0  1  0  0  3  0  0  0  0  0  0
  180.3900  181.2950  138.8300 N   0  0  0  0  0  2  0  0  0  0  0  0
  180.9410  182.2220  137.8490 C   0  0  2  0  0  3  0  0  0  0  0  0
  182.1250  182.7750  138.3430 O   0  0  0  0  0  1  0  0  0  0  0  0
  179.9380  183.3290  137.4840 C   0  0  2  0  0  0  0  0  0  0  0  0
  178.9340  183.3880  138.4350 F   0  0  0  0  0  0  0  0  0  0  0  0
  179.3590  183.0180  136.2540 O   0  0  0  0  0  1  0  0  0  0  0  0
  181.4050  184.7700  136.2230 O   0  0  0  0  0  1  0  0  0  0  0  0
  180.6120  184.6960  137.3690 C   0  0  0  0  0  2  0  0  0  0  0  0
  1 21  1  0  0  0  0
  2  1  2  0  0  0  0
  3  2  1  0  0  0  0
  4  3  2  0  0  0  0
  4  6  1  0  0  0  0
  5  1  1  0  0  0  0
  6  5  2  0  0  0  0
  7 19  1  6  0  0  0
  9  7  1  0  0  0  0
  9  3  1  1  0  0  0
 10 15  1  0  0  0  0
 10 12  1  0  0  0  0
 11 17  1  0  0  0  0
 12 16  1  0  0  0  0
 12  8  1  1  0  0  0
 13  9  1  0  0  0  0
 13 16  1  0  0  0  0
 14 13  2  0  0  0  0
 15 11  2  0  0  0  0
 16 11  1  6  0  0  0
 17  7  1  0  0  0  0
 19 18  1  0  0  0  0
 20 19  1  0  0  0  0
 21 23  1  0  0  0  0
 21 22  1  1  0  0  0
 23 25  1  6  0  0  0
 23 26  1  0  0  0  0
 24 25  1  0  0  0  0
 26 27  1  0  0  0  0
 27 28  1  0  0  0  0
 29 28  1  0  0  0  0
 31 30  1  6  0  0  0
 31 38  1  0  0  0  0
 32 37  1  6  0  0  0
 32 31  1  0  0  0  0
 32 39  1  0  0  0  0
 34 30  1  0  0  0  0
 35 34  1  0  0  0  0
 35 37  2  0  0  0  0
 36 33  1  0  0  0  0
 38 33  1  0  0  0  0
 39 29  1  6  0  0  0
 39 36  1  0  0  0  0
 40  6  1  0  0  0  0
 41 42  1  1  0  0  0
 41 40  1  0  0  0  0
 43 45  1  6  0  0  0
 43 41  1  0  0  0  0
 43 44  1  0  0  0  0
 46 47  1  0  0  0  0
 47 43  1  0  0  0  0
M  END
>  <MODEL>
8

>  <REMARK>
 VINA RESULT:      -7.6      4.875      8.518
  Name = 
  14 active torsions:
  status: ('A' for Active; 'I' for Inactive)
    1  A    between atoms: C_1  and  C_32
    2  A    between atoms: C_1  and  C_39
    3  A    between atoms: C_2  and  C_28
    4  A    between atoms: C_4  and  C_18
    5  A    between atoms: C_6  and  C_33
    6  A    between atoms: C_6  and  C_44
    7  A    between atoms: C_7  and  C_16
    8  A    between atoms: O_8  and  C_10
    9  A    between atoms: O_8  and  C_39
   10  A    between atoms: C_10  and  C_42
   11  A    between atoms: C_18  and  C_32
   12  A    between atoms: C_32  and  C_36
   13  A    between atoms: C_33  and  N_34
   14  A    between atoms: N_34  and  C_38
                            x       y       z     vdW  Elec       q    Type
                         _______ _______ _______ _____ _____    ______ ____

>  <TORSDO>
F 14

$$$$
=
 OpenBabel10222415233D

 47 51  0  0  1  0  0  0  0  0999 V2000
  180.7840  179.4310  140.2160 C   0  0  0  0  0  0  0  0  0  0  0  0
  181.8080  178.5430  140.0950 N   0  0  0  0  0  0  0  0  0  0  0  0
  182.5620  178.4690  138.9630 C   0  0  0  0  0  0  0  0  0  0  0  0
  182.2910  179.3170  137.8870 C   0  0  0  0  0  3  0  0  0  0  0  0
  180.4850  180.2960  139.1600 C   0  0  0  0  0  3  0  0  0  0  0  0
  181.2490  180.2420  137.9870 C   0  0  0  0  0  0  0  0  0  0  0  0
  183.3660  176.4490  137.7210 C   0  0  1  0  0  3  0  0  0  0  0  0
  187.9630  179.0170  136.8480 C   0  0  0  0  0  1  0  0  0  0  0  0
  183.6680  177.4640  138.8550 C   0  0  1  0  0  3  0  0  0  0  0  0
  187.9180  176.6450  137.3770 N   0  0  0  0  0  2  0  0  0  0  0  0
  185.7560  176.3530  137.2790 C   0  0  0  0  0  0  0  0  0  0  0  0
  187.3850  177.9480  137.7510 C   0  0  2  0  0  3  0  0  0  0  0  0
  185.0070  178.1640  138.6750 C   0  0  0  0  0  0  0  0  0  0  0  0
  185.3590  179.0230  139.4680 O   0  0  0  0  0  0  0  0  0  0  0  0
  186.8780  175.7380  137.1790 N   0  0  0  0  0  0  0  0  0  0  0  0
  185.8800  177.8140  137.5000 C   0  0  2  0  0  3  0  0  0  0  0  0
  184.5290  175.7020  137.3560 O   0  0  0  0  0  0  0  0  0  0  0  0
  181.1000  175.8050  137.3860 F   0  0  0  0  0  0  0  0  0  0  0  0
  182.2370  175.5040  138.1110 C   0  0  0  0  0  3  0  0  0  0  0  0
  182.6040  174.1900  137.8770 F   0  0  0  0  0  0  0  0  0  0  0  0
  179.9660  179.4830  141.4670 C   0  0  2  0  0  3  0  0  0  0  0  0
  179.4500  180.8930  141.7210 C   0  0  0  0  0  1  0  0  0  0  0  0
  180.7240  178.8850  142.6600 C   0  0  2  0  0  3  0  0  0  0  0  0
  179.6490  176.9740  143.6690 O   0  0  0  0  0  1  0  0  0  0  0  0
  179.7720  178.3630  143.7360 C   0  0  0  0  0  2  0  0  0  0  0  0
  181.7890  179.8190  143.2340 C   0  0  0  0  0  2  0  0  0  0  0  0
  182.9930  179.0240  143.7040 C   0  0  0  0  0  2  0  0  0  0  0  0
  184.0790  179.2840  142.8690 O   0  0  0  0  0  0  0  0  0  0  0  0
  184.7780  178.0750  142.8190 C   0  0  0  0  0  2  0  0  0  0  0  0
  188.6480  177.8410  146.1390 C   0  0  0  0  0  2  0  0  0  0  0  0
  188.1240  177.4750  144.7420 C   0  0  1  0  0  3  0  0  0  0  0  0
  186.5830  177.6440  144.5500 C   0  0  1  0  0  3  0  0  0  0  0  0
  188.5900  177.5230  142.5500 C   0  0  0  0  0  2  0  0  0  0  0  0
  187.6130  177.5280  147.2130 C   0  0  0  0  0  2  0  0  0  0  0  0
  186.3730  178.3190  146.9270 C   0  0  0  0  0  3  0  0  0  0  0  0
  187.1600  177.7960  142.0620 C   0  0  0  0  0  2  0  0  0  0  0  0
  185.9020  178.3840  145.6770 C   0  0  0  0  0  3  0  0  0  0  0  0
  188.8460  178.1810  143.7640 O   0  0  0  0  0  0  0  0  0  0  0  0
  186.2410  178.2780  143.1930 C   0  0  1  0  0  3  0  0  0  0  0  0
  180.9710  181.1020  136.8800 N   0  0  0  0  0  2  0  0  0  0  0  0
  179.8420  182.0240  136.8400 C   0  0  2  0  0  3  0  0  0  0  0  0
  179.3390  182.0900  135.5380 O   0  0  0  0  0  1  0  0  0  0  0  0
  180.2310  183.4240  137.3410 C   0  0  2  0  0  0  0  0  0  0  0  0
  181.5620  183.4380  137.7190 F   0  0  0  0  0  0  0  0  0  0  0  0
  179.4550  183.7290  138.4590 O   0  0  0  0  0  1  0  0  0  0  0  0
  181.1830  184.8440  135.6380 O   0  0  0  0  0  1  0  0  0  0  0  0
  179.9920  184.4990  136.2800 C   0  0  0  0  0  2  0  0  0  0  0  0
  1 21  1  0  0  0  0
  2  1  1  0  0  0  0
  3  2  2  0  0  0  0
  4  6  2  0  0  0  0
  4  3  1  0  0  0  0
  5  1  2  0  0  0  0
  6  5  1  0  0  0  0
  7 19  1  1  0  0  0
  7  9  1  0  0  0  0
  9  3  1  6  0  0  0
 10 12  1  0  0  0  0
 11 17  1  0  0  0  0
 12  8  1  6  0  0  0
 13  9  1  0  0  0  0
 13 14  2  0  0  0  0
 15 11  2  0  0  0  0
 15 10  1  0  0  0  0
 16 11  1  1  0  0  0
 16 12  1  0  0  0  0
 16 13  1  0  0  0  0
 17  7  1  0  0  0  0
 18 19  1  0  0  0  0
 20 19  1  0  0  0  0
 21 22  1  1  0  0  0
 21 23  1  0  0  0  0
 23 26  1  1  0  0  0
 23 25  1  0  0  0  0
 24 25  1  0  0  0  0
 26 27  1  0  0  0  0
 28 27  1  0  0  0  0
 29 28  1  0  0  0  0
 30 34  1  0  0  0  0
 31 30  1  1  0  0  0
 32 31  1  0  0  0  0
 32 37  1  1  0  0  0
 33 38  1  0  0  0  0
 35 34  1  0  0  0  0
 36 33  1  0  0  0  0
 36 39  1  0  0  0  0
 37 35  2  0  0  0  0
 38 31  1  0  0  0  0
 39 29  1  6  0  0  0
 39 32  1  0  0  0  0
 40  6  1  0  0  0  0
 41 42  1  6  0  0  0
 41 40  1  0  0  0  0
 41 43  1  0  0  0  0
 43 44  1  1  0  0  0
 43 45  1  0  0  0  0
 46 47  1  0  0  0  0
 47 43  1  0  0  0  0
M  END
>  <MODEL>
9

>  <REMARK>
 VINA RESULT:      -7.6      4.274      8.846
  Name = 
  14 active torsions:
  status: ('A' for Active; 'I' for Inactive)
    1  A    between atoms: C_1  and  C_32
    2  A    between atoms: C_1  and  C_39
    3  A    between atoms: C_2  and  C_28
    4  A    between atoms: C_4  and  C_18
    5  A    between atoms: C_6  and  C_33
    6  A    between atoms: C_6  and  C_44
    7  A    between atoms: C_7  and  C_16
    8  A    between atoms: O_8  and  C_10
    9  A    between atoms: O_8  and  C_39
   10  A    between atoms: C_10  and  C_42
   11  A    between atoms: C_18  and  C_32
   12  A    between atoms: C_32  and  C_36
   13  A    between atoms: C_33  and  N_34
   14  A    between atoms: N_34  and  C_38
                            x       y       z     vdW  Elec       q    Type
                         _______ _______ _______ _____ _____    ______ ____

>  <TORSDO>
F 14

$$$$
