=
 OpenBabel10222416373D

 32 36  0  0  1  0  0  0  0  0999 V2000
  186.7940  176.8620  144.5980 O   0  0  0  0  0  1  0  0  0  0  0  0
  188.3170  177.8140  139.2530 N   0  0  0  0  0  0  0  0  0  0  0  0
  188.2840  176.0070  137.5960 C   0  0  0  0  0  0  0  0  0  0  0  0
  191.8460  177.0850  140.2090 C   0  0  0  0  0  2  0  0  0  0  0  0
  187.8250  177.2390  143.7310 C   0  0  2  0  0  0  0  0  0  0  0  0
  189.0840  176.5210  143.8580 C   0  0  2  0  0  3  0  0  0  0  0  0
  188.9450  177.1860  141.4720 C   0  0  0  0  0  0  0  0  0  0  0  0
  189.2290  177.1870  140.1540 C   0  0  0  0  0  0  0  0  0  0  0  0
  188.9750  177.9100  144.3690 N   0  0  0  0  0  0  0  0  0  0  0  0
  191.2010  177.0410  142.5910 C   0  0  0  0  0  0  0  0  0  0  0  0
  188.9350  177.7790  146.1110 Cl  0  0  0  0  0  0  0  0  0  0  0  0
  190.5550  175.8860  138.5970 N   0  0  0  0  0  0  0  0  0  0  0  0
  187.9490  177.3620  138.0930 C   0  0  0  0  0  0  0  0  0  0  0  0
  191.7590  177.8920  141.4980 C   0  0  0  0  0  2  0  0  0  0  0  0
  190.5170  176.6750  139.6240 C   0  0  0  0  0  0  0  0  0  0  0  0
  189.4550  175.3880  137.8240 C   0  0  0  0  0  3  0  0  0  0  0  0
  189.7970  176.4930  142.5020 C   0  0  1  0  0  3  0  0  0  0  0  0
  187.4150  177.8780  142.0880 S   0  0  0  0  0  0  0  0  0  0  0  0
  191.9210  176.7270  143.5230 O   0  0  0  0  0  0  0  0  0  0  0  0
  186.9400  178.1600  137.3360 C   0  0  0  0  0  2  0  0  0  0  0  0
  186.1960  178.9440  138.2200 O   0  0  0  0  0  0  0  0  0  0  0  0
  184.9630  178.2970  138.3190 C   0  0  0  0  0  2  0  0  0  0  0  0
  184.2230  178.8210  140.5140 O   0  0  0  0  0  1  0  0  0  0  0  0
  184.0180  179.1220  139.1700 C   0  0  0  0  0  3  0  0  0  0  0  0
  184.2560  180.4800  138.9570 O   0  0  0  0  0  1  0  0  0  0  0  0
  187.3170  175.3710  136.8020 O   0  0  0  0  0  0  0  0  0  0  0  0
  186.6130  174.1940  137.1870 C   0  0  1  0  0  3  0  0  0  0  0  0
  185.1100  174.4610  137.1600 C   0  0  0  0  0  2  0  0  0  0  0  0
  184.6450  172.2270  136.1750 C   0  0  0  0  0  2  0  0  0  0  0  0
  187.0030  173.0370  136.2960 C   0  0  0  0  0  3  0  0  0  0  0  0
  184.3590  173.1510  137.3550 C   0  0  0  0  0  2  0  0  0  0  0  0
  186.1180  172.1200  135.8780 C   0  0  0  0  0  3  0  0  0  0  0  0
  2  8  1  0  0  0  0
  3 16  2  0  0  0  0
  3 13  1  0  0  0  0
  4 14  1  0  0  0  0
  5  6  1  0  0  0  0
  5  9  1  0  0  0  0
  5  1  1  1  0  0  0
  6  9  1  1  0  0  0
  7 18  1  0  0  0  0
  8  7  2  0  0  0  0
  9 11  1  0  0  0  0
 10 19  2  0  0  0  0
 12 15  2  0  0  0  0
 13  2  2  0  0  0  0
 14 10  1  0  0  0  0
 15  8  1  0  0  0  0
 15  4  1  0  0  0  0
 16 12  1  0  0  0  0
 17  7  1  6  0  0  0
 17 10  1  0  0  0  0
 17  6  1  0  0  0  0
 18  5  1  0  0  0  0
 20 13  1  0  0  0  0
 20 21  1  0  0  0  0
 21 22  1  0  0  0  0
 22 24  1  0  0  0  0
 24 23  1  0  0  0  0
 25 24  1  0  0  0  0
 26  3  1  0  0  0  0
 27 26  1  6  0  0  0
 28 27  1  0  0  0  0
 28 31  1  0  0  0  0
 29 31  1  0  0  0  0
 30 27  1  0  0  0  0
 32 29  1  0  0  0  0
 32 30  2  0  0  0  0
M  END
>  <MODEL>
1

>  <REMARK>
 VINA RESULT:      -7.8      0.000      0.000
  Name = 
  6 active torsions:
  status: ('A' for Active; 'I' for Inactive)
    1  A    between atoms: C_2  and  O_28
    2  A    between atoms: C_3  and  O_14
    3  A    between atoms: C_3  and  C_23
    4  A    between atoms: C_5  and  O_28
    5  A    between atoms: O_14  and  C_16
    6  A    between atoms: C_16  and  C_24
                            x       y       z     vdW  Elec       q    Type
                         _______ _______ _______ _____ _____    ______ ____

>  <TORSDO>
F 6

$$$$
=
 OpenBabel10222416373D

 32 36  0  0  1  0  0  0  0  0999 V2000
  182.1120  174.7180  137.7010 O   0  0  0  0  0  1  0  0  0  0  0  0
  184.5480  178.6590  140.9150 N   0  0  0  0  0  0  0  0  0  0  0  0
  185.2970  178.1390  143.1900 C   0  0  0  0  0  0  0  0  0  0  0  0
  181.1620  179.6810  142.0950 C   0  0  0  0  0  2  0  0  0  0  0  0
  181.9610  175.9480  138.3490 C   0  0  2  0  0  0  0  0  0  0  0  0
  180.8050  176.0910  139.2210 C   0  0  2  0  0  3  0  0  0  0  0  0
  182.5500  177.5620  140.1950 C   0  0  2  0  0  3  0  0  0  0  0  0
  183.1760  178.3200  141.1170 C   0  0  0  0  0  0  0  0  0  0  0  0
  180.8150  176.7640  137.8990 N   0  0  0  0  0  0  0  0  0  0  0  0
  180.1200  178.2070  140.4100 C   0  0  0  0  0  0  0  0  0  0  0  0
  179.7120  175.8580  136.8910 Cl  0  0  0  0  0  0  0  0  0  0  0  0
  182.9370  178.8620  143.4670 N   0  0  0  0  0  0  0  0  0  0  0  0
  185.4790  178.6680  141.8170 C   0  0  1  0  0  3  0  0  0  0  0  0
  180.5540  179.6060  140.7000 C   0  0  0  0  0  2  0  0  0  0  0  0
  182.4550  178.9220  142.2650 C   0  0  0  0  0  0  0  0  0  0  0  0
  184.1620  178.2560  143.8990 C   0  0  0  0  0  3  0  0  0  0  0  0
  181.1290  177.0850  140.3420 C   0  0  1  0  0  3  0  0  0  0  0  0
  183.4300  176.9120  138.7810 S   0  0  0  0  0  0  0  0  0  0  0  0
  178.9310  177.9650  140.3080 O   0  0  0  0  0  0  0  0  0  0  0  0
  186.8630  179.0070  141.3710 C   0  0  0  0  0  2  0  0  0  0  0  0
  187.0360  178.6290  140.0380 O   0  0  0  0  0  0  0  0  0  0  0  0
  188.3530  178.1720  139.9660 C   0  0  0  0  0  2  0  0  0  0  0  0
  187.8430  177.3690  137.7890 O   0  0  0  0  0  1  0  0  0  0  0  0
  188.7880  178.0900  138.5160 C   0  0  0  0  0  3  0  0  0  0  0  0
  188.9000  179.3740  137.9840 O   0  0  0  0  0  1  0  0  0  0  0  0
  186.4110  177.5200  143.7780 O   0  0  0  0  0  0  0  0  0  0  0  0
  187.1300  178.0520  144.8870 C   0  0  1  0  0  3  0  0  0  0  0  0
  186.5510  177.4990  146.1870 C   0  0  0  0  0  2  0  0  0  0  0  0
  188.8140  177.2250  147.1780 C   0  0  0  0  0  2  0  0  0  0  0  0
  188.6050  177.7520  144.7470 C   0  0  0  0  0  3  0  0  0  0  0  0
  187.4520  177.8920  147.3500 C   0  0  0  0  0  2  0  0  0  0  0  0
  189.3760  177.4250  145.7940 C   0  0  0  0  0  3  0  0  0  0  0  0
  2  8  2  0  0  0  0
  2 13  1  0  0  0  0
  3 26  1  0  0  0  0
  3 16  2  0  0  0  0
  4 15  1  0  0  0  0
  5  1  1  6  0  0  0
  5 18  1  0  0  0  0
  5  6  1  0  0  0  0
  6  9  1  6  0  0  0
  6 17  1  0  0  0  0
  7 18  1  1  0  0  0
  7 17  1  0  0  0  0
  7  8  1  0  0  0  0
  8 15  1  0  0  0  0
  9  5  1  0  0  0  0
 10 14  1  0  0  0  0
 11  9  1  0  0  0  0
 12 16  1  0  0  0  0
 13 20  1  6  0  0  0
 13  3  1  0  0  0  0
 14  4  1  0  0  0  0
 15 12  2  0  0  0  0
 17 10  1  6  0  0  0
 19 10  2  0  0  0  0
 21 20  1  0  0  0  0
 22 21  1  0  0  0  0
 23 24  1  0  0  0  0
 24 22  1  0  0  0  0
 25 24  1  0  0  0  0
 27 26  1  6  0  0  0
 27 28  1  0  0  0  0
 28 31  1  0  0  0  0
 29 31  1  0  0  0  0
 30 27  1  0  0  0  0
 30 32  2  0  0  0  0
 32 29  1  0  0  0  0
M  END
>  <MODEL>
2

>  <REMARK>
 VINA RESULT:      -7.3      4.359      8.743
  Name = 
  6 active torsions:
  status: ('A' for Active; 'I' for Inactive)
    1  A    between atoms: C_2  and  O_28
    2  A    between atoms: C_3  and  O_14
    3  A    between atoms: C_3  and  C_23
    4  A    between atoms: C_5  and  O_28
    5  A    between atoms: O_14  and  C_16
    6  A    between atoms: C_16  and  C_24
                            x       y       z     vdW  Elec       q    Type
                         _______ _______ _______ _____ _____    ______ ____

>  <TORSDO>
F 6

$$$$
=
 OpenBabel10222416373D

 32 36  0  0  1  0  0  0  0  0999 V2000
  184.5440  177.8760  143.1000 O   0  0  0  0  0  1  0  0  0  0  0  0
  188.9690  178.5550  139.6710 N   0  0  0  0  0  0  0  0  0  0  0  0
  189.7400  176.7230  138.2360 C   0  0  0  0  0  0  0  0  0  0  0  0
  191.2010  177.5120  142.4700 C   0  0  0  0  0  2  0  0  0  0  0  0
  185.9160  178.1320  143.0070 C   0  0  2  0  0  0  0  0  0  0  0  0
  186.7940  177.3000  143.8140 C   0  0  2  0  0  3  0  0  0  0  0  0
  188.1300  177.9200  141.8170 C   0  0  0  0  0  0  0  0  0  0  0  0
  189.1250  177.8640  140.9110 C   0  0  0  0  0  0  0  0  0  0  0  0
  186.5370  178.7040  144.2190 N   0  0  0  0  0  0  0  0  0  0  0  0
  189.2910  177.5840  144.0320 C   0  0  0  0  0  0  0  0  0  0  0  0
  185.4800  178.6160  145.6080 Cl  0  0  0  0  0  0  0  0  0  0  0  0
  190.9830  176.4060  140.3640 N   0  0  0  0  0  0  0  0  0  0  0  0
  189.3030  178.1160  138.4970 C   0  0  0  0  0  0  0  0  0  0  0  0
  190.4550  178.3520  143.4980 C   0  0  0  0  0  2  0  0  0  0  0  0
  190.4280  177.2190  141.2070 C   0  0  0  0  0  0  0  0  0  0  0  0
  190.4970  176.0000  139.0770 C   0  0  0  0  0  3  0  0  0  0  0  0
  188.1570  177.1720  143.1240 C   0  0  1  0  0  3  0  0  0  0  0  0
  186.5980  178.7700  141.4570 S   0  0  0  0  0  0  0  0  0  0  0  0
  189.3030  177.2230  145.1950 O   0  0  0  0  0  0  0  0  0  0  0  0
  189.0010  178.9900  137.3260 C   0  0  0  0  0  2  0  0  0  0  0  0
  187.6680  179.4020  137.3750 O   0  0  0  0  0  0  0  0  0  0  0  0
  186.9680  178.4300  136.6570 C   0  0  0  0  0  2  0  0  0  0  0  0
  185.2800  178.8630  138.2700 O   0  0  0  0  0  1  0  0  0  0  0  0
  185.8680  177.8470  137.5210 C   0  0  0  0  0  3  0  0  0  0  0  0
  184.9010  177.2490  136.7130 O   0  0  0  0  0  1  0  0  0  0  0  0
  189.3600  176.1660  137.0050 O   0  0  0  0  0  0  0  0  0  0  0  0
  189.0850  174.7830  136.8030 C   0  0  1  0  0  3  0  0  0  0  0  0
  187.6060  174.5100  137.0630 C   0  0  0  0  0  2  0  0  0  0  0  0
  187.4660  172.9560  135.1280 C   0  0  0  0  0  2  0  0  0  0  0  0
  189.5070  174.3640  135.4130 C   0  0  0  0  0  3  0  0  0  0  0  0
  187.2710  173.0870  136.6360 C   0  0  0  0  0  2  0  0  0  0  0  0
  188.7970  173.4980  134.6750 C   0  0  0  0  0  3  0  0  0  0  0  0
  2  8  1  0  0  0  0
  3 13  1  0  0  0  0
  3 16  2  0  0  0  0
  4 14  1  0  0  0  0
  5  1  1  1  0  0  0
  5  6  1  0  0  0  0
  5  9  1  0  0  0  0
  6  9  1  1  0  0  0
  8 15  1  0  0  0  0
  8  7  2  0  0  0  0
  9 11  1  0  0  0  0
 10 19  2  0  0  0  0
 12 15  2  0  0  0  0
 13  2  2  0  0  0  0
 14 10  1  0  0  0  0
 15  4  1  0  0  0  0
 16 12  1  0  0  0  0
 17  7  1  6  0  0  0
 17  6  1  0  0  0  0
 17 10  1  0  0  0  0
 18  7  1  0  0  0  0
 18  5  1  0  0  0  0
 20 21  1  0  0  0  0
 20 13  1  0  0  0  0
 22 21  1  0  0  0  0
 22 24  1  0  0  0  0
 24 23  1  0  0  0  0
 25 24  1  0  0  0  0
 26  3  1  0  0  0  0
 27 26  1  6  0  0  0
 27 28  1  0  0  0  0
 29 31  1  0  0  0  0
 30 27  1  0  0  0  0
 31 28  1  0  0  0  0
 32 29  1  0  0  0  0
 32 30  2  0  0  0  0
M  END
>  <MODEL>
3

>  <REMARK>
 VINA RESULT:      -7.3      1.890      2.439
  Name = 
  6 active torsions:
  status: ('A' for Active; 'I' for Inactive)
    1  A    between atoms: C_2  and  O_28
    2  A    between atoms: C_3  and  O_14
    3  A    between atoms: C_3  and  C_23
    4  A    between atoms: C_5  and  O_28
    5  A    between atoms: O_14  and  C_16
    6  A    between atoms: C_16  and  C_24
                            x       y       z     vdW  Elec       q    Type
                         _______ _______ _______ _____ _____    ______ ____

>  <TORSDO>
F 6

$$$$
=
 OpenBabel10222416373D

 32 36  0  0  1  0  0  0  0  0999 V2000
  184.2290  177.8810  143.0010 O   0  0  0  0  0  1  0  0  0  0  0  0
  188.8620  178.6350  139.8760 N   0  0  0  0  0  0  0  0  0  0  0  0
  189.8100  176.7910  138.5690 C   0  0  0  0  0  0  0  0  0  0  0  0
  190.9230  177.7850  142.8640 C   0  0  0  0  0  2  0  0  0  0  0  0
  185.5920  178.1930  142.9970 C   0  0  2  0  0  0  0  0  0  0  0  0
  186.4430  177.4270  143.8950 C   0  0  2  0  0  3  0  0  0  0  0  0
  187.8950  178.0370  141.9780 C   0  0  0  0  0  0  0  0  0  0  0  0
  188.9550  177.9940  141.1480 C   0  0  0  0  0  0  0  0  0  0  0  0
  186.0990  178.8310  144.2290 N   0  0  0  0  0  0  0  0  0  0  0  0
  188.9030  177.8270  144.2810 C   0  0  0  0  0  0  0  0  0  0  0  0
  184.9470  178.7450  145.5410 Cl  0  0  0  0  0  0  0  0  0  0  0  0
  190.9060  176.6010  140.7900 N   0  0  0  0  0  0  0  0  0  0  0  0
  189.3000  178.1720  138.7470 C   0  0  0  0  0  0  0  0  0  0  0  0
  190.0700  178.6270  143.8050 C   0  0  0  0  0  2  0  0  0  0  0  0
  190.2580  177.4160  141.5610 C   0  0  0  0  0  0  0  0  0  0  0  0
  190.5330  176.1300  139.4880 C   0  0  0  0  0  3  0  0  0  0  0  0
  187.8560  177.3350  143.3100 C   0  0  1  0  0  3  0  0  0  0  0  0
  186.3600  178.8070  141.4780 S   0  0  0  0  0  0  0  0  0  0  0  0
  188.8440  177.5060  145.4560 O   0  0  0  0  0  0  0  0  0  0  0  0
  189.0480  178.9920  137.5250 C   0  0  0  0  0  2  0  0  0  0  0  0
  187.6780  179.2200  137.3820 O   0  0  0  0  0  0  0  0  0  0  0  0
  187.2850  178.3790  136.3390 C   0  0  0  0  0  2  0  0  0  0  0  0
  186.3510  176.2350  136.7560 O   0  0  0  0  0  1  0  0  0  0  0  0
  186.0530  177.5960  136.7490 C   0  0  0  0  0  3  0  0  0  0  0  0
  185.6490  177.9880  138.0250 O   0  0  0  0  0  1  0  0  0  0  0  0
  189.5460  176.1770  137.3350 O   0  0  0  0  0  0  0  0  0  0  0  0
  190.5510  175.6920  136.4500 C   0  0  1  0  0  3  0  0  0  0  0  0
  191.8800  176.3760  136.7580 C   0  0  0  0  0  2  0  0  0  0  0  0
  193.1420  174.2590  136.4380 C   0  0  0  0  0  2  0  0  0  0  0  0
  190.6500  174.1870  136.5450 C   0  0  0  0  0  3  0  0  0  0  0  0
  192.9930  175.7030  135.9660 C   0  0  0  0  0  2  0  0  0  0  0  0
  191.8210  173.5370  136.4910 C   0  0  0  0  0  3  0  0  0  0  0  0
  2  8  1  0  0  0  0
  3 13  1  0  0  0  0
  3 16  2  0  0  0  0
  4 14  1  0  0  0  0
  5  1  1  6  0  0  0
  5  6  1  0  0  0  0
  5  9  1  0  0  0  0
  6  9  1  1  0  0  0
  8 15  1  0  0  0  0
  8  7  2  0  0  0  0
  9 11  1  0  0  0  0
 10 19  2  0  0  0  0
 12 15  2  0  0  0  0
 13  2  2  0  0  0  0
 14 10  1  0  0  0  0
 15  4  1  0  0  0  0
 16 12  1  0  0  0  0
 17  7  1  6  0  0  0
 17  6  1  0  0  0  0
 17 10  1  0  0  0  0
 18  7  1  0  0  0  0
 18  5  1  0  0  0  0
 20 13  1  0  0  0  0
 21 20  1  0  0  0  0
 22 24  1  0  0  0  0
 22 21  1  0  0  0  0
 24 23  1  0  0  0  0
 24 25  1  0  0  0  0
 26  3  1  0  0  0  0
 27 30  1  0  0  0  0
 27 28  1  0  0  0  0
 27 26  1  1  0  0  0
 29 32  1  0  0  0  0
 31 29  1  0  0  0  0
 31 28  1  0  0  0  0
 32 30  2  0  0  0  0
M  END
>  <MODEL>
4

>  <REMARK>
 VINA RESULT:      -7.2      2.686      3.837
  Name = 
  6 active torsions:
  status: ('A' for Active; 'I' for Inactive)
    1  A    between atoms: C_2  and  O_28
    2  A    between atoms: C_3  and  O_14
    3  A    between atoms: C_3  and  C_23
    4  A    between atoms: C_5  and  O_28
    5  A    between atoms: O_14  and  C_16
    6  A    between atoms: C_16  and  C_24
                            x       y       z     vdW  Elec       q    Type
                         _______ _______ _______ _____ _____    ______ ____

>  <TORSDO>
F 6

$$$$
=
 OpenBabel10222416373D

 32 36  0  0  1  0  0  0  0  0999 V2000
  186.7150  178.7820  141.4800 O   0  0  0  0  0  1  0  0  0  0  0  0
  181.2380  178.4750  140.1770 N   0  0  0  0  0  0  0  0  0  0  0  0
  180.0170  180.4540  139.4010 C   0  0  0  0  0  0  0  0  0  0  0  0
  180.4270  179.1790  143.7470 C   0  0  0  0  0  2  0  0  0  0  0  0
  185.4210  178.5310  141.9450 C   0  0  2  0  0  0  0  0  0  0  0  0
  184.9960  179.2610  143.1300 C   0  0  2  0  0  3  0  0  0  0  0  0
  182.9230  178.8650  141.8260 C   0  0  0  0  0  0  0  0  0  0  0  0
  181.6430  179.0190  141.4330 C   0  0  0  0  0  0  0  0  0  0  0  0
  185.3390  177.8210  143.2380 N   0  0  0  0  0  0  0  0  0  0  0  0
  182.8100  178.9390  144.3450 C   0  0  0  0  0  0  0  0  0  0  0  0
  186.8820  177.7550  144.0550 Cl  0  0  0  0  0  0  0  0  0  0  0  0
  179.7920  180.5190  141.8750 N   0  0  0  0  0  0  0  0  0  0  0  0
  180.4620  179.0440  139.3060 C   0  0  0  0  0  0  0  0  0  0  0  0
  181.4970  178.2300  144.2710 C   0  0  0  0  0  2  0  0  0  0  0  0
  180.6130  179.6180  142.3160 C   0  0  0  0  0  0  0  0  0  0  0  0
  179.7120  181.0720  140.5550 C   0  0  0  0  0  3  0  0  0  0  0  0
  183.4770  179.4590  143.0940 C   0  0  1  0  0  3  0  0  0  0  0  0
  184.1260  178.0710  140.7670 S   0  0  0  0  0  0  0  0  0  0  0  0
  183.3010  179.1640  145.4370 O   0  0  0  0  0  0  0  0  0  0  0  0
  180.2100  178.3110  138.0300 C   0  0  0  0  0  2  0  0  0  0  0  0
  181.2680  177.4390  137.7680 O   0  0  0  0  0  0  0  0  0  0  0  0
  180.6600  176.2090  137.5090 C   0  0  0  0  0  2  0  0  0  0  0  0
  182.5230  175.4550  138.7740 O   0  0  0  0  0  1  0  0  0  0  0  0
  181.1980  175.1600  138.4610 C   0  0  0  0  0  3  0  0  0  0  0  0
  180.4370  175.1500  139.6300 O   0  0  0  0  0  1  0  0  0  0  0  0
  179.8710  181.1510  138.1920 O   0  0  0  0  0  0  0  0  0  0  0  0
  180.0460  182.5570  138.0520 C   0  0  1  0  0  3  0  0  0  0  0  0
  181.5160  182.8680  137.7810 C   0  0  0  0  0  2  0  0  0  0  0  0
  180.9270  184.6080  136.1060 C   0  0  0  0  0  2  0  0  0  0  0  0
  179.1400  183.0920  136.9660 C   0  0  0  0  0  3  0  0  0  0  0  0
  181.6640  184.3390  137.4150 C   0  0  0  0  0  2  0  0  0  0  0  0
  179.5260  184.0550  136.1160 C   0  0  0  0  0  3  0  0  0  0  0  0
  2  8  1  0  0  0  0
  3 16  2  0  0  0  0
  4 14  1  0  0  0  0
  5  1  1  6  0  0  0
  5  6  1  0  0  0  0
  5  9  1  0  0  0  0
  6  9  1  1  0  0  0
  8  7  2  0  0  0  0
  8 15  1  0  0  0  0
  9 11  1  0  0  0  0
 10 19  2  0  0  0  0
 12 15  2  0  0  0  0
 13  3  1  0  0  0  0
 13  2  2  0  0  0  0
 14 10  1  0  0  0  0
 15  4  1  0  0  0  0
 16 12  1  0  0  0  0
 17  7  1  6  0  0  0
 17  6  1  0  0  0  0
 17 10  1  0  0  0  0
 18  7  1  0  0  0  0
 18  5  1  0  0  0  0
 20 13  1  0  0  0  0
 21 20  1  0  0  0  0
 22 21  1  0  0  0  0
 22 24  1  0  0  0  0
 24 23  1  0  0  0  0
 24 25  1  0  0  0  0
 26  3  1  0  0  0  0
 27 26  1  6  0  0  0
 28 27  1  0  0  0  0
 29 32  1  0  0  0  0
 29 31  1  0  0  0  0
 30 27  1  0  0  0  0
 31 28  1  0  0  0  0
 32 30  2  0  0  0  0
M  END
>  <MODEL>
5

>  <REMARK>
 VINA RESULT:      -6.5      5.003      8.615
  Name = 
  6 active torsions:
  status: ('A' for Active; 'I' for Inactive)
    1  A    between atoms: C_2  and  O_28
    2  A    between atoms: C_3  and  O_14
    3  A    between atoms: C_3  and  C_23
    4  A    between atoms: C_5  and  O_28
    5  A    between atoms: O_14  and  C_16
    6  A    between atoms: C_16  and  C_24
                            x       y       z     vdW  Elec       q    Type
                         _______ _______ _______ _____ _____    ______ ____

>  <TORSDO>
F 6

$$$$
=
 OpenBabel10222416373D

 32 36  0  0  1  0  0  0  0  0999 V2000
  184.0700  173.8590  136.2390 O   0  0  0  0  0  1  0  0  0  0  0  0
  186.7400  178.2860  138.4900 N   0  0  0  0  0  0  0  0  0  0  0  0
  187.4370  178.2710  140.8400 C   0  0  0  0  0  0  0  0  0  0  0  0
  183.4220  179.7680  139.3200 C   0  0  0  0  0  2  0  0  0  0  0  0
  183.9960  175.2140  136.5760 C   0  0  2  0  0  0  0  0  0  0  0  0
  182.8470  175.6320  137.3640 C   0  0  2  0  0  3  0  0  0  0  0  0
  184.6790  177.1780  138.0040 C   0  0  2  0  0  3  0  0  0  0  0  0
  185.3470  178.0910  138.7350 C   0  0  0  0  0  0  0  0  0  0  0  0
  182.9110  175.9710  135.9200 N   0  0  0  0  0  0  0  0  0  0  0  0
  182.2960  178.0080  138.0060 C   0  0  0  0  0  0  0  0  0  0  0  0
  181.7570  174.9240  135.1290 Cl  0  0  0  0  0  0  0  0  0  0  0  0
  185.1280  179.1860  140.8860 N   0  0  0  0  0  0  0  0  0  0  0  0
  187.6640  178.4490  139.3860 C   0  0  1  0  0  3  0  0  0  0  0  0
  182.8200  179.4050  137.9680 C   0  0  0  0  0  2  0  0  0  0  0  0
  184.6600  178.9920  139.6930 C   0  0  0  0  0  0  0  0  0  0  0  0
  186.3070  178.6240  141.4760 C   0  0  0  0  0  3  0  0  0  0  0  0
  183.2280  176.8400  138.2260 C   0  0  1  0  0  3  0  0  0  0  0  0
  185.5240  176.1580  136.8020 S   0  0  0  0  0  0  0  0  0  0  0  0
  181.0940  177.8240  137.9360 O   0  0  0  0  0  0  0  0  0  0  0  0
  189.0710  178.5840  138.9040 C   0  0  0  0  0  2  0  0  0  0  0  0
  189.2540  177.8120  137.7560 O   0  0  0  0  0  0  0  0  0  0  0  0
  190.5050  177.2160  137.9240 C   0  0  0  0  0  2  0  0  0  0  0  0
  190.5630  174.8780  138.3430 O   0  0  0  0  0  1  0  0  0  0  0  0
  190.4950  175.8240  137.3230 C   0  0  0  0  0  3  0  0  0  0  0  0
  189.3210  175.6350  136.5930 O   0  0  0  0  0  1  0  0  0  0  0  0
  188.5030  177.7390  141.5820 O   0  0  0  0  0  0  0  0  0  0  0  0
  188.7720  178.0650  142.9430 C   0  0  1  0  0  3  0  0  0  0  0  0
  188.3430  176.9080  143.8420 C   0  0  0  0  0  2  0  0  0  0  0  0
  190.3550  177.1670  145.2790 C   0  0  0  0  0  2  0  0  0  0  0  0
  190.2330  178.4120  143.1190 C   0  0  0  0  0  3  0  0  0  0  0  0
  188.8290  177.1640  145.2630 C   0  0  0  0  0  2  0  0  0  0  0  0
  190.9350  178.0450  144.2010 C   0  0  0  0  0  3  0  0  0  0  0  0
  2  8  2  0  0  0  0
  2 13  1  0  0  0  0
  3 16  2  0  0  0  0
  3 26  1  0  0  0  0
  4 15  1  0  0  0  0
  5  1  1  6  0  0  0
  5 18  1  0  0  0  0
  5  6  1  0  0  0  0
  6  9  1  6  0  0  0
  6 17  1  0  0  0  0
  7 18  1  1  0  0  0
  7 17  1  0  0  0  0
  7  8  1  0  0  0  0
  8 15  1  0  0  0  0
  9  5  1  0  0  0  0
 11  9  1  0  0  0  0
 12 16  1  0  0  0  0
 13 20  1  6  0  0  0
 13  3  1  0  0  0  0
 14 10  1  0  0  0  0
 14  4  1  0  0  0  0
 15 12  2  0  0  0  0
 17 10  1  6  0  0  0
 19 10  2  0  0  0  0
 21 22  1  0  0  0  0
 21 20  1  0  0  0  0
 24 22  1  0  0  0  0
 24 23  1  0  0  0  0
 25 24  1  0  0  0  0
 27 26  1  6  0  0  0
 27 30  1  0  0  0  0
 27 28  1  0  0  0  0
 28 31  1  0  0  0  0
 30 32  2  0  0  0  0
 31 29  1  0  0  0  0
 32 29  1  0  0  0  0
M  END
>  <MODEL>
6

>  <REMARK>
 VINA RESULT:      -6.5      3.729      8.019
  Name = 
  6 active torsions:
  status: ('A' for Active; 'I' for Inactive)
    1  A    between atoms: C_2  and  O_28
    2  A    between atoms: C_3  and  O_14
    3  A    between atoms: C_3  and  C_23
    4  A    between atoms: C_5  and  O_28
    5  A    between atoms: O_14  and  C_16
    6  A    between atoms: C_16  and  C_24
                            x       y       z     vdW  Elec       q    Type
                         _______ _______ _______ _____ _____    ______ ____

>  <TORSDO>
F 6

$$$$
=
 OpenBabel10222416373D

 32 36  0  0  1  0  0  0  0  0999 V2000
  181.9850  177.0520  137.9870 O   0  0  0  0  0  1  0  0  0  0  0  0
  185.9360  178.9380  141.5410 N   0  0  0  0  0  0  0  0  0  0  0  0
  187.2580  177.3780  142.8930 C   0  0  0  0  0  0  0  0  0  0  0  0
  183.3140  179.2430  144.1740 C   0  0  0  0  0  2  0  0  0  0  0  0
  182.2550  177.8100  139.1310 C   0  0  2  0  0  0  0  0  0  0  0  0
  181.4720  177.5060  140.3190 C   0  0  2  0  0  3  0  0  0  0  0  0
  183.6570  178.3230  141.1640 C   0  0  0  0  0  0  0  0  0  0  0  0
  184.6590  178.5390  142.0390 C   0  0  0  0  0  0  0  0  0  0  0  0
  181.1830  178.7380  139.5440 N   0  0  0  0  0  0  0  0  0  0  0  0
  181.5630  178.7720  142.4980 C   0  0  0  0  0  0  0  0  0  0  0  0
  179.6820  178.4330  138.7010 Cl  0  0  0  0  0  0  0  0  0  0  0  0
  185.2620  177.8660  144.2880 N   0  0  0  0  0  0  0  0  0  0  0  0
  187.0900  178.5100  141.9500 C   0  0  0  0  0  0  0  0  0  0  0  0
  182.2970  179.8550  143.2180 C   0  0  0  0  0  2  0  0  0  0  0  0
  184.4470  178.5020  143.5070 C   0  0  0  0  0  0  0  0  0  0  0  0
  186.4390  177.1310  143.9280 C   0  0  0  0  0  3  0  0  0  0  0  0
  182.2940  177.8300  141.5720 C   0  0  1  0  0  3  0  0  0  0  0  0
  183.9270  178.4470  139.4010 S   0  0  0  0  0  0  0  0  0  0  0  0
  180.3780  178.6060  142.7270 O   0  0  0  0  0  0  0  0  0  0  0  0
  188.3010  179.0280  141.2480 C   0  0  0  0  0  2  0  0  0  0  0  0
  188.0960  179.0020  139.8680 O   0  0  0  0  0  0  0  0  0  0  0  0
  189.0190  178.0700  139.3880 C   0  0  0  0  0  2  0  0  0  0  0  0
  187.8480  177.4580  137.4140 O   0  0  0  0  0  1  0  0  0  0  0  0
  189.0100  178.0740  137.8730 C   0  0  0  0  0  3  0  0  0  0  0  0
  189.0530  179.3880  137.4050 O   0  0  0  0  0  1  0  0  0  0  0  0
  188.3780  176.5560  142.6940 O   0  0  0  0  0  0  0  0  0  0  0  0
  189.2780  176.1660  143.7260 C   0  0  1  0  0  3  0  0  0  0  0  0
  190.6920  176.0540  143.1600 C   0  0  0  0  0  2  0  0  0  0  0  0
  191.6790  177.0940  145.1900 C   0  0  0  0  0  2  0  0  0  0  0  0
  189.2020  177.1370  144.8810 C   0  0  0  0  0  3  0  0  0  0  0  0
  191.6800  175.8540  144.3010 C   0  0  0  0  0  2  0  0  0  0  0  0
  190.2850  177.5200  145.5740 C   0  0  0  0  0  3  0  0  0  0  0  0
  2 13  2  0  0  0  0
  2  8  1  0  0  0  0
  3 16  2  0  0  0  0
  5  1  1  6  0  0  0
  5 18  1  0  0  0  0
  5  9  1  0  0  0  0
  5  6  1  0  0  0  0
  6  9  1  6  0  0  0
  6 17  1  0  0  0  0
  7  8  2  0  0  0  0
  8 15  1  0  0  0  0
 10 19  2  0  0  0  0
 10 14  1  0  0  0  0
 11  9  1  0  0  0  0
 13  3  1  0  0  0  0
 14  4  1  0  0  0  0
 15  4  1  0  0  0  0
 15 12  2  0  0  0  0
 16 12  1  0  0  0  0
 17  7  1  6  0  0  0
 17 10  1  0  0  0  0
 18  7  1  0  0  0  0
 20 13  1  0  0  0  0
 21 20  1  0  0  0  0
 22 21  1  0  0  0  0
 23 24  1  0  0  0  0
 24 22  1  0  0  0  0
 25 24  1  0  0  0  0
 26  3  1  0  0  0  0
 27 26  1  6  0  0  0
 27 30  1  0  0  0  0
 28 27  1  0  0  0  0
 28 31  1  0  0  0  0
 29 32  1  0  0  0  0
 30 32  2  0  0  0  0
 31 29  1  0  0  0  0
M  END
>  <MODEL>
7

>  <REMARK>
 VINA RESULT:      -6.4      4.144      7.873
  Name = 
  6 active torsions:
  status: ('A' for Active; 'I' for Inactive)
    1  A    between atoms: C_2  and  O_28
    2  A    between atoms: C_3  and  O_14
    3  A    between atoms: C_3  and  C_23
    4  A    between atoms: C_5  and  O_28
    5  A    between atoms: O_14  and  C_16
    6  A    between atoms: C_16  and  C_24
                            x       y       z     vdW  Elec       q    Type
                         _______ _______ _______ _____ _____    ______ ____

>  <TORSDO>
F 6

$$$$
=
 OpenBabel10222416373D

 32 36  0  0  1  0  0  0  0  0999 V2000
  190.7960  176.2930  140.6680 O   0  0  0  0  0  1  0  0  0  0  0  0
  186.0080  178.5340  138.7060 N   0  0  0  0  0  0  0  0  0  0  0  0
  183.9420  177.2170  138.6320 C   0  0  0  0  0  0  0  0  0  0  0  0
  187.0010  177.4600  135.2760 C   0  0  0  0  0  2  0  0  0  0  0  0
  190.1350  176.8430  139.5660 C   0  0  2  0  0  0  0  0  0  0  0  0
  190.1640  176.0740  138.3320 C   0  0  2  0  0  3  0  0  0  0  0  0
  188.0290  177.3340  138.2680 C   0  0  2  0  0  3  0  0  0  0  0  0
  186.7810  177.6640  137.8780 C   0  0  0  0  0  0  0  0  0  0  0  0
  191.0090  177.2870  138.4610 N   0  0  0  0  0  0  0  0  0  0  0  0
  189.2360  176.8270  136.1120 C   0  0  0  0  0  0  0  0  0  0  0  0
  192.6500  176.7130  138.6420 Cl  0  0  0  0  0  0  0  0  0  0  0  0
  185.0420  176.7620  136.4520 N   0  0  0  0  0  0  0  0  0  0  0  0
  184.7480  178.4100  138.9860 C   0  0  1  0  0  3  0  0  0  0  0  0
  188.4450  177.9110  135.4550 C   0  0  0  0  0  2  0  0  0  0  0  0
  186.2330  177.2620  136.5600 C   0  0  0  0  0  0  0  0  0  0  0  0
  184.0870  176.5200  137.4930 C   0  0  0  0  0  3  0  0  0  0  0  0
  188.9040  176.3700  137.5120 C   0  0  1  0  0  3  0  0  0  0  0  0
  188.6880  177.8980  139.8320 S   0  0  0  0  0  0  0  0  0  0  0  0
  190.1040  176.2590  135.4740 O   0  0  0  0  0  0  0  0  0  0  0  0
  184.1510  179.4110  139.9190 C   0  0  0  0  0  2  0  0  0  0  0  0
  184.9120  179.4820  141.0870 O   0  0  0  0  0  0  0  0  0  0  0  0
  184.1810  178.7610  142.0330 C   0  0  0  0  0  2  0  0  0  0  0  0
  183.8480  178.7400  144.3850 O   0  0  0  0  0  1  0  0  0  0  0  0
  184.8170  178.9180  143.4000 C   0  0  0  0  0  3  0  0  0  0  0  0
  185.8230  177.9650  143.5640 O   0  0  0  0  0  1  0  0  0  0  0  0
  182.9410  176.8420  139.5420 O   0  0  0  0  0  0  0  0  0  0  0  0
  181.5490  176.8320  139.2410 C   0  0  1  0  0  3  0  0  0  0  0  0
  181.0370  175.3940  139.2270 C   0  0  0  0  0  2  0  0  0  0  0  0
  178.9310  176.0420  140.3780 C   0  0  0  0  0  2  0  0  0  0  0  0
  180.7950  177.6960  140.2250 C   0  0  0  0  0  3  0  0  0  0  0  0
  179.5170  175.3980  139.1250 C   0  0  0  0  0  2  0  0  0  0  0  0
  179.5870  177.3590  140.7020 C   0  0  0  0  0  3  0  0  0  0  0  0
  2 13  1  0  0  0  0
  3 13  1  0  0  0  0
  3 26  1  0  0  0  0
  4 14  1  0  0  0  0
  4 15  1  0  0  0  0
  5 18  1  0  0  0  0
  5  1  1  1  0  0  0
  6  9  1  6  0  0  0
  6  5  1  0  0  0  0
  7  8  1  1  0  0  0
  7 18  1  0  0  0  0
  8  2  2  0  0  0  0
  9 11  1  0  0  0  0
  9  5  1  0  0  0  0
 12 15  2  0  0  0  0
 12 16  1  0  0  0  0
 13 20  1  1  0  0  0
 14 10  1  0  0  0  0
 15  8  1  0  0  0  0
 16  3  2  0  0  0  0
 17 10  1  6  0  0  0
 17  7  1  0  0  0  0
 17  6  1  0  0  0  0
 19 10  2  0  0  0  0
 20 21  1  0  0  0  0
 21 22  1  0  0  0  0
 22 24  1  0  0  0  0
 24 25  1  0  0  0  0
 24 23  1  0  0  0  0
 27 26  1  1  0  0  0
 27 30  1  0  0  0  0
 28 27  1  0  0  0  0
 29 32  1  0  0  0  0
 30 32  2  0  0  0  0
 31 28  1  0  0  0  0
 31 29  1  0  0  0  0
M  END
>  <MODEL>
8

>  <REMARK>
 VINA RESULT:      -6.3      3.230      5.735
  Name = 
  6 active torsions:
  status: ('A' for Active; 'I' for Inactive)
    1  A    between atoms: C_2  and  O_28
    2  A    between atoms: C_3  and  O_14
    3  A    between atoms: C_3  and  C_23
    4  A    between atoms: C_5  and  O_28
    5  A    between atoms: O_14  and  C_16
    6  A    between atoms: C_16  and  C_24
                            x       y       z     vdW  Elec       q    Type
                         _______ _______ _______ _____ _____    ______ ____

>  <TORSDO>
F 6

$$$$
=
 OpenBabel10222416373D

 32 36  0  0  1  0  0  0  0  0999 V2000
  186.0600  176.7970  145.4150 O   0  0  0  0  0  1  0  0  0  0  0  0
  188.5880  178.2220  140.5810 N   0  0  0  0  0  0  0  0  0  0  0  0
  189.2610  176.5090  138.9620 C   0  0  0  0  0  0  0  0  0  0  0  0
  191.8700  178.0720  142.3420 C   0  0  0  0  0  2  0  0  0  0  0  0
  187.1790  177.3820  144.8160 C   0  0  2  0  0  0  0  0  0  0  0  0
  188.4810  176.8870  145.2360 C   0  0  2  0  0  3  0  0  0  0  0  0
  188.7850  177.6180  142.8850 C   0  0  0  0  0  0  0  0  0  0  0  0
  189.3620  177.7240  141.6720 C   0  0  0  0  0  0  0  0  0  0  0  0
  188.0130  178.2130  145.7080 N   0  0  0  0  0  0  0  0  0  0  0  0
  190.7090  177.8160  144.5050 C   0  0  0  0  0  0  0  0  0  0  0  0
  187.5940  178.0030  147.3920 Cl  0  0  0  0  0  0  0  0  0  0  0  0
  191.2210  176.7380  140.4700 N   0  0  0  0  0  0  0  0  0  0  0  0
  188.5840  177.7640  139.3670 C   0  0  0  0  0  0  0  0  0  0  0  0
  191.3450  178.7960  143.5750 C   0  0  0  0  0  2  0  0  0  0  0  0
  190.8070  177.4650  141.4600 C   0  0  0  0  0  0  0  0  0  0  0  0
  190.4370  176.0920  139.4590 C   0  0  0  0  0  3  0  0  0  0  0  0
  189.4830  177.0390  144.0870 C   0  0  1  0  0  3  0  0  0  0  0  0
  187.0560  178.0100  143.1230 S   0  0  0  0  0  0  0  0  0  0  0  0
  191.2370  177.5910  145.5800 O   0  0  0  0  0  0  0  0  0  0  0  0
  187.6530  178.4090  138.3940 C   0  0  0  0  0  2  0  0  0  0  0  0
  186.3670  177.8930  138.5580 O   0  0  0  0  0  0  0  0  0  0  0  0
  185.5160  178.9670  138.2910 C   0  0  0  0  0  2  0  0  0  0  0  0
  185.2740  179.6500  140.5530 O   0  0  0  0  0  1  0  0  0  0  0  0
  184.5650  179.1700  139.4540 C   0  0  0  0  0  3  0  0  0  0  0  0
  183.5790  180.0920  139.1010 O   0  0  0  0  0  1  0  0  0  0  0  0
  188.6320  175.7510  137.9620 O   0  0  0  0  0  0  0  0  0  0  0  0
  189.2330  175.4160  136.7150 C   0  0  1  0  0  3  0  0  0  0  0  0
  190.3920  176.3680  136.4310 C   0  0  0  0  0  2  0  0  0  0  0  0
  191.7990  174.5240  135.5360 C   0  0  0  0  0  2  0  0  0  0  0  0
  189.6710  173.9690  136.7170 C   0  0  0  0  0  3  0  0  0  0  0  0
  191.1660  175.8750  135.2150 C   0  0  0  0  0  2  0  0  0  0  0  0
  190.8100  173.5600  136.1400 C   0  0  0  0  0  3  0  0  0  0  0  0
  2  8  1  0  0  0  0
  3 13  1  0  0  0  0
  3 16  2  0  0  0  0
  4 14  1  0  0  0  0
  5  6  1  0  0  0  0
  5  1  1  1  0  0  0
  5  9  1  0  0  0  0
  6  9  1  1  0  0  0
  7 18  1  0  0  0  0
  8  7  2  0  0  0  0
  9 11  1  0  0  0  0
 10 19  2  0  0  0  0
 12 15  2  0  0  0  0
 13  2  2  0  0  0  0
 14 10  1  0  0  0  0
 15  8  1  0  0  0  0
 15  4  1  0  0  0  0
 16 12  1  0  0  0  0
 17  7  1  6  0  0  0
 17 10  1  0  0  0  0
 17  6  1  0  0  0  0
 18  5  1  0  0  0  0
 20 21  1  0  0  0  0
 20 13  1  0  0  0  0
 22 21  1  0  0  0  0
 22 24  1  0  0  0  0
 24 23  1  0  0  0  0
 25 24  1  0  0  0  0
 26  3  1  0  0  0  0
 27 30  1  0  0  0  0
 27 26  1  1  0  0  0
 28 27  1  0  0  0  0
 29 32  1  0  0  0  0
 31 29  1  0  0  0  0
 31 28  1  0  0  0  0
 32 30  2  0  0  0  0
M  END
>  <MODEL>
9

>  <REMARK>
 VINA RESULT:      -6.2      2.211      2.847
  Name = 
  6 active torsions:
  status: ('A' for Active; 'I' for Inactive)
    1  A    between atoms: C_2  and  O_28
    2  A    between atoms: C_3  and  O_14
    3  A    between atoms: C_3  and  C_23
    4  A    between atoms: C_5  and  O_28
    5  A    between atoms: O_14  and  C_16
    6  A    between atoms: C_16  and  C_24
                            x       y       z     vdW  Elec       q    Type
                         _______ _______ _______ _____ _____    ______ ____

>  <TORSDO>
F 6

$$$$
