=
 OpenBabel10222420163D

 52 57  0  0  1  0  0  0  0  0999 V2000
  191.8260  177.5010  140.4450 C   0  0  0  0  0  3  0  0  0  0  0  0
  193.0570  175.2480  138.1980 O   0  0  0  0  0  0  0  0  0  0  0  0
  193.7230  176.2490  137.4990 N   0  0  0  0  0  0  0  0  0  0  0  0
  188.6550  177.1860  138.5200 C   0  0  2  0  0  3  0  0  0  0  0  0
  189.2290  177.7920  140.6070 C   0  0  0  0  0  0  0  0  0  0  0  0
  190.4500  177.3930  139.9470 C   0  0  0  0  0  0  0  0  0  0  0  0
  188.2110  177.6910  139.8190 N   0  0  0  0  0  0  0  0  0  0  0  0
  192.5540  176.5010  138.3190 C   0  0  2  0  0  0  0  0  0  0  0  0
  190.1340  177.0300  138.7150 C   0  0  0  0  0  0  0  0  0  0  0  0
  192.8400  177.0910  139.6730 C   0  0  0  0  0  3  0  0  0  0  0  0
  191.1570  176.6720  137.6700 C   0  0  0  0  0  2  0  0  0  0  0  0
  193.3470  175.9740  135.7880 S   0  0  0  0  0  0  0  0  0  0  0  0
  194.7110  176.8800  135.2690 O   0  0  0  0  0  0  0  0  0  0  0  0
  195.6900  176.5040  136.0660 O   0  0  0  0  0  0  0  0  0  0  0  0
  196.6780  175.9880  135.2200 C   0  0  1  0  0  3  0  0  0  0  0  0
  197.6460  175.0590  135.8880 C   0  0  2  0  0  3  0  0  0  0  0  0
  196.5390  174.5900  135.1500 O   0  0  0  0  0  0  0  0  0  0  0  0
  197.4560  174.7200  137.3530 C   0  0  0  0  0  0  0  0  0  0  0  0
  198.0450  175.3180  138.2400 O   0  0  0  0  0  0  0  0  0  0  0  0
  196.5460  173.5810  137.6980 C   0  0  2  0  0  3  0  0  0  0  0  0
  196.0220  173.7400  139.0460 N   0  0  0  0  0  1  0  0  0  0  0  0
  196.6100  171.2300  137.5820 O   0  0  0  0  0  0  0  0  0  0  0  0
  197.2530  172.2680  137.5670 C   0  0  0  0  0  0  0  0  0  0  0  0
  198.6030  172.2240  137.4160 F   0  0  0  0  0  0  0  0  0  0  0  0
  189.1330  178.1820  141.9450 O   0  0  0  0  0  0  0  0  0  0  0  0
  189.3050  177.3070  143.0210 C   0  0  0  0  0  0  0  0  0  0  0  0
  189.2260  176.0610  142.8170 O   0  0  0  0  0  0  0  0  0  0  0  0
  189.6440  177.8400  144.3830 C   0  0  1  0  0  3  0  0  0  0  0  0
  188.7530  177.2180  145.4490 C   0  0  0  0  0  1  0  0  0  0  0  0
  191.5810  176.6000  145.4880 N   0  0  0  0  0  1  0  0  0  0  0  0
  191.1090  177.6790  144.6840 C   0  0  0  0  0  0  0  0  0  0  0  0
  191.9450  178.4290  144.1100 O   0  0  0  0  0  0  0  0  0  0  0  0
  188.3510  178.1950  137.4230 C   0  0  0  0  0  2  0  0  0  0  0  0
  187.6180  177.5110  136.2770 C   0  0  0  0  0  2  0  0  0  0  0  0
  186.2890  178.0850  136.1320 N   0  0  0  0  0  2  0  0  0  0  0  0
  185.4370  177.0380  135.5950 C   0  0  0  0  0  2  0  0  0  0  0  0
  183.0130  175.3590  138.7170 C   0  0  0  0  0  3  0  0  0  0  0  0
  183.6730  174.5130  137.8150 C   0  0  0  0  0  3  0  0  0  0  0  0
  183.9420  177.2900  137.5820 C   0  0  0  0  0  3  0  0  0  0  0  0
  184.4660  175.0560  136.7960 C   0  0  0  0  0  3  0  0  0  0  0  0
  184.6040  176.4460  136.6820 C   0  0  0  0  0  0  0  0  0  0  0  0
  183.1460  176.7470  138.6020 C   0  0  0  0  0  0  0  0  0  0  0  0
  183.1440  178.7520  140.0570 C   0  0  0  0  0  0  0  0  0  0  0  0
  181.2760  177.2360  140.0320 O   0  0  0  0  0  1  0  0  0  0  0  0
  182.4740  177.6070  139.5250 N   0  0  0  0  0  0  0  0  0  0  0  0
  183.2180  179.8020  139.3620 O   0  0  0  0  0  0  0  0  0  0  0  0
  185.0590  178.3390  141.5170 C   0  0  0  0  0  3  0  0  0  0  0  0
  185.7210  178.2460  142.8640 C   0  0  0  0  0  2  0  0  0  0  0  0
  183.7730  178.6940  141.3880 C   0  0  0  0  0  0  0  0  0  0  0  0
  183.4610  178.6760  143.7990 C   0  0  0  0  0  3  0  0  0  0  0  0
  184.7580  178.1620  143.9220 O   0  0  0  0  0  0  0  0  0  0  0  0
  182.9630  178.9520  142.5940 C   0  0  0  0  0  3  0  0  0  0  0  0
  2  8  1  0  0  0  0
  3  2  1  0  0  0  0
  3  8  1  0  0  0  0
  4 33  1  6  0  0  0
  4  9  1  0  0  0  0
  4  7  1  0  0  0  0
  5 25  1  0  0  0  0
  6  1  1  0  0  0  0
  6  5  1  0  0  0  0
  7  5  2  0  0  0  0
  8 11  1  6  0  0  0
  8 10  1  0  0  0  0
  9  6  2  0  0  0  0
 10  1  2  0  0  0  0
 11  9  1  0  0  0  0
 12  3  1  0  0  0  0
 13 12  1  0  0  0  0
 13 14  1  0  0  0  0
 15 16  1  0  0  0  0
 15 14  1  1  0  0  0
 16 18  1  1  0  0  0
 17 15  1  0  0  0  0
 17 16  1  0  0  0  0
 18 20  1  0  0  0  0
 18 19  2  0  0  0  0
 20 21  1  1  0  0  0
 23 22  2  0  0  0  0
 23 20  1  0  0  0  0
 24 23  1  0  0  0  0
 25 26  1  0  0  0  0
 26 28  1  0  0  0  0
 27 26  2  0  0  0  0
 28 31  1  0  0  0  0
 28 29  1  1  0  0  0
 31 30  1  0  0  0  0
 32 31  2  0  0  0  0
 34 33  1  0  0  0  0
 35 34  1  0  0  0  0
 36 35  1  0  0  0  0
 36 41  1  0  0  0  0
 38 37  2  0  0  0  0
 39 42  2  0  0  0  0
 40 38  1  0  0  0  0
 41 40  2  0  0  0  0
 41 39  1  0  0  0  0
 42 37  1  0  0  0  0
 42 45  1  0  0  0  0
 43 49  1  0  0  0  0
 45 44  1  0  0  0  0
 45 43  1  0  0  0  0
 46 43  2  0  0  0  0
 47 48  1  0  0  0  0
 48 51  1  0  0  0  0
 49 47  2  0  0  0  0
 49 52  1  0  0  0  0
 50 51  1  0  0  0  0
 52 50  2  0  0  0  0
M  END
>  <MODEL>
1

>  <REMARK>
 VINA RESULT:      -7.7      0.000      0.000
  Name = 
  18 active torsions:
  status: ('A' for Active; 'I' for Inactive)
    1  A    between atoms: S_1  and  N_11
    2  A    between atoms: S_1  and  O_21
    3  A    between atoms: C_3  and  O_47
    4  A    between atoms: C_9  and  C_32
    5  A    between atoms: C_12  and  C_38
    6  A    between atoms: C_13  and  C_18
    7  A    between atoms: C_14  and  O_30
    8  A    between atoms: C_17  and  C_18
    9  A    between atoms: C_17  and  C_25
   10  A    between atoms: C_19  and  C_34
   11  A    between atoms: C_19  and  C_43
   12  A    between atoms: O_21  and  O_47
   13  A    between atoms: C_22  and  C_52
   14  A    between atoms: N_29  and  C_40
   15  A    between atoms: O_30  and  C_43
   16  A    between atoms: C_38  and  C_41
   17  A    between atoms: C_41  and  N_49
   18  A    between atoms: N_49  and  C_52
                            x       y       z     vdW  Elec       q    Type
                         _______ _______ _______ _____ _____    ______ ____

>  <TORSDO>
F 18

$$$$
=
 OpenBabel10222420163D

 52 57  0  0  1  0  0  0  0  0999 V2000
  190.1350  178.2420  143.9190 C   0  0  0  0  0  3  0  0  0  0  0  0
  189.6740  176.8050  140.8600 O   0  0  0  0  0  0  0  0  0  0  0  0
  189.5800  178.0490  140.2460 N   0  0  0  0  0  0  0  0  0  0  0  0
  186.5580  177.3850  144.4920 C   0  0  2  0  0  3  0  0  0  0  0  0
  188.3550  177.7810  145.7830 C   0  0  0  0  0  0  0  0  0  0  0  0
  188.8130  177.8430  144.4150 C   0  0  0  0  0  0  0  0  0  0  0  0
  187.0890  177.5340  145.8470 N   0  0  0  0  0  0  0  0  0  0  0  0
  189.2830  177.8360  141.6490 C   0  0  2  0  0  0  0  0  0  0  0  0
  187.7700  177.6110  143.6370 C   0  0  0  0  0  0  0  0  0  0  0  0
  190.3690  178.2550  142.6020 C   0  0  0  0  0  3  0  0  0  0  0  0
  187.8160  177.7200  142.1360 C   0  0  0  0  0  2  0  0  0  0  0  0
  188.1550  177.9600  139.1940 S   0  0  0  0  0  0  0  0  0  0  0  0
  189.0240  178.5760  137.8460 O   0  0  0  0  0  0  0  0  0  0  0  0
  189.9480  177.6710  137.5970 O   0  0  0  0  0  0  0  0  0  0  0  0
  189.5770  177.0860  136.3820 C   0  0  1  0  0  3  0  0  0  0  0  0
  190.3500  175.8540  136.0220 C   0  0  2  0  0  3  0  0  0  0  0  0
  189.0780  175.7930  136.6270 O   0  0  0  0  0  0  0  0  0  0  0  0
  191.3940  175.3270  136.9860 C   0  0  0  0  0  0  0  0  0  0  0  0
  191.0940  174.6860  137.9820 O   0  0  0  0  0  0  0  0  0  0  0  0
  192.8300  175.6520  136.7130 C   0  0  2  0  0  3  0  0  0  0  0  0
  193.4330  174.6270  135.8750 N   0  0  0  0  0  1  0  0  0  0  0  0
  193.5190  176.8360  138.6280 O   0  0  0  0  0  0  0  0  0  0  0  0
  193.6010  175.8000  137.9880 C   0  0  0  0  0  0  0  0  0  0  0  0
  194.3790  174.7830  138.4450 F   0  0  0  0  0  0  0  0  0  0  0  0
  189.1740  177.9090  146.9080 O   0  0  0  0  0  0  0  0  0  0  0  0
  189.9900  176.8830  147.3920 C   0  0  0  0  0  0  0  0  0  0  0  0
  189.4510  175.8490  147.8800 O   0  0  0  0  0  0  0  0  0  0  0  0
  191.4830  176.9850  147.2730 C   0  0  1  0  0  3  0  0  0  0  0  0
  192.1310  177.1240  148.6420 C   0  0  0  0  0  1  0  0  0  0  0  0
  191.8490  175.7540  145.0680 N   0  0  0  0  0  1  0  0  0  0  0  0
  192.0470  175.8400  146.4780 C   0  0  0  0  0  0  0  0  0  0  0  0
  192.8180  175.0150  147.0410 O   0  0  0  0  0  0  0  0  0  0  0  0
  185.4920  178.4350  144.2200 C   0  0  0  0  0  2  0  0  0  0  0  0
  184.7820  178.8030  145.5150 C   0  0  0  0  0  2  0  0  0  0  0  0
  183.4250  179.2440  145.2230 N   0  0  0  0  0  2  0  0  0  0  0  0
  183.3660  179.4990  143.7950 C   0  0  0  0  0  2  0  0  0  0  0  0
  179.6900  177.9960  142.1630 C   0  0  0  0  0  3  0  0  0  0  0  0
  179.7820  178.2760  143.5330 C   0  0  0  0  0  3  0  0  0  0  0  0
  181.9900  178.7030  141.8670 C   0  0  0  0  0  3  0  0  0  0  0  0
  180.9780  178.7680  144.0690 C   0  0  0  0  0  3  0  0  0  0  0  0
  182.0830  178.9850  143.2340 C   0  0  0  0  0  0  0  0  0  0  0  0
  180.7930  178.2080  141.3280 C   0  0  0  0  0  0  0  0  0  0  0  0
  181.2020  176.6920  139.4120 C   0  0  0  0  0  0  0  0  0  0  0  0
  180.2930  178.8950  139.0790 O   0  0  0  0  0  1  0  0  0  0  0  0
  180.6960  177.9240  139.9310 N   0  0  0  0  0  0  0  0  0  0  0  0
  180.5080  175.6450  139.5230 O   0  0  0  0  0  0  0  0  0  0  0  0
  183.2420  177.7610  138.5980 C   0  0  0  0  0  3  0  0  0  0  0  0
  184.5950  177.7400  137.9420 C   0  0  0  0  0  2  0  0  0  0  0  0
  182.5360  176.6380  138.7900 C   0  0  0  0  0  0  0  0  0  0  0  0
  184.1570  175.3290  137.5370 C   0  0  0  0  0  3  0  0  0  0  0  0
  184.8110  176.5250  137.2130 O   0  0  0  0  0  0  0  0  0  0  0  0
  183.0660  175.3510  138.3020 C   0  0  0  0  0  3  0  0  0  0  0  0
  1  6  1  0  0  0  0
  2  8  1  0  0  0  0
  3  2  1  0  0  0  0
  3  8  1  0  0  0  0
  4 33  1  6  0  0  0
  4  7  1  0  0  0  0
  5  7  2  0  0  0  0
  5 25  1  0  0  0  0
  6  5  1  0  0  0  0
  8 11  1  1  0  0  0
  8 10  1  0  0  0  0
  9  6  2  0  0  0  0
  9  4  1  0  0  0  0
 10  1  2  0  0  0  0
 11  9  1  0  0  0  0
 12  3  1  0  0  0  0
 13 12  1  0  0  0  0
 14 13  1  0  0  0  0
 15 17  1  0  0  0  0
 15 14  1  1  0  0  0
 16 15  1  0  0  0  0
 16 17  1  0  0  0  0
 16 18  1  1  0  0  0
 18 19  2  0  0  0  0
 20 21  1  6  0  0  0
 20 18  1  0  0  0  0
 20 23  1  0  0  0  0
 23 24  1  0  0  0  0
 23 22  2  0  0  0  0
 25 26  1  0  0  0  0
 26 27  2  0  0  0  0
 28 26  1  0  0  0  0
 28 29  1  1  0  0  0
 30 31  1  0  0  0  0
 31 32  2  0  0  0  0
 31 28  1  0  0  0  0
 33 34  1  0  0  0  0
 35 34  1  0  0  0  0
 36 35  1  0  0  0  0
 37 38  1  0  0  0  0
 38 40  2  0  0  0  0
 39 41  2  0  0  0  0
 41 36  1  0  0  0  0
 41 40  1  0  0  0  0
 42 39  1  0  0  0  0
 42 37  2  0  0  0  0
 43 46  2  0  0  0  0
 43 45  1  0  0  0  0
 44 45  1  0  0  0  0
 45 42  1  0  0  0  0
 47 49  2  0  0  0  0
 48 47  1  0  0  0  0
 49 43  1  0  0  0  0
 50 52  2  0  0  0  0
 51 50  1  0  0  0  0
 51 48  1  0  0  0  0
 52 49  1  0  0  0  0
M  END
>  <MODEL>
2

>  <REMARK>
 VINA RESULT:      -7.6      3.035      5.781
  Name = 
  18 active torsions:
  status: ('A' for Active; 'I' for Inactive)
    1  A    between atoms: S_1  and  N_11
    2  A    between atoms: S_1  and  O_21
    3  A    between atoms: C_3  and  O_47
    4  A    between atoms: C_9  and  C_32
    5  A    between atoms: C_12  and  C_38
    6  A    between atoms: C_13  and  C_18
    7  A    between atoms: C_14  and  O_30
    8  A    between atoms: C_17  and  C_18
    9  A    between atoms: C_17  and  C_25
   10  A    between atoms: C_19  and  C_34
   11  A    between atoms: C_19  and  C_43
   12  A    between atoms: O_21  and  O_47
   13  A    between atoms: C_22  and  C_52
   14  A    between atoms: N_29  and  C_40
   15  A    between atoms: O_30  and  C_43
   16  A    between atoms: C_38  and  C_41
   17  A    between atoms: C_41  and  N_49
   18  A    between atoms: N_49  and  C_52
                            x       y       z     vdW  Elec       q    Type
                         _______ _______ _______ _____ _____    ______ ____

>  <TORSDO>
F 18

$$$$
=
 OpenBabel10222420163D

 52 57  0  0  1  0  0  0  0  0999 V2000
  190.8010  176.4620  135.5190 C   0  0  0  0  0  3  0  0  0  0  0  0
  187.8370  174.7890  135.7460 O   0  0  0  0  0  0  0  0  0  0  0  0
  187.1140  175.9600  135.5410 N   0  0  0  0  0  0  0  0  0  0  0  0
  190.8440  176.2160  139.2330 C   0  0  2  0  0  3  0  0  0  0  0  0
  192.3760  176.4750  137.6100 C   0  0  0  0  0  0  0  0  0  0  0  0
  191.1030  176.3210  136.9480 C   0  0  0  0  0  0  0  0  0  0  0  0
  192.2510  176.4280  138.8950 N   0  0  0  0  0  0  0  0  0  0  0  0
  188.4620  175.9460  136.0760 C   0  0  2  0  0  0  0  0  0  0  0  0
  190.1840  176.1640  137.8870 C   0  0  0  0  0  0  0  0  0  0  0  0
  189.5430  176.2990  135.0910 C   0  0  0  0  0  3  0  0  0  0  0  0
  188.7080  176.1030  137.5990 C   0  0  0  0  0  2  0  0  0  0  0  0
  185.8530  175.9720  136.7870 S   0  0  0  0  0  0  0  0  0  0  0  0
  185.3870  177.5790  136.4000 O   0  0  0  0  0  0  0  0  0  0  0  0
  184.1620  177.6990  136.8700 O   0  0  0  0  0  0  0  0  0  0  0  0
  184.1480  176.9630  138.0600 C   0  0  1  0  0  3  0  0  0  0  0  0
  183.8010  177.7610  139.2810 C   0  0  2  0  0  3  0  0  0  0  0  0
  182.8470  176.9810  138.5960 O   0  0  0  0  0  0  0  0  0  0  0  0
  183.4540  179.2280  139.1320 C   0  0  0  0  0  0  0  0  0  0  0  0
  184.3010  180.1070  139.1970 O   0  0  0  0  0  0  0  0  0  0  0  0
  182.0140  179.5940  138.9430 C   0  0  2  0  0  3  0  0  0  0  0  0
  181.8890  180.9930  138.5640 N   0  0  0  0  0  1  0  0  0  0  0  0
  180.0200  179.1210  140.1040 O   0  0  0  0  0  0  0  0  0  0  0  0
  181.2210  179.3200  140.1840 C   0  0  0  0  0  0  0  0  0  0  0  0
  181.8340  179.2760  141.3970 F   0  0  0  0  0  0  0  0  0  0  0  0
  193.6070  176.6010  136.9600 O   0  0  0  0  0  0  0  0  0  0  0  0
  194.3720  175.5110  136.5360 C   0  0  0  0  0  0  0  0  0  0  0  0
  195.3020  175.7030  135.7010 O   0  0  0  0  0  0  0  0  0  0  0  0
  194.1320  174.1470  137.1150 C   0  0  1  0  0  3  0  0  0  0  0  0
  194.2770  173.0690  136.0510 C   0  0  0  0  0  1  0  0  0  0  0  0
  195.3660  172.5770  138.7030 N   0  0  0  0  0  1  0  0  0  0  0  0
  195.0070  173.9000  138.3140 C   0  0  0  0  0  0  0  0  0  0  0  0
  195.5390  174.8810  138.9030 O   0  0  0  0  0  0  0  0  0  0  0  0
  190.3130  177.3770  140.0590 C   0  0  0  0  0  2  0  0  0  0  0  0
  191.2790  177.6940  141.1930 C   0  0  0  0  0  2  0  0  0  0  0  0
  190.7650  177.1500  142.4410 N   0  0  0  0  0  2  0  0  0  0  0  0
  191.5540  177.7390  143.5100 C   0  0  0  0  0  2  0  0  0  0  0  0
  189.6550  176.9870  147.2880 C   0  0  0  0  0  3  0  0  0  0  0  0
  190.9910  176.6140  147.0930 C   0  0  0  0  0  3  0  0  0  0  0  0
  189.5680  177.8500  145.0240 C   0  0  0  0  0  3  0  0  0  0  0  0
  191.6160  176.8590  145.8630 C   0  0  0  0  0  3  0  0  0  0  0  0
  190.9040  177.4820  144.8280 C   0  0  0  0  0  0  0  0  0  0  0  0
  188.9410  177.6050  146.2540 C   0  0  0  0  0  0  0  0  0  0  0  0
  186.5420  177.3830  145.6780 C   0  0  0  0  0  0  0  0  0  0  0  0
  187.2910  179.0420  147.2510 O   0  0  0  0  0  1  0  0  0  0  0  0
  187.5790  177.9850  146.4560 N   0  0  0  0  0  0  0  0  0  0  0  0
  186.1150  176.2400  145.9980 O   0  0  0  0  0  0  0  0  0  0  0  0
  186.5910  177.9270  143.2970 C   0  0  0  0  0  3  0  0  0  0  0  0
  186.0810  178.6390  142.0740 C   0  0  0  0  0  2  0  0  0  0  0  0
  186.0050  178.0730  144.4930 C   0  0  0  0  0  0  0  0  0  0  0  0
  184.5200  179.7920  143.6250 C   0  0  0  0  0  3  0  0  0  0  0  0
  185.2340  179.7420  142.4200 O   0  0  0  0  0  0  0  0  0  0  0  0
  184.8610  178.9940  144.6360 C   0  0  0  0  0  3  0  0  0  0  0  0
  1  6  1  0  0  0  0
  2  8  1  0  0  0  0
  3  2  1  0  0  0  0
  3  8  1  0  0  0  0
  3 12  1  0  0  0  0
  4 33  1  1  0  0  0
  5  7  2  0  0  0  0
  6  5  1  0  0  0  0
  6  9  2  0  0  0  0
  7  4  1  0  0  0  0
  8 10  1  6  0  0  0
  8 11  1  0  0  0  0
  9  4  1  0  0  0  0
 10  1  2  0  0  0  0
 11  9  1  0  0  0  0
 13 12  1  0  0  0  0
 13 14  1  0  0  0  0
 15 14  1  6  0  0  0
 15 17  1  0  0  0  0
 15 16  1  0  0  0  0
 16 18  1  6  0  0  0
 17 16  1  0  0  0  0
 18 19  2  0  0  0  0
 20 21  1  1  0  0  0
 20 18  1  0  0  0  0
 20 23  1  0  0  0  0
 22 23  2  0  0  0  0
 23 24  1  0  0  0  0
 25  5  1  0  0  0  0
 26 25  1  0  0  0  0
 26 28  1  0  0  0  0
 27 26  2  0  0  0  0
 28 29  1  6  0  0  0
 28 31  1  0  0  0  0
 31 30  1  0  0  0  0
 31 32  2  0  0  0  0
 33 34  1  0  0  0  0
 34 35  1  0  0  0  0
 35 36  1  0  0  0  0
 36 41  1  0  0  0  0
 38 37  1  0  0  0  0
 39 42  1  0  0  0  0
 40 38  2  0  0  0  0
 41 39  2  0  0  0  0
 41 40  1  0  0  0  0
 42 45  1  0  0  0  0
 42 37  2  0  0  0  0
 43 46  2  0  0  0  0
 43 45  1  0  0  0  0
 45 44  1  0  0  0  0
 47 49  2  0  0  0  0
 48 51  1  0  0  0  0
 48 47  1  0  0  0  0
 49 52  1  0  0  0  0
 49 43  1  0  0  0  0
 50 52  2  0  0  0  0
 51 50  1  0  0  0  0
M  END
>  <MODEL>
3

>  <REMARK>
 VINA RESULT:      -7.5      3.593      9.673
  Name = 
  18 active torsions:
  status: ('A' for Active; 'I' for Inactive)
    1  A    between atoms: S_1  and  N_11
    2  A    between atoms: S_1  and  O_21
    3  A    between atoms: C_3  and  O_47
    4  A    between atoms: C_9  and  C_32
    5  A    between atoms: C_12  and  C_38
    6  A    between atoms: C_13  and  C_18
    7  A    between atoms: C_14  and  O_30
    8  A    between atoms: C_17  and  C_18
    9  A    between atoms: C_17  and  C_25
   10  A    between atoms: C_19  and  C_34
   11  A    between atoms: C_19  and  C_43
   12  A    between atoms: O_21  and  O_47
   13  A    between atoms: C_22  and  C_52
   14  A    between atoms: N_29  and  C_40
   15  A    between atoms: O_30  and  C_43
   16  A    between atoms: C_38  and  C_41
   17  A    between atoms: C_41  and  N_49
   18  A    between atoms: N_49  and  C_52
                            x       y       z     vdW  Elec       q    Type
                         _______ _______ _______ _____ _____    ______ ____

>  <TORSDO>
F 18

$$$$
=
 OpenBabel10222420163D

 52 57  0  0  1  0  0  0  0  0999 V2000
  184.4210  178.7980  144.3760 C   0  0  0  0  0  3  0  0  0  0  0  0
  187.0370  176.6730  143.8460 O   0  0  0  0  0  0  0  0  0  0  0  0
  187.9370  177.7320  143.7880 N   0  0  0  0  0  0  0  0  0  0  0  0
  183.6590  178.2280  140.7780 C   0  0  2  0  0  3  0  0  0  0  0  0
  182.5030  178.8660  142.5950 C   0  0  0  0  0  0  0  0  0  0  0  0
  183.8440  178.5770  143.0460 C   0  0  0  0  0  0  0  0  0  0  0  0
  182.3810  178.6850  141.3220 N   0  0  0  0  0  0  0  0  0  0  0  0
  186.5240  177.8780  143.4940 C   0  0  2  0  0  0  0  0  0  0  0  0
  184.5430  178.1970  141.9890 C   0  0  0  0  0  0  0  0  0  0  0  0
  185.7020  178.4810  144.6000 C   0  0  0  0  0  3  0  0  0  0  0  0
  186.0250  177.9340  142.0270 C   0  0  0  0  0  2  0  0  0  0  0  0
  188.9360  177.4360  142.3530 S   0  0  0  0  0  0  0  0  0  0  0  0
  190.1740  176.6900  143.2810 O   0  0  0  0  0  0  0  0  0  0  0  0
  190.1030  177.2660  144.4640 O   0  0  0  0  0  0  0  0  0  0  0  0
  191.4210  177.3170  144.9310 C   0  0  1  0  0  3  0  0  0  0  0  0
  191.5690  177.0830  146.4040 C   0  0  2  0  0  3  0  0  0  0  0  0
  191.7720  176.0600  145.4550 O   0  0  0  0  0  0  0  0  0  0  0  0
  190.3390  176.7690  147.2310 C   0  0  0  0  0  0  0  0  0  0  0  0
  189.9900  175.6220  147.4660 O   0  0  0  0  0  0  0  0  0  0  0  0
  189.5150  177.9160  147.7280 C   0  0  2  0  0  3  0  0  0  0  0  0
  190.0680  178.4410  148.9670 N   0  0  0  0  0  1  0  0  0  0  0  0
  187.5770  177.6150  149.0310 O   0  0  0  0  0  0  0  0  0  0  0  0
  188.0880  177.5080  147.9280 C   0  0  0  0  0  0  0  0  0  0  0  0
  187.3540  177.0340  146.8870 F   0  0  0  0  0  0  0  0  0  0  0  0
  181.4430  179.2380  143.4260 O   0  0  0  0  0  0  0  0  0  0  0  0
  180.1880  178.6240  143.4020 C   0  0  0  0  0  0  0  0  0  0  0  0
  179.9650  177.6520  144.1800 O   0  0  0  0  0  0  0  0  0  0  0  0
  179.1030  179.1550  142.5100 C   0  0  1  0  0  3  0  0  0  0  0  0
  179.3110  180.6350  142.2210 C   0  0  0  0  0  1  0  0  0  0  0  0
  179.0450  178.9360  139.9690 N   0  0  0  0  0  1  0  0  0  0  0  0
  178.9720  178.3320  141.2580 C   0  0  0  0  0  0  0  0  0  0  0  0
  178.9310  177.0740  141.3460 O   0  0  0  0  0  0  0  0  0  0  0  0
  184.1810  179.2140  139.7440 C   0  0  0  0  0  2  0  0  0  0  0  0
  184.6180  178.4700  138.4890 C   0  0  0  0  0  2  0  0  0  0  0  0
  185.9400  178.9240  138.0840 N   0  0  0  0  0  2  0  0  0  0  0  0
  186.9000  178.0530  138.7390 C   0  0  0  0  0  2  0  0  0  0  0  0
  189.9720  176.8670  135.9820 C   0  0  0  0  0  3  0  0  0  0  0  0
  188.9710  177.7570  135.5700 C   0  0  0  0  0  3  0  0  0  0  0  0
  188.9680  176.7620  138.1870 C   0  0  0  0  0  3  0  0  0  0  0  0
  187.9680  178.1480  136.4670 C   0  0  0  0  0  3  0  0  0  0  0  0
  187.9690  177.6530  137.7780 C   0  0  0  0  0  0  0  0  0  0  0  0
  189.9720  176.3680  137.2900 C   0  0  0  0  0  0  0  0  0  0  0  0
  192.3610  175.8840  137.7320 C   0  0  0  0  0  0  0  0  0  0  0  0
  190.6930  174.1580  137.9020 O   0  0  0  0  0  1  0  0  0  0  0  0
  190.9950  175.4620  137.7070 N   0  0  0  0  0  0  0  0  0  0  0  0
  192.7770  176.5700  138.7040 O   0  0  0  0  0  0  0  0  0  0  0  0
  193.4200  174.2820  136.2210 C   0  0  0  0  0  3  0  0  0  0  0  0
  194.3520  173.9110  135.1000 C   0  0  0  0  0  2  0  0  0  0  0  0
  193.2620  175.5530  136.6140 C   0  0  0  0  0  0  0  0  0  0  0  0
  195.0370  176.2990  135.1280 C   0  0  0  0  0  3  0  0  0  0  0  0
  195.2980  174.9540  134.8320 O   0  0  0  0  0  0  0  0  0  0  0  0
  194.0570  176.6180  135.9730 C   0  0  0  0  0  3  0  0  0  0  0  0
  1 10  2  0  0  0  0
  3  2  1  0  0  0  0
  4 33  1  6  0  0  0
  4  7  1  0  0  0  0
  4  9  1  0  0  0  0
  5  6  1  0  0  0  0
  5 25  1  0  0  0  0
  6  1  1  0  0  0  0
  7  5  2  0  0  0  0
  8 11  1  6  0  0  0
  8  3  1  0  0  0  0
  8  2  1  0  0  0  0
  8 10  1  0  0  0  0
  9 11  1  0  0  0  0
  9  6  2  0  0  0  0
 12 13  1  0  0  0  0
 12  3  1  0  0  0  0
 13 14  1  0  0  0  0
 15 14  1  1  0  0  0
 15 17  1  0  0  0  0
 15 16  1  0  0  0  0
 16 18  1  1  0  0  0
 17 16  1  0  0  0  0
 18 19  2  0  0  0  0
 18 20  1  0  0  0  0
 20 23  1  0  0  0  0
 20 21  1  1  0  0  0
 23 22  2  0  0  0  0
 24 23  1  0  0  0  0
 26 25  1  0  0  0  0
 26 27  2  0  0  0  0
 28 29  1  6  0  0  0
 28 26  1  0  0  0  0
 30 31  1  0  0  0  0
 31 32  2  0  0  0  0
 31 28  1  0  0  0  0
 34 33  1  0  0  0  0
 35 34  1  0  0  0  0
 35 36  1  0  0  0  0
 37 42  1  0  0  0  0
 38 37  2  0  0  0  0
 38 40  1  0  0  0  0
 40 41  2  0  0  0  0
 41 39  1  0  0  0  0
 41 36  1  0  0  0  0
 42 45  1  0  0  0  0
 42 39  2  0  0  0  0
 43 46  2  0  0  0  0
 45 43  1  0  0  0  0
 45 44  1  0  0  0  0
 47 49  2  0  0  0  0
 48 47  1  0  0  0  0
 49 43  1  0  0  0  0
 50 52  2  0  0  0  0
 51 48  1  0  0  0  0
 51 50  1  0  0  0  0
 52 49  1  0  0  0  0
M  END
>  <MODEL>
4

>  <REMARK>
 VINA RESULT:      -7.3      3.553     10.049
  Name = 
  18 active torsions:
  status: ('A' for Active; 'I' for Inactive)
    1  A    between atoms: S_1  and  N_11
    2  A    between atoms: S_1  and  O_21
    3  A    between atoms: C_3  and  O_47
    4  A    between atoms: C_9  and  C_32
    5  A    between atoms: C_12  and  C_38
    6  A    between atoms: C_13  and  C_18
    7  A    between atoms: C_14  and  O_30
    8  A    between atoms: C_17  and  C_18
    9  A    between atoms: C_17  and  C_25
   10  A    between atoms: C_19  and  C_34
   11  A    between atoms: C_19  and  C_43
   12  A    between atoms: O_21  and  O_47
   13  A    between atoms: C_22  and  C_52
   14  A    between atoms: N_29  and  C_40
   15  A    between atoms: O_30  and  C_43
   16  A    between atoms: C_38  and  C_41
   17  A    between atoms: C_41  and  N_49
   18  A    between atoms: N_49  and  C_52
                            x       y       z     vdW  Elec       q    Type
                         _______ _______ _______ _____ _____    ______ ____

>  <TORSDO>
F 18

$$$$
=
 OpenBabel10222420163D

 52 57  0  0  1  0  0  0  0  0999 V2000
  190.0010  176.7960  139.5180 C   0  0  0  0  0  3  0  0  0  0  0  0
  188.1700  179.3480  140.8480 O   0  0  0  0  0  0  0  0  0  0  0  0
  187.3620  178.4580  141.5480 N   0  0  0  0  0  0  0  0  0  0  0  0
  188.0000  177.4070  136.4390 C   0  0  2  0  0  3  0  0  0  0  0  0
  189.9990  176.4980  136.9170 C   0  0  0  0  0  0  0  0  0  0  0  0
  189.4620  176.9830  138.1660 C   0  0  0  0  0  0  0  0  0  0  0  0
  189.1880  176.7190  135.9360 N   0  0  0  0  0  0  0  0  0  0  0  0
  188.0820  178.0940  140.3420 C   0  0  2  0  0  0  0  0  0  0  0  0
  188.2840  177.5250  137.9070 C   0  0  0  0  0  0  0  0  0  0  0  0
  189.3460  177.3090  140.5660 C   0  0  0  0  0  3  0  0  0  0  0  0
  187.3510  178.0280  138.9760 C   0  0  0  0  0  2  0  0  0  0  0  0
  185.6950  178.9850  141.2510 S   0  0  0  0  0  0  0  0  0  0  0  0
  185.1560  178.3650  142.7590 O   0  0  0  0  0  0  0  0  0  0  0  0
  186.1880  178.4980  143.5680 O   0  0  0  0  0  0  0  0  0  0  0  0
  185.7540  178.0090  144.8050 C   0  0  1  0  0  3  0  0  0  0  0  0
  186.8070  177.2930  145.5950 C   0  0  2  0  0  3  0  0  0  0  0  0
  186.4790  178.6440  145.8300 O   0  0  0  0  0  0  0  0  0  0  0  0
  188.2150  177.2050  145.0420 C   0  0  0  0  0  0  0  0  0  0  0  0
  188.5030  176.4690  144.1100 O   0  0  0  0  0  0  0  0  0  0  0  0
  189.2820  178.0230  145.7030 C   0  0  2  0  0  3  0  0  0  0  0  0
  190.5120  177.9760  144.9280 N   0  0  0  0  0  1  0  0  0  0  0  0
  190.1070  176.4910  147.2910 O   0  0  0  0  0  0  0  0  0  0  0  0
  189.5320  177.5520  147.1030 C   0  0  0  0  0  0  0  0  0  0  0  0
  189.1380  178.3040  148.1640 F   0  0  0  0  0  0  0  0  0  0  0  0
  191.2590  175.9150  136.7590 O   0  0  0  0  0  0  0  0  0  0  0  0
  191.5920  174.6490  137.2480 C   0  0  0  0  0  0  0  0  0  0  0  0
  190.6860  173.7740  137.3530 O   0  0  0  0  0  0  0  0  0  0  0  0
  193.0190  174.3180  137.5810 C   0  0  1  0  0  3  0  0  0  0  0  0
  193.5730  173.2710  136.6260 C   0  0  0  0  0  1  0  0  0  0  0  0
  194.5630  176.0300  136.4880 N   0  0  0  0  0  1  0  0  0  0  0  0
  193.8680  175.5580  137.6400 C   0  0  0  0  0  0  0  0  0  0  0  0
  193.8600  176.2650  138.6850 O   0  0  0  0  0  0  0  0  0  0  0  0
  186.7540  176.5730  136.1870 C   0  0  0  0  0  2  0  0  0  0  0  0
  187.1140  175.0940  136.1650 C   0  0  0  0  0  2  0  0  0  0  0  0
  186.4290  174.4050  137.2490 N   0  0  0  0  0  2  0  0  0  0  0  0
  186.0560  173.0950  136.7440 C   0  0  0  0  0  2  0  0  0  0  0  0
  181.7910  172.6210  136.9130 C   0  0  0  0  0  3  0  0  0  0  0  0
  182.6190  171.4910  136.9180 C   0  0  0  0  0  3  0  0  0  0  0  0
  183.7470  174.0500  136.8040 C   0  0  0  0  0  3  0  0  0  0  0  0
  184.0110  171.6410  136.8640 C   0  0  0  0  0  3  0  0  0  0  0  0
  184.5750  172.9220  136.8120 C   0  0  0  0  0  0  0  0  0  0  0  0
  182.3530  173.9020  136.8560 C   0  0  0  0  0  0  0  0  0  0  0  0
  182.0730  176.3610  136.7550 C   0  0  0  0  0  0  0  0  0  0  0  0
  180.1880  174.9130  137.1270 O   0  0  0  0  0  1  0  0  0  0  0  0
  181.5060  175.0530  136.8530 N   0  0  0  0  0  0  0  0  0  0  0  0
  182.4230  176.7990  135.6260 O   0  0  0  0  0  0  0  0  0  0  0  0
  182.2840  176.6020  139.1780 C   0  0  0  0  0  3  0  0  0  0  0  0
  182.4690  177.4090  140.4330 C   0  0  0  0  0  2  0  0  0  0  0  0
  182.2830  177.1740  137.9660 C   0  0  0  0  0  0  0  0  0  0  0  0
  182.3700  179.3970  138.9470 C   0  0  0  0  0  3  0  0  0  0  0  0
  182.2200  178.8020  140.2070 O   0  0  0  0  0  0  0  0  0  0  0  0
  182.4130  178.6390  137.8520 C   0  0  0  0  0  3  0  0  0  0  0  0
  1 10  2  0  0  0  0
  2  3  1  0  0  0  0
  4 33  1  1  0  0  0
  4  9  1  0  0  0  0
  5  6  1  0  0  0  0
  6  1  1  0  0  0  0
  7  4  1  0  0  0  0
  7  5  2  0  0  0  0
  8 11  1  6  0  0  0
  8 10  1  0  0  0  0
  8  2  1  0  0  0  0
  8  3  1  0  0  0  0
  9  6  2  0  0  0  0
  9 11  1  0  0  0  0
 12  3  1  0  0  0  0
 12 13  1  0  0  0  0
 13 14  1  0  0  0  0
 15 14  1  6  0  0  0
 15 16  1  0  0  0  0
 15 17  1  0  0  0  0
 16 18  1  6  0  0  0
 16 17  1  0  0  0  0
 18 20  1  0  0  0  0
 19 18  2  0  0  0  0
 20 21  1  6  0  0  0
 20 23  1  0  0  0  0
 23 22  2  0  0  0  0
 23 24  1  0  0  0  0
 25  5  1  0  0  0  0
 25 26  1  0  0  0  0
 26 27  2  0  0  0  0
 26 28  1  0  0  0  0
 28 29  1  6  0  0  0
 28 31  1  0  0  0  0
 30 31  1  0  0  0  0
 31 32  2  0  0  0  0
 34 33  1  0  0  0  0
 34 35  1  0  0  0  0
 36 41  1  0  0  0  0
 36 35  1  0  0  0  0
 37 38  1  0  0  0  0
 39 41  2  0  0  0  0
 39 42  1  0  0  0  0
 40 38  2  0  0  0  0
 41 40  1  0  0  0  0
 42 37  2  0  0  0  0
 43 45  1  0  0  0  0
 43 49  1  0  0  0  0
 45 42  1  0  0  0  0
 45 44  1  0  0  0  0
 46 43  2  0  0  0  0
 47 48  1  0  0  0  0
 49 47  2  0  0  0  0
 50 51  1  0  0  0  0
 51 48  1  0  0  0  0
 52 49  1  0  0  0  0
 52 50  2  0  0  0  0
M  END
>  <MODEL>
5

>  <REMARK>
 VINA RESULT:      -7.1      3.589      7.798
  Name = 
  18 active torsions:
  status: ('A' for Active; 'I' for Inactive)
    1  A    between atoms: S_1  and  N_11
    2  A    between atoms: S_1  and  O_21
    3  A    between atoms: C_3  and  O_47
    4  A    between atoms: C_9  and  C_32
    5  A    between atoms: C_12  and  C_38
    6  A    between atoms: C_13  and  C_18
    7  A    between atoms: C_14  and  O_30
    8  A    between atoms: C_17  and  C_18
    9  A    between atoms: C_17  and  C_25
   10  A    between atoms: C_19  and  C_34
   11  A    between atoms: C_19  and  C_43
   12  A    between atoms: O_21  and  O_47
   13  A    between atoms: C_22  and  C_52
   14  A    between atoms: N_29  and  C_40
   15  A    between atoms: O_30  and  C_43
   16  A    between atoms: C_38  and  C_41
   17  A    between atoms: C_41  and  N_49
   18  A    between atoms: N_49  and  C_52
                            x       y       z     vdW  Elec       q    Type
                         _______ _______ _______ _____ _____    ______ ____

>  <TORSDO>
F 18

$$$$
=
 OpenBabel10222420163D

 52 57  0  0  1  0  0  0  0  0999 V2000
  187.3510  177.1610  144.5690 C   0  0  0  0  0  3  0  0  0  0  0  0
  185.0340  179.4850  143.6370 O   0  0  0  0  0  0  0  0  0  0  0  0
  184.1580  178.4950  143.2030 N   0  0  0  0  0  0  0  0  0  0  0  0
  189.0830  178.1070  141.4130 C   0  0  2  0  0  3  0  0  0  0  0  0
  189.6810  177.1900  143.3750 C   0  0  0  0  0  0  0  0  0  0  0  0
  188.2760  177.5030  143.4830 C   0  0  0  0  0  0  0  0  0  0  0  0
  190.1510  177.5130  142.2160 N   0  0  0  0  0  0  0  0  0  0  0  0
  185.5930  178.3010  143.2830 C   0  0  2  0  0  0  0  0  0  0  0  0
  187.9020  178.0460  142.3360 C   0  0  0  0  0  0  0  0  0  0  0  0
  186.0660  177.5240  144.4810 C   0  0  0  0  0  3  0  0  0  0  0  0
  186.4740  178.3900  142.0090 C   0  0  0  0  0  2  0  0  0  0  0  0
  183.5980  179.0170  141.6030 S   0  0  0  0  0  0  0  0  0  0  0  0
  181.9530  179.0050  142.0980 O   0  0  0  0  0  0  0  0  0  0  0  0
  181.4040  178.0160  141.4230 O   0  0  0  0  0  0  0  0  0  0  0  0
  180.0420  178.3300  141.3480 C   0  0  1  0  0  3  0  0  0  0  0  0
  179.2260  177.3680  140.5380 C   0  0  2  0  0  3  0  0  0  0  0  0
  179.2980  177.2950  141.9440 O   0  0  0  0  0  0  0  0  0  0  0  0
  179.8980  176.1520  139.9340 C   0  0  0  0  0  0  0  0  0  0  0  0
  180.0720  175.1230  140.5690 O   0  0  0  0  0  0  0  0  0  0  0  0
  180.3980  176.2520  138.5260 C   0  0  2  0  0  3  0  0  0  0  0  0
  179.7720  175.2390  137.6910 N   0  0  0  0  0  1  0  0  0  0  0  0
  182.5180  175.9380  139.5010 O   0  0  0  0  0  0  0  0  0  0  0  0
  181.8890  176.1210  138.4720 C   0  0  0  0  0  0  0  0  0  0  0  0
  182.5440  176.1890  137.2830 F   0  0  0  0  0  0  0  0  0  0  0  0
  190.4640  176.6600  144.4050 O   0  0  0  0  0  0  0  0  0  0  0  0
  191.1990  177.4430  145.2990 C   0  0  0  0  0  0  0  0  0  0  0  0
  191.8760  178.4130  144.8520 O   0  0  0  0  0  0  0  0  0  0  0  0
  191.1310  177.1710  146.7740 C   0  0  1  0  0  3  0  0  0  0  0  0
  189.6970  176.9260  147.2180 C   0  0  0  0  0  1  0  0  0  0  0  0
  192.7940  176.1060  148.3890 N   0  0  0  0  0  1  0  0  0  0  0  0
  192.0600  176.0560  147.1680 C   0  0  0  0  0  0  0  0  0  0  0  0
  192.0900  175.0020  146.4760 O   0  0  0  0  0  0  0  0  0  0  0  0
  188.8390  177.2820  140.1580 C   0  0  0  0  0  2  0  0  0  0  0  0
  189.1130  178.1260  138.9200 C   0  0  0  0  0  2  0  0  0  0  0  0
  190.1020  177.4630  138.0830 N   0  0  0  0  0  2  0  0  0  0  0  0
  190.3810  176.1790  138.7020 C   0  0  0  0  0  2  0  0  0  0  0  0
  192.5580  173.6590  135.9890 C   0  0  0  0  0  3  0  0  0  0  0  0
  191.2260  173.3590  136.3040 C   0  0  0  0  0  3  0  0  0  0  0  0
  192.4590  175.6010  137.4380 C   0  0  0  0  0  3  0  0  0  0  0  0
  190.5120  174.1780  137.1870 C   0  0  0  0  0  3  0  0  0  0  0  0
  191.1280  175.3030  137.7520 C   0  0  0  0  0  0  0  0  0  0  0  0
  193.1770  174.7800  136.5560 C   0  0  0  0  0  0  0  0  0  0  0  0
  195.5800  174.1800  136.5920 C   0  0  0  0  0  0  0  0  0  0  0  0
  194.8460  176.3110  135.7500 O   0  0  0  0  0  1  0  0  0  0  0  0
  194.5340  175.0860  136.2310 N   0  0  0  0  0  0  0  0  0  0  0  0
  195.7920  173.1660  135.8750 O   0  0  0  0  0  0  0  0  0  0  0  0
  195.7710  174.6040  138.9910 C   0  0  0  0  0  3  0  0  0  0  0  0
  196.5560  174.8660  140.2470 C   0  0  0  0  0  2  0  0  0  0  0  0
  196.3750  174.4100  137.8110 C   0  0  0  0  0  0  0  0  0  0  0  0
  198.5480  174.9400  138.7650 C   0  0  0  0  0  3  0  0  0  0  0  0
  197.8950  175.2850  139.9560 O   0  0  0  0  0  0  0  0  0  0  0  0
  197.8450  174.5060  137.7200 C   0  0  0  0  0  3  0  0  0  0  0  0
  3  8  1  0  0  0  0
  3  2  1  0  0  0  0
  4 33  1  6  0  0  0
  4  7  1  0  0  0  0
  4  9  1  0  0  0  0
  5  6  1  0  0  0  0
  5 25  1  0  0  0  0
  6  1  1  0  0  0  0
  7  5  2  0  0  0  0
  8 11  1  6  0  0  0
  8  2  1  0  0  0  0
  8 10  1  0  0  0  0
  9  6  2  0  0  0  0
 10  1  2  0  0  0  0
 11  9  1  0  0  0  0
 12 13  1  0  0  0  0
 12  3  1  0  0  0  0
 14 13  1  0  0  0  0
 15 14  1  6  0  0  0
 15 17  1  0  0  0  0
 16 18  1  6  0  0  0
 16 15  1  0  0  0  0
 16 17  1  0  0  0  0
 18 19  2  0  0  0  0
 20 21  1  6  0  0  0
 20 18  1  0  0  0  0
 23 20  1  0  0  0  0
 23 22  2  0  0  0  0
 24 23  1  0  0  0  0
 25 26  1  0  0  0  0
 26 28  1  0  0  0  0
 27 26  2  0  0  0  0
 28 31  1  0  0  0  0
 28 29  1  6  0  0  0
 31 30  1  0  0  0  0
 32 31  2  0  0  0  0
 34 33  1  0  0  0  0
 35 36  1  0  0  0  0
 35 34  1  0  0  0  0
 37 38  2  0  0  0  0
 37 42  1  0  0  0  0
 38 40  1  0  0  0  0
 39 41  1  0  0  0  0
 40 41  2  0  0  0  0
 41 36  1  0  0  0  0
 42 39  2  0  0  0  0
 43 49  1  0  0  0  0
 44 45  1  0  0  0  0
 45 42  1  0  0  0  0
 45 43  1  0  0  0  0
 46 43  2  0  0  0  0
 47 48  1  0  0  0  0
 49 47  2  0  0  0  0
 50 51  1  0  0  0  0
 51 48  1  0  0  0  0
 52 49  1  0  0  0  0
 52 50  2  0  0  0  0
M  END
>  <MODEL>
6

>  <REMARK>
 VINA RESULT:      -7.1      3.624     11.291
  Name = 
  18 active torsions:
  status: ('A' for Active; 'I' for Inactive)
    1  A    between atoms: S_1  and  N_11
    2  A    between atoms: S_1  and  O_21
    3  A    between atoms: C_3  and  O_47
    4  A    between atoms: C_9  and  C_32
    5  A    between atoms: C_12  and  C_38
    6  A    between atoms: C_13  and  C_18
    7  A    between atoms: C_14  and  O_30
    8  A    between atoms: C_17  and  C_18
    9  A    between atoms: C_17  and  C_25
   10  A    between atoms: C_19  and  C_34
   11  A    between atoms: C_19  and  C_43
   12  A    between atoms: O_21  and  O_47
   13  A    between atoms: C_22  and  C_52
   14  A    between atoms: N_29  and  C_40
   15  A    between atoms: O_30  and  C_43
   16  A    between atoms: C_38  and  C_41
   17  A    between atoms: C_41  and  N_49
   18  A    between atoms: N_49  and  C_52
                            x       y       z     vdW  Elec       q    Type
                         _______ _______ _______ _____ _____    ______ ____

>  <TORSDO>
F 18

$$$$
=
 OpenBabel10222420163D

 52 57  0  0  1  0  0  0  0  0999 V2000
  189.5050  176.9730  136.0970 C   0  0  0  0  0  3  0  0  0  0  0  0
  186.2150  176.0840  135.9470 O   0  0  0  0  0  0  0  0  0  0  0  0
  185.8400  177.3800  135.6070 N   0  0  0  0  0  0  0  0  0  0  0  0
  188.9980  176.9590  139.7850 C   0  0  2  0  0  3  0  0  0  0  0  0
  190.7460  176.7370  138.3910 C   0  0  0  0  0  0  0  0  0  0  0  0
  189.5730  176.8530  137.5580 C   0  0  0  0  0  0  0  0  0  0  0  0
  190.4450  176.8030  139.6450 N   0  0  0  0  0  0  0  0  0  0  0  0
  187.0590  177.0740  136.3290 C   0  0  2  0  0  0  0  0  0  0  0  0
  188.5290  176.9840  138.3610 C   0  0  0  0  0  0  0  0  0  0  0  0
  188.3140  177.0920  135.5000 C   0  0  0  0  0  3  0  0  0  0  0  0
  187.1350  177.2630  137.8670 C   0  0  0  0  0  2  0  0  0  0  0  0
  184.4680  177.7760  136.6600 S   0  0  0  0  0  0  0  0  0  0  0  0
  183.5630  176.4250  136.1080 O   0  0  0  0  0  0  0  0  0  0  0  0
  182.5860  176.2920  136.9810 O   0  0  0  0  0  0  0  0  0  0  0  0
  183.2140  176.1750  138.2260 C   0  0  1  0  0  3  0  0  0  0  0  0
  182.2960  175.8120  139.3540 C   0  0  2  0  0  3  0  0  0  0  0  0
  183.0820  174.8520  138.6850 O   0  0  0  0  0  0  0  0  0  0  0  0
  180.8310  175.5570  139.0640 C   0  0  0  0  0  0  0  0  0  0  0  0
  180.4350  174.4980  138.6000 O   0  0  0  0  0  0  0  0  0  0  0  0
  179.8600  176.6680  139.3210 C   0  0  2  0  0  3  0  0  0  0  0  0
  180.0180  177.7210  138.3300 N   0  0  0  0  0  1  0  0  0  0  0  0
  179.5150  176.6560  141.6500 O   0  0  0  0  0  0  0  0  0  0  0  0
  180.0300  177.2240  140.7010 C   0  0  0  0  0  0  0  0  0  0  0  0
  180.7680  178.3470  140.9050 F   0  0  0  0  0  0  0  0  0  0  0  0
  192.0440  176.5190  137.9190 O   0  0  0  0  0  0  0  0  0  0  0  0
  192.5430  175.2580  137.5840 C   0  0  0  0  0  0  0  0  0  0  0  0
  191.9230  174.2280  137.9770 O   0  0  0  0  0  0  0  0  0  0  0  0
  193.7620  175.1330  136.7150 C   0  0  1  0  0  3  0  0  0  0  0  0
  194.2040  176.4950  136.1990 C   0  0  0  0  0  1  0  0  0  0  0  0
  194.8150  172.9790  137.5850 N   0  0  0  0  0  1  0  0  0  0  0  0
  194.8640  174.3940  137.4220 C   0  0  0  0  0  0  0  0  0  0  0  0
  195.9090  175.0160  137.7590 O   0  0  0  0  0  0  0  0  0  0  0  0
  188.6690  178.2650  140.4930 C   0  0  0  0  0  2  0  0  0  0  0  0
  188.9910  178.1480  141.9760 C   0  0  0  0  0  2  0  0  0  0  0  0
  188.0630  177.2220  142.6090 N   0  0  0  0  0  2  0  0  0  0  0  0
  186.8050  177.9310  142.7650 C   0  0  0  0  0  2  0  0  0  0  0  0
  185.7930  178.2040  146.9290 C   0  0  0  0  0  3  0  0  0  0  0  0
  184.8800  178.6390  145.9590 C   0  0  0  0  0  3  0  0  0  0  0  0
  187.3540  177.5890  145.1790 C   0  0  0  0  0  3  0  0  0  0  0  0
  185.2050  178.5510  144.6000 C   0  0  0  0  0  3  0  0  0  0  0  0
  186.4420  178.0210  144.2090 C   0  0  0  0  0  0  0  0  0  0  0  0
  187.0310  177.6790  146.5410 C   0  0  0  0  0  0  0  0  0  0  0  0
  189.2710  177.7990  147.5920 C   0  0  0  0  0  0  0  0  0  0  0  0
  187.6590  176.1530  148.2900 O   0  0  0  0  0  1  0  0  0  0  0  0
  187.9590  177.2340  147.5320 N   0  0  0  0  0  0  0  0  0  0  0  0
  189.4350  178.9160  148.1530 O   0  0  0  0  0  0  0  0  0  0  0  0
  190.5360  177.0550  145.6390 C   0  0  0  0  0  3  0  0  0  0  0  0
  191.6750  176.3290  144.9780 C   0  0  0  0  0  2  0  0  0  0  0  0
  190.4110  177.1020  146.9720 C   0  0  0  0  0  0  0  0  0  0  0  0
  192.2720  175.5640  147.2650 C   0  0  0  0  0  3  0  0  0  0  0  0
  192.3020  175.4020  145.8730 O   0  0  0  0  0  0  0  0  0  0  0  0
  191.3800  176.3830  147.8220 C   0  0  0  0  0  3  0  0  0  0  0  0
  1  6  1  0  0  0  0
  2  8  1  0  0  0  0
  3  2  1  0  0  0  0
  3  8  1  0  0  0  0
  3 12  1  0  0  0  0
  4 33  1  6  0  0  0
  5  7  2  0  0  0  0
  6  9  2  0  0  0  0
  6  5  1  0  0  0  0
  7  4  1  0  0  0  0
  8 10  1  6  0  0  0
  8 11  1  0  0  0  0
  9  4  1  0  0  0  0
 10  1  2  0  0  0  0
 11  9  1  0  0  0  0
 13 12  1  0  0  0  0
 13 14  1  0  0  0  0
 15 14  1  6  0  0  0
 15 17  1  0  0  0  0
 15 16  1  0  0  0  0
 16 18  1  6  0  0  0
 17 16  1  0  0  0  0
 18 20  1  0  0  0  0
 19 18  2  0  0  0  0
 20 21  1  6  0  0  0
 20 23  1  0  0  0  0
 23 24  1  0  0  0  0
 23 22  2  0  0  0  0
 25  5  1  0  0  0  0
 26 25  1  0  0  0  0
 26 27  2  0  0  0  0
 28 29  1  1  0  0  0
 28 31  1  0  0  0  0
 28 26  1  0  0  0  0
 31 30  1  0  0  0  0
 31 32  2  0  0  0  0
 33 34  1  0  0  0  0
 34 35  1  0  0  0  0
 35 36  1  0  0  0  0
 36 41  1  0  0  0  0
 38 37  2  0  0  0  0
 39 42  2  0  0  0  0
 40 38  1  0  0  0  0
 41 40  2  0  0  0  0
 41 39  1  0  0  0  0
 42 37  1  0  0  0  0
 42 45  1  0  0  0  0
 43 46  2  0  0  0  0
 45 43  1  0  0  0  0
 45 44  1  0  0  0  0
 47 49  2  0  0  0  0
 48 47  1  0  0  0  0
 48 51  1  0  0  0  0
 49 43  1  0  0  0  0
 49 52  1  0  0  0  0
 50 52  2  0  0  0  0
 51 50  1  0  0  0  0
M  END
>  <MODEL>
7

>  <REMARK>
 VINA RESULT:      -7.0      3.923     10.241
  Name = 
  18 active torsions:
  status: ('A' for Active; 'I' for Inactive)
    1  A    between atoms: S_1  and  N_11
    2  A    between atoms: S_1  and  O_21
    3  A    between atoms: C_3  and  O_47
    4  A    between atoms: C_9  and  C_32
    5  A    between atoms: C_12  and  C_38
    6  A    between atoms: C_13  and  C_18
    7  A    between atoms: C_14  and  O_30
    8  A    between atoms: C_17  and  C_18
    9  A    between atoms: C_17  and  C_25
   10  A    between atoms: C_19  and  C_34
   11  A    between atoms: C_19  and  C_43
   12  A    between atoms: O_21  and  O_47
   13  A    between atoms: C_22  and  C_52
   14  A    between atoms: N_29  and  C_40
   15  A    between atoms: O_30  and  C_43
   16  A    between atoms: C_38  and  C_41
   17  A    between atoms: C_41  and  N_49
   18  A    between atoms: N_49  and  C_52
                            x       y       z     vdW  Elec       q    Type
                         _______ _______ _______ _____ _____    ______ ____

>  <TORSDO>
F 18

$$$$
=
 OpenBabel10222420163D

 52 57  0  0  1  0  0  0  0  0999 V2000
  190.4010  178.2390  143.2900 C   0  0  0  0  0  3  0  0  0  0  0  0
  189.6090  176.7660  140.3170 O   0  0  0  0  0  0  0  0  0  0  0  0
  189.4600  178.0030  139.6980 N   0  0  0  0  0  0  0  0  0  0  0  0
  186.8970  177.4230  144.2480 C   0  0  2  0  0  3  0  0  0  0  0  0
  188.8230  177.8190  145.3370 C   0  0  0  0  0  0  0  0  0  0  0  0
  189.1350  177.8590  143.9280 C   0  0  0  0  0  0  0  0  0  0  0  0
  187.5680  177.5840  145.5380 N   0  0  0  0  0  0  0  0  0  0  0  0
  189.3110  177.8110  141.1280 C   0  0  2  0  0  0  0  0  0  0  0  0
  188.0130  177.6260  143.2670 C   0  0  0  0  0  0  0  0  0  0  0  0
  190.4940  178.2330  141.9560 C   0  0  0  0  0  3  0  0  0  0  0  0
  187.9020  177.7150  141.7680 C   0  0  0  0  0  2  0  0  0  0  0  0
  187.9320  177.9130  138.8040 S   0  0  0  0  0  0  0  0  0  0  0  0
  188.6980  178.3010  137.3170 O   0  0  0  0  0  0  0  0  0  0  0  0
  189.1560  177.1520  136.8620 O   0  0  0  0  0  0  0  0  0  0  0  0
  188.6740  177.0530  135.5520 C   0  0  1  0  0  3  0  0  0  0  0  0
  188.0580  175.7290  135.2140 C   0  0  2  0  0  3  0  0  0  0  0  0
  187.2830  176.8460  135.5880 O   0  0  0  0  0  0  0  0  0  0  0  0
  187.9590  174.6640  136.2860 C   0  0  0  0  0  0  0  0  0  0  0  0
  187.0880  174.6830  137.1430 O   0  0  0  0  0  0  0  0  0  0  0  0
  188.9980  173.5850  136.3030 C   0  0  2  0  0  3  0  0  0  0  0  0
  190.0390  173.8660  135.3270 N   0  0  0  0  0  1  0  0  0  0  0  0
  188.7940  171.5660  135.1090 O   0  0  0  0  0  0  0  0  0  0  0  0
  188.3870  172.2440  136.0390 C   0  0  0  0  0  0  0  0  0  0  0  0
  187.3930  171.7700  136.8360 F   0  0  0  0  0  0  0  0  0  0  0  0
  189.7570  177.9540  146.3680 O   0  0  0  0  0  0  0  0  0  0  0  0
  190.0120  176.9600  147.3170 C   0  0  0  0  0  0  0  0  0  0  0  0
  189.1960  176.7970  148.2690 O   0  0  0  0  0  0  0  0  0  0  0  0
  191.2030  176.0590  147.1660 C   0  0  1  0  0  3  0  0  0  0  0  0
  191.7130  176.0650  145.7320 C   0  0  0  0  0  1  0  0  0  0  0  0
  193.4350  175.5820  148.3070 N   0  0  0  0  0  1  0  0  0  0  0  0
  192.2750  176.3990  148.1650 C   0  0  0  0  0  0  0  0  0  0  0  0
  192.2130  177.4920  148.7910 O   0  0  0  0  0  0  0  0  0  0  0  0
  185.8170  178.4790  144.0750 C   0  0  0  0  0  2  0  0  0  0  0  0
  185.1210  178.7350  145.4050 C   0  0  0  0  0  2  0  0  0  0  0  0
  183.7170  179.0440  145.1730 N   0  0  0  0  0  2  0  0  0  0  0  0
  183.5700  179.2770  143.7470 C   0  0  0  0  0  2  0  0  0  0  0  0
  179.5750  178.3300  142.4880 C   0  0  0  0  0  3  0  0  0  0  0  0
  179.8470  178.5380  143.8460 C   0  0  0  0  0  3  0  0  0  0  0  0
  181.9050  178.7450  141.9600 C   0  0  0  0  0  3  0  0  0  0  0  0
  181.1480  178.8490  144.2620 C   0  0  0  0  0  3  0  0  0  0  0  0
  182.1770  178.9570  143.3170 C   0  0  0  0  0  0  0  0  0  0  0  0
  180.6020  178.4320  141.5430 C   0  0  0  0  0  0  0  0  0  0  0  0
  180.6430  176.9710  139.5430 C   0  0  0  0  0  0  0  0  0  0  0  0
  179.9240  179.2620  139.3910 O   0  0  0  0  0  1  0  0  0  0  0  0
  180.3220  178.2210  140.1580 N   0  0  0  0  0  0  0  0  0  0  0  0
  179.8670  175.9900  139.6980 O   0  0  0  0  0  0  0  0  0  0  0  0
  182.4160  175.6070  138.5600 C   0  0  0  0  0  3  0  0  0  0  0  0
  183.6980  175.4250  137.7960 C   0  0  0  0  0  2  0  0  0  0  0  0
  181.8880  176.8210  138.7690 C   0  0  0  0  0  0  0  0  0  0  0  0
  183.8340  177.9050  137.7950 C   0  0  0  0  0  3  0  0  0  0  0  0
  184.4440  176.6460  137.7150 O   0  0  0  0  0  0  0  0  0  0  0  0
  182.6010  178.0190  138.2880 C   0  0  0  0  0  3  0  0  0  0  0  0
  1  6  1  0  0  0  0
  2  8  1  0  0  0  0
  3  2  1  0  0  0  0
  3  8  1  0  0  0  0
  4 33  1  6  0  0  0
  4  7  1  0  0  0  0
  5  7  2  0  0  0  0
  5 25  1  0  0  0  0
  6  5  1  0  0  0  0
  8 11  1  1  0  0  0
  8 10  1  0  0  0  0
  9  6  2  0  0  0  0
  9  4  1  0  0  0  0
 10  1  2  0  0  0  0
 11  9  1  0  0  0  0
 12  3  1  0  0  0  0
 13 12  1  0  0  0  0
 14 13  1  0  0  0  0
 15 17  1  0  0  0  0
 15 14  1  1  0  0  0
 16 15  1  0  0  0  0
 16 17  1  0  0  0  0
 16 18  1  1  0  0  0
 18 20  1  0  0  0  0
 18 19  2  0  0  0  0
 20 21  1  6  0  0  0
 22 23  2  0  0  0  0
 23 20  1  0  0  0  0
 23 24  1  0  0  0  0
 25 26  1  0  0  0  0
 26 27  2  0  0  0  0
 28 29  1  6  0  0  0
 28 26  1  0  0  0  0
 28 31  1  0  0  0  0
 31 30  1  0  0  0  0
 31 32  2  0  0  0  0
 33 34  1  0  0  0  0
 35 34  1  0  0  0  0
 36 35  1  0  0  0  0
 37 38  1  0  0  0  0
 38 40  2  0  0  0  0
 39 41  2  0  0  0  0
 41 36  1  0  0  0  0
 41 40  1  0  0  0  0
 42 39  1  0  0  0  0
 42 37  2  0  0  0  0
 43 46  2  0  0  0  0
 43 45  1  0  0  0  0
 44 45  1  0  0  0  0
 45 42  1  0  0  0  0
 47 49  2  0  0  0  0
 48 47  1  0  0  0  0
 49 43  1  0  0  0  0
 50 52  2  0  0  0  0
 51 50  1  0  0  0  0
 51 48  1  0  0  0  0
 52 49  1  0  0  0  0
M  END
>  <MODEL>
8

>  <REMARK>
 VINA RESULT:      -7.0      4.630      6.469
  Name = 
  18 active torsions:
  status: ('A' for Active; 'I' for Inactive)
    1  A    between atoms: S_1  and  N_11
    2  A    between atoms: S_1  and  O_21
    3  A    between atoms: C_3  and  O_47
    4  A    between atoms: C_9  and  C_32
    5  A    between atoms: C_12  and  C_38
    6  A    between atoms: C_13  and  C_18
    7  A    between atoms: C_14  and  O_30
    8  A    between atoms: C_17  and  C_18
    9  A    between atoms: C_17  and  C_25
   10  A    between atoms: C_19  and  C_34
   11  A    between atoms: C_19  and  C_43
   12  A    between atoms: O_21  and  O_47
   13  A    between atoms: C_22  and  C_52
   14  A    between atoms: N_29  and  C_40
   15  A    between atoms: O_30  and  C_43
   16  A    between atoms: C_38  and  C_41
   17  A    between atoms: C_41  and  N_49
   18  A    between atoms: N_49  and  C_52
                            x       y       z     vdW  Elec       q    Type
                         _______ _______ _______ _____ _____    ______ ____

>  <TORSDO>
F 18

$$$$
=
 OpenBabel10222420163D

 52 58  0  0  1  0  0  0  0  0999 V2000
  187.1690  177.1730  144.7160 C   0  0  0  0  0  3  0  0  0  0  0  0
  184.9060  179.5770  143.8540 O   0  0  0  0  0  0  0  0  0  0  0  0
  184.0180  178.6230  143.3690 N   0  0  2  0  0  0  0  0  0  0  0  0
  188.9550  178.2150  141.6200 C   0  0  2  0  0  3  0  0  0  0  0  0
  189.5130  177.2070  143.5500 C   0  0  0  0  0  0  0  0  0  0  0  0
  188.1130  177.5420  143.6550 C   0  0  0  0  0  0  0  0  0  0  0  0
  190.0030  177.5690  142.4110 N   0  0  0  0  0  0  0  0  0  0  0  0
  185.4480  178.3980  143.4580 C   0  0  2  0  0  0  0  0  0  0  0  0
  187.7630  178.1390  142.5270 C   0  0  0  0  0  0  0  0  0  0  0  0
  185.8920  177.5640  144.6270 C   0  0  0  0  0  3  0  0  0  0  0  0
  186.3450  178.5230  142.1990 C   0  0  0  0  0  2  0  0  0  0  0  0
  183.4860  179.2200  141.7860 S   0  0  2  0  0  3  0  0  0  0  0  0
  183.0840  177.6400  141.2470 O   0  0  0  0  0  0  0  0  0  0  0  0
  183.0910  177.7200  139.9310 O   0  0  0  0  0  0  0  0  0  0  0  0
  183.9550  178.7770  139.6280 C   0  0  2  0  0  0  0  0  0  0  0  0
  184.7740  178.5770  138.3890 C   0  0  2  0  0  3  0  0  0  0  0  0
  183.5840  179.3340  138.3910 O   0  0  0  0  0  0  0  0  0  0  0  0
  184.5720  177.3220  137.5640 C   0  0  0  0  0  0  0  0  0  0  0  0
  183.4650  176.9550  137.2000 O   0  0  0  0  0  0  0  0  0  0  0  0
  185.7780  176.4980  137.2320 C   0  0  2  0  0  3  0  0  0  0  0  0
  186.6060  177.1800  136.2500 N   0  0  0  0  0  1  0  0  0  0  0  0
  185.4990  174.1710  137.4540 O   0  0  0  0  0  0  0  0  0  0  0  0
  185.3830  175.1440  136.7280 C   0  0  0  0  0  0  0  0  0  0  0  0
  184.8820  174.9960  135.4730 F   0  0  0  0  0  0  0  0  0  0  0  0
  190.2740  176.6210  144.5660 O   0  0  0  0  0  0  0  0  0  0  0  0
  191.0920  177.3460  145.4360 C   0  0  0  0  0  0  0  0  0  0  0  0
  191.9420  178.1480  144.9540 O   0  0  0  0  0  0  0  0  0  0  0  0
  190.9160  177.2190  146.9220 C   0  0  1  0  0  3  0  0  0  0  0  0
  189.5090  176.7520  147.2660 C   0  0  0  0  0  1  0  0  0  0  0  0
  192.3040  175.0790  146.9590 N   0  0  0  0  0  1  0  0  0  0  0  0
  191.9810  176.3470  147.5260 C   0  0  0  0  0  0  0  0  0  0  0  0
  192.6910  176.7980  148.4670 O   0  0  0  0  0  0  0  0  0  0  0  0
  188.7120  177.4470  140.3300 C   0  0  0  0  0  2  0  0  0  0  0  0
  189.9050  177.6060  139.3970 C   0  0  0  0  0  2  0  0  0  0  0  0
  190.6100  176.3380  139.2800 N   0  0  0  0  0  2  0  0  0  0  0  0
  191.7170  176.5570  138.3670 C   0  0  0  0  0  2  0  0  0  0  0  0
  192.5440  172.9660  136.1620 C   0  0  0  0  0  3  0  0  0  0  0  0
  191.2230  173.4130  136.2970 C   0  0  0  0  0  3  0  0  0  0  0  0
  193.3160  174.8650  137.4580 C   0  0  0  0  0  3  0  0  0  0  0  0
  190.9480  174.5840  137.0140 C   0  0  0  0  0  3  0  0  0  0  0  0
  191.9970  175.3130  137.5920 C   0  0  0  0  0  0  0  0  0  0  0  0
  193.5920  173.6900  136.7420 C   0  0  0  0  0  0  0  0  0  0  0  0
  195.6620  172.7660  137.7410 C   0  0  0  0  0  0  0  0  0  0  0  0
  195.5850  173.4160  135.4260 O   0  0  0  0  0  1  0  0  0  0  0  0
  194.9390  173.2340  136.6000 N   0  0  0  0  0  0  0  0  0  0  0  0
  195.4640  171.5930  138.1580 O   0  0  0  0  0  0  0  0  0  0  0  0
  196.1770  174.4200  139.4640 C   0  0  0  0  0  3  0  0  0  0  0  0
  197.1040  175.3590  140.1850 C   0  0  0  0  0  2  0  0  0  0  0  0
  196.5990  173.6580  138.4450 C   0  0  0  0  0  0  0  0  0  0  0  0
  198.7760  174.7410  138.4550 C   0  0  0  0  0  3  0  0  0  0  0  0
  198.2820  175.6340  139.4160 O   0  0  0  0  0  0  0  0  0  0  0  0
  197.9930  173.7750  137.9770 C   0  0  0  0  0  3  0  0  0  0  0  0
  3  8  1  0  0  0  0
  3  2  1  1  0  0  0
  4 33  1  6  0  0  0
  4  7  1  0  0  0  0
  4  9  1  0  0  0  0
  5  6  1  0  0  0  0
  5 25  1  0  0  0  0
  6  1  1  0  0  0  0
  7  5  2  0  0  0  0
  8 11  1  6  0  0  0
  8  2  1  0  0  0  0
  8 10  1  0  0  0  0
  9  6  2  0  0  0  0
 10  1  2  0  0  0  0
 11  9  1  0  0  0  0
 12 13  1  6  0  0  0
 12  3  1  0  0  0  0
 14 13  1  0  0  0  0
 15 17  1  6  0  0  0
 15 14  1  0  0  0  0
 15 12  1  0  0  0  0
 16 18  1  6  0  0  0
 16 17  1  0  0  0  0
 16 15  1  0  0  0  0
 19 18  2  0  0  0  0
 20 21  1  6  0  0  0
 20 18  1  0  0  0  0
 23 20  1  0  0  0  0
 23 22  2  0  0  0  0
 24 23  1  0  0  0  0
 25 26  1  0  0  0  0
 26 28  1  0  0  0  0
 27 26  2  0  0  0  0
 28 29  1  6  0  0  0
 28 31  1  0  0  0  0
 30 31  1  0  0  0  0
 31 32  2  0  0  0  0
 34 33  1  0  0  0  0
 35 34  1  0  0  0  0
 36 35  1  0  0  0  0
 37 38  2  0  0  0  0
 37 42  1  0  0  0  0
 38 40  1  0  0  0  0
 39 41  1  0  0  0  0
 40 41  2  0  0  0  0
 41 36  1  0  0  0  0
 42 39  2  0  0  0  0
 43 46  2  0  0  0  0
 43 49  1  0  0  0  0
 44 45  1  0  0  0  0
 45 42  1  0  0  0  0
 45 43  1  0  0  0  0
 47 48  1  0  0  0  0
 49 47  2  0  0  0  0
 50 51  1  0  0  0  0
 51 48  1  0  0  0  0
 52 49  1  0  0  0  0
 52 50  2  0  0  0  0
M  END
>  <MODEL>
9

>  <REMARK>
 VINA RESULT:      -7.0      3.391     10.273
  Name = 
  18 active torsions:
  status: ('A' for Active; 'I' for Inactive)
    1  A    between atoms: S_1  and  N_11
    2  A    between atoms: S_1  and  O_21
    3  A    between atoms: C_3  and  O_47
    4  A    between atoms: C_9  and  C_32
    5  A    between atoms: C_12  and  C_38
    6  A    between atoms: C_13  and  C_18
    7  A    between atoms: C_14  and  O_30
    8  A    between atoms: C_17  and  C_18
    9  A    between atoms: C_17  and  C_25
   10  A    between atoms: C_19  and  C_34
   11  A    between atoms: C_19  and  C_43
   12  A    between atoms: O_21  and  O_47
   13  A    between atoms: C_22  and  C_52
   14  A    between atoms: N_29  and  C_40
   15  A    between atoms: O_30  and  C_43
   16  A    between atoms: C_38  and  C_41
   17  A    between atoms: C_41  and  N_49
   18  A    between atoms: N_49  and  C_52
                            x       y       z     vdW  Elec       q    Type
                         _______ _______ _______ _____ _____    ______ ____

>  <TORSDO>
F 18

$$$$
