=
 OpenBabel10222416403D

 30 32  0  0  0  0  0  0  0  0999 V2000
  188.1350  176.6610  143.3930 C   0  0  0  0  0  0  0  0  0  0  0  0
  187.9980  175.4150  143.2530 O   0  0  0  0  0  0  0  0  0  0  0  0
  190.2630  176.7210  142.0510 C   0  0  0  0  0  0  0  0  0  0  0  0
  190.5220  175.5260  142.3560 O   0  0  0  0  0  0  0  0  0  0  0  0
  189.0940  177.3770  142.5850 N   0  0  0  0  0  0  0  0  0  0  0  0
  189.3440  177.4510  147.4690 C   0  0  0  0  0  3  0  0  0  0  0  0
  185.6140  178.7270  146.1500 N   0  0  0  0  0  0  0  0  0  0  0  0
  185.9820  177.8010  143.9770 C   0  0  0  0  0  0  0  0  0  0  0  0
  185.5000  177.5860  142.6540 N   0  0  0  0  0  1  0  0  0  0  0  0
  185.1750  178.4840  144.8880 C   0  0  0  0  0  3  0  0  0  0  0  0
  188.9490  177.1880  146.1560 C   0  0  0  0  0  3  0  0  0  0  0  0
  188.4930  178.1490  148.3300 C   0  0  0  0  0  3  0  0  0  0  0  0
  187.6980  177.6250  145.6860 C   0  0  0  0  0  0  0  0  0  0  0  0
  186.8390  178.3200  146.5700 C   0  0  0  0  0  0  0  0  0  0  0  0
  187.2430  178.5810  147.8820 C   0  0  0  0  0  3  0  0  0  0  0  0
  187.2660  177.3700  144.3660 C   0  0  0  0  0  0  0  0  0  0  0  0
  188.8730  178.7930  142.2840 C   0  0  0  0  0  2  0  0  0  0  0  0
  187.9100  178.9500  141.1500 C   0  0  0  0  0  0  0  0  0  0  0  0
  186.9600  179.7100  141.2680 O   0  0  0  0  0  0  0  0  0  0  0  0
  186.8010  177.9930  139.1360 C   0  0  0  0  0  2  0  0  0  0  0  0
  187.1230  178.1710  137.6630 C   0  0  0  0  0  2  0  0  0  0  0  0
  188.1070  178.1680  139.8870 C   0  0  0  0  0  3  0  0  0  0  0  0
  189.0530  178.8690  138.9410 C   0  0  0  0  0  2  0  0  0  0  0  0
  188.6140  178.4330  137.5620 C   0  0  0  0  0  2  0  0  0  0  0  0
  191.1970  177.4350  141.1250 C   0  0  0  0  0  2  0  0  0  0  0  0
  192.4710  176.8970  139.1350 N   0  0  0  0  0  0  0  0  0  0  0  0
  191.4780  176.6090  139.9150 C   0  0  0  0  0  3  0  0  0  0  0  0
  192.7820  176.1300  137.9680 C   0  0  0  0  0  0  0  0  0  0  0  0
  193.7150  176.5080  137.2140 O   0  0  0  0  0  0  0  0  0  0  0  0
  192.0280  174.8880  137.6240 C   0  0  0  0  0  1  0  0  0  0  0  0
  1 16  1  0  0  0  0
  2  1  2  0  0  0  0
  3  4  2  0  0  0  0
  3  5  1  0  0  0  0
  5  1  1  0  0  0  0
  6 12  1  0  0  0  0
  7 14  1  0  0  0  0
  8 16  2  0  0  0  0
  8 10  1  0  0  0  0
  9  8  1  0  0  0  0
 10  7  2  0  0  0  0
 11  6  2  0  0  0  0
 13 11  1  0  0  0  0
 13 14  2  0  0  0  0
 14 15  1  0  0  0  0
 15 12  2  0  0  0  0
 16 13  1  0  0  0  0
 17  5  1  0  0  0  0
 18 19  2  0  0  0  0
 18 17  1  0  0  0  0
 20 22  1  0  0  0  0
 21 20  1  0  0  0  0
 22 18  1  0  0  0  0
 23 22  1  0  0  0  0
 24 21  1  0  0  0  0
 24 23  1  0  0  0  0
 25  3  1  0  0  0  0
 26 27  2  0  0  0  0
 27 25  1  0  0  0  0
 28 26  1  0  0  0  0
 29 28  2  0  0  0  0
 30 28  1  0  0  0  0
M  END
>  <MODEL>
1

>  <REMARK>
 VINA RESULT:      -7.6      0.000      0.000
  Name = 
  7 active torsions:
  status: ('A' for Active; 'I' for Inactive)
    1  A    between atoms: C_1  and  N_6
    2  A    between atoms: C_5  and  C_29
    3  A    between atoms: C_8  and  C_15
    4  A    between atoms: C_13  and  C_19
    5  A    between atoms: C_13  and  N_30
    6  A    between atoms: C_15  and  C_23
    7  A    between atoms: C_19  and  C_20
                            x       y       z     vdW  Elec       q    Type
                         _______ _______ _______ _____ _____    ______ ____

>  <TORSDO>
F 7

$$$$
=
 OpenBabel10222416403D

 30 32  0  0  0  0  0  0  0  0999 V2000
  187.8870  176.7750  143.4720 C   0  0  0  0  0  0  0  0  0  0  0  0
  187.6810  175.5340  143.3900 O   0  0  0  0  0  0  0  0  0  0  0  0
  190.0620  176.6420  142.2130 C   0  0  0  0  0  0  0  0  0  0  0  0
  190.2380  175.4520  142.5880 O   0  0  0  0  0  0  0  0  0  0  0  0
  188.9150  177.3910  142.6670 N   0  0  0  0  0  0  0  0  0  0  0  0
  183.9670  178.1890  142.3190 C   0  0  0  0  0  3  0  0  0  0  0  0
  185.4380  179.0780  146.1040 N   0  0  0  0  0  0  0  0  0  0  0  0
  187.4890  177.9360  145.6570 C   0  0  0  0  0  0  0  0  0  0  0  0
  188.7670  177.5120  146.1230 N   0  0  0  0  0  1  0  0  0  0  0  0
  186.6710  178.6800  146.5080 C   0  0  0  0  0  3  0  0  0  0  0  0
  185.2370  177.7410  142.6890 C   0  0  0  0  0  3  0  0  0  0  0  0
  183.1920  178.9220  143.2200 C   0  0  0  0  0  3  0  0  0  0  0  0
  185.7450  178.0180  143.9690 C   0  0  0  0  0  0  0  0  0  0  0  0
  184.9580  178.7720  144.8700 C   0  0  0  0  0  0  0  0  0  0  0  0
  183.6880  179.2150  144.4930 C   0  0  0  0  0  3  0  0  0  0  0  0
  187.0280  177.5840  144.3730 C   0  0  0  0  0  0  0  0  0  0  0  0
  188.7900  178.8000  142.2870 C   0  0  0  0  0  2  0  0  0  0  0  0
  187.8460  178.9570  141.1370 C   0  0  0  0  0  0  0  0  0  0  0  0
  186.8970  179.7200  141.2370 O   0  0  0  0  0  0  0  0  0  0  0  0
  186.7610  177.9770  139.1210 C   0  0  0  0  0  2  0  0  0  0  0  0
  187.0910  178.1500  137.6490 C   0  0  0  0  0  2  0  0  0  0  0  0
  188.0600  178.1700  139.8800 C   0  0  0  0  0  3  0  0  0  0  0  0
  189.0050  178.8750  138.9360 C   0  0  0  0  0  2  0  0  0  0  0  0
  188.5800  178.4270  137.5570 C   0  0  0  0  0  2  0  0  0  0  0  0
  191.0700  177.2510  141.2890 C   0  0  0  0  0  2  0  0  0  0  0  0
  191.9200  176.8830  139.0500 N   0  0  0  0  0  0  0  0  0  0  0  0
  191.1530  176.4820  140.0140 C   0  0  0  0  0  3  0  0  0  0  0  0
  192.0370  176.1730  137.8130 C   0  0  0  0  0  0  0  0  0  0  0  0
  193.0530  176.3540  137.0940 O   0  0  0  0  0  0  0  0  0  0  0  0
  190.9830  175.2200  137.3540 C   0  0  0  0  0  1  0  0  0  0  0  0
  1 16  1  0  0  0  0
  2  1  2  0  0  0  0
  3  4  2  0  0  0  0
  3  5  1  0  0  0  0
  5  1  1  0  0  0  0
  6 11  2  0  0  0  0
  6 12  1  0  0  0  0
  7 10  1  0  0  0  0
  8  9  1  0  0  0  0
  8 10  2  0  0  0  0
 11 13  1  0  0  0  0
 12 15  2  0  0  0  0
 13 16  2  0  0  0  0
 13 14  1  0  0  0  0
 14  7  2  0  0  0  0
 15 14  1  0  0  0  0
 16  8  1  0  0  0  0
 17  5  1  0  0  0  0
 18 19  2  0  0  0  0
 18 17  1  0  0  0  0
 20 22  1  0  0  0  0
 21 20  1  0  0  0  0
 22 18  1  0  0  0  0
 23 22  1  0  0  0  0
 24 21  1  0  0  0  0
 24 23  1  0  0  0  0
 25  3  1  0  0  0  0
 26 27  2  0  0  0  0
 27 25  1  0  0  0  0
 28 26  1  0  0  0  0
 29 28  2  0  0  0  0
 30 28  1  0  0  0  0
M  END
>  <MODEL>
2

>  <REMARK>
 VINA RESULT:      -7.4      1.078      2.654
  Name = 
  7 active torsions:
  status: ('A' for Active; 'I' for Inactive)
    1  A    between atoms: C_1  and  N_6
    2  A    between atoms: C_5  and  C_29
    3  A    between atoms: C_8  and  C_15
    4  A    between atoms: C_13  and  C_19
    5  A    between atoms: C_13  and  N_30
    6  A    between atoms: C_15  and  C_23
    7  A    between atoms: C_19  and  C_20
                            x       y       z     vdW  Elec       q    Type
                         _______ _______ _______ _____ _____    ______ ____

>  <TORSDO>
F 7

$$$$
=
 OpenBabel10222416403D

 30 32  0  0  0  0  0  0  0  0999 V2000
  182.8760  178.9740  140.5960 C   0  0  0  0  0  0  0  0  0  0  0  0
  182.7900  180.0060  139.8750 O   0  0  0  0  0  0  0  0  0  0  0  0
  185.3890  178.9220  140.4700 C   0  0  0  0  0  0  0  0  0  0  0  0
  185.3730  179.5090  139.3550 O   0  0  0  0  0  0  0  0  0  0  0  0
  184.1550  178.5730  141.1330 N   0  0  0  0  0  0  0  0  0  0  0  0
  181.6560  175.4570  138.3960 C   0  0  0  0  0  3  0  0  0  0  0  0
  179.3200  176.8150  141.5550 N   0  0  0  0  0  0  0  0  0  0  0  0
  180.7970  178.6510  141.9570 C   0  0  0  0  0  0  0  0  0  0  0  0
  181.1200  179.7990  142.7360 N   0  0  0  0  0  1  0  0  0  0  0  0
  179.6440  177.9270  142.2630 C   0  0  0  0  0  3  0  0  0  0  0  0
  182.0440  176.5980  139.1010 C   0  0  0  0  0  3  0  0  0  0  0  0
  180.4950  174.7700  138.7590 C   0  0  0  0  0  3  0  0  0  0  0  0
  181.2770  177.0640  140.1820 C   0  0  0  0  0  0  0  0  0  0  0  0
  180.0960  176.3690  140.5330 C   0  0  0  0  0  0  0  0  0  0  0  0
  179.7160  175.2270  139.8240 C   0  0  0  0  0  3  0  0  0  0  0  0
  181.6380  178.2180  140.9120 C   0  0  0  0  0  0  0  0  0  0  0  0
  184.2090  177.8100  142.3810 C   0  0  0  0  0  2  0  0  0  0  0  0
  184.5830  178.6960  143.5280 C   0  0  0  0  0  0  0  0  0  0  0  0
  184.4600  179.9060  143.4190 O   0  0  0  0  0  0  0  0  0  0  0  0
  186.5030  177.5120  144.5830 C   0  0  0  0  0  2  0  0  0  0  0  0
  187.3130  177.8640  145.8180 C   0  0  0  0  0  2  0  0  0  0  0  0
  185.1200  178.0960  144.7920 C   0  0  0  0  0  3  0  0  0  0  0  0
  185.2550  179.1310  145.8850 C   0  0  0  0  0  2  0  0  0  0  0  0
  186.3950  178.6380  146.7460 C   0  0  0  0  0  2  0  0  0  0  0  0
  186.7160  178.6010  141.0840 C   0  0  0  0  0  2  0  0  0  0  0  0
  188.7370  177.4870  140.3460 N   0  0  0  0  0  0  0  0  0  0  0  0
  187.7000  178.1990  140.0380 C   0  0  0  0  0  3  0  0  0  0  0  0
  189.7030  177.0720  139.3750 C   0  0  0  0  0  0  0  0  0  0  0  0
  190.5280  176.1710  139.6750 O   0  0  0  0  0  0  0  0  0  0  0  0
  189.7540  177.6790  138.0120 C   0  0  0  0  0  1  0  0  0  0  0  0
  1 16  1  0  0  0  0
  1  5  1  0  0  0  0
  2  1  2  0  0  0  0
  3 25  1  0  0  0  0
  3  5  1  0  0  0  0
  4  3  2  0  0  0  0
  5 17  1  0  0  0  0
  6 12  2  0  0  0  0
  6 11  1  0  0  0  0
  7 10  2  0  0  0  0
  8 10  1  0  0  0  0
  8  9  1  0  0  0  0
 11 13  2  0  0  0  0
 12 15  1  0  0  0  0
 13 14  1  0  0  0  0
 13 16  1  0  0  0  0
 14  7  1  0  0  0  0
 15 14  2  0  0  0  0
 16  8  2  0  0  0  0
 17 18  1  0  0  0  0
 18 22  1  0  0  0  0
 19 18  2  0  0  0  0
 20 22  1  0  0  0  0
 20 21  1  0  0  0  0
 21 24  1  0  0  0  0
 22 23  1  0  0  0  0
 23 24  1  0  0  0  0
 27 26  2  0  0  0  0
 27 25  1  0  0  0  0
 28 29  2  0  0  0  0
 28 26  1  0  0  0  0
 30 28  1  0  0  0  0
M  END
>  <MODEL>
3

>  <REMARK>
 VINA RESULT:      -7.3      4.089      7.168
  Name = 
  7 active torsions:
  status: ('A' for Active; 'I' for Inactive)
    1  A    between atoms: C_1  and  N_6
    2  A    between atoms: C_5  and  C_29
    3  A    between atoms: C_8  and  C_15
    4  A    between atoms: C_13  and  C_19
    5  A    between atoms: C_13  and  N_30
    6  A    between atoms: C_15  and  C_23
    7  A    between atoms: C_19  and  C_20
                            x       y       z     vdW  Elec       q    Type
                         _______ _______ _______ _____ _____    ______ ____

>  <TORSDO>
F 7

$$$$
=
 OpenBabel10222416403D

 30 32  0  0  0  0  0  0  0  0999 V2000
  184.5020  179.1170  139.4210 C   0  0  0  0  0  0  0  0  0  0  0  0
  184.3770  180.3310  139.1060 O   0  0  0  0  0  0  0  0  0  0  0  0
  182.2790  178.4840  138.4260 C   0  0  0  0  0  0  0  0  0  0  0  0
  181.8320  179.6470  138.6140 O   0  0  0  0  0  0  0  0  0  0  0  0
  183.6090  178.1300  138.8590 N   0  0  0  0  0  0  0  0  0  0  0  0
  183.9620  178.6950  143.6910 C   0  0  0  0  0  3  0  0  0  0  0  0
  187.6930  177.9630  142.0110 N   0  0  0  0  0  0  0  0  0  0  0  0
  186.8950  178.4900  139.8210 C   0  0  0  0  0  0  0  0  0  0  0  0
  187.1650  178.6040  138.4270 N   0  0  0  0  0  1  0  0  0  0  0  0
  187.9230  178.1030  140.6810 C   0  0  0  0  0  3  0  0  0  0  0  0
  184.1390  178.8400  142.3130 C   0  0  0  0  0  3  0  0  0  0  0  0
  185.0300  178.2960  144.4970 C   0  0  0  0  0  3  0  0  0  0  0  0
  185.3890  178.5820  141.7240 C   0  0  0  0  0  0  0  0  0  0  0  0
  186.4680  178.1900  142.5510 C   0  0  0  0  0  0  0  0  0  0  0  0
  186.2810  178.0450  143.9280 C   0  0  0  0  0  3  0  0  0  0  0  0
  185.6040  178.7250  140.3350 C   0  0  0  0  0  0  0  0  0  0  0  0
  184.0620  176.7460  138.7090 C   0  0  0  0  0  2  0  0  0  0  0  0
  184.5320  176.4900  137.3120 C   0  0  0  0  0  0  0  0  0  0  0  0
  184.7250  177.4330  136.5600 O   0  0  0  0  0  0  0  0  0  0  0  0
  186.1940  174.6620  137.0050 C   0  0  0  0  0  2  0  0  0  0  0  0
  186.1710  173.2240  137.4950 C   0  0  0  0  0  2  0  0  0  0  0  0
  184.7470  175.0840  136.8400 C   0  0  0  0  0  3  0  0  0  0  0  0
  183.9220  174.0990  137.6340 C   0  0  0  0  0  2  0  0  0  0  0  0
  184.7150  172.8130  137.5980 C   0  0  0  0  0  2  0  0  0  0  0  0
  181.3950  177.4860  137.7450 C   0  0  0  0  0  2  0  0  0  0  0  0
  180.6050  176.4010  139.7630 N   0  0  0  0  0  0  0  0  0  0  0  0
  180.3150  177.0200  138.6630 C   0  0  0  0  0  3  0  0  0  0  0  0
  179.6040  175.9430  140.6760 C   0  0  0  0  0  0  0  0  0  0  0  0
  179.0020  176.7790  141.3990 O   0  0  0  0  0  0  0  0  0  0  0  0
  179.2510  174.4970  140.7920 C   0  0  0  0  0  1  0  0  0  0  0  0
  1 16  1  0  0  0  0
  2  1  2  0  0  0  0
  3  4  2  0  0  0  0
  3  5  1  0  0  0  0
  5  1  1  0  0  0  0
  6 12  1  0  0  0  0
  7 14  1  0  0  0  0
  8 16  2  0  0  0  0
  8 10  1  0  0  0  0
  9  8  1  0  0  0  0
 10  7  2  0  0  0  0
 11  6  2  0  0  0  0
 13 11  1  0  0  0  0
 13 14  2  0  0  0  0
 14 15  1  0  0  0  0
 15 12  2  0  0  0  0
 16 13  1  0  0  0  0
 17  5  1  0  0  0  0
 18 17  1  0  0  0  0
 19 18  2  0  0  0  0
 20 21  1  0  0  0  0
 21 24  1  0  0  0  0
 22 20  1  0  0  0  0
 22 18  1  0  0  0  0
 22 23  1  0  0  0  0
 24 23  1  0  0  0  0
 25  3  1  0  0  0  0
 25 27  1  0  0  0  0
 26 28  1  0  0  0  0
 27 26  2  0  0  0  0
 28 30  1  0  0  0  0
 28 29  2  0  0  0  0
M  END
>  <MODEL>
4

>  <REMARK>
 VINA RESULT:      -7.0      4.496      7.818
  Name = 
  7 active torsions:
  status: ('A' for Active; 'I' for Inactive)
    1  A    between atoms: C_1  and  N_6
    2  A    between atoms: C_5  and  C_29
    3  A    between atoms: C_8  and  C_15
    4  A    between atoms: C_13  and  C_19
    5  A    between atoms: C_13  and  N_30
    6  A    between atoms: C_15  and  C_23
    7  A    between atoms: C_19  and  C_20
                            x       y       z     vdW  Elec       q    Type
                         _______ _______ _______ _____ _____    ______ ____

>  <TORSDO>
F 7

$$$$
=
 OpenBabel10222416403D

 30 32  0  0  0  0  0  0  0  0999 V2000
  181.4390  178.2430  140.8520 C   0  0  0  0  0  0  0  0  0  0  0  0
  180.5300  178.2680  141.7260 O   0  0  0  0  0  0  0  0  0  0  0  0
  183.2500  178.7710  142.5170 C   0  0  0  0  0  0  0  0  0  0  0  0
  182.4300  179.3730  143.2610 O   0  0  0  0  0  0  0  0  0  0  0  0
  182.8250  178.2180  141.2530 N   0  0  0  0  0  0  0  0  0  0  0  0
  181.1830  181.7810  138.3780 C   0  0  0  0  0  3  0  0  0  0  0  0
  180.3460  178.0580  136.7290 N   0  0  0  0  0  0  0  0  0  0  0  0
  180.7330  176.9620  138.8170 C   0  0  0  0  0  0  0  0  0  0  0  0
  180.7910  175.7440  139.5550 N   0  0  0  0  0  1  0  0  0  0  0  0
  180.3880  176.9190  137.4660 C   0  0  0  0  0  3  0  0  0  0  0  0
  181.2560  180.6390  139.1790 C   0  0  0  0  0  3  0  0  0  0  0  0
  180.8410  181.6700  137.0290 C   0  0  0  0  0  3  0  0  0  0  0  0
  180.9920  179.3700  138.6360 C   0  0  0  0  0  0  0  0  0  0  0  0
  180.6340  179.2700  137.2710 C   0  0  0  0  0  0  0  0  0  0  0  0
  180.5650  180.4170  136.4770 C   0  0  0  0  0  3  0  0  0  0  0  0
  181.0520  178.1960  139.4190 C   0  0  0  0  0  0  0  0  0  0  0  0
  183.8230  177.6060  140.3730 C   0  0  0  0  0  2  0  0  0  0  0  0
  184.3870  178.6190  139.4260 C   0  0  0  0  0  0  0  0  0  0  0  0
  184.5870  179.7600  139.8150 O   0  0  0  0  0  0  0  0  0  0  0  0
  186.1790  178.1750  137.7570 C   0  0  0  0  0  2  0  0  0  0  0  0
  186.4220  176.9600  136.8780 C   0  0  0  0  0  2  0  0  0  0  0  0
  184.6860  178.2330  138.0100 C   0  0  0  0  0  3  0  0  0  0  0  0
  184.1430  176.8620  137.6800 C   0  0  0  0  0  2  0  0  0  0  0  0
  185.0690  176.3270  136.6130 C   0  0  0  0  0  2  0  0  0  0  0  0
  184.6680  178.6460  142.9800 C   0  0  0  0  0  2  0  0  0  0  0  0
  185.7940  178.2670  145.0920 N   0  0  0  0  0  0  0  0  0  0  0  0
  184.7470  178.7070  144.4680 C   0  0  0  0  0  3  0  0  0  0  0  0
  185.9160  178.3130  146.5170 C   0  0  0  0  0  0  0  0  0  0  0  0
  184.9100  178.6090  147.2120 O   0  0  0  0  0  0  0  0  0  0  0  0
  187.2090  178.0150  147.2020 C   0  0  0  0  0  1  0  0  0  0  0  0
  1  5  1  0  0  0  0
  1  2  2  0  0  0  0
  3 25  1  0  0  0  0
  3  4  2  0  0  0  0
  5  3  1  0  0  0  0
  6 11  1  0  0  0  0
  7 14  1  0  0  0  0
  7 10  2  0  0  0  0
  8 16  2  0  0  0  0
  8  9  1  0  0  0  0
 10  8  1  0  0  0  0
 12  6  2  0  0  0  0
 13 11  2  0  0  0  0
 13 16  1  0  0  0  0
 14 13  1  0  0  0  0
 15 12  1  0  0  0  0
 15 14  2  0  0  0  0
 16  1  1  0  0  0  0
 17  5  1  0  0  0  0
 18 19  2  0  0  0  0
 18 17  1  0  0  0  0
 20 22  1  0  0  0  0
 21 20  1  0  0  0  0
 22 18  1  0  0  0  0
 23 22  1  0  0  0  0
 24 21  1  0  0  0  0
 24 23  1  0  0  0  0
 25 27  1  0  0  0  0
 26 28  1  0  0  0  0
 27 26  2  0  0  0  0
 28 30  1  0  0  0  0
 28 29  2  0  0  0  0
M  END
>  <MODEL>
5

>  <REMARK>
 VINA RESULT:      -6.8      4.799      8.735
  Name = 
  7 active torsions:
  status: ('A' for Active; 'I' for Inactive)
    1  A    between atoms: C_1  and  N_6
    2  A    between atoms: C_5  and  C_29
    3  A    between atoms: C_8  and  C_15
    4  A    between atoms: C_13  and  C_19
    5  A    between atoms: C_13  and  N_30
    6  A    between atoms: C_15  and  C_23
    7  A    between atoms: C_19  and  C_20
                            x       y       z     vdW  Elec       q    Type
                         _______ _______ _______ _____ _____    ______ ____

>  <TORSDO>
F 7

$$$$
=
 OpenBabel10222416403D

 30 32  0  0  0  0  0  0  0  0999 V2000
  188.7360  178.2960  138.8260 C   0  0  0  0  0  0  0  0  0  0  0  0
  189.2350  179.4080  138.5020 O   0  0  0  0  0  0  0  0  0  0  0  0
  187.1920  178.2490  136.8400 C   0  0  0  0  0  0  0  0  0  0  0  0
  187.1780  179.5090  136.7850 O   0  0  0  0  0  0  0  0  0  0  0  0
  187.9210  177.5680  137.8830 N   0  0  0  0  0  0  0  0  0  0  0  0
  186.0090  178.6250  142.1670 C   0  0  0  0  0  3  0  0  0  0  0  0
  189.6400  176.6620  142.6650 N   0  0  0  0  0  0  0  0  0  0  0  0
  190.2680  177.0890  140.3990 C   0  0  0  0  0  0  0  0  0  0  0  0
  191.2260  176.9320  139.3570 N   0  0  0  0  0  1  0  0  0  0  0  0
  190.5420  176.5520  141.6570 C   0  0  0  0  0  3  0  0  0  0  0  0
  186.8950  178.5270  141.0910 C   0  0  0  0  0  3  0  0  0  0  0  0
  186.3390  178.0570  143.4000 C   0  0  0  0  0  3  0  0  0  0  0  0
  188.1200  177.8530  141.2350 C   0  0  0  0  0  0  0  0  0  0  0  0
  188.4500  177.2930  142.4910 C   0  0  0  0  0  0  0  0  0  0  0  0
  187.5580  177.3930  143.5620 C   0  0  0  0  0  3  0  0  0  0  0  0
  189.0400  177.7410  140.1690 C   0  0  0  0  0  0  0  0  0  0  0  0
  187.8390  176.1090  137.9710 C   0  0  0  0  0  2  0  0  0  0  0  0
  188.6500  175.4660  136.8900 C   0  0  0  0  0  0  0  0  0  0  0  0
  189.7160  175.9640  136.5600 O   0  0  0  0  0  0  0  0  0  0  0  0
  188.9350  173.0070  136.6290 C   0  0  0  0  0  2  0  0  0  0  0  0
  187.9300  171.8800  136.7970 C   0  0  0  0  0  2  0  0  0  0  0  0
  188.1450  174.2310  136.2100 C   0  0  0  0  0  3  0  0  0  0  0  0
  186.7030  173.9500  136.5650 C   0  0  0  0  0  2  0  0  0  0  0  0
  186.5650  172.4490  136.4620 C   0  0  0  0  0  2  0  0  0  0  0  0
  186.4360  177.4860  135.7970 C   0  0  0  0  0  2  0  0  0  0  0  0
  184.6570  177.5200  137.4410 N   0  0  0  0  0  0  0  0  0  0  0  0
  185.0310  177.2410  136.2330 C   0  0  0  0  0  3  0  0  0  0  0  0
  183.3190  177.3090  137.9010 C   0  0  0  0  0  0  0  0  0  0  0  0
  182.4220  178.1320  137.5840 O   0  0  0  0  0  0  0  0  0  0  0  0
  182.9580  176.1330  138.7480 C   0  0  0  0  0  1  0  0  0  0  0  0
  1 16  1  0  0  0  0
  2  1  2  0  0  0  0
  3  5  1  0  0  0  0
  4  3  2  0  0  0  0
  5 17  1  0  0  0  0
  5  1  1  0  0  0  0
  6 12  1  0  0  0  0
  8 10  1  0  0  0  0
  9  8  1  0  0  0  0
 10  7  2  0  0  0  0
 11 13  1  0  0  0  0
 11  6  2  0  0  0  0
 12 15  2  0  0  0  0
 13 14  2  0  0  0  0
 14  7  1  0  0  0  0
 14 15  1  0  0  0  0
 16  8  2  0  0  0  0
 16 13  1  0  0  0  0
 18 17  1  0  0  0  0
 19 18  2  0  0  0  0
 20 21  1  0  0  0  0
 22 23  1  0  0  0  0
 22 20  1  0  0  0  0
 22 18  1  0  0  0  0
 24 23  1  0  0  0  0
 24 21  1  0  0  0  0
 25 27  1  0  0  0  0
 25  3  1  0  0  0  0
 26 28  1  0  0  0  0
 27 26  2  0  0  0  0
 28 30  1  0  0  0  0
 29 28  2  0  0  0  0
M  END
>  <MODEL>
6

>  <REMARK>
 VINA RESULT:      -6.7      3.280      6.531
  Name = 
  7 active torsions:
  status: ('A' for Active; 'I' for Inactive)
    1  A    between atoms: C_1  and  N_6
    2  A    between atoms: C_5  and  C_29
    3  A    between atoms: C_8  and  C_15
    4  A    between atoms: C_13  and  C_19
    5  A    between atoms: C_13  and  N_30
    6  A    between atoms: C_15  and  C_23
    7  A    between atoms: C_19  and  C_20
                            x       y       z     vdW  Elec       q    Type
                         _______ _______ _______ _____ _____    ______ ____

>  <TORSDO>
F 7

$$$$
=
 OpenBabel10222416403D

 30 32  0  0  0  0  0  0  0  0999 V2000
  183.7810  179.1860  139.1090 C   0  0  0  0  0  0  0  0  0  0  0  0
  184.1990  180.3750  139.0540 O   0  0  0  0  0  0  0  0  0  0  0  0
  184.6880  178.8260  141.4280 C   0  0  0  0  0  0  0  0  0  0  0  0
  185.5890  179.6870  141.2400 O   0  0  0  0  0  0  0  0  0  0  0  0
  183.7680  178.4840  140.3700 N   0  0  0  0  0  0  0  0  0  0  0  0
  180.0410  180.3310  137.2660 C   0  0  0  0  0  3  0  0  0  0  0  0
  182.3570  177.3480  135.5290 N   0  0  0  0  0  0  0  0  0  0  0  0
  184.0020  177.5160  137.2540 C   0  0  0  0  0  0  0  0  0  0  0  0
  185.2460  177.0750  137.7900 N   0  0  0  0  0  1  0  0  0  0  0  0
  183.5270  176.9340  136.0780 C   0  0  0  0  0  3  0  0  0  0  0  0
  181.2440  179.9540  137.8660 C   0  0  0  0  0  3  0  0  0  0  0  0
  179.6240  179.7160  136.0830 C   0  0  0  0  0  3  0  0  0  0  0  0
  182.0490  178.9590  137.2850 C   0  0  0  0  0  0  0  0  0  0  0  0
  181.6120  178.3330  136.0940 C   0  0  0  0  0  0  0  0  0  0  0  0
  180.4080  178.7180  135.4990 C   0  0  0  0  0  3  0  0  0  0  0  0
  183.2690  178.5510  137.8690 C   0  0  0  0  0  0  0  0  0  0  0  0
  182.7940  177.4130  140.5930 C   0  0  0  0  0  2  0  0  0  0  0  0
  181.4190  177.9750  140.7680 C   0  0  0  0  0  0  0  0  0  0  0  0
  180.4930  177.5160  140.1150 O   0  0  0  0  0  0  0  0  0  0  0  0
  180.1580  180.0800  141.1920 C   0  0  0  0  0  2  0  0  0  0  0  0
  179.2910  180.4820  142.3720 C   0  0  0  0  0  2  0  0  0  0  0  0
  181.1880  179.1040  141.7260 C   0  0  0  0  0  3  0  0  0  0  0  0
  180.6580  178.6080  143.0520 C   0  0  0  0  0  2  0  0  0  0  0  0
  179.8280  179.7510  143.5880 C   0  0  0  0  0  2  0  0  0  0  0  0
  184.6020  178.1720  142.7720 C   0  0  0  0  0  2  0  0  0  0  0  0
  186.0560  177.7460  144.6630 N   0  0  0  0  0  0  0  0  0  0  0  0
  185.9360  178.1510  143.4390 C   0  0  0  0  0  3  0  0  0  0  0  0
  187.3160  177.7020  145.3400 C   0  0  0  0  0  0  0  0  0  0  0  0
  187.3720  178.0210  146.5550 O   0  0  0  0  0  0  0  0  0  0  0  0
  188.5670  177.2830  144.6400 C   0  0  0  0  0  1  0  0  0  0  0  0
  1  5  1  0  0  0  0
  2  1  2  0  0  0  0
  3 25  1  0  0  0  0
  4  3  2  0  0  0  0
  5 17  1  0  0  0  0
  5  3  1  0  0  0  0
  6 11  1  0  0  0  0
  7 10  2  0  0  0  0
  7 14  1  0  0  0  0
  8  9  1  0  0  0  0
  8 16  2  0  0  0  0
 10  8  1  0  0  0  0
 12  6  2  0  0  0  0
 13 11  2  0  0  0  0
 13 16  1  0  0  0  0
 14 13  1  0  0  0  0
 15 12  1  0  0  0  0
 15 14  2  0  0  0  0
 16  1  1  0  0  0  0
 17 18  1  0  0  0  0
 18 22  1  0  0  0  0
 19 18  2  0  0  0  0
 20 22  1  0  0  0  0
 20 21  1  0  0  0  0
 21 24  1  0  0  0  0
 22 23  1  0  0  0  0
 23 24  1  0  0  0  0
 25 27  1  0  0  0  0
 26 28  1  0  0  0  0
 27 26  2  0  0  0  0
 28 29  2  0  0  0  0
 30 28  1  0  0  0  0
M  END
>  <MODEL>
7

>  <REMARK>
 VINA RESULT:      -6.7      4.916      9.200
  Name = 
  7 active torsions:
  status: ('A' for Active; 'I' for Inactive)
    1  A    between atoms: C_1  and  N_6
    2  A    between atoms: C_5  and  C_29
    3  A    between atoms: C_8  and  C_15
    4  A    between atoms: C_13  and  C_19
    5  A    between atoms: C_13  and  N_30
    6  A    between atoms: C_15  and  C_23
    7  A    between atoms: C_19  and  C_20
                            x       y       z     vdW  Elec       q    Type
                         _______ _______ _______ _____ _____    ______ ____

>  <TORSDO>
F 7

$$$$
=
 OpenBabel10222416403D

 30 32  0  0  0  0  0  0  0  0999 V2000
  182.5320  177.2930  139.8770 C   0  0  0  0  0  0  0  0  0  0  0  0
  182.1430  176.1080  139.6910 O   0  0  0  0  0  0  0  0  0  0  0  0
  184.1740  177.2020  137.9720 C   0  0  0  0  0  0  0  0  0  0  0  0
  184.2920  175.9530  138.0970 O   0  0  0  0  0  0  0  0  0  0  0  0
  183.3370  177.9530  138.8760 N   0  0  0  0  0  0  0  0  0  0  0  0
  185.2830  178.2690  143.0680 C   0  0  0  0  0  3  0  0  0  0  0  0
  181.2820  179.3460  143.4050 N   0  0  0  0  0  0  0  0  0  0  0  0
  180.7610  178.3630  141.2900 C   0  0  0  0  0  0  0  0  0  0  0  0
  179.7840  178.0840  140.2900 N   0  0  0  0  0  1  0  0  0  0  0  0
  180.3720  179.0430  142.4440 C   0  0  0  0  0  3  0  0  0  0  0  0
  184.3920  177.9460  142.0420 C   0  0  0  0  0  3  0  0  0  0  0  0
  184.8320  178.9600  144.1950 C   0  0  0  0  0  3  0  0  0  0  0  0
  183.0390  178.3150  142.1300 C   0  0  0  0  0  0  0  0  0  0  0  0
  182.5900  179.0030  143.2820 C   0  0  0  0  0  0  0  0  0  0  0  0
  183.4880  179.3250  144.3020 C   0  0  0  0  0  3  0  0  0  0  0  0
  182.1110  177.9990  141.1130 C   0  0  0  0  0  0  0  0  0  0  0  0
  183.2950  179.4120  138.7600 C   0  0  0  0  0  2  0  0  0  0  0  0
  182.0120  179.8580  138.1330 C   0  0  0  0  0  0  0  0  0  0  0  0
  181.5560  179.2340  137.1860 O   0  0  0  0  0  0  0  0  0  0  0  0
  181.7900  182.3330  137.9690 C   0  0  0  0  0  2  0  0  0  0  0  0
  180.5610  183.1930  137.7270 C   0  0  0  0  0  2  0  0  0  0  0  0
  181.3050  181.0710  138.6560 C   0  0  0  0  0  3  0  0  0  0  0  0
  179.8160  180.9970  138.4100 C   0  0  0  0  0  2  0  0  0  0  0  0
  179.3720  182.4360  138.2870 C   0  0  0  0  0  2  0  0  0  0  0  0
  184.9220  177.8780  136.8660 C   0  0  0  0  0  2  0  0  0  0  0  0
  186.7990  178.2840  138.3440 N   0  0  0  0  0  0  0  0  0  0  0  0
  186.3820  177.9330  137.1690 C   0  0  0  0  0  3  0  0  0  0  0  0
  188.1880  178.3440  138.6810 C   0  0  0  0  0  0  0  0  0  0  0  0
  188.9420  179.1260  138.0470 O   0  0  0  0  0  0  0  0  0  0  0  0
  188.7670  177.5030  139.7710 C   0  0  0  0  0  1  0  0  0  0  0  0
  1 16  1  0  0  0  0
  2  1  2  0  0  0  0
  3  4  2  0  0  0  0
  3  5  1  0  0  0  0
  5  1  1  0  0  0  0
  6 12  1  0  0  0  0
  8 10  1  0  0  0  0
  9  8  1  0  0  0  0
 10  7  2  0  0  0  0
 11 13  1  0  0  0  0
 11  6  2  0  0  0  0
 12 15  2  0  0  0  0
 13 14  2  0  0  0  0
 14  7  1  0  0  0  0
 14 15  1  0  0  0  0
 16  8  2  0  0  0  0
 16 13  1  0  0  0  0
 17  5  1  0  0  0  0
 18 22  1  0  0  0  0
 18 17  1  0  0  0  0
 19 18  2  0  0  0  0
 20 22  1  0  0  0  0
 21 20  1  0  0  0  0
 21 24  1  0  0  0  0
 23 22  1  0  0  0  0
 24 23  1  0  0  0  0
 25 27  1  0  0  0  0
 25  3  1  0  0  0  0
 26 28  1  0  0  0  0
 27 26  2  0  0  0  0
 28 30  1  0  0  0  0
 29 28  2  0  0  0  0
M  END
>  <MODEL>
8

>  <REMARK>
 VINA RESULT:      -6.6      4.883      6.627
  Name = 
  7 active torsions:
  status: ('A' for Active; 'I' for Inactive)
    1  A    between atoms: C_1  and  N_6
    2  A    between atoms: C_5  and  C_29
    3  A    between atoms: C_8  and  C_15
    4  A    between atoms: C_13  and  C_19
    5  A    between atoms: C_13  and  N_30
    6  A    between atoms: C_15  and  C_23
    7  A    between atoms: C_19  and  C_20
                            x       y       z     vdW  Elec       q    Type
                         _______ _______ _______ _____ _____    ______ ____

>  <TORSDO>
F 7

$$$$
=
 OpenBabel10222416403D

 30 32  0  0  0  0  0  0  0  0999 V2000
  183.8620  179.1550  139.0460 C   0  0  0  0  0  0  0  0  0  0  0  0
  184.2560  180.3510  138.9760 O   0  0  0  0  0  0  0  0  0  0  0  0
  184.7260  178.8590  141.3910 C   0  0  0  0  0  0  0  0  0  0  0  0
  185.6130  179.7360  141.2050 O   0  0  0  0  0  0  0  0  0  0  0  0
  183.8370  178.4770  140.3210 N   0  0  0  0  0  0  0  0  0  0  0  0
  186.1970  176.1690  136.9640 C   0  0  0  0  0  3  0  0  0  0  0  0
  182.4530  177.2320  135.5050 N   0  0  0  0  0  0  0  0  0  0  0  0
  182.1380  178.8260  137.2580 C   0  0  0  0  0  0  0  0  0  0  0  0
  181.3000  179.7980  137.8770 N   0  0  0  0  0  1  0  0  0  0  0  0
  181.6890  178.1800  136.1060 C   0  0  0  0  0  3  0  0  0  0  0  0
  185.4470  177.1410  137.6310 C   0  0  0  0  0  3  0  0  0  0  0  0
  185.6870  175.5520  135.8200 C   0  0  0  0  0  3  0  0  0  0  0  0
  184.1720  177.5020  137.1620 C   0  0  0  0  0  0  0  0  0  0  0  0
  183.6690  176.8800  135.9950 C   0  0  0  0  0  0  0  0  0  0  0  0
  184.4260  175.9080  135.3360 C   0  0  0  0  0  3  0  0  0  0  0  0
  183.3900  178.4840  137.8090 C   0  0  0  0  0  0  0  0  0  0  0  0
  182.8800  177.3910  140.5450 C   0  0  0  0  0  2  0  0  0  0  0  0
  181.4980  177.9320  140.7330 C   0  0  0  0  0  0  0  0  0  0  0  0
  180.5650  177.4200  140.1320 O   0  0  0  0  0  0  0  0  0  0  0  0
  180.1900  180.0190  141.0970 C   0  0  0  0  0  2  0  0  0  0  0  0
  179.3560  180.4570  142.2890 C   0  0  0  0  0  2  0  0  0  0  0  0
  181.2690  179.1020  141.6400 C   0  0  0  0  0  3  0  0  0  0  0  0
  180.8060  178.6620  143.0090 C   0  0  0  0  0  2  0  0  0  0  0  0
  179.9620  179.8080  143.5180 C   0  0  0  0  0  2  0  0  0  0  0  0
  184.6250  178.2310  142.7460 C   0  0  0  0  0  2  0  0  0  0  0  0
  186.2240  178.0260  144.5550 N   0  0  0  0  0  0  0  0  0  0  0  0
  185.9780  177.9160  143.2880 C   0  0  0  0  0  3  0  0  0  0  0  0
  187.5040  177.7280  145.1190 C   0  0  0  0  0  0  0  0  0  0  0  0
  188.4870  177.5480  144.3550 O   0  0  0  0  0  0  0  0  0  0  0  0
  187.7050  177.6250  146.5960 C   0  0  0  0  0  1  0  0  0  0  0  0
  1  5  1  0  0  0  0
  2  1  2  0  0  0  0
  3 25  1  0  0  0  0
  4  3  2  0  0  0  0
  5 17  1  0  0  0  0
  5  3  1  0  0  0  0
  6 11  1  0  0  0  0
  7 14  1  0  0  0  0
  7 10  2  0  0  0  0
  8 16  2  0  0  0  0
  8  9  1  0  0  0  0
 10  8  1  0  0  0  0
 12  6  2  0  0  0  0
 13 11  2  0  0  0  0
 13 16  1  0  0  0  0
 14 13  1  0  0  0  0
 15 12  1  0  0  0  0
 15 14  2  0  0  0  0
 16  1  1  0  0  0  0
 17 18  1  0  0  0  0
 18 22  1  0  0  0  0
 19 18  2  0  0  0  0
 20 22  1  0  0  0  0
 20 21  1  0  0  0  0
 21 24  1  0  0  0  0
 22 23  1  0  0  0  0
 23 24  1  0  0  0  0
 25 27  1  0  0  0  0
 26 28  1  0  0  0  0
 27 26  2  0  0  0  0
 28 30  1  0  0  0  0
 29 28  2  0  0  0  0
M  END
>  <MODEL>
9

>  <REMARK>
 VINA RESULT:      -6.6      4.326      8.750
  Name = 
  7 active torsions:
  status: ('A' for Active; 'I' for Inactive)
    1  A    between atoms: C_1  and  N_6
    2  A    between atoms: C_5  and  C_29
    3  A    between atoms: C_8  and  C_15
    4  A    between atoms: C_13  and  C_19
    5  A    between atoms: C_13  and  N_30
    6  A    between atoms: C_15  and  C_23
    7  A    between atoms: C_19  and  C_20
                            x       y       z     vdW  Elec       q    Type
                         _______ _______ _______ _____ _____    ______ ____

>  <TORSDO>
F 7

$$$$
