=
 OpenBabel10222419383D

 39 42  0  0  1  0  0  0  0  0999 V2000
  181.2350  179.6250  137.7350 C   0  0  0  0  0  2  0  0  0  0  0  0
  185.6740  175.4320  136.6380 C   0  0  0  0  0  2  0  0  0  0  0  0
  182.4200  178.3180  140.5540 C   0  0  0  0  0  2  0  0  0  0  0  0
  187.9020  176.5850  136.4480 C   0  0  1  0  0  3  0  0  0  0  0  0
  186.6310  177.7740  143.1310 C   0  0  0  0  0  0  0  0  0  0  0  0
  187.1160  175.4640  137.1240 C   0  0  0  0  0  2  0  0  0  0  0  0
  182.8000  175.9380  136.2640 C   0  0  0  0  0  3  0  0  0  0  0  0
  181.1270  179.5590  139.2550 C   0  0  1  0  0  3  0  0  0  0  0  0
  185.0060  176.5960  137.1010 O   0  0  0  0  0  0  0  0  0  0  0  0
  180.9720  177.4490  136.5840 N   0  0  0  0  0  0  0  0  0  0  0  0
  188.7560  179.3510  138.6700 C   0  0  0  0  0  1  0  0  0  0  0  0
  185.9320  178.2630  144.2860 N   0  0  0  0  0  0  0  0  0  0  0  0
  186.1040  178.0770  141.7790 C   0  0  0  0  0  0  0  0  0  0  0  0
  181.4460  176.2580  136.1200 C   0  0  0  0  0  3  0  0  0  0  0  0
  187.8840  178.1230  138.4800 C   0  0  1  0  0  3  0  0  0  0  0  0
  186.9350  177.9210  140.7400 C   0  0  0  0  0  3  0  0  0  0  0  0
  184.7030  178.6670  141.6330 C   0  0  2  0  0  3  0  0  0  0  0  0
  183.9740  178.8260  142.9830 C   0  0  0  0  0  2  0  0  0  0  0  0
  187.6960  177.1090  143.2700 O   0  0  0  0  0  0  0  0  0  0  0  0
  186.6160  178.2450  139.3160 C   0  0  0  0  0  2  0  0  0  0  0  0
  183.1490  178.0720  137.3360 C   0  0  0  0  0  3  0  0  0  0  0  0
  184.9140  179.2850  144.0870 C   0  0  0  0  0  2  0  0  0  0  0  0
  182.4010  179.5190  139.8370 O   0  0  0  0  0  0  0  0  0  0  0  0
  180.3790  180.7790  139.7540 C   0  0  0  0  0  1  0  0  0  0  0  0
  187.5440  177.9730  137.0020 C   0  0  0  0  0  2  0  0  0  0  0  0
  181.7920  178.3560  137.1820 C   0  0  0  0  0  0  0  0  0  0  0  0
  183.6560  176.8570  136.8890 C   0  0  0  0  0  0  0  0  0  0  0  0
  183.8480  177.7960  140.7060 C   0  0  0  0  0  2  0  0  0  0  0  0
  185.2280  178.2570  146.6280 C   0  0  0  0  0  2  0  0  0  0  0  0
  186.4810  179.0940  146.5210 C   0  0  0  0  0  2  0  0  0  0  0  0
  186.3140  177.8660  145.6380 C   0  0  0  0  0  3  0  0  0  0  0  0
  189.3960  176.3160  136.5570 C   0  0  0  0  0  2  0  0  0  0  0  0
  189.6620  175.2460  137.6080 C   0  0  0  0  0  2  0  0  0  0  0  0
  190.8870  175.5760  138.4570 C   0  0  2  0  0  3  0  0  0  0  0  0
  190.4950  176.1250  139.6790 O   0  0  0  0  0  1  0  0  0  0  0  0
  191.8310  176.5340  137.7350 C   0  0  0  0  0  2  0  0  0  0  0  0
  193.4200  174.5860  137.6250 C   0  0  0  0  0  1  0  0  0  0  0  0
  193.2930  176.0900  137.7850 C   0  0  1  0  0  3  0  0  0  0  0  0
  194.0460  176.7430  136.8090 O   0  0  0  0  0  1  0  0  0  0  0  0
  1  8  1  0  0  0  0
  2  9  1  0  0  0  0
  2  6  1  0  0  0  0
  3 28  1  0  0  0  0
  4 32  1  1  0  0  0
  4 25  1  0  0  0  0
  4  6  1  0  0  0  0
  5 19  2  0  0  0  0
  5 12  1  0  0  0  0
  7 27  1  0  0  0  0
  8 24  1  1  0  0  0
  8 23  1  0  0  0  0
 10 26  2  0  0  0  0
 12 31  1  0  0  0  0
 13  5  1  0  0  0  0
 14  7  2  0  0  0  0
 14 10  1  0  0  0  0
 15 11  1  6  0  0  0
 15 20  1  0  0  0  0
 16 13  2  0  0  0  0
 17 28  1  6  0  0  0
 17 13  1  0  0  0  0
 17 18  1  0  0  0  0
 18 22  1  0  0  0  0
 20 16  1  0  0  0  0
 22 12  1  0  0  0  0
 23  3  1  0  0  0  0
 25 15  1  0  0  0  0
 26 21  1  0  0  0  0
 26  1  1  0  0  0  0
 27  9  1  0  0  0  0
 27 21  2  0  0  0  0
 30 29  1  0  0  0  0
 31 30  1  0  0  0  0
 31 29  1  0  0  0  0
 32 33  1  0  0  0  0
 33 34  1  0  0  0  0
 34 35  1  1  0  0  0
 36 38  1  0  0  0  0
 36 34  1  0  0  0  0
 38 37  1  6  0  0  0
 39 38  1  0  0  0  0
M  END
>  <MODEL>
1

>  <REMARK>
 VINA RESULT:      -6.8      0.000      0.000
  Name = 
  6 active torsions:
  status: ('A' for Active; 'I' for Inactive)
    1  A    between atoms: C_3  and  C_5
    2  A    between atoms: C_3  and  C_35
    3  A    between atoms: C_8  and  C_26
    4  A    between atoms: C_8  and  C_35
    5  A    between atoms: N_16  and  C_38
    6  A    between atoms: C_23  and  C_26
                            x       y       z     vdW  Elec       q    Type
                         _______ _______ _______ _____ _____    ______ ____

>  <TORSDO>
F 6

$$$$
=
 OpenBabel10222419383D

 39 42  0  0  1  0  0  0  0  0999 V2000
  188.8470  178.3230  137.2210 C   0  0  0  0  0  2  0  0  0  0  0  0
  183.7660  178.3180  140.7810 C   0  0  0  0  0  2  0  0  0  0  0  0
  187.3170  175.3710  137.1820 C   0  0  0  0  0  2  0  0  0  0  0  0
  181.7990  179.1530  139.4540 C   0  0  1  0  0  3  0  0  0  0  0  0
  182.9660  173.2480  136.0680 C   0  0  0  0  0  0  0  0  0  0  0  0
  182.3350  178.0380  140.3480 C   0  0  0  0  0  2  0  0  0  0  0  0
  186.6990  178.5320  140.9010 C   0  0  0  0  0  3  0  0  0  0  0  0
  188.8720  176.8780  136.7300 C   0  0  1  0  0  3  0  0  0  0  0  0
  184.6150  178.2350  139.6460 O   0  0  0  0  0  0  0  0  0  0  0  0
  188.7570  178.5780  139.6810 N   0  0  0  0  0  0  0  0  0  0  0  0
  181.3690  178.1830  135.9630 C   0  0  0  0  0  1  0  0  0  0  0  0
  183.6900  172.2780  135.2980 N   0  0  0  0  0  0  0  0  0  0  0  0
  183.6000  174.5530  136.3760 C   0  0  0  0  0  0  0  0  0  0  0  0
  188.0940  178.6320  140.8700 C   0  0  0  0  0  3  0  0  0  0  0  0
  182.0080  177.8220  137.2910 C   0  0  1  0  0  3  0  0  0  0  0  0
  182.8020  175.5510  136.7800 C   0  0  0  0  0  3  0  0  0  0  0  0
  185.0900  174.7470  136.1080 C   0  0  2  0  0  3  0  0  0  0  0  0
  185.7750  173.4730  135.5710 C   0  0  0  0  0  2  0  0  0  0  0  0
  181.7920  172.9980  136.4610 O   0  0  0  0  0  0  0  0  0  0  0  0
  183.2380  176.9510  137.0640 C   0  0  0  0  0  2  0  0  0  0  0  0
  186.7000  178.3440  138.4950 C   0  0  0  0  0  3  0  0  0  0  0  0
  184.8870  172.7180  134.5940 C   0  0  0  0  0  2  0  0  0  0  0  0
  187.5880  176.4650  136.3530 O   0  0  0  0  0  0  0  0  0  0  0  0
  189.8080  176.7720  135.5430 C   0  0  0  0  0  1  0  0  0  0  0  0
  182.3810  179.1000  138.0330 C   0  0  0  0  0  2  0  0  0  0  0  0
  188.0920  178.4400  138.5010 C   0  0  0  0  0  0  0  0  0  0  0  0
  185.9990  178.3770  139.6950 C   0  0  0  0  0  0  0  0  0  0  0  0
  185.8120  175.1980  137.3820 C   0  0  0  0  0  2  0  0  0  0  0  0
  183.2560  170.1370  136.3960 C   0  0  0  0  0  2  0  0  0  0  0  0
  184.2890  169.9060  135.3200 C   0  0  0  0  0  2  0  0  0  0  0  0
  183.1810  170.9230  135.0980 C   0  0  0  0  0  3  0  0  0  0  0  0
  180.2780  179.1200  139.4290 C   0  0  0  0  0  2  0  0  0  0  0  0
  179.7380  178.7920  140.8150 C   0  0  0  0  0  2  0  0  0  0  0  0
  179.3500  180.0530  141.5860 C   0  0  2  0  0  3  0  0  0  0  0  0
  179.8510  181.1860  140.9430 O   0  0  0  0  0  1  0  0  0  0  0  0
  179.8530  180.0080  143.0270 C   0  0  0  0  0  2  0  0  0  0  0  0
  181.8630  178.8430  143.9940 C   0  0  0  0  0  1  0  0  0  0  0  0
  180.4750  178.6640  143.4060 C   0  0  1  0  0  3  0  0  0  0  0  0
  179.6590  177.9710  144.3010 O   0  0  0  0  0  1  0  0  0  0  0  0
  1 26  1  0  0  0  0
  3 28  1  0  0  0  0
  4 32  1  6  0  0  0
  4  6  1  0  0  0  0
  5 13  1  0  0  0  0
  5 19  2  0  0  0  0
  6  2  1  0  0  0  0
  8 24  1  6  0  0  0
  8  1  1  0  0  0  0
  9 27  1  0  0  0  0
  9  2  1  0  0  0  0
 10 14  2  0  0  0  0
 12  5  1  0  0  0  0
 13 16  2  0  0  0  0
 14  7  1  0  0  0  0
 15 11  1  6  0  0  0
 15 25  1  0  0  0  0
 16 20  1  0  0  0  0
 17 18  1  1  0  0  0
 17 13  1  0  0  0  0
 17 28  1  0  0  0  0
 20 15  1  0  0  0  0
 21 26  2  0  0  0  0
 21 27  1  0  0  0  0
 22 12  1  0  0  0  0
 22 18  1  0  0  0  0
 23  8  1  0  0  0  0
 23  3  1  0  0  0  0
 25  4  1  0  0  0  0
 26 10  1  0  0  0  0
 27  7  2  0  0  0  0
 30 29  1  0  0  0  0
 31 12  1  0  0  0  0
 31 30  1  0  0  0  0
 31 29  1  0  0  0  0
 32 33  1  0  0  0  0
 33 34  1  0  0  0  0
 34 35  1  6  0  0  0
 34 36  1  0  0  0  0
 36 38  1  0  0  0  0
 38 37  1  1  0  0  0
 38 39  1  0  0  0  0
M  END
>  <MODEL>
2

>  <REMARK>
 VINA RESULT:      -6.2      2.935      9.456
  Name = 
  6 active torsions:
  status: ('A' for Active; 'I' for Inactive)
    1  A    between atoms: C_3  and  C_5
    2  A    between atoms: C_3  and  C_35
    3  A    between atoms: C_8  and  C_26
    4  A    between atoms: C_8  and  C_35
    5  A    between atoms: N_16  and  C_38
    6  A    between atoms: C_23  and  C_26
                            x       y       z     vdW  Elec       q    Type
                         _______ _______ _______ _____ _____    ______ ____

>  <TORSDO>
F 6

$$$$
=
 OpenBabel10222419383D

 39 42  0  0  1  0  0  0  0  0999 V2000
  188.9460  179.3240  137.6840 C   0  0  0  0  0  2  0  0  0  0  0  0
  188.0780  176.3780  143.0740 C   0  0  0  0  0  2  0  0  0  0  0  0
  186.1380  177.5430  137.6770 C   0  0  0  0  0  2  0  0  0  0  0  0
  186.8970  177.9000  144.6920 C   0  0  1  0  0  3  0  0  0  0  0  0
  181.8200  177.0620  140.0860 C   0  0  0  0  0  0  0  0  0  0  0  0
  186.9020  176.5250  144.0280 C   0  0  0  0  0  2  0  0  0  0  0  0
  189.8480  176.4710  140.7250 C   0  0  0  0  0  3  0  0  0  0  0  0
  187.7410  178.8440  136.8800 C   0  0  1  0  0  3  0  0  0  0  0  0
  187.8870  177.2500  141.9700 O   0  0  0  0  0  0  0  0  0  0  0  0
  190.3450  177.5140  138.6300 N   0  0  0  0  0  0  0  0  0  0  0  0
  184.2080  180.0900  143.5560 C   0  0  0  0  0  1  0  0  0  0  0  0
  181.1590  177.1060  138.8120 N   0  0  0  0  0  0  0  0  0  0  0  0
  183.1900  177.6160  140.2140 C   0  0  0  0  0  0  0  0  0  0  0  0
  190.6440  176.5850  139.5800 C   0  0  0  0  0  3  0  0  0  0  0  0
  184.9970  178.8260  143.2670 C   0  0  1  0  0  3  0  0  0  0  0  0
  183.6390  177.8800  141.4480 C   0  0  0  0  0  3  0  0  0  0  0  0
  183.9750  177.9780  138.9560 C   0  0  2  0  0  3  0  0  0  0  0  0
  183.2120  177.6520  137.6560 C   0  0  0  0  0  2  0  0  0  0  0  0
  181.2300  176.5740  141.0900 O   0  0  0  0  0  0  0  0  0  0  0  0
  184.9550  178.5070  141.7780 C   0  0  0  0  0  2  0  0  0  0  0  0
  188.4750  178.2760  139.9000 C   0  0  0  0  0  3  0  0  0  0  0  0
  181.7260  177.9570  137.7750 C   0  0  0  0  0  2  0  0  0  0  0  0
  186.5830  178.8690  137.6700 O   0  0  0  0  0  0  0  0  0  0  0  0
  187.5540  179.7460  135.6770 C   0  0  0  0  0  1  0  0  0  0  0  0
  186.4340  179.0130  143.7390 C   0  0  0  0  0  2  0  0  0  0  0  0
  189.2850  178.3580  138.7680 C   0  0  0  0  0  0  0  0  0  0  0  0
  188.7460  177.3250  140.8780 C   0  0  0  0  0  0  0  0  0  0  0  0
  185.3230  177.2490  138.9360 C   0  0  0  0  0  2  0  0  0  0  0  0
  180.0660  174.9290  138.5920 C   0  0  0  0  0  2  0  0  0  0  0  0
  179.9090  175.6630  137.2810 C   0  0  0  0  0  2  0  0  0  0  0  0
  179.8790  176.4380  138.5900 C   0  0  0  0  0  3  0  0  0  0  0  0
  186.0490  177.8690  145.9560 C   0  0  0  0  0  2  0  0  0  0  0  0
  186.8180  178.4870  147.1170 C   0  0  0  0  0  2  0  0  0  0  0  0
  187.9400  177.5730  147.6060 C   0  0  2  0  0  3  0  0  0  0  0  0
  187.9300  177.4990  149.0000 O   0  0  0  0  0  1  0  0  0  0  0  0
  189.3060  178.0500  147.1210 C   0  0  0  0  0  2  0  0  0  0  0  0
  190.8400  177.4820  145.2090 C   0  0  0  0  0  1  0  0  0  0  0  0
  190.1180  176.9520  146.4350 C   0  0  1  0  0  3  0  0  0  0  0  0
  191.0320  176.3800  147.3200 O   0  0  0  0  0  1  0  0  0  0  0  0
  1 26  1  0  0  0  0
  2  6  1  0  0  0  0
  3 28  1  0  0  0  0
  4 32  1  1  0  0  0
  5 13  1  0  0  0  0
  5 19  2  0  0  0  0
  6  4  1  0  0  0  0
  7 27  1  0  0  0  0
  8 24  1  6  0  0  0
  8 23  1  0  0  0  0
  8  1  1  0  0  0  0
  9  2  1  0  0  0  0
 10 26  2  0  0  0  0
 10 14  1  0  0  0  0
 12  5  1  0  0  0  0
 13 16  2  0  0  0  0
 14  7  2  0  0  0  0
 15 11  1  6  0  0  0
 15 25  1  0  0  0  0
 16 20  1  0  0  0  0
 17 18  1  6  0  0  0
 17 13  1  0  0  0  0
 18 22  1  0  0  0  0
 20 15  1  0  0  0  0
 21 27  2  0  0  0  0
 22 12  1  0  0  0  0
 23  3  1  0  0  0  0
 25  4  1  0  0  0  0
 26 21  1  0  0  0  0
 27  9  1  0  0  0  0
 28 17  1  0  0  0  0
 30 31  1  0  0  0  0
 30 29  1  0  0  0  0
 31 29  1  0  0  0  0
 31 12  1  0  0  0  0
 32 33  1  0  0  0  0
 33 34  1  0  0  0  0
 34 35  1  1  0  0  0
 36 34  1  0  0  0  0
 38 37  1  6  0  0  0
 38 36  1  0  0  0  0
 38 39  1  0  0  0  0
M  END
>  <MODEL>
3

>  <REMARK>
 VINA RESULT:      -6.2      2.636      7.708
  Name = 
  6 active torsions:
  status: ('A' for Active; 'I' for Inactive)
    1  A    between atoms: C_3  and  C_5
    2  A    between atoms: C_3  and  C_35
    3  A    between atoms: C_8  and  C_26
    4  A    between atoms: C_8  and  C_35
    5  A    between atoms: N_16  and  C_38
    6  A    between atoms: C_23  and  C_26
                            x       y       z     vdW  Elec       q    Type
                         _______ _______ _______ _____ _____    ______ ____

>  <TORSDO>
F 6

$$$$
=
 OpenBabel10222419383D

 39 42  0  0  1  0  0  0  0  0999 V2000
  188.4360  179.0250  136.7230 C   0  0  0  0  0  2  0  0  0  0  0  0
  187.6840  177.0700  142.5630 C   0  0  0  0  0  2  0  0  0  0  0  0
  186.1350  176.6340  136.9360 C   0  0  0  0  0  2  0  0  0  0  0  0
  186.0120  178.5360  143.7390 C   0  0  1  0  0  3  0  0  0  0  0  0
  181.8070  175.5720  139.1320 C   0  0  0  0  0  0  0  0  0  0  0  0
  186.4090  177.1030  143.3910 C   0  0  0  0  0  2  0  0  0  0  0  0
  189.6330  177.1410  140.3590 C   0  0  0  0  0  3  0  0  0  0  0  0
  187.4710  178.1120  135.9730 C   0  0  1  0  0  3  0  0  0  0  0  0
  187.4200  177.6330  141.2870 O   0  0  0  0  0  0  0  0  0  0  0  0
  190.1030  177.8430  138.1200 N   0  0  0  0  0  0  0  0  0  0  0  0
  183.0310  179.7190  141.9980 C   0  0  0  0  0  1  0  0  0  0  0  0
  181.2990  175.1990  137.8430 N   0  0  0  0  0  0  0  0  0  0  0  0
  182.9890  176.4640  139.2180 C   0  0  0  0  0  0  0  0  0  0  0  0
  190.5020  177.2220  139.2650 C   0  0  0  0  0  3  0  0  0  0  0  0
  184.1190  178.6610  142.0380 C   0  0  1  0  0  3  0  0  0  0  0  0
  183.2260  177.0690  140.3900 C   0  0  0  0  0  3  0  0  0  0  0  0
  183.8030  176.7570  137.9600 C   0  0  2  0  0  3  0  0  0  0  0  0
  183.2840  176.0030  136.7190 C   0  0  0  0  0  2  0  0  0  0  0  0
  181.2390  175.1580  140.1810 O   0  0  0  0  0  0  0  0  0  0  0  0
  184.3160  178.0560  140.6530 C   0  0  0  0  0  2  0  0  0  0  0  0
  187.9790  178.3480  139.0820 C   0  0  0  0  0  3  0  0  0  0  0  0
  181.7640  175.9450  136.6810 C   0  0  0  0  0  2  0  0  0  0  0  0
  186.2590  178.0010  136.6680 O   0  0  0  0  0  0  0  0  0  0  0  0
  187.2140  178.6850  134.5940 C   0  0  0  0  0  1  0  0  0  0  0  0
  185.4120  179.2890  142.5420 C   0  0  0  0  0  2  0  0  0  0  0  0
  188.8680  178.4060  138.0090 C   0  0  0  0  0  0  0  0  0  0  0  0
  188.3530  177.7050  140.2570 C   0  0  0  0  0  0  0  0  0  0  0  0
  185.2770  176.3980  138.1780 C   0  0  0  0  0  2  0  0  0  0  0  0
  180.8370  172.8050  137.6600 C   0  0  0  0  0  2  0  0  0  0  0  0
  180.3940  173.4630  136.3750 C   0  0  0  0  0  2  0  0  0  0  0  0
  180.2400  174.2030  137.6950 C   0  0  0  0  0  3  0  0  0  0  0  0
  185.0610  178.5420  144.9280 C   0  0  0  0  0  2  0  0  0  0  0  0
  185.6110  177.6630  146.0440 C   0  0  0  0  0  2  0  0  0  0  0  0
  185.9470  178.4760  147.2930 C   0  0  2  0  0  3  0  0  0  0  0  0
  185.5800  179.8110  147.1140 O   0  0  0  0  0  1  0  0  0  0  0  0
  187.4300  178.3850  147.6400 C   0  0  0  0  0  2  0  0  0  0  0  0
  189.1480  177.9170  145.8610 C   0  0  0  0  0  1  0  0  0  0  0  0
  188.1690  177.3070  146.8490 C   0  0  1  0  0  3  0  0  0  0  0  0
  188.8360  176.4290  147.7040 O   0  0  0  0  0  1  0  0  0  0  0  0
  1 26  1  0  0  0  0
  2  6  1  0  0  0  0
  3 28  1  0  0  0  0
  4 32  1  1  0  0  0
  5 13  1  0  0  0  0
  5 19  2  0  0  0  0
  6  4  1  0  0  0  0
  8 24  1  6  0  0  0
  8 23  1  0  0  0  0
  8  1  1  0  0  0  0
  9  2  1  0  0  0  0
 10 14  1  0  0  0  0
 12  5  1  0  0  0  0
 13 16  2  0  0  0  0
 14  7  2  0  0  0  0
 15 11  1  6  0  0  0
 15 25  1  0  0  0  0
 16 20  1  0  0  0  0
 17 18  1  6  0  0  0
 17 28  1  0  0  0  0
 17 13  1  0  0  0  0
 20 15  1  0  0  0  0
 21 27  2  0  0  0  0
 22 18  1  0  0  0  0
 22 12  1  0  0  0  0
 23  3  1  0  0  0  0
 25  4  1  0  0  0  0
 26 10  2  0  0  0  0
 26 21  1  0  0  0  0
 27  7  1  0  0  0  0
 27  9  1  0  0  0  0
 29 31  1  0  0  0  0
 30 29  1  0  0  0  0
 30 31  1  0  0  0  0
 31 12  1  0  0  0  0
 32 33  1  0  0  0  0
 33 34  1  0  0  0  0
 34 35  1  6  0  0  0
 34 36  1  0  0  0  0
 38 37  1  6  0  0  0
 38 36  1  0  0  0  0
 38 39  1  0  0  0  0
M  END
>  <MODEL>
4

>  <REMARK>
 VINA RESULT:      -6.0      2.745      8.034
  Name = 
  6 active torsions:
  status: ('A' for Active; 'I' for Inactive)
    1  A    between atoms: C_3  and  C_5
    2  A    between atoms: C_3  and  C_35
    3  A    between atoms: C_8  and  C_26
    4  A    between atoms: C_8  and  C_35
    5  A    between atoms: N_16  and  C_38
    6  A    between atoms: C_23  and  C_26
                            x       y       z     vdW  Elec       q    Type
                         _______ _______ _______ _____ _____    ______ ____

>  <TORSDO>
F 6

$$$$
=
 OpenBabel10222419383D

 39 42  0  0  1  0  0  0  0  0999 V2000
  181.0170  174.8400  135.3360 C   0  0  0  0  0  2  0  0  0  0  0  0
  187.0900  173.8630  136.1490 C   0  0  0  0  0  2  0  0  0  0  0  0
  181.9950  175.6480  138.4100 C   0  0  0  0  0  2  0  0  0  0  0  0
  188.3820  175.8870  135.3990 C   0  0  1  0  0  3  0  0  0  0  0  0
  185.1370  178.6260  140.8450 C   0  0  0  0  0  0  0  0  0  0  0  0
  188.1470  174.8880  136.5300 C   0  0  0  0  0  2  0  0  0  0  0  0
  184.5470  172.4650  135.6590 C   0  0  0  0  0  3  0  0  0  0  0  0
  180.6010  175.3200  136.7240 C   0  0  1  0  0  3  0  0  0  0  0  0
  185.8320  174.5140  136.0500 O   0  0  0  0  0  0  0  0  0  0  0  0
  182.1880  172.6590  135.3050 N   0  0  0  0  0  0  0  0  0  0  0  0
  187.1420  179.2460  136.1020 C   0  0  0  0  0  1  0  0  0  0  0  0
  184.0360  179.0360  141.6690 N   0  0  0  0  0  0  0  0  0  0  0  0
  184.8680  178.0260  139.5170 C   0  0  0  0  0  0  0  0  0  0  0  0
  183.2990  171.8790  135.4200 C   0  0  0  0  0  3  0  0  0  0  0  0
  187.0960  177.7860  136.5120 C   0  0  1  0  0  3  0  0  0  0  0  0
  185.8810  177.9780  138.6400 C   0  0  0  0  0  3  0  0  0  0  0  0
  183.4450  177.6090  139.1540 C   0  0  2  0  0  3  0  0  0  0  0  0
  182.4410  177.8370  140.3040 C   0  0  0  0  0  2  0  0  0  0  0  0
  186.3240  178.7960  141.2430 O   0  0  0  0  0  0  0  0  0  0  0  0
  185.7890  177.4830  137.2340 C   0  0  0  0  0  2  0  0  0  0  0  0
  183.4860  174.6330  135.6370 C   0  0  0  0  0  3  0  0  0  0  0  0
  182.7190  179.1300  141.0550 C   0  0  0  0  0  2  0  0  0  0  0  0
  181.5340  176.2350  137.2270 O   0  0  0  0  0  0  0  0  0  0  0  0
  179.2400  175.9810  136.6330 C   0  0  0  0  0  1  0  0  0  0  0  0
  187.2440  176.9120  135.2720 C   0  0  0  0  0  2  0  0  0  0  0  0
  182.2570  174.0150  135.4060 C   0  0  0  0  0  0  0  0  0  0  0  0
  184.6340  173.8600  135.7770 C   0  0  0  0  0  0  0  0  0  0  0  0
  183.4050  176.1320  138.7470 C   0  0  0  0  0  2  0  0  0  0  0  0
  184.6570  178.3200  143.9240 C   0  0  0  0  0  2  0  0  0  0  0  0
  183.2300  178.8130  143.9690 C   0  0  0  0  0  2  0  0  0  0  0  0
  184.2340  179.4860  143.0450 C   0  0  0  0  0  3  0  0  0  0  0  0
  189.7270  176.5760  135.5800 C   0  0  0  0  0  2  0  0  0  0  0  0
  190.5730  175.8170  136.5940 C   0  0  0  0  0  2  0  0  0  0  0  0
  191.0320  176.7190  137.7380 C   0  0  2  0  0  3  0  0  0  0  0  0
  192.4240  176.6980  137.8420 O   0  0  0  0  0  1  0  0  0  0  0  0
  190.4060  176.3040  139.0670 C   0  0  0  0  0  2  0  0  0  0  0  0
  189.6320  177.5950  141.0840 C   0  0  0  0  0  1  0  0  0  0  0  0
  189.4070  177.3270  139.6070 C   0  0  1  0  0  3  0  0  0  0  0  0
  189.4750  178.5200  138.8860 O   0  0  0  0  0  1  0  0  0  0  0  0
  1 26  1  0  0  0  0
  1  8  1  0  0  0  0
  2  6  1  0  0  0  0
  3 28  1  0  0  0  0
  4 32  1  1  0  0  0
  4  6  1  0  0  0  0
  5 19  2  0  0  0  0
  5 12  1  0  0  0  0
  7 27  1  0  0  0  0
  8 24  1  6  0  0  0
  8 23  1  0  0  0  0
  9  2  1  0  0  0  0
 10 26  2  0  0  0  0
 10 14  1  0  0  0  0
 12 31  1  0  0  0  0
 13  5  1  0  0  0  0
 14  7  2  0  0  0  0
 15 11  1  6  0  0  0
 15 20  1  0  0  0  0
 16 13  2  0  0  0  0
 17 28  1  1  0  0  0
 17 13  1  0  0  0  0
 17 18  1  0  0  0  0
 18 22  1  0  0  0  0
 20 16  1  0  0  0  0
 21 27  2  0  0  0  0
 22 12  1  0  0  0  0
 23  3  1  0  0  0  0
 25  4  1  0  0  0  0
 25 15  1  0  0  0  0
 26 21  1  0  0  0  0
 27  9  1  0  0  0  0
 29 30  1  0  0  0  0
 31 29  1  0  0  0  0
 31 30  1  0  0  0  0
 32 33  1  0  0  0  0
 33 34  1  0  0  0  0
 34 35  1  1  0  0  0
 34 36  1  0  0  0  0
 36 38  1  0  0  0  0
 38 37  1  1  0  0  0
 39 38  1  0  0  0  0
M  END
>  <MODEL>
5

>  <REMARK>
 VINA RESULT:      -5.9      2.301      3.536
  Name = 
  6 active torsions:
  status: ('A' for Active; 'I' for Inactive)
    1  A    between atoms: C_3  and  C_5
    2  A    between atoms: C_3  and  C_35
    3  A    between atoms: C_8  and  C_26
    4  A    between atoms: C_8  and  C_35
    5  A    between atoms: N_16  and  C_38
    6  A    between atoms: C_23  and  C_26
                            x       y       z     vdW  Elec       q    Type
                         _______ _______ _______ _____ _____    ______ ____

>  <TORSDO>
F 6

$$$$
=
 OpenBabel10222419383D

 39 42  0  0  1  0  0  0  0  0999 V2000
  189.0180  178.2350  137.2280 C   0  0  0  0  0  2  0  0  0  0  0  0
  184.0450  178.4450  140.9310 C   0  0  0  0  0  2  0  0  0  0  0  0
  187.3160  175.3790  137.1690 C   0  0  0  0  0  2  0  0  0  0  0  0
  182.0950  179.4240  139.6790 C   0  0  1  0  0  3  0  0  0  0  0  0
  182.8180  173.5410  136.1340 C   0  0  0  0  0  0  0  0  0  0  0  0
  182.5880  178.2590  140.5330 C   0  0  0  0  0  2  0  0  0  0  0  0
  186.9870  178.4830  140.9720 C   0  0  0  0  0  3  0  0  0  0  0  0
  188.9450  176.8030  136.7060 C   0  0  1  0  0  3  0  0  0  0  0  0
  184.8560  178.3380  139.7710 O   0  0  0  0  0  0  0  0  0  0  0  0
  189.0100  178.4370  139.6950 N   0  0  0  0  0  0  0  0  0  0  0  0
  181.5140  178.5620  136.1810 C   0  0  0  0  0  1  0  0  0  0  0  0
  183.4630  172.5480  135.3220 N   0  0  0  0  0  0  0  0  0  0  0  0
  183.5370  174.7990  136.4520 C   0  0  0  0  0  0  0  0  0  0  0  0
  188.3840  178.5020  140.9040 C   0  0  0  0  0  3  0  0  0  0  0  0
  182.1670  178.1330  137.4820 C   0  0  1  0  0  3  0  0  0  0  0  0
  182.8100  175.8320  136.9000 C   0  0  0  0  0  3  0  0  0  0  0  0
  185.0280  174.9120  136.1460 C   0  0  2  0  0  3  0  0  0  0  0  0
  185.6210  173.6130  135.5620 C   0  0  0  0  0  2  0  0  0  0  0  0
  181.6420  173.3510  136.5540 O   0  0  0  0  0  0  0  0  0  0  0  0
  183.3360  177.1980  137.2010 C   0  0  0  0  0  2  0  0  0  0  0  0
  186.9120  178.3510  138.5630 C   0  0  0  0  0  3  0  0  0  0  0  0
  184.6640  172.9330  134.5940 C   0  0  0  0  0  2  0  0  0  0  0  0
  187.6290  176.4740  136.3570 O   0  0  0  0  0  0  0  0  0  0  0  0
  189.8410  176.6700  135.4910 C   0  0  0  0  0  1  0  0  0  0  0  0
  182.6340  179.3690  138.2410 C   0  0  0  0  0  2  0  0  0  0  0  0
  188.3060  178.3660  138.5320 C   0  0  0  0  0  0  0  0  0  0  0  0
  186.2470  178.3980  139.7830 C   0  0  0  0  0  0  0  0  0  0  0  0
  185.8090  175.2900  137.4080 C   0  0  0  0  0  2  0  0  0  0  0  0
  183.1440  170.3300  136.3010 C   0  0  0  0  0  2  0  0  0  0  0  0
  183.9560  170.1690  135.0380 C   0  0  0  0  0  2  0  0  0  0  0  0
  182.8690  171.2310  135.1080 C   0  0  0  0  0  3  0  0  0  0  0  0
  180.5740  179.4810  139.6960 C   0  0  0  0  0  2  0  0  0  0  0  0
  180.1060  180.9140  139.9110 C   0  0  0  0  0  2  0  0  0  0  0  0
  179.6490  181.5630  138.6060 C   0  0  2  0  0  3  0  0  0  0  0  0
  179.1690  180.5920  137.7250 O   0  0  0  0  0  1  0  0  0  0  0  0
  180.7750  182.3540  137.9460 C   0  0  0  0  0  2  0  0  0  0  0  0
  181.5440  184.6250  137.1840 C   0  0  0  0  0  1  0  0  0  0  0  0
  180.3440  183.7460  137.4860 C   0  0  1  0  0  3  0  0  0  0  0  0
  179.5120  183.6670  136.3680 O   0  0  0  0  0  1  0  0  0  0  0  0
  1 26  1  0  0  0  0
  3 28  1  0  0  0  0
  4 32  1  6  0  0  0
  4  6  1  0  0  0  0
  5 13  1  0  0  0  0
  5 19  2  0  0  0  0
  6  2  1  0  0  0  0
  8 24  1  6  0  0  0
  8  1  1  0  0  0  0
  9 27  1  0  0  0  0
  9  2  1  0  0  0  0
 10 14  2  0  0  0  0
 12  5  1  0  0  0  0
 13 16  2  0  0  0  0
 14  7  1  0  0  0  0
 15 11  1  6  0  0  0
 15 25  1  0  0  0  0
 16 20  1  0  0  0  0
 17 18  1  1  0  0  0
 17 13  1  0  0  0  0
 17 28  1  0  0  0  0
 20 15  1  0  0  0  0
 21 27  1  0  0  0  0
 22 12  1  0  0  0  0
 22 18  1  0  0  0  0
 23  8  1  0  0  0  0
 23  3  1  0  0  0  0
 25  4  1  0  0  0  0
 26 21  2  0  0  0  0
 26 10  1  0  0  0  0
 27  7  2  0  0  0  0
 30 31  1  0  0  0  0
 30 29  1  0  0  0  0
 31 12  1  0  0  0  0
 31 29  1  0  0  0  0
 32 33  1  0  0  0  0
 34 35  1  6  0  0  0
 34 33  1  0  0  0  0
 36 34  1  0  0  0  0
 38 37  1  6  0  0  0
 38 36  1  0  0  0  0
 39 38  1  0  0  0  0
M  END
>  <MODEL>
6

>  <REMARK>
 VINA RESULT:      -5.8      2.981      9.530
  Name = 
  6 active torsions:
  status: ('A' for Active; 'I' for Inactive)
    1  A    between atoms: C_3  and  C_5
    2  A    between atoms: C_3  and  C_35
    3  A    between atoms: C_8  and  C_26
    4  A    between atoms: C_8  and  C_35
    5  A    between atoms: N_16  and  C_38
    6  A    between atoms: C_23  and  C_26
                            x       y       z     vdW  Elec       q    Type
                         _______ _______ _______ _____ _____    ______ ____

>  <TORSDO>
F 6

$$$$
=
 OpenBabel10222419383D

 39 42  0  0  1  0  0  0  0  0999 V2000
  182.6580  179.3600  141.7520 C   0  0  0  0  0  2  0  0  0  0  0  0
  185.0430  175.7810  137.2810 C   0  0  0  0  0  2  0  0  0  0  0  0
  185.3970  177.7730  142.7720 C   0  0  0  0  0  2  0  0  0  0  0  0
  186.5870  177.1440  135.8370 C   0  0  1  0  0  3  0  0  0  0  0  0
  190.2200  177.2450  141.7090 C   0  0  0  0  0  0  0  0  0  0  0  0
  186.4320  175.8730  136.6670 C   0  0  0  0  0  2  0  0  0  0  0  0
  182.6930  176.0770  139.0280 C   0  0  0  0  0  3  0  0  0  0  0  0
  183.6070  179.0670  142.9110 C   0  0  1  0  0  3  0  0  0  0  0  0
  184.9020  176.8030  138.2570 O   0  0  0  0  0  0  0  0  0  0  0  0
  181.6150  177.3570  140.7390 N   0  0  0  0  0  0  0  0  0  0  0  0
  188.8080  179.6290  137.3230 C   0  0  0  0  0  1  0  0  0  0  0  0
  190.5040  177.4990  143.0930 N   0  0  0  0  0  0  0  0  0  0  0  0
  188.9260  177.6910  141.1380 C   0  0  0  0  0  0  0  0  0  0  0  0
  181.6110  176.2920  139.8880 C   0  0  0  0  0  3  0  0  0  0  0  0
  187.9990  178.3680  137.5690 C   0  0  1  0  0  3  0  0  0  0  0  0
  188.8270  177.7600  139.8040 C   0  0  0  0  0  3  0  0  0  0  0  0
  187.8170  178.1670  142.0720 C   0  0  2  0  0  3  0  0  0  0  0  0
  188.2010  178.0660  143.5630 C   0  0  0  0  0  2  0  0  0  0  0  0
  191.0750  176.6650  140.9820 O   0  0  0  0  0  0  0  0  0  0  0  0
  187.6390  178.2540  139.0450 C   0  0  0  0  0  2  0  0  0  0  0  0
  183.7440  178.0570  139.9210 C   0  0  0  0  0  3  0  0  0  0  0  0
  189.6540  178.4440  143.8040 C   0  0  0  0  0  2  0  0  0  0  0  0
  184.9350  179.0580  142.4670 O   0  0  0  0  0  0  0  0  0  0  0  0
  183.4340  180.1320  143.9760 C   0  0  0  0  0  1  0  0  0  0  0  0
  186.7440  178.4010  136.7070 C   0  0  0  0  0  2  0  0  0  0  0  0
  182.6520  178.2390  140.7690 C   0  0  0  0  0  0  0  0  0  0  0  0
  183.7750  176.9700  139.0550 C   0  0  0  0  0  0  0  0  0  0  0  0
  186.5330  177.3650  141.8350 C   0  0  0  0  0  2  0  0  0  0  0  0
  191.5150  175.4550  143.9770 C   0  0  0  0  0  2  0  0  0  0  0  0
  191.3320  176.4180  145.1260 C   0  0  0  0  0  2  0  0  0  0  0  0
  191.6900  176.9480  143.7450 C   0  0  0  0  0  3  0  0  0  0  0  0
  187.7500  176.9980  134.8650 C   0  0  0  0  0  2  0  0  0  0  0  0
  188.1420  175.5320  134.7350 C   0  0  0  0  0  2  0  0  0  0  0  0
  189.5990  175.2970  135.1300 C   0  0  2  0  0  3  0  0  0  0  0  0
  190.0550  174.0890  134.5990 O   0  0  0  0  0  1  0  0  0  0  0  0
  189.7780  175.2990  136.6460 C   0  0  0  0  0  2  0  0  0  0  0  0
  191.6120  176.7500  137.5750 C   0  0  0  0  0  1  0  0  0  0  0  0
  191.2430  175.3630  137.0780 C   0  0  1  0  0  3  0  0  0  0  0  0
  191.5150  174.4120  138.0620 O   0  0  0  0  0  1  0  0  0  0  0  0
  1  8  1  0  0  0  0
  2  9  1  0  0  0  0
  4 32  1  6  0  0  0
  4  6  1  0  0  0  0
  4 25  1  0  0  0  0
  5 12  1  0  0  0  0
  6  2  1  0  0  0  0
  7 27  2  0  0  0  0
  7 14  1  0  0  0  0
  8 24  1  1  0  0  0
  9 27  1  0  0  0  0
 10 26  1  0  0  0  0
 12 31  1  0  0  0  0
 12 22  1  0  0  0  0
 13  5  1  0  0  0  0
 13 17  1  0  0  0  0
 14 10  2  0  0  0  0
 15 11  1  1  0  0  0
 15 20  1  0  0  0  0
 16 13  2  0  0  0  0
 17 28  1  1  0  0  0
 17 18  1  0  0  0  0
 18 22  1  0  0  0  0
 19  5  2  0  0  0  0
 20 16  1  0  0  0  0
 21 26  2  0  0  0  0
 23  3  1  0  0  0  0
 23  8  1  0  0  0  0
 25 15  1  0  0  0  0
 26  1  1  0  0  0  0
 27 21  1  0  0  0  0
 28  3  1  0  0  0  0
 29 30  1  0  0  0  0
 31 29  1  0  0  0  0
 31 30  1  0  0  0  0
 33 32  1  0  0  0  0
 33 34  1  0  0  0  0
 34 35  1  1  0  0  0
 34 36  1  0  0  0  0
 36 38  1  0  0  0  0
 38 37  1  1  0  0  0
 38 39  1  0  0  0  0
M  END
>  <MODEL>
7

>  <REMARK>
 VINA RESULT:      -5.5      2.552      3.619
  Name = 
  6 active torsions:
  status: ('A' for Active; 'I' for Inactive)
    1  A    between atoms: C_3  and  C_5
    2  A    between atoms: C_3  and  C_35
    3  A    between atoms: C_8  and  C_26
    4  A    between atoms: C_8  and  C_35
    5  A    between atoms: N_16  and  C_38
    6  A    between atoms: C_23  and  C_26
                            x       y       z     vdW  Elec       q    Type
                         _______ _______ _______ _____ _____    ______ ____

>  <TORSDO>
F 6

$$$$
=
 OpenBabel10222419383D

 39 42  0  0  1  0  0  0  0  0999 V2000
  189.5570  177.3570  136.1520 C   0  0  0  0  0  2  0  0  0  0  0  0
  185.1650  178.4190  140.4040 C   0  0  0  0  0  2  0  0  0  0  0  0
  187.7630  174.6290  136.7790 C   0  0  0  0  0  2  0  0  0  0  0  0
  183.0950  179.3050  139.2820 C   0  0  1  0  0  3  0  0  0  0  0  0
  183.1020  172.9150  136.6620 C   0  0  0  0  0  0  0  0  0  0  0  0
  183.6610  178.2580  140.2390 C   0  0  0  0  0  2  0  0  0  0  0  0
  188.0840  178.2950  140.0450 C   0  0  0  0  0  3  0  0  0  0  0  0
  189.3600  175.8690  135.8810 C   0  0  1  0  0  3  0  0  0  0  0  0
  185.8010  178.0890  139.1780 O   0  0  0  0  0  0  0  0  0  0  0  0
  189.9040  177.9370  138.5330 N   0  0  0  0  0  0  0  0  0  0  0  0
  181.9960  177.9490  136.0770 C   0  0  0  0  0  1  0  0  0  0  0  0
  183.5900  171.7740  135.9410 N   0  0  0  0  0  0  0  0  0  0  0  0
  183.9020  174.1630  136.6760 C   0  0  0  0  0  0  0  0  0  0  0  0
  189.4570  178.2230  139.7880 C   0  0  0  0  0  3  0  0  0  0  0  0
  182.8100  177.6890  137.3310 C   0  0  1  0  0  3  0  0  0  0  0  0
  183.2830  175.2930  137.0440 C   0  0  0  0  0  3  0  0  0  0  0  0
  185.3380  174.1420  136.1580 C   0  0  2  0  0  3  0  0  0  0  0  0
  185.7970  172.7360  135.7170 C   0  0  0  0  0  2  0  0  0  0  0  0
  181.9910  172.8590  137.2600 O   0  0  0  0  0  0  0  0  0  0  0  0
  183.8950  176.6560  137.0500 C   0  0  0  0  0  2  0  0  0  0  0  0
  187.6650  177.7990  137.7200 C   0  0  0  0  0  3  0  0  0  0  0  0
  184.6890  171.9730  135.0070 C   0  0  0  0  0  2  0  0  0  0  0  0
  187.9970  175.5660  135.7680 O   0  0  0  0  0  0  0  0  0  0  0  0
  190.0700  175.5000  134.5940 C   0  0  0  0  0  1  0  0  0  0  0  0
  183.4230  178.9990  137.8120 C   0  0  0  0  0  2  0  0  0  0  0  0
  189.0410  177.7280  137.5010 C   0  0  0  0  0  0  0  0  0  0  0  0
  187.1810  178.0710  138.9950 C   0  0  0  0  0  0  0  0  0  0  0  0
  186.3030  174.6640  137.2280 C   0  0  0  0  0  2  0  0  0  0  0  0
  183.2740  169.6310  134.8060 C   0  0  0  0  0  2  0  0  0  0  0  0
  181.9320  170.3200  134.8790 C   0  0  0  0  0  2  0  0  0  0  0  0
  182.9250  170.4750  136.0220 C   0  0  0  0  0  3  0  0  0  0  0  0
  181.5950  179.4500  139.4930 C   0  0  0  0  0  2  0  0  0  0  0  0
  181.1950  178.8620  140.8400 C   0  0  0  0  0  2  0  0  0  0  0  0
  179.8540  178.1350  140.7670 C   0  0  2  0  0  3  0  0  0  0  0  0
  179.0620  178.4700  141.8670 O   0  0  0  0  0  1  0  0  0  0  0  0
  180.0380  176.6210  140.7000 C   0  0  0  0  0  2  0  0  0  0  0  0
  178.9840  176.9750  138.4430 C   0  0  0  0  0  1  0  0  0  0  0  0
  179.2750  175.9730  139.5450 C   0  0  1  0  0  3  0  0  0  0  0  0
  179.9800  174.8840  139.0310 O   0  0  0  0  0  1  0  0  0  0  0  0
  1 26  1  0  0  0  0
  3 28  1  0  0  0  0
  4 32  1  6  0  0  0
  4  6  1  0  0  0  0
  5 13  1  0  0  0  0
  5 19  2  0  0  0  0
  6  2  1  0  0  0  0
  8 24  1  6  0  0  0
  8  1  1  0  0  0  0
  9  2  1  0  0  0  0
 10 14  2  0  0  0  0
 12 31  1  0  0  0  0
 12  5  1  0  0  0  0
 13 16  2  0  0  0  0
 14  7  1  0  0  0  0
 15 11  1  6  0  0  0
 15 25  1  0  0  0  0
 16 20  1  0  0  0  0
 17 18  1  1  0  0  0
 17 13  1  0  0  0  0
 17 28  1  0  0  0  0
 20 15  1  0  0  0  0
 21 27  1  0  0  0  0
 22 18  1  0  0  0  0
 22 12  1  0  0  0  0
 23  8  1  0  0  0  0
 23  3  1  0  0  0  0
 25  4  1  0  0  0  0
 26 21  2  0  0  0  0
 26 10  1  0  0  0  0
 27  9  1  0  0  0  0
 27  7  2  0  0  0  0
 29 30  1  0  0  0  0
 29 31  1  0  0  0  0
 30 31  1  0  0  0  0
 32 33  1  0  0  0  0
 34 33  1  0  0  0  0
 34 35  1  1  0  0  0
 36 34  1  0  0  0  0
 38 37  1  6  0  0  0
 38 36  1  0  0  0  0
 39 38  1  0  0  0  0
M  END
>  <MODEL>
8

>  <REMARK>
 VINA RESULT:      -5.4      3.299      9.411
  Name = 
  6 active torsions:
  status: ('A' for Active; 'I' for Inactive)
    1  A    between atoms: C_3  and  C_5
    2  A    between atoms: C_3  and  C_35
    3  A    between atoms: C_8  and  C_26
    4  A    between atoms: C_8  and  C_35
    5  A    between atoms: N_16  and  C_38
    6  A    between atoms: C_23  and  C_26
                            x       y       z     vdW  Elec       q    Type
                         _______ _______ _______ _____ _____    ______ ____

>  <TORSDO>
F 6

$$$$
=
 OpenBabel10222419383D

 39 42  0  0  1  0  0  0  0  0999 V2000
  180.5530  176.6140  140.4510 C   0  0  0  0  0  2  0  0  0  0  0  0
  183.8060  180.1860  144.3430 C   0  0  0  0  0  2  0  0  0  0  0  0
  183.0600  178.1570  138.9050 C   0  0  0  0  0  2  0  0  0  0  0  0
  185.5850  178.8110  145.4710 C   0  0  1  0  0  3  0  0  0  0  0  0
  188.0040  178.6270  139.0050 C   0  0  0  0  0  0  0  0  0  0  0  0
  185.2860  180.0800  144.6760 C   0  0  0  0  0  2  0  0  0  0  0  0
  181.1580  179.9120  143.0890 C   0  0  0  0  0  3  0  0  0  0  0  0
  181.2620  176.8870  139.1280 C   0  0  1  0  0  3  0  0  0  0  0  0
  183.4660  179.1610  143.4220 O   0  0  0  0  0  0  0  0  0  0  0  0
  179.7520  178.6370  141.6320 N   0  0  0  0  0  0  0  0  0  0  0  0
  187.4450  176.2890  143.6010 C   0  0  0  0  0  1  0  0  0  0  0  0
  188.0110  178.3610  137.5950 N   0  0  0  0  0  0  0  0  0  0  0  0
  186.8410  178.2020  139.8200 C   0  0  0  0  0  0  0  0  0  0  0  0
  179.9260  179.7060  142.4580 C   0  0  0  0  0  3  0  0  0  0  0  0
  186.6190  177.5590  143.5070 C   0  0  1  0  0  3  0  0  0  0  0  0
  187.0030  178.1430  141.1490 C   0  0  0  0  0  3  0  0  0  0  0  0
  185.5650  177.7350  139.1240 C   0  0  2  0  0  3  0  0  0  0  0  0
  185.6530  177.8230  137.5860 C   0  0  0  0  0  2  0  0  0  0  0  0
  188.9910  179.2000  139.5460 O   0  0  0  0  0  0  0  0  0  0  0  0
  185.9790  177.6680  142.1280 C   0  0  0  0  0  2  0  0  0  0  0  0
  181.9910  177.9120  142.0260 C   0  0  0  0  0  3  0  0  0  0  0  0
  187.0270  177.4240  137.0700 C   0  0  0  0  0  2  0  0  0  0  0  0
  182.6520  176.8800  139.3050 O   0  0  0  0  0  0  0  0  0  0  0  0
  180.8730  175.8190  138.1260 C   0  0  0  0  0  1  0  0  0  0  0  0
  185.5550  177.5480  144.5970 C   0  0  0  0  0  2  0  0  0  0  0  0
  180.7530  177.7410  141.4070 C   0  0  0  0  0  0  0  0  0  0  0  0
  182.2020  179.0050  142.8600 C   0  0  0  0  0  0  0  0  0  0  0  0
  184.3620  178.5560  139.5990 C   0  0  0  0  0  2  0  0  0  0  0  0
  189.0570  178.1470  135.3940 C   0  0  0  0  0  2  0  0  0  0  0  0
  190.1000  177.8250  136.4380 C   0  0  0  0  0  2  0  0  0  0  0  0
  189.0530  178.8930  136.7190 C   0  0  0  0  0  3  0  0  0  0  0  0
  186.9160  178.9480  146.1960 C   0  0  0  0  0  2  0  0  0  0  0  0
  187.1260  177.7670  147.1350 C   0  0  0  0  0  2  0  0  0  0  0  0
  188.6070  177.5080  147.4000 C   0  0  2  0  0  3  0  0  0  0  0  0
  189.0310  178.2300  148.5170 O   0  0  0  0  0  1  0  0  0  0  0  0
  189.4670  177.8680  146.1910 C   0  0  0  0  0  2  0  0  0  0  0  0
  191.0590  176.9080  144.4960 C   0  0  0  0  0  1  0  0  0  0  0  0
  190.6020  176.8760  145.9430 C   0  0  1  0  0  3  0  0  0  0  0  0
  191.6800  177.1280  146.7930 O   0  0  0  0  0  1  0  0  0  0  0  0
  1 26  1  0  0  0  0
  2  6  1  0  0  0  0
  3 23  1  0  0  0  0
  3 28  1  0  0  0  0
  4 32  1  6  0  0  0
  5 19  2  0  0  0  0
  5 13  1  0  0  0  0
  6  4  1  0  0  0  0
  8 24  1  6  0  0  0
  8 23  1  0  0  0  0
  8  1  1  0  0  0  0
  9  2  1  0  0  0  0
 10 14  1  0  0  0  0
 12  5  1  0  0  0  0
 13 16  2  0  0  0  0
 14  7  2  0  0  0  0
 15 11  1  6  0  0  0
 15 25  1  0  0  0  0
 16 20  1  0  0  0  0
 17 18  1  6  0  0  0
 17 28  1  0  0  0  0
 17 13  1  0  0  0  0
 20 15  1  0  0  0  0
 21 27  2  0  0  0  0
 22 18  1  0  0  0  0
 22 12  1  0  0  0  0
 25  4  1  0  0  0  0
 26 10  2  0  0  0  0
 26 21  1  0  0  0  0
 27  7  1  0  0  0  0
 27  9  1  0  0  0  0
 29 30  1  0  0  0  0
 29 31  1  0  0  0  0
 30 31  1  0  0  0  0
 31 12  1  0  0  0  0
 32 33  1  0  0  0  0
 33 34  1  0  0  0  0
 34 35  1  1  0  0  0
 36 34  1  0  0  0  0
 38 37  1  6  0  0  0
 38 36  1  0  0  0  0
 38 39  1  0  0  0  0
M  END
>  <MODEL>
9

>  <REMARK>
 VINA RESULT:      -5.4      2.811      7.115
  Name = 
  6 active torsions:
  status: ('A' for Active; 'I' for Inactive)
    1  A    between atoms: C_3  and  C_5
    2  A    between atoms: C_3  and  C_35
    3  A    between atoms: C_8  and  C_26
    4  A    between atoms: C_8  and  C_35
    5  A    between atoms: N_16  and  C_38
    6  A    between atoms: C_23  and  C_26
                            x       y       z     vdW  Elec       q    Type
                         _______ _______ _______ _____ _____    ______ ____

>  <TORSDO>
F 6

$$$$
