=
 OpenBabel10222420253D

 47 52  0  0  1  0  0  0  0  0999 V2000
  188.4680  177.4610  138.0960 C   0  0  0  0  0  0  0  0  0  0  0  0
  188.6060  177.3290  135.8440 N   0  0  0  0  0  0  0  0  0  0  0  0
  190.7150  176.7440  138.7270 C   0  0  0  0  0  0  0  0  0  0  0  0
  188.9270  177.4500  141.8410 C   0  0  0  0  0  3  0  0  0  0  0  0
  190.1280  177.0780  142.2900 C   0  0  0  0  0  0  0  0  0  0  0  0
  189.7260  177.0040  137.7590 C   0  0  0  0  0  0  0  0  0  0  0  0
  190.3220  176.9520  140.0680 C   0  0  0  0  0  0  0  0  0  0  0  0
  188.0740  177.6590  139.4260 C   0  0  0  0  0  3  0  0  0  0  0  0
  189.0440  177.3790  140.3960 C   0  0  0  0  0  0  0  0  0  0  0  0
  187.7980  177.6660  136.9760 C   0  0  0  0  0  0  0  0  0  0  0  0
  189.7570  176.9370  136.3010 C   0  0  0  0  0  3  0  0  0  0  0  0
  191.0290  176.7550  141.1700 C   0  0  0  0  0  3  0  0  0  0  0  0
  189.7690  177.6670  144.6780 C   0  0  0  0  0  3  0  0  0  0  0  0
  191.5940  176.7540  147.7550 O   0  0  0  0  0  1  0  0  0  0  0  0
  190.4980  176.9670  143.7090 C   0  0  0  0  0  0  0  0  0  0  0  0
  191.9500  176.1210  145.4590 C   0  0  0  0  0  3  0  0  0  0  0  0
  190.1130  177.5970  146.0350 C   0  0  0  0  0  0  0  0  0  0  0  0
  191.5900  176.1870  144.1110 C   0  0  0  0  0  3  0  0  0  0  0  0
  191.2190  176.8260  146.4190 C   0  0  0  0  0  0  0  0  0  0  0  0
  187.7580  178.5180  148.7030 O   0  0  0  0  0  1  0  0  0  0  0  0
  188.0890  176.3980  147.9130 O   0  0  0  0  0  0  0  0  0  0  0  0
  188.3740  177.7580  147.9110 C   0  0  0  0  0  0  0  0  0  0  0  0
  189.3700  178.3080  147.0350 N   0  0  0  0  0  2  0  0  0  0  0  0
  192.2360  174.9450  137.8410 N   0  0  0  0  0  2  0  0  0  0  0  0
  193.4850  173.1890  136.9780 O   0  0  0  0  0  0  0  0  0  0  0  0
  193.4290  174.4160  137.2510 C   0  0  0  0  0  0  0  0  0  0  0  0
  192.0660  176.2700  138.3540 C   0  0  0  0  0  0  0  0  0  0  0  0
  193.0610  177.0230  138.5140 O   0  0  0  0  0  0  0  0  0  0  0  0
  194.3350  175.8970  135.5060 C   0  0  0  0  0  1  0  0  0  0  0  0
  194.5780  175.2890  136.8730 C   0  0  0  0  0  2  0  0  0  0  0  0
  186.4030  178.1850  136.8720 C   0  0  0  0  0  2  0  0  0  0  0  0
  185.4600  177.0780  136.8370 N   0  0  0  0  0  2  0  0  0  0  0  0
  184.2800  177.5170  137.4560 N   0  0  0  0  0  2  0  0  0  0  0  0
  183.7880  176.4200  138.2790 C   0  0  0  0  0  2  0  0  0  0  0  0
  182.6130  176.8810  139.1220 C   0  0  0  0  0  2  0  0  0  0  0  0
  183.0900  177.2340  140.4550 N   0  0  0  0  0  2  0  0  0  0  0  0
  185.8760  178.5180  143.9080 C   0  0  0  0  0  3  0  0  0  0  0  0
  183.1030  178.6930  140.6300 C   0  0  2  0  0  0  0  0  0  0  0  0
  184.5140  179.2730  140.4540 C   0  0  0  0  0  2  0  0  0  0  0  0
  185.4200  178.4850  145.2290 C   0  0  0  0  0  3  0  0  0  0  0  0
  183.1460  178.7510  144.4470 C   0  0  0  0  0  3  0  0  0  0  0  0
  183.5920  178.7700  143.1210 C   0  0  0  0  0  0  0  0  0  0  0  0
  184.9750  178.6780  142.8520 C   0  0  0  0  0  0  0  0  0  0  0  0
  184.0570  178.6050  145.4980 C   0  0  0  0  0  3  0  0  0  0  0  0
  182.5910  179.0320  142.0310 C   0  0  0  0  0  2  0  0  0  0  0  0
  185.4990  178.6520  141.4450 C   0  0  0  0  0  2  0  0  0  0  0  0
  182.2450  179.2910  139.7020 O   0  0  0  0  0  1  0  0  0  0  0  0
  1  8  1  0  0  0  0
  2 11  2  0  0  0  0
  2 10  1  0  0  0  0
  3  7  1  0  0  0  0
  4  5  2  0  0  0  0
  5 15  1  0  0  0  0
  6  1  1  0  0  0  0
  6  3  2  0  0  0  0
  7  9  1  0  0  0  0
  7 12  2  0  0  0  0
  8  9  2  0  0  0  0
  9  4  1  0  0  0  0
 10  1  2  0  0  0  0
 11  6  1  0  0  0  0
 12  5  1  0  0  0  0
 13 17  1  0  0  0  0
 15 18  1  0  0  0  0
 15 13  2  0  0  0  0
 16 19  1  0  0  0  0
 17 19  2  0  0  0  0
 17 23  1  0  0  0  0
 18 16  2  0  0  0  0
 19 14  1  0  0  0  0
 22 21  2  0  0  0  0
 22 20  1  0  0  0  0
 23 22  1  0  0  0  0
 24 27  1  0  0  0  0
 25 26  2  0  0  0  0
 26 24  1  0  0  0  0
 27 28  2  0  0  0  0
 27  3  1  0  0  0  0
 29 30  1  0  0  0  0
 30 26  1  0  0  0  0
 31 10  1  0  0  0  0
 32 31  1  0  0  0  0
 32 33  1  0  0  0  0
 33 34  1  0  0  0  0
 34 35  1  0  0  0  0
 35 36  1  0  0  0  0
 36 38  1  0  0  0  0
 37 40  1  0  0  0  0
 38 47  1  6  0  0  0
 38 45  1  0  0  0  0
 39 38  1  0  0  0  0
 39 46  1  0  0  0  0
 40 44  2  0  0  0  0
 41 44  1  0  0  0  0
 42 41  2  0  0  0  0
 43 42  1  0  0  0  0
 43 37  2  0  0  0  0
 45 42  1  0  0  0  0
 46 43  1  0  0  0  0
M  END
>  <MODEL>
1

>  <REMARK>
 VINA RESULT:      -9.5      0.000      0.000
  Name = 
  11 active torsions:
  status: ('A' for Active; 'I' for Inactive)
    1  A    between atoms: N_2  and  N_17
    2  A    between atoms: N_2  and  C_18
    3  A    between atoms: C_8  and  N_12
    4  A    between atoms: C_8  and  C_18
    5  A    between atoms: C_11  and  C_29
    6  A    between atoms: N_12  and  C_13
    7  A    between atoms: C_16  and  N_17
    8  A    between atoms: C_16  and  C_43
    9  A    between atoms: C_22  and  C_25
   10  A    between atoms: C_23  and  N_47
   11  A    between atoms: C_27  and  C_40
                            x       y       z     vdW  Elec       q    Type
                         _______ _______ _______ _____ _____    ______ ____

>  <TORSDO>
F 11

$$$$
=
 OpenBabel10222420253D

 47 52  0  0  1  0  0  0  0  0999 V2000
  188.3380  177.5210  137.7420 C   0  0  0  0  0  0  0  0  0  0  0  0
  188.8660  177.1660  135.5730 N   0  0  0  0  0  0  0  0  0  0  0  0
  190.3950  176.7860  138.8320 C   0  0  0  0  0  0  0  0  0  0  0  0
  188.1220  177.8570  141.4930 C   0  0  0  0  0  3  0  0  0  0  0  0
  189.2030  177.4860  142.1840 C   0  0  0  0  0  0  0  0  0  0  0  0
  189.6090  176.9870  137.6810 C   0  0  0  0  0  0  0  0  0  0  0  0
  189.7820  177.1370  140.0550 C   0  0  0  0  0  0  0  0  0  0  0  0
  187.7250  177.8620  138.9550 C   0  0  0  0  0  3  0  0  0  0  0  0
  188.4900  177.6410  140.1060 C   0  0  0  0  0  0  0  0  0  0  0  0
  187.8890  177.6420  136.5040 C   0  0  0  0  0  0  0  0  0  0  0  0
  189.8950  176.7780  136.2650 C   0  0  0  0  0  3  0  0  0  0  0  0
  190.2700  177.0220  141.2800 C   0  0  0  0  0  3  0  0  0  0  0  0
  190.5340  177.2130  144.2660 C   0  0  0  0  0  3  0  0  0  0  0  0
  189.6170  177.4220  147.8370 O   0  0  0  0  0  1  0  0  0  0  0  0
  189.3080  177.4980  143.6520 C   0  0  0  0  0  0  0  0  0  0  0  0
  188.3010  177.7400  145.8450 C   0  0  0  0  0  3  0  0  0  0  0  0
  190.6580  177.1960  145.6620 C   0  0  0  0  0  0  0  0  0  0  0  0
  188.1920  177.7680  144.4530 C   0  0  0  0  0  3  0  0  0  0  0  0
  189.5270  177.4510  146.4500 C   0  0  0  0  0  0  0  0  0  0  0  0
  193.3280  175.6960  147.6950 O   0  0  0  0  0  1  0  0  0  0  0  0
  191.2520  174.7930  147.3770 O   0  0  0  0  0  0  0  0  0  0  0  0
  192.1960  175.7880  147.1530 C   0  0  0  0  0  0  0  0  0  0  0  0
  191.9100  176.9080  146.3010 N   0  0  0  0  0  2  0  0  0  0  0  0
  191.9810  174.9710  138.1050 N   0  0  0  0  0  2  0  0  0  0  0  0
  193.3010  173.2250  137.3370 O   0  0  0  0  0  0  0  0  0  0  0  0
  193.2520  174.4040  137.7720 C   0  0  0  0  0  0  0  0  0  0  0  0
  191.7620  176.2270  138.7550 C   0  0  0  0  0  0  0  0  0  0  0  0
  192.7230  176.8460  139.2820 O   0  0  0  0  0  0  0  0  0  0  0  0
  195.7080  174.2610  137.8790 C   0  0  0  0  0  1  0  0  0  0  0  0
  194.5150  175.1960  137.8450 C   0  0  0  0  0  2  0  0  0  0  0  0
  186.5650  178.1990  136.1030 C   0  0  0  0  0  2  0  0  0  0  0  0
  185.6680  177.1230  135.7120 N   0  0  0  0  0  2  0  0  0  0  0  0
  184.4480  177.3400  136.3700 N   0  0  0  0  0  2  0  0  0  0  0  0
  184.3540  176.3600  137.4430 C   0  0  0  0  0  2  0  0  0  0  0  0
  183.0330  176.5060  138.1750 C   0  0  0  0  0  2  0  0  0  0  0  0
  183.2800  177.0520  139.5050 N   0  0  0  0  0  2  0  0  0  0  0  0
  185.0310  179.1810  143.2110 C   0  0  0  0  0  3  0  0  0  0  0  0
  182.8640  178.4610  139.5710 C   0  0  2  0  0  0  0  0  0  0  0  0
  184.0710  179.4100  139.5540 C   0  0  0  0  0  2  0  0  0  0  0  0
  184.4010  179.0620  144.4530 C   0  0  0  0  0  3  0  0  0  0  0  0
  182.2930  178.6500  143.3410 C   0  0  0  0  0  3  0  0  0  0  0  0
  182.9170  178.7520  142.0940 C   0  0  0  0  0  0  0  0  0  0  0  0
  184.2970  179.0460  142.0300 C   0  0  0  0  0  0  0  0  0  0  0  0
  183.0330  178.8000  144.5190 C   0  0  0  0  0  3  0  0  0  0  0  0
  182.0670  178.6850  140.8570 C   0  0  0  0  0  2  0  0  0  0  0  0
  185.0210  179.1250  140.7170 C   0  0  0  0  0  2  0  0  0  0  0  0
  182.0310  178.7610  138.4890 O   0  0  0  0  0  1  0  0  0  0  0  0
  1  8  1  0  0  0  0
  2 11  2  0  0  0  0
  2 10  1  0  0  0  0
  3  7  1  0  0  0  0
  4  5  2  0  0  0  0
  5 15  1  0  0  0  0
  6  1  1  0  0  0  0
  6  3  2  0  0  0  0
  7  9  1  0  0  0  0
  7 12  2  0  0  0  0
  8  9  2  0  0  0  0
  9  4  1  0  0  0  0
 10  1  2  0  0  0  0
 11  6  1  0  0  0  0
 12  5  1  0  0  0  0
 13 17  1  0  0  0  0
 15 13  2  0  0  0  0
 15 18  1  0  0  0  0
 16 19  1  0  0  0  0
 17 23  1  0  0  0  0
 17 19  2  0  0  0  0
 18 16  2  0  0  0  0
 19 14  1  0  0  0  0
 22 21  2  0  0  0  0
 22 20  1  0  0  0  0
 23 22  1  0  0  0  0
 24 27  1  0  0  0  0
 25 26  2  0  0  0  0
 26 30  1  0  0  0  0
 26 24  1  0  0  0  0
 27  3  1  0  0  0  0
 27 28  2  0  0  0  0
 30 29  1  0  0  0  0
 31 10  1  0  0  0  0
 32 31  1  0  0  0  0
 32 33  1  0  0  0  0
 33 34  1  0  0  0  0
 34 35  1  0  0  0  0
 35 36  1  0  0  0  0
 36 38  1  0  0  0  0
 37 40  1  0  0  0  0
 38 47  1  6  0  0  0
 38 45  1  0  0  0  0
 39 38  1  0  0  0  0
 39 46  1  0  0  0  0
 40 44  2  0  0  0  0
 41 44  1  0  0  0  0
 42 41  2  0  0  0  0
 43 42  1  0  0  0  0
 43 37  2  0  0  0  0
 45 42  1  0  0  0  0
 46 43  1  0  0  0  0
M  END
>  <MODEL>
2

>  <REMARK>
 VINA RESULT:      -9.2      1.158      1.862
  Name = 
  11 active torsions:
  status: ('A' for Active; 'I' for Inactive)
    1  A    between atoms: N_2  and  N_17
    2  A    between atoms: N_2  and  C_18
    3  A    between atoms: C_8  and  N_12
    4  A    between atoms: C_8  and  C_18
    5  A    between atoms: C_11  and  C_29
    6  A    between atoms: N_12  and  C_13
    7  A    between atoms: C_16  and  N_17
    8  A    between atoms: C_16  and  C_43
    9  A    between atoms: C_22  and  C_25
   10  A    between atoms: C_23  and  N_47
   11  A    between atoms: C_27  and  C_40
                            x       y       z     vdW  Elec       q    Type
                         _______ _______ _______ _____ _____    ______ ____

>  <TORSDO>
F 11

$$$$
=
 OpenBabel10222420253D

 47 52  0  0  1  0  0  0  0  0999 V2000
  185.4710  178.6360  144.3930 C   0  0  0  0  0  0  0  0  0  0  0  0
  184.6910  178.7920  146.5080 N   0  0  0  0  0  0  0  0  0  0  0  0
  187.6750  177.6650  144.7980 C   0  0  0  0  0  0  0  0  0  0  0  0
  187.3680  178.0990  141.1770 C   0  0  0  0  0  3  0  0  0  0  0  0
  188.5870  177.5640  141.2900 C   0  0  0  0  0  0  0  0  0  0  0  0
  186.4470  178.1800  145.2570 C   0  0  0  0  0  0  0  0  0  0  0  0
  187.8530  177.6780  143.3960 C   0  0  0  0  0  0  0  0  0  0  0  0
  185.6500  178.6570  143.0040 C   0  0  0  0  0  3  0  0  0  0  0  0
  186.8790  178.1710  142.5410 C   0  0  0  0  0  0  0  0  0  0  0  0
  184.4240  178.9930  145.1170 C   0  0  0  0  0  0  0  0  0  0  0  0
  185.8910  178.3050  146.6000 C   0  0  0  0  0  3  0  0  0  0  0  0
  188.9110  177.2920  142.7010 C   0  0  0  0  0  3  0  0  0  0  0  0
  189.0130  177.3130  138.8540 C   0  0  0  0  0  3  0  0  0  0  0  0
  192.0690  176.4970  136.9470 O   0  0  0  0  0  1  0  0  0  0  0  0
  189.5030  177.3140  140.1660 C   0  0  0  0  0  0  0  0  0  0  0  0
  191.7090  176.7770  139.3110 C   0  0  0  0  0  3  0  0  0  0  0  0
  189.8590  177.0540  137.7660 C   0  0  0  0  0  0  0  0  0  0  0  0
  190.8600  177.0490  140.3870 C   0  0  0  0  0  3  0  0  0  0  0  0
  191.2120  176.7750  138.0050 C   0  0  0  0  0  0  0  0  0  0  0  0
  188.2350  176.1540  134.5940 O   0  0  0  0  0  0  0  0  0  0  0  0
  188.0540  174.9770  136.5450 O   0  0  0  0  0  1  0  0  0  0  0  0
  188.5400  176.0520  135.8100 C   0  0  0  0  0  0  0  0  0  0  0  0
  189.3690  177.0550  136.4170 N   0  0  0  0  0  2  0  0  0  0  0  0
  189.9680  176.7190  145.2210 N   0  0  0  0  0  2  0  0  0  0  0  0
  192.1220  175.8820  145.4320 O   0  0  0  0  0  0  0  0  0  0  0  0
  191.1280  176.4030  145.9990 C   0  0  0  0  0  0  0  0  0  0  0  0
  188.7070  177.1640  145.7300 C   0  0  0  0  0  0  0  0  0  0  0  0
  188.4630  177.1070  146.9630 O   0  0  0  0  0  0  0  0  0  0  0  0
  192.3950  176.0160  148.0740 C   0  0  0  0  0  1  0  0  0  0  0  0
  191.2270  176.7510  147.4470 C   0  0  0  0  0  2  0  0  0  0  0  0
  183.1330  179.5210  144.5890 C   0  0  0  0  0  2  0  0  0  0  0  0
  182.3940  178.4600  143.9230 N   0  0  0  0  0  2  0  0  0  0  0  0
  181.8810  178.9950  142.7310 N   0  0  0  0  0  2  0  0  0  0  0  0
  180.5030  178.5400  142.6100 C   0  0  0  0  0  2  0  0  0  0  0  0
  179.9800  178.8160  141.2120 C   0  0  0  0  0  2  0  0  0  0  0  0
  180.9830  178.4030  140.2360 N   0  0  0  0  0  2  0  0  0  0  0  0
  183.6340  176.9880  136.7290 C   0  0  0  0  0  3  0  0  0  0  0  0
  181.2650  179.4940  139.2920 C   0  0  2  0  0  0  0  0  0  0  0  0
  180.7570  179.1680  137.8800 C   0  0  0  0  0  2  0  0  0  0  0  0
  185.0220  176.9210  136.8790 C   0  0  0  0  0  3  0  0  0  0  0  0
  184.9160  178.6300  138.5880 C   0  0  0  0  0  3  0  0  0  0  0  0
  183.5250  178.6930  138.4550 C   0  0  0  0  0  0  0  0  0  0  0  0
  182.8820  177.8800  137.4960 C   0  0  0  0  0  0  0  0  0  0  0  0
  185.6630  177.7430  137.8050 C   0  0  0  0  0  3  0  0  0  0  0  0
  182.7760  179.7310  139.2410 C   0  0  0  0  0  2  0  0  0  0  0  0
  181.3880  177.8820  137.3440 C   0  0  0  0  0  2  0  0  0  0  0  0
  180.6580  180.6740  139.7340 O   0  0  0  0  0  1  0  0  0  0  0  0
  1 10  1  0  0  0  0
  1  6  1  0  0  0  0
  2 11  1  0  0  0  0
  3  6  1  0  0  0  0
  3 27  1  0  0  0  0
  4  5  1  0  0  0  0
  4  9  2  0  0  0  0
  5 12  2  0  0  0  0
  6 11  2  0  0  0  0
  7  3  2  0  0  0  0
  8  1  2  0  0  0  0
  9  8  1  0  0  0  0
  9  7  1  0  0  0  0
 10  2  2  0  0  0  0
 12  7  1  0  0  0  0
 13 15  1  0  0  0  0
 14 19  1  0  0  0  0
 15 18  2  0  0  0  0
 15  5  1  0  0  0  0
 16 18  1  0  0  0  0
 17 19  1  0  0  0  0
 17 13  2  0  0  0  0
 19 16  2  0  0  0  0
 20 22  2  0  0  0  0
 22 23  1  0  0  0  0
 22 21  1  0  0  0  0
 23 17  1  0  0  0  0
 24 27  1  0  0  0  0
 24 26  1  0  0  0  0
 25 26  2  0  0  0  0
 26 30  1  0  0  0  0
 27 28  2  0  0  0  0
 30 29  1  0  0  0  0
 31 10  1  0  0  0  0
 32 31  1  0  0  0  0
 33 32  1  0  0  0  0
 34 33  1  0  0  0  0
 35 34  1  0  0  0  0
 36 35  1  0  0  0  0
 37 40  2  0  0  0  0
 37 43  1  0  0  0  0
 38 47  1  1  0  0  0
 38 36  1  0  0  0  0
 39 38  1  0  0  0  0
 40 44  1  0  0  0  0
 42 41  1  0  0  0  0
 42 45  1  0  0  0  0
 43 42  2  0  0  0  0
 44 41  2  0  0  0  0
 45 38  1  0  0  0  0
 46 43  1  0  0  0  0
 46 39  1  0  0  0  0
M  END
>  <MODEL>
3

>  <REMARK>
 VINA RESULT:      -8.9      2.261      7.688
  Name = 
  11 active torsions:
  status: ('A' for Active; 'I' for Inactive)
    1  A    between atoms: N_2  and  N_17
    2  A    between atoms: N_2  and  C_18
    3  A    between atoms: C_8  and  N_12
    4  A    between atoms: C_8  and  C_18
    5  A    between atoms: C_11  and  C_29
    6  A    between atoms: N_12  and  C_13
    7  A    between atoms: C_16  and  N_17
    8  A    between atoms: C_16  and  C_43
    9  A    between atoms: C_22  and  C_25
   10  A    between atoms: C_23  and  N_47
   11  A    between atoms: C_27  and  C_40
                            x       y       z     vdW  Elec       q    Type
                         _______ _______ _______ _____ _____    ______ ____

>  <TORSDO>
F 11

$$$$
=
 OpenBabel10222420253D

 47 52  0  0  1  0  0  0  0  0999 V2000
  189.0710  177.6460  141.3940 C   0  0  0  0  0  0  0  0  0  0  0  0
  191.1800  177.0330  141.9240 N   0  0  0  0  0  0  0  0  0  0  0  0
  187.9780  177.4210  143.5660 C   0  0  0  0  0  0  0  0  0  0  0  0
  185.4110  178.5440  141.2120 C   0  0  0  0  0  3  0  0  0  0  0  0
  184.7230  178.4600  142.3530 C   0  0  0  0  0  0  0  0  0  0  0  0
  189.1080  177.3110  142.7320 C   0  0  0  0  0  0  0  0  0  0  0  0
  186.7970  177.8660  142.9320 C   0  0  0  0  0  0  0  0  0  0  0  0
  187.8980  178.0800  140.7620 C   0  0  0  0  0  3  0  0  0  0  0  0
  186.7640  178.1680  141.5780 C   0  0  0  0  0  0  0  0  0  0  0  0
  190.2890  177.4960  140.9050 C   0  0  0  0  0  0  0  0  0  0  0  0
  190.4860  176.9240  143.0160 C   0  0  0  0  0  3  0  0  0  0  0  0
  185.5940  178.0260  143.4590 C   0  0  0  0  0  3  0  0  0  0  0  0
  182.4590  178.7010  141.3540 C   0  0  0  0  0  3  0  0  0  0  0  0
  179.1870  179.5800  142.8220 O   0  0  0  0  0  1  0  0  0  0  0  0
  183.2820  178.7240  142.4880 C   0  0  0  0  0  0  0  0  0  0  0  0
  181.3530  179.3110  143.8370 C   0  0  0  0  0  3  0  0  0  0  0  0
  181.0870  178.9720  141.4500 C   0  0  0  0  0  0  0  0  0  0  0  0
  182.7170  179.0270  143.7330 C   0  0  0  0  0  3  0  0  0  0  0  0
  180.5400  179.2890  142.7010 C   0  0  0  0  0  0  0  0  0  0  0  0
  179.1970  179.8750  138.4300 O   0  0  0  0  0  0  0  0  0  0  0  0
  180.7300  181.2140  139.4720 O   0  0  0  0  0  1  0  0  0  0  0  0
  180.0240  180.0210  139.3670 C   0  0  0  0  0  0  0  0  0  0  0  0
  180.2350  178.9470  140.2970 N   0  0  0  0  0  2  0  0  0  0  0  0
  189.2860  177.1030  145.6930 N   0  0  0  0  0  2  0  0  0  0  0  0
  190.6380  176.8870  147.5660 O   0  0  0  0  0  0  0  0  0  0  0  0
  189.4720  176.9960  147.1090 C   0  0  0  0  0  0  0  0  0  0  0  0
  188.0330  177.0750  145.0030 C   0  0  0  0  0  0  0  0  0  0  0  0
  186.9830  176.7310  145.6050 O   0  0  0  0  0  0  0  0  0  0  0  0
  188.0960  178.5420  148.4420 C   0  0  0  0  0  1  0  0  0  0  0  0
  188.3310  177.0930  148.0650 C   0  0  0  0  0  2  0  0  0  0  0  0
  190.7090  177.7710  139.5000 C   0  0  0  0  0  2  0  0  0  0  0  0
  191.5670  176.7000  139.0160 N   0  0  0  0  0  2  0  0  0  0  0  0
  190.7560  175.5720  138.8250 N   0  0  0  0  0  2  0  0  0  0  0  0
  190.6120  175.3790  137.3890 C   0  0  0  0  0  2  0  0  0  0  0  0
  189.1730  175.0390  137.0460 C   0  0  0  0  0  2  0  0  0  0  0  0
  188.3330  176.2060  137.2980 N   0  0  0  0  0  2  0  0  0  0  0  0
  183.9730  177.2860  138.3730 C   0  0  0  0  0  3  0  0  0  0  0  0
  187.5460  176.5430  136.1040 C   0  0  2  0  0  0  0  0  0  0  0  0
  186.9840  177.9710  136.1790 C   0  0  0  0  0  2  0  0  0  0  0  0
  183.0250  176.2760  138.5650 C   0  0  0  0  0  3  0  0  0  0  0  0
  184.3010  174.8100  137.1240 C   0  0  0  0  0  3  0  0  0  0  0  0
  185.2610  175.8090  136.9380 C   0  0  0  0  0  0  0  0  0  0  0  0
  185.0810  177.0690  137.5500 C   0  0  0  0  0  0  0  0  0  0  0  0
  183.1870  175.0400  137.9390 C   0  0  0  0  0  3  0  0  0  0  0  0
  186.3860  175.5530  135.9750 C   0  0  0  0  0  2  0  0  0  0  0  0
  186.1040  178.1590  137.4140 C   0  0  0  0  0  2  0  0  0  0  0  0
  188.3420  176.4240  134.9610 O   0  0  0  0  0  1  0  0  0  0  0  0
  1  6  1  0  0  0  0
  2 11  1  0  0  0  0
  3 27  1  0  0  0  0
  4  9  2  0  0  0  0
  4  5  1  0  0  0  0
  5 15  1  0  0  0  0
  5 12  2  0  0  0  0
  6 11  2  0  0  0  0
  6  3  1  0  0  0  0
  7 12  1  0  0  0  0
  7  3  2  0  0  0  0
  8  1  2  0  0  0  0
  8  9  1  0  0  0  0
  9  7  1  0  0  0  0
 10  1  1  0  0  0  0
 10  2  2  0  0  0  0
 13 17  2  0  0  0  0
 13 15  1  0  0  0  0
 15 18  2  0  0  0  0
 17 19  1  0  0  0  0
 18 16  1  0  0  0  0
 19 14  1  0  0  0  0
 19 16  2  0  0  0  0
 20 22  2  0  0  0  0
 22 21  1  0  0  0  0
 22 23  1  0  0  0  0
 23 17  1  0  0  0  0
 24 26  1  0  0  0  0
 26 25  2  0  0  0  0
 26 30  1  0  0  0  0
 27 28  2  0  0  0  0
 27 24  1  0  0  0  0
 30 29  1  0  0  0  0
 31 10  1  0  0  0  0
 32 31  1  0  0  0  0
 33 32  1  0  0  0  0
 34 33  1  0  0  0  0
 35 36  1  0  0  0  0
 35 34  1  0  0  0  0
 37 40  1  0  0  0  0
 38 47  1  6  0  0  0
 38 39  1  0  0  0  0
 38 36  1  0  0  0  0
 39 46  1  0  0  0  0
 41 44  1  0  0  0  0
 42 41  2  0  0  0  0
 42 43  1  0  0  0  0
 43 37  2  0  0  0  0
 44 40  2  0  0  0  0
 45 38  1  0  0  0  0
 45 42  1  0  0  0  0
 46 43  1  0  0  0  0
M  END
>  <MODEL>
4

>  <REMARK>
 VINA RESULT:      -8.8      2.342      8.377
  Name = 
  11 active torsions:
  status: ('A' for Active; 'I' for Inactive)
    1  A    between atoms: N_2  and  N_17
    2  A    between atoms: N_2  and  C_18
    3  A    between atoms: C_8  and  N_12
    4  A    between atoms: C_8  and  C_18
    5  A    between atoms: C_11  and  C_29
    6  A    between atoms: N_12  and  C_13
    7  A    between atoms: C_16  and  N_17
    8  A    between atoms: C_16  and  C_43
    9  A    between atoms: C_22  and  C_25
   10  A    between atoms: C_23  and  N_47
   11  A    between atoms: C_27  and  C_40
                            x       y       z     vdW  Elec       q    Type
                         _______ _______ _______ _____ _____    ______ ____

>  <TORSDO>
F 11

$$$$
=
 OpenBabel10222420253D

 47 52  0  0  1  0  0  0  0  0999 V2000
  185.3600  178.7880  143.8610 C   0  0  0  0  0  0  0  0  0  0  0  0
  184.8450  178.9400  146.0560 N   0  0  0  0  0  0  0  0  0  0  0  0
  187.5860  177.7940  143.9890 C   0  0  0  0  0  0  0  0  0  0  0  0
  186.8450  178.2530  140.4350 C   0  0  0  0  0  3  0  0  0  0  0  0
  188.0630  177.7050  140.3960 C   0  0  0  0  0  0  0  0  0  0  0  0
  186.4290  178.3170  144.5970 C   0  0  0  0  0  0  0  0  0  0  0  0
  187.5930  177.8130  142.5770 C   0  0  0  0  0  0  0  0  0  0  0  0
  185.3680  178.8170  142.4600 C   0  0  0  0  0  3  0  0  0  0  0  0
  186.5260  178.3210  141.8490 C   0  0  0  0  0  0  0  0  0  0  0  0
  184.4130  179.1510  144.7090 C   0  0  0  0  0  0  0  0  0  0  0  0
  186.0430  178.4400  145.9990 C   0  0  0  0  0  3  0  0  0  0  0  0
  188.5530  177.4210  141.7550 C   0  0  0  0  0  3  0  0  0  0  0  0
  189.8210  176.4610  139.1550 C   0  0  0  0  0  3  0  0  0  0  0  0
  191.1180  176.7790  135.7120 O   0  0  0  0  0  1  0  0  0  0  0  0
  188.8320  177.4530  139.1670 C   0  0  0  0  0  0  0  0  0  0  0  0
  189.3760  177.9790  136.8630 C   0  0  0  0  0  3  0  0  0  0  0  0
  190.5850  176.2140  138.0060 C   0  0  0  0  0  0  0  0  0  0  0  0
  188.6110  178.2080  138.0090 C   0  0  0  0  0  3  0  0  0  0  0  0
  190.3620  176.9900  136.8590 C   0  0  0  0  0  0  0  0  0  0  0  0
  193.7900  174.4170  137.9240 O   0  0  0  0  0  0  0  0  0  0  0  0
  193.5560  176.6800  138.1550 O   0  0  0  0  0  1  0  0  0  0  0  0
  193.0170  175.4060  138.0120 C   0  0  0  0  0  0  0  0  0  0  0  0
  191.5970  175.1980  137.9810 N   0  0  0  0  0  2  0  0  0  0  0  0
  189.8620  176.7270  144.1230 N   0  0  0  0  0  2  0  0  0  0  0  0
  191.9740  175.7660  144.0620 O   0  0  0  0  0  0  0  0  0  0  0  0
  191.1080  176.3790  144.7380 C   0  0  0  0  0  0  0  0  0  0  0  0
  188.7190  177.2770  144.7870 C   0  0  0  0  0  0  0  0  0  0  0  0
  188.6630  177.2990  146.0430 O   0  0  0  0  0  0  0  0  0  0  0  0
  192.0560  175.6270  146.8820 C   0  0  0  0  0  1  0  0  0  0  0  0
  191.4450  176.7930  146.1310 C   0  0  0  0  0  2  0  0  0  0  0  0
  183.0730  179.6950  144.3450 C   0  0  0  0  0  2  0  0  0  0  0  0
  182.2170  178.6280  143.8500 N   0  0  0  0  0  2  0  0  0  0  0  0
  181.1510  179.2320  143.1670 N   0  0  0  0  0  2  0  0  0  0  0  0
  180.9610  178.4980  141.9240 C   0  0  0  0  0  2  0  0  0  0  0  0
  181.9660  178.9580  140.8840 C   0  0  0  0  0  2  0  0  0  0  0  0
  182.4350  177.8020  140.1270 N   0  0  0  0  0  2  0  0  0  0  0  0
  184.1810  174.3580  137.5930 C   0  0  0  0  0  3  0  0  0  0  0  0
  182.0700  177.9310  138.7090 C   0  0  2  0  0  0  0  0  0  0  0  0
  181.2780  176.7110  138.2150 C   0  0  0  0  0  2  0  0  0  0  0  0
  185.5000  174.4200  137.1350 C   0  0  0  0  0  3  0  0  0  0  0  0
  185.4110  176.8370  137.2200 C   0  0  0  0  0  3  0  0  0  0  0  0
  184.0960  176.7830  137.6930 C   0  0  0  0  0  0  0  0  0  0  0  0
  183.4670  175.5290  137.8570 C   0  0  0  0  0  0  0  0  0  0  0  0
  186.1140  175.6590  136.9450 C   0  0  0  0  0  3  0  0  0  0  0  0
  183.3460  178.0720  137.8770 C   0  0  0  0  0  2  0  0  0  0  0  0
  182.0720  175.4180  138.4000 C   0  0  0  0  0  2  0  0  0  0  0  0
  181.3010  179.0830  138.5180 O   0  0  0  0  0  1  0  0  0  0  0  0
  1  6  1  0  0  0  0
  1 10  1  0  0  0  0
  3  6  1  0  0  0  0
  3 27  1  0  0  0  0
  4  9  2  0  0  0  0
  5  4  1  0  0  0  0
  5 12  2  0  0  0  0
  6 11  2  0  0  0  0
  7  3  2  0  0  0  0
  8  1  2  0  0  0  0
  9  8  1  0  0  0  0
  9  7  1  0  0  0  0
 10  2  2  0  0  0  0
 11  2  1  0  0  0  0
 12  7  1  0  0  0  0
 13 15  1  0  0  0  0
 14 19  1  0  0  0  0
 15  5  1  0  0  0  0
 16 18  1  0  0  0  0
 17 13  2  0  0  0  0
 18 15  2  0  0  0  0
 19 16  2  0  0  0  0
 19 17  1  0  0  0  0
 20 22  2  0  0  0  0
 22 21  1  0  0  0  0
 23 17  1  0  0  0  0
 23 22  1  0  0  0  0
 24 26  1  0  0  0  0
 24 27  1  0  0  0  0
 25 26  2  0  0  0  0
 26 30  1  0  0  0  0
 27 28  2  0  0  0  0
 30 29  1  0  0  0  0
 31 10  1  0  0  0  0
 32 31  1  0  0  0  0
 33 32  1  0  0  0  0
 34 33  1  0  0  0  0
 35 34  1  0  0  0  0
 36 35  1  0  0  0  0
 37 43  1  0  0  0  0
 38 47  1  6  0  0  0
 38 36  1  0  0  0  0
 39 46  1  0  0  0  0
 39 38  1  0  0  0  0
 40 37  2  0  0  0  0
 41 42  1  0  0  0  0
 42 43  2  0  0  0  0
 42 45  1  0  0  0  0
 43 46  1  0  0  0  0
 44 40  1  0  0  0  0
 44 41  2  0  0  0  0
 45 38  1  0  0  0  0
M  END
>  <MODEL>
5

>  <REMARK>
 VINA RESULT:      -8.5      1.879      7.589
  Name = 
  11 active torsions:
  status: ('A' for Active; 'I' for Inactive)
    1  A    between atoms: N_2  and  N_17
    2  A    between atoms: N_2  and  C_18
    3  A    between atoms: C_8  and  N_12
    4  A    between atoms: C_8  and  C_18
    5  A    between atoms: C_11  and  C_29
    6  A    between atoms: N_12  and  C_13
    7  A    between atoms: C_16  and  N_17
    8  A    between atoms: C_16  and  C_43
    9  A    between atoms: C_22  and  C_25
   10  A    between atoms: C_23  and  N_47
   11  A    between atoms: C_27  and  C_40
                            x       y       z     vdW  Elec       q    Type
                         _______ _______ _______ _____ _____    ______ ____

>  <TORSDO>
F 11

$$$$
=
 OpenBabel10222420253D

 47 52  0  0  1  0  0  0  0  0999 V2000
  188.9010  177.5390  139.5770 C   0  0  0  0  0  0  0  0  0  0  0  0
  190.7050  176.4280  138.7890 N   0  0  0  0  0  0  0  0  0  0  0  0
  187.2180  176.8850  137.9330 C   0  0  0  0  0  0  0  0  0  0  0  0
  185.5470  179.0960  140.3230 C   0  0  0  0  0  3  0  0  0  0  0  0
  184.5540  178.7940  139.4830 C   0  0  0  0  0  0  0  0  0  0  0  0
  188.5370  176.8680  138.4270 C   0  0  0  0  0  0  0  0  0  0  0  0
  186.3010  177.6610  138.6770 C   0  0  0  0  0  0  0  0  0  0  0  0
  187.9950  178.3160  140.3110 C   0  0  0  0  0  3  0  0  0  0  0  0
  186.6870  178.3580  139.8120 C   0  0  0  0  0  0  0  0  0  0  0  0
  190.1760  177.2810  139.8090 C   0  0  0  0  0  0  0  0  0  0  0  0
  189.7340  176.1740  137.9640 C   0  0  0  0  0  3  0  0  0  0  0  0
  185.0200  177.8810  138.4260 C   0  0  0  0  0  3  0  0  0  0  0  0
  182.7940  180.3860  138.7420 C   0  0  0  0  0  3  0  0  0  0  0  0
  179.3240  180.9440  139.8750 O   0  0  0  0  0  1  0  0  0  0  0  0
  183.1850  179.3280  139.5720 C   0  0  0  0  0  0  0  0  0  0  0  0
  180.9840  179.3540  140.5920 C   0  0  0  0  0  3  0  0  0  0  0  0
  181.5040  180.9300  138.8210 C   0  0  0  0  0  0  0  0  0  0  0  0
  182.2680  178.8110  140.4950 C   0  0  0  0  0  3  0  0  0  0  0  0
  180.6020  180.4120  139.7620 C   0  0  0  0  0  0  0  0  0  0  0  0
  180.0930  182.9370  136.0850 O   0  0  0  0  0  0  0  0  0  0  0  0
  179.8380  180.6780  136.3260 O   0  0  0  0  0  1  0  0  0  0  0  0
  180.3310  181.9030  136.7600 C   0  0  0  0  0  0  0  0  0  0  0  0
  181.0910  182.0110  137.9740 N   0  0  0  0  0  2  0  0  0  0  0  0
  186.8580  174.7180  136.7030 N   0  0  0  0  0  2  0  0  0  0  0  0
  186.5490  172.6340  135.7320 O   0  0  0  0  0  0  0  0  0  0  0  0
  186.3270  173.8700  135.6790 C   0  0  0  0  0  0  0  0  0  0  0  0
  186.8340  176.1490  136.7090 C   0  0  0  0  0  0  0  0  0  0  0  0
  186.5140  176.7840  135.6710 O   0  0  0  0  0  0  0  0  0  0  0  0
  183.9940  174.2880  135.0120 C   0  0  0  0  0  1  0  0  0  0  0  0
  185.4470  174.3960  134.5950 C   0  0  0  0  0  2  0  0  0  0  0  0
  190.9750  177.7840  140.9650 C   0  0  0  0  0  2  0  0  0  0  0  0
  191.3120  176.6840  141.8550 N   0  0  0  0  0  2  0  0  0  0  0  0
  191.9930  177.2310  142.9530 N   0  0  0  0  0  2  0  0  0  0  0  0
  191.2820  178.4400  143.3450 C   0  0  0  0  0  2  0  0  0  0  0  0
  190.9910  178.4190  144.8340 C   0  0  0  0  0  2  0  0  0  0  0  0
  189.5590  178.6030  145.0460 N   0  0  0  0  0  2  0  0  0  0  0  0
  185.3140  177.9720  143.3400 C   0  0  0  0  0  3  0  0  0  0  0  0
  188.9490  177.3650  145.5510 C   0  0  2  0  0  0  0  0  0  0  0  0
  188.5920  176.4020  144.4090 C   0  0  0  0  0  2  0  0  0  0  0  0
  184.2180  178.6090  143.9270 C   0  0  0  0  0  3  0  0  0  0  0  0
  185.4060  178.7030  146.0330 C   0  0  0  0  0  3  0  0  0  0  0  0
  186.5130  178.0790  145.4500 C   0  0  0  0  0  0  0  0  0  0  0  0
  186.4550  177.6860  144.0940 C   0  0  0  0  0  0  0  0  0  0  0  0
  184.2620  178.9720  145.2740 C   0  0  0  0  0  3  0  0  0  0  0  0
  187.6780  177.7170  146.3270 C   0  0  0  0  0  2  0  0  0  0  0  0
  187.6310  177.0500  143.4120 C   0  0  0  0  0  2  0  0  0  0  0  0
  189.8280  176.7260  146.4300 O   0  0  0  0  0  1  0  0  0  0  0  0
  1 10  2  0  0  0  0
  1  8  1  0  0  0  0
  2 10  1  0  0  0  0
  3  6  2  0  0  0  0
  3  7  1  0  0  0  0
  5 15  1  0  0  0  0
  5  4  2  0  0  0  0
  6  1  1  0  0  0  0
  7  9  1  0  0  0  0
  9  8  2  0  0  0  0
  9  4  1  0  0  0  0
 10 31  1  0  0  0  0
 11  6  1  0  0  0  0
 11  2  2  0  0  0  0
 12  7  2  0  0  0  0
 12  5  1  0  0  0  0
 13 17  2  0  0  0  0
 13 15  1  0  0  0  0
 15 18  2  0  0  0  0
 17 19  1  0  0  0  0
 18 16  1  0  0  0  0
 19 14  1  0  0  0  0
 19 16  2  0  0  0  0
 20 22  2  0  0  0  0
 21 22  1  0  0  0  0
 22 23  1  0  0  0  0
 23 17  1  0  0  0  0
 24 27  1  0  0  0  0
 26 25  2  0  0  0  0
 26 24  1  0  0  0  0
 27  3  1  0  0  0  0
 28 27  2  0  0  0  0
 30 29  1  0  0  0  0
 30 26  1  0  0  0  0
 31 32  1  0  0  0  0
 32 33  1  0  0  0  0
 33 34  1  0  0  0  0
 34 35  1  0  0  0  0
 35 36  1  0  0  0  0
 36 38  1  0  0  0  0
 37 40  2  0  0  0  0
 37 43  1  0  0  0  0
 38 45  1  0  0  0  0
 38 47  1  1  0  0  0
 39 38  1  0  0  0  0
 40 44  1  0  0  0  0
 42 41  1  0  0  0  0
 42 45  1  0  0  0  0
 43 42  2  0  0  0  0
 44 41  2  0  0  0  0
 46 43  1  0  0  0  0
 46 39  1  0  0  0  0
M  END
>  <MODEL>
6

>  <REMARK>
 VINA RESULT:      -8.4      2.970      8.158
  Name = 
  11 active torsions:
  status: ('A' for Active; 'I' for Inactive)
    1  A    between atoms: N_2  and  N_17
    2  A    between atoms: N_2  and  C_18
    3  A    between atoms: C_8  and  N_12
    4  A    between atoms: C_8  and  C_18
    5  A    between atoms: C_11  and  C_29
    6  A    between atoms: N_12  and  C_13
    7  A    between atoms: C_16  and  N_17
    8  A    between atoms: C_16  and  C_43
    9  A    between atoms: C_22  and  C_25
   10  A    between atoms: C_23  and  N_47
   11  A    between atoms: C_27  and  C_40
                            x       y       z     vdW  Elec       q    Type
                         _______ _______ _______ _____ _____    ______ ____

>  <TORSDO>
F 11

$$$$
=
 OpenBabel10222420253D

 47 52  0  0  1  0  0  0  0  0999 V2000
  187.7330  176.6190  137.3380 C   0  0  0  0  0  0  0  0  0  0  0  0
  188.9700  175.0980  136.2150 N   0  0  0  0  0  0  0  0  0  0  0  0
  185.4780  175.8610  136.7860 C   0  0  0  0  0  0  0  0  0  0  0  0
  185.1010  178.7940  138.9420 C   0  0  0  0  0  3  0  0  0  0  0  0
  183.8300  178.4580  138.7060 C   0  0  0  0  0  0  0  0  0  0  0  0
  186.8790  175.7610  136.6740 C   0  0  0  0  0  0  0  0  0  0  0  0
  185.0070  176.9170  137.5970 C   0  0  0  0  0  0  0  0  0  0  0  0
  187.2670  177.6730  138.1350 C   0  0  0  0  0  3  0  0  0  0  0  0
  185.8760  177.7940  138.2310 C   0  0  0  0  0  0  0  0  0  0  0  0
  188.9720  176.2350  137.0840 C   0  0  0  0  0  0  0  0  0  0  0  0
  187.7280  174.8070  135.9690 C   0  0  0  0  0  3  0  0  0  0  0  0
  183.7550  177.2630  137.8480 C   0  0  0  0  0  3  0  0  0  0  0  0
  181.8910  178.6690  140.2470 C   0  0  0  0  0  3  0  0  0  0  0  0
  179.2490  181.2290  140.5660 O   0  0  0  0  0  1  0  0  0  0  0  0
  182.6580  179.1970  139.2020 C   0  0  0  0  0  0  0  0  0  0  0  0
  181.1420  181.0870  139.0850 C   0  0  0  0  0  3  0  0  0  0  0  0
  180.7560  179.3410  140.7240 C   0  0  0  0  0  0  0  0  0  0  0  0
  182.2790  180.4160  138.6260 C   0  0  0  0  0  3  0  0  0  0  0  0
  180.3790  180.5510  140.1260 C   0  0  0  0  0  0  0  0  0  0  0  0
  179.5980  178.0960  143.9820 O   0  0  0  0  0  1  0  0  0  0  0  0
  181.6350  179.0560  143.5890 O   0  0  0  0  0  0  0  0  0  0  0  0
  180.3830  178.6320  143.1590 C   0  0  0  0  0  0  0  0  0  0  0  0
  179.9650  178.8100  141.7970 N   0  0  0  0  0  2  0  0  0  0  0  0
  184.2480  173.6670  136.6820 N   0  0  0  0  0  2  0  0  0  0  0  0
  183.1640  171.6170  136.7640 O   0  0  0  0  0  0  0  0  0  0  0  0
  183.2400  172.7550  136.2330 C   0  0  0  0  0  0  0  0  0  0  0  0
  184.5720  174.9260  136.0840 C   0  0  0  0  0  0  0  0  0  0  0  0
  184.1110  175.2310  134.9540 O   0  0  0  0  0  0  0  0  0  0  0  0
  181.0030  173.7250  135.8940 C   0  0  0  0  0  1  0  0  0  0  0  0
  182.2240  173.1410  135.2110 C   0  0  0  0  0  2  0  0  0  0  0  0
  190.2130  176.8670  137.6180 C   0  0  0  0  0  2  0  0  0  0  0  0
  190.5430  176.2990  138.9170 N   0  0  0  0  0  2  0  0  0  0  0  0
  191.4090  177.1990  139.5550 N   0  0  0  0  0  2  0  0  0  0  0  0
  190.7220  177.6930  140.7410 C   0  0  0  0  0  2  0  0  0  0  0  0
  191.5810  177.4760  141.9740 C   0  0  0  0  0  2  0  0  0  0  0  0
  190.7750  177.7130  143.1670 N   0  0  0  0  0  2  0  0  0  0  0  0
  186.4560  177.4970  144.7880 C   0  0  0  0  0  3  0  0  0  0  0  0
  190.5230  176.4520  143.8780 C   0  0  2  0  0  0  0  0  0  0  0  0
  189.3780  175.6560  143.2340 C   0  0  0  0  0  2  0  0  0  0  0  0
  186.1290  178.1080  146.0030 C   0  0  0  0  0  3  0  0  0  0  0  0
  188.4260  177.8830  146.7290 C   0  0  0  0  0  3  0  0  0  0  0  0
  188.7650  177.2850  145.5110 C   0  0  0  0  0  0  0  0  0  0  0  0
  187.7620  177.0680  144.5410 C   0  0  0  0  0  0  0  0  0  0  0  0
  187.1120  178.2970  146.9740 C   0  0  0  0  0  3  0  0  0  0  0  0
  190.1620  176.7630  145.3320 C   0  0  0  0  0  2  0  0  0  0  0  0
  188.0830  176.4670  143.2030 C   0  0  0  0  0  2  0  0  0  0  0  0
  191.6800  175.6680  143.8800 O   0  0  0  0  0  1  0  0  0  0  0  0
  1  8  1  0  0  0  0
  2 10  1  0  0  0  0
  3  7  1  0  0  0  0
  5  4  2  0  0  0  0
  5 15  1  0  0  0  0
  6  3  2  0  0  0  0
  6  1  1  0  0  0  0
  7 12  2  0  0  0  0
  7  9  1  0  0  0  0
  8  9  2  0  0  0  0
  9  4  1  0  0  0  0
 10  1  2  0  0  0  0
 10 31  1  0  0  0  0
 11  2  2  0  0  0  0
 11  6  1  0  0  0  0
 12  5  1  0  0  0  0
 13 17  1  0  0  0  0
 15 13  2  0  0  0  0
 16 19  1  0  0  0  0
 17 23  1  0  0  0  0
 18 16  2  0  0  0  0
 18 15  1  0  0  0  0
 19 14  1  0  0  0  0
 19 17  2  0  0  0  0
 22 21  2  0  0  0  0
 22 20  1  0  0  0  0
 23 22  1  0  0  0  0
 26 24  1  0  0  0  0
 26 25  2  0  0  0  0
 27 24  1  0  0  0  0
 27  3  1  0  0  0  0
 28 27  2  0  0  0  0
 30 29  1  0  0  0  0
 30 26  1  0  0  0  0
 31 32  1  0  0  0  0
 32 33  1  0  0  0  0
 33 34  1  0  0  0  0
 34 35  1  0  0  0  0
 35 36  1  0  0  0  0
 36 38  1  0  0  0  0
 37 40  1  0  0  0  0
 38 47  1  6  0  0  0
 38 45  1  0  0  0  0
 39 38  1  0  0  0  0
 40 44  2  0  0  0  0
 41 44  1  0  0  0  0
 42 41  2  0  0  0  0
 43 37  2  0  0  0  0
 43 42  1  0  0  0  0
 45 42  1  0  0  0  0
 46 39  1  0  0  0  0
 46 43  1  0  0  0  0
M  END
>  <MODEL>
7

>  <REMARK>
 VINA RESULT:      -8.3      2.998      8.168
  Name = 
  11 active torsions:
  status: ('A' for Active; 'I' for Inactive)
    1  A    between atoms: N_2  and  N_17
    2  A    between atoms: N_2  and  C_18
    3  A    between atoms: C_8  and  N_12
    4  A    between atoms: C_8  and  C_18
    5  A    between atoms: C_11  and  C_29
    6  A    between atoms: N_12  and  C_13
    7  A    between atoms: C_16  and  N_17
    8  A    between atoms: C_16  and  C_43
    9  A    between atoms: C_22  and  C_25
   10  A    between atoms: C_23  and  N_47
   11  A    between atoms: C_27  and  C_40
                            x       y       z     vdW  Elec       q    Type
                         _______ _______ _______ _____ _____    ______ ____

>  <TORSDO>
F 11

$$$$
=
 OpenBabel10222420253D

 47 52  0  0  1  0  0  0  0  0999 V2000
  188.3190  177.8820  138.6870 C   0  0  0  0  0  0  0  0  0  0  0  0
  187.5580  178.1390  136.5750 N   0  0  0  0  0  0  0  0  0  0  0  0
  186.2740  178.2950  139.9550 C   0  0  0  0  0  0  0  0  0  0  0  0
  188.9060  177.6030  142.4030 C   0  0  0  0  0  3  0  0  0  0  0  0
  187.8440  177.8060  143.1870 C   0  0  0  0  0  0  0  0  0  0  0  0
  186.9800  178.2120  138.7390 C   0  0  0  0  0  0  0  0  0  0  0  0
  187.0370  178.0490  141.1180 C   0  0  0  0  0  0  0  0  0  0  0  0
  189.0800  177.6460  139.8400 C   0  0  0  0  0  3  0  0  0  0  0  0
  188.3910  177.7510  141.0550 C   0  0  0  0  0  0  0  0  0  0  0  0
  188.6730  177.8260  137.4150 C   0  0  0  0  0  0  0  0  0  0  0  0
  186.5450  178.3660  137.3550 C   0  0  0  0  0  3  0  0  0  0  0  0
  186.6440  178.0930  142.3810 C   0  0  0  0  0  3  0  0  0  0  0  0
  188.9840  177.2700  145.3300 C   0  0  0  0  0  3  0  0  0  0  0  0
  187.9240  177.6110  148.8510 O   0  0  0  0  0  1  0  0  0  0  0  0
  187.8680  177.7840  144.6580 C   0  0  0  0  0  0  0  0  0  0  0  0
  186.8020  178.1870  146.8000 C   0  0  0  0  0  3  0  0  0  0  0  0
  189.0250  177.2160  146.7310 C   0  0  0  0  0  0  0  0  0  0  0  0
  186.7780  178.2480  145.4040 C   0  0  0  0  0  3  0  0  0  0  0  0
  187.9180  177.6700  147.4630 C   0  0  0  0  0  0  0  0  0  0  0  0
  192.4130  176.1340  147.6580 O   0  0  0  0  0  1  0  0  0  0  0  0
  191.8720  177.2780  145.7540 O   0  0  0  0  0  0  0  0  0  0  0  0
  191.5210  176.6820  146.9590 C   0  0  0  0  0  0  0  0  0  0  0  0
  190.1640  176.6950  147.4290 N   0  0  0  0  0  2  0  0  0  0  0  0
  183.8620  177.5880  140.0720 N   0  0  0  0  0  2  0  0  0  0  0  0
  181.6970  176.7620  140.2130 O   0  0  0  0  0  0  0  0  0  0  0  0
  182.4620  177.7550  140.3250 C   0  0  0  0  0  0  0  0  0  0  0  0
  184.8360  178.6340  140.0000 C   0  0  0  0  0  0  0  0  0  0  0  0
  184.4730  179.8370  139.9480 O   0  0  0  0  0  0  0  0  0  0  0  0
  180.9170  178.8000  141.9310 C   0  0  0  0  0  1  0  0  0  0  0  0
  181.8930  179.0500  140.7990 C   0  0  0  0  0  2  0  0  0  0  0  0
  190.0290  177.4780  136.8970 C   0  0  0  0  0  2  0  0  0  0  0  0
  190.1420  176.0390  136.7190 N   0  0  0  0  0  2  0  0  0  0  0  0
  190.4640  175.8100  135.3730 N   0  0  0  0  0  2  0  0  0  0  0  0
  189.2400  175.3950  134.7000 C   0  0  0  0  0  2  0  0  0  0  0  0
  188.9730  173.9230  134.9570 C   0  0  0  0  0  2  0  0  0  0  0  0
  187.5330  173.7050  135.0350 N   0  0  0  0  0  2  0  0  0  0  0  0
  182.9640  173.7200  135.7100 C   0  0  0  0  0  3  0  0  0  0  0  0
  187.1710  173.1020  136.3270 C   0  0  2  0  0  0  0  0  0  0  0  0
  186.2500  171.8860  136.1470 C   0  0  0  0  0  2  0  0  0  0  0  0
  182.3300  174.8640  136.2040 C   0  0  0  0  0  3  0  0  0  0  0  0
  184.3920  175.5430  137.2700 C   0  0  0  0  0  3  0  0  0  0  0  0
  185.0390  174.4090  136.7690 C   0  0  0  0  0  0  0  0  0  0  0  0
  184.3080  173.4760  136.0010 C   0  0  0  0  0  0  0  0  0  0  0  0
  183.0420  175.7740  136.9850 C   0  0  0  0  0  3  0  0  0  0  0  0
  186.4590  174.1500  137.1840 C   0  0  0  0  0  2  0  0  0  0  0  0
  184.9670  172.2640  135.4070 C   0  0  0  0  0  2  0  0  0  0  0  0
  188.3270  172.7030  137.0050 O   0  0  0  0  0  1  0  0  0  0  0  0
  1  6  1  0  0  0  0
  1  8  1  0  0  0  0
  2 11  2  0  0  0  0
  2 10  1  0  0  0  0
  3 27  1  0  0  0  0
  3  7  1  0  0  0  0
  4  5  2  0  0  0  0
  5 15  1  0  0  0  0
  6  3  2  0  0  0  0
  7 12  2  0  0  0  0
  8  9  2  0  0  0  0
  9  7  1  0  0  0  0
  9  4  1  0  0  0  0
 10  1  2  0  0  0  0
 11  6  1  0  0  0  0
 12  5  1  0  0  0  0
 13 17  1  0  0  0  0
 15 13  2  0  0  0  0
 15 18  1  0  0  0  0
 16 19  1  0  0  0  0
 17 23  1  0  0  0  0
 17 19  2  0  0  0  0
 18 16  2  0  0  0  0
 19 14  1  0  0  0  0
 21 22  2  0  0  0  0
 22 23  1  0  0  0  0
 22 20  1  0  0  0  0
 24 26  1  0  0  0  0
 25 26  2  0  0  0  0
 26 30  1  0  0  0  0
 27 24  1  0  0  0  0
 28 27  2  0  0  0  0
 30 29  1  0  0  0  0
 31 10  1  0  0  0  0
 32 31  1  0  0  0  0
 33 32  1  0  0  0  0
 34 35  1  0  0  0  0
 34 33  1  0  0  0  0
 35 36  1  0  0  0  0
 36 38  1  0  0  0  0
 37 43  2  0  0  0  0
 37 40  1  0  0  0  0
 38 47  1  1  0  0  0
 38 45  1  0  0  0  0
 39 38  1  0  0  0  0
 40 44  2  0  0  0  0
 42 45  1  0  0  0  0
 42 41  2  0  0  0  0
 43 42  1  0  0  0  0
 44 41  1  0  0  0  0
 46 43  1  0  0  0  0
 46 39  1  0  0  0  0
M  END
>  <MODEL>
8

>  <REMARK>
 VINA RESULT:      -8.3      2.418      7.022
  Name = 
  11 active torsions:
  status: ('A' for Active; 'I' for Inactive)
    1  A    between atoms: N_2  and  N_17
    2  A    between atoms: N_2  and  C_18
    3  A    between atoms: C_8  and  N_12
    4  A    between atoms: C_8  and  C_18
    5  A    between atoms: C_11  and  C_29
    6  A    between atoms: N_12  and  C_13
    7  A    between atoms: C_16  and  N_17
    8  A    between atoms: C_16  and  C_43
    9  A    between atoms: C_22  and  C_25
   10  A    between atoms: C_23  and  N_47
   11  A    between atoms: C_27  and  C_40
                            x       y       z     vdW  Elec       q    Type
                         _______ _______ _______ _____ _____    ______ ____

>  <TORSDO>
F 11

$$$$
=
 OpenBabel10222420253D

 47 52  0  0  1  0  0  0  0  0999 V2000
  190.1330  177.6430  141.2010 C   0  0  0  0  0  0  0  0  0  0  0  0
  192.0290  177.0410  142.2720 N   0  0  0  0  0  0  0  0  0  0  0  0
  188.5410  177.6100  143.0520 C   0  0  0  0  0  0  0  0  0  0  0  0
  186.6590  178.5810  140.0670 C   0  0  0  0  0  3  0  0  0  0  0  0
  185.7130  178.5990  141.0090 C   0  0  0  0  0  0  0  0  0  0  0  0
  189.8340  177.4160  142.5290 C   0  0  0  0  0  0  0  0  0  0  0  0
  187.5640  178.0220  142.1180 C   0  0  0  0  0  0  0  0  0  0  0  0
  189.1630  178.0430  140.2720 C   0  0  0  0  0  3  0  0  0  0  0  0
  187.8690  178.2140  140.7790 C   0  0  0  0  0  0  0  0  0  0  0  0
  191.4270  177.4350  141.0350 C   0  0  0  0  0  0  0  0  0  0  0  0
  191.0880  177.0310  143.1680 C   0  0  0  0  0  3  0  0  0  0  0  0
  186.2750  178.2420  142.3230 C   0  0  0  0  0  3  0  0  0  0  0  0
  183.3800  178.8490  141.8310 C   0  0  0  0  0  3  0  0  0  0  0  0
  180.2150  179.6360  140.0970 O   0  0  0  0  0  1  0  0  0  0  0  0
  184.2920  178.8970  140.7690 C   0  0  0  0  0  0  0  0  0  0  0  0
  182.4680  179.4480  139.2680 C   0  0  0  0  0  3  0  0  0  0  0  0
  182.0170  179.1060  141.6260 C   0  0  0  0  0  0  0  0  0  0  0  0
  183.8270  179.2040  139.4850 C   0  0  0  0  0  3  0  0  0  0  0  0
  181.5640  179.3960  140.3320 C   0  0  0  0  0  0  0  0  0  0  0  0
  179.2060  178.2530  143.8360 O   0  0  0  0  0  1  0  0  0  0  0  0
  179.8080  177.0870  141.9640 O   0  0  0  0  0  0  0  0  0  0  0  0
  179.9930  178.1320  142.8620 C   0  0  0  0  0  0  0  0  0  0  0  0
  181.0750  179.0630  142.7080 N   0  0  0  0  0  2  0  0  0  0  0  0
  189.3020  177.1640  145.4090 N   0  0  0  0  0  2  0  0  0  0  0  0
  190.1780  176.7840  147.5240 O   0  0  0  0  0  0  0  0  0  0  0  0
  189.1840  177.1310  146.8360 C   0  0  0  0  0  0  0  0  0  0  0  0
  188.2350  177.3790  144.4800 C   0  0  0  0  0  0  0  0  0  0  0  0
  187.0380  177.3460  144.8670 O   0  0  0  0  0  0  0  0  0  0  0  0
  188.3060  178.2530  148.8440 C   0  0  0  0  0  1  0  0  0  0  0  0
  187.9440  177.5750  147.5370 C   0  0  0  0  0  2  0  0  0  0  0  0
  192.1830  177.5900  139.7590 C   0  0  0  0  0  2  0  0  0  0  0  0
  193.5520  177.1280  139.9290 N   0  0  0  0  0  2  0  0  0  0  0  0
  193.8760  176.3620  138.7990 N   0  0  0  0  0  2  0  0  0  0  0  0
  192.7160  176.3770  137.9190 C   0  0  0  0  0  2  0  0  0  0  0  0
  192.2060  174.9650  137.6980 C   0  0  0  0  0  2  0  0  0  0  0  0
  190.7500  174.9630  137.7820 N   0  0  0  0  0  2  0  0  0  0  0  0
  187.5830  177.9140  136.1700 C   0  0  0  0  0  3  0  0  0  0  0  0
  190.1600  174.4930  136.5210 C   0  0  2  0  0  0  0  0  0  0  0  0
  190.3890  175.4950  135.3800 C   0  0  0  0  0  2  0  0  0  0  0  0
  186.2740  177.8750  136.6570 C   0  0  0  0  0  3  0  0  0  0  0  0
  186.5560  175.5390  137.2190 C   0  0  0  0  0  3  0  0  0  0  0  0
  187.8720  175.5730  136.7480 C   0  0  0  0  0  0  0  0  0  0  0  0
  188.3810  176.7680  136.1950 C   0  0  0  0  0  0  0  0  0  0  0  0
  185.7590  176.6880  137.1780 C   0  0  0  0  0  3  0  0  0  0  0  0
  188.6560  174.2910  136.7180 C   0  0  0  0  0  2  0  0  0  0  0  0
  189.8010  176.8660  135.7140 C   0  0  0  0  0  2  0  0  0  0  0  0
  190.7170  173.2610  136.1660 O   0  0  0  0  0  1  0  0  0  0  0  0
  1  6  1  0  0  0  0
  2 11  1  0  0  0  0
  3 27  1  0  0  0  0
  4  9  2  0  0  0  0
  4  5  1  0  0  0  0
  5 12  2  0  0  0  0
  6  3  1  0  0  0  0
  6 11  2  0  0  0  0
  7 12  1  0  0  0  0
  7  3  2  0  0  0  0
  8  9  1  0  0  0  0
  8  1  2  0  0  0  0
  9  7  1  0  0  0  0
 10  1  1  0  0  0  0
 10  2  2  0  0  0  0
 14 19  1  0  0  0  0
 15  5  1  0  0  0  0
 15 13  2  0  0  0  0
 16 18  2  0  0  0  0
 16 19  1  0  0  0  0
 17 13  1  0  0  0  0
 17 23  1  0  0  0  0
 18 15  1  0  0  0  0
 19 17  2  0  0  0  0
 21 22  2  0  0  0  0
 22 20  1  0  0  0  0
 23 22  1  0  0  0  0
 24 26  1  0  0  0  0
 26 25  2  0  0  0  0
 26 30  1  0  0  0  0
 27 28  2  0  0  0  0
 27 24  1  0  0  0  0
 30 29  1  0  0  0  0
 31 32  1  0  0  0  0
 31 10  1  0  0  0  0
 33 32  1  0  0  0  0
 34 33  1  0  0  0  0
 35 36  1  0  0  0  0
 35 34  1  0  0  0  0
 37 43  2  0  0  0  0
 37 40  1  0  0  0  0
 38 47  1  6  0  0  0
 38 45  1  0  0  0  0
 38 36  1  0  0  0  0
 39 46  1  0  0  0  0
 39 38  1  0  0  0  0
 40 44  2  0  0  0  0
 42 41  2  0  0  0  0
 43 42  1  0  0  0  0
 44 41  1  0  0  0  0
 45 42  1  0  0  0  0
 46 43  1  0  0  0  0
M  END
>  <MODEL>
9

>  <REMARK>
 VINA RESULT:      -8.3      2.385      8.679
  Name = 
  11 active torsions:
  status: ('A' for Active; 'I' for Inactive)
    1  A    between atoms: N_2  and  N_17
    2  A    between atoms: N_2  and  C_18
    3  A    between atoms: C_8  and  N_12
    4  A    between atoms: C_8  and  C_18
    5  A    between atoms: C_11  and  C_29
    6  A    between atoms: N_12  and  C_13
    7  A    between atoms: C_16  and  N_17
    8  A    between atoms: C_16  and  C_43
    9  A    between atoms: C_22  and  C_25
   10  A    between atoms: C_23  and  N_47
   11  A    between atoms: C_27  and  C_40
                            x       y       z     vdW  Elec       q    Type
                         _______ _______ _______ _____ _____    ______ ____

>  <TORSDO>
F 11

$$$$
