=
 OpenBabel10222420473D

 39 44  0  0  1  0  0  0  0  0999 V2000
  182.1560  179.0660  141.2320 N   0  0  0  0  0  0  0  0  0  0  0  0
  188.2430  177.2770  142.4190 C   0  0  2  0  0  3  0  0  0  0  0  0
  186.1210  176.6580  137.0600 N   0  0  0  0  0  0  0  0  0  0  0  0
  187.8900  176.2280  144.6040 O   0  0  0  0  0  1  0  0  0  0  0  0
  189.5270  177.8730  136.9550 C   0  0  0  0  0  2  0  0  0  0  0  0
  188.1040  177.6350  139.9020 C   0  0  1  0  0  3  0  0  0  0  0  0
  188.4600  176.8250  137.1330 C   0  0  1  0  0  3  0  0  0  0  0  0
  183.7460  179.3000  145.0380 C   0  0  0  0  0  3  0  0  0  0  0  0
  183.4400  178.0170  138.9880 C   0  0  0  0  0  0  0  0  0  0  0  0
  182.1780  178.7500  138.8340 C   0  0  0  0  0  3  0  0  0  0  0  0
  184.0930  177.5630  137.9550 C   0  0  0  0  0  0  0  0  0  0  0  0
  187.1950  177.5650  137.4320 C   0  0  2  0  0  3  0  0  0  0  0  0
  183.2060  178.3210  141.4440 C   0  0  0  0  0  0  0  0  0  0  0  0
  185.1870  179.6990  145.0640 C   0  0  0  0  0  2  0  0  0  0  0  0
  187.1580  178.1810  138.8400 C   0  0  2  0  0  3  0  0  0  0  0  0
  183.8830  178.3230  142.7560 C   0  0  0  0  0  0  0  0  0  0  0  0
  184.7480  177.0510  136.9490 C   0  0  0  0  0  3  0  0  0  0  0  0
  188.4980  178.8930  139.1420 C   0  0  2  0  0  3  0  0  0  0  0  0
  187.6030  178.0650  141.2640 C   0  0  0  0  0  2  0  0  0  0  0  0
  181.5700  179.2270  139.9260 C   0  0  0  0  0  3  0  0  0  0  0  0
  187.2440  176.7770  143.4940 C   0  0  1  0  0  3  0  0  0  0  0  0
  186.1380  178.5390  144.9340 C   0  0  0  0  0  0  0  0  0  0  0  0
  183.7890  177.4790  140.3310 C   0  0  0  0  0  2  0  0  0  0  0  0
  186.6380  175.6740  136.1180 C   0  0  0  0  0  2  0  0  0  0  0  0
  185.1360  177.8640  142.7660 C   0  0  0  0  0  3  0  0  0  0  0  0
  188.1140  176.0170  135.9070 C   0  0  0  0  0  2  0  0  0  0  0  0
  189.7670  178.5320  138.3190 C   0  0  0  0  0  2  0  0  0  0  0  0
  183.1670  178.7360  143.9790 C   0  0  0  0  0  3  0  0  0  0  0  0
  186.1250  177.7400  143.8460 C   0  0  0  0  0  0  0  0  0  0  0  0
  189.4130  177.8760  142.9380 O   0  0  0  0  0  0  0  0  0  0  0  0
  190.5350  177.2050  142.4270 C   0  0  0  0  0  1  0  0  0  0  0  0
  187.1140  178.3470  145.9180 O   0  0  0  0  0  0  0  0  0  0  0  0
  186.8230  178.3680  147.3090 C   0  0  0  0  0  2  0  0  0  0  0  0
  187.9660  177.7360  148.0810 C   0  0  0  0  0  2  0  0  0  0  0  0
  189.2570  177.8610  147.2940 C   0  0  0  0  0  2  0  0  0  0  0  0
  189.9950  176.5390  147.3180 C   0  0  0  0  0  2  0  0  0  0  0  0
  191.4310  176.7610  146.9960 C   0  0  0  0  0  0  0  0  0  0  0  0
  191.7550  177.2870  145.9000 O   0  0  0  0  0  0  0  0  0  0  0  0
  192.4140  176.3620  147.8910 O   0  0  0  0  0  1  0  0  0  0  0  0
  1 13  2  0  0  0  0
  2 30  1  1  0  0  0
  2 21  1  0  0  0  0
  5  7  1  0  0  0  0
  5 27  1  0  0  0  0
  6 19  1  1  0  0  0
  7 26  1  6  0  0  0
  7 12  1  0  0  0  0
  8 14  1  0  0  0  0
  9 23  1  0  0  0  0
 10  9  1  0  0  0  0
 10 20  2  0  0  0  0
 11  9  2  0  0  0  0
 12  3  1  1  0  0  0
 12 15  1  0  0  0  0
 13 16  1  0  0  0  0
 15 18  1  0  0  0  0
 15  6  1  0  0  0  0
 16 25  2  0  0  0  0
 16 28  1  0  0  0  0
 17  3  1  0  0  0  0
 17 11  2  0  0  0  0
 18  6  1  0  0  0  0
 19  2  1  0  0  0  0
 20  1  1  0  0  0  0
 21 29  1  0  0  0  0
 21  4  1  0  0  0  0
 22 14  1  0  0  0  0
 22 32  1  0  0  0  0
 23 13  1  0  0  0  0
 24  3  1  0  0  0  0
 25 29  1  0  0  0  0
 26 24  1  0  0  0  0
 27 18  1  0  0  0  0
 28  8  2  0  0  0  0
 29 22  2  0  0  0  0
 31 30  1  0  0  0  0
 32 33  1  0  0  0  0
 33 34  1  0  0  0  0
 35 36  1  0  0  0  0
 35 34  1  0  0  0  0
 37 36  1  0  0  0  0
 37 39  1  0  0  0  0
 38 37  2  0  0  0  0
M  END
>  <MODEL>
1

>  <REMARK>
 VINA RESULT:      -8.8      0.000      0.000
  Name = 
  7 active torsions:
  status: ('A' for Active; 'I' for Inactive)
    1  A    between atoms: C_2  and  O_8
    2  A    between atoms: O_6  and  C_19
    3  A    between atoms: O_6  and  C_28
    4  A    between atoms: C_19  and  C_27
    5  A    between atoms: C_25  and  C_29
    6  A    between atoms: C_25  and  C_39
    7  A    between atoms: C_27  and  C_39
                            x       y       z     vdW  Elec       q    Type
                         _______ _______ _______ _____ _____    ______ ____

>  <TORSDO>
F 7

$$$$
=
 OpenBabel10222420473D

 39 44  0  0  1  0  0  0  0  0999 V2000
  188.4720  176.7850  137.6800 N   0  0  0  0  0  0  0  0  0  0  0  0
  183.9690  178.5650  141.9470 C   0  0  2  0  0  3  0  0  0  0  0  0
  182.4780  177.9280  136.3810 N   0  0  0  0  0  0  0  0  0  0  0  0
  185.3170  180.1340  143.2590 O   0  0  0  0  0  1  0  0  0  0  0  0
  179.9140  176.5890  138.5540 C   0  0  0  0  0  2  0  0  0  0  0  0
  182.7000  177.6030  139.9610 C   0  0  1  0  0  3  0  0  0  0  0  0
  180.6810  177.6900  137.8710 C   0  0  1  0  0  3  0  0  0  0  0  0
  189.4280  177.4330  141.6470 C   0  0  0  0  0  3  0  0  0  0  0  0
  185.9710  177.1960  136.5150 C   0  0  0  0  0  0  0  0  0  0  0  0
  187.0220  176.4980  135.7650 C   0  0  0  0  0  3  0  0  0  0  0  0
  184.7750  177.3540  136.0210 C   0  0  0  0  0  0  0  0  0  0  0  0
  181.9960  177.0980  137.4740 C   0  0  2  0  0  3  0  0  0  0  0  0
  187.6220  177.5160  138.3450 C   0  0  0  0  0  0  0  0  0  0  0  0
  188.3630  176.9950  142.6000 C   0  0  0  0  0  2  0  0  0  0  0  0
  182.9440  176.8510  138.6580 C   0  0  2  0  0  3  0  0  0  0  0  0
  187.8340  177.8110  139.7760 C   0  0  0  0  0  0  0  0  0  0  0  0
  183.5810  177.5750  135.5390 C   0  0  0  0  0  3  0  0  0  0  0  0
  182.1740  176.1820  139.8220 C   0  0  2  0  0  3  0  0  0  0  0  0
  183.9590  177.5430  140.7990 C   0  0  0  0  0  2  0  0  0  0  0  0
  188.2200  176.3300  136.3360 C   0  0  0  0  0  3  0  0  0  0  0  0
  185.2950  179.3540  142.1000 C   0  0  1  0  0  3  0  0  0  0  0  0
  187.3210  178.0480  142.8680 C   0  0  0  0  0  0  0  0  0  0  0  0
  186.3660  178.0330  137.6790 C   0  0  0  0  0  2  0  0  0  0  0  0
  181.3470  178.6280  135.7850 C   0  0  0  0  0  2  0  0  0  0  0  0
  186.7570  178.2070  140.4560 C   0  0  0  0  0  3  0  0  0  0  0  0
  180.1090  178.1850  136.5650 C   0  0  0  0  0  2  0  0  0  0  0  0
  180.6240  176.2770  139.8780 C   0  0  0  0  0  2  0  0  0  0  0  0
  189.1820  177.7410  140.3740 C   0  0  0  0  0  3  0  0  0  0  0  0
  186.5630  178.5530  141.8720 C   0  0  0  0  0  0  0  0  0  0  0  0
  183.4390  178.0660  143.1580 O   0  0  0  0  0  0  0  0  0  0  0  0
  182.3120  178.8240  143.5100 C   0  0  0  0  0  1  0  0  0  0  0  0
  187.0710  178.4370  144.1890 O   0  0  0  0  0  0  0  0  0  0  0  0
  186.7810  177.5100  145.2260 C   0  0  0  0  0  2  0  0  0  0  0  0
  187.6530  177.8020  146.4320 C   0  0  0  0  0  2  0  0  0  0  0  0
  189.1090  177.5440  146.0960 C   0  0  0  0  0  2  0  0  0  0  0  0
  189.7480  176.7280  147.2010 C   0  0  0  0  0  2  0  0  0  0  0  0
  191.2210  176.6820  147.0010 C   0  0  0  0  0  0  0  0  0  0  0  0
  191.6950  176.3230  145.8910 O   0  0  0  0  0  0  0  0  0  0  0  0
  192.0750  177.0050  148.0470 O   0  0  0  0  0  1  0  0  0  0  0  0
  1 13  2  0  0  0  0
  2 21  1  0  0  0  0
  2 30  1  1  0  0  0
  5 27  1  0  0  0  0
  6 19  1  1  0  0  0
  7 26  1  6  0  0  0
  7  5  1  0  0  0  0
  8 14  1  0  0  0  0
  9 23  1  0  0  0  0
 10 20  2  0  0  0  0
 10  9  1  0  0  0  0
 11  9  2  0  0  0  0
 12  3  1  6  0  0  0
 12  7  1  0  0  0  0
 12 15  1  0  0  0  0
 13 16  1  0  0  0  0
 14 22  1  0  0  0  0
 15 18  1  0  0  0  0
 15  6  1  0  0  0  0
 16 28  1  0  0  0  0
 16 25  2  0  0  0  0
 17 11  2  0  0  0  0
 17  3  1  0  0  0  0
 18 27  1  0  0  0  0
 18  6  1  0  0  0  0
 19  2  1  0  0  0  0
 20  1  1  0  0  0  0
 21  4  1  0  0  0  0
 22 32  1  0  0  0  0
 23 13  1  0  0  0  0
 24  3  1  0  0  0  0
 24 26  1  0  0  0  0
 25 29  1  0  0  0  0
 28  8  2  0  0  0  0
 29 21  1  0  0  0  0
 29 22  2  0  0  0  0
 30 31  1  0  0  0  0
 32 33  1  0  0  0  0
 33 34  1  0  0  0  0
 35 34  1  0  0  0  0
 35 36  1  0  0  0  0
 37 36  1  0  0  0  0
 37 39  1  0  0  0  0
 38 37  2  0  0  0  0
M  END
>  <MODEL>
2

>  <REMARK>
 VINA RESULT:      -7.6      1.918      5.253
  Name = 
  7 active torsions:
  status: ('A' for Active; 'I' for Inactive)
    1  A    between atoms: C_2  and  O_8
    2  A    between atoms: O_6  and  C_19
    3  A    between atoms: O_6  and  C_28
    4  A    between atoms: C_19  and  C_27
    5  A    between atoms: C_25  and  C_29
    6  A    between atoms: C_25  and  C_39
    7  A    between atoms: C_27  and  C_39
                            x       y       z     vdW  Elec       q    Type
                         _______ _______ _______ _____ _____    ______ ____

>  <TORSDO>
F 7

$$$$
=
 OpenBabel10222420473D

 39 44  0  0  1  0  0  0  0  0999 V2000
  187.5290  178.3440  136.3640 N   0  0  0  0  0  0  0  0  0  0  0  0
  182.4570  176.5460  139.9270 C   0  0  2  0  0  3  0  0  0  0  0  0
  187.4880  177.6940  142.5690 N   0  0  0  0  0  0  0  0  0  0  0  0
  181.5800  174.7990  138.4510 O   0  0  0  0  0  1  0  0  0  0  0  0
  184.7120  179.0300  144.4660 C   0  0  0  0  0  2  0  0  0  0  0  0
  184.0410  177.7350  141.5270 C   0  0  1  0  0  3  0  0  0  0  0  0
  185.6160  177.9360  143.9620 C   0  0  1  0  0  3  0  0  0  0  0  0
  183.9300  177.3400  134.6010 C   0  0  0  0  0  3  0  0  0  0  0  0
  188.1130  178.1850  139.0880 C   0  0  0  0  0  0  0  0  0  0  0  0
  189.0410  178.8670  138.1780 C   0  0  0  0  0  3  0  0  0  0  0  0
  188.3300  178.1430  140.3730 C   0  0  0  0  0  0  0  0  0  0  0  0
  186.2680  178.4690  142.7260 C   0  0  2  0  0  3  0  0  0  0  0  0
  186.7310  177.6220  137.1000 C   0  0  0  0  0  0  0  0  0  0  0  0
  182.7350  177.7740  135.3870 C   0  0  0  0  0  2  0  0  0  0  0  0
  185.3190  178.5650  141.5200 C   0  0  2  0  0  3  0  0  0  0  0  0
  185.4050  177.2080  136.5980 C   0  0  0  0  0  0  0  0  0  0  0  0
  188.5370  178.0360  141.6570 C   0  0  0  0  0  3  0  0  0  0  0  0
  183.9730  179.1930  141.9550 C   0  0  2  0  0  3  0  0  0  0  0  0
  183.5110  177.6500  140.1120 C   0  0  0  0  0  2  0  0  0  0  0  0
  188.7500  178.9140  136.8730 C   0  0  0  0  0  3  0  0  0  0  0  0
  182.6570  175.6630  138.6680 C   0  0  1  0  0  3  0  0  0  0  0  0
  182.2980  176.7740  136.4250 C   0  0  0  0  0  0  0  0  0  0  0  0
  187.1210  177.2390  138.5100 C   0  0  0  0  0  2  0  0  0  0  0  0
  187.8500  177.1160  143.8570 C   0  0  0  0  0  2  0  0  0  0  0  0
  184.5220  176.8330  137.5240 C   0  0  0  0  0  3  0  0  0  0  0  0
  186.7830  177.5790  144.8490 C   0  0  0  0  0  2  0  0  0  0  0  0
  183.5700  179.1950  143.4560 C   0  0  0  0  0  2  0  0  0  0  0  0
  185.1280  177.1450  135.1490 C   0  0  0  0  0  3  0  0  0  0  0  0
  183.1220  176.3950  137.4230 C   0  0  0  0  0  0  0  0  0  0  0  0
  181.1290  176.9860  140.1310 O   0  0  0  0  0  0  0  0  0  0  0  0
  180.9980  178.2910  139.6320 C   0  0  0  0  0  1  0  0  0  0  0  0
  180.9800  176.3040  136.4030 O   0  0  0  0  0  0  0  0  0  0  0  0
  180.3600  175.7950  135.2290 C   0  0  0  0  0  2  0  0  0  0  0  0
  180.4570  174.2810  135.2150 C   0  0  0  0  0  2  0  0  0  0  0  0
  181.8150  173.8520  134.6940 C   0  0  0  0  0  2  0  0  0  0  0  0
  182.4490  172.8830  135.6720 C   0  0  0  0  0  2  0  0  0  0  0  0
  183.8850  173.2240  135.8530 C   0  0  0  0  0  0  0  0  0  0  0  0
  184.4300  173.0760  136.9780 O   0  0  0  0  0  1  0  0  0  0  0  0
  184.6180  173.7330  134.7900 O   0  0  0  0  0  0  0  0  0  0  0  0
  1 20  1  0  0  0  0
  1 13  2  0  0  0  0
  2 19  1  0  0  0  0
  2 30  1  6  0  0  0
  3 24  1  0  0  0  0
  4 21  1  0  0  0  0
  6 19  1  6  0  0  0
  6 18  1  0  0  0  0
  7  5  1  1  0  0  0
  7 26  1  0  0  0  0
  8 28  2  0  0  0  0
  8 14  1  0  0  0  0
  9 11  2  0  0  0  0
 10  9  1  0  0  0  0
 11 17  2  0  0  0  0
 12  3  1  6  0  0  0
 12  7  1  0  0  0  0
 13 23  1  0  0  0  0
 14 22  1  0  0  0  0
 15  6  1  0  0  0  0
 15 18  1  0  0  0  0
 15 12  1  0  0  0  0
 16 13  1  0  0  0  0
 16 25  2  0  0  0  0
 17  3  1  0  0  0  0
 18 27  1  0  0  0  0
 20 10  2  0  0  0  0
 21  2  1  0  0  0  0
 22 29  2  0  0  0  0
 23  9  1  0  0  0  0
 24 26  1  0  0  0  0
 27  5  1  0  0  0  0
 28 16  1  0  0  0  0
 29 25  1  0  0  0  0
 29 21  1  0  0  0  0
 31 30  1  0  0  0  0
 32 22  1  0  0  0  0
 33 32  1  0  0  0  0
 34 33  1  0  0  0  0
 35 34  1  0  0  0  0
 35 36  1  0  0  0  0
 36 37  1  0  0  0  0
 37 38  1  0  0  0  0
 39 37  2  0  0  0  0
M  END
>  <MODEL>
3

>  <REMARK>
 VINA RESULT:      -7.4      4.232      9.083
  Name = 
  7 active torsions:
  status: ('A' for Active; 'I' for Inactive)
    1  A    between atoms: C_2  and  O_8
    2  A    between atoms: O_6  and  C_19
    3  A    between atoms: O_6  and  C_28
    4  A    between atoms: C_19  and  C_27
    5  A    between atoms: C_25  and  C_29
    6  A    between atoms: C_25  and  C_39
    7  A    between atoms: C_27  and  C_39
                            x       y       z     vdW  Elec       q    Type
                         _______ _______ _______ _____ _____    ______ ____

>  <TORSDO>
F 7

$$$$
=
 OpenBabel10222420473D

 39 44  0  0  1  0  0  0  0  0999 V2000
  183.4470  178.6850  142.7660 N   0  0  0  0  0  0  0  0  0  0  0  0
  189.2140  177.7540  140.0210 C   0  0  2  0  0  3  0  0  0  0  0  0
  188.8580  178.0270  145.8010 N   0  0  0  0  0  0  0  0  0  0  0  0
  188.9780  179.3160  138.1490 O   0  0  0  0  0  1  0  0  0  0  0  0
  191.1490  175.4190  144.7820 C   0  0  0  0  0  2  0  0  0  0  0  0
  189.4490  176.9350  142.4210 C   0  0  1  0  0  3  0  0  0  0  0  0
  190.7310  176.8440  145.0280 C   0  0  1  0  0  3  0  0  0  0  0  0
  183.8720  178.6320  138.6560 C   0  0  0  0  0  3  0  0  0  0  0  0
  185.5200  178.5010  144.6240 C   0  0  0  0  0  0  0  0  0  0  0  0
  184.1260  178.4020  145.0700 C   0  0  0  0  0  3  0  0  0  0  0  0
  186.5120  178.3630  145.4590 C   0  0  0  0  0  0  0  0  0  0  0  0
  189.2350  176.8440  145.0440 C   0  0  2  0  0  3  0  0  0  0  0  0
  184.6560  178.9030  142.3280 C   0  0  0  0  0  0  0  0  0  0  0  0
  184.8830  177.6430  138.1700 C   0  0  0  0  0  2  0  0  0  0  0  0
  188.6030  176.6490  143.6560 C   0  0  2  0  0  3  0  0  0  0  0  0
  184.9510  178.8950  140.8810 C   0  0  0  0  0  0  0  0  0  0  0  0
  187.5300  178.2810  146.2720 C   0  0  0  0  0  3  0  0  0  0  0  0
  189.3170  175.5000  142.9060 C   0  0  2  0  0  3  0  0  0  0  0  0
  188.5270  177.1000  141.2310 C   0  0  0  0  0  2  0  0  0  0  0  0
  183.1470  178.5120  144.1640 C   0  0  0  0  0  3  0  0  0  0  0  0
  188.3940  178.8810  139.3410 C   0  0  1  0  0  3  0  0  0  0  0  0
  186.2870  178.1860  138.1260 C   0  0  0  0  0  0  0  0  0  0  0  0
  185.7980  179.1130  143.2970 C   0  0  0  0  0  2  0  0  0  0  0  0
  189.9800  178.4280  146.6410 C   0  0  0  0  0  2  0  0  0  0  0  0
  186.2320  178.7280  140.5480 C   0  0  0  0  0  3  0  0  0  0  0  0
  191.0970  177.4190  146.3740 C   0  0  0  0  0  2  0  0  0  0  0  0
  190.7370  175.0520  143.3500 C   0  0  0  0  0  2  0  0  0  0  0  0
  183.8860  179.1380  139.8880 C   0  0  0  0  0  3  0  0  0  0  0  0
  186.9000  178.6340  139.2420 C   0  0  0  0  0  0  0  0  0  0  0  0
  189.7950  176.8280  139.1260 O   0  0  0  0  0  0  0  0  0  0  0  0
  191.1900  176.8660  139.2700 C   0  0  0  0  0  1  0  0  0  0  0  0
  186.9980  178.1360  136.9220 O   0  0  0  0  0  0  0  0  0  0  0  0
  186.8690  177.0690  135.9930 C   0  0  0  0  0  2  0  0  0  0  0  0
  187.9430  176.0300  136.2530 C   0  0  0  0  0  2  0  0  0  0  0  0
  187.3550  174.8510  137.0030 C   0  0  0  0  0  2  0  0  0  0  0  0
  185.9860  174.5240  136.4410 C   0  0  0  0  0  2  0  0  0  0  0  0
  185.1740  173.8290  137.4760 C   0  0  0  0  0  0  0  0  0  0  0  0
  185.6580  172.8530  138.1060 O   0  0  0  0  0  1  0  0  0  0  0  0
  183.8710  174.2370  137.7250 O   0  0  0  0  0  0  0  0  0  0  0  0
  1 20  1  0  0  0  0
  2 30  1  6  0  0  0
  2 19  1  0  0  0  0
  3 17  1  0  0  0  0
  3 24  1  0  0  0  0
  4 21  1  0  0  0  0
  6 19  1  6  0  0  0
  6 18  1  0  0  0  0
  6 15  1  0  0  0  0
  7  5  1  1  0  0  0
  7 12  1  0  0  0  0
  7 26  1  0  0  0  0
  8 28  2  0  0  0  0
  9 10  1  0  0  0  0
  9 11  2  0  0  0  0
 11 17  2  0  0  0  0
 12  3  1  6  0  0  0
 13  1  2  0  0  0  0
 13 23  1  0  0  0  0
 14  8  1  0  0  0  0
 15 12  1  0  0  0  0
 16 13  1  0  0  0  0
 18 27  1  0  0  0  0
 18 15  1  0  0  0  0
 20 10  2  0  0  0  0
 21  2  1  0  0  0  0
 22 14  1  0  0  0  0
 22 29  2  0  0  0  0
 23  9  1  0  0  0  0
 25 16  2  0  0  0  0
 26 24  1  0  0  0  0
 27  5  1  0  0  0  0
 28 16  1  0  0  0  0
 29 21  1  0  0  0  0
 29 25  1  0  0  0  0
 30 31  1  0  0  0  0
 32 22  1  0  0  0  0
 33 34  1  0  0  0  0
 33 32  1  0  0  0  0
 34 35  1  0  0  0  0
 36 35  1  0  0  0  0
 36 37  1  0  0  0  0
 37 39  2  0  0  0  0
 37 38  1  0  0  0  0
M  END
>  <MODEL>
4

>  <REMARK>
 VINA RESULT:      -7.2      3.010      7.626
  Name = 
  7 active torsions:
  status: ('A' for Active; 'I' for Inactive)
    1  A    between atoms: C_2  and  O_8
    2  A    between atoms: O_6  and  C_19
    3  A    between atoms: O_6  and  C_28
    4  A    between atoms: C_19  and  C_27
    5  A    between atoms: C_25  and  C_29
    6  A    between atoms: C_25  and  C_39
    7  A    between atoms: C_27  and  C_39
                            x       y       z     vdW  Elec       q    Type
                         _______ _______ _______ _____ _____    ______ ____

>  <TORSDO>
F 7

$$$$
=
 OpenBabel10222420473D

 39 44  0  0  1  0  0  0  0  0999 V2000
  188.3860  176.7940  136.6200 N   0  0  0  0  0  0  0  0  0  0  0  0
  184.3610  178.5230  141.3600 C   0  0  2  0  0  3  0  0  0  0  0  0
  182.2610  177.8140  136.0030 N   0  0  0  0  0  0  0  0  0  0  0  0
  185.8180  180.1280  142.5020 O   0  0  0  0  0  1  0  0  0  0  0  0
  179.9870  176.4450  138.4600 C   0  0  0  0  0  2  0  0  0  0  0  0
  182.8940  177.5220  139.5360 C   0  0  1  0  0  3  0  0  0  0  0  0
  180.6500  177.5540  137.6880 C   0  0  1  0  0  3  0  0  0  0  0  0
  189.7720  177.4910  140.4490 C   0  0  0  0  0  3  0  0  0  0  0  0
  185.7610  177.1480  135.7440 C   0  0  0  0  0  0  0  0  0  0  0  0
  186.7340  176.4650  134.8840 C   0  0  0  0  0  3  0  0  0  0  0  0
  184.5130  177.2800  135.3880 C   0  0  0  0  0  0  0  0  0  0  0  0
  181.9230  176.9840  137.1480 C   0  0  2  0  0  3  0  0  0  0  0  0
  187.6020  177.5150  137.3740 C   0  0  0  0  0  0  0  0  0  0  0  0
  188.8300  177.0410  141.5200 C   0  0  0  0  0  2  0  0  0  0  0  0
  183.0040  176.7640  138.2190 C   0  0  2  0  0  3  0  0  0  0  0  0
  187.9690  177.8240  138.7700 C   0  0  0  0  0  0  0  0  0  0  0  0
  183.2700  177.4760  135.0440 C   0  0  0  0  0  3  0  0  0  0  0  0
  182.3840  176.0900  139.4660 C   0  0  2  0  0  3  0  0  0  0  0  0
  184.2410  177.4920  140.2260 C   0  0  0  0  0  2  0  0  0  0  0  0
  187.9920  176.3230  135.3170 C   0  0  0  0  0  3  0  0  0  0  0  0
  185.6800  179.3380  141.3570 C   0  0  1  0  0  3  0  0  0  0  0  0
  187.8040  178.0760  141.8980 C   0  0  0  0  0  0  0  0  0  0  0  0
  186.2690  178.0020  136.8510 C   0  0  0  0  0  2  0  0  0  0  0  0
  181.0570  178.4880  135.5340 C   0  0  0  0  0  2  0  0  0  0  0  0
  186.9680  178.2060  139.5650 C   0  0  0  0  0  3  0  0  0  0  0  0
  179.9250  178.0280  136.4530 C   0  0  0  0  0  2  0  0  0  0  0  0
  180.8480  176.1570  139.6970 C   0  0  0  0  0  2  0  0  0  0  0  0
  189.3770  177.7840  139.2110 C   0  0  0  0  0  3  0  0  0  0  0  0
  186.9290  178.5600  140.9910 C   0  0  0  0  0  0  0  0  0  0  0  0
  183.9810  178.0240  142.6270 O   0  0  0  0  0  0  0  0  0  0  0  0
  182.7980  178.6600  143.0320 C   0  0  0  0  0  1  0  0  0  0  0  0
  187.6990  178.4710  143.2360 O   0  0  0  0  0  0  0  0  0  0  0  0
  187.5090  177.5500  144.3010 C   0  0  0  0  0  2  0  0  0  0  0  0
  188.4740  177.8650  145.4290 C   0  0  0  0  0  2  0  0  0  0  0  0
  187.7360  177.8860  146.7530 C   0  0  0  0  0  2  0  0  0  0  0  0
  186.2700  177.5800  146.5220 C   0  0  0  0  0  2  0  0  0  0  0  0
  185.4610  178.8080  146.7470 C   0  0  0  0  0  0  0  0  0  0  0  0
  185.9270  179.7500  147.4400 O   0  0  0  0  0  1  0  0  0  0  0  0
  184.1810  178.9040  146.2180 O   0  0  0  0  0  0  0  0  0  0  0  0
  1 13  2  0  0  0  0
  2 30  1  1  0  0  0
  5 27  1  0  0  0  0
  6 19  1  1  0  0  0
  7 26  1  6  0  0  0
  7  5  1  0  0  0  0
  8 14  1  0  0  0  0
  9 23  1  0  0  0  0
 10 20  2  0  0  0  0
 10  9  1  0  0  0  0
 11  9  2  0  0  0  0
 12  3  1  6  0  0  0
 12  7  1  0  0  0  0
 12 15  1  0  0  0  0
 13 16  1  0  0  0  0
 14 22  1  0  0  0  0
 15 18  1  0  0  0  0
 15  6  1  0  0  0  0
 16 28  1  0  0  0  0
 16 25  2  0  0  0  0
 17 11  2  0  0  0  0
 17  3  1  0  0  0  0
 18  6  1  0  0  0  0
 18 27  1  0  0  0  0
 19  2  1  0  0  0  0
 20  1  1  0  0  0  0
 21  2  1  0  0  0  0
 21  4  1  0  0  0  0
 22 32  1  0  0  0  0
 23 13  1  0  0  0  0
 24  3  1  0  0  0  0
 24 26  1  0  0  0  0
 25 29  1  0  0  0  0
 28  8  2  0  0  0  0
 29 21  1  0  0  0  0
 29 22  2  0  0  0  0
 30 31  1  0  0  0  0
 32 33  1  0  0  0  0
 33 34  1  0  0  0  0
 34 35  1  0  0  0  0
 36 37  1  0  0  0  0
 36 35  1  0  0  0  0
 37 38  1  0  0  0  0
 39 37  2  0  0  0  0
M  END
>  <MODEL>
5

>  <REMARK>
 VINA RESULT:      -7.2      2.280      5.865
  Name = 
  7 active torsions:
  status: ('A' for Active; 'I' for Inactive)
    1  A    between atoms: C_2  and  O_8
    2  A    between atoms: O_6  and  C_19
    3  A    between atoms: O_6  and  C_28
    4  A    between atoms: C_19  and  C_27
    5  A    between atoms: C_25  and  C_29
    6  A    between atoms: C_25  and  C_39
    7  A    between atoms: C_27  and  C_39
                            x       y       z     vdW  Elec       q    Type
                         _______ _______ _______ _____ _____    ______ ____

>  <TORSDO>
F 7

$$$$
=
 OpenBabel10222420473D

 39 44  0  0  1  0  0  0  0  0999 V2000
  187.6730  178.1810  136.4270 N   0  0  0  0  0  0  0  0  0  0  0  0
  182.6270  176.8190  140.2120 C   0  0  2  0  0  3  0  0  0  0  0  0
  187.8430  177.5560  142.6320 N   0  0  0  0  0  0  0  0  0  0  0  0
  181.5480  175.1460  138.7860 O   0  0  0  0  0  1  0  0  0  0  0  0
  185.2710  179.1220  144.6350 C   0  0  0  0  0  2  0  0  0  0  0  0
  184.3700  177.8780  141.7360 C   0  0  1  0  0  3  0  0  0  0  0  0
  186.0590  177.9560  144.1010 C   0  0  1  0  0  3  0  0  0  0  0  0
  183.9320  177.4720  134.8230 C   0  0  0  0  0  3  0  0  0  0  0  0
  188.3580  177.9830  139.1240 C   0  0  0  0  0  0  0  0  0  0  0  0
  189.2990  178.5830  138.1720 C   0  0  0  0  0  3  0  0  0  0  0  0
  188.6250  177.9270  140.3990 C   0  0  0  0  0  0  0  0  0  0  0  0
  186.6990  178.4290  142.8350 C   0  0  2  0  0  3  0  0  0  0  0  0
  186.8500  177.5300  137.2000 C   0  0  0  0  0  0  0  0  0  0  0  0
  182.8110  178.0060  135.6560 C   0  0  0  0  0  2  0  0  0  0  0  0
  185.7100  178.6000  141.6700 C   0  0  2  0  0  3  0  0  0  0  0  0
  185.4750  177.2250  136.7570 C   0  0  0  0  0  0  0  0  0  0  0  0
  188.8780  177.8070  141.6740 C   0  0  0  0  0  3  0  0  0  0  0  0
  184.4410  179.3380  142.1560 C   0  0  2  0  0  3  0  0  0  0  0  0
  183.7750  177.8330  140.3450 C   0  0  0  0  0  2  0  0  0  0  0  0
  188.9580  178.6500  136.8790 C   0  0  0  0  0  3  0  0  0  0  0  0
  182.7000  175.9190  138.9520 C   0  0  1  0  0  3  0  0  0  0  0  0
  182.3380  177.0480  136.7180 C   0  0  0  0  0  0  0  0  0  0  0  0
  187.2670  177.1200  138.5950 C   0  0  0  0  0  2  0  0  0  0  0  0
  188.2110  176.9540  143.9070 C   0  0  0  0  0  2  0  0  0  0  0  0
  184.6040  176.9270  137.7230 C   0  0  0  0  0  3  0  0  0  0  0  0
  187.2290  177.5060  144.9400 C   0  0  0  0  0  2  0  0  0  0  0  0
  184.1030  179.3780  143.6730 C   0  0  0  0  0  2  0  0  0  0  0  0
  185.1320  177.1810  135.3220 C   0  0  0  0  0  3  0  0  0  0  0  0
  183.1700  176.6050  137.6840 C   0  0  0  0  0  0  0  0  0  0  0  0
  181.3500  177.3680  140.4690 O   0  0  0  0  0  0  0  0  0  0  0  0
  181.3930  178.7520  140.2450 C   0  0  0  0  0  1  0  0  0  0  0  0
  180.9860  176.6880  136.7550 O   0  0  0  0  0  0  0  0  0  0  0  0
  179.9510  177.5200  136.2480 C   0  0  0  0  0  2  0  0  0  0  0  0
  179.4840  178.4750  137.3300 C   0  0  0  0  0  2  0  0  0  0  0  0
  179.3000  179.8650  136.7530 C   0  0  0  0  0  2  0  0  0  0  0  0
  180.6280  180.5950  136.7570 C   0  0  0  0  0  2  0  0  0  0  0  0
  180.6920  181.5120  137.9260 C   0  0  0  0  0  0  0  0  0  0  0  0
  179.6380  181.8250  138.5380 O   0  0  0  0  0  1  0  0  0  0  0  0
  181.9100  182.0470  138.3240 O   0  0  0  0  0  0  0  0  0  0  0  0
  1 20  1  0  0  0  0
  1 13  2  0  0  0  0
  2 19  1  0  0  0  0
  2 30  1  6  0  0  0
  3 24  1  0  0  0  0
  4 21  1  0  0  0  0
  6 19  1  6  0  0  0
  6 18  1  0  0  0  0
  7  5  1  1  0  0  0
  7 26  1  0  0  0  0
  8 28  2  0  0  0  0
  8 14  1  0  0  0  0
  9 11  2  0  0  0  0
 10  9  1  0  0  0  0
 11 17  2  0  0  0  0
 12  3  1  6  0  0  0
 12  7  1  0  0  0  0
 13 23  1  0  0  0  0
 14 22  1  0  0  0  0
 15  6  1  0  0  0  0
 15 18  1  0  0  0  0
 15 12  1  0  0  0  0
 16 13  1  0  0  0  0
 16 25  2  0  0  0  0
 17  3  1  0  0  0  0
 18 27  1  0  0  0  0
 20 10  2  0  0  0  0
 21  2  1  0  0  0  0
 22 32  1  0  0  0  0
 22 29  2  0  0  0  0
 23  9  1  0  0  0  0
 24 26  1  0  0  0  0
 27  5  1  0  0  0  0
 28 16  1  0  0  0  0
 29 25  1  0  0  0  0
 29 21  1  0  0  0  0
 31 30  1  0  0  0  0
 33 32  1  0  0  0  0
 33 34  1  0  0  0  0
 35 36  1  0  0  0  0
 35 34  1  0  0  0  0
 36 37  1  0  0  0  0
 37 39  2  0  0  0  0
 37 38  1  0  0  0  0
M  END
>  <MODEL>
6

>  <REMARK>
 VINA RESULT:      -7.1      4.102      9.024
  Name = 
  7 active torsions:
  status: ('A' for Active; 'I' for Inactive)
    1  A    between atoms: C_2  and  O_8
    2  A    between atoms: O_6  and  C_19
    3  A    between atoms: O_6  and  C_28
    4  A    between atoms: C_19  and  C_27
    5  A    between atoms: C_25  and  C_29
    6  A    between atoms: C_25  and  C_39
    7  A    between atoms: C_27  and  C_39
                            x       y       z     vdW  Elec       q    Type
                         _______ _______ _______ _____ _____    ______ ____

>  <TORSDO>
F 7

$$$$
=
 OpenBabel10222420473D

 39 44  0  0  1  0  0  0  0  0999 V2000
  183.3910  178.5460  142.5130 N   0  0  0  0  0  0  0  0  0  0  0  0
  189.2770  177.8150  139.9670 C   0  0  2  0  0  3  0  0  0  0  0  0
  188.7130  178.0440  145.7320 N   0  0  0  0  0  0  0  0  0  0  0  0
  189.0560  179.3780  138.0940 O   0  0  0  0  0  1  0  0  0  0  0  0
  191.1190  175.5160  144.7810 C   0  0  0  0  0  2  0  0  0  0  0  0
  189.4540  176.9900  142.3690 C   0  0  1  0  0  3  0  0  0  0  0  0
  190.6480  176.9260  145.0190 C   0  0  1  0  0  3  0  0  0  0  0  0
  183.9600  178.5290  138.4210 C   0  0  0  0  0  3  0  0  0  0  0  0
  185.4040  178.4180  144.4410 C   0  0  0  0  0  0  0  0  0  0  0  0
  183.9980  178.2720  144.8390 C   0  0  0  0  0  3  0  0  0  0  0  0
  186.3700  178.3070  145.3100 C   0  0  0  0  0  0  0  0  0  0  0  0
  189.1530  176.8780  144.9830 C   0  0  2  0  0  3  0  0  0  0  0  0
  184.6070  178.8050  142.1180 C   0  0  0  0  0  0  0  0  0  0  0  0
  185.0180  177.5760  137.9650 C   0  0  0  0  0  2  0  0  0  0  0  0
  188.5760  176.6710  143.5730 C   0  0  2  0  0  3  0  0  0  0  0  0
  184.9520  178.8140  140.6830 C   0  0  0  0  0  0  0  0  0  0  0  0
  187.3610  178.2530  146.1570 C   0  0  0  0  0  3  0  0  0  0  0  0
  189.3520  175.5480  142.8440 C   0  0  2  0  0  3  0  0  0  0  0  0
  188.5690  177.1320  141.1490 C   0  0  0  0  0  2  0  0  0  0  0  0
  183.0490  178.3560  143.8990 C   0  0  0  0  0  3  0  0  0  0  0  0
  188.4450  178.9180  139.2640 C   0  0  1  0  0  3  0  0  0  0  0  0
  186.4050  178.1630  137.9730 C   0  0  0  0  0  0  0  0  0  0  0  0
  185.7080  179.0460  143.1270 C   0  0  0  0  0  2  0  0  0  0  0  0
  189.7910  178.4760  146.6120 C   0  0  0  0  0  2  0  0  0  0  0  0
  186.2480  178.6900  140.3940 C   0  0  0  0  0  3  0  0  0  0  0  0
  190.9480  177.5050  146.3790 C   0  0  0  0  0  2  0  0  0  0  0  0
  190.7700  175.1440  143.3350 C   0  0  0  0  0  2  0  0  0  0  0  0
  183.9140  179.0290  139.6550 C   0  0  0  0  0  3  0  0  0  0  0  0
  186.9640  178.6240  139.1110 C   0  0  0  0  0  0  0  0  0  0  0  0
  189.9180  176.9120  139.0880 O   0  0  0  0  0  0  0  0  0  0  0  0
  191.2910  176.8960  139.3720 C   0  0  0  0  0  1  0  0  0  0  0  0
  187.1580  178.1420  136.7940 O   0  0  0  0  0  0  0  0  0  0  0  0
  186.7980  177.3640  135.6610 C   0  0  0  0  0  2  0  0  0  0  0  0
  188.0370  176.7230  135.0650 C   0  0  0  0  0  2  0  0  0  0  0  0
  188.8830  176.1080  136.1630 C   0  0  0  0  0  2  0  0  0  0  0  0
  188.2000  174.8630  136.6930 C   0  0  0  0  0  2  0  0  0  0  0  0
  189.1670  173.7330  136.7150 C   0  0  0  0  0  0  0  0  0  0  0  0
  188.9950  172.7430  135.9570 O   0  0  0  0  0  0  0  0  0  0  0  0
  190.2420  173.7560  137.5930 O   0  0  0  0  0  1  0  0  0  0  0  0
  1 20  1  0  0  0  0
  2 30  1  6  0  0  0
  2 19  1  0  0  0  0
  3 17  1  0  0  0  0
  3 24  1  0  0  0  0
  4 21  1  0  0  0  0
  6 19  1  6  0  0  0
  6 18  1  0  0  0  0
  6 15  1  0  0  0  0
  7  5  1  1  0  0  0
  7 26  1  0  0  0  0
  8 28  2  0  0  0  0
  9 10  1  0  0  0  0
  9 11  2  0  0  0  0
 11 17  2  0  0  0  0
 12  7  1  0  0  0  0
 12  3  1  6  0  0  0
 13  1  2  0  0  0  0
 13 23  1  0  0  0  0
 14 22  1  0  0  0  0
 14  8  1  0  0  0  0
 15 12  1  0  0  0  0
 16 13  1  0  0  0  0
 18 27  1  0  0  0  0
 18 15  1  0  0  0  0
 20 10  2  0  0  0  0
 21  2  1  0  0  0  0
 22 29  2  0  0  0  0
 23  9  1  0  0  0  0
 25 16  2  0  0  0  0
 26 24  1  0  0  0  0
 27  5  1  0  0  0  0
 28 16  1  0  0  0  0
 29 21  1  0  0  0  0
 29 25  1  0  0  0  0
 30 31  1  0  0  0  0
 32 22  1  0  0  0  0
 33 32  1  0  0  0  0
 34 33  1  0  0  0  0
 34 35  1  0  0  0  0
 35 36  1  0  0  0  0
 36 37  1  0  0  0  0
 37 39  1  0  0  0  0
 38 37  2  0  0  0  0
M  END
>  <MODEL>
7

>  <REMARK>
 VINA RESULT:      -6.9      2.983      7.529
  Name = 
  7 active torsions:
  status: ('A' for Active; 'I' for Inactive)
    1  A    between atoms: C_2  and  O_8
    2  A    between atoms: O_6  and  C_19
    3  A    between atoms: O_6  and  C_28
    4  A    between atoms: C_19  and  C_27
    5  A    between atoms: C_25  and  C_29
    6  A    between atoms: C_25  and  C_39
    7  A    between atoms: C_27  and  C_39
                            x       y       z     vdW  Elec       q    Type
                         _______ _______ _______ _____ _____    ______ ____

>  <TORSDO>
F 7

$$$$
=
 OpenBabel10222420473D

 39 44  0  0  1  0  0  0  0  0999 V2000
  187.9040  177.7900  142.9500 N   0  0  0  0  0  0  0  0  0  0  0  0
  183.9110  178.4930  137.9290 C   0  0  2  0  0  3  0  0  0  0  0  0
  189.4540  177.1070  136.9450 N   0  0  0  0  0  0  0  0  0  0  0  0
  182.6830  180.4600  138.7180 O   0  0  0  0  0  1  0  0  0  0  0  0
  187.2600  175.2390  134.7570 C   0  0  0  0  0  2  0  0  0  0  0  0
  185.8550  177.0870  137.0760 C   0  0  1  0  0  3  0  0  0  0  0  0
  188.0020  176.4660  135.2180 C   0  0  1  0  0  3  0  0  0  0  0  0
  183.9710  178.9340  143.4940 C   0  0  0  0  0  3  0  0  0  0  0  0
  189.1660  177.4020  140.4930 C   0  0  0  0  0  0  0  0  0  0  0  0
  189.8320  176.9830  141.7320 C   0  0  0  0  0  3  0  0  0  0  0  0
  189.7050  177.1830  139.3260 C   0  0  0  0  0  0  0  0  0  0  0  0
  188.3160  176.2460  136.6640 C   0  0  2  0  0  3  0  0  0  0  0  0
  187.3190  178.2920  141.8980 C   0  0  0  0  0  0  0  0  0  0  0  0
  183.0180  178.2750  142.5490 C   0  0  0  0  0  2  0  0  0  0  0  0
  187.0900  176.3530  137.5850 C   0  0  2  0  0  3  0  0  0  0  0  0
  185.9090  178.7260  141.9500 C   0  0  0  0  0  0  0  0  0  0  0  0
  190.2350  177.0270  138.1430 C   0  0  0  0  0  3  0  0  0  0  0  0
  185.9020  175.5700  136.9770 C   0  0  2  0  0  3  0  0  0  0  0  0
  184.9800  177.4390  138.2600 C   0  0  0  0  0  2  0  0  0  0  0  0
  189.2160  177.1970  142.9010 C   0  0  0  0  0  3  0  0  0  0  0  0
  183.7800  179.6330  138.9720 C   0  0  1  0  0  3  0  0  0  0  0  0
  182.8600  179.0050  141.2420 C   0  0  0  0  0  0  0  0  0  0  0  0
  188.0580  178.3890  140.5820 C   0  0  0  0  0  2  0  0  0  0  0  0
  190.1330  177.4190  135.6940 C   0  0  0  0  0  2  0  0  0  0  0  0
  185.2920  178.8440  140.7730 C   0  0  0  0  0  3  0  0  0  0  0  0
  189.3570  176.6940  134.5940 C   0  0  0  0  0  2  0  0  0  0  0  0
  185.8970  175.2260  135.4610 C   0  0  0  0  0  2  0  0  0  0  0  0
  185.2700  179.0780  143.2330 C   0  0  0  0  0  3  0  0  0  0  0  0
  183.9120  179.2110  140.4230 C   0  0  0  0  0  0  0  0  0  0  0  0
  182.6810  177.9440  137.5010 O   0  0  0  0  0  0  0  0  0  0  0  0
  182.4590  176.7370  138.1810 C   0  0  0  0  0  1  0  0  0  0  0  0
  181.5790  179.3910  140.8300 O   0  0  0  0  0  0  0  0  0  0  0  0
  180.4520  179.3730  141.6940 C   0  0  0  0  0  2  0  0  0  0  0  0
  179.4010  178.4260  141.1450 C   0  0  0  0  0  2  0  0  0  0  0  0
  179.8140  176.9890  141.3980 C   0  0  0  0  0  2  0  0  0  0  0  0
  178.9350  176.0590  140.5860 C   0  0  0  0  0  2  0  0  0  0  0  0
  179.5730  174.7190  140.4970 C   0  0  0  0  0  0  0  0  0  0  0  0
  180.3100  174.4370  139.5160 O   0  0  0  0  0  0  0  0  0  0  0  0
  179.3320  173.7670  141.4780 O   0  0  0  0  0  1  0  0  0  0  0  0
  2 30  1  1  0  0  0
  2 19  1  0  0  0  0
  2 21  1  0  0  0  0
  3 17  1  0  0  0  0
  4 21  1  0  0  0  0
  5  7  1  0  0  0  0
  5 27  1  0  0  0  0
  6 15  1  0  0  0  0
  6 19  1  1  0  0  0
  7 26  1  6  0  0  0
  7 12  1  0  0  0  0
  9 23  1  0  0  0  0
  9 10  1  0  0  0  0
 10 20  2  0  0  0  0
 11  9  2  0  0  0  0
 12  3  1  1  0  0  0
 12 15  1  0  0  0  0
 13 16  1  0  0  0  0
 13  1  2  0  0  0  0
 14  8  1  0  0  0  0
 16 28  1  0  0  0  0
 17 11  2  0  0  0  0
 18  6  1  0  0  0  0
 18 15  1  0  0  0  0
 20  1  1  0  0  0  0
 21 29  1  0  0  0  0
 22 14  1  0  0  0  0
 23 13  1  0  0  0  0
 24  3  1  0  0  0  0
 25 16  2  0  0  0  0
 26 24  1  0  0  0  0
 27 18  1  0  0  0  0
 28  8  2  0  0  0  0
 29 25  1  0  0  0  0
 29 22  2  0  0  0  0
 30 31  1  0  0  0  0
 32 22  1  0  0  0  0
 32 33  1  0  0  0  0
 34 35  1  0  0  0  0
 34 33  1  0  0  0  0
 36 35  1  0  0  0  0
 37 36  1  0  0  0  0
 37 39  1  0  0  0  0
 38 37  2  0  0  0  0
M  END
>  <MODEL>
8

>  <REMARK>
 VINA RESULT:      -6.8      4.276      7.136
  Name = 
  7 active torsions:
  status: ('A' for Active; 'I' for Inactive)
    1  A    between atoms: C_2  and  O_8
    2  A    between atoms: O_6  and  C_19
    3  A    between atoms: O_6  and  C_28
    4  A    between atoms: C_19  and  C_27
    5  A    between atoms: C_25  and  C_29
    6  A    between atoms: C_25  and  C_39
    7  A    between atoms: C_27  and  C_39
                            x       y       z     vdW  Elec       q    Type
                         _______ _______ _______ _____ _____    ______ ____

>  <TORSDO>
F 7

$$$$
=
 OpenBabel10222420473D

 39 44  0  0  1  0  0  0  0  0999 V2000
  187.6820  177.9240  142.9660 N   0  0  0  0  0  0  0  0  0  0  0  0
  183.6650  178.4740  137.9450 C   0  0  2  0  0  3  0  0  0  0  0  0
  189.2460  177.2490  136.9640 N   0  0  0  0  0  0  0  0  0  0  0  0
  182.3780  180.4080  138.7220 O   0  0  0  0  0  1  0  0  0  0  0  0
  187.1070  175.3020  134.7910 C   0  0  0  0  0  2  0  0  0  0  0  0
  185.6500  177.1210  137.0990 C   0  0  1  0  0  3  0  0  0  0  0  0
  187.8120  176.5530  135.2430 C   0  0  1  0  0  3  0  0  0  0  0  0
  183.7170  178.9530  143.5070 C   0  0  0  0  0  3  0  0  0  0  0  0
  188.9530  177.5580  140.5100 C   0  0  0  0  0  0  0  0  0  0  0  0
  189.6320  177.1680  141.7520 C   0  0  0  0  0  3  0  0  0  0  0  0
  189.4970  177.3480  139.3440 C   0  0  0  0  0  0  0  0  0  0  0  0
  188.1340  176.3530  136.6890 C   0  0  2  0  0  3  0  0  0  0  0  0
  187.0810  178.4020  141.9120 C   0  0  0  0  0  0  0  0  0  0  0  0
  182.7830  178.2590  142.5680 C   0  0  0  0  0  2  0  0  0  0  0  0
  186.9060  176.4280  137.6110 C   0  0  2  0  0  3  0  0  0  0  0  0
  185.6580  178.7930  141.9620 C   0  0  0  0  0  0  0  0  0  0  0  0
  190.0300  177.2010  138.1620 C   0  0  0  0  0  3  0  0  0  0  0  0
  185.7420  175.6060  137.0100 C   0  0  2  0  0  3  0  0  0  0  0  0
  184.7650  177.4550  138.2820 C   0  0  0  0  0  2  0  0  0  0  0  0
  189.0110  177.3710  142.9190 C   0  0  0  0  0  3  0  0  0  0  0  0
  183.5010  179.6170  138.9800 C   0  0  1  0  0  3  0  0  0  0  0  0
  182.6020  178.9750  141.2560 C   0  0  0  0  0  0  0  0  0  0  0  0
  187.8150  178.5130  140.5940 C   0  0  0  0  0  2  0  0  0  0  0  0
  189.9140  177.5730  135.7110 C   0  0  0  0  0  2  0  0  0  0  0  0
  185.0370  178.8850  140.7850 C   0  0  0  0  0  3  0  0  0  0  0  0
  189.1590  176.8180  134.6160 C   0  0  0  0  0  2  0  0  0  0  0  0
  185.7460  175.2520  135.4960 C   0  0  0  0  0  2  0  0  0  0  0  0
  185.0100  179.1340  143.2440 C   0  0  0  0  0  3  0  0  0  0  0  0
  183.6470  179.2080  140.4340 C   0  0  0  0  0  0  0  0  0  0  0  0
  182.4520  177.8850  137.5220 O   0  0  0  0  0  0  0  0  0  0  0  0
  182.2390  176.7050  138.2500 C   0  0  0  0  0  1  0  0  0  0  0  0
  181.3100  179.3210  140.8430 O   0  0  0  0  0  0  0  0  0  0  0  0
  180.3320  179.8520  141.7270 C   0  0  0  0  0  2  0  0  0  0  0  0
  178.9670  179.8040  141.0680 C   0  0  0  0  0  2  0  0  0  0  0  0
  179.0190  180.4830  139.7130 C   0  0  0  0  0  2  0  0  0  0  0  0
  178.9380  181.9850  139.8950 C   0  0  0  0  0  2  0  0  0  0  0  0
  179.1770  182.6600  138.5910 C   0  0  0  0  0  0  0  0  0  0  0  0
  179.1970  183.9170  138.5280 O   0  0  0  0  0  1  0  0  0  0  0  0
  179.3450  181.9050  137.4380 O   0  0  0  0  0  0  0  0  0  0  0  0
  2 30  1  1  0  0  0
  2 19  1  0  0  0  0
  2 21  1  0  0  0  0
  3 17  1  0  0  0  0
  4 21  1  0  0  0  0
  5  7  1  0  0  0  0
  5 27  1  0  0  0  0
  6 15  1  0  0  0  0
  6 19  1  1  0  0  0
  7 26  1  6  0  0  0
  7 12  1  0  0  0  0
  9 23  1  0  0  0  0
  9 10  1  0  0  0  0
 10 20  2  0  0  0  0
 11  9  2  0  0  0  0
 12  3  1  1  0  0  0
 12 15  1  0  0  0  0
 13 16  1  0  0  0  0
 13  1  2  0  0  0  0
 14  8  1  0  0  0  0
 16 28  1  0  0  0  0
 17 11  2  0  0  0  0
 18  6  1  0  0  0  0
 18 15  1  0  0  0  0
 20  1  1  0  0  0  0
 21 29  1  0  0  0  0
 22 14  1  0  0  0  0
 23 13  1  0  0  0  0
 24  3  1  0  0  0  0
 25 16  2  0  0  0  0
 26 24  1  0  0  0  0
 27 18  1  0  0  0  0
 28  8  2  0  0  0  0
 29 25  1  0  0  0  0
 29 22  2  0  0  0  0
 30 31  1  0  0  0  0
 32 22  1  0  0  0  0
 32 33  1  0  0  0  0
 34 33  1  0  0  0  0
 35 36  1  0  0  0  0
 35 34  1  0  0  0  0
 37 36  1  0  0  0  0
 38 37  1  0  0  0  0
 39 37  2  0  0  0  0
M  END
>  <MODEL>
9

>  <REMARK>
 VINA RESULT:      -6.6      4.320      7.709
  Name = 
  7 active torsions:
  status: ('A' for Active; 'I' for Inactive)
    1  A    between atoms: C_2  and  O_8
    2  A    between atoms: O_6  and  C_19
    3  A    between atoms: O_6  and  C_28
    4  A    between atoms: C_19  and  C_27
    5  A    between atoms: C_25  and  C_29
    6  A    between atoms: C_25  and  C_39
    7  A    between atoms: C_27  and  C_39
                            x       y       z     vdW  Elec       q    Type
                         _______ _______ _______ _____ _____    ______ ____

>  <TORSDO>
F 7

$$$$
