=
 OpenBabel10222419353D

 39 44  0  0  1  0  0  0  0  0999 V2000
  188.4950  178.7380  141.0090 N   0  0  0  0  0  1  0  0  0  0  0  0
  189.1820  177.5040  140.6680 C   0  0  1  0  0  3  0  0  0  0  0  0
  190.1040  177.7410  139.4770 C   0  0  0  0  0  2  0  0  0  0  0  0
  190.2380  177.2330  137.1850 F   0  0  0  0  0  0  0  0  0  0  0  0
  189.3720  177.7430  138.1330 C   0  0  0  0  0  0  0  0  0  0  0  0
  189.0430  179.0370  137.7610 F   0  0  0  0  0  0  0  0  0  0  0  0
  188.1350  176.8440  138.1640 C   0  0  0  0  0  2  0  0  0  0  0  0
  185.7770  178.9440  138.5190 N   0  0  0  0  0  0  0  0  0  0  0  0
  184.5380  179.3080  138.9860 C   0  0  0  0  0  3  0  0  0  0  0  0
  187.0910  177.2190  137.1180 C   0  0  1  0  0  3  0  0  0  0  0  0
  185.2830  175.9720  136.6550 N   0  0  0  0  0  2  0  0  0  0  0  0
  186.6370  176.0390  136.4360 O   0  0  0  0  0  0  0  0  0  0  0  0
  183.4340  178.4930  138.6720 C   0  0  0  0  0  0  0  0  0  0  0  0
  182.0910  178.7040  139.0480 N   0  0  0  0  0  2  0  0  0  0  0  0
  183.5840  177.3640  137.9130 C   0  0  0  0  0  0  0  0  0  0  0  0
  184.8540  177.0310  137.4670 C   0  0  0  0  0  0  0  0  0  0  0  0
  182.2800  176.6920  137.7070 C   0  0  0  0  0  2  0  0  0  0  0  0
  185.9020  177.8040  137.7770 C   0  0  0  0  0  0  0  0  0  0  0  0
  181.2970  177.6150  138.4680 C   0  0  1  0  0  3  0  0  0  0  0  0
  180.6170  176.8410  139.5500 C   0  0  0  0  0  3  0  0  0  0  0  0
  180.4200  177.3820  140.7490 C   0  0  0  0  0  2  0  0  0  0  0  0
  189.9370  176.9690  141.8840 C   0  0  0  0  0  2  0  0  0  0  0  0
  186.1300  178.4350  146.5230 C   0  0  0  0  0  0  0  0  0  0  0  0
  184.3090  178.2980  142.3630 C   0  0  0  0  0  3  0  0  0  0  0  0
  189.4020  177.5090  143.1290 N   0  0  0  0  0  2  0  0  0  0  0  0
  188.3470  177.9260  147.3060 C   0  0  0  0  0  0  0  0  0  0  0  0
  187.0590  178.3850  147.5590 C   0  0  0  0  0  3  0  0  0  0  0  0
  185.5300  178.1700  144.2160 C   0  0  0  0  0  0  0  0  0  0  0  0
  187.7830  177.5300  145.0030 N   0  0  0  0  0  0  0  0  0  0  0  0
  184.2920  178.6550  144.5260 C   0  0  0  0  0  0  0  0  0  0  0  0
  185.5640  177.9480  142.8560 C   0  0  0  0  0  3  0  0  0  0  0  0
  184.8720  178.9100  146.7620 N   0  0  0  0  0  0  0  0  0  0  0  0
  183.9630  179.0170  145.7880 N   0  0  0  0  0  0  0  0  0  0  0  0
  189.3500  177.8760  148.4020 C   0  0  0  0  0  1  0  0  0  0  0  0
  188.6870  177.4990  146.0230 C   0  0  0  0  0  3  0  0  0  0  0  0
  186.5090  178.0150  145.2180 C   0  0  0  0  0  0  0  0  0  0  0  0
  183.5050  178.7450  143.4060 C   0  0  0  0  0  3  0  0  0  0  0  0
  187.6050  176.0210  143.2310 O   0  0  0  0  0  0  0  0  0  0  0  0
  188.2240  176.9880  143.7510 C   0  0  0  0  0  0  0  0  0  0  0  0
  2  1  1  1  0  0  0
  2 22  1  0  0  0  0
  3  2  1  0  0  0  0
  4  5  1  0  0  0  0
  5  7  1  0  0  0  0
  5  3  1  0  0  0  0
  6  5  1  0  0  0  0
  8  9  1  0  0  0  0
 10 18  1  0  0  0  0
 10  7  1  1  0  0  0
 11 16  1  0  0  0  0
 12 11  1  0  0  0  0
 12 10  1  0  0  0  0
 13  9  2  0  0  0  0
 13 14  1  0  0  0  0
 15 13  1  0  0  0  0
 16 18  1  0  0  0  0
 16 15  2  0  0  0  0
 17 15  1  0  0  0  0
 17 19  1  0  0  0  0
 18  8  2  0  0  0  0
 19 14  1  0  0  0  0
 19 20  1  1  0  0  0
 20 21  2  0  0  0  0
 22 25  1  0  0  0  0
 23 32  1  0  0  0  0
 23 27  2  0  0  0  0
 24 31  2  0  0  0  0
 24 37  1  0  0  0  0
 25 39  1  0  0  0  0
 26 27  1  0  0  0  0
 26 34  1  0  0  0  0
 28 30  1  0  0  0  0
 28 36  2  0  0  0  0
 29 36  1  0  0  0  0
 29 35  1  0  0  0  0
 30 33  1  0  0  0  0
 31 28  1  0  0  0  0
 33 32  2  0  0  0  0
 35 26  2  0  0  0  0
 36 23  1  0  0  0  0
 37 30  2  0  0  0  0
 38 39  2  0  0  0  0
 39 29  1  0  0  0  0
M  END
>  <MODEL>
1

>  <REMARK>
 VINA RESULT:     -10.5      0.000      0.000
  Name = 
  7 active torsions:
  status: ('A' for Active; 'I' for Inactive)
    1  A    between atoms: C_3  and  C_13
    2  A    between atoms: C_3  and  C_17
    3  A    between atoms: C_4  and  C_35
    4  A    between atoms: C_8  and  C_17
    5  A    between atoms: C_8  and  C_23
    6  A    between atoms: N_10  and  C_14
    7  A    between atoms: C_14  and  C_23
                            x       y       z     vdW  Elec       q    Type
                         _______ _______ _______ _____ _____    ______ ____

>  <TORSDO>
F 7

$$$$
=
 OpenBabel10222419353D

 39 44  0  0  1  0  0  0  0  0999 V2000
  190.7230  175.3430  138.5620 N   0  0  0  0  0  1  0  0  0  0  0  0
  190.4780  176.6840  139.0630 C   0  0  1  0  0  3  0  0  0  0  0  0
  189.0030  177.0330  138.8960 C   0  0  0  0  0  2  0  0  0  0  0  0
  189.5880  178.1310  136.9010 F   0  0  0  0  0  0  0  0  0  0  0  0
  188.7650  178.2530  138.0040 C   0  0  0  0  0  0  0  0  0  0  0  0
  189.1110  179.4180  138.6710 F   0  0  0  0  0  0  0  0  0  0  0  0
  187.3210  178.3110  137.5010 C   0  0  0  0  0  2  0  0  0  0  0  0
  184.4200  177.1160  137.0030 N   0  0  0  0  0  0  0  0  0  0  0  0
  183.0970  177.2480  136.6590 C   0  0  0  0  0  3  0  0  0  0  0  0
  186.2960  177.9460  138.5700 C   0  0  1  0  0  3  0  0  0  0  0  0
  184.9890  179.4450  139.6100 N   0  0  0  0  0  2  0  0  0  0  0  0
  186.2720  178.9570  139.5890 O   0  0  0  0  0  0  0  0  0  0  0  0
  182.3170  178.2040  137.3380 C   0  0  0  0  0  0  0  0  0  0  0  0
  180.9480  178.4780  137.1360 N   0  0  0  0  0  2  0  0  0  0  0  0
  182.8580  178.9830  138.3240 C   0  0  0  0  0  0  0  0  0  0  0  0
  184.2000  178.8200  138.6350 C   0  0  0  0  0  0  0  0  0  0  0  0
  181.8380  179.8920  138.8950 C   0  0  0  0  0  2  0  0  0  0  0  0
  184.9400  177.9170  137.9790 C   0  0  0  0  0  0  0  0  0  0  0  0
  180.5670  179.5270  138.0900 C   0  0  1  0  0  3  0  0  0  0  0  0
  180.0710  180.7310  137.3590 C   0  0  0  0  0  3  0  0  0  0  0  0
  180.7780  181.8590  137.3520 C   0  0  0  0  0  2  0  0  0  0  0  0
  190.9350  176.7940  140.5170 C   0  0  0  0  0  2  0  0  0  0  0  0
  187.4170  177.5680  145.5340 C   0  0  0  0  0  0  0  0  0  0  0  0
  191.7880  176.5590  146.2520 C   0  0  0  0  0  3  0  0  0  0  0  0
  189.8050  176.7930  141.4390 N   0  0  0  0  0  2  0  0  0  0  0  0
  186.1910  177.9760  143.5050 C   0  0  0  0  0  0  0  0  0  0  0  0
  186.2110  177.8270  144.8870 C   0  0  0  0  0  3  0  0  0  0  0  0
  189.7730  177.1230  145.5010 C   0  0  0  0  0  0  0  0  0  0  0  0
  188.5700  177.6490  143.4080 N   0  0  0  0  0  0  0  0  0  0  0  0
  189.7190  176.9610  146.8550 C   0  0  0  0  0  0  0  0  0  0  0  0
  191.0660  176.8640  145.0990 C   0  0  0  0  0  3  0  0  0  0  0  0
  187.4360  177.3950  146.8900 N   0  0  0  0  0  0  0  0  0  0  0  0
  188.5630  177.1010  147.5450 N   0  0  0  0  0  0  0  0  0  0  0  0
  184.9090  178.2440  142.8020 C   0  0  0  0  0  1  0  0  0  0  0  0
  187.3810  177.8880  142.7850 C   0  0  0  0  0  3  0  0  0  0  0  0
  188.6130  177.4600  144.7740 C   0  0  0  0  0  0  0  0  0  0  0  0
  190.9480  176.6160  147.3590 C   0  0  0  0  0  3  0  0  0  0  0  0
  190.6690  178.4770  142.8060 O   0  0  0  0  0  0  0  0  0  0  0  0
  189.7350  177.6630  142.5720 C   0  0  0  0  0  0  0  0  0  0  0  0
  2  1  1  1  0  0  0
  2 22  1  0  0  0  0
  3  2  1  0  0  0  0
  4  5  1  0  0  0  0
  5  6  1  0  0  0  0
  5  3  1  0  0  0  0
  7  5  1  0  0  0  0
  8 18  1  0  0  0  0
  9  8  2  0  0  0  0
  9 13  1  0  0  0  0
 10  7  1  6  0  0  0
 10 12  1  0  0  0  0
 12 11  1  0  0  0  0
 13 15  2  0  0  0  0
 14 13  1  0  0  0  0
 14 19  1  0  0  0  0
 15 16  1  0  0  0  0
 15 17  1  0  0  0  0
 16 11  1  0  0  0  0
 18 10  1  0  0  0  0
 18 16  2  0  0  0  0
 19 20  1  6  0  0  0
 19 17  1  0  0  0  0
 21 20  2  0  0  0  0
 22 25  1  0  0  0  0
 23 32  1  0  0  0  0
 24 37  1  0  0  0  0
 25 39  1  0  0  0  0
 26 27  1  0  0  0  0
 27 23  2  0  0  0  0
 28 30  1  0  0  0  0
 29 36  1  0  0  0  0
 30 37  2  0  0  0  0
 30 33  1  0  0  0  0
 31 28  1  0  0  0  0
 31 24  2  0  0  0  0
 32 33  2  0  0  0  0
 34 26  1  0  0  0  0
 35 29  1  0  0  0  0
 35 26  2  0  0  0  0
 36 28  2  0  0  0  0
 36 23  1  0  0  0  0
 39 38  2  0  0  0  0
 39 29  1  0  0  0  0
M  END
>  <MODEL>
2

>  <REMARK>
 VINA RESULT:     -10.2      2.105      3.900
  Name = 
  7 active torsions:
  status: ('A' for Active; 'I' for Inactive)
    1  A    between atoms: C_3  and  C_13
    2  A    between atoms: C_3  and  C_17
    3  A    between atoms: C_4  and  C_35
    4  A    between atoms: C_8  and  C_17
    5  A    between atoms: C_8  and  C_23
    6  A    between atoms: N_10  and  C_14
    7  A    between atoms: C_14  and  C_23
                            x       y       z     vdW  Elec       q    Type
                         _______ _______ _______ _____ _____    ______ ____

>  <TORSDO>
F 7

$$$$
=
 OpenBabel10222419353D

 39 44  0  0  1  0  0  0  0  0999 V2000
  188.1020  179.0790  141.1500 N   0  0  0  0  0  1  0  0  0  0  0  0
  188.4970  177.9240  140.3620 C   0  0  1  0  0  3  0  0  0  0  0  0
  189.0450  178.3830  139.0150 C   0  0  0  0  0  2  0  0  0  0  0  0
  187.9540  178.7420  136.9640 F   0  0  0  0  0  0  0  0  0  0  0  0
  188.3450  177.7310  137.8210 C   0  0  0  0  0  0  0  0  0  0  0  0
  187.2080  177.0550  138.2350 F   0  0  0  0  0  0  0  0  0  0  0  0
  189.2890  176.8080  137.0500 C   0  0  0  0  0  2  0  0  0  0  0  0
  192.0980  176.6530  138.5280 N   0  0  0  0  0  0  0  0  0  0  0  0
  193.4570  176.4540  138.5300 C   0  0  0  0  0  3  0  0  0  0  0  0
  189.8090  175.6430  137.8870 C   0  0  1  0  0  3  0  0  0  0  0  0
  190.6930  173.7750  137.0130 N   0  0  0  0  0  2  0  0  0  0  0  0
  189.4930  174.3990  137.2430 O   0  0  0  0  0  0  0  0  0  0  0  0
  193.9650  175.2670  137.9690 C   0  0  0  0  0  0  0  0  0  0  0  0
  195.3190  174.8800  137.8890 N   0  0  0  0  0  2  0  0  0  0  0  0
  193.1280  174.3250  137.4350 C   0  0  0  0  0  0  0  0  0  0  0  0
  191.7630  174.5690  137.4480 C   0  0  0  0  0  0  0  0  0  0  0  0
  193.8970  173.1660  136.9270 C   0  0  0  0  0  2  0  0  0  0  0  0
  191.2850  175.7040  137.9740 C   0  0  0  0  0  0  0  0  0  0  0  0
  195.3590  173.5580  137.2520 C   0  0  1  0  0  3  0  0  0  0  0  0
  196.1560  173.6180  135.9900 C   0  0  0  0  0  3  0  0  0  0  0  0
  197.0050  174.6190  135.7720 C   0  0  0  0  0  2  0  0  0  0  0  0
  189.5080  177.0800  141.1380 C   0  0  0  0  0  2  0  0  0  0  0  0
  187.7390  177.8920  147.0000 C   0  0  0  0  0  0  0  0  0  0  0  0
  184.6040  178.6670  143.8040 C   0  0  0  0  0  3  0  0  0  0  0  0
  189.5050  177.4080  142.5590 N   0  0  0  0  0  2  0  0  0  0  0  0
  190.0040  177.0960  146.8470 C   0  0  0  0  0  0  0  0  0  0  0  0
  188.9510  177.5840  147.6130 C   0  0  0  0  0  3  0  0  0  0  0  0
  186.3570  178.1090  145.0520 C   0  0  0  0  0  0  0  0  0  0  0  0
  188.6410  177.1820  144.8690 N   0  0  0  0  0  0  0  0  0  0  0  0
  185.3740  178.6090  145.8560 C   0  0  0  0  0  0  0  0  0  0  0  0
  185.8960  178.1470  143.7530 C   0  0  0  0  0  3  0  0  0  0  0  0
  186.7100  178.3960  147.7460 N   0  0  0  0  0  0  0  0  0  0  0  0
  185.5460  178.7460  147.1910 N   0  0  0  0  0  0  0  0  0  0  0  0
  191.3050  176.7720  147.4880 C   0  0  0  0  0  1  0  0  0  0  0  0
  189.8270  176.8980  145.4780 C   0  0  0  0  0  3  0  0  0  0  0  0
  187.5920  177.7020  145.5990 C   0  0  0  0  0  0  0  0  0  0  0  0
  184.2700  178.9610  145.1220 C   0  0  0  0  0  3  0  0  0  0  0  0
  187.6740  176.0520  143.0690 O   0  0  0  0  0  0  0  0  0  0  0  0
  188.5540  176.8590  143.4750 C   0  0  0  0  0  0  0  0  0  0  0  0
  2 22  1  0  0  0  0
  2  1  1  1  0  0  0
  3  2  1  0  0  0  0
  4  5  1  0  0  0  0
  5  6  1  0  0  0  0
  5  3  1  0  0  0  0
  7  5  1  0  0  0  0
  8  9  1  0  0  0  0
 10  7  1  6  0  0  0
 10 18  1  0  0  0  0
 11 12  1  0  0  0  0
 11 16  1  0  0  0  0
 12 10  1  0  0  0  0
 13  9  2  0  0  0  0
 14 13  1  0  0  0  0
 15 16  2  0  0  0  0
 15 13  1  0  0  0  0
 16 18  1  0  0  0  0
 17 19  1  0  0  0  0
 17 15  1  0  0  0  0
 18  8  2  0  0  0  0
 19 20  1  6  0  0  0
 19 14  1  0  0  0  0
 21 20  2  0  0  0  0
 22 25  1  0  0  0  0
 23 27  2  0  0  0  0
 23 32  1  0  0  0  0
 24 37  1  0  0  0  0
 25 39  1  0  0  0  0
 26 34  1  0  0  0  0
 26 27  1  0  0  0  0
 28 36  2  0  0  0  0
 28 30  1  0  0  0  0
 29 35  1  0  0  0  0
 29 36  1  0  0  0  0
 30 33  1  0  0  0  0
 31 24  2  0  0  0  0
 31 28  1  0  0  0  0
 33 32  2  0  0  0  0
 35 26  2  0  0  0  0
 36 23  1  0  0  0  0
 37 30  2  0  0  0  0
 38 39  2  0  0  0  0
 39 29  1  0  0  0  0
M  END
>  <MODEL>
3

>  <REMARK>
 VINA RESULT:      -9.9      3.563      6.582
  Name = 
  7 active torsions:
  status: ('A' for Active; 'I' for Inactive)
    1  A    between atoms: C_3  and  C_13
    2  A    between atoms: C_3  and  C_17
    3  A    between atoms: C_4  and  C_35
    4  A    between atoms: C_8  and  C_17
    5  A    between atoms: C_8  and  C_23
    6  A    between atoms: N_10  and  C_14
    7  A    between atoms: C_14  and  C_23
                            x       y       z     vdW  Elec       q    Type
                         _______ _______ _______ _____ _____    ______ ____

>  <TORSDO>
F 7

$$$$
=
 OpenBabel10222419353D

 39 44  0  0  1  0  0  0  0  0999 V2000
  189.0660  178.9990  139.2190 N   0  0  0  0  0  1  0  0  0  0  0  0
  188.9570  177.5510  139.2660 C   0  0  1  0  0  3  0  0  0  0  0  0
  189.5590  176.9490  138.0010 C   0  0  0  0  0  2  0  0  0  0  0  0
  188.9630  175.8300  136.0210 F   0  0  0  0  0  0  0  0  0  0  0  0
  188.5730  176.8770  136.8330 C   0  0  0  0  0  0  0  0  0  0  0  0
  188.6210  178.0420  136.0840 F   0  0  0  0  0  0  0  0  0  0  0  0
  187.1510  176.5860  137.3150 C   0  0  0  0  0  2  0  0  0  0  0  0
  185.7070  178.6590  139.2410 N   0  0  0  0  0  0  0  0  0  0  0  0
  184.7450  178.9900  140.1640 C   0  0  0  0  0  3  0  0  0  0  0  0
  186.1440  177.6550  136.9030 C   0  0  1  0  0  3  0  0  0  0  0  0
  183.9770  177.2390  136.4960 N   0  0  0  0  0  2  0  0  0  0  0  0
  185.2260  177.1160  135.9390 O   0  0  0  0  0  0  0  0  0  0  0  0
  183.3990  178.7070  139.8650 C   0  0  0  0  0  0  0  0  0  0  0  0
  182.2760  178.9800  140.6740 N   0  0  0  0  0  2  0  0  0  0  0  0
  183.0480  178.1210  138.6800 C   0  0  0  0  0  0  0  0  0  0  0  0
  184.0520  177.7990  137.7780 C   0  0  0  0  0  0  0  0  0  0  0  0
  181.5800  177.9450  138.5940 C   0  0  0  0  0  2  0  0  0  0  0  0
  185.3320  178.0610  138.0720 C   0  0  0  0  0  0  0  0  0  0  0  0
  181.0870  178.5370  139.9370 C   0  0  1  0  0  3  0  0  0  0  0  0
  180.3620  177.4860  140.7120 C   0  0  0  0  0  3  0  0  0  0  0  0
  179.3300  177.8080  141.4880 C   0  0  0  0  0  2  0  0  0  0  0  0
  189.6230  177.0150  140.5330 C   0  0  0  0  0  2  0  0  0  0  0  0
  187.2110  177.7300  146.1740 C   0  0  0  0  0  0  0  0  0  0  0  0
  191.6130  176.6220  145.9690 C   0  0  0  0  0  3  0  0  0  0  0  0
  188.7030  177.0130  141.6640 N   0  0  0  0  0  2  0  0  0  0  0  0
  185.6100  178.2120  144.4450 C   0  0  0  0  0  0  0  0  0  0  0  0
  185.9060  178.0280  145.7910 C   0  0  0  0  0  3  0  0  0  0  0  0
  189.5010  177.2420  145.6550 C   0  0  0  0  0  0  0  0  0  0  0  0
  187.9120  177.8430  143.8600 N   0  0  0  0  0  0  0  0  0  0  0  0
  189.7180  177.0480  146.9880 C   0  0  0  0  0  0  0  0  0  0  0  0
  190.6800  176.9690  144.9940 C   0  0  0  0  0  3  0  0  0  0  0  0
  187.5010  177.5240  147.4940 N   0  0  0  0  0  0  0  0  0  0  0  0
  188.7300  177.1920  147.9010 N   0  0  0  0  0  0  0  0  0  0  0  0
  184.2190  178.5220  144.0230 C   0  0  0  0  0  1  0  0  0  0  0  0
  186.6280  178.1190  143.4960 C   0  0  0  0  0  3  0  0  0  0  0  0
  188.2260  177.6190  145.1850 C   0  0  0  0  0  0  0  0  0  0  0  0
  191.0150  176.6680  147.2250 C   0  0  0  0  0  3  0  0  0  0  0  0
  189.8640  178.6470  142.8630 O   0  0  0  0  0  0  0  0  0  0  0  0
  188.8840  177.8560  142.8060 C   0  0  0  0  0  0  0  0  0  0  0  0
  2  1  1  6  0  0  0
  2 22  1  0  0  0  0
  3  2  1  0  0  0  0
  4  5  1  0  0  0  0
  5  7  1  0  0  0  0
  5  3  1  0  0  0  0
  6  5  1  0  0  0  0
  8  9  1  0  0  0  0
 10  7  1  1  0  0  0
 10 18  1  0  0  0  0
 11 16  1  0  0  0  0
 12 11  1  0  0  0  0
 12 10  1  0  0  0  0
 13  9  2  0  0  0  0
 13 14  1  0  0  0  0
 15 13  1  0  0  0  0
 16 18  1  0  0  0  0
 16 15  2  0  0  0  0
 17 15  1  0  0  0  0
 17 19  1  0  0  0  0
 18  8  2  0  0  0  0
 19 14  1  0  0  0  0
 19 20  1  1  0  0  0
 20 21  2  0  0  0  0
 22 25  1  0  0  0  0
 23 32  1  0  0  0  0
 24 37  1  0  0  0  0
 25 39  1  0  0  0  0
 26 27  1  0  0  0  0
 27 23  2  0  0  0  0
 28 30  1  0  0  0  0
 29 36  1  0  0  0  0
 30 37  2  0  0  0  0
 30 33  1  0  0  0  0
 31 28  1  0  0  0  0
 31 24  2  0  0  0  0
 32 33  2  0  0  0  0
 34 26  1  0  0  0  0
 35 29  1  0  0  0  0
 35 26  2  0  0  0  0
 36 28  2  0  0  0  0
 36 23  1  0  0  0  0
 39 38  2  0  0  0  0
 39 29  1  0  0  0  0
M  END
>  <MODEL>
4

>  <REMARK>
 VINA RESULT:      -9.8      1.599      3.301
  Name = 
  7 active torsions:
  status: ('A' for Active; 'I' for Inactive)
    1  A    between atoms: C_3  and  C_13
    2  A    between atoms: C_3  and  C_17
    3  A    between atoms: C_4  and  C_35
    4  A    between atoms: C_8  and  C_17
    5  A    between atoms: C_8  and  C_23
    6  A    between atoms: N_10  and  C_14
    7  A    between atoms: C_14  and  C_23
                            x       y       z     vdW  Elec       q    Type
                         _______ _______ _______ _____ _____    ______ ____

>  <TORSDO>
F 7

$$$$
=
 OpenBabel10222419353D

 39 44  0  0  1  0  0  0  0  0999 V2000
  188.2200  178.9630  140.9520 N   0  0  0  0  0  1  0  0  0  0  0  0
  189.0010  177.8050  140.5520 C   0  0  1  0  0  3  0  0  0  0  0  0
  189.8300  178.1460  139.3190 C   0  0  0  0  0  2  0  0  0  0  0  0
  190.1540  177.5490  137.0680 F   0  0  0  0  0  0  0  0  0  0  0  0
  189.9230  176.9970  138.3130 C   0  0  0  0  0  0  0  0  0  0  0  0
  188.7260  176.3010  138.2580 F   0  0  0  0  0  0  0  0  0  0  0  0
  191.0930  176.0630  138.6310 C   0  0  0  0  0  2  0  0  0  0  0  0
  192.0130  174.6460  135.9400 N   0  0  0  0  0  0  0  0  0  0  0  0
  192.5820  173.6020  135.2530 C   0  0  0  0  0  3  0  0  0  0  0  0
  192.3500  176.3760  137.8270 C   0  0  1  0  0  3  0  0  0  0  0  0
  194.3970  175.6320  138.3680 N   0  0  0  0  0  2  0  0  0  0  0  0
  193.4610  176.5750  138.7150 O   0  0  0  0  0  0  0  0  0  0  0  0
  193.8670  173.1680  135.6310 C   0  0  0  0  0  0  0  0  0  0  0  0
  194.6160  172.1270  135.0440 N   0  0  0  0  0  2  0  0  0  0  0  0
  194.5430  173.7730  136.6550 C   0  0  0  0  0  0  0  0  0  0  0  0
  193.9280  174.8200  137.3260 C   0  0  0  0  0  0  0  0  0  0  0  0
  195.8740  173.1520  136.8470 C   0  0  0  0  0  2  0  0  0  0  0  0
  192.7020  175.2230  136.9690 C   0  0  0  0  0  0  0  0  0  0  0  0
  195.9010  172.0610  135.7490 C   0  0  1  0  0  3  0  0  0  0  0  0
  196.0730  170.7180  136.3810 C   0  0  0  0  0  3  0  0  0  0  0  0
  195.6790  170.5020  137.6330 C   0  0  0  0  0  2  0  0  0  0  0  0
  189.8680  177.3280  141.7170 C   0  0  0  0  0  2  0  0  0  0  0  0
  186.1210  178.4220  146.5030 C   0  0  0  0  0  0  0  0  0  0  0  0
  184.2130  178.4450  142.3800 C   0  0  0  0  0  3  0  0  0  0  0  0
  189.3450  177.7840  142.9990 N   0  0  0  0  0  2  0  0  0  0  0  0
  188.3690  177.9450  147.2130 C   0  0  0  0  0  0  0  0  0  0  0  0
  187.0730  178.3480  147.5160 C   0  0  0  0  0  3  0  0  0  0  0  0
  185.4780  178.2600  144.1990 C   0  0  0  0  0  0  0  0  0  0  0  0
  187.7670  177.6530  144.9040 N   0  0  0  0  0  0  0  0  0  0  0  0
  184.2330  178.6870  144.5590 C   0  0  0  0  0  0  0  0  0  0  0  0
  185.4900  178.1110  142.8280 C   0  0  0  0  0  3  0  0  0  0  0  0
  184.8530  178.8430  146.7930 N   0  0  0  0  0  0  0  0  0  0  0  0
  183.9200  178.9710  145.8440 N   0  0  0  0  0  0  0  0  0  0  0  0
  189.3970  177.8700  148.2840 C   0  0  0  0  0  1  0  0  0  0  0  0
  188.6940  177.5980  145.9020 C   0  0  0  0  0  3  0  0  0  0  0  0
  186.4840  178.0840  145.1710 C   0  0  0  0  0  0  0  0  0  0  0  0
  183.4180  178.8100  143.4620 C   0  0  0  0  0  3  0  0  0  0  0  0
  187.5980  176.2350  143.0570 O   0  0  0  0  0  0  0  0  0  0  0  0
  188.1980  177.1920  143.6160 C   0  0  0  0  0  0  0  0  0  0  0  0
  2  1  1  1  0  0  0
  2 22  1  0  0  0  0
  3  2  1  0  0  0  0
  4  5  1  0  0  0  0
  5  7  1  0  0  0  0
  5  3  1  0  0  0  0
  6  5  1  0  0  0  0
  8 18  1  0  0  0  0
  9 13  1  0  0  0  0
  9  8  2  0  0  0  0
 10  7  1  1  0  0  0
 10 12  1  0  0  0  0
 11 12  1  0  0  0  0
 13 15  2  0  0  0  0
 14 13  1  0  0  0  0
 14 19  1  0  0  0  0
 15 17  1  0  0  0  0
 15 16  1  0  0  0  0
 16 11  1  0  0  0  0
 18 16  2  0  0  0  0
 18 10  1  0  0  0  0
 19 20  1  1  0  0  0
 19 17  1  0  0  0  0
 20 21  2  0  0  0  0
 22 25  1  0  0  0  0
 23 32  1  0  0  0  0
 23 27  2  0  0  0  0
 24 31  2  0  0  0  0
 24 37  1  0  0  0  0
 25 39  1  0  0  0  0
 26 27  1  0  0  0  0
 26 34  1  0  0  0  0
 28 30  1  0  0  0  0
 28 36  2  0  0  0  0
 29 36  1  0  0  0  0
 29 35  1  0  0  0  0
 30 33  1  0  0  0  0
 31 28  1  0  0  0  0
 33 32  2  0  0  0  0
 35 26  2  0  0  0  0
 36 23  1  0  0  0  0
 37 30  2  0  0  0  0
 38 39  2  0  0  0  0
 39 29  1  0  0  0  0
M  END
>  <MODEL>
5

>  <REMARK>
 VINA RESULT:      -9.5      4.447      7.207
  Name = 
  7 active torsions:
  status: ('A' for Active; 'I' for Inactive)
    1  A    between atoms: C_3  and  C_13
    2  A    between atoms: C_3  and  C_17
    3  A    between atoms: C_4  and  C_35
    4  A    between atoms: C_8  and  C_17
    5  A    between atoms: C_8  and  C_23
    6  A    between atoms: N_10  and  C_14
    7  A    between atoms: C_14  and  C_23
                            x       y       z     vdW  Elec       q    Type
                         _______ _______ _______ _____ _____    ______ ____

>  <TORSDO>
F 7

$$$$
=
 OpenBabel10222419353D

 39 44  0  0  1  0  0  0  0  0999 V2000
  187.2830  178.6270  139.9150 N   0  0  0  0  0  1  0  0  0  0  0  0
  188.2280  177.6130  139.4790 C   0  0  1  0  0  3  0  0  0  0  0  0
  189.0930  178.1670  138.3530 C   0  0  0  0  0  2  0  0  0  0  0  0
  188.5890  178.6860  136.1160 F   0  0  0  0  0  0  0  0  0  0  0  0
  188.7250  177.6130  136.9750 C   0  0  0  0  0  0  0  0  0  0  0  0
  187.5100  176.9480  137.0280 F   0  0  0  0  0  0  0  0  0  0  0  0
  189.8270  176.7090  136.4180 C   0  0  0  0  0  2  0  0  0  0  0  0
  192.2680  176.5940  138.4480 N   0  0  0  0  0  0  0  0  0  0  0  0
  193.6000  176.4180  138.7340 C   0  0  0  0  0  3  0  0  0  0  0  0
  190.1810  175.5500  137.3430 C   0  0  1  0  0  3  0  0  0  0  0  0
  191.2590  173.7000  136.6720 N   0  0  0  0  0  2  0  0  0  0  0  0
  190.0260  174.3040  136.6470 O   0  0  0  0  0  0  0  0  0  0  0  0
  194.2340  175.2420  138.2890 C   0  0  0  0  0  0  0  0  0  0  0  0
  195.5810  174.8770  138.4930 N   0  0  0  0  0  2  0  0  0  0  0  0
  193.5430  174.2890  137.5920 C   0  0  0  0  0  0  0  0  0  0  0  0
  192.2010  174.5100  137.3200 C   0  0  0  0  0  0  0  0  0  0  0  0
  194.4210  173.1450  137.2540 C   0  0  0  0  0  2  0  0  0  0  0  0
  191.6050  175.6350  137.7370 C   0  0  0  0  0  0  0  0  0  0  0  0
  195.7760  173.5590  137.8780 C   0  0  1  0  0  3  0  0  0  0  0  0
  196.8170  173.6390  136.8090 C   0  0  0  0  0  3  0  0  0  0  0  0
  197.6080  174.7040  136.7110 C   0  0  0  0  0  2  0  0  0  0  0  0
  189.0640  177.1300  140.6650 C   0  0  0  0  0  2  0  0  0  0  0  0
  187.4070  177.7130  146.5870 C   0  0  0  0  0  0  0  0  0  0  0  0
  191.6800  176.3880  145.7900 C   0  0  0  0  0  3  0  0  0  0  0  0
  188.2910  177.1240  141.9010 N   0  0  0  0  0  2  0  0  0  0  0  0
  185.6360  178.3550  145.0910 C   0  0  0  0  0  0  0  0  0  0  0  0
  186.0840  178.0950  146.3810 C   0  0  0  0  0  3  0  0  0  0  0  0
  189.5850  177.1310  145.7670 C   0  0  0  0  0  0  0  0  0  0  0  0
  187.8240  177.8930  144.2090 N   0  0  0  0  0  0  0  0  0  0  0  0
  189.9530  176.8650  147.0540 C   0  0  0  0  0  0  0  0  0  0  0  0
  190.6560  176.8270  144.9530 C   0  0  0  0  0  3  0  0  0  0  0  0
  187.8440  177.4320  147.8500 N   0  0  0  0  0  0  0  0  0  0  0  0
  189.0930  177.0190  148.0880 N   0  0  0  0  0  0  0  0  0  0  0  0
  184.2240  178.7540  144.8580 C   0  0  0  0  0  1  0  0  0  0  0  0
  186.5230  178.2520  144.0190 C   0  0  0  0  0  3  0  0  0  0  0  0
  188.2850  177.5940  145.4750 C   0  0  0  0  0  0  0  0  0  0  0  0
  191.2450  176.4080  147.1120 C   0  0  0  0  0  3  0  0  0  0  0  0
  189.6820  178.6390  143.0070 O   0  0  0  0  0  0  0  0  0  0  0  0
  188.6590  177.9040  143.0430 C   0  0  0  0  0  0  0  0  0  0  0  0
  2  1  1  1  0  0  0
  2 22  1  0  0  0  0
  3  2  1  0  0  0  0
  4  5  1  0  0  0  0
  5  6  1  0  0  0  0
  5  3  1  0  0  0  0
  7  5  1  0  0  0  0
  8  9  1  0  0  0  0
 10  7  1  6  0  0  0
 10 18  1  0  0  0  0
 11 16  1  0  0  0  0
 12 11  1  0  0  0  0
 12 10  1  0  0  0  0
 13 14  1  0  0  0  0
 13  9  2  0  0  0  0
 15 13  1  0  0  0  0
 16 15  2  0  0  0  0
 16 18  1  0  0  0  0
 17 15  1  0  0  0  0
 17 19  1  0  0  0  0
 18  8  2  0  0  0  0
 19 20  1  6  0  0  0
 19 14  1  0  0  0  0
 21 20  2  0  0  0  0
 22 25  1  0  0  0  0
 23 32  1  0  0  0  0
 24 37  1  0  0  0  0
 25 39  1  0  0  0  0
 26 27  1  0  0  0  0
 27 23  2  0  0  0  0
 28 30  1  0  0  0  0
 29 36  1  0  0  0  0
 30 37  2  0  0  0  0
 30 33  1  0  0  0  0
 31 28  1  0  0  0  0
 31 24  2  0  0  0  0
 32 33  2  0  0  0  0
 34 26  1  0  0  0  0
 35 29  1  0  0  0  0
 35 26  2  0  0  0  0
 36 28  2  0  0  0  0
 36 23  1  0  0  0  0
 38 39  2  0  0  0  0
 39 29  1  0  0  0  0
M  END
>  <MODEL>
6

>  <REMARK>
 VINA RESULT:      -9.3      3.846      7.388
  Name = 
  7 active torsions:
  status: ('A' for Active; 'I' for Inactive)
    1  A    between atoms: C_3  and  C_13
    2  A    between atoms: C_3  and  C_17
    3  A    between atoms: C_4  and  C_35
    4  A    between atoms: C_8  and  C_17
    5  A    between atoms: C_8  and  C_23
    6  A    between atoms: N_10  and  C_14
    7  A    between atoms: C_14  and  C_23
                            x       y       z     vdW  Elec       q    Type
                         _______ _______ _______ _____ _____    ______ ____

>  <TORSDO>
F 7

$$$$
=
 OpenBabel10222419353D

 39 44  0  0  1  0  0  0  0  0999 V2000
  191.8540  177.5050  141.4510 N   0  0  0  0  0  1  0  0  0  0  0  0
  190.7210  177.4860  140.5410 C   0  0  1  0  0  3  0  0  0  0  0  0
  191.0590  176.6420  139.3170 C   0  0  0  0  0  2  0  0  0  0  0  0
  189.2790  175.9260  137.9580 F   0  0  0  0  0  0  0  0  0  0  0  0
  190.1850  176.9590  138.1010 C   0  0  0  0  0  0  0  0  0  0  0  0
  190.9560  177.0150  136.9510 F   0  0  0  0  0  0  0  0  0  0  0  0
  189.3910  178.2510  138.2990 C   0  0  0  0  0  2  0  0  0  0  0  0
  186.2390  178.6490  138.2740 N   0  0  0  0  0  0  0  0  0  0  0  0
  184.9550  178.1600  138.2540 C   0  0  0  0  0  3  0  0  0  0  0  0
  188.5350  178.6230  137.0930 C   0  0  1  0  0  3  0  0  0  0  0  0
  187.8930  177.1600  135.5180 N   0  0  0  0  0  2  0  0  0  0  0  0
  188.9750  177.8930  135.9370 O   0  0  0  0  0  0  0  0  0  0  0  0
  184.6000  177.2420  137.2480 C   0  0  0  0  0  0  0  0  0  0  0  0
  183.3380  176.6430  137.0560 N   0  0  0  0  0  2  0  0  0  0  0  0
  185.5060  176.8450  136.3030 C   0  0  0  0  0  0  0  0  0  0  0  0
  186.7930  177.3590  136.3640 C   0  0  0  0  0  0  0  0  0  0  0  0
  184.8900  175.8950  135.3490 C   0  0  0  0  0  2  0  0  0  0  0  0
  187.1300  178.2240  137.3290 C   0  0  0  0  0  0  0  0  0  0  0  0
  183.4360  175.7850  135.8690 C   0  0  1  0  0  3  0  0  0  0  0  0
  183.1390  174.3670  136.2330 C   0  0  0  0  0  3  0  0  0  0  0  0
  182.2860  174.0830  137.2140 C   0  0  0  0  0  2  0  0  0  0  0  0
  189.4750  176.9770  141.2650 C   0  0  0  0  0  2  0  0  0  0  0  0
  187.7910  177.9000  147.1360 C   0  0  0  0  0  0  0  0  0  0  0  0
  184.6250  178.6640  143.9680 C   0  0  0  0  0  3  0  0  0  0  0  0
  189.4940  177.3270  142.6810 N   0  0  0  0  0  2  0  0  0  0  0  0
  190.0440  177.0740  146.9660 C   0  0  0  0  0  0  0  0  0  0  0  0
  189.0070  177.5870  147.7380 C   0  0  0  0  0  3  0  0  0  0  0  0
  186.3870  178.1040  145.2020 C   0  0  0  0  0  0  0  0  0  0  0  0
  188.6570  177.1470  145.0050 N   0  0  0  0  0  0  0  0  0  0  0  0
  185.4200  178.6270  146.0110 C   0  0  0  0  0  0  0  0  0  0  0  0
  185.9100  178.1280  143.9090 C   0  0  0  0  0  3  0  0  0  0  0  0
  186.7780  178.4270  147.8860 N   0  0  0  0  0  0  0  0  0  0  0  0
  185.6110  178.7830  147.3420 N   0  0  0  0  0  0  0  0  0  0  0  0
  191.3490  176.7450  147.5950 C   0  0  0  0  0  1  0  0  0  0  0  0
  189.8470  176.8580  145.6030 C   0  0  0  0  0  3  0  0  0  0  0  0
  187.6230  177.6900  145.7400 C   0  0  0  0  0  0  0  0  0  0  0  0
  184.3110  178.9820  145.2860 C   0  0  0  0  0  3  0  0  0  0  0  0
  187.6540  176.0010  143.2350 O   0  0  0  0  0  0  0  0  0  0  0  0
  188.5480  176.8030  143.6170 C   0  0  0  0  0  0  0  0  0  0  0  0
  2 22  1  0  0  0  0
  2  1  1  1  0  0  0
  3  2  1  0  0  0  0
  4  5  1  0  0  0  0
  5  7  1  0  0  0  0
  5  3  1  0  0  0  0
  6  5  1  0  0  0  0
  9  8  1  0  0  0  0
 10 18  1  0  0  0  0
 10  7  1  1  0  0  0
 11 12  1  0  0  0  0
 11 16  1  0  0  0  0
 12 10  1  0  0  0  0
 13  9  2  0  0  0  0
 14 13  1  0  0  0  0
 15 16  2  0  0  0  0
 15 13  1  0  0  0  0
 16 18  1  0  0  0  0
 17 19  1  0  0  0  0
 17 15  1  0  0  0  0
 18  8  2  0  0  0  0
 19 20  1  1  0  0  0
 19 14  1  0  0  0  0
 20 21  2  0  0  0  0
 22 25  1  0  0  0  0
 23 27  2  0  0  0  0
 23 32  1  0  0  0  0
 24 37  1  0  0  0  0
 25 39  1  0  0  0  0
 26 34  1  0  0  0  0
 26 27  1  0  0  0  0
 28 36  2  0  0  0  0
 28 30  1  0  0  0  0
 29 35  1  0  0  0  0
 29 36  1  0  0  0  0
 30 33  1  0  0  0  0
 31 24  2  0  0  0  0
 31 28  1  0  0  0  0
 33 32  2  0  0  0  0
 35 26  2  0  0  0  0
 36 23  1  0  0  0  0
 37 30  2  0  0  0  0
 38 39  2  0  0  0  0
 39 29  1  0  0  0  0
M  END
>  <MODEL>
7

>  <REMARK>
 VINA RESULT:      -9.3      1.839      2.333
  Name = 
  7 active torsions:
  status: ('A' for Active; 'I' for Inactive)
    1  A    between atoms: C_3  and  C_13
    2  A    between atoms: C_3  and  C_17
    3  A    between atoms: C_4  and  C_35
    4  A    between atoms: C_8  and  C_17
    5  A    between atoms: C_8  and  C_23
    6  A    between atoms: N_10  and  C_14
    7  A    between atoms: C_14  and  C_23
                            x       y       z     vdW  Elec       q    Type
                         _______ _______ _______ _____ _____    ______ ____

>  <TORSDO>
F 7

$$$$
=
 OpenBabel10222419353D

 39 44  0  0  1  0  0  0  0  0999 V2000
  189.7170  177.6090  137.3240 N   0  0  0  0  0  1  0  0  0  0  0  0
  188.7880  177.7770  138.4280 C   0  0  1  0  0  3  0  0  0  0  0  0
  187.4830  177.0510  138.1160 C   0  0  0  0  0  2  0  0  0  0  0  0
  185.7440  177.2220  136.5430 F   0  0  0  0  0  0  0  0  0  0  0  0
  186.4160  177.9590  137.4990 C   0  0  0  0  0  0  0  0  0  0  0  0
  187.0070  179.0430  136.8700 F   0  0  0  0  0  0  0  0  0  0  0  0
  185.3920  178.4120  138.5410 C   0  0  0  0  0  2  0  0  0  0  0  0
  182.6450  180.0070  138.4870 N   0  0  0  0  0  0  0  0  0  0  0  0
  181.5970  180.6390  139.1110 C   0  0  0  0  0  3  0  0  0  0  0  0
  184.0040  177.8190  138.3200 C   0  0  1  0  0  3  0  0  0  0  0  0
  182.8260  176.7720  139.9170 N   0  0  0  0  0  2  0  0  0  0  0  0
  183.8760  176.5900  139.0530 O   0  0  0  0  0  0  0  0  0  0  0  0
  180.8890  179.9420  140.1090 C   0  0  0  0  0  0  0  0  0  0  0  0
  179.7850  180.4140  140.8490 N   0  0  0  0  0  2  0  0  0  0  0  0
  181.2270  178.6620  140.4490 C   0  0  0  0  0  0  0  0  0  0  0  0
  182.2960  178.0640  139.7980 C   0  0  0  0  0  0  0  0  0  0  0  0
  180.3270  178.1430  141.5050 C   0  0  0  0  0  2  0  0  0  0  0  0
  182.9730  178.7340  138.8570 C   0  0  0  0  0  0  0  0  0  0  0  0
  179.3650  179.3310  141.7460 C   0  0  1  0  0  3  0  0  0  0  0  0
  179.4620  179.7750  143.1700 C   0  0  0  0  0  3  0  0  0  0  0  0
  179.3200  178.9010  144.1630 C   0  0  0  0  0  2  0  0  0  0  0  0
  189.4230  177.2870  139.7290 C   0  0  0  0  0  2  0  0  0  0  0  0
  186.7730  177.8440  145.2800 C   0  0  0  0  0  0  0  0  0  0  0  0
  191.1870  176.7680  145.2330 C   0  0  0  0  0  3  0  0  0  0  0  0
  188.4570  177.2500  140.8200 N   0  0  0  0  0  2  0  0  0  0  0  0
  185.2420  178.3600  143.4980 C   0  0  0  0  0  0  0  0  0  0  0  0
  185.4830  178.1440  144.8500 C   0  0  0  0  0  3  0  0  0  0  0  0
  189.0860  177.3830  144.8460 C   0  0  0  0  0  0  0  0  0  0  0  0
  187.5690  178.0190  143.0010 N   0  0  0  0  0  0  0  0  0  0  0  0
  189.2490  177.1570  146.1810 C   0  0  0  0  0  0  0  0  0  0  0  0
  190.2930  177.1340  144.2280 C   0  0  0  0  0  3  0  0  0  0  0  0
  187.0090  177.6060  146.6050 N   0  0  0  0  0  0  0  0  0  0  0  0
  188.2220  177.2720  147.0550 N   0  0  0  0  0  0  0  0  0  0  0  0
  183.8690  178.6720  143.0250 C   0  0  0  0  0  1  0  0  0  0  0  0
  186.2990  178.2980  142.5910 C   0  0  0  0  0  3  0  0  0  0  0  0
  187.8290  177.7650  144.3320 C   0  0  0  0  0  0  0  0  0  0  0  0
  190.5370  176.7780  146.4630 C   0  0  0  0  0  3  0  0  0  0  0  0
  189.5560  178.8600  142.1070 O   0  0  0  0  0  0  0  0  0  0  0  0
  188.5840  178.0650  141.9890 C   0  0  0  0  0  0  0  0  0  0  0  0
  2  1  1  6  0  0  0
  2 22  1  0  0  0  0
  3  2  1  0  0  0  0
  4  5  1  0  0  0  0
  5  3  1  0  0  0  0
  5  7  1  0  0  0  0
  6  5  1  0  0  0  0
  8 18  2  0  0  0  0
  8  9  1  0  0  0  0
  9 13  2  0  0  0  0
 10  7  1  1  0  0  0
 10 18  1  0  0  0  0
 10 12  1  0  0  0  0
 12 11  1  0  0  0  0
 13 15  1  0  0  0  0
 13 14  1  0  0  0  0
 14 19  1  0  0  0  0
 15 17  1  0  0  0  0
 16 11  1  0  0  0  0
 16 15  2  0  0  0  0
 17 19  1  0  0  0  0
 18 16  1  0  0  0  0
 19 20  1  1  0  0  0
 20 21  2  0  0  0  0
 22 25  1  0  0  0  0
 23 32  1  0  0  0  0
 24 37  1  0  0  0  0
 25 39  1  0  0  0  0
 26 27  1  0  0  0  0
 27 23  2  0  0  0  0
 28 30  1  0  0  0  0
 29 36  1  0  0  0  0
 30 37  2  0  0  0  0
 30 33  1  0  0  0  0
 31 28  1  0  0  0  0
 31 24  2  0  0  0  0
 32 33  2  0  0  0  0
 34 26  1  0  0  0  0
 35 29  1  0  0  0  0
 35 26  2  0  0  0  0
 36 28  2  0  0  0  0
 36 23  1  0  0  0  0
 39 38  2  0  0  0  0
 39 29  1  0  0  0  0
M  END
>  <MODEL>
8

>  <REMARK>
 VINA RESULT:      -9.0      2.150      4.062
  Name = 
  7 active torsions:
  status: ('A' for Active; 'I' for Inactive)
    1  A    between atoms: C_3  and  C_13
    2  A    between atoms: C_3  and  C_17
    3  A    between atoms: C_4  and  C_35
    4  A    between atoms: C_8  and  C_17
    5  A    between atoms: C_8  and  C_23
    6  A    between atoms: N_10  and  C_14
    7  A    between atoms: C_14  and  C_23
                            x       y       z     vdW  Elec       q    Type
                         _______ _______ _______ _____ _____    ______ ____

>  <TORSDO>
F 7

$$$$
=
 OpenBabel10222419353D

 39 44  0  0  1  0  0  0  0  0999 V2000
  182.7810  178.5930  141.7010 N   0  0  0  0  0  1  0  0  0  0  0  0
  184.2160  178.4650  141.5150 C   0  0  1  0  0  3  0  0  0  0  0  0
  184.6620  179.3330  140.3430 C   0  0  0  0  0  2  0  0  0  0  0  0
  184.6520  179.3320  137.9920 F   0  0  0  0  0  0  0  0  0  0  0  0
  184.9660  178.5330  139.0750 C   0  0  0  0  0  0  0  0  0  0  0  0
  184.1730  177.3980  139.0160 F   0  0  0  0  0  0  0  0  0  0  0  0
  186.4500  178.1780  138.9750 C   0  0  0  0  0  2  0  0  0  0  0  0
  186.9410  175.5850  137.2060 N   0  0  0  0  0  0  0  0  0  0  0  0
  187.6830  174.4880  136.8420 C   0  0  0  0  0  3  0  0  0  0  0  0
  186.9670  178.1450  137.5400 C   0  0  1  0  0  3  0  0  0  0  0  0
  189.1310  178.3610  136.9870 N   0  0  0  0  0  2  0  0  0  0  0  0
  188.0370  179.0900  137.3850 O   0  0  0  0  0  0  0  0  0  0  0  0
  189.0380  174.6730  136.5060 C   0  0  0  0  0  0  0  0  0  0  0  0
  189.9530  173.6800  136.1000 N   0  0  0  0  0  2  0  0  0  0  0  0
  189.6080  175.9170  136.5330 C   0  0  0  0  0  0  0  0  0  0  0  0
  188.8230  176.9960  136.9110 C   0  0  0  0  0  0  0  0  0  0  0  0
  191.0300  175.8530  136.1230 C   0  0  0  0  0  2  0  0  0  0  0  0
  187.5380  176.8140  137.2400 C   0  0  0  0  0  0  0  0  0  0  0  0
  191.2320  174.3470  135.8290 C   0  0  1  0  0  3  0  0  0  0  0  0
  192.2970  173.7990  136.7210 C   0  0  0  0  0  3  0  0  0  0  0  0
  192.9710  174.6000  137.5430 C   0  0  0  0  0  2  0  0  0  0  0  0
  184.9480  178.8210  142.8080 C   0  0  0  0  0  2  0  0  0  0  0  0
  190.7380  176.9310  143.8350 C   0  0  0  0  0  0  0  0  0  0  0  0
  188.1880  177.7590  147.5030 C   0  0  0  0  0  3  0  0  0  0  0  0
  186.3860  178.6120  142.6890 N   0  0  0  0  0  2  0  0  0  0  0  0
  190.2140  176.9880  141.4880 C   0  0  0  0  0  0  0  0  0  0  0  0
  191.1440  176.8220  142.5080 C   0  0  0  0  0  3  0  0  0  0  0  0
  189.0680  177.3750  145.4980 C   0  0  0  0  0  0  0  0  0  0  0  0
  188.4660  177.3330  143.1020 N   0  0  0  0  0  0  0  0  0  0  0  0
  190.0360  177.2280  146.4490 C   0  0  0  0  0  0  0  0  0  0  0  0
  187.8980  177.7200  146.1410 C   0  0  0  0  0  3  0  0  0  0  0  0
  191.6540  176.7940  144.8390 N   0  0  0  0  0  0  0  0  0  0  0  0
  191.3160  176.9350  146.1240 N   0  0  0  0  0  0  0  0  0  0  0  0
  190.6370  176.8830  140.0670 C   0  0  0  0  0  1  0  0  0  0  0  0
  188.8790  177.2380  141.8060 C   0  0  0  0  0  3  0  0  0  0  0  0
  189.3750  177.2090  144.1320 C   0  0  0  0  0  0  0  0  0  0  0  0
  189.5300  177.4530  147.7040 C   0  0  0  0  0  3  0  0  0  0  0  0
  186.4070  176.6640  143.9770 O   0  0  0  0  0  0  0  0  0  0  0  0
  187.0570  177.5090  143.3040 C   0  0  0  0  0  0  0  0  0  0  0  0
  2  1  1  1  0  0  0
  2 22  1  0  0  0  0
  3  2  1  0  0  0  0
  4  5  1  0  0  0  0
  5  3  1  0  0  0  0
  6  5  1  0  0  0  0
  7  5  1  0  0  0  0
  8 18  1  0  0  0  0
  9  8  2  0  0  0  0
 10  7  1  1  0  0  0
 11 12  1  0  0  0  0
 12 10  1  0  0  0  0
 13 15  2  0  0  0  0
 13  9  1  0  0  0  0
 14 13  1  0  0  0  0
 15 16  1  0  0  0  0
 16 11  1  0  0  0  0
 16 18  2  0  0  0  0
 17 15  1  0  0  0  0
 18 10  1  0  0  0  0
 19 14  1  0  0  0  0
 19 17  1  0  0  0  0
 19 20  1  1  0  0  0
 20 21  2  0  0  0  0
 23 36  1  0  0  0  0
 23 32  1  0  0  0  0
 24 37  1  0  0  0  0
 25 22  1  0  0  0  0
 25 39  1  0  0  0  0
 26 35  2  0  0  0  0
 26 27  1  0  0  0  0
 27 23  2  0  0  0  0
 28 31  1  0  0  0  0
 28 30  1  0  0  0  0
 29 39  1  0  0  0  0
 29 36  1  0  0  0  0
 30 37  2  0  0  0  0
 31 24  2  0  0  0  0
 32 33  2  0  0  0  0
 33 30  1  0  0  0  0
 34 26  1  0  0  0  0
 35 29  1  0  0  0  0
 36 28  2  0  0  0  0
 39 38  2  0  0  0  0
M  END
>  <MODEL>
9

>  <REMARK>
 VINA RESULT:      -9.0      2.631      6.290
  Name = 
  7 active torsions:
  status: ('A' for Active; 'I' for Inactive)
    1  A    between atoms: C_3  and  C_13
    2  A    between atoms: C_3  and  C_17
    3  A    between atoms: C_4  and  C_35
    4  A    between atoms: C_8  and  C_17
    5  A    between atoms: C_8  and  C_23
    6  A    between atoms: N_10  and  C_14
    7  A    between atoms: C_14  and  C_23
                            x       y       z     vdW  Elec       q    Type
                         _______ _______ _______ _____ _____    ______ ____

>  <TORSDO>
F 7

$$$$
