=
 OpenBabel10222415223D

 60 69  0  0  1  0  0  0  0  0999 V2000
  189.4580  177.3900  141.1410 C   0  0  0  0  0  3  0  0  0  0  0  0
  186.9200  177.9450  142.2010 C   0  0  0  0  0  0  0  0  0  0  0  0
  189.0290  176.7270  142.2960 C   0  0  0  0  0  0  0  0  0  0  0  0
  187.3590  178.5880  141.0380 C   0  0  0  0  0  3  0  0  0  0  0  0
  187.3210  176.3220  143.9630 O   0  0  0  0  0  1  0  0  0  0  0  0
  187.7570  177.0030  142.8300 C   0  0  0  0  0  0  0  0  0  0  0  0
  188.6210  178.3110  140.5010 C   0  0  0  0  0  0  0  0  0  0  0  0
  185.0250  178.5490  139.4840 C   0  0  0  0  0  3  0  0  0  0  0  0
  181.8810  178.9940  141.1100 C   0  0  0  0  0  0  0  0  0  0  0  0
  184.4630  178.4690  142.0310 N   0  0  0  0  0  0  0  0  0  0  0  0
  184.3050  178.7340  138.4160 N   0  0  0  0  0  0  0  0  0  0  0  0
  182.0050  179.7030  138.3150 C   0  0  0  0  0  3  0  0  0  0  0  0
  183.4890  178.7060  142.9340 C   0  0  0  0  0  0  0  0  0  0  0  0
  184.1590  178.3190  140.6340 C   0  0  0  0  0  0  0  0  0  0  0  0
  180.9470  179.7960  140.5720 C   0  0  0  0  0  0  0  0  0  0  0  0
  182.9170  178.4420  140.2190 C   0  0  0  0  0  0  0  0  0  0  0  0
  182.8880  178.5590  138.7460 C   0  0  2  0  0  3  0  0  0  0  0  0
  183.9180  178.6940  144.2090 N   0  0  0  0  0  0  0  0  0  0  0  0
  182.1380  178.9780  142.5280 N   0  0  0  0  0  2  0  0  0  0  0  0
  181.0760  180.2160  139.1410 C   0  0  0  0  0  3  0  0  0  0  0  0
  185.2430  178.4160  144.0910 C   0  0  0  0  0  0  0  0  0  0  0  0
  185.5860  178.2690  142.7500 C   0  0  0  0  0  0  0  0  0  0  0  0
  185.4110  178.2080  146.5450 C   0  0  1  0  0  3  0  0  0  0  0  0
  186.0550  179.5240  146.1720 C   0  0  0  0  0  2  0  0  0  0  0  0
  186.1940  178.3200  145.2500 C   0  0  2  0  0  3  0  0  0  0  0  0
  186.2490  177.5480  147.6210 C   0  0  0  0  0  2  0  0  0  0  0  0
  189.7350  178.5490  148.3190 C   0  0  0  0  0  2  0  0  0  0  0  0
  189.8410  176.6230  147.0520 C   0  0  0  0  0  2  0  0  0  0  0  0
  188.5060  176.6460  147.7540 C   0  0  2  0  0  3  0  0  0  0  0  0
  190.6700  177.6400  147.6730 N   0  0  0  0  0  2  0  0  0  0  0  0
  187.7230  177.8050  147.3350 C   0  0  2  0  0  3  0  0  0  0  0  0
  188.4850  177.8480  148.5980 N   0  0  2  0  0  0  0  0  0  0  0  0
  179.9530  180.3990  141.4060 N   0  0  0  0  0  2  0  0  0  0  0  0
  178.9310  179.6110  142.0760 C   0  0  0  0  0  2  0  0  0  0  0  0
  179.1820  178.4940  144.1610 O   0  0  0  0  0  1  0  0  0  0  0  0
  179.0560  179.7570  143.5800 C   0  0  0  0  0  2  0  0  0  0  0  0
  189.0560  178.9920  139.2460 C   0  0  0  0  0  2  0  0  0  0  0  0
  188.1590  178.5740  138.0920 C   0  0  0  0  0  2  0  0  0  0  0  0
  189.3540  176.5640  137.2160 C   0  0  0  0  0  0  0  0  0  0  0  0
  188.6620  175.7930  137.9350 O   0  0  0  0  0  0  0  0  0  0  0  0
  188.9400  177.9240  137.0550 N   0  0  0  0  0  2  0  0  0  0  0  0
  190.5080  174.4930  136.3190 C   0  0  2  0  0  3  0  0  0  0  0  0
  190.5770  176.0310  136.5000 C   0  0  2  0  0  3  0  0  0  0  0  0
  192.9250  175.4330  137.3900 C   0  0  1  0  0  0  0  0  0  0  0  0
  192.1190  175.9900  138.5360 C   0  0  0  0  0  2  0  0  0  0  0  0
  192.5860  173.9990  137.0040 C   0  0  0  0  0  2  0  0  0  0  0  0
  191.9050  176.5390  137.1220 C   0  0  2  0  0  3  0  0  0  0  0  0
  191.7480  173.9930  135.8820 O   0  0  0  0  0  0  0  0  0  0  0  0
  194.2590  175.8390  137.3860 O   0  0  0  0  0  1  0  0  0  0  0  0
  189.5300  174.1840  135.3630 O   0  0  0  0  0  0  0  0  0  0  0  0
  188.8660  173.0480  135.8450 C   0  0  1  0  0  3  0  0  0  0  0  0
  189.1780  172.8580  137.1960 O   0  0  0  0  0  1  0  0  0  0  0  0
  187.3570  173.2220  135.6650 C   0  0  2  0  0  3  0  0  0  0  0  0
  187.0560  174.5390  135.1220 N   0  0  0  0  0  1  0  0  0  0  0  0
  186.6440  173.0340  136.9940 C   0  0  0  0  0  2  0  0  0  0  0  0
  185.4100  172.4140  136.7980 O   0  0  0  0  0  1  0  0  0  0  0  0
  189.9170  175.7080  142.9220 C   0  0  0  0  0  2  0  0  0  0  0  0
  190.8090  176.3420  143.9710 C   0  0  0  0  0  2  0  0  0  0  0  0
  191.4500  178.7240  144.1110 C   0  0  0  0  0  1  0  0  0  0  0  0
  191.6240  177.4420  143.3310 C   0  0  0  0  0  2  0  0  0  0  0  0
  1  3  1  0  0  0  0
  2 22  1  0  0  0  0
  2  6  1  0  0  0  0
  3  6  2  0  0  0  0
  3 57  1  0  0  0  0
  4  2  2  0  0  0  0
  6  5  1  0  0  0  0
  7  4  1  0  0  0  0
  7  1  2  0  0  0  0
  8 14  1  0  0  0  0
  9 19  1  0  0  0  0
 10 22  1  0  0  0  0
 10 13  1  0  0  0  0
 11 17  1  0  0  0  0
 11  8  2  0  0  0  0
 12 20  2  0  0  0  0
 13 18  2  0  0  0  0
 14 10  1  0  0  0  0
 15  9  2  0  0  0  0
 15 33  1  0  0  0  0
 16 14  2  0  0  0  0
 16  9  1  0  0  0  0
 17 12  1  1  0  0  0
 17 16  1  0  0  0  0
 19 13  1  0  0  0  0
 20 15  1  0  0  0  0
 21 18  1  0  0  0  0
 22 21  2  0  0  0  0
 23 26  1  1  0  0  0
 24 23  1  0  0  0  0
 25 21  1  6  0  0  0
 25 24  1  0  0  0  0
 25 23  1  0  0  0  0
 28 30  1  0  0  0  0
 29 28  1  6  0  0  0
 29 32  1  0  0  0  0
 30 27  1  0  0  0  0
 31 26  1  1  0  0  0
 31 29  1  0  0  0  0
 31 32  1  0  0  0  0
 32 27  1  6  0  0  0
 33 34  1  0  0  0  0
 34 36  1  0  0  0  0
 36 35  1  0  0  0  0
 37  7  1  0  0  0  0
 38 37  1  0  0  0  0
 39 40  2  0  0  0  0
 41 39  1  0  0  0  0
 41 38  1  0  0  0  0
 42 50  1  6  0  0  0
 42 43  1  0  0  0  0
 43 47  1  0  0  0  0
 43 39  1  1  0  0  0
 44 49  1  6  0  0  0
 44 45  1  0  0  0  0
 46 44  1  0  0  0  0
 47 44  1  0  0  0  0
 47 45  1  1  0  0  0
 48 42  1  0  0  0  0
 48 46  1  0  0  0  0
 50 51  1  0  0  0  0
 51 52  1  1  0  0  0
 53 54  1  1  0  0  0
 53 51  1  0  0  0  0
 53 55  1  0  0  0  0
 56 55  1  0  0  0  0
 57 58  1  0  0  0  0
 60 58  1  0  0  0  0
 60 59  1  0  0  0  0
M  END
>  <MODEL>
1

>  <REMARK>
 VINA RESULT:      -8.1      0.000      0.000
  Name = 
  18 active torsions:
  status: ('A' for Active; 'I' for Inactive)
    1  A    between atoms: C_2  and  C_11
    2  A    between atoms: C_6  and  C_51
    3  A    between atoms: C_9  and  O_27
    4  A    between atoms: C_12  and  C_54
    5  A    between atoms: C_13  and  C_52
    6  A    between atoms: C_13  and  C_54
    7  A    between atoms: N_20  and  C_24
    8  A    between atoms: N_20  and  C_35
    9  A    between atoms: C_21  and  C_38
   10  A    between atoms: C_21  and  C_58
   11  A    between atoms: O_27  and  C_41
   12  A    between atoms: C_30  and  CA_49
   13  A    between atoms: C_31  and  C_33
   14  A    between atoms: C_33  and  C_45
   15  A    between atoms: C_35  and  C_44
   16  A    between atoms: C_36  and  C_47
   17  A    between atoms: C_38  and  N_57
   18  A    between atoms: C_41  and  CA_49
                            x       y       z     vdW  Elec       q    Type
                         _______ _______ _______ _____ _____    ______ ____

>  <TORSDO>
F 18

$$$$
=
 OpenBabel10222415223D

 60 69  0  0  1  0  0  0  0  0999 V2000
  181.9130  179.8180  139.7740 C   0  0  0  0  0  3  0  0  0  0  0  0
  182.8160  177.7840  138.0640 C   0  0  0  0  0  0  0  0  0  0  0  0
  181.4330  179.7520  138.4620 C   0  0  0  0  0  0  0  0  0  0  0  0
  183.2730  177.8560  139.3850 C   0  0  0  0  0  3  0  0  0  0  0  0
  181.3840  178.6530  136.3050 O   0  0  0  0  0  1  0  0  0  0  0  0
  181.8840  178.7340  137.6020 C   0  0  0  0  0  0  0  0  0  0  0  0
  182.8230  178.8640  140.2440 C   0  0  0  0  0  0  0  0  0  0  0  0
  180.4470  175.3950  138.2090 C   0  0  0  0  0  3  0  0  0  0  0  0
  181.8010  173.1490  135.7910 C   0  0  0  0  0  0  0  0  0  0  0  0
  182.6520  175.5970  136.8280 N   0  0  0  0  0  0  0  0  0  0  0  0
  179.4970  174.5070  138.2490 N   0  0  0  0  0  0  0  0  0  0  0  0
  179.5990  172.1680  137.3790 C   0  0  0  0  0  3  0  0  0  0  0  0
  183.4730  174.9270  135.9930 C   0  0  0  0  0  0  0  0  0  0  0  0
  181.3020  175.1560  137.0530 C   0  0  0  0  0  0  0  0  0  0  0  0
  181.5700  171.8290  135.8870 C   0  0  0  0  0  0  0  0  0  0  0  0
  180.8630  174.0670  136.4600 C   0  0  2  0  0  3  0  0  0  0  0  0
  179.5840  173.6440  137.0690 C   0  0  0  0  0  0  0  0  0  0  0  0
  184.6560  175.5350  135.7930 N   0  0  0  0  0  0  0  0  0  0  0  0
  183.0950  173.6640  135.4200 N   0  0  0  0  0  2  0  0  0  0  0  0
  180.4730  171.3390  136.7800 C   0  0  0  0  0  3  0  0  0  0  0  0
  184.5570  176.6650  136.5410 C   0  0  0  0  0  0  0  0  0  0  0  0
  183.3200  176.7140  137.1780 C   0  0  0  0  0  0  0  0  0  0  0  0
  186.9610  176.9930  136.9980 C   0  0  1  0  0  3  0  0  0  0  0  0
  186.2050  177.7060  138.0970 C   0  0  0  0  0  2  0  0  0  0  0  0
  185.6500  177.6870  136.6790 C   0  0  2  0  0  3  0  0  0  0  0  0
  188.1360  177.8540  136.5830 C   0  0  0  0  0  2  0  0  0  0  0  0
  191.2470  176.7130  138.2140 C   0  0  0  0  0  2  0  0  0  0  0  0
  190.2190  174.8320  137.3600 C   0  0  0  0  0  2  0  0  0  0  0  0
  189.1600  175.8820  137.5780 C   0  0  2  0  0  3  0  0  0  0  0  0
  191.4140  175.2770  138.0540 N   0  0  0  0  0  2  0  0  0  0  0  0
  189.4240  177.0610  136.7560 C   0  0  2  0  0  3  0  0  0  0  0  0
  189.8260  177.0470  138.1750 N   0  0  2  0  0  0  0  0  0  0  0  0
  182.4830  170.8970  135.3010 N   0  0  0  0  0  2  0  0  0  0  0  0
  183.3910  170.0990  136.1090 C   0  0  0  0  0  2  0  0  0  0  0  0
  185.4190  171.1550  135.4530 O   0  0  0  0  0  1  0  0  0  0  0  0
  184.7250  169.9450  135.4040 C   0  0  0  0  0  2  0  0  0  0  0  0
  183.3080  178.9040  141.6550 C   0  0  0  0  0  2  0  0  0  0  0  0
  184.4670  177.9370  141.8320 C   0  0  0  0  0  2  0  0  0  0  0  0
  186.5240  177.8370  143.2460 C   0  0  0  0  0  0  0  0  0  0  0  0
  186.7140  176.6260  142.9500 O   0  0  0  0  0  0  0  0  0  0  0  0
  185.5820  178.6000  142.4850 N   0  0  0  0  0  2  0  0  0  0  0  0
  188.7410  177.8530  144.4750 C   0  0  2  0  0  3  0  0  0  0  0  0
  187.3260  178.4760  144.3590 C   0  0  2  0  0  3  0  0  0  0  0  0
  187.3400  178.0230  146.9010 C   0  0  1  0  0  0  0  0  0  0  0  0
  186.2890  177.1410  146.2740 C   0  0  0  0  0  2  0  0  0  0  0  0
  188.7760  177.5540  146.6980 C   0  0  0  0  0  2  0  0  0  0  0  0
  186.5470  178.5380  145.7000 C   0  0  2  0  0  3  0  0  0  0  0  0
  189.3710  178.2780  145.6590 O   0  0  0  0  0  0  0  0  0  0  0  0
  186.9690  178.5570  148.1340 O   0  0  0  0  0  1  0  0  0  0  0  0
  189.5140  178.2540  143.3770 O   0  0  0  0  0  0  0  0  0  0  0  0
  190.0330  177.0770  142.8210 C   0  0  1  0  0  3  0  0  0  0  0  0
  189.7450  177.0360  141.4520 O   0  0  0  0  0  1  0  0  0  0  0  0
  191.5450  177.0270  143.0510 C   0  0  2  0  0  3  0  0  0  0  0  0
  192.2560  177.0610  141.7810 N   0  0  0  0  0  1  0  0  0  0  0  0
  191.9170  175.7710  143.8220 C   0  0  0  0  0  2  0  0  0  0  0  0
  191.7390  175.9720  145.1900 O   0  0  0  0  0  1  0  0  0  0  0  0
  180.4200  180.7450  138.0060 C   0  0  0  0  0  2  0  0  0  0  0  0
  181.0760  182.0730  137.6810 C   0  0  0  0  0  2  0  0  0  0  0  0
  179.4830  181.6810  135.8330 C   0  0  0  0  0  1  0  0  0  0  0  0
  180.6640  182.5040  136.2930 C   0  0  0  0  0  2  0  0  0  0  0  0
  1  7  1  0  0  0  0
  2  4  1  0  0  0  0
  3  1  2  0  0  0  0
  4  7  2  0  0  0  0
  5  6  1  0  0  0  0
  6  2  2  0  0  0  0
  6  3  1  0  0  0  0
  7 37  1  0  0  0  0
  8 11  1  0  0  0  0
  9 15  2  0  0  0  0
 10 14  1  0  0  0  0
 10 22  1  0  0  0  0
 13 10  1  0  0  0  0
 14  8  2  0  0  0  0
 15 20  1  0  0  0  0
 16  9  1  1  0  0  0
 16 14  1  0  0  0  0
 16 17  1  0  0  0  0
 17 12  1  0  0  0  0
 17 11  2  0  0  0  0
 18 13  2  0  0  0  0
 18 21  1  0  0  0  0
 19  9  1  0  0  0  0
 19 13  1  0  0  0  0
 20 12  2  0  0  0  0
 21 22  2  0  0  0  0
 22  2  1  0  0  0  0
 23 26  1  6  0  0  0
 23 24  1  0  0  0  0
 25 21  1  1  0  0  0
 25 23  1  0  0  0  0
 25 24  1  0  0  0  0
 28 30  1  0  0  0  0
 29 28  1  6  0  0  0
 29 32  1  0  0  0  0
 30 27  1  0  0  0  0
 31 26  1  1  0  0  0
 31 29  1  0  0  0  0
 31 32  1  0  0  0  0
 32 27  1  6  0  0  0
 33 15  1  0  0  0  0
 33 34  1  0  0  0  0
 36 35  1  0  0  0  0
 36 34  1  0  0  0  0
 37 38  1  0  0  0  0
 38 41  1  0  0  0  0
 40 39  2  0  0  0  0
 41 39  1  0  0  0  0
 42 50  1  6  0  0  0
 42 48  1  0  0  0  0
 43 39  1  6  0  0  0
 43 42  1  0  0  0  0
 43 47  1  0  0  0  0
 44 49  1  1  0  0  0
 45 44  1  0  0  0  0
 46 44  1  0  0  0  0
 47 45  1  6  0  0  0
 47 44  1  0  0  0  0
 48 46  1  0  0  0  0
 51 52  1  6  0  0  0
 51 53  1  0  0  0  0
 51 50  1  0  0  0  0
 53 54  1  6  0  0  0
 53 55  1  0  0  0  0
 55 56  1  0  0  0  0
 57  3  1  0  0  0  0
 58 57  1  0  0  0  0
 59 60  1  0  0  0  0
 60 58  1  0  0  0  0
M  END
>  <MODEL>
2

>  <REMARK>
 VINA RESULT:      -7.2      3.420      9.347
  Name = 
  18 active torsions:
  status: ('A' for Active; 'I' for Inactive)
    1  A    between atoms: C_2  and  C_11
    2  A    between atoms: C_6  and  C_51
    3  A    between atoms: C_9  and  O_27
    4  A    between atoms: C_12  and  C_54
    5  A    between atoms: C_13  and  C_52
    6  A    between atoms: C_13  and  C_54
    7  A    between atoms: N_20  and  C_24
    8  A    between atoms: N_20  and  C_35
    9  A    between atoms: C_21  and  C_38
   10  A    between atoms: C_21  and  C_58
   11  A    between atoms: O_27  and  C_41
   12  A    between atoms: C_30  and  CA_49
   13  A    between atoms: C_31  and  C_33
   14  A    between atoms: C_33  and  C_45
   15  A    between atoms: C_35  and  C_44
   16  A    between atoms: C_36  and  C_47
   17  A    between atoms: C_38  and  N_57
   18  A    between atoms: C_41  and  CA_49
                            x       y       z     vdW  Elec       q    Type
                         _______ _______ _______ _____ _____    ______ ____

>  <TORSDO>
F 18

$$$$
=
 OpenBabel10222415223D

 60 69  0  0  1  0  0  0  0  0999 V2000
  188.5970  175.1010  136.0850 C   0  0  0  0  0  3  0  0  0  0  0  0
  187.0510  176.9070  137.5770 C   0  0  0  0  0  0  0  0  0  0  0  0
  188.9430  176.4570  136.1070 C   0  0  0  0  0  0  0  0  0  0  0  0
  186.7290  175.5440  137.5560 C   0  0  0  0  0  3  0  0  0  0  0  0
  188.5320  178.7080  136.8980 O   0  0  0  0  0  1  0  0  0  0  0  0
  188.1690  177.3640  136.8540 C   0  0  0  0  0  0  0  0  0  0  0  0
  187.4990  174.6390  136.8190 C   0  0  0  0  0  0  0  0  0  0  0  0
  184.1740  177.0870  135.8370 C   0  0  0  0  0  3  0  0  0  0  0  0
  182.3110  179.1310  138.0900 C   0  0  0  0  0  0  0  0  0  0  0  0
  184.9170  178.1330  138.1090 N   0  0  0  0  0  0  0  0  0  0  0  0
  183.0580  177.1050  135.1690 N   0  0  0  0  0  0  0  0  0  0  0  0
  181.1530  178.6890  135.4830 C   0  0  0  0  0  3  0  0  0  0  0  0
  184.5480  178.9970  139.0760 C   0  0  0  0  0  0  0  0  0  0  0  0
  183.9550  177.5990  137.1840 C   0  0  0  0  0  0  0  0  0  0  0  0
  181.3500  179.9490  137.6270 C   0  0  0  0  0  0  0  0  0  0  0  0
  182.6970  177.9770  137.2590 C   0  0  0  0  0  0  0  0  0  0  0  0
  181.9720  177.5530  136.0430 C   0  0  2  0  0  3  0  0  0  0  0  0
  185.5370  179.3050  139.9350 N   0  0  0  0  0  0  0  0  0  0  0  0
  183.2200  179.5450  139.1280 N   0  0  0  0  0  2  0  0  0  0  0  0
  180.8220  179.7500  136.2410 C   0  0  0  0  0  3  0  0  0  0  0  0
  186.5860  178.5710  139.4800 C   0  0  0  0  0  0  0  0  0  0  0  0
  186.2100  177.8400  138.3560 C   0  0  0  0  0  0  0  0  0  0  0  0
  188.0920  177.4370  141.0740 C   0  0  1  0  0  3  0  0  0  0  0  0
  187.8860  178.8430  141.5910 C   0  0  0  0  0  2  0  0  0  0  0  0
  187.9580  178.5860  140.0910 C   0  0  2  0  0  3  0  0  0  0  0  0
  189.5470  177.0610  141.2630 C   0  0  0  0  0  2  0  0  0  0  0  0
  191.0130  176.3520  144.5770 C   0  0  0  0  0  2  0  0  0  0  0  0
  191.6180  178.5120  144.0350 C   0  0  0  0  0  2  0  0  0  0  0  0
  191.3370  177.7710  142.7520 C   0  0  2  0  0  3  0  0  0  0  0  0
  191.7110  177.5200  145.0910 N   0  0  0  0  0  2  0  0  0  0  0  0
  189.9480  177.3220  142.7080 C   0  0  2  0  0  3  0  0  0  0  0  0
  191.0120  176.3860  143.1170 N   0  0  2  0  0  0  0  0  0  0  0  0
  180.9800  181.1120  138.3730 N   0  0  0  0  0  2  0  0  0  0  0  0
  181.5820  182.4110  138.1190 C   0  0  0  0  0  2  0  0  0  0  0  0
  180.7970  183.1840  136.0110 O   0  0  0  0  0  1  0  0  0  0  0  0
  180.6040  183.3110  137.3870 C   0  0  0  0  0  2  0  0  0  0  0  0
  187.1480  173.1880  136.8320 C   0  0  0  0  0  2  0  0  0  0  0  0
  185.8440  172.9770  137.5850 C   0  0  0  0  0  2  0  0  0  0  0  0
  183.4830  173.7010  137.2090 C   0  0  0  0  0  0  0  0  0  0  0  0
  183.5120  174.4490  138.2240 O   0  0  0  0  0  0  0  0  0  0  0  0
  184.7120  173.1750  136.6980 N   0  0  0  0  0  2  0  0  0  0  0  0
  180.9980  173.3260  137.5380 C   0  0  2  0  0  3  0  0  0  0  0  0
  182.1660  173.4130  136.5220 C   0  0  2  0  0  3  0  0  0  0  0  0
  181.1290  171.1850  135.7300 C   0  0  1  0  0  0  0  0  0  0  0  0
  182.5000  170.8910  136.2860 C   0  0  0  0  0  2  0  0  0  0  0  0
  180.0530  171.4400  136.7770 C   0  0  0  0  0  2  0  0  0  0  0  0
  182.2490  172.2090  135.5460 C   0  0  2  0  0  3  0  0  0  0  0  0
  179.8430  172.8170  136.9180 O   0  0  0  0  0  0  0  0  0  0  0  0
  180.8090  170.4420  134.5940 O   0  0  0  0  0  1  0  0  0  0  0  0
  180.7220  174.6080  138.0340 O   0  0  0  0  0  0  0  0  0  0  0  0
  179.5180  174.4960  138.7430 C   0  0  1  0  0  3  0  0  0  0  0  0
  179.6830  173.6090  139.8120 O   0  0  0  0  0  1  0  0  0  0  0  0
  179.0960  175.8750  139.2530 C   0  0  2  0  0  3  0  0  0  0  0  0
  179.2670  176.8790  138.2130 N   0  0  0  0  0  1  0  0  0  0  0  0
  179.9110  176.2530  140.4800 C   0  0  0  0  0  2  0  0  0  0  0  0
  180.5160  177.4960  140.2950 O   0  0  0  0  0  1  0  0  0  0  0  0
  190.1520  176.9120  135.3650 C   0  0  0  0  0  2  0  0  0  0  0  0
  191.1740  175.7960  135.2650 C   0  0  0  0  0  2  0  0  0  0  0  0
  193.0450  174.7060  136.4550 C   0  0  0  0  0  1  0  0  0  0  0  0
  192.1790  175.9410  136.3840 C   0  0  0  0  0  2  0  0  0  0  0  0
  1  3  2  0  0  0  0
  1  7  1  0  0  0  0
  2 22  1  0  0  0  0
  3  6  1  0  0  0  0
  4  2  1  0  0  0  0
  6  5  1  0  0  0  0
  6  2  2  0  0  0  0
  7 37  1  0  0  0  0
  7  4  2  0  0  0  0
  8 14  1  0  0  0  0
  9 19  1  0  0  0  0
 10 22  1  0  0  0  0
 10 13  1  0  0  0  0
 11  8  2  0  0  0  0
 11 17  1  0  0  0  0
 12 20  2  0  0  0  0
 13 19  1  0  0  0  0
 13 18  2  0  0  0  0
 14 16  2  0  0  0  0
 14 10  1  0  0  0  0
 15  9  2  0  0  0  0
 15 33  1  0  0  0  0
 16  9  1  0  0  0  0
 17 12  1  6  0  0  0
 17 16  1  0  0  0  0
 20 15  1  0  0  0  0
 21 18  1  0  0  0  0
 22 21  2  0  0  0  0
 23 26  1  1  0  0  0
 23 24  1  0  0  0  0
 25 21  1  6  0  0  0
 25 23  1  0  0  0  0
 25 24  1  0  0  0  0
 27 30  1  0  0  0  0
 28 30  1  0  0  0  0
 29 32  1  0  0  0  0
 29 28  1  1  0  0  0
 31 26  1  6  0  0  0
 31 29  1  0  0  0  0
 31 32  1  0  0  0  0
 32 27  1  1  0  0  0
 34 33  1  0  0  0  0
 35 36  1  0  0  0  0
 36 34  1  0  0  0  0
 37 38  1  0  0  0  0
 39 40  2  0  0  0  0
 41 39  1  0  0  0  0
 41 38  1  0  0  0  0
 42 50  1  6  0  0  0
 43 39  1  1  0  0  0
 43 42  1  0  0  0  0
 44 49  1  6  0  0  0
 44 45  1  0  0  0  0
 44 46  1  0  0  0  0
 46 48  1  0  0  0  0
 47 44  1  0  0  0  0
 47 45  1  1  0  0  0
 47 43  1  0  0  0  0
 48 42  1  0  0  0  0
 50 51  1  0  0  0  0
 51 53  1  0  0  0  0
 51 52  1  1  0  0  0
 53 54  1  6  0  0  0
 53 55  1  0  0  0  0
 56 55  1  0  0  0  0
 57  3  1  0  0  0  0
 58 57  1  0  0  0  0
 58 60  1  0  0  0  0
 60 59  1  0  0  0  0
M  END
>  <MODEL>
3

>  <REMARK>
 VINA RESULT:      -7.1      3.442      7.117
  Name = 
  18 active torsions:
  status: ('A' for Active; 'I' for Inactive)
    1  A    between atoms: C_2  and  C_11
    2  A    between atoms: C_6  and  C_51
    3  A    between atoms: C_9  and  O_27
    4  A    between atoms: C_12  and  C_54
    5  A    between atoms: C_13  and  C_52
    6  A    between atoms: C_13  and  C_54
    7  A    between atoms: N_20  and  C_24
    8  A    between atoms: N_20  and  C_35
    9  A    between atoms: C_21  and  C_38
   10  A    between atoms: C_21  and  C_58
   11  A    between atoms: O_27  and  C_41
   12  A    between atoms: C_30  and  CA_49
   13  A    between atoms: C_31  and  C_33
   14  A    between atoms: C_33  and  C_45
   15  A    between atoms: C_35  and  C_44
   16  A    between atoms: C_36  and  C_47
   17  A    between atoms: C_38  and  N_57
   18  A    between atoms: C_41  and  CA_49
                            x       y       z     vdW  Elec       q    Type
                         _______ _______ _______ _____ _____    ______ ____

>  <TORSDO>
F 18

$$$$
=
 OpenBabel10222415223D

 60 69  0  0  1  0  0  0  0  0999 V2000
  189.4040  177.4990  141.3430 C   0  0  0  0  0  3  0  0  0  0  0  0
  186.7640  177.9490  142.1830 C   0  0  0  0  0  0  0  0  0  0  0  0
  188.9360  176.8900  142.5130 C   0  0  0  0  0  0  0  0  0  0  0  0
  187.2460  178.5380  141.0080 C   0  0  0  0  0  3  0  0  0  0  0  0
  187.1390  176.4840  144.0840 O   0  0  0  0  0  1  0  0  0  0  0  0
  187.6120  177.1130  142.9360 C   0  0  0  0  0  0  0  0  0  0  0  0
  188.5590  178.3130  140.5810 C   0  0  0  0  0  0  0  0  0  0  0  0
  185.0440  178.2480  139.3040 C   0  0  0  0  0  3  0  0  0  0  0  0
  181.7650  178.5830  140.6710 C   0  0  0  0  0  0  0  0  0  0  0  0
  184.2990  178.2930  141.8050 N   0  0  0  0  0  0  0  0  0  0  0  0
  184.3950  178.3160  138.1780 N   0  0  0  0  0  0  0  0  0  0  0  0
  182.0530  179.1190  137.8490 C   0  0  0  0  0  3  0  0  0  0  0  0
  183.2480  178.5210  142.6180 C   0  0  0  0  0  0  0  0  0  0  0  0
  184.1100  178.0340  140.4040 C   0  0  0  0  0  0  0  0  0  0  0  0
  180.8260  179.2840  140.0150 C   0  0  0  0  0  0  0  0  0  0  0  0
  182.8970  178.0460  139.8950 C   0  0  0  0  0  0  0  0  0  0  0  0
  182.9720  178.0670  138.4190 C   0  0  2  0  0  3  0  0  0  0  0  0
  183.5800  178.6200  143.9190 N   0  0  0  0  0  0  0  0  0  0  0  0
  181.9160  178.6750  142.1010 N   0  0  0  0  0  2  0  0  0  0  0  0
  181.0340  179.6200  138.5710 C   0  0  0  0  0  3  0  0  0  0  0  0
  184.9250  178.4250  143.9130 C   0  0  0  0  0  0  0  0  0  0  0  0
  185.3760  178.2160  142.6130 C   0  0  0  0  0  0  0  0  0  0  0  0
  184.9190  178.5750  146.3770 C   0  0  1  0  0  3  0  0  0  0  0  0
  185.6450  179.7990  145.8660 C   0  0  0  0  0  2  0  0  0  0  0  0
  185.7910  178.4680  145.1400 C   0  0  2  0  0  3  0  0  0  0  0  0
  185.6530  178.0520  147.5950 C   0  0  0  0  0  2  0  0  0  0  0  0
  189.2200  178.5350  148.4190 C   0  0  0  0  0  2  0  0  0  0  0  0
  189.1100  176.7200  146.9980 C   0  0  0  0  0  2  0  0  0  0  0  0
  187.7730  176.8580  147.6820 C   0  0  2  0  0  3  0  0  0  0  0  0
  190.0470  177.5680  147.7120 N   0  0  0  0  0  2  0  0  0  0  0  0
  187.1530  178.1390  147.3510 C   0  0  2  0  0  3  0  0  0  0  0  0
  187.8850  177.9810  148.6220 N   0  0  2  0  0  0  0  0  0  0  0  0
  179.7370  179.8710  140.7340 N   0  0  0  0  0  2  0  0  0  0  0  0
  179.1440  181.1360  140.3320 C   0  0  0  0  0  2  0  0  0  0  0  0
  179.3390  182.7790  138.6220 O   0  0  0  0  0  1  0  0  0  0  0  0
  180.0760  181.8780  139.3930 C   0  0  0  0  0  2  0  0  0  0  0  0
  189.0400  178.9330  139.3120 C   0  0  0  0  0  2  0  0  0  0  0  0
  188.5680  178.1130  138.1220 C   0  0  0  0  0  2  0  0  0  0  0  0
  189.4570  176.0750  136.9830 C   0  0  0  0  0  0  0  0  0  0  0  0
  189.7800  176.7410  135.9620 O   0  0  0  0  0  0  0  0  0  0  0  0
  189.1150  176.7700  138.1870 N   0  0  0  0  0  2  0  0  0  0  0  0
  190.5840  174.0400  135.9760 C   0  0  2  0  0  3  0  0  0  0  0  0
  189.4850  174.5630  136.9370 C   0  0  2  0  0  3  0  0  0  0  0  0
  188.0540  172.8910  135.5860 C   0  0  1  0  0  0  0  0  0  0  0  0
  187.5450  174.2810  135.2980 C   0  0  0  0  0  2  0  0  0  0  0  0
  189.3510  172.5230  134.8760 C   0  0  0  0  0  2  0  0  0  0  0  0
  188.0820  173.9440  136.6930 C   0  0  2  0  0  3  0  0  0  0  0  0
  190.4300  172.6590  135.7570 O   0  0  0  0  0  0  0  0  0  0  0  0
  187.0470  171.9330  135.7000 O   0  0  0  0  0  1  0  0  0  0  0  0
  191.8430  174.2750  136.5450 O   0  0  0  0  0  0  0  0  0  0  0  0
  192.7430  174.3450  135.4730 C   0  0  1  0  0  3  0  0  0  0  0  0
  192.3500  175.3610  134.5950 O   0  0  0  0  0  1  0  0  0  0  0  0
  194.1510  174.6150  136.0050 C   0  0  2  0  0  3  0  0  0  0  0  0
  194.7260  173.4020  136.5690 N   0  0  0  0  0  1  0  0  0  0  0  0
  194.1130  175.7100  137.0600 C   0  0  0  0  0  2  0  0  0  0  0  0
  194.6590  175.2480  138.2570 O   0  0  0  0  0  1  0  0  0  0  0  0
  189.8390  175.9810  143.2720 C   0  0  0  0  0  2  0  0  0  0  0  0
  191.2800  176.4410  143.1660 C   0  0  0  0  0  2  0  0  0  0  0  0
  191.0430  178.6010  144.3430 C   0  0  0  0  0  1  0  0  0  0  0  0
  191.6470  177.2170  144.4090 C   0  0  0  0  0  2  0  0  0  0  0  0
  1  3  1  0  0  0  0
  2 22  1  0  0  0  0
  2  6  1  0  0  0  0
  3  6  2  0  0  0  0
  3 57  1  0  0  0  0
  4  2  2  0  0  0  0
  6  5  1  0  0  0  0
  7  4  1  0  0  0  0
  7  1  2  0  0  0  0
  8 14  1  0  0  0  0
  9 19  1  0  0  0  0
 10 22  1  0  0  0  0
 10 13  1  0  0  0  0
 11 17  1  0  0  0  0
 11  8  2  0  0  0  0
 12 20  2  0  0  0  0
 13 18  2  0  0  0  0
 14 10  1  0  0  0  0
 15  9  2  0  0  0  0
 15 33  1  0  0  0  0
 16 14  2  0  0  0  0
 16  9  1  0  0  0  0
 17 12  1  1  0  0  0
 17 16  1  0  0  0  0
 19 13  1  0  0  0  0
 20 15  1  0  0  0  0
 21 18  1  0  0  0  0
 22 21  2  0  0  0  0
 23 26  1  1  0  0  0
 24 23  1  0  0  0  0
 25 21  1  6  0  0  0
 25 24  1  0  0  0  0
 25 23  1  0  0  0  0
 28 30  1  0  0  0  0
 29 28  1  6  0  0  0
 29 32  1  0  0  0  0
 30 27  1  0  0  0  0
 31 26  1  1  0  0  0
 31 29  1  0  0  0  0
 31 32  1  0  0  0  0
 32 27  1  6  0  0  0
 34 33  1  0  0  0  0
 35 36  1  0  0  0  0
 36 34  1  0  0  0  0
 37  7  1  0  0  0  0
 38 41  1  0  0  0  0
 38 37  1  0  0  0  0
 39 41  1  0  0  0  0
 40 39  2  0  0  0  0
 42 50  1  1  0  0  0
 42 43  1  0  0  0  0
 43 39  1  6  0  0  0
 44 49  1  1  0  0  0
 44 47  1  0  0  0  0
 45 44  1  0  0  0  0
 46 44  1  0  0  0  0
 46 48  1  0  0  0  0
 47 45  1  6  0  0  0
 47 43  1  0  0  0  0
 48 42  1  0  0  0  0
 51 52  1  6  0  0  0
 51 53  1  0  0  0  0
 51 50  1  0  0  0  0
 53 54  1  1  0  0  0
 53 55  1  0  0  0  0
 55 56  1  0  0  0  0
 58 57  1  0  0  0  0
 58 60  1  0  0  0  0
 59 60  1  0  0  0  0
M  END
>  <MODEL>
4

>  <REMARK>
 VINA RESULT:      -7.1      1.643      3.159
  Name = 
  18 active torsions:
  status: ('A' for Active; 'I' for Inactive)
    1  A    between atoms: C_2  and  C_11
    2  A    between atoms: C_6  and  C_51
    3  A    between atoms: C_9  and  O_27
    4  A    between atoms: C_12  and  C_54
    5  A    between atoms: C_13  and  C_52
    6  A    between atoms: C_13  and  C_54
    7  A    between atoms: N_20  and  C_24
    8  A    between atoms: N_20  and  C_35
    9  A    between atoms: C_21  and  C_38
   10  A    between atoms: C_21  and  C_58
   11  A    between atoms: O_27  and  C_41
   12  A    between atoms: C_30  and  CA_49
   13  A    between atoms: C_31  and  C_33
   14  A    between atoms: C_33  and  C_45
   15  A    between atoms: C_35  and  C_44
   16  A    between atoms: C_36  and  C_47
   17  A    between atoms: C_38  and  N_57
   18  A    between atoms: C_41  and  CA_49
                            x       y       z     vdW  Elec       q    Type
                         _______ _______ _______ _____ _____    ______ ____

>  <TORSDO>
F 18

$$$$
=
 OpenBabel10222415223D

 60 69  0  0  1  0  0  0  0  0999 V2000
  186.3560  176.1940  137.0810 C   0  0  0  0  0  3  0  0  0  0  0  0
  188.9840  176.3350  138.0540 C   0  0  0  0  0  0  0  0  0  0  0  0
  187.1730  175.0590  137.0360 C   0  0  0  0  0  0  0  0  0  0  0  0
  188.1470  177.4560  138.1050 C   0  0  0  0  0  3  0  0  0  0  0  0
  189.2950  173.9900  137.5040 O   0  0  0  0  0  1  0  0  0  0  0  0
  188.4920  175.1270  137.5230 C   0  0  0  0  0  0  0  0  0  0  0  0
  186.8340  177.3900  137.6270 C   0  0  0  0  0  0  0  0  0  0  0  0
  190.8670  175.0390  135.5810 C   0  0  0  0  0  3  0  0  0  0  0  0
  194.0910  175.7040  136.9570 C   0  0  0  0  0  0  0  0  0  0  0  0
  191.4880  176.1520  137.8580 N   0  0  0  0  0  0  0  0  0  0  0  0
  191.5750  174.5740  134.5930 N   0  0  0  0  0  0  0  0  0  0  0  0
  194.0020  173.9870  134.6390 C   0  0  0  0  0  3  0  0  0  0  0  0
  192.5160  176.4170  138.6910 C   0  0  0  0  0  0  0  0  0  0  0  0
  191.7170  175.8090  136.4820 C   0  0  0  0  0  0  0  0  0  0  0  0
  195.1310  174.9050  136.6650 C   0  0  0  0  0  0  0  0  0  0  0  0
  192.9490  175.7220  136.0270 C   0  0  0  0  0  0  0  0  0  0  0  0
  192.9500  175.0660  134.7030 C   0  0  2  0  0  3  0  0  0  0  0  0
  192.1320  176.8440  139.9080 N   0  0  0  0  0  0  0  0  0  0  0  0
  193.8800  176.2140  138.2890 N   0  0  0  0  0  2  0  0  0  0  0  0
  195.0310  173.9640  135.5050 C   0  0  0  0  0  3  0  0  0  0  0  0
  190.7760  176.8600  139.8200 C   0  0  0  0  0  0  0  0  0  0  0  0
  190.3700  176.4410  138.5560 C   0  0  0  0  0  0  0  0  0  0  0  0
  190.6650  177.4280  142.2200 C   0  0  1  0  0  3  0  0  0  0  0  0
  189.8450  176.1720  142.0290 C   0  0  0  0  0  2  0  0  0  0  0  0
  189.8600  177.2440  140.9470 C   0  0  2  0  0  3  0  0  0  0  0  0
  189.9350  178.3390  143.1870 C   0  0  0  0  0  2  0  0  0  0  0  0
  190.4870  176.7400  146.4700 C   0  0  0  0  0  2  0  0  0  0  0  0
  188.4460  177.8100  146.5900 C   0  0  0  0  0  2  0  0  0  0  0  0
  189.2660  178.4900  145.5220 C   0  0  2  0  0  3  0  0  0  0  0  0
  189.3470  176.9600  147.3460 N   0  0  0  0  0  2  0  0  0  0  0  0
  189.5890  177.5560  144.4460 C   0  0  2  0  0  3  0  0  0  0  0  0
  190.5790  177.8320  145.5040 N   0  0  2  0  0  0  0  0  0  0  0  0
  196.2390  174.8130  137.5660 N   0  0  0  0  0  2  0  0  0  0  0  0
  197.0820  173.6300  137.6270 C   0  0  0  0  0  2  0  0  0  0  0  0
  198.1900  172.4140  135.9070 O   0  0  0  0  0  1  0  0  0  0  0  0
  198.1200  173.6660  136.5210 C   0  0  0  0  0  2  0  0  0  0  0  0
  185.9550  178.5920  137.7140 C   0  0  0  0  0  2  0  0  0  0  0  0
  184.5090  178.1970  137.4560 C   0  0  0  0  0  2  0  0  0  0  0  0
  184.3780  178.5530  139.9250 C   0  0  0  0  0  0  0  0  0  0  0  0
  185.2270  179.4840  139.8730 O   0  0  0  0  0  0  0  0  0  0  0  0
  183.7860  178.0840  138.7090 N   0  0  0  0  0  2  0  0  0  0  0  0
  182.6150  178.5780  141.7450 C   0  0  2  0  0  3  0  0  0  0  0  0
  183.9640  177.9840  141.2640 C   0  0  2  0  0  3  0  0  0  0  0  0
  184.6620  178.6380  143.6620 C   0  0  1  0  0  0  0  0  0  0  0  0
  185.4440  179.4940  142.6980 C   0  0  0  0  0  2  0  0  0  0  0  0
  183.2080  179.0510  143.8550 C   0  0  0  0  0  2  0  0  0  0  0  0
  185.0980  178.0500  142.3210 C   0  0  2  0  0  3  0  0  0  0  0  0
  182.3740  178.2310  143.0870 O   0  0  0  0  0  0  0  0  0  0  0  0
  185.3990  178.2130  144.7680 O   0  0  0  0  0  1  0  0  0  0  0  0
  181.5780  178.0700  140.9500 O   0  0  0  0  0  0  0  0  0  0  0  0
  180.5520  179.0230  140.9990 C   0  0  1  0  0  3  0  0  0  0  0  0
  180.5060  179.7290  139.7920 O   0  0  0  0  0  1  0  0  0  0  0  0
  179.2170  178.3240  141.2600 C   0  0  2  0  0  3  0  0  0  0  0  0
  178.9860  178.1800  142.6910 N   0  0  0  0  0  1  0  0  0  0  0  0
  179.2010  176.9580  140.5920 C   0  0  0  0  0  2  0  0  0  0  0  0
  179.3840  175.9520  141.5410 O   0  0  0  0  0  1  0  0  0  0  0  0
  186.6190  173.7830  136.5040 C   0  0  0  0  0  2  0  0  0  0  0  0
  185.2870  173.4620  137.1560 C   0  0  0  0  0  2  0  0  0  0  0  0
  183.1400  172.2770  136.8560 C   0  0  0  0  0  1  0  0  0  0  0  0
  184.4610  172.6230  136.2100 C   0  0  0  0  0  2  0  0  0  0  0  0
  1  7  1  0  0  0  0
  2  4  1  0  0  0  0
  2 22  1  0  0  0  0
  3  1  2  0  0  0  0
  3  6  1  0  0  0  0
  5  6  1  0  0  0  0
  6  2  2  0  0  0  0
  7 37  1  0  0  0  0
  7  4  2  0  0  0  0
  8 14  1  0  0  0  0
  9 19  1  0  0  0  0
 10 22  1  0  0  0  0
 10 13  1  0  0  0  0
 11 17  1  0  0  0  0
 11  8  2  0  0  0  0
 12 20  2  0  0  0  0
 13 18  2  0  0  0  0
 14 10  1  0  0  0  0
 15  9  2  0  0  0  0
 15 33  1  0  0  0  0
 16 14  2  0  0  0  0
 16  9  1  0  0  0  0
 17 12  1  1  0  0  0
 17 16  1  0  0  0  0
 19 13  1  0  0  0  0
 20 15  1  0  0  0  0
 21 18  1  0  0  0  0
 22 21  2  0  0  0  0
 23 26  1  1  0  0  0
 24 23  1  0  0  0  0
 25 21  1  6  0  0  0
 25 24  1  0  0  0  0
 25 23  1  0  0  0  0
 27 30  1  0  0  0  0
 28 30  1  0  0  0  0
 29 28  1  1  0  0  0
 31 26  1  6  0  0  0
 31 32  1  0  0  0  0
 31 29  1  0  0  0  0
 32 29  1  0  0  0  0
 32 27  1  1  0  0  0
 33 34  1  0  0  0  0
 35 36  1  0  0  0  0
 36 34  1  0  0  0  0
 38 37  1  0  0  0  0
 38 41  1  0  0  0  0
 40 39  2  0  0  0  0
 41 39  1  0  0  0  0
 42 50  1  6  0  0  0
 42 48  1  0  0  0  0
 43 39  1  6  0  0  0
 43 42  1  0  0  0  0
 43 47  1  0  0  0  0
 44 46  1  0  0  0  0
 44 49  1  1  0  0  0
 45 44  1  0  0  0  0
 47 45  1  6  0  0  0
 47 44  1  0  0  0  0
 48 46  1  0  0  0  0
 50 51  1  0  0  0  0
 51 52  1  6  0  0  0
 51 53  1  0  0  0  0
 53 54  1  1  0  0  0
 55 53  1  0  0  0  0
 55 56  1  0  0  0  0
 57  3  1  0  0  0  0
 57 58  1  0  0  0  0
 60 59  1  0  0  0  0
 60 58  1  0  0  0  0
M  END
>  <MODEL>
5

>  <REMARK>
 VINA RESULT:      -6.9      2.796     10.090
  Name = 
  18 active torsions:
  status: ('A' for Active; 'I' for Inactive)
    1  A    between atoms: C_2  and  C_11
    2  A    between atoms: C_6  and  C_51
    3  A    between atoms: C_9  and  O_27
    4  A    between atoms: C_12  and  C_54
    5  A    between atoms: C_13  and  C_52
    6  A    between atoms: C_13  and  C_54
    7  A    between atoms: N_20  and  C_24
    8  A    between atoms: N_20  and  C_35
    9  A    between atoms: C_21  and  C_38
   10  A    between atoms: C_21  and  C_58
   11  A    between atoms: O_27  and  C_41
   12  A    between atoms: C_30  and  CA_49
   13  A    between atoms: C_31  and  C_33
   14  A    between atoms: C_33  and  C_45
   15  A    between atoms: C_35  and  C_44
   16  A    between atoms: C_36  and  C_47
   17  A    between atoms: C_38  and  N_57
   18  A    between atoms: C_41  and  CA_49
                            x       y       z     vdW  Elec       q    Type
                         _______ _______ _______ _____ _____    ______ ____

>  <TORSDO>
F 18

$$$$
=
 OpenBabel10222415223D

 60 69  0  0  1  0  0  0  0  0999 V2000
  189.1820  177.3550  141.2510 C   0  0  0  0  0  3  0  0  0  0  0  0
  186.6160  177.9310  142.2320 C   0  0  0  0  0  0  0  0  0  0  0  0
  188.7870  176.8520  142.4950 C   0  0  0  0  0  0  0  0  0  0  0  0
  187.0240  178.4130  140.9820 C   0  0  0  0  0  3  0  0  0  0  0  0
  187.0990  176.6140  144.2150 O   0  0  0  0  0  1  0  0  0  0  0  0
  187.5010  177.1390  142.9900 C   0  0  0  0  0  0  0  0  0  0  0  0
  188.2990  178.1250  140.4860 C   0  0  0  0  0  0  0  0  0  0  0  0
  184.7800  178.3840  139.4460 C   0  0  0  0  0  3  0  0  0  0  0  0
  181.5940  178.8660  140.9760 C   0  0  0  0  0  0  0  0  0  0  0  0
  184.1590  178.4160  141.9800 N   0  0  0  0  0  0  0  0  0  0  0  0
  184.0830  178.5110  138.3550 N   0  0  0  0  0  0  0  0  0  0  0  0
  181.7760  179.4460  138.1540 C   0  0  0  0  0  3  0  0  0  0  0  0
  183.1610  178.6830  142.8480 C   0  0  0  0  0  0  0  0  0  0  0  0
  183.8900  178.1980  140.5850 C   0  0  0  0  0  0  0  0  0  0  0  0
  180.6640  179.6310  140.3790 C   0  0  0  0  0  0  0  0  0  0  0  0
  182.6560  178.2860  140.1360 C   0  0  0  0  0  0  0  0  0  0  0  0
  182.6620  178.3340  138.6590 C   0  0  2  0  0  3  0  0  0  0  0  0
  183.5600  178.7360  144.1320 N   0  0  0  0  0  0  0  0  0  0  0  0
  181.8170  178.9200  142.3990 N   0  0  0  0  0  2  0  0  0  0  0  0
  180.8220  179.9850  138.9340 C   0  0  0  0  0  3  0  0  0  0  0  0
  184.8900  178.4690  144.0580 C   0  0  0  0  0  0  0  0  0  0  0  0
  185.2670  178.2640  142.7330 C   0  0  0  0  0  0  0  0  0  0  0  0
  185.0080  178.5380  146.5230 C   0  0  1  0  0  3  0  0  0  0  0  0
  185.7560  179.7500  146.0150 C   0  0  0  0  0  2  0  0  0  0  0  0
  185.8150  178.4390  145.2410 C   0  0  2  0  0  3  0  0  0  0  0  0
  185.7770  177.9480  147.6870 C   0  0  0  0  0  2  0  0  0  0  0  0
  189.3400  178.5170  148.4720 C   0  0  0  0  0  2  0  0  0  0  0  0
  189.2630  176.7460  146.9950 C   0  0  0  0  0  2  0  0  0  0  0  0
  187.9340  176.8200  147.7030 C   0  0  2  0  0  3  0  0  0  0  0  0
  190.1850  177.6000  147.7220 N   0  0  0  0  0  2  0  0  0  0  0  0
  187.2700  178.0900  147.4230 C   0  0  2  0  0  3  0  0  0  0  0  0
  188.0260  177.9150  148.6770 N   0  0  2  0  0  0  0  0  0  0  0  0
  179.6440  180.2600  141.1620 N   0  0  0  0  0  2  0  0  0  0  0  0
  179.2210  181.6290  140.9140 C   0  0  0  0  0  2  0  0  0  0  0  0
  179.1840  183.1580  139.0920 O   0  0  0  0  0  1  0  0  0  0  0  0
  178.9310  181.8300  139.4390 C   0  0  0  0  0  2  0  0  0  0  0  0
  188.7000  178.6310  139.1400 C   0  0  0  0  0  2  0  0  0  0  0  0
  190.0140  177.9920  138.7160 C   0  0  0  0  0  2  0  0  0  0  0  0
  188.5230  177.0400  136.9540 C   0  0  0  0  0  0  0  0  0  0  0  0
  187.7840  178.0610  136.9740 O   0  0  0  0  0  0  0  0  0  0  0  0
  189.8000  177.0910  137.5990 N   0  0  0  0  0  2  0  0  0  0  0  0
  186.9040  175.0890  136.9380 C   0  0  2  0  0  3  0  0  0  0  0  0
  188.0750  175.7990  136.2110 C   0  0  2  0  0  3  0  0  0  0  0  0
  189.0230  173.3980  136.2140 C   0  0  1  0  0  0  0  0  0  0  0  0
  189.9090  174.2510  137.0850 C   0  0  0  0  0  2  0  0  0  0  0  0
  187.6970  172.9930  136.8470 C   0  0  0  0  0  2  0  0  0  0  0  0
  189.2550  174.8620  135.8420 C   0  0  2  0  0  3  0  0  0  0  0  0
  186.6720  173.8210  136.3760 O   0  0  0  0  0  0  0  0  0  0  0  0
  189.7160  172.4690  135.4390 O   0  0  0  0  0  1  0  0  0  0  0  0
  185.7440  175.8650  136.8110 O   0  0  0  0  0  0  0  0  0  0  0  0
  184.6740  174.9590  136.8010 C   0  0  1  0  0  3  0  0  0  0  0  0
  183.9140  175.1160  137.9650 O   0  0  0  0  0  1  0  0  0  0  0  0
  183.8110  175.2010  135.5620 C   0  0  2  0  0  3  0  0  0  0  0  0
  183.2510  176.5450  135.5840 N   0  0  0  0  0  1  0  0  0  0  0  0
  182.6920  174.1730  135.4920 C   0  0  0  0  0  2  0  0  0  0  0  0
  183.2150  172.8830  135.5730 O   0  0  0  0  0  1  0  0  0  0  0  0
  189.7260  175.9860  143.2620 C   0  0  0  0  0  2  0  0  0  0  0  0
  191.1540  176.4730  143.1090 C   0  0  0  0  0  2  0  0  0  0  0  0
  191.6550  178.7380  143.9600 C   0  0  0  0  0  1  0  0  0  0  0  0
  191.5380  177.2780  144.3290 C   0  0  0  0  0  2  0  0  0  0  0  0
  1  3  1  0  0  0  0
  2 22  1  0  0  0  0
  2  6  1  0  0  0  0
  3  6  2  0  0  0  0
  3 57  1  0  0  0  0
  4  2  2  0  0  0  0
  6  5  1  0  0  0  0
  7  4  1  0  0  0  0
  7  1  2  0  0  0  0
  8 14  1  0  0  0  0
  9 19  1  0  0  0  0
 10 22  1  0  0  0  0
 10 13  1  0  0  0  0
 11 17  1  0  0  0  0
 11  8  2  0  0  0  0
 12 20  2  0  0  0  0
 13 18  2  0  0  0  0
 14 10  1  0  0  0  0
 15  9  2  0  0  0  0
 15 33  1  0  0  0  0
 16 14  2  0  0  0  0
 16  9  1  0  0  0  0
 17 12  1  1  0  0  0
 17 16  1  0  0  0  0
 19 13  1  0  0  0  0
 20 15  1  0  0  0  0
 21 18  1  0  0  0  0
 22 21  2  0  0  0  0
 23 26  1  1  0  0  0
 24 23  1  0  0  0  0
 25 21  1  6  0  0  0
 25 24  1  0  0  0  0
 25 23  1  0  0  0  0
 28 30  1  0  0  0  0
 29 28  1  6  0  0  0
 29 32  1  0  0  0  0
 30 27  1  0  0  0  0
 31 26  1  1  0  0  0
 31 29  1  0  0  0  0
 31 32  1  0  0  0  0
 32 27  1  6  0  0  0
 34 33  1  0  0  0  0
 35 36  1  0  0  0  0
 36 34  1  0  0  0  0
 37  7  1  0  0  0  0
 38 37  1  0  0  0  0
 39 40  2  0  0  0  0
 39 41  1  0  0  0  0
 41 38  1  0  0  0  0
 42 50  1  6  0  0  0
 43 42  1  0  0  0  0
 43 39  1  1  0  0  0
 44 49  1  6  0  0  0
 44 46  1  0  0  0  0
 44 45  1  0  0  0  0
 47 43  1  0  0  0  0
 47 44  1  0  0  0  0
 47 45  1  1  0  0  0
 48 46  1  0  0  0  0
 48 42  1  0  0  0  0
 51 50  1  0  0  0  0
 51 52  1  1  0  0  0
 53 54  1  1  0  0  0
 53 51  1  0  0  0  0
 55 53  1  0  0  0  0
 55 56  1  0  0  0  0
 58 57  1  0  0  0  0
 58 60  1  0  0  0  0
 59 60  1  0  0  0  0
M  END
>  <MODEL>
6

>  <REMARK>
 VINA RESULT:      -6.8      1.807      2.520
  Name = 
  18 active torsions:
  status: ('A' for Active; 'I' for Inactive)
    1  A    between atoms: C_2  and  C_11
    2  A    between atoms: C_6  and  C_51
    3  A    between atoms: C_9  and  O_27
    4  A    between atoms: C_12  and  C_54
    5  A    between atoms: C_13  and  C_52
    6  A    between atoms: C_13  and  C_54
    7  A    between atoms: N_20  and  C_24
    8  A    between atoms: N_20  and  C_35
    9  A    between atoms: C_21  and  C_38
   10  A    between atoms: C_21  and  C_58
   11  A    between atoms: O_27  and  C_41
   12  A    between atoms: C_30  and  CA_49
   13  A    between atoms: C_31  and  C_33
   14  A    between atoms: C_33  and  C_45
   15  A    between atoms: C_35  and  C_44
   16  A    between atoms: C_36  and  C_47
   17  A    between atoms: C_38  and  N_57
   18  A    between atoms: C_41  and  CA_49
                            x       y       z     vdW  Elec       q    Type
                         _______ _______ _______ _____ _____    ______ ____

>  <TORSDO>
F 18

$$$$
=
 OpenBabel10222415223D

 60 69  0  0  1  0  0  0  0  0999 V2000
  181.2190  178.1870  139.5800 C   0  0  0  0  0  3  0  0  0  0  0  0
  183.9880  178.4650  139.9430 C   0  0  0  0  0  0  0  0  0  0  0  0
  181.8610  179.3530  139.1490 C   0  0  0  0  0  0  0  0  0  0  0  0
  183.3310  177.3000  140.3550 C   0  0  0  0  0  3  0  0  0  0  0  0
  183.8910  180.6440  138.8730 O   0  0  0  0  0  1  0  0  0  0  0  0
  183.2490  179.4950  139.3290 C   0  0  0  0  0  0  0  0  0  0  0  0
  181.9530  177.1530  140.1720 C   0  0  0  0  0  0  0  0  0  0  0  0
  185.3660  177.2870  137.1060 C   0  0  0  0  0  3  0  0  0  0  0  0
  188.7850  178.0020  137.8320 C   0  0  0  0  0  0  0  0  0  0  0  0
  186.4050  178.3560  139.2480 N   0  0  0  0  0  0  0  0  0  0  0  0
  185.8710  176.8680  135.9830 N   0  0  0  0  0  0  0  0  0  0  0  0
  188.2710  176.3450  135.5260 C   0  0  0  0  0  3  0  0  0  0  0  0
  187.5730  178.6260  139.8670 C   0  0  0  0  0  0  0  0  0  0  0  0
  186.3620  178.0550  137.8430 C   0  0  0  0  0  0  0  0  0  0  0  0
  189.7620  177.2400  137.3140 C   0  0  0  0  0  0  0  0  0  0  0  0
  187.4800  178.0140  137.1490 C   0  0  0  0  0  0  0  0  0  0  0  0
  187.2300  177.3940  135.8310 C   0  0  2  0  0  3  0  0  0  0  0  0
  187.4310  179.0100  141.1480 N   0  0  0  0  0  0  0  0  0  0  0  0
  188.8340  178.4710  139.1950 N   0  0  0  0  0  2  0  0  0  0  0  0
  189.4520  176.3270  136.1690 C   0  0  0  0  0  3  0  0  0  0  0  0
  186.0850  178.9920  141.3330 C   0  0  0  0  0  0  0  0  0  0  0  0
  185.4440  178.5950  140.1630 C   0  0  0  0  0  0  0  0  0  0  0  0
  185.8750  178.3640  143.7120 C   0  0  1  0  0  3  0  0  0  0  0  0
  184.5120  178.1730  143.0860 C   0  0  0  0  0  2  0  0  0  0  0  0
  185.4040  179.3200  142.6310 C   0  0  2  0  0  3  0  0  0  0  0  0
  185.6950  178.9780  145.0850 C   0  0  0  0  0  2  0  0  0  0  0  0
  187.7720  177.5460  147.7820 C   0  0  0  0  0  2  0  0  0  0  0  0
  189.0470  177.4810  145.8590 C   0  0  0  0  0  2  0  0  0  0  0  0
  187.5950  177.5020  145.4540 C   0  0  2  0  0  3  0  0  0  0  0  0
  189.0920  177.1920  147.2810 N   0  0  0  0  0  2  0  0  0  0  0  0
  186.9480  178.7280  145.9130 C   0  0  2  0  0  3  0  0  0  0  0  0
  186.8030  177.4840  146.6910 N   0  0  2  0  0  0  0  0  0  0  0  0
  191.0290  177.1530  137.9730 N   0  0  0  0  0  2  0  0  0  0  0  0
  191.5200  175.9040  138.5330 C   0  0  0  0  0  2  0  0  0  0  0  0
  193.8950  176.0490  138.5250 O   0  0  0  0  0  1  0  0  0  0  0  0
  192.8090  175.4920  137.8470 C   0  0  0  0  0  2  0  0  0  0  0  0
  181.2810  175.8900  140.5990 C   0  0  0  0  0  2  0  0  0  0  0  0
  179.7810  176.1150  140.7180 C   0  0  0  0  0  2  0  0  0  0  0  0
  179.3230  174.9140  138.5760 C   0  0  0  0  0  0  0  0  0  0  0  0
  179.5300  173.7940  139.1170 O   0  0  0  0  0  0  0  0  0  0  0  0
  179.1590  176.0680  139.4070 N   0  0  0  0  0  2  0  0  0  0  0  0
  180.3850  174.3160  136.3540 C   0  0  2  0  0  3  0  0  0  0  0  0
  179.2010  175.0140  137.0710 C   0  0  2  0  0  3  0  0  0  0  0  0
  179.8470  176.9170  135.4500 C   0  0  1  0  0  0  0  0  0  0  0  0
  180.1220  177.3870  136.8560 C   0  0  0  0  0  2  0  0  0  0  0  0
  180.8720  175.9410  134.8870 C   0  0  0  0  0  2  0  0  0  0  0  0
  178.9310  176.4630  136.5860 C   0  0  2  0  0  3  0  0  0  0  0  0
  180.3860  174.6320  134.9840 O   0  0  0  0  0  0  0  0  0  0  0  0
  179.3200  177.9030  134.6170 O   0  0  0  0  0  1  0  0  0  0  0  0
  180.2600  172.9280  136.5030 O   0  0  0  0  0  0  0  0  0  0  0  0
  181.5280  172.4650  136.8830 C   0  0  1  0  0  3  0  0  0  0  0  0
  181.4120  171.6560  138.0180 O   0  0  0  0  0  1  0  0  0  0  0  0
  182.1530  171.6810  135.7280 C   0  0  2  0  0  3  0  0  0  0  0  0
  181.6940  170.2990  135.7410 N   0  0  0  0  0  1  0  0  0  0  0  0
  183.6700  171.7250  135.8240 C   0  0  0  0  0  2  0  0  0  0  0  0
  184.1730  172.7770  135.0580 O   0  0  0  0  0  1  0  0  0  0  0  0
  181.0650  180.4120  138.4680 C   0  0  0  0  0  2  0  0  0  0  0  0
  179.9230  180.8790  139.3500 C   0  0  0  0  0  2  0  0  0  0  0  0
  179.9250  182.4230  137.4220 C   0  0  0  0  0  1  0  0  0  0  0  0
  179.1480  181.9570  138.6300 C   0  0  0  0  0  2  0  0  0  0  0  0
  1  7  1  0  0  0  0
  2 22  1  0  0  0  0
  2  4  1  0  0  0  0
  3  6  1  0  0  0  0
  3  1  2  0  0  0  0
  5  6  1  0  0  0  0
  6  2  2  0  0  0  0
  7  4  2  0  0  0  0
  7 37  1  0  0  0  0
  8 14  1  0  0  0  0
  9 19  1  0  0  0  0
 10 13  1  0  0  0  0
 10 22  1  0  0  0  0
 11  8  2  0  0  0  0
 12 20  2  0  0  0  0
 13 18  2  0  0  0  0
 14 10  1  0  0  0  0
 15  9  2  0  0  0  0
 15 33  1  0  0  0  0
 16  9  1  0  0  0  0
 16 14  2  0  0  0  0
 17 12  1  1  0  0  0
 17 11  1  0  0  0  0
 17 16  1  0  0  0  0
 18 21  1  0  0  0  0
 19 13  1  0  0  0  0
 20 15  1  0  0  0  0
 22 21  2  0  0  0  0
 23 26  1  1  0  0  0
 24 23  1  0  0  0  0
 25 21  1  6  0  0  0
 25 24  1  0  0  0  0
 25 23  1  0  0  0  0
 28 30  1  0  0  0  0
 29 28  1  1  0  0  0
 29 31  1  0  0  0  0
 29 32  1  0  0  0  0
 30 27  1  0  0  0  0
 31 26  1  6  0  0  0
 31 32  1  0  0  0  0
 32 27  1  1  0  0  0
 33 34  1  0  0  0  0
 36 35  1  0  0  0  0
 36 34  1  0  0  0  0
 37 38  1  0  0  0  0
 39 40  2  0  0  0  0
 39 41  1  0  0  0  0
 41 38  1  0  0  0  0
 42 50  1  6  0  0  0
 42 43  1  0  0  0  0
 43 39  1  1  0  0  0
 44 49  1  6  0  0  0
 44 47  1  0  0  0  0
 44 45  1  0  0  0  0
 46 48  1  0  0  0  0
 46 44  1  0  0  0  0
 47 45  1  1  0  0  0
 47 43  1  0  0  0  0
 48 42  1  0  0  0  0
 50 51  1  0  0  0  0
 51 52  1  1  0  0  0
 53 54  1  1  0  0  0
 53 55  1  0  0  0  0
 53 51  1  0  0  0  0
 56 55  1  0  0  0  0
 57  3  1  0  0  0  0
 57 58  1  0  0  0  0
 59 60  1  0  0  0  0
 60 58  1  0  0  0  0
M  END
>  <MODEL>
7

>  <REMARK>
 VINA RESULT:      -6.6      3.362      8.558
  Name = 
  18 active torsions:
  status: ('A' for Active; 'I' for Inactive)
    1  A    between atoms: C_2  and  C_11
    2  A    between atoms: C_6  and  C_51
    3  A    between atoms: C_9  and  O_27
    4  A    between atoms: C_12  and  C_54
    5  A    between atoms: C_13  and  C_52
    6  A    between atoms: C_13  and  C_54
    7  A    between atoms: N_20  and  C_24
    8  A    between atoms: N_20  and  C_35
    9  A    between atoms: C_21  and  C_38
   10  A    between atoms: C_21  and  C_58
   11  A    between atoms: O_27  and  C_41
   12  A    between atoms: C_30  and  CA_49
   13  A    between atoms: C_31  and  C_33
   14  A    between atoms: C_33  and  C_45
   15  A    between atoms: C_35  and  C_44
   16  A    between atoms: C_36  and  C_47
   17  A    between atoms: C_38  and  N_57
   18  A    between atoms: C_41  and  CA_49
                            x       y       z     vdW  Elec       q    Type
                         _______ _______ _______ _____ _____    ______ ____

>  <TORSDO>
F 18

$$$$
=
 OpenBabel10222415223D

 60 69  0  0  1  0  0  0  0  0999 V2000
  186.0050  176.6420  137.0590 C   0  0  0  0  0  3  0  0  0  0  0  0
  188.6020  176.6410  138.1230 C   0  0  0  0  0  0  0  0  0  0  0  0
  186.8360  175.5350  136.8560 C   0  0  0  0  0  0  0  0  0  0  0  0
  187.7510  177.7330  138.3280 C   0  0  0  0  0  3  0  0  0  0  0  0
  188.9550  174.4170  137.2100 O   0  0  0  0  0  1  0  0  0  0  0  0
  188.1390  175.5320  137.3880 C   0  0  0  0  0  0  0  0  0  0  0  0
  186.4540  177.7370  137.8050 C   0  0  0  0  0  0  0  0  0  0  0  0
  190.5500  175.5570  135.5990 C   0  0  0  0  0  3  0  0  0  0  0  0
  193.7340  176.0280  137.1380 C   0  0  0  0  0  0  0  0  0  0  0  0
  191.1070  176.4330  137.9930 N   0  0  0  0  0  0  0  0  0  0  0  0
  191.2840  175.1780  134.5940 N   0  0  0  0  0  0  0  0  0  0  0  0
  193.6990  174.5450  134.6620 C   0  0  0  0  0  3  0  0  0  0  0  0
  192.1100  176.5980  138.8800 C   0  0  0  0  0  0  0  0  0  0  0  0
  191.3790  176.2210  136.5980 C   0  0  0  0  0  0  0  0  0  0  0  0
  194.7710  175.2430  136.8030 C   0  0  0  0  0  0  0  0  0  0  0  0
  192.6240  176.1570  136.1770 C   0  0  0  0  0  0  0  0  0  0  0  0
  192.6610  175.6320  134.7960 C   0  0  2  0  0  3  0  0  0  0  0  0
  191.6910  176.9120  140.1200 N   0  0  0  0  0  0  0  0  0  0  0  0
  193.4850  176.4100  138.5050 N   0  0  0  0  0  2  0  0  0  0  0  0
  194.6970  174.4210  135.5550 C   0  0  0  0  0  3  0  0  0  0  0  0
  190.3390  176.9600  139.9890 C   0  0  0  0  0  0  0  0  0  0  0  0
  189.9710  176.6720  138.6780 C   0  0  0  0  0  0  0  0  0  0  0  0
  190.1680  177.4120  142.4100 C   0  0  1  0  0  3  0  0  0  0  0  0
  189.4110  176.1300  142.1500 C   0  0  0  0  0  2  0  0  0  0  0  0
  189.3900  177.2490  141.1170 C   0  0  2  0  0  3  0  0  0  0  0  0
  189.3830  178.2430  143.4050 C   0  0  0  0  0  2  0  0  0  0  0  0
  189.6230  177.7020  147.0500 C   0  0  0  0  0  2  0  0  0  0  0  0
  191.4490  176.6540  146.1050 C   0  0  0  0  0  2  0  0  0  0  0  0
  190.3710  176.7490  145.0550 C   0  0  2  0  0  3  0  0  0  0  0  0
  190.8310  176.9630  147.3820 N   0  0  0  0  0  2  0  0  0  0  0  0
  190.0470  178.1450  144.7720 C   0  0  2  0  0  3  0  0  0  0  0  0
  189.2010  177.3650  145.6940 N   0  0  2  0  0  0  0  0  0  0  0  0
  195.8460  175.0440  137.7270 N   0  0  0  0  0  2  0  0  0  0  0  0
  196.8050  173.9630  137.5680 C   0  0  0  0  0  2  0  0  0  0  0  0
  198.7620  175.1950  137.0090 O   0  0  0  0  0  1  0  0  0  0  0  0
  198.1840  174.4140  138.0110 C   0  0  0  0  0  2  0  0  0  0  0  0
  185.5580  178.9040  138.0590 C   0  0  0  0  0  2  0  0  0  0  0  0
  184.3300  178.4560  138.8360 C   0  0  0  0  0  2  0  0  0  0  0  0
  182.0250  179.2540  139.3710 C   0  0  0  0  0  0  0  0  0  0  0  0
  182.0910  178.7810  140.5380 O   0  0  0  0  0  0  0  0  0  0  0  0
  183.2220  179.3620  138.5950 N   0  0  0  0  0  2  0  0  0  0  0  0
  180.4980  179.3350  137.3490 C   0  0  2  0  0  3  0  0  0  0  0  0
  180.6980  179.7440  138.8300 C   0  0  2  0  0  3  0  0  0  0  0  0
  180.0110  182.0450  137.8830 C   0  0  1  0  0  0  0  0  0  0  0  0
  181.4430  182.1390  138.3450 C   0  0  0  0  0  2  0  0  0  0  0  0
  179.8100  181.3180  136.5600 C   0  0  0  0  0  2  0  0  0  0  0  0
  180.4570  181.2510  139.1100 C   0  0  2  0  0  3  0  0  0  0  0  0
  179.3910  180.0040  136.7980 O   0  0  0  0  0  0  0  0  0  0  0  0
  179.2540  183.1850  138.1530 O   0  0  0  0  0  1  0  0  0  0  0  0
  180.2780  177.9520  137.2780 O   0  0  0  0  0  0  0  0  0  0  0  0
  180.7170  177.5560  136.0080 C   0  0  1  0  0  3  0  0  0  0  0  0
  181.9240  178.1970  135.7060 O   0  0  0  0  0  1  0  0  0  0  0  0
  180.8980  176.0370  135.9800 C   0  0  2  0  0  3  0  0  0  0  0  0
  180.4440  175.4920  134.7080 N   0  0  0  0  0  1  0  0  0  0  0  0
  180.1280  175.3960  137.1240 C   0  0  0  0  0  2  0  0  0  0  0  0
  181.0020  174.7280  137.9810 O   0  0  0  0  0  1  0  0  0  0  0  0
  186.3120  174.3580  136.1080 C   0  0  0  0  0  2  0  0  0  0  0  0
  185.7150  173.3390  137.0590 C   0  0  0  0  0  2  0  0  0  0  0  0
  183.6350  173.1020  135.7480 C   0  0  0  0  0  1  0  0  0  0  0  0
  184.2140  173.5020  137.0840 C   0  0  0  0  0  2  0  0  0  0  0  0
  1  7  1  0  0  0  0
  2  4  1  0  0  0  0
  2 22  1  0  0  0  0
  3  1  2  0  0  0  0
  3  6  1  0  0  0  0
  5  6  1  0  0  0  0
  6  2  2  0  0  0  0
  7 37  1  0  0  0  0
  7  4  2  0  0  0  0
  8 14  1  0  0  0  0
  9 19  1  0  0  0  0
 10 22  1  0  0  0  0
 10 13  1  0  0  0  0
 11 17  1  0  0  0  0
 11  8  2  0  0  0  0
 12 20  2  0  0  0  0
 13 18  2  0  0  0  0
 14 10  1  0  0  0  0
 15  9  2  0  0  0  0
 15 33  1  0  0  0  0
 16 14  2  0  0  0  0
 16  9  1  0  0  0  0
 17 12  1  1  0  0  0
 17 16  1  0  0  0  0
 19 13  1  0  0  0  0
 20 15  1  0  0  0  0
 21 18  1  0  0  0  0
 22 21  2  0  0  0  0
 23 26  1  1  0  0  0
 24 23  1  0  0  0  0
 25 21  1  6  0  0  0
 25 24  1  0  0  0  0
 25 23  1  0  0  0  0
 27 30  1  0  0  0  0
 28 30  1  0  0  0  0
 29 32  1  0  0  0  0
 29 28  1  1  0  0  0
 31 26  1  6  0  0  0
 31 29  1  0  0  0  0
 31 32  1  0  0  0  0
 32 27  1  1  0  0  0
 34 33  1  0  0  0  0
 34 36  1  0  0  0  0
 35 36  1  0  0  0  0
 37 38  1  0  0  0  0
 39 40  2  0  0  0  0
 41 38  1  0  0  0  0
 41 39  1  0  0  0  0
 42 50  1  1  0  0  0
 42 43  1  0  0  0  0
 43 47  1  0  0  0  0
 43 39  1  6  0  0  0
 44 49  1  1  0  0  0
 44 45  1  0  0  0  0
 44 47  1  0  0  0  0
 46 48  1  0  0  0  0
 46 44  1  0  0  0  0
 47 45  1  6  0  0  0
 48 42  1  0  0  0  0
 51 52  1  1  0  0  0
 51 50  1  0  0  0  0
 53 54  1  6  0  0  0
 53 51  1  0  0  0  0
 53 55  1  0  0  0  0
 55 56  1  0  0  0  0
 57  3  1  0  0  0  0
 57 58  1  0  0  0  0
 58 60  1  0  0  0  0
 59 60  1  0  0  0  0
M  END
>  <MODEL>
8

>  <REMARK>
 VINA RESULT:      -6.4      3.353     10.093
  Name = 
  18 active torsions:
  status: ('A' for Active; 'I' for Inactive)
    1  A    between atoms: C_2  and  C_11
    2  A    between atoms: C_6  and  C_51
    3  A    between atoms: C_9  and  O_27
    4  A    between atoms: C_12  and  C_54
    5  A    between atoms: C_13  and  C_52
    6  A    between atoms: C_13  and  C_54
    7  A    between atoms: N_20  and  C_24
    8  A    between atoms: N_20  and  C_35
    9  A    between atoms: C_21  and  C_38
   10  A    between atoms: C_21  and  C_58
   11  A    between atoms: O_27  and  C_41
   12  A    between atoms: C_30  and  CA_49
   13  A    between atoms: C_31  and  C_33
   14  A    between atoms: C_33  and  C_45
   15  A    between atoms: C_35  and  C_44
   16  A    between atoms: C_36  and  C_47
   17  A    between atoms: C_38  and  N_57
   18  A    between atoms: C_41  and  CA_49
                            x       y       z     vdW  Elec       q    Type
                         _______ _______ _______ _____ _____    ______ ____

>  <TORSDO>
F 18

$$$$
=
 OpenBabel10222415223D

 60 69  0  0  1  0  0  0  0  0999 V2000
  186.3560  175.5040  136.7700 C   0  0  0  0  0  3  0  0  0  0  0  0
  188.9280  176.0200  137.7660 C   0  0  0  0  0  0  0  0  0  0  0  0
  187.2600  174.4480  136.9350 C   0  0  0  0  0  0  0  0  0  0  0  0
  188.0060  177.0610  137.6080 C   0  0  0  0  0  3  0  0  0  0  0  0
  189.4390  173.6490  137.6250 O   0  0  0  0  0  1  0  0  0  0  0  0
  188.5500  174.7040  137.4340 C   0  0  0  0  0  0  0  0  0  0  0  0
  186.7210  176.8090  137.1170 C   0  0  0  0  0  0  0  0  0  0  0  0
  190.9970  174.6260  135.5040 C   0  0  0  0  0  3  0  0  0  0  0  0
  194.1020  175.7660  136.8430 C   0  0  0  0  0  0  0  0  0  0  0  0
  191.4420  176.0620  137.6380 N   0  0  0  0  0  0  0  0  0  0  0  0
  191.7750  174.1170  134.5940 N   0  0  0  0  0  0  0  0  0  0  0  0
  194.2440  173.7810  134.7530 C   0  0  0  0  0  3  0  0  0  0  0  0
  192.4160  176.5250  138.4490 C   0  0  0  0  0  0  0  0  0  0  0  0
  191.7440  175.5790  136.3180 C   0  0  0  0  0  0  0  0  0  0  0  0
  195.2210  175.0430  136.6700 C   0  0  0  0  0  0  0  0  0  0  0  0
  192.9910  175.5590  135.8980 C   0  0  0  0  0  0  0  0  0  0  0  0
  193.0930  174.7510  134.6650 C   0  0  2  0  0  3  0  0  0  0  0  0
  191.9580  177.0560  139.5970 N   0  0  0  0  0  0  0  0  0  0  0  0
  193.8050  176.4090  138.0980 N   0  0  0  0  0  2  0  0  0  0  0  0
  195.2450  173.9640  135.6330 C   0  0  0  0  0  3  0  0  0  0  0  0
  190.6100  176.9280  139.4850 C   0  0  0  0  0  0  0  0  0  0  0  0
  190.2830  176.3210  138.2750 C   0  0  0  0  0  0  0  0  0  0  0  0
  190.3350  177.4680  141.8780 C   0  0  1  0  0  3  0  0  0  0  0  0
  189.4580  176.2690  141.5960 C   0  0  0  0  0  2  0  0  0  0  0  0
  189.6280  177.3530  140.5400 C   0  0  2  0  0  3  0  0  0  0  0  0
  189.5860  178.4090  142.7990 C   0  0  0  0  0  2  0  0  0  0  0  0
  189.4410  177.4120  146.3510 C   0  0  0  0  0  2  0  0  0  0  0  0
  191.5040  176.7440  145.5610 C   0  0  0  0  0  2  0  0  0  0  0  0
  190.5640  176.8440  144.3850 C   0  0  2  0  0  3  0  0  0  0  0  0
  190.6930  176.7950  146.7630 N   0  0  0  0  0  2  0  0  0  0  0  0
  190.0800  178.2120  144.2250 C   0  0  2  0  0  3  0  0  0  0  0  0
  189.2460  177.2120  144.9180 N   0  0  2  0  0  0  0  0  0  0  0  0
  196.3060  175.1690  137.5940 N   0  0  0  0  0  2  0  0  0  0  0  0
  196.5370  174.1920  138.6460 C   0  0  0  0  0  2  0  0  0  0  0  0
  197.7360  175.6850  140.0580 O   0  0  0  0  0  1  0  0  0  0  0  0
  196.5980  174.8790  139.9970 C   0  0  0  0  0  2  0  0  0  0  0  0
  185.7480  177.9330  136.9810 C   0  0  0  0  0  2  0  0  0  0  0  0
  184.4650  177.4330  136.3350 C   0  0  0  0  0  2  0  0  0  0  0  0
  183.6090  177.8970  138.6340 C   0  0  0  0  0  0  0  0  0  0  0  0
  184.5530  178.7000  138.8650 O   0  0  0  0  0  0  0  0  0  0  0  0
  183.3730  177.4670  137.2900 N   0  0  0  0  0  2  0  0  0  0  0  0
  181.5350  176.5760  139.2510 C   0  0  2  0  0  3  0  0  0  0  0  0
  182.7140  177.4410  139.7670 C   0  0  2  0  0  3  0  0  0  0  0  0
  180.7850  178.6520  140.9830 C   0  0  1  0  0  0  0  0  0  0  0  0
  181.3780  179.6090  139.9800 C   0  0  0  0  0  2  0  0  0  0  0  0
  179.8820  177.5780  140.3890 C   0  0  0  0  0  2  0  0  0  0  0  0
  182.2860  178.6060  140.6990 C   0  0  2  0  0  3  0  0  0  0  0  0
  180.5880  176.3750  140.2710 O   0  0  0  0  0  0  0  0  0  0  0  0
  180.4250  179.2500  142.1900 O   0  0  0  0  0  1  0  0  0  0  0  0
  182.0250  175.3320  138.8310 O   0  0  0  0  0  0  0  0  0  0  0  0
  181.0330  174.7860  138.0060 C   0  0  1  0  0  3  0  0  0  0  0  0
  180.4780  175.7920  137.2080 O   0  0  0  0  0  1  0  0  0  0  0  0
  181.6420  173.6870  137.1330 C   0  0  2  0  0  3  0  0  0  0  0  0
  181.5840  174.0600  135.7270 N   0  0  0  0  0  1  0  0  0  0  0  0
  180.9070  172.3740  137.3530 C   0  0  0  0  0  2  0  0  0  0  0  0
  179.6690  172.6070  137.9530 O   0  0  0  0  0  1  0  0  0  0  0  0
  186.8250  173.0600  136.6130 C   0  0  0  0  0  2  0  0  0  0  0  0
  186.3130  172.9730  135.1880 C   0  0  0  0  0  2  0  0  0  0  0  0
  184.7020  171.5600  136.4180 C   0  0  0  0  0  1  0  0  0  0  0  0
  184.9030  172.4300  135.2000 C   0  0  0  0  0  2  0  0  0  0  0  0
  1  3  2  0  0  0  0
  1  7  1  0  0  0  0
  2 22  1  0  0  0  0
  3  6  1  0  0  0  0
  4  2  1  0  0  0  0
  6  5  1  0  0  0  0
  6  2  2  0  0  0  0
  7  4  2  0  0  0  0
  8 14  1  0  0  0  0
  9 19  1  0  0  0  0
 10 22  1  0  0  0  0
 10 13  1  0  0  0  0
 11 17  1  0  0  0  0
 11  8  2  0  0  0  0
 12 20  2  0  0  0  0
 13 18  2  0  0  0  0
 14 10  1  0  0  0  0
 15  9  2  0  0  0  0
 15 33  1  0  0  0  0
 16 14  2  0  0  0  0
 16  9  1  0  0  0  0
 17 12  1  1  0  0  0
 17 16  1  0  0  0  0
 19 13  1  0  0  0  0
 20 15  1  0  0  0  0
 21 18  1  0  0  0  0
 22 21  2  0  0  0  0
 23 26  1  1  0  0  0
 24 23  1  0  0  0  0
 25 21  1  6  0  0  0
 25 24  1  0  0  0  0
 25 23  1  0  0  0  0
 27 30  1  0  0  0  0
 28 30  1  0  0  0  0
 29 32  1  0  0  0  0
 29 28  1  1  0  0  0
 31 26  1  6  0  0  0
 31 29  1  0  0  0  0
 31 32  1  0  0  0  0
 32 27  1  1  0  0  0
 33 34  1  0  0  0  0
 34 36  1  0  0  0  0
 36 35  1  0  0  0  0
 37  7  1  0  0  0  0
 38 37  1  0  0  0  0
 38 41  1  0  0  0  0
 39 40  2  0  0  0  0
 41 39  1  0  0  0  0
 42 50  1  1  0  0  0
 42 43  1  0  0  0  0
 42 48  1  0  0  0  0
 43 39  1  6  0  0  0
 43 47  1  0  0  0  0
 44 49  1  1  0  0  0
 45 44  1  0  0  0  0
 46 44  1  0  0  0  0
 47 45  1  6  0  0  0
 47 44  1  0  0  0  0
 48 46  1  0  0  0  0
 51 52  1  6  0  0  0
 51 50  1  0  0  0  0
 53 54  1  6  0  0  0
 53 55  1  0  0  0  0
 53 51  1  0  0  0  0
 55 56  1  0  0  0  0
 57  3  1  0  0  0  0
 58 60  1  0  0  0  0
 58 57  1  0  0  0  0
 60 59  1  0  0  0  0
M  END
>  <MODEL>
9

>  <REMARK>
 VINA RESULT:      -6.4      3.139      9.825
  Name = 
  18 active torsions:
  status: ('A' for Active; 'I' for Inactive)
    1  A    between atoms: C_2  and  C_11
    2  A    between atoms: C_6  and  C_51
    3  A    between atoms: C_9  and  O_27
    4  A    between atoms: C_12  and  C_54
    5  A    between atoms: C_13  and  C_52
    6  A    between atoms: C_13  and  C_54
    7  A    between atoms: N_20  and  C_24
    8  A    between atoms: N_20  and  C_35
    9  A    between atoms: C_21  and  C_38
   10  A    between atoms: C_21  and  C_58
   11  A    between atoms: O_27  and  C_41
   12  A    between atoms: C_30  and  CA_49
   13  A    between atoms: C_31  and  C_33
   14  A    between atoms: C_33  and  C_45
   15  A    between atoms: C_35  and  C_44
   16  A    between atoms: C_36  and  C_47
   17  A    between atoms: C_38  and  N_57
   18  A    between atoms: C_41  and  CA_49
                            x       y       z     vdW  Elec       q    Type
                         _______ _______ _______ _____ _____    ______ ____

>  <TORSDO>
F 18

$$$$
