=
 OpenBabel10222420423D

 66 71  0  0  1  0  0  0  0  0999 V2000
  189.3130  177.3450  142.1370 C   0  0  2  0  0  3  0  0  0  0  0  0
  187.2710  177.0490  143.5760 C   0  0  0  0  0  2  0  0  0  0  0  0
  188.5150  176.3770  143.0060 C   0  0  0  0  0  2  0  0  0  0  0  0
  186.2990  177.2470  142.5810 O   0  0  0  0  0  0  0  0  0  0  0  0
  187.3540  178.2250  140.6490 C   0  0  0  0  0  2  0  0  0  0  0  0
  188.6920  177.4520  140.7220 C   0  0  1  0  0  3  0  0  0  0  0  0
  186.6360  178.4700  141.9800 C   0  0  1  0  0  3  0  0  0  0  0  0
  185.4220  179.3160  141.7450 C   0  0  0  0  0  0  0  0  0  0  0  0
  184.9070  179.4420  140.4190 N   0  0  0  0  0  2  0  0  0  0  0  0
  184.8600  179.9230  142.6990 O   0  0  0  0  0  0  0  0  0  0  0  0
  183.0640  180.4070  139.1010 C   0  0  0  0  0  0  0  0  0  0  0  0
  183.5310  179.6320  140.2040 N   0  0  0  0  0  2  0  0  0  0  0  0
  183.8100  181.2740  138.5780 O   0  0  0  0  0  0  0  0  0  0  0  0
  181.6770  180.1980  138.5770 C   0  0  0  0  0  2  0  0  0  0  0  0
  180.5910  176.8550  139.8110 C   0  0  0  0  0  0  0  0  0  0  0  0
  181.3420  178.7790  138.5560 N   0  0  0  0  0  0  0  0  0  0  0  0
  181.6380  175.9960  139.1270 C   0  0  0  0  0  2  0  0  0  0  0  0
  181.9370  177.9320  137.5390 C   0  0  0  0  0  2  0  0  0  0  0  0
  180.5420  178.2020  139.6010 C   0  0  0  0  0  0  0  0  0  0  0  0
  182.6330  176.7740  138.2270 C   0  0  2  0  0  3  0  0  0  0  0  0
  183.3540  175.9700  137.2300 N   0  0  0  0  0  0  0  0  0  0  0  0
  182.9640  174.7840  135.1780 C   0  0  0  0  0  2  0  0  0  0  0  0
  182.8600  176.1270  135.8620 C   0  0  0  0  0  2  0  0  0  0  0  0
  183.1600  174.5680  137.5760 C   0  0  0  0  0  2  0  0  0  0  0  0
  183.1280  173.7720  136.2870 C   0  0  0  0  0  2  0  0  0  0  0  0
  178.9310  174.9100  140.1900 C   0  0  0  0  0  1  0  0  0  0  0  0
  179.4580  176.5060  141.8650 O   0  0  0  0  0  0  0  0  0  0  0  0
  179.6270  176.1390  140.6720 C   0  0  0  0  0  0  0  0  0  0  0  0
  179.7470  179.0720  140.3630 O   0  0  0  0  0  0  0  0  0  0  0  0
  180.1970  179.7650  141.5360 C   0  0  0  0  0  1  0  0  0  0  0  0
  190.7330  176.8510  142.1290 C   0  0  0  0  0  0  0  0  0  0  0  0
  190.9830  175.7140  141.7480 O   0  0  0  0  0  0  0  0  0  0  0  0
  191.8020  177.7170  142.7330 C   0  0  0  0  0  2  0  0  0  0  0  0
  191.2860  178.5090  143.9300 C   0  0  0  0  0  2  0  0  0  0  0  0
  190.6440  176.9700  147.3980 C   0  0  0  0  0  1  0  0  0  0  0  0
  191.5370  176.3750  145.1750 C   0  0  0  0  0  2  0  0  0  0  0  0
  191.6210  177.8810  145.2990 C   0  0  2  0  0  3  0  0  0  0  0  0
  190.4400  177.1220  145.8990 C   0  0  2  0  0  3  0  0  0  0  0  0
  189.6810  177.8430  139.6000 C   0  0  1  0  0  3  0  0  0  0  0  0
  191.4860  176.6560  138.3960 C   0  0  0  0  0  3  0  0  0  0  0  0
  190.2730  176.6180  138.9560 C   0  0  0  0  0  3  0  0  0  0  0  0
  194.0190  173.9070  137.4910 C   0  0  0  0  0  2  0  0  0  0  0  0
  193.3880  175.0610  138.1370 C   0  0  0  0  0  0  0  0  0  0  0  0
  195.2730  173.7220  138.2360 N   0  0  0  0  0  0  0  0  0  0  0  0
  194.2640  175.7250  139.0060 N   0  0  0  0  0  2  0  0  0  0  0  0
  192.1660  175.4950  137.8120 C   0  0  0  0  0  3  0  0  0  0  0  0
  195.5090  174.9610  139.0020 C   0  0  0  0  0  2  0  0  0  0  0  0
  196.4090  173.3940  137.3500 C   0  0  2  0  0  3  0  0  0  0  0  0
  196.7350  171.1790  135.9830 C   0  0  2  0  0  3  0  0  0  0  0  0
  196.8060  171.8770  137.3360 C   0  0  2  0  0  3  0  0  0  0  0  0
  195.0220  170.6220  137.4280 O   0  0  0  0  0  0  0  0  0  0  0  0
  196.3120  172.0460  134.9670 O   0  0  0  0  0  1  0  0  0  0  0  0
  195.6870  170.1350  136.3000 C   0  0  1  0  0  3  0  0  0  0  0  0
  195.9950  171.1080  138.1870 O   0  0  0  0  0  0  0  0  0  0  0  0
  194.7170  169.8120  135.1790 C   0  0  0  0  0  3  0  0  0  0  0  0
  193.6850  170.4580  135.0100 O   0  0  0  0  0  0  0  0  0  0  0  0
  197.5940  174.3170  137.6940 C   0  0  0  0  0  3  0  0  0  0  0  0
  198.7870  173.5870  137.7760 O   0  0  0  0  0  1  0  0  0  0  0  0
  197.7250  175.3390  136.7540 O   0  0  0  0  0  1  0  0  0  0  0  0
  189.0680  178.8000  138.5610 C   0  0  0  0  0  2  0  0  0  0  0  0
  188.5460  178.0550  137.3420 C   0  0  2  0  0  3  0  0  0  0  0  0
  189.3360  178.4260  136.1060 C   0  0  0  0  0  2  0  0  0  0  0  0
  189.6230  177.1990  135.2680 C   0  0  0  0  0  1  0  0  0  0  0  0
  187.0700  178.3650  137.1420 C   0  0  0  0  0  2  0  0  0  0  0  0
  186.4200  177.1800  136.5950 N   0  0  0  0  0  2  0  0  0  0  0  0
  186.9340  176.0490  137.3490 C   0  0  0  0  0  1  0  0  0  0  0  0
  1 31  1  6  0  0  0
  1  3  1  0  0  0  0
  3  2  1  0  0  0  0
  4  2  1  0  0  0  0
  5  6  1  0  0  0  0
  5  7  1  0  0  0  0
  6 39  1  6  0  0  0
  6  1  1  0  0  0  0
  7  8  1  6  0  0  0
  7  4  1  0  0  0  0
  8 10  2  0  0  0  0
  9  8  1  0  0  0  0
 11 12  1  0  0  0  0
 12  9  1  0  0  0  0
 13 11  2  0  0  0  0
 14 11  1  0  0  0  0
 15 28  1  0  0  0  0
 16 14  1  0  0  0  0
 16 19  1  0  0  0  0
 17 15  1  0  0  0  0
 18 20  1  0  0  0  0
 18 16  1  0  0  0  0
 19 15  2  0  0  0  0
 19 29  1  0  0  0  0
 20 21  1  6  0  0  0
 20 17  1  0  0  0  0
 21 24  1  0  0  0  0
 22 23  1  0  0  0  0
 22 25  1  0  0  0  0
 23 21  1  0  0  0  0
 25 24  1  0  0  0  0
 26 28  1  0  0  0  0
 28 27  2  0  0  0  0
 29 30  1  0  0  0  0
 31 33  1  0  0  0  0
 32 31  2  0  0  0  0
 33 34  1  0  0  0  0
 36 37  1  0  0  0  0
 36 38  1  0  0  0  0
 37 34  1  6  0  0  0
 37 38  1  0  0  0  0
 38 35  1  1  0  0  0
 39 60  1  6  0  0  0
 40 41  2  0  0  0  0
 41 39  1  0  0  0  0
 42 43  1  0  0  0  0
 42 44  1  0  0  0  0
 43 45  1  0  0  0  0
 44 47  1  0  0  0  0
 46 43  2  0  0  0  0
 46 40  1  0  0  0  0
 47 45  1  0  0  0  0
 48 57  1  1  0  0  0
 48 44  1  0  0  0  0
 49 52  1  6  0  0  0
 49 53  1  0  0  0  0
 49 50  1  0  0  0  0
 50 48  1  6  0  0  0
 50 54  1  0  0  0  0
 51 54  1  0  0  0  0
 53 55  1  6  0  0  0
 53 51  1  0  0  0  0
 56 55  2  0  0  0  0
 57 58  1  0  0  0  0
 59 57  1  0  0  0  0
 61 62  1  6  0  0  0
 61 60  1  0  0  0  0
 63 62  1  0  0  0  0
 64 61  1  0  0  0  0
 65 64  1  0  0  0  0
 65 66  1  0  0  0  0
M  END
>  <MODEL>
1

>  <REMARK>
 VINA RESULT:      -6.8      0.000      0.000
  Name = 
  23 active torsions:
  status: ('A' for Active; 'I' for Inactive)
    1  A    between atoms: C_1  and  C_11
    2  A    between atoms: N_2  and  C_52
    3  A    between atoms: C_3  and  C_49
    4  A    between atoms: C_4  and  C_11
    5  A    between atoms: C_4  and  C_14
    6  A    between atoms: C_7  and  C_64
    7  A    between atoms: C_9  and  C_45
    8  A    between atoms: C_14  and  C_32
    9  A    between atoms: O_15  and  C_44
   10  A    between atoms: C_18  and  N_20
   11  A    between atoms: C_18  and  C_22
   12  A    between atoms: C_19  and  C_54
   13  A    between atoms: C_21  and  C_25
   14  A    between atoms: C_21  and  C_52
   15  A    between atoms: C_21  and  C_55
   16  A    between atoms: N_24  and  C_48
   17  A    between atoms: C_25  and  C_63
   18  A    between atoms: N_28  and  C_45
   19  A    between atoms: N_30  and  N_53
   20  A    between atoms: C_38  and  C_60
   21  A    between atoms: C_43  and  C_63
   22  A    between atoms: C_45  and  C_46
   23  A    between atoms: C_47  and  C_63
                            x       y       z     vdW  Elec       q    Type
                         _______ _______ _______ _____ _____    ______ ____

>  <TORSDO>
F 23

$$$$
=
 OpenBabel10222420423D

 66 71  0  0  1  0  0  0  0  0999 V2000
  190.1940  177.3470  142.0220 C   0  0  2  0  0  3  0  0  0  0  0  0
  191.7520  176.7190  140.1490 C   0  0  0  0  0  2  0  0  0  0  0  0
  191.5830  177.5430  141.4200 C   0  0  0  0  0  2  0  0  0  0  0  0
  191.0120  177.2650  139.0870 O   0  0  0  0  0  0  0  0  0  0  0  0
  188.7820  177.7470  139.8600 C   0  0  0  0  0  2  0  0  0  0  0  0
  189.1490  178.2220  141.2870 C   0  0  1  0  0  3  0  0  0  0  0  0
  189.7250  176.7220  139.2210 C   0  0  1  0  0  3  0  0  0  0  0  0
  189.1720  176.2930  137.8960 C   0  0  0  0  0  0  0  0  0  0  0  0
  190.0450  176.2130  136.7690 N   0  0  0  0  0  2  0  0  0  0  0  0
  187.9470  176.0120  137.7660 O   0  0  0  0  0  0  0  0  0  0  0  0
  189.6480  173.8870  136.0600 C   0  0  0  0  0  0  0  0  0  0  0  0
  189.8100  175.2710  135.7520 N   0  0  0  0  0  2  0  0  0  0  0  0
  190.1310  173.4170  137.1210 O   0  0  0  0  0  0  0  0  0  0  0  0
  188.9150  172.9930  135.1100 C   0  0  0  0  0  2  0  0  0  0  0  0
  185.3400  171.9480  135.0240 C   0  0  0  0  0  0  0  0  0  0  0  0
  187.4850  172.9960  135.3980 N   0  0  0  0  0  0  0  0  0  0  0  0
  184.6940  173.3140  134.8770 C   0  0  0  0  0  2  0  0  0  0  0  0
  186.8530  174.2390  135.8000 C   0  0  0  0  0  2  0  0  0  0  0  0
  186.6910  171.8220  135.1650 C   0  0  0  0  0  0  0  0  0  0  0  0
  185.6870  174.5050  134.8670 C   0  0  2  0  0  3  0  0  0  0  0  0
  185.1070  175.8220  135.1680 N   0  0  0  0  0  0  0  0  0  0  0  0
  185.6710  177.8860  136.2610 C   0  0  0  0  0  2  0  0  0  0  0  0
  186.0770  176.9180  135.1740 C   0  0  0  0  0  2  0  0  0  0  0  0
  184.5550  175.7590  136.5150 C   0  0  0  0  0  2  0  0  0  0  0  0
  184.7110  177.1280  137.1450 C   0  0  0  0  0  2  0  0  0  0  0  0
  182.9390  170.9930  135.1190 C   0  0  0  0  0  1  0  0  0  0  0  0
  184.8680  169.6280  134.8900 O   0  0  0  0  0  0  0  0  0  0  0  0
  184.4170  170.7950  135.0420 C   0  0  0  0  0  0  0  0  0  0  0  0
  187.3610  170.5910  135.0860 O   0  0  0  0  0  0  0  0  0  0  0  0
  188.3770  170.1590  136.0020 C   0  0  0  0  0  1  0  0  0  0  0  0
  190.3080  177.6610  143.4880 C   0  0  0  0  0  0  0  0  0  0  0  0
  190.5000  178.8150  143.8540 O   0  0  0  0  0  0  0  0  0  0  0  0
  190.3350  176.5240  144.4700 C   0  0  0  0  0  2  0  0  0  0  0  0
  191.6440  176.4760  145.2510 C   0  0  0  0  0  2  0  0  0  0  0  0
  192.7730  175.2640  148.7240 C   0  0  0  0  0  1  0  0  0  0  0  0
  191.2360  176.8800  147.6660 C   0  0  0  0  0  2  0  0  0  0  0  0
  191.5320  175.8100  146.6380 C   0  0  2  0  0  3  0  0  0  0  0  0
  192.6210  176.2770  147.6010 C   0  0  2  0  0  3  0  0  0  0  0  0
  187.9160  178.6180  142.1310 C   0  0  1  0  0  3  0  0  0  0  0  0
  185.6840  178.6930  141.0670 C   0  0  0  0  0  3  0  0  0  0  0  0
  186.8690  179.2770  141.2730 C   0  0  0  0  0  3  0  0  0  0  0  0
  182.3640  179.3660  139.2480 C   0  0  0  0  0  2  0  0  0  0  0  0
  183.4100  178.7140  140.0400 C   0  0  0  0  0  0  0  0  0  0  0  0
  181.2290  178.4330  139.3180 N   0  0  0  0  0  0  0  0  0  0  0  0
  183.0930  177.3840  140.3430 N   0  0  0  0  0  2  0  0  0  0  0  0
  184.5850  179.2950  140.3070 C   0  0  0  0  0  3  0  0  0  0  0  0
  181.7590  177.1410  139.7970 C   0  0  0  0  0  2  0  0  0  0  0  0
  180.5330  178.2980  138.0220 C   0  0  2  0  0  3  0  0  0  0  0  0
  179.4590  180.3690  136.8210 C   0  0  2  0  0  3  0  0  0  0  0  0
  179.2990  179.2500  137.8440 C   0  0  2  0  0  3  0  0  0  0  0  0
  179.5680  181.0710  139.0180 O   0  0  0  0  0  0  0  0  0  0  0  0
  180.7190  180.3430  136.2080 O   0  0  0  0  0  1  0  0  0  0  0  0
  179.3060  181.5620  137.7370 C   0  0  1  0  0  3  0  0  0  0  0  0
  178.9510  179.8970  139.0410 O   0  0  0  0  0  0  0  0  0  0  0  0
  180.1790  182.7600  137.4110 C   0  0  0  0  0  3  0  0  0  0  0  0
  179.9140  183.5200  136.4820 O   0  0  0  0  0  0  0  0  0  0  0  0
  180.1790  176.8150  137.7960 C   0  0  0  0  0  3  0  0  0  0  0  0
  178.9630  176.4940  138.4120 O   0  0  0  0  0  1  0  0  0  0  0  0
  180.1170  176.5140  136.4350 O   0  0  0  0  0  1  0  0  0  0  0  0
  187.3380  177.4450  142.9450 C   0  0  0  0  0  2  0  0  0  0  0  0
  186.6050  177.9240  144.1880 C   0  0  2  0  0  3  0  0  0  0  0  0
  186.9520  177.0630  145.3820 C   0  0  0  0  0  2  0  0  0  0  0  0
  187.7860  177.8410  146.3770 C   0  0  0  0  0  1  0  0  0  0  0  0
  185.1040  177.9070  143.9400 C   0  0  0  0  0  2  0  0  0  0  0  0
  184.4440  178.5740  145.0560 N   0  0  0  0  0  2  0  0  0  0  0  0
  183.1780  179.0690  144.5440 C   0  0  0  0  0  1  0  0  0  0  0  0
  1 31  1  1  0  0  0
  2  3  1  0  0  0  0
  3  1  1  0  0  0  0
  4  7  1  0  0  0  0
  4  2  1  0  0  0  0
  5  6  1  0  0  0  0
  6  1  1  0  0  0  0
  6 39  1  1  0  0  0
  7  8  1  6  0  0  0
  7  5  1  0  0  0  0
  9  8  1  0  0  0  0
 10  8  2  0  0  0  0
 11 13  2  0  0  0  0
 12 11  1  0  0  0  0
 12  9  1  0  0  0  0
 14 16  1  0  0  0  0
 14 11  1  0  0  0  0
 15 28  1  0  0  0  0
 15 19  2  0  0  0  0
 16 18  1  0  0  0  0
 17 15  1  0  0  0  0
 19 16  1  0  0  0  0
 20 17  1  1  0  0  0
 20 21  1  0  0  0  0
 20 18  1  0  0  0  0
 21 23  1  0  0  0  0
 21 24  1  0  0  0  0
 22 25  1  0  0  0  0
 23 22  1  0  0  0  0
 24 25  1  0  0  0  0
 27 28  2  0  0  0  0
 28 26  1  0  0  0  0
 29 19  1  0  0  0  0
 29 30  1  0  0  0  0
 31 32  2  0  0  0  0
 31 33  1  0  0  0  0
 33 34  1  0  0  0  0
 37 34  1  6  0  0  0
 37 38  1  0  0  0  0
 37 36  1  0  0  0  0
 38 36  1  0  0  0  0
 38 35  1  1  0  0  0
 39 41  1  6  0  0  0
 39 60  1  0  0  0  0
 40 41  2  0  0  0  0
 42 44  1  0  0  0  0
 42 43  1  0  0  0  0
 43 46  2  0  0  0  0
 43 45  1  0  0  0  0
 44 47  1  0  0  0  0
 46 40  1  0  0  0  0
 47 45  1  0  0  0  0
 48 57  1  1  0  0  0
 48 44  1  0  0  0  0
 49 52  1  1  0  0  0
 49 53  1  0  0  0  0
 49 50  1  0  0  0  0
 50 48  1  1  0  0  0
 50 54  1  0  0  0  0
 51 54  1  0  0  0  0
 53 55  1  6  0  0  0
 53 51  1  0  0  0  0
 56 55  2  0  0  0  0
 57 58  1  0  0  0  0
 59 57  1  0  0  0  0
 61 60  1  6  0  0  0
 61 62  1  0  0  0  0
 62 63  1  0  0  0  0
 64 61  1  0  0  0  0
 64 65  1  0  0  0  0
 66 65  1  0  0  0  0
M  END
>  <MODEL>
2

>  <REMARK>
 VINA RESULT:      -5.1      3.724     10.606
  Name = 
  23 active torsions:
  status: ('A' for Active; 'I' for Inactive)
    1  A    between atoms: C_1  and  C_11
    2  A    between atoms: N_2  and  C_52
    3  A    between atoms: C_3  and  C_49
    4  A    between atoms: C_4  and  C_11
    5  A    between atoms: C_4  and  C_14
    6  A    between atoms: C_7  and  C_64
    7  A    between atoms: C_9  and  C_45
    8  A    between atoms: C_14  and  C_32
    9  A    between atoms: O_15  and  C_44
   10  A    between atoms: C_18  and  N_20
   11  A    between atoms: C_18  and  C_22
   12  A    between atoms: C_19  and  C_54
   13  A    between atoms: C_21  and  C_25
   14  A    between atoms: C_21  and  C_52
   15  A    between atoms: C_21  and  C_55
   16  A    between atoms: N_24  and  C_48
   17  A    between atoms: C_25  and  C_63
   18  A    between atoms: N_28  and  C_45
   19  A    between atoms: N_30  and  N_53
   20  A    between atoms: C_38  and  C_60
   21  A    between atoms: C_43  and  C_63
   22  A    between atoms: C_45  and  C_46
   23  A    between atoms: C_47  and  C_63
                            x       y       z     vdW  Elec       q    Type
                         _______ _______ _______ _____ _____    ______ ____

>  <TORSDO>
F 23

$$$$
=
 OpenBabel10222420423D

 66 71  0  0  1  0  0  0  0  0999 V2000
  189.9580  177.5040  143.2490 C   0  0  2  0  0  3  0  0  0  0  0  0
  192.1260  177.0440  142.0570 C   0  0  0  0  0  2  0  0  0  0  0  0
  191.4410  177.8540  143.1510 C   0  0  0  0  0  2  0  0  0  0  0  0
  191.7470  177.4910  140.7800 O   0  0  0  0  0  0  0  0  0  0  0  0
  189.3500  177.7180  140.7160 C   0  0  0  0  0  2  0  0  0  0  0  0
  189.1470  178.2450  142.1570 C   0  0  1  0  0  3  0  0  0  0  0  0
  190.5580  176.8040  140.4900 C   0  0  1  0  0  3  0  0  0  0  0  0
  190.5470  176.3010  139.0790 C   0  0  0  0  0  0  0  0  0  0  0  0
  190.6340  177.2390  138.0050 N   0  0  0  0  0  2  0  0  0  0  0  0
  190.4540  175.0660  138.8310 O   0  0  0  0  0  0  0  0  0  0  0  0
  192.6030  176.4220  136.7720 C   0  0  0  0  0  0  0  0  0  0  0  0
  191.2520  176.8800  136.7940 N   0  0  0  0  0  2  0  0  0  0  0  0
  193.3910  176.7340  137.7010 O   0  0  0  0  0  0  0  0  0  0  0  0
  193.0870  175.5820  135.6310 C   0  0  0  0  0  2  0  0  0  0  0  0
  192.8550  171.8820  135.2620 C   0  0  0  0  0  0  0  0  0  0  0  0
  192.5350  174.2340  135.7140 N   0  0  0  0  0  0  0  0  0  0  0  0
  191.4260  171.7800  134.7600 C   0  0  0  0  0  2  0  0  0  0  0  0
  191.0950  174.0680  135.7710 C   0  0  0  0  0  2  0  0  0  0  0  0
  193.3930  173.0860  135.6090 C   0  0  0  0  0  0  0  0  0  0  0  0
  190.6770  173.1340  134.6520 C   0  0  2  0  0  3  0  0  0  0  0  0
  189.2100  173.0480  134.6040 N   0  0  0  0  0  0  0  0  0  0  0  0
  187.2700  173.8990  135.7380 C   0  0  0  0  0  2  0  0  0  0  0  0
  188.5240  174.2830  134.9890 C   0  0  0  0  0  2  0  0  0  0  0  0
  188.7990  172.0370  135.5690 C   0  0  0  0  0  2  0  0  0  0  0  0
  187.4600  172.4560  136.1400 C   0  0  0  0  0  2  0  0  0  0  0  0
  194.8380  170.3630  134.5940 C   0  0  0  0  0  1  0  0  0  0  0  0
  193.2280  169.7470  136.2250 O   0  0  0  0  0  0  0  0  0  0  0  0
  193.5920  170.6070  135.3790 C   0  0  0  0  0  0  0  0  0  0  0  0
  194.7600  173.2730  135.8680 O   0  0  0  0  0  0  0  0  0  0  0  0
  195.3770  173.0840  137.1490 C   0  0  0  0  0  1  0  0  0  0  0  0
  189.5230  177.8420  144.6470 C   0  0  0  0  0  0  0  0  0  0  0  0
  189.4800  179.0120  145.0090 O   0  0  0  0  0  0  0  0  0  0  0  0
  189.2930  176.7220  145.6230 C   0  0  0  0  0  2  0  0  0  0  0  0
  189.8080  177.0660  147.0170 C   0  0  0  0  0  2  0  0  0  0  0  0
  193.1880  175.8090  148.3590 C   0  0  0  0  0  1  0  0  0  0  0  0
  191.8480  175.8560  146.2860 C   0  0  0  0  0  2  0  0  0  0  0  0
  191.3400  176.9750  147.1680 C   0  0  2  0  0  3  0  0  0  0  0  0
  191.7890  175.6510  147.7820 C   0  0  2  0  0  3  0  0  0  0  0  0
  187.6630  178.5040  142.5060 C   0  0  1  0  0  3  0  0  0  0  0  0
  185.5870  179.0840  141.2930 C   0  0  0  0  0  3  0  0  0  0  0  0
  186.8250  178.5800  141.2580 C   0  0  0  0  0  3  0  0  0  0  0  0
  182.8560  178.7440  138.6080 C   0  0  0  0  0  2  0  0  0  0  0  0
  183.6520  178.5290  139.8190 C   0  0  0  0  0  0  0  0  0  0  0  0
  181.7220  177.8200  138.7570 N   0  0  0  0  0  0  0  0  0  0  0  0
  183.2400  177.3940  140.5290 N   0  0  0  0  0  2  0  0  0  0  0  0
  184.7310  179.2610  140.1170 C   0  0  0  0  0  3  0  0  0  0  0  0
  182.0840  176.8560  139.8140 C   0  0  0  0  0  2  0  0  0  0  0  0
  181.3760  177.1460  137.4890 C   0  0  2  0  0  3  0  0  0  0  0  0
  182.2610  175.1990  135.9690 C   0  0  2  0  0  3  0  0  0  0  0  0
  182.5860  176.4570  136.7670 C   0  0  2  0  0  3  0  0  0  0  0  0
  183.3440  174.7990  137.9690 O   0  0  0  0  0  0  0  0  0  0  0  0
  180.8980  174.8770  136.0290 O   0  0  0  0  0  1  0  0  0  0  0  0
  183.1060  174.2020  136.7300 C   0  0  1  0  0  3  0  0  0  0  0  0
  183.5900  176.0680  137.6700 O   0  0  0  0  0  0  0  0  0  0  0  0
  182.5090  172.8150  136.8850 C   0  0  0  0  0  3  0  0  0  0  0  0
  182.9800  171.8400  136.3030 O   0  0  0  0  0  0  0  0  0  0  0  0
  180.6290  178.1420  136.5800 C   0  0  0  0  0  3  0  0  0  0  0  0
  179.7740  178.9580  137.3330 O   0  0  0  0  0  1  0  0  0  0  0  0
  181.5220  178.9290  135.8540 O   0  0  0  0  0  1  0  0  0  0  0  0
  187.0960  177.4930  143.5200 C   0  0  0  0  0  2  0  0  0  0  0  0
  186.1000  178.1410  144.4700 C   0  0  2  0  0  3  0  0  0  0  0  0
  186.2630  177.5970  145.8720 C   0  0  0  0  0  2  0  0  0  0  0  0
  186.1240  178.7050  146.8930 C   0  0  0  0  0  1  0  0  0  0  0  0
  184.6830  177.9040  143.9700 C   0  0  0  0  0  2  0  0  0  0  0  0
  183.7670  178.6820  144.7950 N   0  0  0  0  0  2  0  0  0  0  0  0
  183.0610  179.5740  143.8910 C   0  0  0  0  0  1  0  0  0  0  0  0
  1 31  1  1  0  0  0
  2  3  1  0  0  0  0
  3  1  1  0  0  0  0
  4  2  1  0  0  0  0
  5  6  1  0  0  0  0
  6 39  1  1  0  0  0
  6  1  1  0  0  0  0
  7  8  1  6  0  0  0
  7  5  1  0  0  0  0
  7  4  1  0  0  0  0
  9  8  1  0  0  0  0
 10  8  2  0  0  0  0
 11 12  1  0  0  0  0
 11 13  2  0  0  0  0
 12  9  1  0  0  0  0
 14 16  1  0  0  0  0
 14 11  1  0  0  0  0
 15 28  1  0  0  0  0
 15 19  2  0  0  0  0
 16 18  1  0  0  0  0
 17 15  1  0  0  0  0
 19 16  1  0  0  0  0
 19 29  1  0  0  0  0
 20 21  1  1  0  0  0
 20 17  1  0  0  0  0
 20 18  1  0  0  0  0
 21 23  1  0  0  0  0
 21 24  1  0  0  0  0
 22 25  1  0  0  0  0
 23 22  1  0  0  0  0
 24 25  1  0  0  0  0
 26 28  1  0  0  0  0
 28 27  2  0  0  0  0
 29 30  1  0  0  0  0
 31 32  2  0  0  0  0
 31 33  1  0  0  0  0
 33 34  1  0  0  0  0
 36 37  1  0  0  0  0
 36 38  1  0  0  0  0
 37 34  1  6  0  0  0
 37 38  1  0  0  0  0
 38 35  1  1  0  0  0
 39 41  1  6  0  0  0
 39 60  1  0  0  0  0
 41 40  2  0  0  0  0
 42 44  1  0  0  0  0
 42 43  1  0  0  0  0
 43 46  2  0  0  0  0
 43 45  1  0  0  0  0
 44 47  1  0  0  0  0
 46 40  1  0  0  0  0
 47 45  1  0  0  0  0
 48 57  1  6  0  0  0
 48 44  1  0  0  0  0
 49 52  1  1  0  0  0
 49 53  1  0  0  0  0
 49 50  1  0  0  0  0
 50 48  1  1  0  0  0
 50 54  1  0  0  0  0
 53 55  1  1  0  0  0
 53 51  1  0  0  0  0
 54 51  1  0  0  0  0
 56 55  2  0  0  0  0
 57 58  1  0  0  0  0
 59 57  1  0  0  0  0
 61 60  1  6  0  0  0
 61 62  1  0  0  0  0
 62 63  1  0  0  0  0
 64 61  1  0  0  0  0
 64 65  1  0  0  0  0
 66 65  1  0  0  0  0
M  END
>  <MODEL>
3

>  <REMARK>
 VINA RESULT:      -4.8      2.924     10.601
  Name = 
  23 active torsions:
  status: ('A' for Active; 'I' for Inactive)
    1  A    between atoms: C_1  and  C_11
    2  A    between atoms: N_2  and  C_52
    3  A    between atoms: C_3  and  C_49
    4  A    between atoms: C_4  and  C_11
    5  A    between atoms: C_4  and  C_14
    6  A    between atoms: C_7  and  C_64
    7  A    between atoms: C_9  and  C_45
    8  A    between atoms: C_14  and  C_32
    9  A    between atoms: O_15  and  C_44
   10  A    between atoms: C_18  and  N_20
   11  A    between atoms: C_18  and  C_22
   12  A    between atoms: C_19  and  C_54
   13  A    between atoms: C_21  and  C_25
   14  A    between atoms: C_21  and  C_52
   15  A    between atoms: C_21  and  C_55
   16  A    between atoms: N_24  and  C_48
   17  A    between atoms: C_25  and  C_63
   18  A    between atoms: N_28  and  C_45
   19  A    between atoms: N_30  and  N_53
   20  A    between atoms: C_38  and  C_60
   21  A    between atoms: C_43  and  C_63
   22  A    between atoms: C_45  and  C_46
   23  A    between atoms: C_47  and  C_63
                            x       y       z     vdW  Elec       q    Type
                         _______ _______ _______ _____ _____    ______ ____

>  <TORSDO>
F 23

$$$$
=
 OpenBabel10222420423D

 66 71  0  0  1  0  0  0  0  0999 V2000
  186.8780  177.9910  146.3930 C   0  0  2  0  0  3  0  0  0  0  0  0
  184.4490  178.4600  146.8530 C   0  0  0  0  0  2  0  0  0  0  0  0
  185.6510  177.5950  147.2120 C   0  0  0  0  0  2  0  0  0  0  0  0
  183.9410  178.1250  145.5870 O   0  0  0  0  0  0  0  0  0  0  0  0
  185.7710  177.9920  144.0260 C   0  0  0  0  0  2  0  0  0  0  0  0
  186.8180  177.3650  144.9780 C   0  0  1  0  0  3  0  0  0  0  0  0
  184.7020  178.8760  144.6780 C   0  0  1  0  0  3  0  0  0  0  0  0
  183.8400  179.4840  143.6140 C   0  0  0  0  0  0  0  0  0  0  0  0
  183.5350  178.7220  142.4450 N   0  0  0  0  0  0  0  0  0  0  0  0
  183.3910  180.6580  143.7360 O   0  0  0  0  0  0  0  0  0  0  0  0
  182.0100  178.1630  140.5930 C   0  0  0  0  0  0  0  0  0  0  0  0
  182.3150  178.9090  141.7710 N   0  0  0  0  0  0  0  0  0  0  0  0
  182.9370  177.6800  139.8940 O   0  0  0  0  0  0  0  0  0  0  0  0
  180.5840  177.9710  140.1810 C   0  0  0  0  0  2  0  0  0  0  0  0
  180.8310  177.5620  136.4860 C   0  0  0  0  0  0  0  0  0  0  0  0
  180.4130  178.2600  138.7620 N   0  0  0  0  0  0  0  0  0  0  0  0
  181.1920  178.9880  136.1110 C   0  0  0  0  0  2  0  0  0  0  0  0
  180.2150  179.6360  138.3450 C   0  0  0  0  0  2  0  0  0  0  0  0
  180.5690  177.2220  137.7810 C   0  0  0  0  0  0  0  0  0  0  0  0
  181.2640  179.9760  137.3040 C   0  0  2  0  0  3  0  0  0  0  0  0
  181.1690  181.4020  136.9580 N   0  0  0  0  0  0  0  0  0  0  0  0
  180.3220  183.4680  137.8430 C   0  0  0  0  0  2  0  0  0  0  0  0
  181.2490  182.3050  138.1070 C   0  0  0  0  0  2  0  0  0  0  0  0
  179.8590  181.6200  136.3580 C   0  0  0  0  0  2  0  0  0  0  0  0
  179.4030  183.0150  136.7340 C   0  0  0  0  0  2  0  0  0  0  0  0
  181.9810  175.9650  134.8090 C   0  0  0  0  0  1  0  0  0  0  0  0
  179.6250  176.2260  134.9430 O   0  0  0  0  0  0  0  0  0  0  0  0
  180.7510  176.5990  135.3690 C   0  0  0  0  0  0  0  0  0  0  0  0
  180.4460  175.8940  138.2190 O   0  0  0  0  0  0  0  0  0  0  0  0
  181.5390  174.9700  138.3260 C   0  0  0  0  0  1  0  0  0  0  0  0
  188.0830  177.5650  147.1840 C   0  0  0  0  0  0  0  0  0  0  0  0
  188.4960  176.4140  147.0960 O   0  0  0  0  0  0  0  0  0  0  0  0
  188.6680  178.5220  148.1830 C   0  0  0  0  0  2  0  0  0  0  0  0
  190.1920  178.5330  148.1380 C   0  0  0  0  0  2  0  0  0  0  0  0
  192.3820  175.3800  147.8740 C   0  0  0  0  0  1  0  0  0  0  0  0
  192.2340  177.5110  149.1130 C   0  0  0  0  0  2  0  0  0  0  0  0
  190.8500  177.2100  148.5790 C   0  0  2  0  0  3  0  0  0  0  0  0
  192.0870  176.8670  147.7530 C   0  0  2  0  0  3  0  0  0  0  0  0
  188.1900  177.1360  144.3040 C   0  0  1  0  0  3  0  0  0  0  0  0
  188.4410  177.8850  141.9610 C   0  0  0  0  0  3  0  0  0  0  0  0
  188.0330  176.9450  142.8200 C   0  0  0  0  0  3  0  0  0  0  0  0
  189.1170  176.9290  138.2980 C   0  0  0  0  0  2  0  0  0  0  0  0
  189.2060  176.9930  139.7590 C   0  0  0  0  0  0  0  0  0  0  0  0
  190.0970  175.8980  137.9260 N   0  0  0  0  0  0  0  0  0  0  0  0
  190.3170  176.2980  140.2530 N   0  0  0  0  0  2  0  0  0  0  0  0
  188.3920  177.7520  140.5020 C   0  0  0  0  0  3  0  0  0  0  0  0
  190.9690  175.6860  139.0980 C   0  0  0  0  0  2  0  0  0  0  0  0
  190.8700  176.2660  136.7220 C   0  0  2  0  0  3  0  0  0  0  0  0
  189.3870  176.7010  134.6020 C   0  0  2  0  0  3  0  0  0  0  0  0
  190.2720  175.7290  135.3750 C   0  0  2  0  0  3  0  0  0  0  0  0
  188.2300  175.0180  135.6800 O   0  0  0  0  0  0  0  0  0  0  0  0
  189.2640  177.9340  135.2560 O   0  0  0  0  0  1  0  0  0  0  0  0
  188.0900  175.9220  134.6250 C   0  0  1  0  0  3  0  0  0  0  0  0
  189.4790  174.5850  135.5660 O   0  0  0  0  0  0  0  0  0  0  0  0
  186.8270  176.7510  134.7660 C   0  0  0  0  0  3  0  0  0  0  0  0
  186.0380  176.5760  135.6930 O   0  0  0  0  0  0  0  0  0  0  0  0
  192.3410  175.8560  136.9260 C   0  0  0  0  0  3  0  0  0  0  0  0
  192.8470  175.2300  135.7800 O   0  0  0  0  0  1  0  0  0  0  0  0
  193.1310  176.9580  137.2550 O   0  0  0  0  0  1  0  0  0  0  0  0
  189.2180  178.2330  144.6390 C   0  0  0  0  0  2  0  0  0  0  0  0
  190.6120  177.6600  144.8470 C   0  0  2  0  0  3  0  0  0  0  0  0
  191.6180  178.3570  143.9590 C   0  0  0  0  0  2  0  0  0  0  0  0
  191.3440  179.8450  143.9080 C   0  0  0  0  0  1  0  0  0  0  0  0
  190.6010  176.1650  144.5660 C   0  0  0  0  0  2  0  0  0  0  0  0
  191.8240  175.8220  143.8490 N   0  0  0  0  0  2  0  0  0  0  0  0
  192.2410  174.5240  144.3520 C   0  0  0  0  0  1  0  0  0  0  0  0
  1 31  1  1  0  0  0
  1  3  1  0  0  0  0
  2  3  1  0  0  0  0
  4  2  1  0  0  0  0
  5  7  1  0  0  0  0
  5  6  1  0  0  0  0
  6 39  1  6  0  0  0
  6  1  1  0  0  0  0
  7  8  1  6  0  0  0
  7  4  1  0  0  0  0
  8 10  2  0  0  0  0
  9  8  1  0  0  0  0
 11 12  1  0  0  0  0
 12  9  2  0  0  0  0
 13 11  2  0  0  0  0
 14 11  1  0  0  0  0
 15 19  2  0  0  0  0
 16 14  1  0  0  0  0
 17 15  1  0  0  0  0
 18 16  1  0  0  0  0
 19 29  1  0  0  0  0
 19 16  1  0  0  0  0
 20 17  1  6  0  0  0
 20 18  1  0  0  0  0
 21 20  1  0  0  0  0
 21 23  1  0  0  0  0
 22 23  1  0  0  0  0
 24 25  1  0  0  0  0
 24 21  1  0  0  0  0
 25 22  1  0  0  0  0
 26 28  1  0  0  0  0
 27 28  2  0  0  0  0
 28 15  1  0  0  0  0
 29 30  1  0  0  0  0
 31 33  1  0  0  0  0
 32 31  2  0  0  0  0
 34 33  1  0  0  0  0
 37 34  1  6  0  0  0
 37 36  1  0  0  0  0
 38 35  1  1  0  0  0
 38 37  1  0  0  0  0
 38 36  1  0  0  0  0
 39 41  1  6  0  0  0
 39 60  1  0  0  0  0
 40 41  2  0  0  0  0
 42 43  1  0  0  0  0
 43 45  1  0  0  0  0
 43 46  2  0  0  0  0
 44 42  1  0  0  0  0
 44 47  1  0  0  0  0
 46 40  1  0  0  0  0
 47 45  1  0  0  0  0
 48 57  1  1  0  0  0
 48 44  1  0  0  0  0
 49 53  1  0  0  0  0
 49 52  1  1  0  0  0
 49 50  1  0  0  0  0
 50 54  1  0  0  0  0
 50 48  1  1  0  0  0
 53 55  1  1  0  0  0
 53 51  1  0  0  0  0
 54 51  1  0  0  0  0
 55 56  2  0  0  0  0
 57 59  1  0  0  0  0
 58 57  1  0  0  0  0
 60 61  1  0  0  0  0
 61 62  1  6  0  0  0
 63 62  1  0  0  0  0
 64 61  1  0  0  0  0
 65 66  1  0  0  0  0
 65 64  1  0  0  0  0
M  END
>  <MODEL>
4

>  <REMARK>
 VINA RESULT:      -4.6      3.295      6.051
  Name = 
  23 active torsions:
  status: ('A' for Active; 'I' for Inactive)
    1  A    between atoms: C_1  and  C_11
    2  A    between atoms: N_2  and  C_52
    3  A    between atoms: C_3  and  C_49
    4  A    between atoms: C_4  and  C_11
    5  A    between atoms: C_4  and  C_14
    6  A    between atoms: C_7  and  C_64
    7  A    between atoms: C_9  and  C_45
    8  A    between atoms: C_14  and  C_32
    9  A    between atoms: O_15  and  C_44
   10  A    between atoms: C_18  and  N_20
   11  A    between atoms: C_18  and  C_22
   12  A    between atoms: C_19  and  C_54
   13  A    between atoms: C_21  and  C_25
   14  A    between atoms: C_21  and  C_52
   15  A    between atoms: C_21  and  C_55
   16  A    between atoms: N_24  and  C_48
   17  A    between atoms: C_25  and  C_63
   18  A    between atoms: N_28  and  C_45
   19  A    between atoms: N_30  and  N_53
   20  A    between atoms: C_38  and  C_60
   21  A    between atoms: C_43  and  C_63
   22  A    between atoms: C_45  and  C_46
   23  A    between atoms: C_47  and  C_63
                            x       y       z     vdW  Elec       q    Type
                         _______ _______ _______ _____ _____    ______ ____

>  <TORSDO>
F 23

$$$$
=
 OpenBabel10222420423D

 66 71  0  0  1  0  0  0  0  0999 V2000
  183.1060  178.0120  137.3260 C   0  0  2  0  0  3  0  0  0  0  0  0
  182.9050  179.9780  138.8830 C   0  0  0  0  0  2  0  0  0  0  0  0
  182.8110  179.5060  137.4370 C   0  0  0  0  0  2  0  0  0  0  0  0
  184.2400  180.0210  139.3190 O   0  0  0  0  0  0  0  0  0  0  0  0
  185.3230  177.9590  138.7080 C   0  0  0  0  0  2  0  0  0  0  0  0
  184.6330  177.7520  137.3390 C   0  0  1  0  0  3  0  0  0  0  0  0
  184.5200  178.7220  139.7670 C   0  0  1  0  0  3  0  0  0  0  0  0
  185.2840  178.7400  141.0560 C   0  0  0  0  0  0  0  0  0  0  0  0
  186.3290  177.7880  141.2590 N   0  0  0  0  0  2  0  0  0  0  0  0
  185.0090  179.5770  141.9610 O   0  0  0  0  0  0  0  0  0  0  0  0
  188.2210  177.0880  142.6730 C   0  0  0  0  0  0  0  0  0  0  0  0
  187.4430  178.1120  142.0550 N   0  0  0  0  0  2  0  0  0  0  0  0
  187.7140  175.9600  142.8980 O   0  0  0  0  0  0  0  0  0  0  0  0
  189.6380  177.3650  143.0680 C   0  0  0  0  0  2  0  0  0  0  0  0
  190.5860  176.9060  146.6420 C   0  0  0  0  0  0  0  0  0  0  0  0
  189.7320  177.6290  144.5000 N   0  0  0  0  0  0  0  0  0  0  0  0
  189.2500  177.2290  147.2870 C   0  0  0  0  0  2  0  0  0  0  0  0
  188.6990  178.4260  145.1360 C   0  0  0  0  0  2  0  0  0  0  0  0
  190.7540  177.0030  145.2920 C   0  0  0  0  0  0  0  0  0  0  0  0
  188.1290  177.6320  146.2950 C   0  0  2  0  0  3  0  0  0  0  0  0
  186.9920  178.3610  146.8780 N   0  0  0  0  0  0  0  0  0  0  0  0
  184.6530  178.0740  147.3420 C   0  0  0  0  0  2  0  0  0  0  0  0
  186.0330  177.5100  147.5840 C   0  0  0  0  0  2  0  0  0  0  0  0
  186.2590  178.9780  145.7810 C   0  0  0  0  0  2  0  0  0  0  0  0
  184.7920  178.9990  146.1570 C   0  0  0  0  0  2  0  0  0  0  0  0
  192.3060  175.1720  147.4910 C   0  0  0  0  0  1  0  0  0  0  0  0
  192.1510  177.3750  148.3600 O   0  0  0  0  0  0  0  0  0  0  0  0
  191.6740  176.5230  147.5640 C   0  0  0  0  0  0  0  0  0  0  0  0
  191.8850  176.5140  144.6200 O   0  0  0  0  0  0  0  0  0  0  0  0
  191.9610  175.2270  143.9890 C   0  0  0  0  0  1  0  0  0  0  0  0
  182.4290  177.5280  136.0750 C   0  0  0  0  0  0  0  0  0  0  0  0
  182.9800  177.6650  134.9890 O   0  0  0  0  0  0  0  0  0  0  0  0
  181.0180  177.0190  136.1670 C   0  0  0  0  0  2  0  0  0  0  0  0
  180.9340  175.7110  136.9480 C   0  0  0  0  0  2  0  0  0  0  0  0
  179.6250  174.6510  140.4070 C   0  0  0  0  0  1  0  0  0  0  0  0
  181.6330  175.5980  139.3270 C   0  0  0  0  0  2  0  0  0  0  0  0
  180.4630  175.8720  138.4080 C   0  0  2  0  0  3  0  0  0  0  0  0
  180.5370  174.5650  139.1940 C   0  0  2  0  0  3  0  0  0  0  0  0
  185.0830  176.4590  136.6200 C   0  0  1  0  0  3  0  0  0  0  0  0
  187.5540  176.3440  136.6060 C   0  0  0  0  0  3  0  0  0  0  0  0
  186.4230  176.6510  135.9620 C   0  0  0  0  0  3  0  0  0  0  0  0
  191.1690  175.6560  135.4910 C   0  0  0  0  0  2  0  0  0  0  0  0
  189.8380  175.4890  136.0820 C   0  0  0  0  0  0  0  0  0  0  0  0
  191.8150  174.3510  135.6900 N   0  0  0  0  0  0  0  0  0  0  0  0
  189.7380  174.3130  136.8350 N   0  0  0  0  0  2  0  0  0  0  0  0
  188.8920  176.4320  136.0160 C   0  0  0  0  0  3  0  0  0  0  0  0
  191.0190  173.6230  136.6980 C   0  0  0  0  0  2  0  0  0  0  0  0
  193.2310  174.4810  136.0930 C   0  0  2  0  0  3  0  0  0  0  0  0
  195.4610  173.1700  136.5310 C   0  0  2  0  0  3  0  0  0  0  0  0
  193.9410  173.1220  136.4230 C   0  0  2  0  0  3  0  0  0  0  0  0
  194.6790  172.1860  134.5940 O   0  0  0  0  0  0  0  0  0  0  0  0
  195.9620  174.4590  136.3070 O   0  0  0  0  0  1  0  0  0  0  0  0
  195.8160  172.2270  135.4030 C   0  0  1  0  0  3  0  0  0  0  0  0
  193.6740  172.1360  135.4580 O   0  0  0  0  0  0  0  0  0  0  0  0
  197.0550  172.5910  134.6050 C   0  0  0  0  0  3  0  0  0  0  0  0
  198.1740  172.5960  135.1140 O   0  0  0  0  0  0  0  0  0  0  0  0
  193.3320  175.5010  137.2440 C   0  0  0  0  0  3  0  0  0  0  0  0
  192.7230  176.7120  136.8910 O   0  0  0  0  0  1  0  0  0  0  0  0
  192.7570  175.0010  138.4120 O   0  0  0  0  0  1  0  0  0  0  0  0
  185.0640  175.2210  137.5370 C   0  0  0  0  0  2  0  0  0  0  0  0
  184.7910  173.9430  136.7570 C   0  0  2  0  0  3  0  0  0  0  0  0
  183.4810  173.3210  137.1880 C   0  0  0  0  0  2  0  0  0  0  0  0
  183.0230  172.2900  136.1790 C   0  0  0  0  0  1  0  0  0  0  0  0
  185.9360  172.9630  136.9590 C   0  0  0  0  0  2  0  0  0  0  0  0
  186.2930  172.3990  135.6620 N   0  0  0  0  0  2  0  0  0  0  0  0
  187.5630  171.7180  135.8490 C   0  0  0  0  0  1  0  0  0  0  0  0
  1 31  1  6  0  0  0
  1  6  1  0  0  0  0
  1  3  1  0  0  0  0
  2  4  1  0  0  0  0
  3  2  1  0  0  0  0
  4  7  1  0  0  0  0
  5  7  1  0  0  0  0
  6 39  1  1  0  0  0
  6  5  1  0  0  0  0
  7  8  1  1  0  0  0
  8  9  1  0  0  0  0
  8 10  2  0  0  0  0
  9 12  1  0  0  0  0
 11 13  2  0  0  0  0
 11 14  1  0  0  0  0
 12 11  1  0  0  0  0
 14 16  1  0  0  0  0
 15 17  1  0  0  0  0
 15 28  1  0  0  0  0
 16 18  1  0  0  0  0
 16 19  1  0  0  0  0
 19 15  2  0  0  0  0
 20 18  1  6  0  0  0
 20 21  1  0  0  0  0
 20 17  1  0  0  0  0
 21 23  1  0  0  0  0
 22 23  1  0  0  0  0
 24 25  1  0  0  0  0
 24 21  1  0  0  0  0
 25 22  1  0  0  0  0
 26 28  1  0  0  0  0
 28 27  2  0  0  0  0
 29 19  1  0  0  0  0
 30 29  1  0  0  0  0
 31 33  1  0  0  0  0
 32 31  2  0  0  0  0
 33 34  1  0  0  0  0
 37 34  1  6  0  0  0
 37 38  1  0  0  0  0
 37 36  1  0  0  0  0
 38 36  1  0  0  0  0
 38 35  1  1  0  0  0
 39 41  1  1  0  0  0
 39 60  1  0  0  0  0
 41 40  2  0  0  0  0
 42 44  1  0  0  0  0
 42 43  1  0  0  0  0
 43 45  1  0  0  0  0
 44 48  1  0  0  0  0
 44 47  1  0  0  0  0
 46 43  2  0  0  0  0
 46 40  1  0  0  0  0
 47 45  1  0  0  0  0
 48 57  1  1  0  0  0
 49 52  1  6  0  0  0
 50 48  1  6  0  0  0
 50 49  1  0  0  0  0
 51 53  1  0  0  0  0
 51 54  1  0  0  0  0
 53 55  1  6  0  0  0
 53 49  1  0  0  0  0
 54 50  1  0  0  0  0
 55 56  2  0  0  0  0
 57 59  1  0  0  0  0
 58 57  1  0  0  0  0
 61 64  1  1  0  0  0
 61 62  1  0  0  0  0
 61 60  1  0  0  0  0
 63 62  1  0  0  0  0
 65 66  1  0  0  0  0
 65 64  1  0  0  0  0
M  END
>  <MODEL>
5

>  <REMARK>
 VINA RESULT:      -4.4      2.818      8.398
  Name = 
  23 active torsions:
  status: ('A' for Active; 'I' for Inactive)
    1  A    between atoms: C_1  and  C_11
    2  A    between atoms: N_2  and  C_52
    3  A    between atoms: C_3  and  C_49
    4  A    between atoms: C_4  and  C_11
    5  A    between atoms: C_4  and  C_14
    6  A    between atoms: C_7  and  C_64
    7  A    between atoms: C_9  and  C_45
    8  A    between atoms: C_14  and  C_32
    9  A    between atoms: O_15  and  C_44
   10  A    between atoms: C_18  and  N_20
   11  A    between atoms: C_18  and  C_22
   12  A    between atoms: C_19  and  C_54
   13  A    between atoms: C_21  and  C_25
   14  A    between atoms: C_21  and  C_52
   15  A    between atoms: C_21  and  C_55
   16  A    between atoms: N_24  and  C_48
   17  A    between atoms: C_25  and  C_63
   18  A    between atoms: N_28  and  C_45
   19  A    between atoms: N_30  and  N_53
   20  A    between atoms: C_38  and  C_60
   21  A    between atoms: C_43  and  C_63
   22  A    between atoms: C_45  and  C_46
   23  A    between atoms: C_47  and  C_63
                            x       y       z     vdW  Elec       q    Type
                         _______ _______ _______ _____ _____    ______ ____

>  <TORSDO>
F 23

$$$$
