=
 OpenBabel10222419413D

 36 41  0  0  1  0  0  0  0  0999 V2000
  186.0010  178.1530  142.4580 C   0  0  0  0  0  0  0  0  0  0  0  0
  186.6650  178.6510  138.5850 C   0  0  0  0  0  0  0  0  0  0  0  0
  187.0670  177.8580  143.2500 N   0  0  0  0  0  0  0  0  0  0  0  0
  186.6340  177.9610  144.5260 C   0  0  0  0  0  0  0  0  0  0  0  0
  182.9890  178.5290  141.5660 C   0  0  0  0  0  0  0  0  0  0  0  0
  183.6090  177.8310  140.4720 N   0  0  0  0  0  0  0  0  0  0  0  0
  183.3720  176.2590  138.7390 O   0  0  0  0  0  0  0  0  0  0  0  0
  182.8430  176.8790  139.7000 C   0  0  0  0  0  0  0  0  0  0  0  0
  181.7140  178.9620  141.5590 N   0  0  0  0  0  0  0  0  0  0  0  0
  181.5400  179.4680  142.8010 C   0  0  0  0  0  3  0  0  0  0  0  0
  184.5590  178.3960  145.8130 C   0  0  0  0  0  3  0  0  0  0  0  0
  184.9630  178.1530  140.0880 C   0  0  0  0  0  0  0  0  0  0  0  0
  187.3720  177.5690  145.7730 C   0  0  0  0  0  2  0  0  0  0  0  0
  186.7570  178.2810  146.9950 C   0  0  0  0  0  2  0  0  0  0  0  0
  183.5410  178.7720  142.7960 C   0  0  0  0  0  0  0  0  0  0  0  0
  182.6280  179.3490  143.5350 O   0  0  0  0  0  0  0  0  0  0  0  0
  186.0400  178.2660  140.9810 C   0  0  0  0  0  0  0  0  0  0  0  0
  185.3260  178.3370  138.7410 C   0  0  0  0  0  3  0  0  0  0  0  0
  181.4890  176.5860  140.0400 N   0  0  0  0  0  1  0  0  0  0  0  0
  185.3110  178.3060  144.5560 C   0  0  0  0  0  0  0  0  0  0  0  0
  187.4260  178.5990  140.0820 S   0  0  0  0  0  0  0  0  0  0  0  0
  184.8890  178.4250  143.2490 C   0  0  0  0  0  0  0  0  0  0  0  0
  185.2400  178.3320  146.9650 C   0  0  0  0  0  3  0  0  0  0  0  0
  188.8980  176.9740  134.5950 C   0  0  0  0  0  3  0  0  0  0  0  0
  188.8070  174.0810  136.8390 C   0  0  0  0  0  1  0  0  0  0  0  0
  188.0610  176.3970  137.1590 C   0  0  0  0  0  0  0  0  0  0  0  0
  187.7650  176.1110  138.3510 O   0  0  0  0  0  0  0  0  0  0  0  0
  189.0210  175.7280  135.1150 N   0  0  0  0  0  0  0  0  0  0  0  0
  187.3330  178.6900  137.3180 N   0  0  0  0  0  2  0  0  0  0  0  0
  187.8710  177.7060  136.6490 C   0  0  0  0  0  0  0  0  0  0  0  0
  188.6180  175.4400  136.3540 N   0  0  0  0  0  0  0  0  0  0  0  0
  188.3240  177.9810  135.3610 C   0  0  0  0  0  3  0  0  0  0  0  0
  188.6300  175.9640  143.2050 C   0  0  0  0  0  1  0  0  0  0  0  0
  188.3880  177.4110  142.8070 C   0  0  2  0  0  3  0  0  0  0  0  0
  189.4810  178.3180  143.3510 C   0  0  0  0  0  2  0  0  0  0  0  0
  190.2840  177.6170  144.2320 F   0  0  0  0  0  0  0  0  0  0  0  0
  1 22  2  0  0  0  0
  1  3  1  0  0  0  0
  2 18  2  0  0  0  0
  2 21  1  0  0  0  0
  3  4  1  0  0  0  0
  4 20  2  0  0  0  0
  4 13  1  0  0  0  0
  5 15  2  0  0  0  0
  6  5  1  0  0  0  0
  7  8  2  0  0  0  0
  8 19  1  0  0  0  0
  8  6  1  0  0  0  0
  9  5  1  0  0  0  0
  9 10  2  0  0  0  0
 10 16  1  0  0  0  0
 11 23  2  0  0  0  0
 12  6  1  0  0  0  0
 12 17  2  0  0  0  0
 13 14  1  0  0  0  0
 15 22  1  0  0  0  0
 15 16  1  0  0  0  0
 17  1  1  0  0  0  0
 18 12  1  0  0  0  0
 20 11  1  0  0  0  0
 21 17  1  0  0  0  0
 22 20  1  0  0  0  0
 23 14  1  0  0  0  0
 24 28  2  0  0  0  0
 24 32  1  0  0  0  0
 26 27  2  0  0  0  0
 28 31  1  0  0  0  0
 29  2  1  0  0  0  0
 30 26  1  0  0  0  0
 30 29  1  0  0  0  0
 31 25  1  0  0  0  0
 31 26  1  0  0  0  0
 32 30  2  0  0  0  0
 34 33  1  1  0  0  0
 34  3  1  0  0  0  0
 34 35  1  0  0  0  0
 35 36  1  0  0  0  0
M  END
>  <MODEL>
1

>  <REMARK>
 VINA RESULT:      -8.5      0.000      0.000
  Name = 
  3 active torsions:
  status: ('A' for Active; 'I' for Inactive)
    1  A    between atoms: C_3  and  N_23
    2  A    between atoms: N_6  and  C_31
    3  A    between atoms: C_20  and  C_31
                            x       y       z     vdW  Elec       q    Type
                         _______ _______ _______ _____ _____    ______ ____

>  <TORSDO>
F 3

$$$$
=
 OpenBabel10222419413D

 36 41  0  0  1  0  0  0  0  0999 V2000
  189.2370  177.2490  141.1760 C   0  0  0  0  0  0  0  0  0  0  0  0
  191.9760  177.0710  138.3210 C   0  0  0  0  0  0  0  0  0  0  0  0
  189.6340  176.9940  142.4520 N   0  0  0  0  0  0  0  0  0  0  0  0
  188.5970  177.3340  143.2500 C   0  0  0  0  0  0  0  0  0  0  0  0
  187.3050  177.7300  138.7180 C   0  0  0  0  0  0  0  0  0  0  0  0
  188.3020  176.8180  138.2250 N   0  0  0  0  0  0  0  0  0  0  0  0
  188.8040  175.0180  136.7980 O   0  0  0  0  0  0  0  0  0  0  0  0
  187.9420  175.8250  137.2390 C   0  0  0  0  0  0  0  0  0  0  0  0
  186.3280  178.2630  137.9590 N   0  0  0  0  0  0  0  0  0  0  0  0
  185.5860  178.9720  138.8400 C   0  0  0  0  0  3  0  0  0  0  0  0
  186.2570  178.1390  143.1060 C   0  0  0  0  0  3  0  0  0  0  0  0
  189.6760  176.9610  138.6430 C   0  0  0  0  0  0  0  0  0  0  0  0
  188.4620  177.0830  144.7240 C   0  0  0  0  0  2  0  0  0  0  0  0
  187.4010  178.0290  145.3240 C   0  0  0  0  0  2  0  0  0  0  0  0
  187.1260  178.1180  140.0200 C   0  0  0  0  0  0  0  0  0  0  0  0
  186.0620  178.8790  140.0650 O   0  0  0  0  0  0  0  0  0  0  0  0
  190.0920  177.1240  139.9740 C   0  0  0  0  0  0  0  0  0  0  0  0
  190.7400  176.8990  137.7230 C   0  0  0  0  0  3  0  0  0  0  0  0
  186.5960  175.7040  136.7830 N   0  0  0  0  0  1  0  0  0  0  0  0
  187.5470  177.7890  142.5020 C   0  0  0  0  0  0  0  0  0  0  0  0
  191.7770  177.1920  139.9850 S   0  0  0  0  0  0  0  0  0  0  0  0
  187.9330  177.7340  141.1790 C   0  0  0  0  0  0  0  0  0  0  0  0
  186.1770  178.2020  144.4420 C   0  0  0  0  0  3  0  0  0  0  0  0
  195.3120  174.7900  135.6030 C   0  0  0  0  0  3  0  0  0  0  0  0
  192.7970  172.2110  136.2650 C   0  0  0  0  0  1  0  0  0  0  0  0
  192.9600  174.5390  137.0210 C   0  0  0  0  0  0  0  0  0  0  0  0
  191.9250  174.3590  137.7190 O   0  0  0  0  0  0  0  0  0  0  0  0
  194.6120  173.6300  135.6120 N   0  0  0  0  0  0  0  0  0  0  0  0
  193.2230  176.8520  137.6510 N   0  0  0  0  0  2  0  0  0  0  0  0
  193.6310  175.7880  137.0130 C   0  0  0  0  0  0  0  0  0  0  0  0
  193.4730  173.5000  136.2940 N   0  0  0  0  0  0  0  0  0  0  0  0
  194.8290  175.8840  136.3100 C   0  0  0  0  0  3  0  0  0  0  0  0
  190.6430  175.0020  143.4750 C   0  0  0  0  0  1  0  0  0  0  0  0
  190.8920  176.3730  142.8680 C   0  0  2  0  0  3  0  0  0  0  0  0
  191.6480  177.2700  143.8360 C   0  0  0  0  0  2  0  0  0  0  0  0
  191.6360  178.5760  143.3820 F   0  0  0  0  0  0  0  0  0  0  0  0
  1 22  2  0  0  0  0
  1  3  1  0  0  0  0
  2 21  1  0  0  0  0
  3 34  1  0  0  0  0
  3  4  1  0  0  0  0
  4 13  1  0  0  0  0
  5 15  2  0  0  0  0
  6 12  1  0  0  0  0
  6  5  1  0  0  0  0
  7  8  2  0  0  0  0
  8  6  1  0  0  0  0
  9  5  1  0  0  0  0
  9 10  2  0  0  0  0
 10 16  1  0  0  0  0
 11 23  2  0  0  0  0
 12 17  2  0  0  0  0
 13 14  1  0  0  0  0
 15 16  1  0  0  0  0
 15 22  1  0  0  0  0
 17 21  1  0  0  0  0
 17  1  1  0  0  0  0
 18  2  2  0  0  0  0
 18 12  1  0  0  0  0
 19  8  1  0  0  0  0
 20 11  1  0  0  0  0
 20  4  2  0  0  0  0
 22 20  1  0  0  0  0
 23 14  1  0  0  0  0
 24 28  2  0  0  0  0
 24 32  1  0  0  0  0
 25 31  1  0  0  0  0
 26 27  2  0  0  0  0
 28 31  1  0  0  0  0
 29  2  1  0  0  0  0
 30 26  1  0  0  0  0
 30 29  1  0  0  0  0
 31 26  1  0  0  0  0
 32 30  2  0  0  0  0
 34 33  1  1  0  0  0
 34 35  1  0  0  0  0
 36 35  1  0  0  0  0
M  END
>  <MODEL>
2

>  <REMARK>
 VINA RESULT:      -8.3      3.290      4.708
  Name = 
  3 active torsions:
  status: ('A' for Active; 'I' for Inactive)
    1  A    between atoms: C_3  and  N_23
    2  A    between atoms: N_6  and  C_31
    3  A    between atoms: C_20  and  C_31
                            x       y       z     vdW  Elec       q    Type
                         _______ _______ _______ _____ _____    ______ ____

>  <TORSDO>
F 3

$$$$
=
 OpenBabel10222419413D

 36 41  0  0  1  0  0  0  0  0999 V2000
  186.2280  178.2210  141.0090 C   0  0  0  0  0  0  0  0  0  0  0  0
  188.3410  178.1360  137.6600 C   0  0  0  0  0  0  0  0  0  0  0  0
  186.8870  178.0020  142.1790 N   0  0  0  0  0  0  0  0  0  0  0  0
  186.0180  178.3020  143.1690 C   0  0  0  0  0  0  0  0  0  0  0  0
  183.8190  178.5800  138.9910 C   0  0  0  0  0  0  0  0  0  0  0  0
  184.7400  177.7100  138.3090 N   0  0  0  0  0  0  0  0  0  0  0  0
  185.0300  175.9170  136.8160 O   0  0  0  0  0  0  0  0  0  0  0  0
  184.2370  176.6880  137.4200 C   0  0  0  0  0  0  0  0  0  0  0  0
  182.6840  179.0560  138.4440 N   0  0  0  0  0  0  0  0  0  0  0  0
  182.1020  179.7400  139.4550 C   0  0  0  0  0  3  0  0  0  0  0  0
  183.6600  178.9940  143.4990 C   0  0  0  0  0  3  0  0  0  0  0  0
  186.1610  177.9220  138.4410 C   0  0  0  0  0  0  0  0  0  0  0  0
  186.1950  178.0640  144.6410 C   0  0  0  0  0  2  0  0  0  0  0  0
  185.2320  178.9660  145.4400 C   0  0  0  0  0  2  0  0  0  0  0  0
  183.8880  178.9750  140.3010 C   0  0  0  0  0  0  0  0  0  0  0  0
  182.8190  179.6850  140.5590 O   0  0  0  0  0  0  0  0  0  0  0  0
  186.8290  178.1210  139.6590 C   0  0  0  0  0  0  0  0  0  0  0  0
  187.0190  177.8990  137.3250 C   0  0  0  0  0  3  0  0  0  0  0  0
  182.8340  176.4980  137.2450 N   0  0  0  0  0  1  0  0  0  0  0  0
  184.8170  178.6980  142.6480 C   0  0  0  0  0  0  0  0  0  0  0  0
  188.4750  178.2690  139.3290 S   0  0  0  0  0  0  0  0  0  0  0  0
  184.9300  178.6450  141.2750 C   0  0  0  0  0  0  0  0  0  0  0  0
  183.8490  179.0700  144.8230 C   0  0  0  0  0  3  0  0  0  0  0  0
  191.3670  175.8660  134.5940 C   0  0  0  0  0  3  0  0  0  0  0  0
  189.5350  173.1380  136.2090 C   0  0  0  0  0  1  0  0  0  0  0  0
  189.4480  175.5650  136.5520 C   0  0  0  0  0  0  0  0  0  0  0  0
  188.6320  175.3790  137.4950 O   0  0  0  0  0  0  0  0  0  0  0  0
  190.8970  174.6430  134.9400 N   0  0  0  0  0  0  0  0  0  0  0  0
  189.4360  177.9680  136.7520 N   0  0  0  0  0  2  0  0  0  0  0  0
  189.8760  176.8700  136.2000 C   0  0  0  0  0  0  0  0  0  0  0  0
  189.9680  174.4890  135.8860 N   0  0  0  0  0  0  0  0  0  0  0  0
  190.8640  176.9960  135.2250 C   0  0  0  0  0  3  0  0  0  0  0  0
  188.2040  176.1960  143.1980 C   0  0  0  0  0  1  0  0  0  0  0  0
  188.2320  177.4460  142.3340 C   0  0  2  0  0  3  0  0  0  0  0  0
  189.1880  178.4830  142.9040 C   0  0  0  0  0  2  0  0  0  0  0  0
  189.4840  178.1830  144.2200 F   0  0  0  0  0  0  0  0  0  0  0  0
  1 22  2  0  0  0  0
  1  3  1  0  0  0  0
  2 21  1  0  0  0  0
  3 34  1  0  0  0  0
  3  4  1  0  0  0  0
  4 13  1  0  0  0  0
  5 15  2  0  0  0  0
  6 12  1  0  0  0  0
  6  5  1  0  0  0  0
  7  8  2  0  0  0  0
  8  6  1  0  0  0  0
  9  5  1  0  0  0  0
  9 10  2  0  0  0  0
 10 16  1  0  0  0  0
 11 23  2  0  0  0  0
 12 17  2  0  0  0  0
 13 14  1  0  0  0  0
 15 16  1  0  0  0  0
 15 22  1  0  0  0  0
 17  1  1  0  0  0  0
 18  2  2  0  0  0  0
 18 12  1  0  0  0  0
 19  8  1  0  0  0  0
 20  4  2  0  0  0  0
 20 11  1  0  0  0  0
 21 17  1  0  0  0  0
 22 20  1  0  0  0  0
 23 14  1  0  0  0  0
 24 28  2  0  0  0  0
 24 32  1  0  0  0  0
 26 27  2  0  0  0  0
 28 31  1  0  0  0  0
 29  2  1  0  0  0  0
 30 26  1  0  0  0  0
 30 29  1  0  0  0  0
 31 25  1  0  0  0  0
 31 26  1  0  0  0  0
 32 30  2  0  0  0  0
 34 35  1  0  0  0  0
 34 33  1  1  0  0  0
 35 36  1  0  0  0  0
M  END
>  <MODEL>
3

>  <REMARK>
 VINA RESULT:      -7.7      1.705      2.162
  Name = 
  3 active torsions:
  status: ('A' for Active; 'I' for Inactive)
    1  A    between atoms: C_3  and  N_23
    2  A    between atoms: N_6  and  C_31
    3  A    between atoms: C_20  and  C_31
                            x       y       z     vdW  Elec       q    Type
                         _______ _______ _______ _____ _____    ______ ____

>  <TORSDO>
F 3

$$$$
=
 OpenBabel10222419413D

 36 41  0  0  1  0  0  0  0  0999 V2000
  189.7370  177.2240  139.6080 C   0  0  0  0  0  0  0  0  0  0  0  0
  193.0940  176.4070  137.6690 C   0  0  0  0  0  0  0  0  0  0  0  0
  189.7580  177.1560  140.9660 N   0  0  0  0  0  0  0  0  0  0  0  0
  188.5910  177.6870  141.3920 C   0  0  0  0  0  0  0  0  0  0  0  0
  188.5780  177.4180  136.6710 C   0  0  0  0  0  0  0  0  0  0  0  0
  189.5670  176.3760  136.6040 N   0  0  0  0  0  0  0  0  0  0  0  0
  190.2330  174.3380  135.6380 O   0  0  0  0  0  0  0  0  0  0  0  0
  189.3750  175.2590  135.7070 C   0  0  0  0  0  0  0  0  0  0  0  0
  187.8940  177.8800  135.6060 N   0  0  0  0  0  0  0  0  0  0  0  0
  187.0270  178.7690  136.1410 C   0  0  0  0  0  3  0  0  0  0  0  0
  186.4670  178.6040  140.4990 C   0  0  0  0  0  3  0  0  0  0  0  0
  190.7910  176.4980  137.3600 C   0  0  0  0  0  0  0  0  0  0  0  0
  188.0490  177.6900  142.7930 C   0  0  0  0  0  2  0  0  0  0  0  0
  186.9740  178.7860  142.9390 C   0  0  0  0  0  2  0  0  0  0  0  0
  188.1060  178.0230  137.8060 C   0  0  0  0  0  0  0  0  0  0  0  0
  187.1530  178.8470  137.4500 O   0  0  0  0  0  0  0  0  0  0  0  0
  190.8600  176.8490  138.7160 C   0  0  0  0  0  0  0  0  0  0  0  0
  192.0460  176.2190  136.7850 C   0  0  0  0  0  3  0  0  0  0  0  0
  188.1910  175.1510  134.9200 N   0  0  0  0  0  1  0  0  0  0  0  0
  187.8270  178.0800  140.3290 C   0  0  0  0  0  0  0  0  0  0  0  0
  192.4800  176.8120  139.1800 S   0  0  0  0  0  0  0  0  0  0  0  0
  188.5370  177.7850  139.1840 C   0  0  0  0  0  0  0  0  0  0  0  0
  186.0480  178.8900  141.7400 C   0  0  0  0  0  3  0  0  0  0  0  0
  196.7610  173.5270  136.2650 C   0  0  0  0  0  3  0  0  0  0  0  0
  193.8870  171.2650  136.4690 C   0  0  0  0  0  1  0  0  0  0  0  0
  194.1000  173.6550  136.9820 C   0  0  0  0  0  0  0  0  0  0  0  0
  192.9020  173.6520  137.3760 O   0  0  0  0  0  0  0  0  0  0  0  0
  195.9580  172.4360  136.2020 N   0  0  0  0  0  0  0  0  0  0  0  0
  194.4420  176.0040  137.4050 N   0  0  0  0  0  2  0  0  0  0  0  0
  194.8840  174.8340  137.0270 C   0  0  0  0  0  0  0  0  0  0  0  0
  194.6700  172.4890  136.5460 N   0  0  0  0  0  0  0  0  0  0  0  0
  196.2310  174.7410  136.6840 C   0  0  0  0  0  3  0  0  0  0  0  0
  190.1680  175.6280  142.8440 C   0  0  0  0  0  1  0  0  0  0  0  0
  190.7910  176.5330  141.7940 C   0  0  2  0  0  3  0  0  0  0  0  0
  191.6810  177.5860  142.4390 C   0  0  0  0  0  2  0  0  0  0  0  0
  191.0700  178.0940  143.5710 F   0  0  0  0  0  0  0  0  0  0  0  0
  1  3  1  0  0  0  0
  2 21  1  0  0  0  0
  3  4  1  0  0  0  0
  3 34  1  0  0  0  0
  4 13  1  0  0  0  0
  5 15  2  0  0  0  0
  6  5  1  0  0  0  0
  6 12  1  0  0  0  0
  7  8  2  0  0  0  0
  8  6  1  0  0  0  0
  9 10  2  0  0  0  0
  9  5  1  0  0  0  0
 10 16  1  0  0  0  0
 11 23  2  0  0  0  0
 12 17  2  0  0  0  0
 13 14  1  0  0  0  0
 15 22  1  0  0  0  0
 16 15  1  0  0  0  0
 17 21  1  0  0  0  0
 17  1  1  0  0  0  0
 18 12  1  0  0  0  0
 18  2  2  0  0  0  0
 19  8  1  0  0  0  0
 20 11  1  0  0  0  0
 20  4  2  0  0  0  0
 22  1  2  0  0  0  0
 22 20  1  0  0  0  0
 23 14  1  0  0  0  0
 24 32  1  0  0  0  0
 25 31  1  0  0  0  0
 26 30  1  0  0  0  0
 26 27  2  0  0  0  0
 28 24  2  0  0  0  0
 28 31  1  0  0  0  0
 29  2  1  0  0  0  0
 30 29  1  0  0  0  0
 31 26  1  0  0  0  0
 32 30  2  0  0  0  0
 34 35  1  0  0  0  0
 34 33  1  1  0  0  0
 35 36  1  0  0  0  0
M  END
>  <MODEL>
4

>  <REMARK>
 VINA RESULT:      -6.9      3.984      6.355
  Name = 
  3 active torsions:
  status: ('A' for Active; 'I' for Inactive)
    1  A    between atoms: C_3  and  N_23
    2  A    between atoms: N_6  and  C_31
    3  A    between atoms: C_20  and  C_31
                            x       y       z     vdW  Elec       q    Type
                         _______ _______ _______ _____ _____    ______ ____

>  <TORSDO>
F 3

$$$$
=
 OpenBabel10222419413D

 36 41  0  0  1  0  0  0  0  0999 V2000
  184.9110  176.4590  137.2190 C   0  0  0  0  0  0  0  0  0  0  0  0
  182.7000  179.5080  138.4450 C   0  0  0  0  0  0  0  0  0  0  0  0
  184.2700  175.3970  136.6590 N   0  0  0  0  0  0  0  0  0  0  0  0
  185.2310  174.6090  136.1270 C   0  0  0  0  0  0  0  0  0  0  0  0
  187.2390  178.1650  138.5120 C   0  0  0  0  0  0  0  0  0  0  0  0
  186.0980  178.4100  139.3520 N   0  0  0  0  0  0  0  0  0  0  0  0
  185.2920  178.8480  141.5170 O   0  0  0  0  0  0  0  0  0  0  0  0
  186.2820  178.6320  140.7680 C   0  0  0  0  0  0  0  0  0  0  0  0
  188.4330  178.7700  138.6650 N   0  0  0  0  0  0  0  0  0  0  0  0
  189.2150  178.1790  137.7330 C   0  0  0  0  0  3  0  0  0  0  0  0
  187.7000  174.4510  135.9600 C   0  0  0  0  0  3  0  0  0  0  0  0
  184.7850  178.5300  138.7640 C   0  0  0  0  0  0  0  0  0  0  0  0
  185.0640  173.2340  135.5490 C   0  0  0  0  0  2  0  0  0  0  0  0
  186.2600  172.8980  134.6340 C   0  0  0  0  0  2  0  0  0  0  0  0
  187.3320  177.2310  137.5140 C   0  0  0  0  0  0  0  0  0  0  0  0
  188.5570  177.2600  137.0540 O   0  0  0  0  0  0  0  0  0  0  0  0
  184.2450  177.6330  137.8290 C   0  0  0  0  0  0  0  0  0  0  0  0
  183.9010  179.5620  139.1310 C   0  0  0  0  0  3  0  0  0  0  0  0
  187.5810  178.5630  141.3550 N   0  0  0  0  0  1  0  0  0  0  0  0
  186.4680  175.1470  136.3490 C   0  0  0  0  0  0  0  0  0  0  0  0
  182.6780  178.1400  137.4700 S   0  0  0  0  0  0  0  0  0  0  0  0
  186.2850  176.3200  137.0500 C   0  0  0  0  0  0  0  0  0  0  0  0
  187.5950  173.3580  135.1920 C   0  0  0  0  0  3  0  0  0  0  0  0
  179.0020  181.2520  141.0910 C   0  0  0  0  0  3  0  0  0  0  0  0
  180.0550  178.2530  142.9110 C   0  0  0  0  0  1  0  0  0  0  0  0
  180.8500  179.2230  140.8020 C   0  0  0  0  0  0  0  0  0  0  0  0
  181.6240  178.2380  140.6680 O   0  0  0  0  0  0  0  0  0  0  0  0
  179.1200  180.2660  142.0140 N   0  0  0  0  0  0  0  0  0  0  0  0
  181.5590  180.3110  138.7710 N   0  0  0  0  0  0  0  0  0  0  0  0
  180.7960  180.2520  139.8280 C   0  0  0  0  0  0  0  0  0  0  0  0
  180.0120  179.2820  141.8830 N   0  0  0  0  0  0  0  0  0  0  0  0
  179.8390  181.2530  139.9820 C   0  0  0  0  0  2  0  0  0  0  0  0
  182.5790  173.7740  137.3900 C   0  0  0  0  0  1  0  0  0  0  0  0
  182.8360  175.1120  136.7170 C   0  0  2  0  0  3  0  0  0  0  0  0
  182.2160  175.1530  135.3290 C   0  0  0  0  0  2  0  0  0  0  0  0
  182.7670  176.1860  134.5940 F   0  0  0  0  0  0  0  0  0  0  0  0
  1 17  1  0  0  0  0
  2 29  1  0  0  0  0
  2 18  2  0  0  0  0
  3 34  1  0  0  0  0
  3  1  1  0  0  0  0
  4 20  2  0  0  0  0
  4  3  1  0  0  0  0
  5  9  1  0  0  0  0
  5  6  1  0  0  0  0
  6  8  1  0  0  0  0
  8 19  1  0  0  0  0
  8  7  2  0  0  0  0
 10  9  2  0  0  0  0
 11 20  1  0  0  0  0
 12 18  1  0  0  0  0
 12  6  1  0  0  0  0
 13  4  1  0  0  0  0
 14 23  1  0  0  0  0
 14 13  1  0  0  0  0
 15  5  2  0  0  0  0
 16 15  1  0  0  0  0
 16 10  1  0  0  0  0
 17 12  2  0  0  0  0
 20 22  1  0  0  0  0
 21 17  1  0  0  0  0
 21  2  1  0  0  0  0
 22  1  2  0  0  0  0
 22 15  1  0  0  0  0
 23 11  2  0  0  0  0
 24 28  2  0  0  0  0
 26 31  1  0  0  0  0
 27 26  2  0  0  0  0
 29 30  2  0  0  0  0
 30 32  1  0  0  0  0
 30 26  1  0  0  0  0
 31 28  1  0  0  0  0
 31 25  1  0  0  0  0
 32 24  1  0  0  0  0
 34 33  1  6  0  0  0
 35 34  1  0  0  0  0
 36 35  1  0  0  0  0
M  END
>  <MODEL>
5

>  <REMARK>
 VINA RESULT:      -6.6      3.900      8.617
  Name = 
  3 active torsions:
  status: ('A' for Active; 'I' for Inactive)
    1  A    between atoms: C_3  and  N_23
    2  A    between atoms: N_6  and  C_31
    3  A    between atoms: C_20  and  C_31
                            x       y       z     vdW  Elec       q    Type
                         _______ _______ _______ _____ _____    ______ ____

>  <TORSDO>
F 3

$$$$
=
 OpenBabel10222419413D

 36 41  0  0  1  0  0  0  0  0999 V2000
  185.1750  175.7720  137.1890 C   0  0  0  0  0  0  0  0  0  0  0  0
  182.0180  177.9780  138.1150 C   0  0  0  0  0  0  0  0  0  0  0  0
  186.3870  176.3880  137.1480 N   0  0  0  0  0  0  0  0  0  0  0  0
  187.3100  175.4060  137.0390 C   0  0  0  0  0  0  0  0  0  0  0  0
  182.9730  173.5390  136.7710 C   0  0  0  0  0  0  0  0  0  0  0  0
  182.3400  174.7600  136.3490 N   0  0  0  0  0  0  0  0  0  0  0  0
  180.8080  175.7930  134.8960 O   0  0  0  0  0  0  0  0  0  0  0  0
  181.3710  174.7330  135.2770 C   0  0  0  0  0  0  0  0  0  0  0  0
  182.3500  172.3470  136.8320 N   0  0  0  0  0  0  0  0  0  0  0  0
  183.3340  171.4880  137.1840 C   0  0  0  0  0  3  0  0  0  0  0  0
  187.4640  172.9440  136.7910 C   0  0  0  0  0  3  0  0  0  0  0  0
  182.6010  175.9880  137.0610 C   0  0  0  0  0  0  0  0  0  0  0  0
  188.7820  175.5640  136.7840 C   0  0  0  0  0  2  0  0  0  0  0  0
  189.5300  174.2840  137.2120 C   0  0  0  0  0  2  0  0  0  0  0  0
  184.2990  173.3710  137.0740 C   0  0  0  0  0  0  0  0  0  0  0  0
  184.4920  172.1000  137.3220 O   0  0  0  0  0  0  0  0  0  0  0  0
  183.8780  176.4530  137.4080 C   0  0  0  0  0  0  0  0  0  0  0  0
  181.5620  176.8640  137.4300 C   0  0  0  0  0  3  0  0  0  0  0  0
  181.0700  173.5160  134.5960 N   0  0  0  0  0  1  0  0  0  0  0  0
  186.7040  174.1820  137.0000 C   0  0  0  0  0  0  0  0  0  0  0  0
  183.6970  177.9440  138.1740 S   0  0  0  0  0  0  0  0  0  0  0  0
  185.3450  174.3950  137.0850 C   0  0  0  0  0  0  0  0  0  0  0  0
  188.8020  173.0050  136.8410 C   0  0  0  0  0  3  0  0  0  0  0  0
  179.6710  181.2520  140.8510 C   0  0  0  0  0  3  0  0  0  0  0  0
  180.6110  178.6260  143.2250 C   0  0  0  0  0  1  0  0  0  0  0  0
  180.9230  178.7940  140.7970 C   0  0  0  0  0  0  0  0  0  0  0  0
  181.4180  177.6350  140.8050 O   0  0  0  0  0  0  0  0  0  0  0  0
  179.8620  180.5310  141.9830 N   0  0  0  0  0  0  0  0  0  0  0  0
  181.2010  179.1130  138.4230 N   0  0  0  0  0  0  0  0  0  0  0  0
  180.7860  179.5260  139.5910 C   0  0  0  0  0  0  0  0  0  0  0  0
  180.4670  179.3420  141.9660 N   0  0  0  0  0  0  0  0  0  0  0  0
  180.1290  180.7530  139.6380 C   0  0  0  0  0  2  0  0  0  0  0  0
  187.1640  178.2580  135.7580 C   0  0  0  0  0  1  0  0  0  0  0  0
  186.6350  177.8300  137.1170 C   0  0  2  0  0  3  0  0  0  0  0  0
  187.5870  178.2430  138.2290 C   0  0  0  0  0  2  0  0  0  0  0  0
  186.9270  178.2430  139.4440 F   0  0  0  0  0  0  0  0  0  0  0  0
  1 17  1  0  0  0  0
  2 21  1  0  0  0  0
  2 29  1  0  0  0  0
  3  1  1  0  0  0  0
  4  3  1  0  0  0  0
  5  9  1  0  0  0  0
  5 15  2  0  0  0  0
  6  5  1  0  0  0  0
  6 12  1  0  0  0  0
  7  8  2  0  0  0  0
  8  6  1  0  0  0  0
  9 10  2  0  0  0  0
 10 16  1  0  0  0  0
 11 23  2  0  0  0  0
 11 20  1  0  0  0  0
 12 17  2  0  0  0  0
 12 18  1  0  0  0  0
 13  4  1  0  0  0  0
 13 14  1  0  0  0  0
 15 22  1  0  0  0  0
 15 16  1  0  0  0  0
 17 21  1  0  0  0  0
 18  2  2  0  0  0  0
 19  8  1  0  0  0  0
 20  4  2  0  0  0  0
 20 22  1  0  0  0  0
 22  1  2  0  0  0  0
 23 14  1  0  0  0  0
 24 28  2  0  0  0  0
 26 27  2  0  0  0  0
 26 31  1  0  0  0  0
 29 30  2  0  0  0  0
 30 32  1  0  0  0  0
 30 26  1  0  0  0  0
 31 28  1  0  0  0  0
 31 25  1  0  0  0  0
 32 24  1  0  0  0  0
 34 33  1  6  0  0  0
 34  3  1  0  0  0  0
 34 35  1  0  0  0  0
 35 36  1  0  0  0  0
M  END
>  <MODEL>
6

>  <REMARK>
 VINA RESULT:      -6.4      4.061      8.053
  Name = 
  3 active torsions:
  status: ('A' for Active; 'I' for Inactive)
    1  A    between atoms: C_3  and  N_23
    2  A    between atoms: N_6  and  C_31
    3  A    between atoms: C_20  and  C_31
                            x       y       z     vdW  Elec       q    Type
                         _______ _______ _______ _____ _____    ______ ____

>  <TORSDO>
F 3

$$$$
=
 OpenBabel10222419413D

 36 41  0  0  1  0  0  0  0  0999 V2000
  188.6340  177.3750  139.3310 C   0  0  0  0  0  0  0  0  0  0  0  0
  185.2730  179.2020  140.3580 C   0  0  0  0  0  0  0  0  0  0  0  0
  188.7000  176.8210  138.0910 N   0  0  0  0  0  0  0  0  0  0  0  0
  189.9910  176.4690  137.8980 C   0  0  0  0  0  0  0  0  0  0  0  0
  189.4200  178.0380  142.3230 C   0  0  0  0  0  0  0  0  0  0  0  0
  188.0080  177.7690  142.3680 N   0  0  0  0  0  0  0  0  0  0  0  0
  186.1960  176.9060  143.5940 O   0  0  0  0  0  0  0  0  0  0  0  0
  187.4320  177.1490  143.5390 C   0  0  0  0  0  0  0  0  0  0  0  0
  190.1450  178.4450  143.3820 N   0  0  0  0  0  0  0  0  0  0  0  0
  191.4120  178.4830  142.9100 C   0  0  0  0  0  3  0  0  0  0  0  0
  192.1600  176.4230  139.0980 C   0  0  0  0  0  3  0  0  0  0  0  0
  187.1580  178.2060  141.2860 C   0  0  0  0  0  0  0  0  0  0  0  0
  190.5560  175.6650  136.7640 C   0  0  0  0  0  2  0  0  0  0  0  0
  192.0760  175.9020  136.6560 C   0  0  0  0  0  2  0  0  0  0  0  0
  190.2560  177.8340  141.2570 C   0  0  0  0  0  0  0  0  0  0  0  0
  191.4740  178.1140  141.6470 O   0  0  0  0  0  0  0  0  0  0  0  0
  187.4290  178.0000  139.9250 C   0  0  0  0  0  0  0  0  0  0  0  0
  185.9300  178.8530  141.5250 C   0  0  0  0  0  3  0  0  0  0  0  0
  188.2540  176.7540  144.6350 N   0  0  0  0  0  1  0  0  0  0  0  0
  190.7410  176.7810  138.9980 C   0  0  0  0  0  0  0  0  0  0  0  0
  186.1400  178.6280  139.0380 S   0  0  0  0  0  0  0  0  0  0  0  0
  189.8930  177.3510  139.9240 C   0  0  0  0  0  0  0  0  0  0  0  0
  192.7770  175.9590  138.0020 C   0  0  0  0  0  3  0  0  0  0  0  0
  180.4080  179.0240  140.2130 C   0  0  0  0  0  3  0  0  0  0  0  0
  181.4420  175.5900  139.4710 C   0  0  0  0  0  1  0  0  0  0  0  0
  182.7580  177.6220  139.8660 C   0  0  0  0  0  0  0  0  0  0  0  0
  183.8050  176.9620  139.6220 O   0  0  0  0  0  0  0  0  0  0  0  0
  180.4060  177.6960  139.9450 N   0  0  0  0  0  0  0  0  0  0  0  0
  183.9250  179.6840  140.3160 N   0  0  0  0  0  0  0  0  0  0  0  0
  182.8190  179.0020  140.1850 C   0  0  0  0  0  0  0  0  0  0  0  0
  181.5380  177.0090  139.7770 N   0  0  0  0  0  0  0  0  0  0  0  0
  181.6200  179.6950  140.3310 C   0  0  0  0  0  2  0  0  0  0  0  0
  187.3980  175.0660  136.9710 C   0  0  0  0  0  1  0  0  0  0  0  0
  187.5770  176.5590  137.1900 C   0  0  2  0  0  3  0  0  0  0  0  0
  187.7590  177.2870  135.8670 C   0  0  0  0  0  2  0  0  0  0  0  0
  188.1070  178.6060  136.0950 F   0  0  0  0  0  0  0  0  0  0  0  0
  1 22  2  0  0  0  0
  1 17  1  0  0  0  0
  2 18  2  0  0  0  0
  3  1  1  0  0  0  0
  4  3  1  0  0  0  0
  4 20  2  0  0  0  0
  5  6  1  0  0  0  0
  5  9  1  0  0  0  0
  6  8  1  0  0  0  0
  8  7  2  0  0  0  0
  8 19  1  0  0  0  0
 10  9  2  0  0  0  0
 12 18  1  0  0  0  0
 12  6  1  0  0  0  0
 13  4  1  0  0  0  0
 14 13  1  0  0  0  0
 14 23  1  0  0  0  0
 15 16  1  0  0  0  0
 15  5  2  0  0  0  0
 16 10  1  0  0  0  0
 17 12  2  0  0  0  0
 20 11  1  0  0  0  0
 20 22  1  0  0  0  0
 21 17  1  0  0  0  0
 21  2  1  0  0  0  0
 22 15  1  0  0  0  0
 23 11  2  0  0  0  0
 24 32  1  0  0  0  0
 25 31  1  0  0  0  0
 26 30  1  0  0  0  0
 27 26  2  0  0  0  0
 28 24  2  0  0  0  0
 29  2  1  0  0  0  0
 30 29  2  0  0  0  0
 30 32  1  0  0  0  0
 31 26  1  0  0  0  0
 31 28  1  0  0  0  0
 34 33  1  6  0  0  0
 34  3  1  0  0  0  0
 35 36  1  0  0  0  0
 35 34  1  0  0  0  0
M  END
>  <MODEL>
7

>  <REMARK>
 VINA RESULT:      -6.4      2.807      7.365
  Name = 
  3 active torsions:
  status: ('A' for Active; 'I' for Inactive)
    1  A    between atoms: C_3  and  N_23
    2  A    between atoms: N_6  and  C_31
    3  A    between atoms: C_20  and  C_31
                            x       y       z     vdW  Elec       q    Type
                         _______ _______ _______ _____ _____    ______ ____

>  <TORSDO>
F 3

$$$$
=
 OpenBabel10222419413D

 36 41  0  0  1  0  0  0  0  0999 V2000
  188.9280  176.0420  137.9030 C   0  0  0  0  0  0  0  0  0  0  0  0
  186.1870  178.7530  138.8110 C   0  0  0  0  0  0  0  0  0  0  0  0
  188.6400  175.1580  136.9100 N   0  0  0  0  0  0  0  0  0  0  0  0
  189.7890  174.5010  136.6380 C   0  0  0  0  0  0  0  0  0  0  0  0
  190.4320  177.3420  140.3630 C   0  0  0  0  0  0  0  0  0  0  0  0
  189.0380  177.4020  140.7140 N   0  0  0  0  0  0  0  0  0  0  0  0
  187.4230  177.3260  142.4210 O   0  0  0  0  0  0  0  0  0  0  0  0
  188.6400  177.2760  142.0980 C   0  0  0  0  0  0  0  0  0  0  0  0
  191.4220  177.8690  141.1090 N   0  0  0  0  0  0  0  0  0  0  0  0
  192.5470  177.5030  140.4550 C   0  0  0  0  0  3  0  0  0  0  0  0
  192.1330  174.3380  137.4310 C   0  0  0  0  0  3  0  0  0  0  0  0
  188.0520  177.6850  139.6980 C   0  0  0  0  0  0  0  0  0  0  0  0
  189.9670  173.3070  135.7440 C   0  0  0  0  0  2  0  0  0  0  0  0
  191.4460  173.1770  135.3280 C   0  0  0  0  0  2  0  0  0  0  0  0
  190.9770  176.6720  139.3000 C   0  0  0  0  0  0  0  0  0  0  0  0
  192.2780  176.7870  139.3830 O   0  0  0  0  0  0  0  0  0  0  0  0
  187.9900  177.0490  138.4490 C   0  0  0  0  0  0  0  0  0  0  0  0
  187.0190  178.6170  139.9090 C   0  0  0  0  0  3  0  0  0  0  0  0
  189.6090  177.0430  143.1180 N   0  0  0  0  0  1  0  0  0  0  0  0
  190.7970  174.9450  137.4470 C   0  0  0  0  0  0  0  0  0  0  0  0
  186.6520  177.6580  137.6240 S   0  0  0  0  0  0  0  0  0  0  0  0
  190.2660  175.9200  138.2650 C   0  0  0  0  0  0  0  0  0  0  0  0
  192.4200  173.4630  136.4570 C   0  0  0  0  0  3  0  0  0  0  0  0
  181.4160  179.5430  139.3820 C   0  0  0  0  0  3  0  0  0  0  0  0
  181.7180  175.8930  139.4130 C   0  0  0  0  0  1  0  0  0  0  0  0
  183.4000  177.6490  139.0890 C   0  0  0  0  0  0  0  0  0  0  0  0
  184.2620  176.7520  138.8820 O   0  0  0  0  0  0  0  0  0  0  0  0
  181.1460  178.2170  139.4670 N   0  0  0  0  0  0  0  0  0  0  0  0
  184.9520  179.4770  138.8310 N   0  0  0  0  0  0  0  0  0  0  0  0
  183.7440  179.0230  139.0320 C   0  0  0  0  0  0  0  0  0  0  0  0
  182.1000  177.2940  139.3280 N   0  0  0  0  0  0  0  0  0  0  0  0
  182.7220  179.9610  139.1580 C   0  0  0  0  0  2  0  0  0  0  0  0
  186.8860  173.4660  136.6050 C   0  0  0  0  0  1  0  0  0  0  0  0
  187.3230  174.8950  136.3280 C   0  0  2  0  0  3  0  0  0  0  0  0
  187.3170  175.1890  134.8360 C   0  0  0  0  0  2  0  0  0  0  0  0
  187.8580  176.4390  134.5970 F   0  0  0  0  0  0  0  0  0  0  0  0
  1 22  2  0  0  0  0
  1 17  1  0  0  0  0
  2 29  1  0  0  0  0
  2 18  2  0  0  0  0
  3  1  1  0  0  0  0
  4  3  1  0  0  0  0
  4 20  2  0  0  0  0
  5  6  1  0  0  0  0
  5  9  1  0  0  0  0
  6  8  1  0  0  0  0
  8  7  2  0  0  0  0
  8 19  1  0  0  0  0
 10  9  2  0  0  0  0
 11 20  1  0  0  0  0
 12 18  1  0  0  0  0
 12  6  1  0  0  0  0
 13  4  1  0  0  0  0
 14 13  1  0  0  0  0
 14 23  1  0  0  0  0
 15 16  1  0  0  0  0
 15  5  2  0  0  0  0
 16 10  1  0  0  0  0
 17 12  2  0  0  0  0
 20 22  1  0  0  0  0
 21 17  1  0  0  0  0
 21  2  1  0  0  0  0
 22 15  1  0  0  0  0
 23 11  2  0  0  0  0
 24 28  2  0  0  0  0
 26 31  1  0  0  0  0
 27 26  2  0  0  0  0
 29 30  2  0  0  0  0
 30 26  1  0  0  0  0
 30 32  1  0  0  0  0
 31 25  1  0  0  0  0
 31 28  1  0  0  0  0
 32 24  1  0  0  0  0
 34 33  1  6  0  0  0
 34  3  1  0  0  0  0
 35 34  1  0  0  0  0
 36 35  1  0  0  0  0
M  END
>  <MODEL>
8

>  <REMARK>
 VINA RESULT:      -6.1      3.388      8.065
  Name = 
  3 active torsions:
  status: ('A' for Active; 'I' for Inactive)
    1  A    between atoms: C_3  and  N_23
    2  A    between atoms: N_6  and  C_31
    3  A    between atoms: C_20  and  C_31
                            x       y       z     vdW  Elec       q    Type
                         _______ _______ _______ _____ _____    ______ ____

>  <TORSDO>
F 3

$$$$
=
 OpenBabel10222419413D

 36 41  0  0  1  0  0  0  0  0999 V2000
  188.7330  177.1990  138.8760 C   0  0  0  0  0  0  0  0  0  0  0  0
  186.4110  178.7140  141.7050 C   0  0  0  0  0  0  0  0  0  0  0  0
  188.1680  176.9370  137.6670 N   0  0  0  0  0  0  0  0  0  0  0  0
  189.1860  176.6510  136.8240 C   0  0  0  0  0  0  0  0  0  0  0  0
  190.8640  177.1820  141.2140 C   0  0  0  0  0  0  0  0  0  0  0  0
  189.6110  176.8960  141.8600 N   0  0  0  0  0  0  0  0  0  0  0  0
  188.4910  175.7610  143.5880 O   0  0  0  0  0  0  0  0  0  0  0  0
  189.5800  176.0220  143.0120 C   0  0  0  0  0  0  0  0  0  0  0  0
  192.0300  177.3490  141.8670 N   0  0  0  0  0  0  0  0  0  0  0  0
  192.9350  177.5050  140.8750 C   0  0  0  0  0  3  0  0  0  0  0  0
  191.6480  176.3590  136.8290 C   0  0  0  0  0  3  0  0  0  0  0  0
  188.4060  177.5550  141.4170 C   0  0  0  0  0  0  0  0  0  0  0  0
  189.0870  176.1270  135.4210 C   0  0  0  0  0  2  0  0  0  0  0  0
  190.4030  176.3980  134.6630 C   0  0  0  0  0  2  0  0  0  0  0  0
  191.0930  177.2310  139.8640 C   0  0  0  0  0  0  0  0  0  0  0  0
  192.3740  177.4290  139.6850 O   0  0  0  0  0  0  0  0  0  0  0  0
  188.0010  177.6620  140.0780 C   0  0  0  0  0  0  0  0  0  0  0  0
  187.4940  178.1190  142.3290 C   0  0  0  0  0  3  0  0  0  0  0  0
  190.7720  175.4010  143.4880 N   0  0  0  0  0  1  0  0  0  0  0  0
  190.3830  176.7160  137.4810 C   0  0  0  0  0  0  0  0  0  0  0  0
  186.5160  178.4590  140.0480 S   0  0  0  0  0  0  0  0  0  0  0  0
  190.1140  177.0550  138.7900 C   0  0  0  0  0  0  0  0  0  0  0  0
  191.6450  176.1590  135.5040 C   0  0  0  0  0  3  0  0  0  0  0  0
  181.7010  179.1100  142.8790 C   0  0  0  0  0  3  0  0  0  0  0  0
  181.6710  177.2840  139.7050 C   0  0  0  0  0  1  0  0  0  0  0  0
  183.5230  178.2360  141.0020 C   0  0  0  0  0  0  0  0  0  0  0  0
  184.3130  177.8890  140.0820 O   0  0  0  0  0  0  0  0  0  0  0  0
  181.3080  178.4230  141.7790 N   0  0  0  0  0  0  0  0  0  0  0  0
  185.2470  179.1790  142.3990 N   0  0  0  0  0  0  0  0  0  0  0  0
  183.9920  178.9140  142.1550 C   0  0  0  0  0  0  0  0  0  0  0  0
  182.1830  177.9960  140.8660 N   0  0  0  0  0  0  0  0  0  0  0  0
  183.0520  179.3680  143.0770 C   0  0  0  0  0  2  0  0  0  0  0  0
  186.3340  175.4630  136.9660 C   0  0  0  0  0  1  0  0  0  0  0  0
  186.7370  176.8720  137.3650 C   0  0  2  0  0  3  0  0  0  0  0  0
  186.3620  177.8750  136.2850 C   0  0  0  0  0  2  0  0  0  0  0  0
  187.0940  179.0370  136.4410 F   0  0  0  0  0  0  0  0  0  0  0  0
  1 17  1  0  0  0  0
  2 18  2  0  0  0  0
  2 29  1  0  0  0  0
  3  1  1  0  0  0  0
  4 20  2  0  0  0  0
  4  3  1  0  0  0  0
  5  6  1  0  0  0  0
  5  9  1  0  0  0  0
  6  8  1  0  0  0  0
  8 19  1  0  0  0  0
  8  7  2  0  0  0  0
 10  9  2  0  0  0  0
 11 20  1  0  0  0  0
 12  6  1  0  0  0  0
 12 18  1  0  0  0  0
 13  4  1  0  0  0  0
 14 13  1  0  0  0  0
 14 23  1  0  0  0  0
 15  5  2  0  0  0  0
 16 15  1  0  0  0  0
 16 10  1  0  0  0  0
 17 12  2  0  0  0  0
 20 22  1  0  0  0  0
 21 17  1  0  0  0  0
 21  2  1  0  0  0  0
 22  1  2  0  0  0  0
 22 15  1  0  0  0  0
 23 11  2  0  0  0  0
 24 32  1  0  0  0  0
 25 31  1  0  0  0  0
 26 30  1  0  0  0  0
 27 26  2  0  0  0  0
 28 24  2  0  0  0  0
 30 29  2  0  0  0  0
 30 32  1  0  0  0  0
 31 26  1  0  0  0  0
 31 28  1  0  0  0  0
 34 33  1  6  0  0  0
 34  3  1  0  0  0  0
 35 36  1  0  0  0  0
 35 34  1  0  0  0  0
M  END
>  <MODEL>
9

>  <REMARK>
 VINA RESULT:      -6.0      2.929      8.223
  Name = 
  3 active torsions:
  status: ('A' for Active; 'I' for Inactive)
    1  A    between atoms: C_3  and  N_23
    2  A    between atoms: N_6  and  C_31
    3  A    between atoms: C_20  and  C_31
                            x       y       z     vdW  Elec       q    Type
                         _______ _______ _______ _____ _____    ______ ____

>  <TORSDO>
F 3

$$$$
