=
 OpenBabel10222421113D

 34 39  0  0  1  0  0  0  0  0999 V2000
  187.2340  178.0230  141.6890 C   0  0  0  0  0  2  0  0  0  0  0  0
  183.2500  180.0660  138.8650 N   0  0  0  0  0  2  0  0  0  0  0  0
  187.5690  177.9260  139.2500 C   0  0  0  0  0  0  0  0  0  0  0  0
  184.1520  177.7860  141.6160 N   0  0  0  0  0  2  0  0  0  0  0  0
  187.6130  176.3950  137.6940 N   0  0  0  0  0  0  0  0  0  0  0  0
  183.0880  178.7720  141.5100 C   0  0  1  0  0  3  0  0  0  0  0  0
  186.1860  178.9930  142.2060 C   0  0  0  0  0  2  0  0  0  0  0  0
  183.9540  178.5850  144.8590 O   0  0  0  0  0  1  0  0  0  0  0  0
  186.4380  177.0380  137.5690 C   0  0  0  0  0  0  0  0  0  0  0  0
  181.8810  178.2020  140.8320 C   0  0  0  0  0  0  0  0  0  0  0  0
  188.2870  176.9220  138.7080 N   0  0  0  0  0  0  0  0  0  0  0  0
  182.7980  179.2660  142.9040 C   0  0  0  0  0  2  0  0  0  0  0  0
  185.3660  178.9670  138.8780 C   0  0  0  0  0  3  0  0  0  0  0  0
  184.1110  179.0730  138.2920 C   0  0  0  0  0  0  0  0  0  0  0  0
  180.1060  176.6950  140.5360 C   0  0  0  0  0  3  0  0  0  0  0  0
  184.2100  177.2390  136.5220 C   0  0  0  0  0  3  0  0  0  0  0  0
  180.0040  177.7900  139.2630 S   0  0  0  0  0  0  0  0  0  0  0  0
  184.1330  179.1550  143.6010 C   0  0  2  0  0  3  0  0  0  0  0  0
  185.4710  176.6730  136.6520 C   0  0  0  0  0  3  0  0  0  0  0  0
  187.9660  178.6340  140.5060 C   0  0  0  0  0  2  0  0  0  0  0  0
  181.2010  177.0690  141.3100 C   0  0  0  0  0  3  0  0  0  0  0  0
  184.9780  178.2330  142.7340 C   0  0  1  0  0  3  0  0  0  0  0  0
  181.3420  178.7300  139.6570 C   0  0  0  0  0  0  0  0  0  0  0  0
  186.3740  178.0700  138.5770 C   0  0  0  0  0  0  0  0  0  0  0  0
  181.7920  179.9880  138.9470 C   0  0  2  0  0  3  0  0  0  0  0  0
  183.6220  178.2760  137.2480 C   0  0  0  0  0  3  0  0  0  0  0  0
  181.0350  180.2300  137.3160 S   0  0  0  0  0  0  0  0  0  0  0  0
  179.9330  182.2030  138.6830 N   0  0  0  0  0  1  0  0  0  0  0  0
  180.1430  181.5810  137.4110 C   0  0  2  0  0  3  0  0  0  0  0  0
  179.3210  181.9570  136.2860 N   0  0  0  0  0  0  0  0  0  0  0  0
  179.9100  183.0180  135.4150 C   0  0  1  0  0  3  0  0  0  0  0  0
  178.9310  183.3710  136.4350 C   0  0  0  0  0  2  0  0  0  0  0  0
  181.2800  183.5510  135.8380 C   0  0  0  0  0  2  0  0  0  0  0  0
  181.1340  184.9630  136.3660 C   0  0  0  0  0  1  0  0  0  0  0  0
  1  7  1  0  0  0  0
  2 25  1  0  0  0  0
  3 20  1  0  0  0  0
  4 22  1  0  0  0  0
  5 11  2  0  0  0  0
  6  4  1  0  0  0  0
  6 12  1  1  0  0  0
  9  5  1  0  0  0  0
  9 24  1  0  0  0  0
 10 21  1  0  0  0  0
 10  6  1  0  0  0  0
 11  3  1  0  0  0  0
 12 18  1  0  0  0  0
 14  2  1  0  0  0  0
 14 13  2  0  0  0  0
 15 21  2  0  0  0  0
 16 19  1  0  0  0  0
 16 26  2  0  0  0  0
 17 23  1  0  0  0  0
 17 15  1  0  0  0  0
 18  8  1  1  0  0  0
 19  9  2  0  0  0  0
 20  1  1  0  0  0  0
 22  7  1  6  0  0  0
 22 18  1  0  0  0  0
 23 10  2  0  0  0  0
 24 13  1  0  0  0  0
 24  3  2  0  0  0  0
 25 27  1  6  0  0  0
 25 23  1  0  0  0  0
 26 14  1  0  0  0  0
 27 29  1  0  0  0  0
 29 28  1  1  0  0  0
 30 32  1  0  0  0  0
 30 29  1  0  0  0  0
 31 33  1  1  0  0  0
 31 30  1  0  0  0  0
 31 32  1  0  0  0  0
 33 34  1  0  0  0  0
M  END
>  <MODEL>
1

>  <REMARK>
 VINA RESULT:      -5.8      0.000      0.000
  Name = 
  3 active torsions:
  status: ('A' for Active; 'I' for Inactive)
    1  A    between atoms: N_3  and  C_29
    2  A    between atoms: C_6  and  C_16
    3  A    between atoms: S_13  and  C_32
                            x       y       z     vdW  Elec       q    Type
                         _______ _______ _______ _____ _____    ______ ____

>  <TORSDO>
F 3

$$$$
=
 OpenBabel10222421113D

 34 39  0  0  1  0  0  0  0  0999 V2000
  184.2200  171.8460  136.2590 C   0  0  0  0  0  2  0  0  0  0  0  0
  182.3640  175.7620  139.2990 N   0  0  0  0  0  2  0  0  0  0  0  0
  185.8390  173.6550  136.6770 C   0  0  0  0  0  0  0  0  0  0  0  0
  181.6910  173.6200  136.3770 N   0  0  0  0  0  2  0  0  0  0  0  0
  186.7790  175.2640  135.5390 N   0  0  0  0  0  0  0  0  0  0  0  0
  180.8260  174.0340  137.4700 C   0  0  1  0  0  3  0  0  0  0  0  0
  183.0270  171.7530  137.1950 C   0  0  0  0  0  2  0  0  0  0  0  0
  179.7230  170.9140  136.4440 O   0  0  0  0  0  1  0  0  0  0  0  0
  185.8430  175.8380  136.3160 C   0  0  0  0  0  0  0  0  0  0  0  0
  180.2070  175.3710  137.1990 C   0  0  0  0  0  0  0  0  0  0  0  0
  186.7700  173.9540  135.7500 N   0  0  0  0  0  0  0  0  0  0  0  0
  179.8030  172.9450  137.6660 C   0  0  0  0  0  2  0  0  0  0  0  0
  184.1640  174.8830  138.0050 C   0  0  0  0  0  3  0  0  0  0  0  0
  183.4320  176.0050  138.3740 C   0  0  0  0  0  0  0  0  0  0  0  0
  178.9370  176.9350  135.9960 C   0  0  0  0  0  3  0  0  0  0  0  0
  184.5460  177.8310  136.9840 C   0  0  0  0  0  3  0  0  0  0  0  0
  179.5100  177.7470  137.3530 S   0  0  0  0  0  0  0  0  0  0  0  0
  180.5420  171.6930  137.2590 C   0  0  2  0  0  3  0  0  0  0  0  0
  185.5490  177.1860  136.2720 C   0  0  0  0  0  3  0  0  0  0  0  0
  185.4590  172.2550  137.0390 C   0  0  0  0  0  2  0  0  0  0  0  0
  179.4160  175.6300  136.0670 C   0  0  0  0  0  3  0  0  0  0  0  0
  181.7540  172.1640  136.4700 C   0  0  1  0  0  3  0  0  0  0  0  0
  180.3810  176.4780  138.0320 C   0  0  0  0  0  0  0  0  0  0  0  0
  185.2020  174.8050  137.0960 C   0  0  0  0  0  0  0  0  0  0  0  0
  181.1030  176.4990  139.3610 C   0  0  2  0  0  3  0  0  0  0  0  0
  183.6220  177.3060  137.8890 C   0  0  0  0  0  3  0  0  0  0  0  0
  181.3540  178.1610  140.0430 S   0  0  0  0  0  0  0  0  0  0  0  0
  179.1950  177.3960  141.3580 N   0  0  0  0  0  1  0  0  0  0  0  0
  180.2380  178.3650  141.2010 C   0  0  2  0  0  3  0  0  0  0  0  0
  180.1190  179.6540  141.8400 N   0  0  0  0  0  0  0  0  0  0  0  0
  180.7790  179.7450  143.1760 C   0  0  1  0  0  3  0  0  0  0  0  0
  179.3470  179.4960  143.0860 C   0  0  0  0  0  2  0  0  0  0  0  0
  181.4730  178.4750  143.6730 C   0  0  0  0  0  2  0  0  0  0  0  0
  182.8590  178.8190  144.1770 C   0  0  0  0  0  1  0  0  0  0  0  0
  1 20  1  0  0  0  0
  1  7  1  0  0  0  0
  2 25  1  0  0  0  0
  3 20  1  0  0  0  0
  3 24  1  0  0  0  0
  4 22  1  0  0  0  0
  4  6  1  0  0  0  0
  5 11  1  0  0  0  0
  5  9  2  0  0  0  0
  6 12  1  6  0  0  0
  9 24  1  0  0  0  0
 10  6  1  0  0  0  0
 10 23  2  0  0  0  0
 11  3  2  0  0  0  0
 13 14  1  0  0  0  0
 14  2  1  0  0  0  0
 15 21  2  0  0  0  0
 15 17  1  0  0  0  0
 16 26  1  0  0  0  0
 17 23  1  0  0  0  0
 18  8  1  6  0  0  0
 18 12  1  0  0  0  0
 19  9  1  0  0  0  0
 19 16  2  0  0  0  0
 21 10  1  0  0  0  0
 22  7  1  1  0  0  0
 22 18  1  0  0  0  0
 23 25  1  0  0  0  0
 24 13  2  0  0  0  0
 25 27  1  6  0  0  0
 26 14  2  0  0  0  0
 27 29  1  0  0  0  0
 29 28  1  6  0  0  0
 29 30  1  0  0  0  0
 30 32  1  0  0  0  0
 30 31  1  0  0  0  0
 31 33  1  6  0  0  0
 32 31  1  0  0  0  0
 33 34  1  0  0  0  0
M  END
>  <MODEL>
2

>  <REMARK>
 VINA RESULT:      -5.5      4.256      6.390
  Name = 
  3 active torsions:
  status: ('A' for Active; 'I' for Inactive)
    1  A    between atoms: N_3  and  C_29
    2  A    between atoms: C_6  and  C_16
    3  A    between atoms: S_13  and  C_32
                            x       y       z     vdW  Elec       q    Type
                         _______ _______ _______ _____ _____    ______ ____

>  <TORSDO>
F 3

$$$$
=
 OpenBabel10222421113D

 34 39  0  0  1  0  0  0  0  0999 V2000
  186.3750  178.2500  141.5270 C   0  0  0  0  0  2  0  0  0  0  0  0
  182.0830  180.3270  139.2290 N   0  0  0  0  0  2  0  0  0  0  0  0
  186.4480  178.2520  139.0650 C   0  0  0  0  0  0  0  0  0  0  0  0
  183.3070  177.9610  141.7750 N   0  0  0  0  0  2  0  0  0  0  0  0
  186.3450  176.7830  137.4530 N   0  0  0  0  0  0  0  0  0  0  0  0
  182.2250  178.9310  141.8230 C   0  0  1  0  0  3  0  0  0  0  0  0
  185.3760  179.1810  142.1920 C   0  0  0  0  0  2  0  0  0  0  0  0
  183.4490  178.6330  145.0500 O   0  0  0  0  0  1  0  0  0  0  0  0
  185.1540  177.4090  137.4810 C   0  0  0  0  0  0  0  0  0  0  0  0
  180.9590  178.3660  141.2550 C   0  0  0  0  0  0  0  0  0  0  0  0
  187.1170  177.2830  138.4090 N   0  0  0  0  0  0  0  0  0  0  0  0
  182.0800  179.3670  143.2580 C   0  0  0  0  0  2  0  0  0  0  0  0
  184.2030  179.2670  138.9720 C   0  0  0  0  0  3  0  0  0  0  0  0
  182.8910  179.3720  138.5280 C   0  0  0  0  0  0  0  0  0  0  0  0
  179.1850  176.8390  141.0920 C   0  0  0  0  0  3  0  0  0  0  0  0
  182.8240  177.6080  136.6870 C   0  0  0  0  0  3  0  0  0  0  0  0
  178.9310  177.9790  139.8820 S   0  0  0  0  0  0  0  0  0  0  0  0
  183.4830  179.2530  143.8030 C   0  0  2  0  0  3  0  0  0  0  0  0
  184.1000  177.0610  136.6590 C   0  0  0  0  0  3  0  0  0  0  0  0
  186.9680  178.9190  140.2980 C   0  0  0  0  0  2  0  0  0  0  0  0
  180.3510  177.2030  141.7580 C   0  0  0  0  0  3  0  0  0  0  0  0
  184.2420  178.3810  142.8160 C   0  0  1  0  0  3  0  0  0  0  0  0
  180.2900  178.9280  140.1670 C   0  0  0  0  0  0  0  0  0  0  0  0
  185.1850  178.4010  138.5300 C   0  0  0  0  0  0  0  0  0  0  0  0
  180.6440  180.2200  139.4630 C   0  0  2  0  0  3  0  0  0  0  0  0
  182.3030  178.6070  137.5120 C   0  0  0  0  0  3  0  0  0  0  0  0
  179.7120  180.5090  137.9340 S   0  0  0  0  0  0  0  0  0  0  0  0
  181.0310  182.7870  138.1610 N   0  0  0  0  0  1  0  0  0  0  0  0
  180.1930  181.9480  137.3600 C   0  0  2  0  0  3  0  0  0  0  0  0
  179.5250  182.4990  136.2050 N   0  0  0  0  0  0  0  0  0  0  0  0
  180.0270  181.9850  134.8950 C   0  0  1  0  0  3  0  0  0  0  0  0
  180.5040  183.2620  135.4100 C   0  0  0  0  0  2  0  0  0  0  0  0
  181.1660  180.9660  134.9650 C   0  0  0  0  0  2  0  0  0  0  0  0
  180.6420  179.5940  134.5940 C   0  0  0  0  0  1  0  0  0  0  0  0
  1  7  1  0  0  0  0
  2 25  1  0  0  0  0
  3 20  1  0  0  0  0
  4  6  1  0  0  0  0
  4 22  1  0  0  0  0
  5  9  2  0  0  0  0
  5 11  1  0  0  0  0
  6 12  1  1  0  0  0
  9 24  1  0  0  0  0
 10 21  1  0  0  0  0
 10  6  1  0  0  0  0
 11  3  2  0  0  0  0
 12 18  1  0  0  0  0
 14 13  1  0  0  0  0
 14  2  1  0  0  0  0
 15 21  2  0  0  0  0
 16 26  1  0  0  0  0
 17 23  1  0  0  0  0
 17 15  1  0  0  0  0
 18  8  1  1  0  0  0
 19 16  2  0  0  0  0
 19  9  1  0  0  0  0
 20  1  1  0  0  0  0
 22  7  1  6  0  0  0
 22 18  1  0  0  0  0
 23 10  2  0  0  0  0
 24 13  2  0  0  0  0
 24  3  1  0  0  0  0
 25 27  1  6  0  0  0
 25 23  1  0  0  0  0
 26 14  2  0  0  0  0
 29 27  1  0  0  0  0
 29 28  1  1  0  0  0
 30 29  1  0  0  0  0
 31 33  1  1  0  0  0
 31 32  1  0  0  0  0
 31 30  1  0  0  0  0
 32 30  1  0  0  0  0
 34 33  1  0  0  0  0
M  END
>  <MODEL>
3

>  <REMARK>
 VINA RESULT:      -5.2      1.224      1.552
  Name = 
  3 active torsions:
  status: ('A' for Active; 'I' for Inactive)
    1  A    between atoms: N_3  and  C_29
    2  A    between atoms: C_6  and  C_16
    3  A    between atoms: S_13  and  C_32
                            x       y       z     vdW  Elec       q    Type
                         _______ _______ _______ _____ _____    ______ ____

>  <TORSDO>
F 3

$$$$
=
 OpenBabel10222421113D

 34 39  0  0  1  0  0  0  0  0999 V2000
  184.9150  179.1130  141.8450 C   0  0  0  0  0  2  0  0  0  0  0  0
  184.4240  175.4650  138.0400 N   0  0  0  0  0  2  0  0  0  0  0  0
  182.5850  178.5990  141.2300 C   0  0  0  0  0  0  0  0  0  0  0  0
  186.1280  178.5720  139.0530 N   0  0  0  0  0  2  0  0  0  0  0  0
  180.9380  179.5960  140.2000 N   0  0  0  0  0  0  0  0  0  0  0  0
  186.6440  177.3710  138.4170 C   0  0  1  0  0  3  0  0  0  0  0  0
  185.9770  178.1050  141.4400 C   0  0  0  0  0  2  0  0  0  0  0  0
  189.2270  178.6920  140.3100 O   0  0  0  0  0  1  0  0  0  0  0  0
  181.4310  178.6810  139.3450 C   0  0  0  0  0  0  0  0  0  0  0  0
  186.4650  177.4200  136.9300 C   0  0  0  0  0  0  0  0  0  0  0  0
  181.6370  179.5530  141.3270 N   0  0  0  0  0  0  0  0  0  0  0  0
  188.0870  177.2330  138.8280 C   0  0  0  0  0  2  0  0  0  0  0  0
  183.3590  176.9980  139.5240 C   0  0  0  0  0  3  0  0  0  0  0  0
  183.3900  176.4340  138.2550 C   0  0  0  0  0  0  0  0  0  0  0  0
  186.7200  178.3110  134.7750 C   0  0  0  0  0  3  0  0  0  0  0  0
  181.4810  177.6660  137.0940 C   0  0  0  0  0  3  0  0  0  0  0  0
  185.8040  176.9120  134.5940 S   0  0  0  0  0  0  0  0  0  0  0  0
  188.1200  177.8530  140.2050 C   0  0  2  0  0  3  0  0  0  0  0  0
  180.9690  178.5310  138.0520 C   0  0  0  0  0  3  0  0  0  0  0  0
  183.6460  178.3890  142.2630 C   0  0  0  0  0  2  0  0  0  0  0  0
  187.0010  178.4430  136.1310 C   0  0  0  0  0  3  0  0  0  0  0  0
  186.8420  178.6690  140.3230 C   0  0  1  0  0  3  0  0  0  0  0  0
  185.7330  176.4700  136.2150 C   0  0  0  0  0  0  0  0  0  0  0  0
  182.5190  177.9890  139.9950 C   0  0  0  0  0  0  0  0  0  0  0  0
  185.1070  175.2100  136.7730 C   0  0  2  0  0  3  0  0  0  0  0  0
  182.5430  176.7640  137.1880 C   0  0  0  0  0  3  0  0  0  0  0  0
  184.0170  174.3460  135.6090 S   0  0  0  0  0  0  0  0  0  0  0  0
  185.0430  172.3120  136.9460 N   0  0  0  0  0  1  0  0  0  0  0  0
  184.0810  172.7710  135.9900 C   0  0  2  0  0  3  0  0  0  0  0  0
  183.4000  171.8190  135.1460 N   0  0  0  0  0  0  0  0  0  0  0  0
  182.0930  171.3370  135.6850 C   0  0  1  0  0  3  0  0  0  0  0  0
  183.2970  170.5360  135.8650 C   0  0  0  0  0  2  0  0  0  0  0  0
  181.6720  171.9100  137.0400 C   0  0  0  0  0  2  0  0  0  0  0  0
  180.2170  171.5760  137.3010 C   0  0  0  0  0  1  0  0  0  0  0  0
  1 20  1  0  0  0  0
  2 14  1  0  0  0  0
  3 11  1  0  0  0  0
  3 20  1  0  0  0  0
  4 22  1  0  0  0  0
  5 11  2  0  0  0  0
  6 12  1  6  0  0  0
  6  4  1  0  0  0  0
  7  1  1  0  0  0  0
  9 24  1  0  0  0  0
  9  5  1  0  0  0  0
 10  6  1  0  0  0  0
 12 18  1  0  0  0  0
 13 24  1  0  0  0  0
 14 13  2  0  0  0  0
 15 21  2  0  0  0  0
 16 26  2  0  0  0  0
 16 19  1  0  0  0  0
 17 15  1  0  0  0  0
 17 23  1  0  0  0  0
 18  8  1  6  0  0  0
 18 22  1  0  0  0  0
 19  9  2  0  0  0  0
 21 10  1  0  0  0  0
 22  7  1  1  0  0  0
 23 25  1  0  0  0  0
 23 10  2  0  0  0  0
 24  3  2  0  0  0  0
 25 27  1  6  0  0  0
 25  2  1  0  0  0  0
 26 14  1  0  0  0  0
 27 29  1  0  0  0  0
 29 28  1  6  0  0  0
 30 31  1  0  0  0  0
 30 32  1  0  0  0  0
 30 29  1  0  0  0  0
 31 32  1  0  0  0  0
 31 33  1  1  0  0  0
 33 34  1  0  0  0  0
M  END
>  <MODEL>
4

>  <REMARK>
 VINA RESULT:      -4.9      3.649      7.307
  Name = 
  3 active torsions:
  status: ('A' for Active; 'I' for Inactive)
    1  A    between atoms: N_3  and  C_29
    2  A    between atoms: C_6  and  C_16
    3  A    between atoms: S_13  and  C_32
                            x       y       z     vdW  Elec       q    Type
                         _______ _______ _______ _____ _____    ______ ____

>  <TORSDO>
F 3

$$$$
=
 OpenBabel10222421113D

 34 39  0  0  1  0  0  0  0  0999 V2000
  183.8390  179.0010  140.8260 C   0  0  0  0  0  2  0  0  0  0  0  0
  185.7760  175.3150  137.5570 N   0  0  0  0  0  2  0  0  0  0  0  0
  182.2200  178.1710  139.1640 C   0  0  0  0  0  0  0  0  0  0  0  0
  186.3530  178.6280  139.0650 N   0  0  0  0  0  2  0  0  0  0  0  0
  181.2180  178.9300  137.3790 N   0  0  0  0  0  0  0  0  0  0  0  0
  187.2570  177.5080  138.8590 C   0  0  1  0  0  3  0  0  0  0  0  0
  185.0690  178.1470  141.0810 C   0  0  0  0  0  2  0  0  0  0  0  0
  188.3490  179.1740  141.6940 O   0  0  0  0  0  1  0  0  0  0  0  0
  182.1790  178.0910  136.9540 C   0  0  0  0  0  0  0  0  0  0  0  0
  187.8510  177.5300  137.4840 C   0  0  0  0  0  0  0  0  0  0  0  0
  181.2490  178.9850  138.7040 N   0  0  0  0  0  0  0  0  0  0  0  0
  188.2970  177.5700  139.9480 C   0  0  0  0  0  2  0  0  0  0  0  0
  183.9340  176.6890  138.1930 C   0  0  0  0  0  3  0  0  0  0  0  0
  184.6700  176.1330  137.1540 C   0  0  0  0  0  0  0  0  0  0  0  0
  189.0560  178.4450  135.6910 C   0  0  0  0  0  3  0  0  0  0  0  0
  183.4820  177.0900  135.1100 C   0  0  0  0  0  3  0  0  0  0  0  0
  188.5290  176.9340  135.1740 S   0  0  0  0  0  0  0  0  0  0  0  0
  187.5560  178.1900  141.1080 C   0  0  2  0  0  3  0  0  0  0  0  0
  182.4570  177.8770  135.6180 C   0  0  0  0  0  3  0  0  0  0  0  0
  182.6280  178.1100  140.6010 C   0  0  0  0  0  2  0  0  0  0  0  0
  188.5930  178.6170  136.9920 C   0  0  0  0  0  3  0  0  0  0  0  0
  186.3080  178.8230  140.5110 C   0  0  1  0  0  3  0  0  0  0  0  0
  187.6990  176.4880  136.5680 C   0  0  0  0  0  0  0  0  0  0  0  0
  182.8610  177.5560  138.1090 C   0  0  0  0  0  0  0  0  0  0  0  0
  187.0310  175.1550  136.8240 C   0  0  2  0  0  3  0  0  0  0  0  0
  184.4470  176.3420  135.7860 C   0  0  0  0  0  3  0  0  0  0  0  0
  186.7910  174.1480  135.3350 S   0  0  0  0  0  0  0  0  0  0  0  0
  187.7840  172.3560  137.0020 N   0  0  0  0  0  1  0  0  0  0  0  0
  187.1750  172.6240  135.7340 C   0  0  2  0  0  3  0  0  0  0  0  0
  187.1950  171.6140  134.7030 N   0  0  0  0  0  0  0  0  0  0  0  0
  185.9830  170.7420  134.6670 C   0  0  1  0  0  3  0  0  0  0  0  0
  187.1910  170.2850  135.3410 C   0  0  0  0  0  2  0  0  0  0  0  0
  184.9110  171.0360  135.7170 C   0  0  0  0  0  2  0  0  0  0  0  0
  183.6470  171.5140  135.0320 C   0  0  0  0  0  1  0  0  0  0  0  0
  1  7  1  0  0  0  0
  3 20  1  0  0  0  0
  4 22  1  0  0  0  0
  5 11  2  0  0  0  0
  6  4  1  0  0  0  0
  6 12  1  1  0  0  0
  9  5  1  0  0  0  0
  9 24  1  0  0  0  0
 10  6  1  0  0  0  0
 11  3  1  0  0  0  0
 12 18  1  0  0  0  0
 14  2  1  0  0  0  0
 14 13  2  0  0  0  0
 15 21  2  0  0  0  0
 16 19  1  0  0  0  0
 16 26  2  0  0  0  0
 17 15  1  0  0  0  0
 17 23  1  0  0  0  0
 18  8  1  6  0  0  0
 19  9  2  0  0  0  0
 20  1  1  0  0  0  0
 21 10  1  0  0  0  0
 22  7  1  1  0  0  0
 22 18  1  0  0  0  0
 23 25  1  0  0  0  0
 23 10  2  0  0  0  0
 24 13  1  0  0  0  0
 24  3  2  0  0  0  0
 25 27  1  6  0  0  0
 25  2  1  0  0  0  0
 26 14  1  0  0  0  0
 27 29  1  0  0  0  0
 29 28  1  6  0  0  0
 30 32  1  0  0  0  0
 30 29  1  0  0  0  0
 31 30  1  0  0  0  0
 31 32  1  0  0  0  0
 31 33  1  1  0  0  0
 34 33  1  0  0  0  0
M  END
>  <MODEL>
5

>  <REMARK>
 VINA RESULT:      -4.7      3.736      7.988
  Name = 
  3 active torsions:
  status: ('A' for Active; 'I' for Inactive)
    1  A    between atoms: N_3  and  C_29
    2  A    between atoms: C_6  and  C_16
    3  A    between atoms: S_13  and  C_32
                            x       y       z     vdW  Elec       q    Type
                         _______ _______ _______ _____ _____    ______ ____

>  <TORSDO>
F 3

$$$$
=
 OpenBabel10222421113D

 34 39  0  0  1  0  0  0  0  0999 V2000
  184.6700  178.7510  143.1520 C   0  0  0  0  0  2  0  0  0  0  0  0
  181.8670  180.2670  138.9260 N   0  0  0  0  0  2  0  0  0  0  0  0
  186.0090  179.0550  141.1070 C   0  0  0  0  0  0  0  0  0  0  0  0
  182.0680  177.8820  141.7280 N   0  0  0  0  0  2  0  0  0  0  0  0
  187.0790  177.7900  139.6840 N   0  0  0  0  0  0  0  0  0  0  0  0
  180.9380  178.6260  141.1940 C   0  0  1  0  0  3  0  0  0  0  0  0
  183.2970  179.4000  143.1850 C   0  0  0  0  0  2  0  0  0  0  0  0
  180.3380  178.1790  144.5770 O   0  0  0  0  0  1  0  0  0  0  0  0
  185.9450  178.1820  139.0750 C   0  0  0  0  0  0  0  0  0  0  0  0
  180.3090  177.9100  140.0380 C   0  0  0  0  0  0  0  0  0  0  0  0
  187.1130  178.3070  140.9060 N   0  0  0  0  0  0  0  0  0  0  0  0
  179.9790  178.8560  142.3330 C   0  0  0  0  0  2  0  0  0  0  0  0
  183.9820  179.6480  139.8360 C   0  0  0  0  0  3  0  0  0  0  0  0
  183.1050  179.5640  138.7610 C   0  0  0  0  0  0  0  0  0  0  0  0
  179.2580  176.1160  138.9510 C   0  0  0  0  0  3  0  0  0  0  0  0
  184.3880  178.0460  137.1630 C   0  0  0  0  0  3  0  0  0  0  0  0
  179.4300  177.3250  137.7940 S   0  0  0  0  0  0  0  0  0  0  0  0
  180.8800  178.9370  143.5410 C   0  0  2  0  0  3  0  0  0  0  0  0
  185.5760  177.7470  137.8170 C   0  0  0  0  0  3  0  0  0  0  0  0
  185.6540  179.6560  142.4290 C   0  0  0  0  0  2  0  0  0  0  0  0
  179.7970  176.6060  140.1370 C   0  0  0  0  0  3  0  0  0  0  0  0
  182.2100  178.3390  143.1070 C   0  0  1  0  0  3  0  0  0  0  0  0
  180.2000  178.4650  138.7620 C   0  0  0  0  0  0  0  0  0  0  0  0
  185.2110  179.0330  139.9820 C   0  0  0  0  0  0  0  0  0  0  0  0
  180.5790  179.8730  138.3580 C   0  0  2  0  0  3  0  0  0  0  0  0
  183.3130  178.8290  137.5860 C   0  0  0  0  0  3  0  0  0  0  0  0
  180.5400  180.1660  136.5680 S   0  0  0  0  0  0  0  0  0  0  0  0
  179.2750  182.3070  137.4580 N   0  0  0  0  0  1  0  0  0  0  0  0
  179.8690  181.6260  136.3480 C   0  0  2  0  0  3  0  0  0  0  0  0
  179.5960  182.0750  135.0040 N   0  0  0  0  0  0  0  0  0  0  0  0
  180.3130  183.3250  134.6110 C   0  0  1  0  0  3  0  0  0  0  0  0
  178.9310  183.3890  135.0680 C   0  0  0  0  0  2  0  0  0  0  0  0
  181.2170  183.9450  135.6770 C   0  0  0  0  0  2  0  0  0  0  0  0
  180.7850  185.3730  135.9410 C   0  0  0  0  0  1  0  0  0  0  0  0
  1  7  1  0  0  0  0
  3 20  1  0  0  0  0
  4 22  1  0  0  0  0
  5 11  2  0  0  0  0
  6  4  1  0  0  0  0
  6 12  1  1  0  0  0
  9  5  1  0  0  0  0
  9 24  1  0  0  0  0
 10 21  1  0  0  0  0
 10  6  1  0  0  0  0
 11  3  1  0  0  0  0
 12 18  1  0  0  0  0
 13 24  1  0  0  0  0
 14  2  1  0  0  0  0
 14 13  2  0  0  0  0
 15 21  2  0  0  0  0
 16 26  2  0  0  0  0
 16 19  1  0  0  0  0
 17 23  1  0  0  0  0
 17 15  1  0  0  0  0
 18  8  1  1  0  0  0
 19  9  2  0  0  0  0
 20  1  1  0  0  0  0
 22  7  1  6  0  0  0
 22 18  1  0  0  0  0
 23 10  2  0  0  0  0
 24  3  2  0  0  0  0
 25 27  1  6  0  0  0
 25 23  1  0  0  0  0
 25  2  1  0  0  0  0
 26 14  1  0  0  0  0
 29 27  1  0  0  0  0
 29 28  1  1  0  0  0
 30 32  1  0  0  0  0
 30 29  1  0  0  0  0
 31 30  1  0  0  0  0
 31 32  1  0  0  0  0
 31 33  1  1  0  0  0
 33 34  1  0  0  0  0
M  END
>  <MODEL>
6

>  <REMARK>
 VINA RESULT:      -4.3      1.484      2.063
  Name = 
  3 active torsions:
  status: ('A' for Active; 'I' for Inactive)
    1  A    between atoms: N_3  and  C_29
    2  A    between atoms: C_6  and  C_16
    3  A    between atoms: S_13  and  C_32
                            x       y       z     vdW  Elec       q    Type
                         _______ _______ _______ _____ _____    ______ ____

>  <TORSDO>
F 3

$$$$
=
 OpenBabel10222421113D

 34 39  0  0  1  0  0  0  0  0999 V2000
  179.0870  178.2440  139.8730 C   0  0  0  0  0  2  0  0  0  0  0  0
  184.0070  178.6840  137.9700 N   0  0  0  0  0  2  0  0  0  0  0  0
  180.6790  179.3110  141.4210 C   0  0  0  0  0  0  0  0  0  0  0  0
  181.1500  176.4130  138.4750 N   0  0  0  0  0  2  0  0  0  0  0  0
  181.6720  178.8100  143.3000 N   0  0  0  0  0  0  0  0  0  0  0  0
  182.0190  176.6030  137.3260 C   0  0  1  0  0  3  0  0  0  0  0  0
  179.4790  178.1870  138.4060 C   0  0  0  0  0  2  0  0  0  0  0  0
  178.9310  175.6270  136.0980 O   0  0  0  0  0  1  0  0  0  0  0  0
  182.5980  178.6930  142.3310 C   0  0  0  0  0  0  0  0  0  0  0  0
  183.2700  175.7870  137.4460 C   0  0  0  0  0  0  0  0  0  0  0  0
  180.5190  179.1720  142.7530 N   0  0  0  0  0  0  0  0  0  0  0  0
  181.2150  176.2650  136.0980 C   0  0  0  0  0  2  0  0  0  0  0  0
  182.5030  179.0230  139.7890 C   0  0  0  0  0  3  0  0  0  0  0  0
  183.7770  178.6450  139.3840 C   0  0  0  0  0  0  0  0  0  0  0  0
  184.5210  173.8170  137.6910 C   0  0  0  0  0  3  0  0  0  0  0  0
  184.8660  178.0330  141.6090 C   0  0  0  0  0  3  0  0  0  0  0  0
  185.6390  175.0700  137.5930 S   0  0  0  0  0  0  0  0  0  0  0  0
  179.8050  176.6390  136.4870 C   0  0  2  0  0  3  0  0  0  0  0  0
  183.8860  178.2530  142.5680 C   0  0  0  0  0  3  0  0  0  0  0  0
  179.5440  179.5600  140.4800 C   0  0  0  0  0  2  0  0  0  0  0  0
  183.2560  174.3900  137.5920 C   0  0  0  0  0  3  0  0  0  0  0  0
  179.8110  176.7580  138.0040 C   0  0  1  0  0  3  0  0  0  0  0  0
  184.5500  176.3430  137.4470 C   0  0  0  0  0  0  0  0  0  0  0  0
  181.9820  179.0270  141.0690 C   0  0  0  0  0  0  0  0  0  0  0  0
  184.8990  177.7980  137.2240 C   0  0  2  0  0  3  0  0  0  0  0  0
  184.8060  178.1960  140.2240 C   0  0  0  0  0  3  0  0  0  0  0  0
  186.6370  178.2020  137.5480 S   0  0  0  0  0  0  0  0  0  0  0  0
  186.6880  177.8120  134.9360 N   0  0  0  0  0  1  0  0  0  0  0  0
  187.3820  178.2520  136.1080 C   0  0  2  0  0  3  0  0  0  0  0  0
  188.8130  178.4330  136.0660 N   0  0  0  0  0  0  0  0  0  0  0  0
  189.5980  177.1620  136.0660 C   0  0  1  0  0  3  0  0  0  0  0  0
  189.3960  177.8950  137.3090 C   0  0  0  0  0  2  0  0  0  0  0  0
  188.7830  175.8680  136.1150 C   0  0  0  0  0  2  0  0  0  0  0  0
  189.4310  174.8960  137.0790 C   0  0  0  0  0  1  0  0  0  0  0  0
  1 20  1  0  0  0  0
  2 14  1  0  0  0  0
  3 11  1  0  0  0  0
  6 12  1  6  0  0  0
  6 10  1  0  0  0  0
  6  4  1  0  0  0  0
  7  1  1  0  0  0  0
  9 19  2  0  0  0  0
  9  5  1  0  0  0  0
 10 23  2  0  0  0  0
 10 21  1  0  0  0  0
 11  5  2  0  0  0  0
 12 18  1  0  0  0  0
 13 24  1  0  0  0  0
 14 13  2  0  0  0  0
 14 26  1  0  0  0  0
 16 19  1  0  0  0  0
 17 15  1  0  0  0  0
 18  8  1  1  0  0  0
 18 22  1  0  0  0  0
 20  3  1  0  0  0  0
 21 15  2  0  0  0  0
 22  7  1  6  0  0  0
 22  4  1  0  0  0  0
 23 17  1  0  0  0  0
 24  3  2  0  0  0  0
 24  9  1  0  0  0  0
 25 23  1  0  0  0  0
 25 27  1  1  0  0  0
 25  2  1  0  0  0  0
 26 16  2  0  0  0  0
 29 28  1  1  0  0  0
 29 27  1  0  0  0  0
 30 29  1  0  0  0  0
 30 32  1  0  0  0  0
 31 30  1  0  0  0  0
 31 33  1  1  0  0  0
 31 32  1  0  0  0  0
 33 34  1  0  0  0  0
M  END
>  <MODEL>
7

>  <REMARK>
 VINA RESULT:      -4.2      3.847      7.485
  Name = 
  3 active torsions:
  status: ('A' for Active; 'I' for Inactive)
    1  A    between atoms: N_3  and  C_29
    2  A    between atoms: C_6  and  C_16
    3  A    between atoms: S_13  and  C_32
                            x       y       z     vdW  Elec       q    Type
                         _______ _______ _______ _____ _____    ______ ____

>  <TORSDO>
F 3

$$$$
=
 OpenBabel10222421113D

 34 39  0  0  1  0  0  0  0  0999 V2000
  181.8410  178.6780  142.6950 C   0  0  0  0  0  2  0  0  0  0  0  0
  185.4570  178.9710  138.8400 N   0  0  0  0  0  2  0  0  0  0  0  0
  184.1250  179.1590  143.4850 C   0  0  0  0  0  0  0  0  0  0  0  0
  182.6800  176.9950  140.2410 N   0  0  0  0  0  2  0  0  0  0  0  0
  185.6940  178.1220  144.5930 N   0  0  0  0  0  0  0  0  0  0  0  0
  182.9970  177.3450  138.8660 C   0  0  1  0  0  3  0  0  0  0  0  0
  181.5510  178.9190  141.2240 C   0  0  0  0  0  2  0  0  0  0  0  0
  179.5500  177.0510  139.0580 O   0  0  0  0  0  1  0  0  0  0  0  0
  186.0720  178.1260  143.3030 C   0  0  0  0  0  0  0  0  0  0  0  0
  183.9780  176.3830  138.2690 C   0  0  0  0  0  0  0  0  0  0  0  0
  184.5210  178.7330  144.7010 N   0  0  0  0  0  0  0  0  0  0  0  0
  181.6950  177.3990  138.1080 C   0  0  0  0  0  2  0  0  0  0  0  0
  184.9760  179.0490  141.1740 C   0  0  0  0  0  3  0  0  0  0  0  0
  185.8470  178.6300  140.1770 C   0  0  0  0  0  0  0  0  0  0  0  0
  184.7710  174.2780  137.6020 C   0  0  0  0  0  3  0  0  0  0  0  0
  187.6240  177.3930  141.5260 C   0  0  0  0  0  3  0  0  0  0  0  0
  185.9770  175.3790  137.1980 S   0  0  0  0  0  0  0  0  0  0  0  0
  180.6980  177.8340  139.1550 C   0  0  2  0  0  3  0  0  0  0  0  0
  187.2150  177.4960  142.8490 C   0  0  0  0  0  3  0  0  0  0  0  0
  182.7780  179.7530  143.2220 C   0  0  0  0  0  2  0  0  0  0  0  0
  183.7350  175.0010  138.1850 C   0  0  0  0  0  3  0  0  0  0  0  0
  181.3730  177.5940  140.4970 C   0  0  1  0  0  3  0  0  0  0  0  0
  185.2220  176.7690  137.7690 C   0  0  0  0  0  0  0  0  0  0  0  0
  185.0630  178.8160  142.5340 C   0  0  0  0  0  0  0  0  0  0  0  0
  185.7390  178.1860  137.6400 C   0  0  2  0  0  3  0  0  0  0  0  0
  187.0160  177.8810  140.3680 C   0  0  0  0  0  3  0  0  0  0  0  0
  187.4920  178.2960  137.1880 S   0  0  0  0  0  0  0  0  0  0  0  0
  186.3820  177.9240  134.8200 N   0  0  0  0  0  1  0  0  0  0  0  0
  187.5620  178.2360  135.5690 C   0  0  2  0  0  3  0  0  0  0  0  0
  188.8530  178.1800  134.9250 N   0  0  0  0  0  0  0  0  0  0  0  0
  189.3200  176.8000  134.5940 C   0  0  1  0  0  3  0  0  0  0  0  0
  189.7900  177.4580  135.8060 C   0  0  0  0  0  2  0  0  0  0  0  0
  188.3780  175.6600  134.9830 C   0  0  0  0  0  2  0  0  0  0  0  0
  189.1900  174.4510  135.3990 C   0  0  0  0  0  1  0  0  0  0  0  0
  1 20  1  0  0  0  0
  2 14  1  0  0  0  0
  3 11  1  0  0  0  0
  4 22  1  0  0  0  0
  5 11  2  0  0  0  0
  6 12  1  6  0  0  0
  6  4  1  0  0  0  0
  7  1  1  0  0  0  0
  9  5  1  0  0  0  0
 10  6  1  0  0  0  0
 12 18  1  0  0  0  0
 13 24  1  0  0  0  0
 14 26  1  0  0  0  0
 14 13  2  0  0  0  0
 15 21  2  0  0  0  0
 16 19  1  0  0  0  0
 17 15  1  0  0  0  0
 17 23  1  0  0  0  0
 18  8  1  1  0  0  0
 18 22  1  0  0  0  0
 19  9  2  0  0  0  0
 20  3  1  0  0  0  0
 21 10  1  0  0  0  0
 22  7  1  6  0  0  0
 23 10  2  0  0  0  0
 24  9  1  0  0  0  0
 24  3  2  0  0  0  0
 25 27  1  1  0  0  0
 25 23  1  0  0  0  0
 25  2  1  0  0  0  0
 26 16  2  0  0  0  0
 29 28  1  1  0  0  0
 29 27  1  0  0  0  0
 30 29  1  0  0  0  0
 30 32  1  0  0  0  0
 31 30  1  0  0  0  0
 31 33  1  1  0  0  0
 31 32  1  0  0  0  0
 33 34  1  0  0  0  0
M  END
>  <MODEL>
8

>  <REMARK>
 VINA RESULT:      -4.1      3.868      6.804
  Name = 
  3 active torsions:
  status: ('A' for Active; 'I' for Inactive)
    1  A    between atoms: N_3  and  C_29
    2  A    between atoms: C_6  and  C_16
    3  A    between atoms: S_13  and  C_32
                            x       y       z     vdW  Elec       q    Type
                         _______ _______ _______ _____ _____    ______ ____

>  <TORSDO>
F 3

$$$$
=
 OpenBabel10222421113D

 34 39  0  0  1  0  0  0  0  0999 V2000
  185.2860  172.8990  134.6510 C   0  0  0  0  0  2  0  0  0  0  0  0
  184.1270  176.4500  138.4020 N   0  0  0  0  0  2  0  0  0  0  0  0
  187.2190  174.2090  135.4360 C   0  0  0  0  0  0  0  0  0  0  0  0
  183.1730  175.1100  135.1050 N   0  0  0  0  0  2  0  0  0  0  0  0
  188.5250  175.7730  134.6510 N   0  0  0  0  0  0  0  0  0  0  0  0
  182.3580  175.4770  136.2520 C   0  0  1  0  0  3  0  0  0  0  0  0
  184.0550  172.8800  135.5410 C   0  0  0  0  0  2  0  0  0  0  0  0
  180.6900  172.9210  134.6120 O   0  0  0  0  0  1  0  0  0  0  0  0
  187.6900  176.3690  135.5200 C   0  0  0  0  0  0  0  0  0  0  0  0
  182.0410  176.9410  136.2510 C   0  0  0  0  0  0  0  0  0  0  0  0
  188.2370  174.4790  134.5940 N   0  0  0  0  0  0  0  0  0  0  0  0
  181.1260  174.6110  136.2190 C   0  0  0  0  0  2  0  0  0  0  0  0
  185.7690  175.4810  136.9710 C   0  0  0  0  0  3  0  0  0  0  0  0
  185.2660  176.6380  137.5530 C   0  0  0  0  0  0  0  0  0  0  0  0
  181.1810  178.9410  135.3780 C   0  0  0  0  0  3  0  0  0  0  0  0
  186.7990  178.4220  136.5660 C   0  0  0  0  0  3  0  0  0  0  0  0
  181.8410  179.3330  136.8740 S   0  0  0  0  0  0  0  0  0  0  0  0
  181.6100  173.3350  135.5730 C   0  0  2  0  0  3  0  0  0  0  0  0
  187.6820  177.7320  135.7460 C   0  0  0  0  0  3  0  0  0  0  0  0
  186.5430  172.8780  135.5050 C   0  0  0  0  0  2  0  0  0  0  0  0
  181.3770  177.5760  135.1890 C   0  0  0  0  0  3  0  0  0  0  0  0
  182.9310  173.6840  134.9040 C   0  0  1  0  0  3  0  0  0  0  0  0
  182.3980  177.8020  137.2910 C   0  0  0  0  0  0  0  0  0  0  0  0
  186.8130  175.3630  136.0720 C   0  0  0  0  0  0  0  0  0  0  0  0
  183.0420  177.4100  138.6020 C   0  0  2  0  0  3  0  0  0  0  0  0
  185.7430  177.9390  137.3400 C   0  0  0  0  0  3  0  0  0  0  0  0
  183.5960  178.8160  139.6060 S   0  0  0  0  0  0  0  0  0  0  0  0
  182.6690  177.1960  141.4740 N   0  0  0  0  0  1  0  0  0  0  0  0
  183.3820  178.3960  141.1570 C   0  0  2  0  0  3  0  0  0  0  0  0
  183.6250  179.3770  142.1880 N   0  0  0  0  0  0  0  0  0  0  0  0
  184.9680  179.2780  142.8330 C   0  0  1  0  0  3  0  0  0  0  0  0
  183.8050  178.6790  143.4740 C   0  0  0  0  0  2  0  0  0  0  0  0
  185.8800  178.1620  142.3190 C   0  0  0  0  0  2  0  0  0  0  0  0
  186.6720  177.5830  143.4730 C   0  0  0  0  0  1  0  0  0  0  0  0
  1 20  1  0  0  0  0
  1  7  1  0  0  0  0
  2 25  1  0  0  0  0
  3 20  1  0  0  0  0
  3 24  1  0  0  0  0
  4  6  1  0  0  0  0
  5  9  2  0  0  0  0
  6 12  1  6  0  0  0
  9 19  1  0  0  0  0
  9 24  1  0  0  0  0
 10  6  1  0  0  0  0
 10 23  2  0  0  0  0
 11  5  1  0  0  0  0
 11  3  2  0  0  0  0
 13 14  1  0  0  0  0
 14  2  1  0  0  0  0
 15 17  1  0  0  0  0
 16 26  1  0  0  0  0
 17 23  1  0  0  0  0
 18  8  1  6  0  0  0
 18 12  1  0  0  0  0
 19 16  2  0  0  0  0
 21 15  2  0  0  0  0
 21 10  1  0  0  0  0
 22  4  1  0  0  0  0
 22  7  1  1  0  0  0
 22 18  1  0  0  0  0
 23 25  1  0  0  0  0
 24 13  2  0  0  0  0
 25 27  1  6  0  0  0
 26 14  2  0  0  0  0
 27 29  1  0  0  0  0
 29 28  1  6  0  0  0
 29 30  1  0  0  0  0
 30 31  1  0  0  0  0
 30 32  1  0  0  0  0
 31 33  1  6  0  0  0
 31 32  1  0  0  0  0
 33 34  1  0  0  0  0
M  END
>  <MODEL>
9

>  <REMARK>
 VINA RESULT:      -3.9      3.767      6.751
  Name = 
  3 active torsions:
  status: ('A' for Active; 'I' for Inactive)
    1  A    between atoms: N_3  and  C_29
    2  A    between atoms: C_6  and  C_16
    3  A    between atoms: S_13  and  C_32
                            x       y       z     vdW  Elec       q    Type
                         _______ _______ _______ _____ _____    ______ ____

>  <TORSDO>
F 3

$$$$
