=
 OpenBabel10222416383D

 30 34  0  0  1  0  0  0  0  0999 V2000
  190.8780  177.3870  140.8310 N   0  0  0  0  0  0  0  0  0  0  0  0
  193.0230  176.3680  137.8140 C   0  0  0  0  0  0  0  0  0  0  0  0
  191.5300  177.0190  139.6070 C   0  0  0  0  0  0  0  0  0  0  0  0
  188.7500  177.1170  142.0580 C   0  0  1  0  0  3  0  0  0  0  0  0
  191.6550  177.5560  142.0590 C   0  0  0  0  0  2  0  0  0  0  0  0
  194.0900  175.9900  136.9550 N   0  0  0  0  0  1  0  0  0  0  0  0
  193.1760  176.6770  139.4560 S   0  0  0  0  0  0  0  0  0  0  0  0
  190.7310  177.8890  143.2240 C   0  0  0  0  0  2  0  0  0  0  0  0
  189.4530  177.7090  140.8240 C   0  0  0  0  0  2  0  0  0  0  0  0
  189.6140  176.9310  143.2490 N   0  0  1  0  0  0  0  0  0  0  0  0
  187.5480  177.8520  143.8140 N   0  0  0  0  0  0  0  0  0  0  0  0
  188.6920  177.1630  144.3720 C   0  0  2  0  0  3  0  0  0  0  0  0
  187.5950  177.9320  142.4190 N   0  0  0  0  0  2  0  0  0  0  0  0
  191.7060  176.5330  137.4160 C   0  0  0  0  0  3  0  0  0  0  0  0
  190.8750  176.8980  138.4290 N   0  0  0  0  0  0  0  0  0  0  0  0
  185.1090  178.3240  143.9070 C   0  0  0  0  0  0  0  0  0  0  0  0
  186.3420  178.1380  144.5490 C   0  0  0  0  0  0  0  0  0  0  0  0
  183.3390  178.5950  142.4180 N   0  0  0  0  0  0  0  0  0  0  0  0
  184.7760  178.3130  142.4370 C   0  0  0  0  0  2  0  0  0  0  0  0
  185.1770  178.5150  146.6640 C   0  0  0  0  0  3  0  0  0  0  0  0
  186.3610  178.2370  145.9560 C   0  0  0  0  0  3  0  0  0  0  0  0
  183.9820  178.5940  144.6500 C   0  0  0  0  0  0  0  0  0  0  0  0
  182.5270  178.6980  141.2180 C   0  0  0  0  0  1  0  0  0  0  0  0
  183.9990  178.6920  146.0020 N   0  0  0  0  0  0  0  0  0  0  0  0
  181.6860  179.0240  144.0700 O   0  0  0  0  0  0  0  0  0  0  0  0
  182.8750  178.7640  143.7500 C   0  0  0  0  0  0  0  0  0  0  0  0
  189.2850  177.9210  145.5680 C   0  0  0  0  0  2  0  0  0  0  0  0
  189.5730  176.9930  146.6460 N   0  0  0  0  0  2  0  0  0  0  0  0
  190.8990  176.7390  147.0140 C   0  0  0  0  0  0  0  0  0  0  0  0
  191.9950  176.5290  147.3200 N   0  0  0  0  0  0  0  0  0  0  0  0
  1  5  1  0  0  0  0
  2  7  1  0  0  0  0
  3  1  1  0  0  0  0
  4  9  1  6  0  0  0
  4 13  1  0  0  0  0
  4 10  1  0  0  0  0
  5  8  1  0  0  0  0
  6  2  1  0  0  0  0
  7  3  1  0  0  0  0
  9  1  1  0  0  0  0
 10  8  1  6  0  0  0
 10 12  1  0  0  0  0
 11 12  1  0  0  0  0
 11 17  1  0  0  0  0
 12 27  1  1  0  0  0
 13 11  1  0  0  0  0
 14  2  2  0  0  0  0
 14 15  1  0  0  0  0
 15  3  2  0  0  0  0
 16 17  2  0  0  0  0
 16 22  1  0  0  0  0
 17 21  1  0  0  0  0
 18 19  1  0  0  0  0
 18 26  1  0  0  0  0
 19 16  1  0  0  0  0
 21 20  2  0  0  0  0
 22 24  2  0  0  0  0
 23 18  1  0  0  0  0
 24 20  1  0  0  0  0
 26 25  2  0  0  0  0
 26 22  1  0  0  0  0
 27 28  1  0  0  0  0
 28 29  1  0  0  0  0
 29 30  3  0  0  0  0
M  END
>  <MODEL>
1

>  <REMARK>
 VINA RESULT:      -9.5      0.000      0.000
  Name = 
  4 active torsions:
  status: ('A' for Active; 'I' for Inactive)
    1  A    between atoms: C_6  and  N_8
    2  A    between atoms: N_8  and  C_24
    3  A    between atoms: C_11  and  N_18
    4  A    between atoms: C_20  and  C_24
                            x       y       z     vdW  Elec       q    Type
                         _______ _______ _______ _____ _____    ______ ____

>  <TORSDO>
F 4

$$$$
=
 OpenBabel10222416383D

 30 34  0  0  1  0  0  0  0  0999 V2000
  190.7740  177.0730  139.5690 N   0  0  0  0  0  0  0  0  0  0  0  0
  191.5480  176.2130  135.9080 C   0  0  0  0  0  0  0  0  0  0  0  0
  190.8900  176.7790  138.1700 C   0  0  0  0  0  0  0  0  0  0  0  0
  189.2480  176.7980  141.4930 C   0  0  1  0  0  3  0  0  0  0  0  0
  191.9650  177.1020  140.4180 C   0  0  0  0  0  2  0  0  0  0  0  0
  192.1840  175.8590  134.6860 N   0  0  0  0  0  1  0  0  0  0  0  0
  192.3290  176.3750  137.3850 S   0  0  0  0  0  0  0  0  0  0  0  0
  191.5740  177.3770  141.8640 C   0  0  0  0  0  2  0  0  0  0  0  0
  189.4790  177.4590  140.1230 C   0  0  0  0  0  2  0  0  0  0  0  0
  190.4790  176.4740  142.2540 N   0  0  1  0  0  0  0  0  0  0  0  0
  188.8500  177.4370  143.6150 N   0  0  0  0  0  0  0  0  0  0  0  0
  190.0660  176.6520  143.6550 C   0  0  2  0  0  3  0  0  0  0  0  0
  188.3770  177.6310  142.3150 N   0  0  0  0  0  2  0  0  0  0  0  0
  190.1940  176.4700  136.0500 C   0  0  0  0  0  3  0  0  0  0  0  0
  189.8340  176.7870  137.3230 N   0  0  0  0  0  0  0  0  0  0  0  0
  186.6790  178.0590  144.6520 C   0  0  0  0  0  0  0  0  0  0  0  0
  188.0330  177.7150  144.7690 C   0  0  0  0  0  0  0  0  0  0  0  0
  184.5280  178.6250  143.9610 N   0  0  0  0  0  0  0  0  0  0  0  0
  185.8350  178.2460  143.4170 C   0  0  0  0  0  2  0  0  0  0  0  0
  187.7670  177.9170  147.1900 C   0  0  0  0  0  3  0  0  0  0  0  0
  188.5740  177.6460  146.0690 C   0  0  0  0  0  3  0  0  0  0  0  0
  185.9360  178.3160  145.7820 C   0  0  0  0  0  0  0  0  0  0  0  0
  183.3510  178.9250  143.1650 C   0  0  0  0  0  1  0  0  0  0  0  0
  186.4550  178.2520  147.0330 N   0  0  0  0  0  0  0  0  0  0  0  0
  183.6460  178.9660  146.1410 O   0  0  0  0  0  0  0  0  0  0  0  0
  184.6030  178.6660  145.3790 C   0  0  0  0  0  0  0  0  0  0  0  0
  191.1190  177.2800  144.5790 C   0  0  0  0  0  2  0  0  0  0  0  0
  191.7670  176.2430  145.3620 N   0  0  0  0  0  2  0  0  0  0  0  0
  191.9190  176.4030  146.7430 C   0  0  0  0  0  0  0  0  0  0  0  0
  192.0460  176.5350  147.8870 N   0  0  0  0  0  0  0  0  0  0  0  0
  1  9  1  0  0  0  0
  1  5  1  0  0  0  0
  2 14  2  0  0  0  0
  2  7  1  0  0  0  0
  3  1  1  0  0  0  0
  4  9  1  6  0  0  0
  4 10  1  0  0  0  0
  4 13  1  0  0  0  0
  5  8  1  0  0  0  0
  6  2  1  0  0  0  0
  7  3  1  0  0  0  0
 10  8  1  6  0  0  0
 10 12  1  0  0  0  0
 11 12  1  0  0  0  0
 11 17  1  0  0  0  0
 12 27  1  1  0  0  0
 13 11  1  0  0  0  0
 14 15  1  0  0  0  0
 15  3  2  0  0  0  0
 16 17  2  0  0  0  0
 16 22  1  0  0  0  0
 17 21  1  0  0  0  0
 18 26  1  0  0  0  0
 19 18  1  0  0  0  0
 19 16  1  0  0  0  0
 21 20  2  0  0  0  0
 22 24  2  0  0  0  0
 23 18  1  0  0  0  0
 24 20  1  0  0  0  0
 26 22  1  0  0  0  0
 26 25  2  0  0  0  0
 27 28  1  0  0  0  0
 28 29  1  0  0  0  0
 29 30  3  0  0  0  0
M  END
>  <MODEL>
2

>  <REMARK>
 VINA RESULT:      -9.2      1.510      1.945
  Name = 
  4 active torsions:
  status: ('A' for Active; 'I' for Inactive)
    1  A    between atoms: C_6  and  N_8
    2  A    between atoms: N_8  and  C_24
    3  A    between atoms: C_11  and  N_18
    4  A    between atoms: C_20  and  C_24
                            x       y       z     vdW  Elec       q    Type
                         _______ _______ _______ _____ _____    ______ ____

>  <TORSDO>
F 4

$$$$
=
 OpenBabel10222416383D

 30 34  0  0  1  0  0  0  0  0999 V2000
  189.8950  176.7370  138.8650 N   0  0  0  0  0  0  0  0  0  0  0  0
  192.7090  176.1830  136.3150 C   0  0  0  0  0  0  0  0  0  0  0  0
  191.0490  176.4880  138.0520 C   0  0  0  0  0  0  0  0  0  0  0  0
  189.2230  177.6700  141.0530 C   0  0  1  0  0  3  0  0  0  0  0  0
  188.6110  177.0630  138.2450 C   0  0  0  0  0  2  0  0  0  0  0  0
  193.4810  176.0700  135.1260 N   0  0  0  0  0  1  0  0  0  0  0  0
  191.0870  176.6080  136.3680 S   0  0  0  0  0  0  0  0  0  0  0  0
  187.5630  177.3390  139.3160 C   0  0  0  0  0  2  0  0  0  0  0  0
  189.9740  176.5510  140.3120 C   0  0  0  0  0  2  0  0  0  0  0  0
  188.1080  178.2910  140.2970 N   0  0  1  0  0  0  0  0  0  0  0  0
  187.5180  177.8630  142.5110 N   0  0  0  0  0  0  0  0  0  0  0  0
  187.1400  178.6390  141.3490 C   0  0  2  0  0  3  0  0  0  0  0  0
  188.7250  177.1810  142.3350 N   0  0  0  0  0  2  0  0  0  0  0  0
  193.1900  175.9590  137.5950 C   0  0  0  0  0  3  0  0  0  0  0  0
  192.2510  176.1330  138.5630 N   0  0  0  0  0  0  0  0  0  0  0  0
  187.6360  177.7830  144.9930 C   0  0  0  0  0  0  0  0  0  0  0  0
  186.9160  178.0150  143.8120 C   0  0  0  0  0  0  0  0  0  0  0  0
  189.1970  177.2480  146.6360 N   0  0  0  0  0  0  0  0  0  0  0  0
  189.0590  177.3240  145.1800 C   0  0  0  0  0  2  0  0  0  0  0  0
  184.9910  178.5580  145.2170 C   0  0  0  0  0  3  0  0  0  0  0  0
  185.5690  178.4110  143.9410 C   0  0  0  0  0  3  0  0  0  0  0  0
  187.0210  177.9410  146.2140 C   0  0  0  0  0  0  0  0  0  0  0  0
  190.4020  176.8420  147.3390 C   0  0  0  0  0  1  0  0  0  0  0  0
  185.7250  178.3190  146.3400 N   0  0  0  0  0  0  0  0  0  0  0  0
  187.7590  177.6470  148.4860 O   0  0  0  0  0  0  0  0  0  0  0  0
  187.9670  177.6170  147.2440 C   0  0  0  0  0  0  0  0  0  0  0  0
  185.6640  178.4350  140.9830 C   0  0  0  0  0  2  0  0  0  0  0  0
  185.1580  179.6120  140.3010 N   0  0  0  0  0  2  0  0  0  0  0  0
  184.0640  179.5040  139.4370 C   0  0  0  0  0  0  0  0  0  0  0  0
  183.1570  179.4150  138.7220 N   0  0  0  0  0  0  0  0  0  0  0  0
  1  9  1  0  0  0  0
  2  7  1  0  0  0  0
  2 14  2  0  0  0  0
  3 15  2  0  0  0  0
  3  1  1  0  0  0  0
  4  9  1  6  0  0  0
  4 13  1  0  0  0  0
  5  1  1  0  0  0  0
  5  8  1  0  0  0  0
  6  2  1  0  0  0  0
  7  3  1  0  0  0  0
 10  8  1  6  0  0  0
 10  4  1  0  0  0  0
 10 12  1  0  0  0  0
 11 17  1  0  0  0  0
 12 27  1  6  0  0  0
 12 11  1  0  0  0  0
 13 11  1  0  0  0  0
 14 15  1  0  0  0  0
 16 19  1  0  0  0  0
 16 22  1  0  0  0  0
 17 21  1  0  0  0  0
 17 16  2  0  0  0  0
 18 26  1  0  0  0  0
 18 23  1  0  0  0  0
 19 18  1  0  0  0  0
 20 24  1  0  0  0  0
 21 20  2  0  0  0  0
 22 24  2  0  0  0  0
 22 26  1  0  0  0  0
 26 25  2  0  0  0  0
 28 27  1  0  0  0  0
 29 28  1  0  0  0  0
 30 29  3  0  0  0  0
M  END
>  <MODEL>
3

>  <REMARK>
 VINA RESULT:      -8.0      2.287      5.170
  Name = 
  4 active torsions:
  status: ('A' for Active; 'I' for Inactive)
    1  A    between atoms: C_6  and  N_8
    2  A    between atoms: N_8  and  C_24
    3  A    between atoms: C_11  and  N_18
    4  A    between atoms: C_20  and  C_24
                            x       y       z     vdW  Elec       q    Type
                         _______ _______ _______ _____ _____    ______ ____

>  <TORSDO>
F 4

$$$$
=
 OpenBabel10222416383D

 30 34  0  0  1  0  0  0  0  0999 V2000
  184.0720  178.8700  142.7700 N   0  0  0  0  0  0  0  0  0  0  0  0
  180.2600  179.2800  142.5620 C   0  0  0  0  0  0  0  0  0  0  0  0
  182.6440  178.9650  142.8610 C   0  0  0  0  0  0  0  0  0  0  0  0
  185.9780  177.4820  143.5090 C   0  0  1  0  0  3  0  0  0  0  0  0
  184.7660  179.3200  141.5640 C   0  0  0  0  0  2  0  0  0  0  0  0
  178.9310  179.5510  142.1380 N   0  0  0  0  0  1  0  0  0  0  0  0
  181.6320  179.5090  141.6230 S   0  0  0  0  0  0  0  0  0  0  0  0
  186.2630  179.0610  141.6900 C   0  0  0  0  0  2  0  0  0  0  0  0
  184.8440  178.4320  143.9300 C   0  0  0  0  0  2  0  0  0  0  0  0
  186.4820  177.6730  142.1270 N   0  0  1  0  0  0  0  0  0  0  0  0
  188.2230  177.3880  143.6500 N   0  0  0  0  0  0  0  0  0  0  0  0
  187.9090  177.3300  142.2390 C   0  0  2  0  0  3  0  0  0  0  0  0
  187.0910  177.5780  144.4480 N   0  0  0  0  0  2  0  0  0  0  0  0
  180.6090  178.7880  143.8100 C   0  0  0  0  0  3  0  0  0  0  0  0
  181.9490  178.6150  143.9680 N   0  0  0  0  0  0  0  0  0  0  0  0
  189.7940  177.1730  145.5650 C   0  0  0  0  0  0  0  0  0  0  0  0
  189.4850  176.9770  144.2110 C   0  0  0  0  0  0  0  0  0  0  0  0
  189.8620  177.7460  147.8210 N   0  0  0  0  0  0  0  0  0  0  0  0
  188.9840  177.8330  146.6520 C   0  0  0  0  0  2  0  0  0  0  0  0
  191.6910  175.9530  143.9670 C   0  0  0  0  0  3  0  0  0  0  0  0
  190.4620  176.3520  143.4080 C   0  0  0  0  0  3  0  0  0  0  0  0
  191.0120  176.7640  146.0580 C   0  0  0  0  0  0  0  0  0  0  0  0
  189.5400  178.2530  149.1440 C   0  0  0  0  0  1  0  0  0  0  0  0
  191.9530  176.1660  145.2880 N   0  0  0  0  0  0  0  0  0  0  0  0
  192.0400  176.8870  148.2310 O   0  0  0  0  0  0  0  0  0  0  0  0
  191.0760  177.1060  147.4520 C   0  0  0  0  0  0  0  0  0  0  0  0
  188.8630  178.1980  141.4060 C   0  0  0  0  0  2  0  0  0  0  0  0
  189.0700  177.5920  140.1040 N   0  0  0  0  0  2  0  0  0  0  0  0
  189.0240  178.3820  138.9500 C   0  0  0  0  0  0  0  0  0  0  0  0
  188.9860  179.0350  137.9940 N   0  0  0  0  0  0  0  0  0  0  0  0
  1  3  1  0  0  0  0
  1  9  1  0  0  0  0
  2 14  2  0  0  0  0
  3 15  2  0  0  0  0
  4  9  1  1  0  0  0
  4 13  1  0  0  0  0
  5  8  1  0  0  0  0
  5  1  1  0  0  0  0
  6  2  1  0  0  0  0
  7  2  1  0  0  0  0
  7  3  1  0  0  0  0
 10  8  1  1  0  0  0
 10 12  1  0  0  0  0
 10  4  1  0  0  0  0
 11 17  1  0  0  0  0
 11 13  1  0  0  0  0
 12 27  1  6  0  0  0
 12 11  1  0  0  0  0
 14 15  1  0  0  0  0
 16 22  1  0  0  0  0
 16 19  1  0  0  0  0
 17 16  2  0  0  0  0
 18 23  1  0  0  0  0
 19 18  1  0  0  0  0
 20 24  1  0  0  0  0
 21 20  2  0  0  0  0
 21 17  1  0  0  0  0
 22 26  1  0  0  0  0
 24 22  2  0  0  0  0
 26 18  1  0  0  0  0
 26 25  2  0  0  0  0
 28 27  1  0  0  0  0
 29 28  1  0  0  0  0
 30 29  3  0  0  0  0
M  END
>  <MODEL>
4

>  <REMARK>
 VINA RESULT:      -7.9      3.731      8.343
  Name = 
  4 active torsions:
  status: ('A' for Active; 'I' for Inactive)
    1  A    between atoms: C_6  and  N_8
    2  A    between atoms: N_8  and  C_24
    3  A    between atoms: C_11  and  N_18
    4  A    between atoms: C_20  and  C_24
                            x       y       z     vdW  Elec       q    Type
                         _______ _______ _______ _____ _____    ______ ____

>  <TORSDO>
F 4

$$$$
=
 OpenBabel10222416383D

 30 34  0  0  1  0  0  0  0  0999 V2000
  189.3210  176.9150  144.2440 N   0  0  0  0  0  0  0  0  0  0  0  0
  191.5990  176.4600  147.3000 C   0  0  0  0  0  0  0  0  0  0  0  0
  190.0250  176.7670  145.4840 C   0  0  0  0  0  0  0  0  0  0  0  0
  187.4660  178.1700  143.1990 C   0  0  1  0  0  3  0  0  0  0  0  0
  190.0220  176.7400  142.9720 C   0  0  0  0  0  2  0  0  0  0  0  0
  192.7060  176.2490  148.1680 N   0  0  0  0  0  1  0  0  0  0  0  0
  191.6800  176.4640  145.6240 S   0  0  0  0  0  0  0  0  0  0  0  0
  189.0760  177.0060  141.8080 C   0  0  0  0  0  2  0  0  0  0  0  0
  187.8760  177.1260  144.2510 C   0  0  0  0  0  2  0  0  0  0  0  0
  188.3740  178.2800  142.0310 N   0  0  1  0  0  0  0  0  0  0  0  0
  186.1330  178.2900  141.3890 N   0  0  0  0  0  0  0  0  0  0  0  0
  187.4630  178.6280  140.9290 C   0  0  2  0  0  3  0  0  0  0  0  0
  186.1080  177.9120  142.7340 N   0  0  0  0  0  2  0  0  0  0  0  0
  190.2990  176.6950  147.7180 C   0  0  0  0  0  3  0  0  0  0  0  0
  189.4230  176.8660  146.6920 N   0  0  0  0  0  0  0  0  0  0  0  0
  183.6840  178.7110  141.3110 C   0  0  0  0  0  0  0  0  0  0  0  0
  184.9270  178.6090  140.6680 C   0  0  0  0  0  0  0  0  0  0  0  0
  181.8810  178.7230  142.7850 N   0  0  0  0  0  0  0  0  0  0  0  0
  183.3280  178.4950  142.7600 C   0  0  0  0  0  2  0  0  0  0  0  0
  183.7720  179.1490  138.5830 C   0  0  0  0  0  3  0  0  0  0  0  0
  184.9560  178.8370  139.2770 C   0  0  0  0  0  3  0  0  0  0  0  0
  182.5570  179.0190  140.5830 C   0  0  0  0  0  0  0  0  0  0  0  0
  181.0440  178.6280  143.9690 C   0  0  0  0  0  1  0  0  0  0  0  0
  182.5840  179.2350  139.2450 N   0  0  0  0  0  0  0  0  0  0  0  0
  180.2350  179.2750  141.1620 O   0  0  0  0  0  0  0  0  0  0  0  0
  181.4310  179.0330  141.4740 C   0  0  0  0  0  0  0  0  0  0  0  0
  187.7820  177.9730  139.5770 C   0  0  0  0  0  2  0  0  0  0  0  0
  188.6470  178.8420  138.8010 N   0  0  0  0  0  2  0  0  0  0  0  0
  188.9540  178.5210  137.4750 C   0  0  0  0  0  0  0  0  0  0  0  0
  189.2080  178.2560  136.3770 N   0  0  0  0  0  0  0  0  0  0  0  0
  1  9  1  0  0  0  0
  1  3  1  0  0  0  0
  2 14  2  0  0  0  0
  2  6  1  0  0  0  0
  3  7  1  0  0  0  0
  3 15  2  0  0  0  0
  4  9  1  1  0  0  0
  5  1  1  0  0  0  0
  7  2  1  0  0  0  0
  8  5  1  0  0  0  0
 10  8  1  6  0  0  0
 10  4  1  0  0  0  0
 11 13  1  0  0  0  0
 12 27  1  6  0  0  0
 12 11  1  0  0  0  0
 12 10  1  0  0  0  0
 13  4  1  0  0  0  0
 15 14  1  0  0  0  0
 16 19  1  0  0  0  0
 17 16  1  0  0  0  0
 17 11  1  0  0  0  0
 18 23  1  0  0  0  0
 19 18  1  0  0  0  0
 20 24  2  0  0  0  0
 20 21  1  0  0  0  0
 21 17  2  0  0  0  0
 22 16  2  0  0  0  0
 22 26  1  0  0  0  0
 24 22  1  0  0  0  0
 25 26  2  0  0  0  0
 26 18  1  0  0  0  0
 28 27  1  0  0  0  0
 29 28  1  0  0  0  0
 30 29  3  0  0  0  0
M  END
>  <MODEL>
5

>  <REMARK>
 VINA RESULT:      -7.7      2.665      6.113
  Name = 
  4 active torsions:
  status: ('A' for Active; 'I' for Inactive)
    1  A    between atoms: C_6  and  N_8
    2  A    between atoms: N_8  and  C_24
    3  A    between atoms: C_11  and  N_18
    4  A    between atoms: C_20  and  C_24
                            x       y       z     vdW  Elec       q    Type
                         _______ _______ _______ _____ _____    ______ ____

>  <TORSDO>
F 4

$$$$
=
 OpenBabel10222416383D

 30 34  0  0  1  0  0  0  0  0999 V2000
  184.9210  178.6060  143.4240 N   0  0  0  0  0  0  0  0  0  0  0  0
  187.6240  177.5870  145.9530 C   0  0  0  0  0  0  0  0  0  0  0  0
  186.0370  178.2000  144.2280 C   0  0  0  0  0  0  0  0  0  0  0  0
  183.8040  178.1370  141.2700 C   0  0  1  0  0  3  0  0  0  0  0  0
  183.6830  179.0620  144.0560 C   0  0  0  0  0  2  0  0  0  0  0  0
  188.3530  177.2890  147.1370 N   0  0  0  0  0  1  0  0  0  0  0  0
  186.0350  178.1270  145.9150 S   0  0  0  0  0  0  0  0  0  0  0  0
  182.6360  179.3800  142.9960 C   0  0  0  0  0  2  0  0  0  0  0  0
  185.0620  178.6760  141.9720 C   0  0  0  0  0  2  0  0  0  0  0  0
  182.5460  178.2570  142.0480 N   0  0  1  0  0  0  0  0  0  0  0  0
  182.2480  178.8760  139.8210 N   0  0  0  0  0  0  0  0  0  0  0  0
  181.5270  178.4710  141.0090 C   0  0  2  0  0  3  0  0  0  0  0  0
  183.6340  178.7820  139.9730 N   0  0  0  0  0  2  0  0  0  0  0  0
  188.1230  177.4710  144.6660 C   0  0  0  0  0  3  0  0  0  0  0  0
  187.2250  177.8170  143.7040 N   0  0  0  0  0  0  0  0  0  0  0  0
  181.4030  180.3130  137.9760 C   0  0  0  0  0  0  0  0  0  0  0  0
  181.6370  179.0440  138.5270 C   0  0  0  0  0  0  0  0  0  0  0  0
  181.1810  182.5850  137.5140 N   0  0  0  0  0  0  0  0  0  0  0  0
  181.6660  181.6790  138.5580 C   0  0  0  0  0  2  0  0  0  0  0  0
  180.6590  178.1010  136.4950 C   0  0  0  0  0  3  0  0  0  0  0  0
  181.2530  177.9250  137.7590 C   0  0  0  0  0  3  0  0  0  0  0  0
  180.8170  180.4270  136.7360 C   0  0  0  0  0  0  0  0  0  0  0  0
  181.2050  184.0350  137.5930 C   0  0  0  0  0  1  0  0  0  0  0  0
  180.4460  179.3520  135.9980 N   0  0  0  0  0  0  0  0  0  0  0  0
  180.1740  182.3070  135.3790 O   0  0  0  0  0  0  0  0  0  0  0  0
  180.6710  181.8220  136.4290 C   0  0  0  0  0  0  0  0  0  0  0  0
  180.4160  179.4670  141.3690 C   0  0  0  0  0  2  0  0  0  0  0  0
  179.2740  178.7560  141.9120 N   0  0  0  0  0  2  0  0  0  0  0  0
  179.0870  178.6870  143.2960 C   0  0  0  0  0  0  0  0  0  0  0  0
  178.9310  178.6300  144.4420 N   0  0  0  0  0  0  0  0  0  0  0  0
  1  5  1  0  0  0  0
  1  3  1  0  0  0  0
  2  6  1  0  0  0  0
  3  7  1  0  0  0  0
  4  9  1  1  0  0  0
  4 10  1  0  0  0  0
  7  2  1  0  0  0  0
  8  5  1  0  0  0  0
  9  1  1  0  0  0  0
 10  8  1  1  0  0  0
 11 13  1  0  0  0  0
 11 12  1  0  0  0  0
 12 27  1  1  0  0  0
 12 10  1  0  0  0  0
 13  4  1  0  0  0  0
 14  2  2  0  0  0  0
 15  3  2  0  0  0  0
 15 14  1  0  0  0  0
 16 17  1  0  0  0  0
 16 19  1  0  0  0  0
 17 11  1  0  0  0  0
 18 23  1  0  0  0  0
 18 19  1  0  0  0  0
 20 21  1  0  0  0  0
 21 17  2  0  0  0  0
 22 16  2  0  0  0  0
 24 20  2  0  0  0  0
 24 22  1  0  0  0  0
 25 26  2  0  0  0  0
 26 22  1  0  0  0  0
 26 18  1  0  0  0  0
 27 28  1  0  0  0  0
 28 29  1  0  0  0  0
 29 30  3  0  0  0  0
M  END
>  <MODEL>
6

>  <REMARK>
 VINA RESULT:      -7.5      4.592      8.708
  Name = 
  4 active torsions:
  status: ('A' for Active; 'I' for Inactive)
    1  A    between atoms: C_6  and  N_8
    2  A    between atoms: N_8  and  C_24
    3  A    between atoms: C_11  and  N_18
    4  A    between atoms: C_20  and  C_24
                            x       y       z     vdW  Elec       q    Type
                         _______ _______ _______ _____ _____    ______ ____

>  <TORSDO>
F 4

$$$$
=
 OpenBabel10222416383D

 30 34  0  0  1  0  0  0  0  0999 V2000
  185.2820  178.6330  144.0030 N   0  0  0  0  0  0  0  0  0  0  0  0
  187.9210  177.4880  146.5450 C   0  0  0  0  0  0  0  0  0  0  0  0
  186.3800  178.1940  144.8140 C   0  0  0  0  0  0  0  0  0  0  0  0
  184.2580  178.3100  141.7770 C   0  0  1  0  0  3  0  0  0  0  0  0
  184.0080  179.0010  144.6210 C   0  0  0  0  0  2  0  0  0  0  0  0
  188.6150  177.1140  147.7280 N   0  0  0  0  0  1  0  0  0  0  0  0
  186.3190  177.9840  146.4890 S   0  0  0  0  0  0  0  0  0  0  0  0
  182.9910  179.3740  143.5500 C   0  0  0  0  0  2  0  0  0  0  0  0
  185.4730  178.8250  142.5680 C   0  0  0  0  0  2  0  0  0  0  0  0
  182.9700  178.3300  142.5130 N   0  0  1  0  0  0  0  0  0  0  0  0
  182.7330  179.1210  140.3320 N   0  0  0  0  0  0  0  0  0  0  0  0
  181.9830  178.6000  141.4550 C   0  0  2  0  0  3  0  0  0  0  0  0
  184.1150  179.0530  140.5300 N   0  0  0  0  0  2  0  0  0  0  0  0
  188.4700  177.4910  145.2720 C   0  0  0  0  0  3  0  0  0  0  0  0
  187.5970  177.8890  144.3080 N   0  0  0  0  0  0  0  0  0  0  0  0
  182.0260  178.3640  138.0730 C   0  0  0  0  0  0  0  0  0  0  0  0
  182.1650  179.3760  139.0330 C   0  0  0  0  0  0  0  0  0  0  0  0
  182.0440  176.4020  136.8190 N   0  0  0  0  0  0  0  0  0  0  0  0
  182.4310  176.9130  138.1360 C   0  0  0  0  0  2  0  0  0  0  0  0
  181.1660  180.9070  137.4100 C   0  0  0  0  0  3  0  0  0  0  0  0
  181.7210  180.6680  138.6810 C   0  0  0  0  0  3  0  0  0  0  0  0
  181.4760  178.6530  136.8440 C   0  0  0  0  0  0  0  0  0  0  0  0
  182.2320  175.0330  136.3700 C   0  0  0  0  0  1  0  0  0  0  0  0
  181.0510  179.8950  136.5040 N   0  0  0  0  0  0  0  0  0  0  0  0
  181.0510  177.3380  134.8740 O   0  0  0  0  0  0  0  0  0  0  0  0
  181.4760  177.4550  136.0530 C   0  0  0  0  0  0  0  0  0  0  0  0
  180.8290  179.5320  141.8500 C   0  0  0  0  0  2  0  0  0  0  0  0
  179.6670  178.7460  142.2210 N   0  0  0  0  0  2  0  0  0  0  0  0
  179.2630  178.6820  143.5590 C   0  0  0  0  0  0  0  0  0  0  0  0
  178.9310  178.6280  144.6670 N   0  0  0  0  0  0  0  0  0  0  0  0
  1  5  1  0  0  0  0
  1  3  1  0  0  0  0
  2  6  1  0  0  0  0
  3  7  1  0  0  0  0
  4 10  1  0  0  0  0
  4  9  1  1  0  0  0
  7  2  1  0  0  0  0
  8  5  1  0  0  0  0
  9  1  1  0  0  0  0
 10  8  1  1  0  0  0
 11 13  1  0  0  0  0
 11 12  1  0  0  0  0
 12 27  1  1  0  0  0
 12 10  1  0  0  0  0
 13  4  1  0  0  0  0
 14  2  2  0  0  0  0
 15  3  2  0  0  0  0
 15 14  1  0  0  0  0
 16 19  1  0  0  0  0
 16 17  1  0  0  0  0
 17 11  1  0  0  0  0
 18 19  1  0  0  0  0
 20 21  1  0  0  0  0
 21 17  2  0  0  0  0
 22 16  2  0  0  0  0
 23 18  1  0  0  0  0
 24 22  1  0  0  0  0
 24 20  2  0  0  0  0
 25 26  2  0  0  0  0
 26 18  1  0  0  0  0
 26 22  1  0  0  0  0
 27 28  1  0  0  0  0
 28 29  1  0  0  0  0
 29 30  3  0  0  0  0
M  END
>  <MODEL>
7

>  <REMARK>
 VINA RESULT:      -7.5      4.681      8.437
  Name = 
  4 active torsions:
  status: ('A' for Active; 'I' for Inactive)
    1  A    between atoms: C_6  and  N_8
    2  A    between atoms: N_8  and  C_24
    3  A    between atoms: C_11  and  N_18
    4  A    between atoms: C_20  and  C_24
                            x       y       z     vdW  Elec       q    Type
                         _______ _______ _______ _____ _____    ______ ____

>  <TORSDO>
F 4

$$$$
=
 OpenBabel10222416383D

 30 34  0  0  1  0  0  0  0  0999 V2000
  188.5070  177.2130  143.8270 N   0  0  0  0  0  0  0  0  0  0  0  0
  187.8900  177.8270  147.5650 C   0  0  0  0  0  0  0  0  0  0  0  0
  188.1180  177.5090  145.1750 C   0  0  0  0  0  0  0  0  0  0  0  0
  188.3380  178.0820  141.5190 C   0  0  1  0  0  3  0  0  0  0  0  0
  189.7680  176.5220  143.5560 C   0  0  0  0  0  2  0  0  0  0  0  0
  188.0010  177.8980  148.9810 N   0  0  0  0  0  1  0  0  0  0  0  0
  189.0540  177.1830  146.5420 S   0  0  0  0  0  0  0  0  0  0  0  0
  189.9780  176.3770  142.0540 C   0  0  0  0  0  2  0  0  0  0  0  0
  187.5870  177.4980  142.7280 C   0  0  0  0  0  2  0  0  0  0  0  0
  189.7610  177.6800  141.4050 N   0  0  1  0  0  0  0  0  0  0  0  0
  188.6660  177.5790  139.3490 N   0  0  0  0  0  0  0  0  0  0  0  0
  189.9820  177.6340  139.9510 C   0  0  2  0  0  3  0  0  0  0  0  0
  187.6390  177.7480  140.2820 N   0  0  0  0  0  2  0  0  0  0  0  0
  186.8050  178.2820  146.8330 C   0  0  0  0  0  3  0  0  0  0  0  0
  186.9430  178.1000  145.4920 N   0  0  0  0  0  0  0  0  0  0  0  0
  187.1350  177.5600  137.3910 C   0  0  0  0  0  0  0  0  0  0  0  0
  188.4240  177.6700  137.9310 C   0  0  0  0  0  0  0  0  0  0  0  0
  184.8620  177.2730  136.9720 N   0  0  0  0  0  0  0  0  0  0  0  0
  185.8190  177.3030  138.0810 C   0  0  0  0  0  2  0  0  0  0  0  0
  189.2410  177.9690  135.6470 C   0  0  0  0  0  3  0  0  0  0  0  0
  189.4890  177.8800  137.0300 C   0  0  0  0  0  3  0  0  0  0  0  0
  186.9500  177.6540  136.0300 C   0  0  0  0  0  0  0  0  0  0  0  0
  183.4340  177.0470  137.1120 C   0  0  0  0  0  1  0  0  0  0  0  0
  187.9730  177.8530  135.1620 N   0  0  0  0  0  0  0  0  0  0  0  0
  185.0120  177.5030  134.6120 O   0  0  0  0  0  0  0  0  0  0  0  0
  185.5530  177.4810  135.7480 C   0  0  0  0  0  0  0  0  0  0  0  0
  190.8820  176.4930  139.4550 C   0  0  0  0  0  2  0  0  0  0  0  0
  192.2510  176.9620  139.3390 N   0  0  0  0  0  2  0  0  0  0  0  0
  192.9850  176.6940  138.1790 C   0  0  0  0  0  0  0  0  0  0  0  0
  193.5940  176.4730  137.2190 N   0  0  0  0  0  0  0  0  0  0  0  0
  1  3  1  0  0  0  0
  2  6  1  0  0  0  0
  3 15  2  0  0  0  0
  3  7  1  0  0  0  0
  4  9  1  1  0  0  0
  5  1  1  0  0  0  0
  7  2  1  0  0  0  0
  8  5  1  0  0  0  0
  9  1  1  0  0  0  0
 10  4  1  0  0  0  0
 10  8  1  6  0  0  0
 11 12  1  0  0  0  0
 11 13  1  0  0  0  0
 12 27  1  1  0  0  0
 12 10  1  0  0  0  0
 13  4  1  0  0  0  0
 14  2  2  0  0  0  0
 15 14  1  0  0  0  0
 16 17  1  0  0  0  0
 16 19  1  0  0  0  0
 17 11  1  0  0  0  0
 18 23  1  0  0  0  0
 18 19  1  0  0  0  0
 20 21  1  0  0  0  0
 21 17  2  0  0  0  0
 22 16  2  0  0  0  0
 24 20  2  0  0  0  0
 24 22  1  0  0  0  0
 25 26  2  0  0  0  0
 26 22  1  0  0  0  0
 26 18  1  0  0  0  0
 28 27  1  0  0  0  0
 29 28  1  0  0  0  0
 30 29  3  0  0  0  0
M  END
>  <MODEL>
8

>  <REMARK>
 VINA RESULT:      -7.5      3.752      7.679
  Name = 
  4 active torsions:
  status: ('A' for Active; 'I' for Inactive)
    1  A    between atoms: C_6  and  N_8
    2  A    between atoms: N_8  and  C_24
    3  A    between atoms: C_11  and  N_18
    4  A    between atoms: C_20  and  C_24
                            x       y       z     vdW  Elec       q    Type
                         _______ _______ _______ _____ _____    ______ ____

>  <TORSDO>
F 4

$$$$
=
 OpenBabel10222416383D

 30 34  0  0  1  0  0  0  0  0999 V2000
  183.4800  178.9600  140.6110 N   0  0  0  0  0  0  0  0  0  0  0  0
  180.2900  180.3340  138.9770 C   0  0  0  0  0  0  0  0  0  0  0  0
  182.3910  179.5150  139.8610 C   0  0  0  0  0  0  0  0  0  0  0  0
  185.8870  179.2810  141.0710 C   0  0  1  0  0  3  0  0  0  0  0  0
  183.2370  178.3280  141.9080 C   0  0  0  0  0  2  0  0  0  0  0  0
  178.9520  180.7240  138.6930 N   0  0  0  0  0  1  0  0  0  0  0  0
  180.7880  179.5740  140.3880 S   0  0  0  0  0  0  0  0  0  0  0  0
  184.5530  177.8730  142.5270 C   0  0  0  0  0  2  0  0  0  0  0  0
  184.8180  178.9210  140.0260 C   0  0  0  0  0  2  0  0  0  0  0  0
  185.5230  178.9780  142.4770 N   0  0  1  0  0  0  0  0  0  0  0  0
  187.7120  178.3390  141.9930 N   0  0  0  0  0  0  0  0  0  0  0  0
  186.8140  178.6290  143.0910 C   0  0  2  0  0  3  0  0  0  0  0  0
  187.1500  178.6280  140.7460 N   0  0  0  0  0  2  0  0  0  0  0  0
  181.3690  180.5280  138.1300 C   0  0  0  0  0  3  0  0  0  0  0  0
  182.5440  180.0650  138.6340 N   0  0  0  0  0  0  0  0  0  0  0  0
  189.9370  177.7270  141.0690 C   0  0  0  0  0  0  0  0  0  0  0  0
  189.1240  178.0950  142.1500 C   0  0  0  0  0  0  0  0  0  0  0  0
  190.8490  177.1030  139.0190 N   0  0  0  0  0  0  0  0  0  0  0  0
  189.5710  177.4790  139.6280 C   0  0  0  0  0  2  0  0  0  0  0  0
  191.1220  177.9850  143.5540 C   0  0  0  0  0  3  0  0  0  0  0  0
  189.7420  178.2240  143.4110 C   0  0  0  0  0  3  0  0  0  0  0  0
  191.2810  177.5040  141.2650 C   0  0  0  0  0  0  0  0  0  0  0  0
  191.0340  176.7540  137.6210 C   0  0  0  0  0  1  0  0  0  0  0  0
  191.8770  177.6250  142.4770 N   0  0  0  0  0  0  0  0  0  0  0  0
  193.0750  176.8350  139.8060 O   0  0  0  0  0  0  0  0  0  0  0  0
  191.8660  177.1190  140.0110 C   0  0  0  0  0  0  0  0  0  0  0  0
  186.7720  177.4820  144.1110 C   0  0  0  0  0  2  0  0  0  0  0  0
  186.7710  178.0220  145.4580 N   0  0  0  0  0  2  0  0  0  0  0  0
  185.5620  178.3520  146.0780 C   0  0  0  0  0  0  0  0  0  0  0  0
  184.5600  178.6250  146.5910 N   0  0  0  0  0  0  0  0  0  0  0  0
  1  5  1  0  0  0  0
  2  7  1  0  0  0  0
  3  7  1  0  0  0  0
  3  1  1  0  0  0  0
  4  9  1  6  0  0  0
  4 10  1  0  0  0  0
  5  8  1  0  0  0  0
  6  2  1  0  0  0  0
  9  1  1  0  0  0  0
 10  8  1  6  0  0  0
 10 12  1  0  0  0  0
 11 17  1  0  0  0  0
 11 12  1  0  0  0  0
 12 27  1  1  0  0  0
 13  4  1  0  0  0  0
 13 11  1  0  0  0  0
 14 15  1  0  0  0  0
 14  2  2  0  0  0  0
 15  3  2  0  0  0  0
 16 22  2  0  0  0  0
 16 17  1  0  0  0  0
 17 21  2  0  0  0  0
 18 19  1  0  0  0  0
 18 26  1  0  0  0  0
 19 16  1  0  0  0  0
 21 20  1  0  0  0  0
 22 24  1  0  0  0  0
 23 18  1  0  0  0  0
 24 20  2  0  0  0  0
 25 26  2  0  0  0  0
 26 22  1  0  0  0  0
 27 28  1  0  0  0  0
 28 29  1  0  0  0  0
 29 30  3  0  0  0  0
M  END
>  <MODEL>
9

>  <REMARK>
 VINA RESULT:      -7.3      3.836      8.025
  Name = 
  4 active torsions:
  status: ('A' for Active; 'I' for Inactive)
    1  A    between atoms: C_6  and  N_8
    2  A    between atoms: N_8  and  C_24
    3  A    between atoms: C_11  and  N_18
    4  A    between atoms: C_20  and  C_24
                            x       y       z     vdW  Elec       q    Type
                         _______ _______ _______ _____ _____    ______ ____

>  <TORSDO>
F 4

$$$$
