=
 OpenBabel10222415573D

 36 39  0  0  1  0  0  0  0  0999 V2000
  190.9640  177.3090  143.9430 C   0  0  1  0  0  3  0  0  0  0  0  0
  188.5870  177.7300  145.9180 C   0  0  0  0  0  0  0  0  0  0  0  0
  191.4710  175.8910  147.1400 O   0  0  0  0  0  0  0  0  0  0  0  0
  191.7310  177.2510  145.2380 C   0  0  0  0  0  2  0  0  0  0  0  0
  190.1200  178.5580  143.9960 C   0  0  0  0  0  2  0  0  0  0  0  0
  190.9050  176.6890  146.3500 C   0  0  0  0  0  0  0  0  0  0  0  0
  189.5010  177.0520  146.6380 C   0  0  0  0  0  3  0  0  0  0  0  0
  188.8370  178.2710  144.6110 N   0  0  0  0  0  2  0  0  0  0  0  0
  190.0780  177.0030  141.1920 N   0  0  0  0  0  2  0  0  0  0  0  0
  191.4430  177.3200  141.4740 C   0  0  0  0  0  0  0  0  0  0  0  0
  191.8930  177.4020  142.8280 N   0  0  0  0  0  2  0  0  0  0  0  0
  192.2570  177.5240  140.5360 O   0  0  0  0  0  0  0  0  0  0  0  0
  189.5240  177.0480  139.8490 C   0  0  0  0  0  2  0  0  0  0  0  0
  188.5090  178.9080  140.9010 F   0  0  0  0  0  0  0  0  0  0  0  0
  189.3410  179.2010  138.8320 F   0  0  0  0  0  0  0  0  0  0  0  0
  188.6880  178.3090  139.6690 C   0  0  0  0  0  0  0  0  0  0  0  0
  187.3160  177.9580  139.0960 C   0  0  0  0  0  2  0  0  0  0  0  0
  187.3710  177.5540  137.6530 C   0  0  0  0  0  0  0  0  0  0  0  0
  186.9490  176.6030  135.0490 C   0  0  0  0  0  2  0  0  0  0  0  0
  187.1360  178.4670  136.6950 C   0  0  0  0  0  3  0  0  0  0  0  0
  187.1500  178.1050  135.2350 C   0  0  0  0  0  2  0  0  0  0  0  0
  187.8770  175.8820  135.9170 N   0  0  0  0  0  2  0  0  0  0  0  0
  187.4660  176.0880  137.3070 C   0  0  0  0  0  2  0  0  0  0  0  0
  187.1040  177.7640  147.8210 O   0  0  0  0  0  1  0  0  0  0  0  0
  187.2680  177.8800  146.4790 N   0  0  0  0  0  0  0  0  0  0  0  0
  185.1590  178.4300  143.5040 C   0  0  0  0  0  0  0  0  0  0  0  0
  185.1280  178.1820  142.0600 C   0  0  0  0  0  3  0  0  0  0  0  0
  186.1560  178.2220  145.6810 N   0  0  0  0  0  0  0  0  0  0  0  0
  186.1900  178.0390  144.2520 C   0  0  0  0  0  3  0  0  0  0  0  0
  184.8960  178.5180  146.3120 C   0  0  0  0  0  3  0  0  0  0  0  0
  184.0210  179.2090  144.1190 C   0  0  2  0  0  3  0  0  0  0  0  0
  183.9730  178.3150  141.4030 C   0  0  0  0  0  3  0  0  0  0  0  0
  183.8550  178.9400  145.5880 C   0  0  0  0  0  3  0  0  0  0  0  0
  181.4280  178.5720  141.4290 C   0  0  0  0  0  1  0  0  0  0  0  0
  182.7680  179.0160  143.3850 N   0  0  0  0  0  0  0  0  0  0  0  0
  182.7350  178.6770  142.1270 C   0  0  0  0  0  0  0  0  0  0  0  0
  1 11  1  6  0  0  0
  1  5  1  0  0  0  0
  1  4  1  0  0  0  0
  2 25  1  0  0  0  0
  2  7  2  0  0  0  0
  4  6  1  0  0  0  0
  5  8  1  0  0  0  0
  6  7  1  0  0  0  0
  6  3  2  0  0  0  0
  8  2  1  0  0  0  0
  9 10  1  0  0  0  0
 10 11  1  0  0  0  0
 12 10  2  0  0  0  0
 13  9  1  0  0  0  0
 15 16  1  0  0  0  0
 16 13  1  0  0  0  0
 16 14  1  0  0  0  0
 17 16  1  0  0  0  0
 18 17  1  0  0  0  0
 19 21  1  0  0  0  0
 19 22  1  0  0  0  0
 20 18  2  0  0  0  0
 21 20  1  0  0  0  0
 22 23  1  0  0  0  0
 23 18  1  0  0  0  0
 25 24  1  0  0  0  0
 26 31  1  0  0  0  0
 26 29  2  0  0  0  0
 27 26  1  0  0  0  0
 28 30  1  0  0  0  0
 28 25  1  0  0  0  0
 29 28  1  0  0  0  0
 31 33  1  1  0  0  0
 32 27  2  0  0  0  0
 32 36  1  0  0  0  0
 33 30  2  0  0  0  0
 34 36  1  0  0  0  0
 35 31  1  0  0  0  0
 36 35  2  0  0  0  0
M  END
>  <MODEL>
1

>  <REMARK>
 VINA RESULT:      -9.9      0.000      0.000
  Name = 
  7 active torsions:
  status: ('A' for Active; 'I' for Inactive)
    1  A    between atoms: C_2  and  C_12
    2  A    between atoms: N_4  and  N_29
    3  A    between atoms: C_5  and  N_16
    4  A    between atoms: C_5  and  C_20
    5  A    between atoms: C_6  and  N_24
    6  A    between atoms: C_7  and  N_29
    7  A    between atoms: C_12  and  C_20
                            x       y       z     vdW  Elec       q    Type
                         _______ _______ _______ _____ _____    ______ ____

>  <TORSDO>
F 7

$$$$
=
 OpenBabel10222415573D

 36 39  0  0  1  0  0  0  0  0999 V2000
  188.4160  176.8110  137.1520 C   0  0  1  0  0  3  0  0  0  0  0  0
  190.5820  177.0310  139.3850 C   0  0  0  0  0  0  0  0  0  0  0  0
  190.4970  173.9670  137.4360 O   0  0  0  0  0  0  0  0  0  0  0  0
  189.4470  175.8830  136.5620 C   0  0  0  0  0  2  0  0  0  0  0  0
  189.1360  178.0870  137.5070 C   0  0  0  0  0  2  0  0  0  0  0  0
  190.2370  175.1840  137.6200 C   0  0  0  0  0  0  0  0  0  0  0  0
  190.8020  175.8260  138.8280 C   0  0  0  0  0  3  0  0  0  0  0  0
  189.6670  178.0040  138.8550 N   0  0  0  0  0  2  0  0  0  0  0  0
  185.6980  177.4890  137.9250 N   0  0  0  0  0  2  0  0  0  0  0  0
  186.0730  177.4960  136.5460 C   0  0  0  0  0  0  0  0  0  0  0  0
  187.3900  177.0950  136.1610 N   0  0  0  0  0  2  0  0  0  0  0  0
  185.2490  177.8490  135.6630 O   0  0  0  0  0  0  0  0  0  0  0  0
  184.4290  178.0220  138.3960 C   0  0  0  0  0  2  0  0  0  0  0  0
  185.9490  178.7380  140.0620 F   0  0  0  0  0  0  0  0  0  0  0  0
  184.0370  179.8980  139.8200 F   0  0  0  0  0  0  0  0  0  0  0  0
  184.5990  178.6320  139.7810 C   0  0  0  0  0  0  0  0  0  0  0  0
  183.9540  177.7360  140.8370 C   0  0  0  0  0  2  0  0  0  0  0  0
  184.0460  178.3040  142.2210 C   0  0  0  0  0  0  0  0  0  0  0  0
  183.8900  178.9260  144.9510 C   0  0  0  0  0  2  0  0  0  0  0  0
  185.1340  178.0610  142.9710 C   0  0  0  0  0  3  0  0  0  0  0  0
  185.2620  178.5830  144.3760 C   0  0  0  0  0  2  0  0  0  0  0  0
  183.1650  179.7640  143.9990 N   0  0  0  0  0  2  0  0  0  0  0  0
  182.8250  178.9490  142.8300 C   0  0  0  0  0  2  0  0  0  0  0  0
  192.5530  177.7960  140.5470 O   0  0  0  0  0  1  0  0  0  0  0  0
  191.2760  177.3410  140.6090 N   0  0  0  0  0  0  0  0  0  0  0  0
  190.7790  176.8680  144.2330 C   0  0  0  0  0  0  0  0  0  0  0  0
  191.5300  176.6990  145.4800 C   0  0  0  0  0  3  0  0  0  0  0  0
  190.6390  177.2580  141.8650 N   0  0  0  0  0  0  0  0  0  0  0  0
  191.4010  177.0120  143.0630 C   0  0  0  0  0  3  0  0  0  0  0  0
  189.2640  177.6680  141.9910 C   0  0  0  0  0  3  0  0  0  0  0  0
  189.2720  176.8010  144.2920 C   0  0  2  0  0  3  0  0  0  0  0  0
  190.8970  176.8550  146.6450 C   0  0  0  0  0  3  0  0  0  0  0  0
  188.6090  177.5080  143.1440 C   0  0  0  0  0  3  0  0  0  0  0  0
  188.8500  177.6380  147.9650 C   0  0  0  0  0  1  0  0  0  0  0  0
  188.7560  177.2620  145.5850 N   0  0  0  0  0  0  0  0  0  0  0  0
  189.4650  177.2250  146.6780 C   0  0  0  0  0  0  0  0  0  0  0  0
  1 11  1  6  0  0  0
  1  5  1  0  0  0  0
  2 25  1  0  0  0  0
  3  6  2  0  0  0  0
  4  1  1  0  0  0  0
  4  6  1  0  0  0  0
  5  8  1  0  0  0  0
  6  7  1  0  0  0  0
  7  2  2  0  0  0  0
  8  2  1  0  0  0  0
  9 13  1  0  0  0  0
 10  9  1  0  0  0  0
 11 10  1  0  0  0  0
 12 10  2  0  0  0  0
 13 16  1  0  0  0  0
 16 15  1  0  0  0  0
 16 14  1  0  0  0  0
 16 17  1  0  0  0  0
 17 18  1  0  0  0  0
 18 23  1  0  0  0  0
 18 20  2  0  0  0  0
 20 21  1  0  0  0  0
 21 19  1  0  0  0  0
 22 19  1  0  0  0  0
 23 22  1  0  0  0  0
 24 25  1  0  0  0  0
 25 28  1  0  0  0  0
 26 31  1  0  0  0  0
 26 27  1  0  0  0  0
 27 32  2  0  0  0  0
 28 30  1  0  0  0  0
 28 29  1  0  0  0  0
 29 26  2  0  0  0  0
 30 33  2  0  0  0  0
 31 33  1  6  0  0  0
 31 35  1  0  0  0  0
 32 36  1  0  0  0  0
 35 36  2  0  0  0  0
 36 34  1  0  0  0  0
M  END
>  <MODEL>
2

>  <REMARK>
 VINA RESULT:      -9.7      2.449      7.336
  Name = 
  7 active torsions:
  status: ('A' for Active; 'I' for Inactive)
    1  A    between atoms: C_2  and  C_12
    2  A    between atoms: N_4  and  N_29
    3  A    between atoms: C_5  and  N_16
    4  A    between atoms: C_5  and  C_20
    5  A    between atoms: C_6  and  N_24
    6  A    between atoms: C_7  and  N_29
    7  A    between atoms: C_12  and  C_20
                            x       y       z     vdW  Elec       q    Type
                         _______ _______ _______ _____ _____    ______ ____

>  <TORSDO>
F 7

$$$$
=
 OpenBabel10222415573D

 36 39  0  0  1  0  0  0  0  0999 V2000
  182.7860  178.3270  139.5510 C   0  0  1  0  0  3  0  0  0  0  0  0
  185.5620  178.2460  138.1320 C   0  0  0  0  0  0  0  0  0  0  0  0
  183.3150  175.4470  137.5710 O   0  0  0  0  0  0  0  0  0  0  0  0
  182.4130  177.4680  138.3710 C   0  0  0  0  0  2  0  0  0  0  0  0
  183.4870  179.5410  138.9980 C   0  0  0  0  0  2  0  0  0  0  0  0
  183.5620  176.6350  137.9030 C   0  0  0  0  0  0  0  0  0  0  0  0
  184.9500  177.1160  137.7300 C   0  0  0  0  0  3  0  0  0  0  0  0
  184.9110  179.2870  138.8780 N   0  0  0  0  0  2  0  0  0  0  0  0
  182.7640  178.7420  142.4270 N   0  0  0  0  0  2  0  0  0  0  0  0
  181.5930  179.0130  141.6560 C   0  0  0  0  0  0  0  0  0  0  0  0
  181.5820  178.7430  140.2520 N   0  0  0  0  0  2  0  0  0  0  0  0
  180.5630  179.4860  142.2050 O   0  0  0  0  0  0  0  0  0  0  0  0
  182.8920  179.1280  143.8230 C   0  0  0  0  0  2  0  0  0  0  0  0
  184.9060  177.9100  143.5820 F   0  0  0  0  0  0  0  0  0  0  0  0
  185.0590  180.1070  144.0400 F   0  0  0  0  0  0  0  0  0  0  0  0
  184.3330  178.9520  144.2860 C   0  0  0  0  0  0  0  0  0  0  0  0
  184.3730  178.6110  145.7740 C   0  0  0  0  0  2  0  0  0  0  0  0
  185.7620  178.3550  146.2780 C   0  0  0  0  0  0  0  0  0  0  0  0
  188.1090  177.4750  147.5360 C   0  0  0  0  0  2  0  0  0  0  0  0
  186.6100  177.6120  145.5480 C   0  0  0  0  0  3  0  0  0  0  0  0
  188.0030  177.3010  146.0230 C   0  0  0  0  0  2  0  0  0  0  0  0
  187.5580  178.7750  147.9100 N   0  0  0  0  0  2  0  0  0  0  0  0
  186.1100  178.7440  147.6940 C   0  0  0  0  0  2  0  0  0  0  0  0
  187.3300  179.0470  136.6990 O   0  0  0  0  0  1  0  0  0  0  0  0
  186.9630  178.3940  137.8310 N   0  0  0  0  0  0  0  0  0  0  0  0
  188.9240  177.9430  140.9220 C   0  0  0  0  0  0  0  0  0  0  0  0
  188.8810  178.2300  142.3580 C   0  0  0  0  0  3  0  0  0  0  0  0
  187.9650  177.9460  138.7180 N   0  0  0  0  0  0  0  0  0  0  0  0
  187.9350  178.3150  140.1100 C   0  0  0  0  0  3  0  0  0  0  0  0
  188.8800  176.9180  138.2930 C   0  0  0  0  0  3  0  0  0  0  0  0
  190.1580  177.2740  140.3640 C   0  0  2  0  0  3  0  0  0  0  0  0
  189.7260  177.5950  143.1730 C   0  0  0  0  0  3  0  0  0  0  0  0
  189.8970  176.5470  139.0750 C   0  0  0  0  0  3  0  0  0  0  0  0
  191.4180  175.7200  143.5840 C   0  0  0  0  0  1  0  0  0  0  0  0
  190.8050  176.4100  141.3550 N   0  0  0  0  0  0  0  0  0  0  0  0
  190.6710  176.5900  142.6390 C   0  0  0  0  0  0  0  0  0  0  0  0
  1 11  1  6  0  0  0
  2  8  1  0  0  0  0
  3  6  2  0  0  0  0
  4  1  1  0  0  0  0
  5  1  1  0  0  0  0
  6  4  1  0  0  0  0
  7  6  1  0  0  0  0
  7  2  2  0  0  0  0
  8  5  1  0  0  0  0
  9 13  1  0  0  0  0
 10 12  2  0  0  0  0
 10  9  1  0  0  0  0
 11 10  1  0  0  0  0
 13 16  1  0  0  0  0
 14 16  1  0  0  0  0
 15 16  1  0  0  0  0
 16 17  1  0  0  0  0
 17 18  1  0  0  0  0
 18 23  1  0  0  0  0
 19 22  1  0  0  0  0
 20 21  1  0  0  0  0
 20 18  2  0  0  0  0
 21 19  1  0  0  0  0
 23 22  1  0  0  0  0
 24 25  1  0  0  0  0
 25  2  1  0  0  0  0
 25 28  1  0  0  0  0
 26 27  1  0  0  0  0
 27 32  2  0  0  0  0
 28 29  1  0  0  0  0
 29 26  2  0  0  0  0
 30 28  1  0  0  0  0
 30 33  2  0  0  0  0
 31 33  1  6  0  0  0
 31 26  1  0  0  0  0
 31 35  1  0  0  0  0
 35 36  2  0  0  0  0
 36 32  1  0  0  0  0
 36 34  1  0  0  0  0
M  END
>  <MODEL>
3

>  <REMARK>
 VINA RESULT:      -9.6      3.488      9.070
  Name = 
  7 active torsions:
  status: ('A' for Active; 'I' for Inactive)
    1  A    between atoms: C_2  and  C_12
    2  A    between atoms: N_4  and  N_29
    3  A    between atoms: C_5  and  N_16
    4  A    between atoms: C_5  and  C_20
    5  A    between atoms: C_6  and  N_24
    6  A    between atoms: C_7  and  N_29
    7  A    between atoms: C_12  and  C_20
                            x       y       z     vdW  Elec       q    Type
                         _______ _______ _______ _____ _____    ______ ____

>  <TORSDO>
F 7

$$$$
=
 OpenBabel10222415573D

 36 39  0  0  1  0  0  0  0  0999 V2000
  188.8810  177.4260  144.4090 C   0  0  1  0  0  3  0  0  0  0  0  0
  189.3900  177.5950  141.3370 C   0  0  0  0  0  0  0  0  0  0  0  0
  192.0780  178.6560  143.5370 O   0  0  0  0  0  0  0  0  0  0  0  0
  190.3810  177.2850  144.4180 C   0  0  0  0  0  2  0  0  0  0  0  0
  188.3590  176.4250  143.4100 C   0  0  0  0  0  2  0  0  0  0  0  0
  191.0180  178.0270  143.2880 C   0  0  0  0  0  0  0  0  0  0  0  0
  190.5420  178.0210  141.8870 C   0  0  0  0  0  3  0  0  0  0  0  0
  188.3090  177.0170  142.0860 N   0  0  0  0  0  2  0  0  0  0  0  0
  186.3730  178.5510  145.3510 N   0  0  0  0  0  2  0  0  0  0  0  0
  187.0850  177.6130  146.1590 C   0  0  0  0  0  0  0  0  0  0  0  0
  188.3530  177.1130  145.7270 N   0  0  0  0  0  2  0  0  0  0  0  0
  186.6060  177.2240  147.2570 O   0  0  0  0  0  0  0  0  0  0  0  0
  185.0200  178.9850  145.6590 C   0  0  0  0  0  2  0  0  0  0  0  0
  182.9240  178.5220  144.6640 F   0  0  0  0  0  0  0  0  0  0  0  0
  184.0460  180.3340  143.9460 F   0  0  0  0  0  0  0  0  0  0  0  0
  184.1810  179.0280  144.3880 C   0  0  0  0  0  0  0  0  0  0  0  0
  184.8220  178.1670  143.3020 C   0  0  0  0  0  2  0  0  0  0  0  0
  184.3890  178.5530  141.9190 C   0  0  0  0  0  0  0  0  0  0  0  0
  183.8410  178.7940  139.1800 C   0  0  0  0  0  2  0  0  0  0  0  0
  183.1320  178.2980  141.5180 C   0  0  0  0  0  3  0  0  0  0  0  0
  182.6580  178.6380  140.1320 C   0  0  0  0  0  2  0  0  0  0  0  0
  184.8260  179.6910  139.7790 N   0  0  0  0  0  2  0  0  0  0  0  0
  185.4300  179.0140  140.9280 C   0  0  0  0  0  2  0  0  0  0  0  0
  188.6160  178.8990  139.4600 O   0  0  0  0  0  1  0  0  0  0  0  0
  189.2200  177.7730  139.9170 N   0  0  0  0  0  0  0  0  0  0  0  0
  191.6200  175.7140  138.0180 C   0  0  0  0  0  0  0  0  0  0  0  0
  193.0320  175.3200  138.0040 C   0  0  0  0  0  3  0  0  0  0  0  0
  189.7330  176.8450  138.9860 N   0  0  0  0  0  0  0  0  0  0  0  0
  191.1400  176.5400  138.9470 C   0  0  0  0  0  3  0  0  0  0  0  0
  188.8230  176.0130  138.2400 C   0  0  0  0  0  3  0  0  0  0  0  0
  190.7290  175.2190  136.9040 C   0  0  2  0  0  3  0  0  0  0  0  0
  193.4080  174.2800  137.2570 C   0  0  0  0  0  3  0  0  0  0  0  0
  189.2760  175.1980  137.2840 C   0  0  0  0  0  3  0  0  0  0  0  0
  192.8040  172.2210  135.8640 C   0  0  0  0  0  1  0  0  0  0  0  0
  191.1750  173.9220  136.3860 N   0  0  0  0  0  0  0  0  0  0  0  0
  192.4090  173.5150  136.4790 C   0  0  0  0  0  0  0  0  0  0  0  0
  1  4  1  0  0  0  0
  1 11  1  1  0  0  0
  2  7  2  0  0  0  0
  2  8  1  0  0  0  0
  5  1  1  0  0  0  0
  6  3  2  0  0  0  0
  6  4  1  0  0  0  0
  7  6  1  0  0  0  0
  8  5  1  0  0  0  0
  9 13  1  0  0  0  0
  9 10  1  0  0  0  0
 10 12  2  0  0  0  0
 11 10  1  0  0  0  0
 15 16  1  0  0  0  0
 16 14  1  0  0  0  0
 16 13  1  0  0  0  0
 17 16  1  0  0  0  0
 18 17  1  0  0  0  0
 19 22  1  0  0  0  0
 19 21  1  0  0  0  0
 20 18  2  0  0  0  0
 21 20  1  0  0  0  0
 22 23  1  0  0  0  0
 23 18  1  0  0  0  0
 24 25  1  0  0  0  0
 25  2  1  0  0  0  0
 26 29  2  0  0  0  0
 27 26  1  0  0  0  0
 28 25  1  0  0  0  0
 29 28  1  0  0  0  0
 30 28  1  0  0  0  0
 31 33  1  1  0  0  0
 31 26  1  0  0  0  0
 32 27  2  0  0  0  0
 33 30  2  0  0  0  0
 34 36  1  0  0  0  0
 35 36  2  0  0  0  0
 35 31  1  0  0  0  0
 36 32  1  0  0  0  0
M  END
>  <MODEL>
4

>  <REMARK>
 VINA RESULT:      -9.2      3.069      7.532
  Name = 
  7 active torsions:
  status: ('A' for Active; 'I' for Inactive)
    1  A    between atoms: C_2  and  C_12
    2  A    between atoms: N_4  and  N_29
    3  A    between atoms: C_5  and  N_16
    4  A    between atoms: C_5  and  C_20
    5  A    between atoms: C_6  and  N_24
    6  A    between atoms: C_7  and  N_29
    7  A    between atoms: C_12  and  C_20
                            x       y       z     vdW  Elec       q    Type
                         _______ _______ _______ _____ _____    ______ ____

>  <TORSDO>
F 7

$$$$
=
 OpenBabel10222415573D

 36 39  0  0  1  0  0  0  0  0999 V2000
  186.7440  178.1710  146.3040 C   0  0  1  0  0  3  0  0  0  0  0  0
  189.4750  177.2500  145.1130 C   0  0  0  0  0  0  0  0  0  0  0  0
  189.4440  178.3360  148.5790 O   0  0  0  0  0  0  0  0  0  0  0  0
  187.4060  177.7160  147.5780 C   0  0  0  0  0  2  0  0  0  0  0  0
  186.8960  177.0460  145.3120 C   0  0  0  0  0  2  0  0  0  0  0  0
  188.8880  177.9080  147.5350 C   0  0  0  0  0  0  0  0  0  0  0  0
  189.7590  177.5650  146.3900 C   0  0  0  0  0  3  0  0  0  0  0  0
  188.1410  177.1870  144.5810 N   0  0  0  0  0  2  0  0  0  0  0  0
  185.0290  179.3510  144.2760 N   0  0  0  0  0  2  0  0  0  0  0  0
  184.4760  178.9290  145.5240 C   0  0  0  0  0  0  0  0  0  0  0  0
  185.3300  178.4120  146.5470 N   0  0  0  0  0  2  0  0  0  0  0  0
  183.2370  179.0110  145.7320 O   0  0  0  0  0  0  0  0  0  0  0  0
  184.2050  179.7470  143.1450 C   0  0  0  0  0  2  0  0  0  0  0  0
  185.4540  179.4220  141.1620 F   0  0  0  0  0  0  0  0  0  0  0  0
  184.9410  177.6060  142.3860 F   0  0  0  0  0  0  0  0  0  0  0  0
  184.4810  178.8400  141.9530 C   0  0  0  0  0  0  0  0  0  0  0  0
  183.2160  178.6660  141.1150 C   0  0  0  0  0  2  0  0  0  0  0  0
  183.4270  177.8000  139.9100 C   0  0  0  0  0  0  0  0  0  0  0  0
  183.2950  176.3420  137.5180 C   0  0  0  0  0  2  0  0  0  0  0  0
  184.1230  178.2720  138.8620 C   0  0  0  0  0  3  0  0  0  0  0  0
  184.3370  177.4530  137.6190 C   0  0  0  0  0  2  0  0  0  0  0  0
  183.2410  175.6170  138.7850 N   0  0  0  0  0  2  0  0  0  0  0  0
  182.6660  176.5000  139.8010 C   0  0  0  0  0  2  0  0  0  0  0  0
  191.7410  176.5180  144.7260 O   0  0  0  0  0  1  0  0  0  0  0  0
  190.5790  177.0040  144.2210 N   0  0  0  0  0  0  0  0  0  0  0  0
  189.0700  177.5220  140.8950 C   0  0  0  0  0  0  0  0  0  0  0  0
  187.7940  177.8540  140.2550 C   0  0  0  0  0  3  0  0  0  0  0  0
  190.4610  177.1800  142.8260 N   0  0  0  0  0  0  0  0  0  0  0  0
  189.1770  177.4260  142.2200 C   0  0  0  0  0  3  0  0  0  0  0  0
  191.6480  177.3650  142.0320 C   0  0  0  0  0  3  0  0  0  0  0  0
  190.2550  177.2160  140.0100 C   0  0  2  0  0  3  0  0  0  0  0  0
  187.7890  178.2290  138.9740 C   0  0  0  0  0  3  0  0  0  0  0  0
  191.5720  177.4350  140.7000 C   0  0  0  0  0  3  0  0  0  0  0  0
  189.0530  178.9950  136.8860 C   0  0  0  0  0  1  0  0  0  0  0  0
  190.1820  177.9350  138.7350 N   0  0  0  0  0  0  0  0  0  0  0  0
  189.0560  178.3390  138.2190 C   0  0  0  0  0  0  0  0  0  0  0  0
  1 11  1  1  0  0  0
  1  4  1  0  0  0  0
  2  7  2  0  0  0  0
  5  1  1  0  0  0  0
  6  4  1  0  0  0  0
  6  3  2  0  0  0  0
  7  6  1  0  0  0  0
  8  2  1  0  0  0  0
  8  5  1  0  0  0  0
  9 10  1  0  0  0  0
 10 12  2  0  0  0  0
 10 11  1  0  0  0  0
 13  9  1  0  0  0  0
 14 16  1  0  0  0  0
 16 15  1  0  0  0  0
 16 13  1  0  0  0  0
 17 16  1  0  0  0  0
 18 17  1  0  0  0  0
 19 21  1  0  0  0  0
 19 22  1  0  0  0  0
 20 18  2  0  0  0  0
 21 20  1  0  0  0  0
 22 23  1  0  0  0  0
 23 18  1  0  0  0  0
 25 24  1  0  0  0  0
 25  2  1  0  0  0  0
 26 29  2  0  0  0  0
 27 26  1  0  0  0  0
 28 25  1  0  0  0  0
 29 28  1  0  0  0  0
 30 28  1  0  0  0  0
 31 33  1  1  0  0  0
 31 26  1  0  0  0  0
 32 27  2  0  0  0  0
 33 30  2  0  0  0  0
 34 36  1  0  0  0  0
 35 31  1  0  0  0  0
 36 35  2  0  0  0  0
 36 32  1  0  0  0  0
M  END
>  <MODEL>
5

>  <REMARK>
 VINA RESULT:      -9.2      2.282      5.754
  Name = 
  7 active torsions:
  status: ('A' for Active; 'I' for Inactive)
    1  A    between atoms: C_2  and  C_12
    2  A    between atoms: N_4  and  N_29
    3  A    between atoms: C_5  and  N_16
    4  A    between atoms: C_5  and  C_20
    5  A    between atoms: C_6  and  N_24
    6  A    between atoms: C_7  and  N_29
    7  A    between atoms: C_12  and  C_20
                            x       y       z     vdW  Elec       q    Type
                         _______ _______ _______ _____ _____    ______ ____

>  <TORSDO>
F 7

$$$$
=
 OpenBabel10222415573D

 36 39  0  0  1  0  0  0  0  0999 V2000
  188.7890  177.7030  144.9240 C   0  0  1  0  0  3  0  0  0  0  0  0
  189.5380  177.5240  141.9020 C   0  0  0  0  0  0  0  0  0  0  0  0
  191.9400  179.0930  144.1300 O   0  0  0  0  0  0  0  0  0  0  0  0
  190.2890  177.6980  145.0610 C   0  0  0  0  0  2  0  0  0  0  0  0
  188.4330  176.5400  144.0330 C   0  0  0  0  0  2  0  0  0  0  0  0
  190.9580  178.3450  143.8910 C   0  0  0  0  0  0  0  0  0  0  0  0
  190.6030  178.1180  142.4730 C   0  0  0  0  0  3  0  0  0  0  0  0
  188.4480  176.9510  142.6410 N   0  0  0  0  0  2  0  0  0  0  0  0
  186.1140  178.6750  145.5090 N   0  0  0  0  0  2  0  0  0  0  0  0
  186.8370  177.9320  146.4920 C   0  0  0  0  0  0  0  0  0  0  0  0
  188.1780  177.5140  146.2300 N   0  0  0  0  0  2  0  0  0  0  0  0
  186.3020  177.6450  147.5950 O   0  0  0  0  0  0  0  0  0  0  0  0
  184.7040  179.0020  145.6520 C   0  0  0  0  0  2  0  0  0  0  0  0
  182.7040  178.9490  144.3890 F   0  0  0  0  0  0  0  0  0  0  0  0
  184.2670  180.4600  143.8120 F   0  0  0  0  0  0  0  0  0  0  0  0
  184.0640  179.1720  144.2800 C   0  0  0  0  0  0  0  0  0  0  0  0
  184.6430  178.1560  143.2970 C   0  0  0  0  0  2  0  0  0  0  0  0
  184.3650  178.5040  141.8650 C   0  0  0  0  0  0  0  0  0  0  0  0
  184.1990  178.7270  139.0750 C   0  0  0  0  0  2  0  0  0  0  0  0
  183.2380  178.0670  141.2790 C   0  0  0  0  0  3  0  0  0  0  0  0
  182.9270  178.3630  139.8370 C   0  0  0  0  0  2  0  0  0  0  0  0
  184.9290  179.7510  139.8180 N   0  0  0  0  0  2  0  0  0  0  0  0
  185.4550  179.1480  141.0430 C   0  0  0  0  0  2  0  0  0  0  0  0
  188.3310  177.8970  139.8460 O   0  0  0  0  0  1  0  0  0  0  0  0
  189.4740  177.5030  140.4620 N   0  0  0  0  0  0  0  0  0  0  0  0
  191.4870  176.3120  137.6100 C   0  0  0  0  0  0  0  0  0  0  0  0
  191.3600  175.9190  136.2040 C   0  0  0  0  0  3  0  0  0  0  0  0
  190.5930  177.1600  139.6740 N   0  0  0  0  0  0  0  0  0  0  0  0
  190.4270  176.6990  138.3190 C   0  0  0  0  0  3  0  0  0  0  0  0
  191.9150  177.5040  140.1320 C   0  0  0  0  0  3  0  0  0  0  0  0
  192.8430  176.2000  138.2640 C   0  0  2  0  0  3  0  0  0  0  0  0
  192.4610  175.8270  135.4540 C   0  0  0  0  0  3  0  0  0  0  0  0
  192.9940  177.1040  139.4550 C   0  0  0  0  0  3  0  0  0  0  0  0
  194.9560  176.2850  135.1180 C   0  0  0  0  0  1  0  0  0  0  0  0
  193.9310  176.3840  137.2990 N   0  0  0  0  0  0  0  0  0  0  0  0
  193.7880  176.1490  136.0250 C   0  0  0  0  0  0  0  0  0  0  0  0
  1  4  1  0  0  0  0
  1 11  1  1  0  0  0
  2  7  2  0  0  0  0
  2  8  1  0  0  0  0
  5  1  1  0  0  0  0
  6  3  2  0  0  0  0
  6  4  1  0  0  0  0
  7  6  1  0  0  0  0
  8  5  1  0  0  0  0
  9 13  1  0  0  0  0
  9 10  1  0  0  0  0
 10 12  2  0  0  0  0
 11 10  1  0  0  0  0
 15 16  1  0  0  0  0
 16 14  1  0  0  0  0
 16 13  1  0  0  0  0
 17 16  1  0  0  0  0
 18 17  1  0  0  0  0
 19 22  1  0  0  0  0
 19 21  1  0  0  0  0
 20 18  2  0  0  0  0
 21 20  1  0  0  0  0
 22 23  1  0  0  0  0
 23 18  1  0  0  0  0
 24 25  1  0  0  0  0
 25  2  1  0  0  0  0
 26 31  1  0  0  0  0
 26 29  2  0  0  0  0
 27 26  1  0  0  0  0
 28 30  1  0  0  0  0
 28 25  1  0  0  0  0
 29 28  1  0  0  0  0
 31 33  1  1  0  0  0
 32 36  1  0  0  0  0
 32 27  2  0  0  0  0
 33 30  2  0  0  0  0
 34 36  1  0  0  0  0
 35 31  1  0  0  0  0
 36 35  2  0  0  0  0
M  END
>  <MODEL>
6

>  <REMARK>
 VINA RESULT:      -9.1      3.173      7.621
  Name = 
  7 active torsions:
  status: ('A' for Active; 'I' for Inactive)
    1  A    between atoms: C_2  and  C_12
    2  A    between atoms: N_4  and  N_29
    3  A    between atoms: C_5  and  N_16
    4  A    between atoms: C_5  and  C_20
    5  A    between atoms: C_6  and  N_24
    6  A    between atoms: C_7  and  N_29
    7  A    between atoms: C_12  and  C_20
                            x       y       z     vdW  Elec       q    Type
                         _______ _______ _______ _____ _____    ______ ____

>  <TORSDO>
F 7

$$$$
=
 OpenBabel10222415573D

 36 39  0  0  1  0  0  0  0  0999 V2000
  187.9710  177.7320  146.3170 C   0  0  1  0  0  3  0  0  0  0  0  0
  190.0230  177.2170  144.0260 C   0  0  0  0  0  0  0  0  0  0  0  0
  191.2860  177.2200  147.4310 O   0  0  0  0  0  0  0  0  0  0  0  0
  188.9770  176.9200  147.0900 C   0  0  0  0  0  2  0  0  0  0  0  0
  187.6600  176.9540  145.0630 C   0  0  0  0  0  2  0  0  0  0  0  0
  190.3660  177.1210  146.5790 C   0  0  0  0  0  0  0  0  0  0  0  0
  190.7560  177.1380  145.1520 C   0  0  0  0  0  3  0  0  0  0  0  0
  188.5890  177.3110  144.0080 N   0  0  0  0  0  2  0  0  0  0  0  0
  185.7230  179.3050  145.3590 N   0  0  0  0  0  2  0  0  0  0  0  0
  185.6280  178.6020  146.5990 C   0  0  0  0  0  0  0  0  0  0  0  0
  186.7570  177.8850  147.1030 N   0  0  0  0  0  2  0  0  0  0  0  0
  184.5540  178.6110  147.2560 O   0  0  0  0  0  0  0  0  0  0  0  0
  184.5750  179.9290  144.7200 C   0  0  0  0  0  2  0  0  0  0  0  0
  183.2460  177.9710  144.7480 F   0  0  0  0  0  0  0  0  0  0  0  0
  182.7990  179.5170  143.1770 F   0  0  0  0  0  0  0  0  0  0  0  0
  183.8120  178.9000  143.8950 C   0  0  0  0  0  0  0  0  0  0  0  0
  184.7620  178.1720  142.9460 C   0  0  0  0  0  2  0  0  0  0  0  0
  184.4210  178.3830  141.5020 C   0  0  0  0  0  0  0  0  0  0  0  0
  184.2740  178.5090  138.7040 C   0  0  0  0  0  2  0  0  0  0  0  0
  183.5530  177.5570  140.8930 C   0  0  0  0  0  3  0  0  0  0  0  0
  183.2020  177.7080  139.4380 C   0  0  0  0  0  2  0  0  0  0  0  0
  184.5530  179.7350  139.4480 N   0  0  0  0  0  2  0  0  0  0  0  0
  185.2240  179.3770  140.6980 C   0  0  0  0  0  2  0  0  0  0  0  0
  192.0540  176.9710  142.7470 O   0  0  0  0  0  1  0  0  0  0  0  0
  190.7260  177.2520  142.7680 N   0  0  0  0  0  0  0  0  0  0  0  0
  189.8050  177.0350  139.2030 C   0  0  0  0  0  0  0  0  0  0  0  0
  190.0660  176.2420  137.9990 C   0  0  0  0  0  3  0  0  0  0  0  0
  190.0580  177.4930  141.5500 N   0  0  0  0  0  0  0  0  0  0  0  0
  190.3960  176.7490  140.3630 C   0  0  0  0  0  3  0  0  0  0  0  0
  188.8670  178.3030  141.5430 C   0  0  0  0  0  3  0  0  0  0  0  0
  188.9000  178.2380  139.0850 C   0  0  2  0  0  3  0  0  0  0  0  0
  189.2480  176.3660  136.9510 C   0  0  0  0  0  3  0  0  0  0  0  0
  188.2710  178.6280  140.3930 C   0  0  0  0  0  3  0  0  0  0  0  0
  187.0470  177.1970  135.9450 C   0  0  0  0  0  1  0  0  0  0  0  0
  187.8970  178.0630  138.0300 N   0  0  0  0  0  0  0  0  0  0  0  0
  188.0760  177.2660  137.0150 C   0  0  0  0  0  0  0  0  0  0  0  0
  1  4  1  0  0  0  0
  1 11  1  1  0  0  0
  2  7  2  0  0  0  0
  5  1  1  0  0  0  0
  6  4  1  0  0  0  0
  6  3  2  0  0  0  0
  7  6  1  0  0  0  0
  8  2  1  0  0  0  0
  8  5  1  0  0  0  0
  9 10  1  0  0  0  0
 10 11  1  0  0  0  0
 10 12  2  0  0  0  0
 13  9  1  0  0  0  0
 15 16  1  0  0  0  0
 16 13  1  0  0  0  0
 16 14  1  0  0  0  0
 17 16  1  0  0  0  0
 18 17  1  0  0  0  0
 19 21  1  0  0  0  0
 19 22  1  0  0  0  0
 20 18  2  0  0  0  0
 21 20  1  0  0  0  0
 22 23  1  0  0  0  0
 23 18  1  0  0  0  0
 24 25  1  0  0  0  0
 25  2  1  0  0  0  0
 26 29  2  0  0  0  0
 27 26  1  0  0  0  0
 28 25  1  0  0  0  0
 29 28  1  0  0  0  0
 30 28  1  0  0  0  0
 31 26  1  0  0  0  0
 31 33  1  1  0  0  0
 32 36  1  0  0  0  0
 32 27  2  0  0  0  0
 33 30  2  0  0  0  0
 34 36  1  0  0  0  0
 35 31  1  0  0  0  0
 36 35  2  0  0  0  0
M  END
>  <MODEL>
7

>  <REMARK>
 VINA RESULT:      -9.1      2.225      6.010
  Name = 
  7 active torsions:
  status: ('A' for Active; 'I' for Inactive)
    1  A    between atoms: C_2  and  C_12
    2  A    between atoms: N_4  and  N_29
    3  A    between atoms: C_5  and  N_16
    4  A    between atoms: C_5  and  C_20
    5  A    between atoms: C_6  and  N_24
    6  A    between atoms: C_7  and  N_29
    7  A    between atoms: C_12  and  C_20
                            x       y       z     vdW  Elec       q    Type
                         _______ _______ _______ _____ _____    ______ ____

>  <TORSDO>
F 7

$$$$
=
 OpenBabel10222415573D

 36 39  0  0  1  0  0  0  0  0999 V2000
  190.4210  177.2510  144.9980 C   0  0  1  0  0  3  0  0  0  0  0  0
  190.7140  177.4060  141.8970 C   0  0  0  0  0  0  0  0  0  0  0  0
  187.9300  175.4830  143.2190 O   0  0  0  0  0  0  0  0  0  0  0  0
  188.9750  177.0560  144.6230 C   0  0  0  0  0  2  0  0  0  0  0  0
  190.9000  178.4720  144.2550 C   0  0  0  0  0  2  0  0  0  0  0  0
  188.8290  176.3580  143.3100 C   0  0  0  0  0  0  0  0  0  0  0  0
  189.6060  176.6640  142.0890 C   0  0  0  0  0  3  0  0  0  0  0  0
  191.4080  178.0970  142.9480 N   0  0  0  0  0  2  0  0  0  0  0  0
  188.1240  178.0590  146.5840 N   0  0  0  0  0  2  0  0  0  0  0  0
  189.3810  177.8140  147.2170 C   0  0  0  0  0  0  0  0  0  0  0  0
  190.5270  177.4840  146.4290 N   0  0  0  0  0  2  0  0  0  0  0  0
  189.4900  177.8910  148.4690 O   0  0  0  0  0  0  0  0  0  0  0  0
  186.8930  178.2550  147.3320 C   0  0  0  0  0  2  0  0  0  0  0  0
  184.5480  178.2480  147.0150 F   0  0  0  0  0  0  0  0  0  0  0  0
  185.7350  179.8800  146.0210 F   0  0  0  0  0  0  0  0  0  0  0  0
  185.7400  178.5410  146.3780 C   0  0  0  0  0  0  0  0  0  0  0  0
  185.8530  177.6630  145.1330 C   0  0  0  0  0  2  0  0  0  0  0  0
  185.1890  178.2660  143.9310 C   0  0  0  0  0  0  0  0  0  0  0  0
  183.9930  178.8690  141.4680 C   0  0  0  0  0  2  0  0  0  0  0  0
  183.8560  178.4330  143.9190 C   0  0  0  0  0  3  0  0  0  0  0  0
  183.1400  179.0050  142.7260 C   0  0  0  0  0  2  0  0  0  0  0  0
  185.3350  179.3790  141.7390 N   0  0  0  0  0  2  0  0  0  0  0  0
  185.9980  178.4660  142.6720 C   0  0  0  0  0  2  0  0  0  0  0  0
  192.5990  177.5350  140.3980 O   0  0  0  0  0  1  0  0  0  0  0  0
  191.2540  177.4710  140.5630 N   0  0  0  0  0  0  0  0  0  0  0  0
  189.6540  176.1550  137.5110 C   0  0  0  0  0  0  0  0  0  0  0  0
  189.5260  174.9250  136.7240 C   0  0  0  0  0  3  0  0  0  0  0  0
  190.4280  177.3910  139.4220 N   0  0  0  0  0  0  0  0  0  0  0  0
  190.3860  176.1920  138.6240 C   0  0  0  0  0  3  0  0  0  0  0  0
  189.4360  178.4100  139.1930 C   0  0  0  0  0  3  0  0  0  0  0  0
  188.9930  177.4090  136.9900 C   0  0  2  0  0  3  0  0  0  0  0  0
  188.5650  174.8440  135.8000 C   0  0  0  0  0  3  0  0  0  0  0  0
  188.7090  178.4120  138.0720 C   0  0  0  0  0  3  0  0  0  0  0  0
  186.4180  175.7570  134.7520 C   0  0  0  0  0  1  0  0  0  0  0  0
  187.7950  177.1060  136.2010 N   0  0  0  0  0  0  0  0  0  0  0  0
  187.6220  175.9650  135.5960 C   0  0  0  0  0  0  0  0  0  0  0  0
  1 11  1  1  0  0  0
  2  7  2  0  0  0  0
  2  8  1  0  0  0  0
  3  6  2  0  0  0  0
  4  1  1  0  0  0  0
  5  1  1  0  0  0  0
  6  4  1  0  0  0  0
  7  6  1  0  0  0  0
  8  5  1  0  0  0  0
  9 10  1  0  0  0  0
  9 13  1  0  0  0  0
 10 12  2  0  0  0  0
 11 10  1  0  0  0  0
 15 16  1  0  0  0  0
 16 14  1  0  0  0  0
 16 13  1  0  0  0  0
 17 16  1  0  0  0  0
 18 17  1  0  0  0  0
 19 22  1  0  0  0  0
 19 21  1  0  0  0  0
 20 18  2  0  0  0  0
 21 20  1  0  0  0  0
 22 23  1  0  0  0  0
 23 18  1  0  0  0  0
 24 25  1  0  0  0  0
 25  2  1  0  0  0  0
 26 29  2  0  0  0  0
 27 26  1  0  0  0  0
 28 25  1  0  0  0  0
 29 28  1  0  0  0  0
 30 28  1  0  0  0  0
 31 26  1  0  0  0  0
 31 33  1  1  0  0  0
 32 27  2  0  0  0  0
 33 30  2  0  0  0  0
 34 36  1  0  0  0  0
 35 31  1  0  0  0  0
 36 32  1  0  0  0  0
 36 35  2  0  0  0  0
M  END
>  <MODEL>
8

>  <REMARK>
 VINA RESULT:      -9.1      2.356      6.980
  Name = 
  7 active torsions:
  status: ('A' for Active; 'I' for Inactive)
    1  A    between atoms: C_2  and  C_12
    2  A    between atoms: N_4  and  N_29
    3  A    between atoms: C_5  and  N_16
    4  A    between atoms: C_5  and  C_20
    5  A    between atoms: C_6  and  N_24
    6  A    between atoms: C_7  and  N_29
    7  A    between atoms: C_12  and  C_20
                            x       y       z     vdW  Elec       q    Type
                         _______ _______ _______ _____ _____    ______ ____

>  <TORSDO>
F 7

$$$$
=
 OpenBabel10222415573D

 36 39  0  0  1  0  0  0  0  0999 V2000
  185.0260  178.7740  138.6250 C   0  0  1  0  0  3  0  0  0  0  0  0
  183.7770  178.5090  141.4700 C   0  0  0  0  0  0  0  0  0  0  0  0
  182.2550  176.5860  138.7910 O   0  0  0  0  0  0  0  0  0  0  0  0
  184.4460  177.3900  138.4910 C   0  0  0  0  0  2  0  0  0  0  0  0
  185.8260  178.7850  139.9030 C   0  0  0  0  0  2  0  0  0  0  0  0
  183.2070  177.2230  139.3100 C   0  0  0  0  0  0  0  0  0  0  0  0
  183.0380  177.6830  140.7060 C   0  0  0  0  0  3  0  0  0  0  0  0
  184.9790  179.1550  141.0220 N   0  0  0  0  0  2  0  0  0  0  0  0
  187.6680  177.5770  138.4390 N   0  0  0  0  0  2  0  0  0  0  0  0
  187.1780  178.4000  137.3790 C   0  0  0  0  0  0  0  0  0  0  0  0
  185.9080  179.0450  137.5010 N   0  0  0  0  0  2  0  0  0  0  0  0
  187.8610  178.5680  136.3340 O   0  0  0  0  0  0  0  0  0  0  0  0
  188.8780  176.7790  138.3190 C   0  0  0  0  0  2  0  0  0  0  0  0
  190.6780  175.9700  139.6240 F   0  0  0  0  0  0  0  0  0  0  0  0
  190.4980  178.1960  139.3530 F   0  0  0  0  0  0  0  0  0  0  0  0
  189.7840  177.0200  139.5200 C   0  0  0  0  0  0  0  0  0  0  0  0
  188.9580  177.0820  140.8030 C   0  0  0  0  0  2  0  0  0  0  0  0
  189.7960  177.2930  142.0280 C   0  0  0  0  0  0  0  0  0  0  0  0
  191.8000  177.6410  143.9590 C   0  0  0  0  0  2  0  0  0  0  0  0
  189.9860  178.5360  142.5010 C   0  0  0  0  0  3  0  0  0  0  0  0
  190.8420  178.8030  143.7090 C   0  0  0  0  0  2  0  0  0  0  0  0
  191.0500  176.3880  143.9450 N   0  0  0  0  0  2  0  0  0  0  0  0
  190.5940  176.1350  142.5770 C   0  0  0  0  0  2  0  0  0  0  0  0
  182.0270  179.2070  142.9770 O   0  0  0  0  0  1  0  0  0  0  0  0
  183.3070  178.7890  142.8030 N   0  0  0  0  0  0  0  0  0  0  0  0
  186.1800  177.7810  144.8850 C   0  0  0  0  0  0  0  0  0  0  0  0
  187.5720  177.3360  144.7780 C   0  0  0  0  0  3  0  0  0  0  0  0
  184.1150  178.5660  143.9380 N   0  0  0  0  0  0  0  0  0  0  0  0
  185.4530  178.0510  143.8010 C   0  0  0  0  0  3  0  0  0  0  0  0
  183.7000  179.0860  145.2160 C   0  0  0  0  0  3  0  0  0  0  0  0
  185.5580  177.8580  146.2590 C   0  0  2  0  0  3  0  0  0  0  0  0
  188.3470  177.3620  145.8650 C   0  0  0  0  0  3  0  0  0  0  0  0
  184.3940  178.8060  146.3220 C   0  0  0  0  0  3  0  0  0  0  0  0
  188.7580  178.1200  148.2730 C   0  0  0  0  0  1  0  0  0  0  0  0
  186.5550  178.1500  147.2930 N   0  0  0  0  0  0  0  0  0  0  0  0
  187.8180  177.8630  147.1520 C   0  0  0  0  0  0  0  0  0  0  0  0
  1 11  1  6  0  0  0
  1  5  1  0  0  0  0
  2 25  1  0  0  0  0
  3  6  2  0  0  0  0
  4  1  1  0  0  0  0
  4  6  1  0  0  0  0
  5  8  1  0  0  0  0
  6  7  1  0  0  0  0
  7  2  2  0  0  0  0
  8  2  1  0  0  0  0
 10 11  1  0  0  0  0
 10  9  1  0  0  0  0
 12 10  2  0  0  0  0
 13  9  1  0  0  0  0
 13 16  1  0  0  0  0
 15 16  1  0  0  0  0
 16 14  1  0  0  0  0
 16 17  1  0  0  0  0
 17 18  1  0  0  0  0
 18 20  2  0  0  0  0
 18 23  1  0  0  0  0
 20 21  1  0  0  0  0
 21 19  1  0  0  0  0
 22 19  1  0  0  0  0
 23 22  1  0  0  0  0
 25 24  1  0  0  0  0
 25 28  1  0  0  0  0
 26 31  1  0  0  0  0
 27 26  1  0  0  0  0
 27 32  2  0  0  0  0
 28 30  1  0  0  0  0
 29 28  1  0  0  0  0
 29 26  2  0  0  0  0
 30 33  2  0  0  0  0
 31 33  1  6  0  0  0
 31 35  1  0  0  0  0
 32 36  1  0  0  0  0
 36 35  2  0  0  0  0
 36 34  1  0  0  0  0
M  END
>  <MODEL>
9

>  <REMARK>
 VINA RESULT:      -9.0      2.911      6.475
  Name = 
  7 active torsions:
  status: ('A' for Active; 'I' for Inactive)
    1  A    between atoms: C_2  and  C_12
    2  A    between atoms: N_4  and  N_29
    3  A    between atoms: C_5  and  N_16
    4  A    between atoms: C_5  and  C_20
    5  A    between atoms: C_6  and  N_24
    6  A    between atoms: C_7  and  N_29
    7  A    between atoms: C_12  and  C_20
                            x       y       z     vdW  Elec       q    Type
                         _______ _______ _______ _____ _____    ______ ____

>  <TORSDO>
F 7

$$$$
