=
 OpenBabel10222420243D

 47 52  0  0  1  0  0  0  0  0999 V2000
  186.8250  178.5950  141.1800 C   0  0  0  0  0  3  0  0  0  0  0  0
  183.9390  178.8380  142.1800 C   0  0  0  0  0  0  0  0  0  0  0  0
  186.8640  177.3100  144.6840 C   0  0  1  0  0  3  0  0  0  0  0  0
  183.9710  178.8260  140.8340 C   0  0  0  0  0  3  0  0  0  0  0  0
  182.5890  178.8860  144.1830 N   0  0  0  0  0  0  0  0  0  0  0  0
  188.2860  176.6580  142.6680 C   0  0  0  0  0  2  0  0  0  0  0  0
  181.2690  179.9620  138.6540 C   0  0  2  0  0  3  0  0  0  0  0  0
  184.8970  178.2230  144.3230 N   0  0  1  0  0  0  0  0  0  0  0  0
  185.1820  178.9210  143.0520 C   0  0  1  0  0  3  0  0  0  0  0  0
  188.0900  178.0550  140.6400 C   0  0  0  0  0  0  0  0  0  0  0  0
  188.7990  177.1650  141.3460 C   0  0  0  0  0  3  0  0  0  0  0  0
  185.9870  178.3130  145.1360 O   0  0  0  0  0  0  0  0  0  0  0  0
  186.4750  178.3770  142.4550 C   0  0  0  0  0  0  0  0  0  0  0  0
  182.6300  178.8840  142.8860 C   0  0  0  0  0  0  0  0  0  0  0  0
  180.7480  179.8510  140.0040 N   0  0  0  0  0  0  0  0  0  0  0  0
  182.7170  179.4660  138.7380 C   0  0  0  0  0  2  0  0  0  0  0  0
  182.7320  178.6320  140.0060 C   0  0  2  0  0  3  0  0  0  0  0  0
  181.5280  179.1180  140.7150 C   0  0  0  0  0  0  0  0  0  0  0  0
  181.4230  179.0410  142.1370 N   0  0  0  0  0  2  0  0  0  0  0  0
  187.5140  177.7740  143.3800 C   0  0  1  0  0  3  0  0  0  0  0  0
  183.8030  178.9170  145.0030 C   0  0  0  0  0  2  0  0  0  0  0  0
  188.6720  178.0410  147.7680 C   0  0  0  0  0  2  0  0  0  0  0  0
  189.2320  177.6570  145.5180 C   0  0  0  0  0  2  0  0  0  0  0  0
  189.7740  178.0600  146.8110 N   0  0  0  0  0  0  0  0  0  0  0  0
  187.4480  177.4420  147.1090 C   0  0  0  0  0  2  0  0  0  0  0  0
  187.9020  176.9690  145.7550 C   0  0  1  0  0  3  0  0  0  0  0  0
  191.8530  177.4440  148.3630 O   0  0  0  0  0  0  0  0  0  0  0  0
  190.2320  175.6710  147.8700 O   0  0  0  0  0  0  0  0  0  0  0  0
  190.9430  176.8730  147.3110 S   0  0  0  0  0  0  0  0  0  0  0  0
  191.9070  176.3730  145.9020 C   0  0  0  0  0  2  0  0  0  0  0  0
  192.3530  175.0000  146.0700 N   0  0  0  0  0  1  0  0  0  0  0  0
  181.2210  181.4130  138.1980 C   0  0  0  0  0  2  0  0  0  0  0  0
  180.6920  181.5120  136.7750 C   0  0  0  0  0  2  0  0  0  0  0  0
  180.1360  182.7750  136.5660 O   0  0  0  0  0  1  0  0  0  0  0  0
  188.5540  178.4930  139.2900 C   0  0  0  0  0  2  0  0  0  0  0  0
  189.9050  177.8790  138.9440 C   0  0  0  0  0  2  0  0  0  0  0  0
  189.7940  176.8840  137.7950 C   0  0  1  0  0  3  0  0  0  0  0  0
  189.7440  177.5670  136.5780 O   0  0  0  0  0  1  0  0  0  0  0  0
  193.4220  175.6050  137.2910 C   0  0  0  0  0  0  0  0  0  0  0  0
  192.2280  176.3940  137.3570 N   0  0  0  0  0  2  0  0  0  0  0  0
  193.4330  174.4200  137.7170 O   0  0  0  0  0  0  0  0  0  0  0  0
  190.8130  174.7710  138.2760 O   0  0  0  0  0  0  0  0  0  0  0  0
  190.9560  175.9430  137.8330 C   0  0  0  0  0  0  0  0  0  0  0  0
  194.5820  176.1330  136.7340 O   0  0  0  0  0  0  0  0  0  0  0  0
  195.3680  175.3940  135.8110 C   0  0  0  0  0  2  0  0  0  0  0  0
  196.6410  174.9190  136.4820 C   0  0  0  0  0  2  0  0  0  0  0  0
  197.5950  175.9350  136.4570 O   0  0  0  0  0  1  0  0  0  0  0  0
  1 13  2  0  0  0  0
  2 14  1  0  0  0  0
  3 12  1  1  0  0  0
  3 26  1  0  0  0  0
  4  2  2  0  0  0  0
  5 21  1  0  0  0  0
  7 32  1  1  0  0  0
  7 16  1  0  0  0  0
  7 15  1  0  0  0  0
  8 21  1  1  0  0  0
  8 12  1  0  0  0  0
  9  2  1  6  0  0  0
  9  8  1  0  0  0  0
 10  1  1  0  0  0  0
 10 11  2  0  0  0  0
 11  6  1  0  0  0  0
 13  9  1  0  0  0  0
 13 20  1  0  0  0  0
 14  5  2  0  0  0  0
 15 18  2  0  0  0  0
 17 16  1  6  0  0  0
 17 18  1  0  0  0  0
 17  4  1  0  0  0  0
 18 19  1  0  0  0  0
 19 14  1  0  0  0  0
 20  6  1  6  0  0  0
 20  3  1  0  0  0  0
 23 24  1  0  0  0  0
 24 29  1  0  0  0  0
 24 22  1  0  0  0  0
 25 22  1  0  0  0  0
 26 23  1  6  0  0  0
 26 25  1  0  0  0  0
 29 28  2  0  0  0  0
 29 27  2  0  0  0  0
 30 31  1  0  0  0  0
 30 29  1  0  0  0  0
 33 32  1  0  0  0  0
 34 33  1  0  0  0  0
 35 10  1  0  0  0  0
 36 35  1  0  0  0  0
 37 38  1  6  0  0  0
 37 43  1  0  0  0  0
 37 36  1  0  0  0  0
 39 40  1  0  0  0  0
 39 41  2  0  0  0  0
 40 43  1  0  0  0  0
 43 42  2  0  0  0  0
 44 39  1  0  0  0  0
 45 46  1  0  0  0  0
 45 44  1  0  0  0  0
 47 46  1  0  0  0  0
M  END
>  <MODEL>
1

>  <REMARK>
 VINA RESULT:      -9.2      0.000      0.000
  Name = 
  12 active torsions:
  status: ('A' for Active; 'I' for Inactive)
    1  A    between atoms: C_1  and  O_14
    2  A    between atoms: C_4  and  C_28
    3  A    between atoms: C_4  and  C_35
    4  A    between atoms: C_6  and  C_39
    5  A    between atoms: C_8  and  C_30
    6  A    between atoms: C_12  and  C_16
    7  A    between atoms: O_14  and  C_30
    8  A    between atoms: C_16  and  C_19
    9  A    between atoms: C_23  and  C_33
   10  A    between atoms: C_28  and  C_33
   11  A    between atoms: N_31  and  S_32
   12  A    between atoms: S_32  and  C_43
                            x       y       z     vdW  Elec       q    Type
                         _______ _______ _______ _____ _____    ______ ____

>  <TORSDO>
F 12

$$$$
=
 OpenBabel10222420243D

 47 52  0  0  1  0  0  0  0  0999 V2000
  186.9080  178.6390  141.1090 C   0  0  0  0  0  3  0  0  0  0  0  0
  184.0070  178.8450  142.0720 C   0  0  0  0  0  0  0  0  0  0  0  0
  186.9090  177.3050  144.5960 C   0  0  1  0  0  3  0  0  0  0  0  0
  184.0570  178.8530  140.7270 C   0  0  0  0  0  3  0  0  0  0  0  0
  182.6290  178.8550  144.0570 N   0  0  0  0  0  0  0  0  0  0  0  0
  188.3640  176.6930  142.5910 C   0  0  0  0  0  2  0  0  0  0  0  0
  181.3760  179.9970  138.5250 C   0  0  2  0  0  3  0  0  0  0  0  0
  184.9400  178.2080  144.2200 N   0  0  1  0  0  0  0  0  0  0  0  0
  185.2370  178.9260  142.9620 C   0  0  1  0  0  3  0  0  0  0  0  0
  188.1850  178.1170  140.5790 C   0  0  0  0  0  0  0  0  0  0  0  0
  188.8910  177.2220  141.2830 C   0  0  0  0  0  3  0  0  0  0  0  0
  186.0180  178.2950  145.0490 O   0  0  0  0  0  0  0  0  0  0  0  0
  186.5420  178.4000  142.3760 C   0  0  0  0  0  0  0  0  0  0  0  0
  182.6870  178.8710  142.7610 C   0  0  0  0  0  0  0  0  0  0  0  0
  180.8380  179.8640  139.8660 N   0  0  0  0  0  0  0  0  0  0  0  0
  182.8280  179.5120  138.6220 C   0  0  0  0  0  2  0  0  0  0  0  0
  182.8310  178.6600  139.8790 C   0  0  2  0  0  3  0  0  0  0  0  0
  181.6140  179.1270  140.5770 C   0  0  0  0  0  0  0  0  0  0  0  0
  181.4900  179.0300  141.9970 N   0  0  0  0  0  2  0  0  0  0  0  0
  187.5730  177.7920  143.3070 C   0  0  1  0  0  3  0  0  0  0  0  0
  183.8300  178.8840  144.8940 C   0  0  0  0  0  2  0  0  0  0  0  0
  188.6510  177.9950  147.7270 C   0  0  0  0  0  2  0  0  0  0  0  0
  189.2550  177.6750  145.4780 C   0  0  0  0  0  2  0  0  0  0  0  0
  189.7680  178.0570  146.7890 N   0  0  0  0  0  0  0  0  0  0  0  0
  187.4490  177.3900  147.0330 C   0  0  0  0  0  2  0  0  0  0  0  0
  187.9350  176.9580  145.6760 C   0  0  1  0  0  3  0  0  0  0  0  0
  191.8790  177.4660  148.3090 O   0  0  0  0  0  0  0  0  0  0  0  0
  190.2530  175.6830  147.8700 O   0  0  0  0  0  0  0  0  0  0  0  0
  190.9500  176.8800  147.2820 S   0  0  0  0  0  0  0  0  0  0  0  0
  191.8880  176.3640  145.8610 C   0  0  0  0  0  2  0  0  0  0  0  0
  192.3670  175.0050  146.0510 N   0  0  0  0  0  1  0  0  0  0  0  0
  181.3240  181.4540  138.0890 C   0  0  0  0  0  2  0  0  0  0  0  0
  180.7350  181.5760  136.6910 C   0  0  0  0  0  2  0  0  0  0  0  0
  179.5630  182.3320  136.7380 O   0  0  0  0  0  1  0  0  0  0  0  0
  188.6640  178.5770  139.2420 C   0  0  0  0  0  2  0  0  0  0  0  0
  189.0840  177.4000  138.3700 C   0  0  0  0  0  2  0  0  0  0  0  0
  188.8980  177.7020  136.8890 C   0  0  1  0  0  3  0  0  0  0  0  0
  189.6920  176.8430  136.1260 O   0  0  0  0  0  1  0  0  0  0  0  0
  185.3060  176.2370  136.8740 C   0  0  0  0  0  0  0  0  0  0  0  0
  186.6830  176.5260  137.1430 N   0  0  0  0  0  2  0  0  0  0  0  0
  184.6470  176.9460  136.0690 O   0  0  0  0  0  0  0  0  0  0  0  0
  186.9300  178.3390  135.6840 O   0  0  0  0  0  0  0  0  0  0  0  0
  187.4550  177.5600  136.5250 C   0  0  0  0  0  0  0  0  0  0  0  0
  184.6850  175.1530  137.4830 O   0  0  0  0  0  0  0  0  0  0  0  0
  184.1580  174.0730  136.7250 C   0  0  0  0  0  2  0  0  0  0  0  0
  184.5570  172.7550  137.3580 C   0  0  0  0  0  2  0  0  0  0  0  0
  185.7200  172.9250  138.1090 O   0  0  0  0  0  1  0  0  0  0  0  0
  1 13  2  0  0  0  0
  2 14  1  0  0  0  0
  3 12  1  1  0  0  0
  3 26  1  0  0  0  0
  4  2  2  0  0  0  0
  5 21  1  0  0  0  0
  7 32  1  1  0  0  0
  7 16  1  0  0  0  0
  7 15  1  0  0  0  0
  8 21  1  1  0  0  0
  8 12  1  0  0  0  0
  9  2  1  6  0  0  0
  9  8  1  0  0  0  0
 10  1  1  0  0  0  0
 10 11  2  0  0  0  0
 11  6  1  0  0  0  0
 13  9  1  0  0  0  0
 13 20  1  0  0  0  0
 14  5  2  0  0  0  0
 15 18  2  0  0  0  0
 17 16  1  6  0  0  0
 17 18  1  0  0  0  0
 17  4  1  0  0  0  0
 18 19  1  0  0  0  0
 19 14  1  0  0  0  0
 20  6  1  6  0  0  0
 20  3  1  0  0  0  0
 23 24  1  0  0  0  0
 24 29  1  0  0  0  0
 24 22  1  0  0  0  0
 25 22  1  0  0  0  0
 26 23  1  6  0  0  0
 26 25  1  0  0  0  0
 29 28  2  0  0  0  0
 29 27  2  0  0  0  0
 30 31  1  0  0  0  0
 30 29  1  0  0  0  0
 33 34  1  0  0  0  0
 33 32  1  0  0  0  0
 35 10  1  0  0  0  0
 36 35  1  0  0  0  0
 37 38  1  6  0  0  0
 37 36  1  0  0  0  0
 39 40  1  0  0  0  0
 39 44  1  0  0  0  0
 41 39  2  0  0  0  0
 42 43  2  0  0  0  0
 43 37  1  0  0  0  0
 43 40  1  0  0  0  0
 45 46  1  0  0  0  0
 45 44  1  0  0  0  0
 46 47  1  0  0  0  0
M  END
>  <MODEL>
2

>  <REMARK>
 VINA RESULT:      -8.9      2.526      4.053
  Name = 
  12 active torsions:
  status: ('A' for Active; 'I' for Inactive)
    1  A    between atoms: C_1  and  O_14
    2  A    between atoms: C_4  and  C_28
    3  A    between atoms: C_4  and  C_35
    4  A    between atoms: C_6  and  C_39
    5  A    between atoms: C_8  and  C_30
    6  A    between atoms: C_12  and  C_16
    7  A    between atoms: O_14  and  C_30
    8  A    between atoms: C_16  and  C_19
    9  A    between atoms: C_23  and  C_33
   10  A    between atoms: C_28  and  C_33
   11  A    between atoms: N_31  and  S_32
   12  A    between atoms: S_32  and  C_43
                            x       y       z     vdW  Elec       q    Type
                         _______ _______ _______ _____ _____    ______ ____

>  <TORSDO>
F 12

$$$$
=
 OpenBabel10222420243D

 47 52  0  0  1  0  0  0  0  0999 V2000
  189.9580  176.8380  140.0170 C   0  0  0  0  0  3  0  0  0  0  0  0
  188.3470  176.7870  137.4100 C   0  0  0  0  0  0  0  0  0  0  0  0
  192.4680  176.3820  137.2920 C   0  0  1  0  0  3  0  0  0  0  0  0
  187.6440  177.3920  138.3860 C   0  0  0  0  0  3  0  0  0  0  0  0
  188.4580  176.1340  135.0870 N   0  0  0  0  0  0  0  0  0  0  0  0
  192.6740  177.5510  139.5510 C   0  0  0  0  0  2  0  0  0  0  0  0
  184.0330  177.9460  138.3460 C   0  0  2  0  0  3  0  0  0  0  0  0
  190.4670  176.1630  136.4080 N   0  0  1  0  0  0  0  0  0  0  0  0
  189.6640  176.0640  137.6450 C   0  0  1  0  0  3  0  0  0  0  0  0
  190.8040  177.2830  141.1440 C   0  0  0  0  0  0  0  0  0  0  0  0
  192.0910  177.5930  140.9380 C   0  0  0  0  0  3  0  0  0  0  0  0
  191.6400  175.4930  136.5830 O   0  0  0  0  0  0  0  0  0  0  0  0
  190.5010  176.5320  138.8300 C   0  0  0  0  0  0  0  0  0  0  0  0
  187.7820  176.7070  136.0360 C   0  0  0  0  0  0  0  0  0  0  0  0
  184.4470  177.5490  137.0130 N   0  0  0  0  0  0  0  0  0  0  0  0
  185.3280  178.0360  139.1620 C   0  0  0  0  0  2  0  0  0  0  0  0
  186.4030  178.1910  138.1010 C   0  0  2  0  0  3  0  0  0  0  0  0
  185.7160  177.7050  136.8850 C   0  0  0  0  0  0  0  0  0  0  0  0
  186.4490  177.1590  135.7880 N   0  0  0  0  0  2  0  0  0  0  0  0
  192.0120  176.4250  138.7500 C   0  0  1  0  0  3  0  0  0  0  0  0
  189.7480  175.4860  135.3280 C   0  0  0  0  0  2  0  0  0  0  0  0
  195.1720  174.5170  135.7020 C   0  0  0  0  0  2  0  0  0  0  0  0
  194.2510  174.6730  137.8590 C   0  0  0  0  0  2  0  0  0  0  0  0
  195.2090  173.9370  137.0410 N   0  0  0  0  0  0  0  0  0  0  0  0
  194.3060  175.7580  135.7190 C   0  0  0  0  0  2  0  0  0  0  0  0
  193.9390  175.9820  137.1610 C   0  0  1  0  0  3  0  0  0  0  0  0
  197.6620  172.9810  137.4660 O   0  0  0  0  0  0  0  0  0  0  0  0
  197.4330  175.3830  137.0270 O   0  0  0  0  0  0  0  0  0  0  0  0
  196.8010  174.1920  137.6940 S   0  0  0  0  0  0  0  0  0  0  0  0
  196.6730  174.5070  139.4400 C   0  0  0  0  0  2  0  0  0  0  0  0
  197.7360  175.4040  139.8610 N   0  0  0  0  0  1  0  0  0  0  0  0
  183.0980  176.8980  138.9310 C   0  0  0  0  0  2  0  0  0  0  0  0
  182.1070  177.5380  139.8920 C   0  0  0  0  0  2  0  0  0  0  0  0
  181.9210  178.8790  139.5520 O   0  0  0  0  0  1  0  0  0  0  0  0
  190.2020  177.4080  142.5050 C   0  0  0  0  0  2  0  0  0  0  0  0
  188.7770  177.9420  142.4320 C   0  0  0  0  0  2  0  0  0  0  0  0
  187.7990  177.0360  143.1690 C   0  0  1  0  0  3  0  0  0  0  0  0
  188.1920  175.7030  143.0350 O   0  0  0  0  0  1  0  0  0  0  0  0
  188.9310  177.4210  146.8590 C   0  0  0  0  0  0  0  0  0  0  0  0
  188.8530  177.1420  145.4570 N   0  0  0  0  0  2  0  0  0  0  0  0
  187.9910  178.0140  147.4500 O   0  0  0  0  0  0  0  0  0  0  0  0
  186.7140  178.0110  145.0680 O   0  0  0  0  0  0  0  0  0  0  0  0
  187.7360  177.4330  144.6090 C   0  0  0  0  0  0  0  0  0  0  0  0
  190.0420  177.0190  147.5940 O   0  0  0  0  0  0  0  0  0  0  0  0
  191.3080  176.8190  146.9800 C   0  0  0  0  0  2  0  0  0  0  0  0
  192.0030  175.6280  147.6080 C   0  0  0  0  0  2  0  0  0  0  0  0
  193.0220  176.0670  148.4510 O   0  0  0  0  0  1  0  0  0  0  0  0
  1 10  1  0  0  0  0
  2  4  2  0  0  0  0
  3 12  1  6  0  0  0
  3 20  1  0  0  0  0
  5 21  1  0  0  0  0
  5 14  2  0  0  0  0
  6 11  1  0  0  0  0
  7 32  1  1  0  0  0
  7 16  1  0  0  0  0
  8 21  1  6  0  0  0
  8 12  1  0  0  0  0
  8  9  1  0  0  0  0
  9  2  1  6  0  0  0
  9 13  1  0  0  0  0
 10 35  1  0  0  0  0
 11 10  2  0  0  0  0
 13  1  2  0  0  0  0
 14  2  1  0  0  0  0
 15  7  1  0  0  0  0
 17  4  1  1  0  0  0
 17 16  1  0  0  0  0
 18 15  2  0  0  0  0
 18 17  1  0  0  0  0
 19 14  1  0  0  0  0
 19 18  1  0  0  0  0
 20 13  1  0  0  0  0
 20  6  1  6  0  0  0
 22 25  1  0  0  0  0
 22 24  1  0  0  0  0
 24 29  1  0  0  0  0
 24 23  1  0  0  0  0
 26 25  1  6  0  0  0
 26  3  1  0  0  0  0
 26 23  1  0  0  0  0
 27 29  2  0  0  0  0
 28 29  2  0  0  0  0
 29 30  1  0  0  0  0
 30 31  1  0  0  0  0
 32 33  1  0  0  0  0
 34 33  1  0  0  0  0
 36 35  1  0  0  0  0
 36 37  1  0  0  0  0
 37 38  1  1  0  0  0
 37 43  1  0  0  0  0
 39 41  2  0  0  0  0
 39 44  1  0  0  0  0
 40 39  1  0  0  0  0
 43 42  2  0  0  0  0
 43 40  1  0  0  0  0
 45 44  1  0  0  0  0
 45 46  1  0  0  0  0
 46 47  1  0  0  0  0
M  END
>  <MODEL>
3

>  <REMARK>
 VINA RESULT:      -8.6      3.266      8.820
  Name = 
  12 active torsions:
  status: ('A' for Active; 'I' for Inactive)
    1  A    between atoms: C_1  and  O_14
    2  A    between atoms: C_4  and  C_28
    3  A    between atoms: C_4  and  C_35
    4  A    between atoms: C_6  and  C_39
    5  A    between atoms: C_8  and  C_30
    6  A    between atoms: C_12  and  C_16
    7  A    between atoms: O_14  and  C_30
    8  A    between atoms: C_16  and  C_19
    9  A    between atoms: C_23  and  C_33
   10  A    between atoms: C_28  and  C_33
   11  A    between atoms: N_31  and  S_32
   12  A    between atoms: S_32  and  C_43
                            x       y       z     vdW  Elec       q    Type
                         _______ _______ _______ _____ _____    ______ ____

>  <TORSDO>
F 12

$$$$
=
 OpenBabel10222420243D

 47 52  0  0  1  0  0  0  0  0999 V2000
  189.0590  178.2300  141.1460 C   0  0  0  0  0  3  0  0  0  0  0  0
  188.8850  177.2870  138.2360 C   0  0  0  0  0  0  0  0  0  0  0  0
  185.4350  178.3660  140.2600 C   0  0  1  0  0  3  0  0  0  0  0  0
  190.0270  176.8550  138.8030 C   0  0  0  0  0  3  0  0  0  0  0  0
  187.4550  177.2950  136.2880 N   0  0  0  0  0  0  0  0  0  0  0  0
  186.5740  177.9090  142.4980 C   0  0  0  0  0  2  0  0  0  0  0  0
  192.9690  175.6820  136.9820 C   0  0  2  0  0  3  0  0  0  0  0  0
  186.5660  177.9810  138.4150 N   0  0  1  0  0  0  0  0  0  0  0  0
  187.9320  178.2680  138.9010 C   0  0  1  0  0  3  0  0  0  0  0  0
  189.0170  178.2640  142.6230 C   0  0  0  0  0  0  0  0  0  0  0  0
  187.8480  178.1430  143.2660 C   0  0  0  0  0  3  0  0  0  0  0  0
  185.6970  178.8690  138.9730 O   0  0  0  0  0  0  0  0  0  0  0  0
  187.9310  178.2940  140.4260 C   0  0  0  0  0  0  0  0  0  0  0  0
  188.5590  176.8900  136.8390 C   0  0  0  0  0  0  0  0  0  0  0  0
  191.8610  175.7690  136.0480 N   0  0  0  0  0  0  0  0  0  0  0  0
  192.3760  176.0470  138.3480 C   0  0  0  0  0  2  0  0  0  0  0  0
  190.8890  175.8020  138.1640 C   0  0  2  0  0  3  0  0  0  0  0  0
  190.7490  175.8110  136.6920 C   0  0  0  0  0  0  0  0  0  0  0  0
  189.5140  176.1600  136.0660 N   0  0  0  0  0  2  0  0  0  0  0  0
  186.6460  178.6400  141.1530 C   0  0  1  0  0  3  0  0  0  0  0  0
  186.5290  178.2010  136.9690 C   0  0  0  0  0  2  0  0  0  0  0  0
  182.8650  178.6240  142.8380 C   0  0  0  0  0  2  0  0  0  0  0  0
  182.9290  178.1200  140.5430 C   0  0  0  0  0  2  0  0  0  0  0  0
  182.0590  178.1590  141.7130 N   0  0  0  0  0  0  0  0  0  0  0  0
  184.2240  179.0580  142.3320 C   0  0  0  0  0  2  0  0  0  0  0  0
  184.1510  178.9690  140.8320 C   0  0  1  0  0  3  0  0  0  0  0  0
  180.6820  180.2630  142.6020 O   0  0  0  0  0  0  0  0  0  0  0  0
  181.1320  180.1280  140.1950 O   0  0  0  0  0  0  0  0  0  0  0  0
  180.8060  179.3310  141.4290 S   0  0  0  0  0  0  0  0  0  0  0  0
  179.2600  178.4850  141.1800 C   0  0  0  0  0  2  0  0  0  0  0  0
  179.3210  177.1590  141.7720 N   0  0  0  0  0  1  0  0  0  0  0  0
  194.0590  176.6670  136.5860 C   0  0  0  0  0  2  0  0  0  0  0  0
  194.9990  176.0470  135.5640 C   0  0  0  0  0  2  0  0  0  0  0  0
  196.2800  176.5800  135.7180 O   0  0  0  0  0  1  0  0  0  0  0  0
  190.2910  178.4080  143.3880 C   0  0  0  0  0  2  0  0  0  0  0  0
  191.2080  177.2130  143.1640 C   0  0  0  0  0  2  0  0  0  0  0  0
  190.9750  176.1230  144.2030 C   0  0  1  0  0  3  0  0  0  0  0  0
  192.0560  175.2380  144.2130 O   0  0  0  0  0  1  0  0  0  0  0  0
  189.1020  177.5380  147.2910 C   0  0  0  0  0  0  0  0  0  0  0  0
  189.4520  176.9250  146.0450 N   0  0  0  0  0  2  0  0  0  0  0  0
  189.9940  177.9320  148.0870 O   0  0  0  0  0  0  0  0  0  0  0  0
  191.7780  177.1080  146.2320 O   0  0  0  0  0  0  0  0  0  0  0  0
  190.7830  176.7460  145.5490 C   0  0  0  0  0  0  0  0  0  0  0  0
  187.7650  177.7260  147.6290 O   0  0  0  0  0  0  0  0  0  0  0  0
  186.7370  177.6920  146.6490 C   0  0  0  0  0  2  0  0  0  0  0  0
  185.8840  178.9400  146.7530 C   0  0  0  0  0  2  0  0  0  0  0  0
  184.5580  178.6320  146.4520 O   0  0  0  0  0  1  0  0  0  0  0  0
  1 10  1  0  0  0  0
  2  4  2  0  0  0  0
  3 12  1  6  0  0  0
  3 26  1  0  0  0  0
  3 20  1  0  0  0  0
  5 14  2  0  0  0  0
  5 21  1  0  0  0  0
  6 11  1  0  0  0  0
  7 32  1  6  0  0  0
  7 16  1  0  0  0  0
  8 21  1  6  0  0  0
  8  9  1  0  0  0  0
  8 12  1  0  0  0  0
  9  2  1  1  0  0  0
  9 13  1  0  0  0  0
 10 11  2  0  0  0  0
 10 35  1  0  0  0  0
 13  1  2  0  0  0  0
 13 20  1  0  0  0  0
 14  2  1  0  0  0  0
 15 18  2  0  0  0  0
 15  7  1  0  0  0  0
 17 16  1  6  0  0  0
 17  4  1  0  0  0  0
 18 17  1  0  0  0  0
 19 18  1  0  0  0  0
 19 14  1  0  0  0  0
 20  6  1  1  0  0  0
 23 24  1  0  0  0  0
 24 22  1  0  0  0  0
 25 22  1  0  0  0  0
 26 23  1  1  0  0  0
 26 25  1  0  0  0  0
 28 29  2  0  0  0  0
 29 24  1  0  0  0  0
 29 27  2  0  0  0  0
 30 29  1  0  0  0  0
 30 31  1  0  0  0  0
 33 34  1  0  0  0  0
 33 32  1  0  0  0  0
 36 35  1  0  0  0  0
 36 37  1  0  0  0  0
 37 38  1  1  0  0  0
 37 43  1  0  0  0  0
 39 44  1  0  0  0  0
 39 41  2  0  0  0  0
 40 39  1  0  0  0  0
 43 40  1  0  0  0  0
 43 42  2  0  0  0  0
 45 46  1  0  0  0  0
 45 44  1  0  0  0  0
 47 46  1  0  0  0  0
M  END
>  <MODEL>
4

>  <REMARK>
 VINA RESULT:      -8.6      2.967      9.852
  Name = 
  12 active torsions:
  status: ('A' for Active; 'I' for Inactive)
    1  A    between atoms: C_1  and  O_14
    2  A    between atoms: C_4  and  C_28
    3  A    between atoms: C_4  and  C_35
    4  A    between atoms: C_6  and  C_39
    5  A    between atoms: C_8  and  C_30
    6  A    between atoms: C_12  and  C_16
    7  A    between atoms: O_14  and  C_30
    8  A    between atoms: C_16  and  C_19
    9  A    between atoms: C_23  and  C_33
   10  A    between atoms: C_28  and  C_33
   11  A    between atoms: N_31  and  S_32
   12  A    between atoms: S_32  and  C_43
                            x       y       z     vdW  Elec       q    Type
                         _______ _______ _______ _____ _____    ______ ____

>  <TORSDO>
F 12

$$$$
=
 OpenBabel10222420243D

 47 52  0  0  1  0  0  0  0  0999 V2000
  189.8670  176.7990  139.8760 C   0  0  0  0  0  3  0  0  0  0  0  0
  188.3650  176.7190  137.2060 C   0  0  0  0  0  0  0  0  0  0  0  0
  192.4930  176.3750  137.2570 C   0  0  1  0  0  3  0  0  0  0  0  0
  187.6140  177.3150  138.1510 C   0  0  0  0  0  3  0  0  0  0  0  0
  188.5810  176.0640  134.8910 N   0  0  0  0  0  0  0  0  0  0  0  0
  192.5890  177.5500  139.5200 C   0  0  0  0  0  2  0  0  0  0  0  0
  184.0000  177.8150  137.9610 C   0  0  2  0  0  3  0  0  0  0  0  0
  190.5340  176.1240  136.2930 N   0  0  1  0  0  0  0  0  0  0  0  0
  189.6820  176.0160  137.4960 C   0  0  1  0  0  3  0  0  0  0  0  0
  190.6590  177.2580  141.0350 C   0  0  0  0  0  0  0  0  0  0  0  0
  191.9490  177.5860  140.8820 C   0  0  0  0  0  3  0  0  0  0  0  0
  191.7080  175.4720  136.5170 O   0  0  0  0  0  0  0  0  0  0  0  0
  190.4620  176.4980  138.7130 C   0  0  0  0  0  0  0  0  0  0  0  0
  187.8580  176.6280  135.8100 C   0  0  0  0  0  0  0  0  0  0  0  0
  184.4740  177.4220  136.6470 N   0  0  0  0  0  0  0  0  0  0  0  0
  185.2590  177.9260  138.8290 C   0  0  0  0  0  2  0  0  0  0  0  0
  186.3740  178.0950  137.8130 C   0  0  2  0  0  3  0  0  0  0  0  0
  185.7450  177.5970  136.5710 C   0  0  0  0  0  0  0  0  0  0  0  0
  186.5300  177.0590  135.5060 N   0  0  0  0  0  2  0  0  0  0  0  0
  191.9770  176.4140  138.6960 C   0  0  1  0  0  3  0  0  0  0  0  0
  189.8700  175.4350  135.1860 C   0  0  0  0  0  2  0  0  0  0  0  0
  195.3240  174.7150  135.6620 C   0  0  0  0  0  2  0  0  0  0  0  0
  194.2500  174.6170  137.7500 C   0  0  0  0  0  2  0  0  0  0  0  0
  195.2720  173.9830  136.9240 N   0  0  0  0  0  0  0  0  0  0  0  0
  194.4460  175.9430  135.7600 C   0  0  0  0  0  2  0  0  0  0  0  0
  193.9740  175.9970  137.1880 C   0  0  1  0  0  3  0  0  0  0  0  0
  197.6350  172.9190  137.5510 O   0  0  0  0  0  0  0  0  0  0  0  0
  197.5490  175.3310  137.1180 O   0  0  0  0  0  0  0  0  0  0  0  0
  196.8100  174.1650  137.7150 S   0  0  0  0  0  0  0  0  0  0  0  0
  196.5430  174.4740  139.4470 C   0  0  0  0  0  2  0  0  0  0  0  0
  197.5650  175.3760  139.9520 N   0  0  0  0  0  1  0  0  0  0  0  0
  183.0570  176.7540  138.5100 C   0  0  0  0  0  2  0  0  0  0  0  0
  182.5600  175.8470  137.3950 C   0  0  0  0  0  2  0  0  0  0  0  0
  181.5640  175.0010  137.8840 O   0  0  0  0  0  1  0  0  0  0  0  0
  190.0010  177.3770  142.3700 C   0  0  0  0  0  2  0  0  0  0  0  0
  190.7520  176.5810  143.4300 C   0  0  0  0  0  2  0  0  0  0  0  0
  191.2580  177.4780  144.5530 C   0  0  1  0  0  3  0  0  0  0  0  0
  191.1750  178.8170  144.1660 O   0  0  0  0  0  1  0  0  0  0  0  0
  188.2480  177.6170  146.9960 C   0  0  0  0  0  0  0  0  0  0  0  0
  189.1240  177.7380  145.8690 N   0  0  0  0  0  2  0  0  0  0  0  0
  188.6040  176.9800  148.0210 O   0  0  0  0  0  0  0  0  0  0  0  0
  190.9570  176.5820  146.7530 O   0  0  0  0  0  0  0  0  0  0  0  0
  190.4590  177.2290  145.7920 C   0  0  0  0  0  0  0  0  0  0  0  0
  186.9960  178.2230  146.9790 O   0  0  0  0  0  0  0  0  0  0  0  0
  186.0030  177.8560  146.0320 C   0  0  0  0  0  2  0  0  0  0  0  0
  185.2640  179.0900  145.5540 C   0  0  0  0  0  2  0  0  0  0  0  0
  183.9120  178.9840  145.8750 O   0  0  0  0  0  1  0  0  0  0  0  0
  1 10  1  0  0  0  0
  2  4  2  0  0  0  0
  3 12  1  6  0  0  0
  3 20  1  0  0  0  0
  5 21  1  0  0  0  0
  5 14  2  0  0  0  0
  6 11  1  0  0  0  0
  7 32  1  1  0  0  0
  7 16  1  0  0  0  0
  8 21  1  6  0  0  0
  8 12  1  0  0  0  0
  8  9  1  0  0  0  0
  9  2  1  6  0  0  0
  9 13  1  0  0  0  0
 10 35  1  0  0  0  0
 11 10  2  0  0  0  0
 13  1  2  0  0  0  0
 14  2  1  0  0  0  0
 15  7  1  0  0  0  0
 17  4  1  1  0  0  0
 17 16  1  0  0  0  0
 18 15  2  0  0  0  0
 18 17  1  0  0  0  0
 19 14  1  0  0  0  0
 19 18  1  0  0  0  0
 20 13  1  0  0  0  0
 20  6  1  6  0  0  0
 22 25  1  0  0  0  0
 22 24  1  0  0  0  0
 24 29  1  0  0  0  0
 24 23  1  0  0  0  0
 26 25  1  6  0  0  0
 26  3  1  0  0  0  0
 26 23  1  0  0  0  0
 27 29  2  0  0  0  0
 28 29  2  0  0  0  0
 29 30  1  0  0  0  0
 30 31  1  0  0  0  0
 33 34  1  0  0  0  0
 33 32  1  0  0  0  0
 35 36  1  0  0  0  0
 36 37  1  0  0  0  0
 37 38  1  6  0  0  0
 37 43  1  0  0  0  0
 39 41  2  0  0  0  0
 40 39  1  0  0  0  0
 43 40  1  0  0  0  0
 43 42  2  0  0  0  0
 44 39  1  0  0  0  0
 45 44  1  0  0  0  0
 46 47  1  0  0  0  0
 46 45  1  0  0  0  0
M  END
>  <MODEL>
5

>  <REMARK>
 VINA RESULT:      -8.5      3.535      9.324
  Name = 
  12 active torsions:
  status: ('A' for Active; 'I' for Inactive)
    1  A    between atoms: C_1  and  O_14
    2  A    between atoms: C_4  and  C_28
    3  A    between atoms: C_4  and  C_35
    4  A    between atoms: C_6  and  C_39
    5  A    between atoms: C_8  and  C_30
    6  A    between atoms: C_12  and  C_16
    7  A    between atoms: O_14  and  C_30
    8  A    between atoms: C_16  and  C_19
    9  A    between atoms: C_23  and  C_33
   10  A    between atoms: C_28  and  C_33
   11  A    between atoms: N_31  and  S_32
   12  A    between atoms: S_32  and  C_43
                            x       y       z     vdW  Elec       q    Type
                         _______ _______ _______ _____ _____    ______ ____

>  <TORSDO>
F 12

$$$$
=
 OpenBabel10222420243D

 47 52  0  0  1  0  0  0  0  0999 V2000
  186.9810  178.5980  141.2670 C   0  0  0  0  0  3  0  0  0  0  0  0
  184.0990  178.8640  142.2760 C   0  0  0  0  0  0  0  0  0  0  0  0
  187.0100  177.2680  144.7550 C   0  0  1  0  0  3  0  0  0  0  0  0
  184.1290  178.8690  140.9300 C   0  0  0  0  0  3  0  0  0  0  0  0
  182.7540  178.9030  144.2820 N   0  0  0  0  0  0  0  0  0  0  0  0
  188.4200  176.6240  142.7290 C   0  0  0  0  0  2  0  0  0  0  0  0
  181.4370  180.0650  138.7680 C   0  0  2  0  0  3  0  0  0  0  0  0
  185.0540  178.2100  144.4090 N   0  0  1  0  0  0  0  0  0  0  0  0
  185.3450  178.9210  143.1460 C   0  0  1  0  0  3  0  0  0  0  0  0
  188.2380  178.0490  140.7180 C   0  0  0  0  0  0  0  0  0  0  0  0
  188.9370  177.1410  141.4120 C   0  0  0  0  0  3  0  0  0  0  0  0
  186.1460  178.2770  145.2210 O   0  0  0  0  0  0  0  0  0  0  0  0
  186.6300  178.3680  142.5400 C   0  0  0  0  0  0  0  0  0  0  0  0
  182.7920  178.9170  142.9850 C   0  0  0  0  0  0  0  0  0  0  0  0
  180.9170  179.9430  140.1180 N   0  0  0  0  0  0  0  0  0  0  0  0
  182.8800  179.5500  138.8430 C   0  0  0  0  0  2  0  0  0  0  0  0
  182.8860  178.7000  140.1010 C   0  0  2  0  0  3  0  0  0  0  0  0
  181.6900  179.1920  140.8180 C   0  0  0  0  0  0  0  0  0  0  0  0
  181.5860  179.0990  142.2390 N   0  0  0  0  0  2  0  0  0  0  0  0
  187.6630  177.7400  143.4560 C   0  0  1  0  0  3  0  0  0  0  0  0
  183.9690  178.9090  145.0990 C   0  0  0  0  0  2  0  0  0  0  0  0
  188.9750  178.0240  147.7350 C   0  0  0  0  0  2  0  0  0  0  0  0
  189.4240  177.4440  145.5030 C   0  0  0  0  0  2  0  0  0  0  0  0
  190.0430  177.8770  146.7510 N   0  0  0  0  0  0  0  0  0  0  0  0
  187.6800  177.5030  147.1500 C   0  0  0  0  0  2  0  0  0  0  0  0
  188.0450  176.9010  145.8190 C   0  0  1  0  0  3  0  0  0  0  0  0
  190.3270  175.4080  147.7190 O   0  0  0  0  0  0  0  0  0  0  0  0
  192.0560  176.2420  146.1920 O   0  0  0  0  0  0  0  0  0  0  0  0
  191.1120  176.6210  147.3010 S   0  0  0  0  0  0  0  0  0  0  0  0
  192.0550  177.2200  148.6850 C   0  0  0  0  0  2  0  0  0  0  0  0
  193.2200  176.3760  148.8940 N   0  0  0  0  0  1  0  0  0  0  0  0
  181.4070  181.5220  138.3310 C   0  0  0  0  0  2  0  0  0  0  0  0
  180.0340  182.1280  138.5760 C   0  0  0  0  0  2  0  0  0  0  0  0
  179.8450  183.2240  137.7320 O   0  0  0  0  0  1  0  0  0  0  0  0
  188.7050  178.4970  139.3720 C   0  0  0  0  0  2  0  0  0  0  0  0
  190.0560  177.8840  139.0240 C   0  0  0  0  0  2  0  0  0  0  0  0
  189.9470  176.9120  137.8560 C   0  0  1  0  0  3  0  0  0  0  0  0
  189.9970  175.5980  138.3250 O   0  0  0  0  0  1  0  0  0  0  0  0
  186.2420  176.4900  136.7890 C   0  0  0  0  0  0  0  0  0  0  0  0
  187.5160  176.3950  137.4360 N   0  0  0  0  0  2  0  0  0  0  0  0
  186.0450  177.3370  135.8790 O   0  0  0  0  0  0  0  0  0  0  0  0
  188.6330  178.0420  136.2040 O   0  0  0  0  0  0  0  0  0  0  0  0
  188.6770  177.1650  137.1090 C   0  0  0  0  0  0  0  0  0  0  0  0
  185.2080  175.6300  137.1460 O   0  0  0  0  0  0  0  0  0  0  0  0
  185.4000  174.2240  137.2170 C   0  0  0  0  0  2  0  0  0  0  0  0
  184.0710  173.5140  137.0610 C   0  0  0  0  0  2  0  0  0  0  0  0
  184.1800  172.2020  137.5210 O   0  0  0  0  0  1  0  0  0  0  0  0
  1 13  2  0  0  0  0
  2 14  1  0  0  0  0
  3 12  1  1  0  0  0
  3 26  1  0  0  0  0
  4  2  2  0  0  0  0
  5 21  1  0  0  0  0
  7 32  1  1  0  0  0
  7 16  1  0  0  0  0
  7 15  1  0  0  0  0
  8 21  1  1  0  0  0
  8 12  1  0  0  0  0
  9  2  1  6  0  0  0
  9  8  1  0  0  0  0
 10  1  1  0  0  0  0
 10 11  2  0  0  0  0
 11  6  1  0  0  0  0
 13  9  1  0  0  0  0
 13 20  1  0  0  0  0
 14  5  2  0  0  0  0
 15 18  2  0  0  0  0
 17 16  1  6  0  0  0
 17 18  1  0  0  0  0
 17  4  1  0  0  0  0
 18 19  1  0  0  0  0
 19 14  1  0  0  0  0
 20  6  1  6  0  0  0
 20  3  1  0  0  0  0
 23 24  1  0  0  0  0
 24 29  1  0  0  0  0
 24 22  1  0  0  0  0
 25 22  1  0  0  0  0
 26 23  1  6  0  0  0
 26 25  1  0  0  0  0
 28 29  2  0  0  0  0
 29 27  2  0  0  0  0
 29 30  1  0  0  0  0
 30 31  1  0  0  0  0
 32 33  1  0  0  0  0
 34 33  1  0  0  0  0
 35 10  1  0  0  0  0
 36 35  1  0  0  0  0
 37 38  1  1  0  0  0
 37 36  1  0  0  0  0
 39 44  1  0  0  0  0
 39 40  1  0  0  0  0
 41 39  2  0  0  0  0
 42 43  2  0  0  0  0
 43 40  1  0  0  0  0
 43 37  1  0  0  0  0
 44 45  1  0  0  0  0
 46 45  1  0  0  0  0
 46 47  1  0  0  0  0
M  END
>  <MODEL>
6

>  <REMARK>
 VINA RESULT:      -8.4      2.338      4.024
  Name = 
  12 active torsions:
  status: ('A' for Active; 'I' for Inactive)
    1  A    between atoms: C_1  and  O_14
    2  A    between atoms: C_4  and  C_28
    3  A    between atoms: C_4  and  C_35
    4  A    between atoms: C_6  and  C_39
    5  A    between atoms: C_8  and  C_30
    6  A    between atoms: C_12  and  C_16
    7  A    between atoms: O_14  and  C_30
    8  A    between atoms: C_16  and  C_19
    9  A    between atoms: C_23  and  C_33
   10  A    between atoms: C_28  and  C_33
   11  A    between atoms: N_31  and  S_32
   12  A    between atoms: S_32  and  C_43
                            x       y       z     vdW  Elec       q    Type
                         _______ _______ _______ _____ _____    ______ ____

>  <TORSDO>
F 12

$$$$
=
 OpenBabel10222420243D

 47 52  0  0  1  0  0  0  0  0999 V2000
  187.6510  177.9180  139.7440 C   0  0  0  0  0  3  0  0  0  0  0  0
  189.0200  177.3040  142.4160 C   0  0  0  0  0  0  0  0  0  0  0  0
  190.9530  176.4160  138.8610 C   0  0  1  0  0  3  0  0  0  0  0  0
  187.6880  177.4070  142.5820 C   0  0  0  0  0  3  0  0  0  0  0  0
  191.1660  176.8320  143.4200 N   0  0  0  0  0  0  0  0  0  0  0  0
  188.7160  176.3280  137.6360 C   0  0  0  0  0  2  0  0  0  0  0  0
  186.0010  177.9510  145.7770 C   0  0  2  0  0  3  0  0  0  0  0  0
  190.9440  176.7990  141.0250 N   0  0  1  0  0  0  0  0  0  0  0  0
  189.7360  177.6460  141.1190 C   0  0  1  0  0  3  0  0  0  0  0  0
  186.9010  177.7780  138.4780 C   0  0  0  0  0  0  0  0  0  0  0  0
  187.4080  177.0550  137.4700 C   0  0  0  0  0  3  0  0  0  0  0  0
  191.6210  177.1110  139.8860 O   0  0  0  0  0  0  0  0  0  0  0  0
  188.9260  177.5140  139.8340 C   0  0  0  0  0  0  0  0  0  0  0  0
  189.8820  176.9430  143.5740 C   0  0  0  0  0  0  0  0  0  0  0  0
  187.3830  177.5990  146.0460 N   0  0  0  0  0  0  0  0  0  0  0  0
  185.8490  177.8540  144.2540 C   0  0  0  0  0  2  0  0  0  0  0  0
  187.0010  176.9560  143.8410 C   0  0  2  0  0  3  0  0  0  0  0  0
  187.9030  177.0470  145.0090 C   0  0  0  0  0  0  0  0  0  0  0  0
  189.3090  176.8330  144.8790 N   0  0  0  0  0  2  0  0  0  0  0  0
  189.6410  177.1380  138.5500 C   0  0  1  0  0  3  0  0  0  0  0  0
  191.8280  177.1200  142.1460 C   0  0  0  0  0  2  0  0  0  0  0  0
  193.2080  174.5250  136.7030 C   0  0  0  0  0  2  0  0  0  0  0  0
  193.3050  176.5300  137.9250 C   0  0  0  0  0  2  0  0  0  0  0  0
  194.1010  175.5960  137.1360 N   0  0  0  0  0  0  0  0  0  0  0  0
  191.7850  174.8800  137.0750 C   0  0  0  0  0  2  0  0  0  0  0  0
  191.8420  176.2810  137.6230 C   0  0  1  0  0  3  0  0  0  0  0  0
  193.6760  176.3070  134.6010 O   0  0  0  0  0  0  0  0  0  0  0  0
  194.8960  177.8760  136.0380 O   0  0  0  0  0  0  0  0  0  0  0  0
  194.6750  176.4230  135.7180 S   0  0  0  0  0  0  0  0  0  0  0  0
  196.2190  175.7020  135.2070 C   0  0  0  0  0  2  0  0  0  0  0  0
  197.3220  176.3570  135.8910 N   0  0  0  0  0  1  0  0  0  0  0  0
  185.7240  179.3690  146.2560 C   0  0  0  0  0  2  0  0  0  0  0  0
  186.7080  179.7690  147.3460 C   0  0  0  0  0  2  0  0  0  0  0  0
  186.0420  180.4860  148.3410 O   0  0  0  0  0  1  0  0  0  0  0  0
  185.5640  178.4290  138.3450 C   0  0  0  0  0  2  0  0  0  0  0  0
  184.7540  178.2950  139.6290 C   0  0  0  0  0  2  0  0  0  0  0  0
  183.7420  179.4240  139.7760 C   0  0  1  0  0  3  0  0  0  0  0  0
  184.1110  180.5010  138.9680 O   0  0  0  0  0  1  0  0  0  0  0  0
  180.8440  176.9000  139.2460 C   0  0  0  0  0  0  0  0  0  0  0  0
  182.0830  177.5360  139.5810 N   0  0  0  0  0  2  0  0  0  0  0  0
  179.8750  177.5730  138.8050 O   0  0  0  0  0  0  0  0  0  0  0  0
  181.5080  179.7200  138.9660 O   0  0  0  0  0  0  0  0  0  0  0  0
  182.3790  178.9260  139.4140 C   0  0  0  0  0  0  0  0  0  0  0  0
  180.7020  175.5230  139.3820 O   0  0  0  0  0  0  0  0  0  0  0  0
  180.1390  174.7260  138.3490 C   0  0  0  0  0  2  0  0  0  0  0  0
  181.0580  174.7170  137.1450 C   0  0  0  0  0  2  0  0  0  0  0  0
  182.3350  174.3110  137.5300 O   0  0  0  0  0  1  0  0  0  0  0  0
  1 13  2  0  0  0  0
  2  4  2  0  0  0  0
  2 14  1  0  0  0  0
  3 12  1  1  0  0  0
  5 14  2  0  0  0  0
  7 15  1  0  0  0  0
  7 32  1  6  0  0  0
  8  9  1  0  0  0  0
  8 21  1  1  0  0  0
  9 13  1  6  0  0  0
  9  2  1  0  0  0  0
 10  1  1  0  0  0  0
 11  6  1  0  0  0  0
 11 10  2  0  0  0  0
 12  8  1  0  0  0  0
 14 19  1  0  0  0  0
 16  7  1  0  0  0  0
 17  4  1  6  0  0  0
 17 16  1  0  0  0  0
 17 18  1  0  0  0  0
 18 15  2  0  0  0  0
 19 18  1  0  0  0  0
 20  6  1  6  0  0  0
 20  3  1  0  0  0  0
 20 13  1  0  0  0  0
 21  5  1  0  0  0  0
 22 25  1  0  0  0  0
 22 24  1  0  0  0  0
 24 23  1  0  0  0  0
 26 25  1  1  0  0  0
 26 23  1  0  0  0  0
 26  3  1  0  0  0  0
 27 29  2  0  0  0  0
 29 28  2  0  0  0  0
 29 24  1  0  0  0  0
 30 29  1  0  0  0  0
 30 31  1  0  0  0  0
 32 33  1  0  0  0  0
 33 34  1  0  0  0  0
 35 10  1  0  0  0  0
 35 36  1  0  0  0  0
 36 37  1  0  0  0  0
 37 38  1  6  0  0  0
 39 44  1  0  0  0  0
 39 40  1  0  0  0  0
 41 39  2  0  0  0  0
 42 43  2  0  0  0  0
 43 40  1  0  0  0  0
 43 37  1  0  0  0  0
 45 44  1  0  0  0  0
 46 47  1  0  0  0  0
 46 45  1  0  0  0  0
M  END
>  <MODEL>
7

>  <REMARK>
 VINA RESULT:      -8.2      3.544      9.655
  Name = 
  12 active torsions:
  status: ('A' for Active; 'I' for Inactive)
    1  A    between atoms: C_1  and  O_14
    2  A    between atoms: C_4  and  C_28
    3  A    between atoms: C_4  and  C_35
    4  A    between atoms: C_6  and  C_39
    5  A    between atoms: C_8  and  C_30
    6  A    between atoms: C_12  and  C_16
    7  A    between atoms: O_14  and  C_30
    8  A    between atoms: C_16  and  C_19
    9  A    between atoms: C_23  and  C_33
   10  A    between atoms: C_28  and  C_33
   11  A    between atoms: N_31  and  S_32
   12  A    between atoms: S_32  and  C_43
                            x       y       z     vdW  Elec       q    Type
                         _______ _______ _______ _____ _____    ______ ____

>  <TORSDO>
F 12

$$$$
=
 OpenBabel10222420243D

 47 52  0  0  1  0  0  0  0  0999 V2000
  190.1060  177.6590  140.2210 C   0  0  0  0  0  3  0  0  0  0  0  0
  190.3160  176.6160  137.3470 C   0  0  0  0  0  0  0  0  0  0  0  0
  186.7170  178.1340  138.7280 C   0  0  1  0  0  3  0  0  0  0  0  0
  191.2940  176.0920  138.1100 C   0  0  0  0  0  3  0  0  0  0  0  0
  189.2400  176.6890  135.1850 N   0  0  0  0  0  0  0  0  0  0  0  0
  187.4110  177.6570  141.1370 C   0  0  0  0  0  2  0  0  0  0  0  0
  194.3500  174.5420  136.8450 C   0  0  2  0  0  3  0  0  0  0  0  0
  188.0900  177.5550  137.1120 N   0  0  1  0  0  0  0  0  0  0  0  0
  189.3800  177.7180  137.8170 C   0  0  1  0  0  3  0  0  0  0  0  0
  189.8230  177.7600  141.6670 C   0  0  0  0  0  0  0  0  0  0  0  0
  188.5570  177.7890  142.1050 C   0  0  0  0  0  3  0  0  0  0  0  0
  187.2440  178.5520  137.4920 O   0  0  0  0  0  0  0  0  0  0  0  0
  189.1280  177.8090  139.3170 C   0  0  0  0  0  0  0  0  0  0  0  0
  190.1860  176.1960  135.9250 C   0  0  0  0  0  0  0  0  0  0  0  0
  193.4300  174.7040  135.7350 N   0  0  0  0  0  0  0  0  0  0  0  0
  193.5820  175.0250  138.0810 C   0  0  0  0  0  2  0  0  0  0  0  0
  192.1290  174.9290  137.6540 C   0  0  2  0  0  3  0  0  0  0  0  0
  192.2380  174.8890  136.1790 C   0  0  0  0  0  0  0  0  0  0  0  0
  191.1700  175.3380  135.3440 N   0  0  0  0  0  2  0  0  0  0  0  0
  187.7860  178.3190  139.8070 C   0  0  1  0  0  3  0  0  0  0  0  0
  188.3190  177.7160  135.6760 C   0  0  0  0  0  2  0  0  0  0  0  0
  183.6740  178.6190  140.6830 C   0  0  0  0  0  2  0  0  0  0  0  0
  184.2060  178.2670  138.4200 C   0  0  0  0  0  2  0  0  0  0  0  0
  183.0990  178.3640  139.3650 N   0  0  0  0  0  0  0  0  0  0  0  0
  185.1600  178.8670  140.5390 C   0  0  0  0  0  2  0  0  0  0  0  0
  185.4300  178.8920  139.0580 C   0  0  1  0  0  3  0  0  0  0  0  0
  182.9590  180.9810  138.8760 O   0  0  0  0  0  0  0  0  0  0  0  0
  181.4960  179.4990  137.5830 O   0  0  0  0  0  0  0  0  0  0  0  0
  182.1210  179.7340  138.9300 S   0  0  0  0  0  0  0  0  0  0  0  0
  180.8320  179.9400  140.1390 C   0  0  0  0  0  2  0  0  0  0  0  0
  180.1100  181.1760  139.8880 N   0  0  0  0  0  1  0  0  0  0  0  0
  195.5930  175.3900  136.6160 C   0  0  0  0  0  2  0  0  0  0  0  0
  196.8500  174.5410  136.7190 C   0  0  0  0  0  2  0  0  0  0  0  0
  197.9180  175.3300  137.1500 O   0  0  0  0  0  1  0  0  0  0  0  0
  190.9600  177.8040  142.6340 C   0  0  0  0  0  2  0  0  0  0  0  0
  190.5040  178.2930  144.0030 C   0  0  0  0  0  2  0  0  0  0  0  0
  190.6610  177.2140  145.0670 C   0  0  1  0  0  3  0  0  0  0  0  0
  191.9250  177.3050  145.6530 O   0  0  0  0  0  1  0  0  0  0  0  0
  187.1510  177.9760  146.5330 C   0  0  0  0  0  0  0  0  0  0  0  0
  188.2740  177.7550  145.6720 N   0  0  0  0  0  2  0  0  0  0  0  0
  187.2440  177.7800  147.7730 O   0  0  0  0  0  0  0  0  0  0  0  0
  189.8300  177.1450  147.3110 O   0  0  0  0  0  0  0  0  0  0  0  0
  189.5840  177.3620  146.0940 C   0  0  0  0  0  0  0  0  0  0  0  0
  185.9460  178.4330  146.0110 O   0  0  0  0  0  0  0  0  0  0  0  0
  185.6880  178.4230  144.6140 C   0  0  0  0  0  2  0  0  0  0  0  0
  184.2300  178.7440  144.3570 C   0  0  0  0  0  2  0  0  0  0  0  0
  183.6120  179.1210  145.5480 O   0  0  0  0  0  1  0  0  0  0  0  0
  1 10  1  0  0  0  0
  2  4  2  0  0  0  0
  3 12  1  6  0  0  0
  3 26  1  0  0  0  0
  3 20  1  0  0  0  0
  5 21  1  0  0  0  0
  5 14  2  0  0  0  0
  6 11  1  0  0  0  0
  7 32  1  6  0  0  0
  7 16  1  0  0  0  0
  8 21  1  6  0  0  0
  8 12  1  0  0  0  0
  8  9  1  0  0  0  0
  9  2  1  1  0  0  0
  9 13  1  0  0  0  0
 10 11  2  0  0  0  0
 10 35  1  0  0  0  0
 13 20  1  0  0  0  0
 13  1  2  0  0  0  0
 14  2  1  0  0  0  0
 15 18  2  0  0  0  0
 15  7  1  0  0  0  0
 17 16  1  1  0  0  0
 17  4  1  0  0  0  0
 18 17  1  0  0  0  0
 19 14  1  0  0  0  0
 19 18  1  0  0  0  0
 20  6  1  1  0  0  0
 23 24  1  0  0  0  0
 24 22  1  0  0  0  0
 25 22  1  0  0  0  0
 26 23  1  6  0  0  0
 26 25  1  0  0  0  0
 27 29  2  0  0  0  0
 28 29  2  0  0  0  0
 29 24  1  0  0  0  0
 29 30  1  0  0  0  0
 31 30  1  0  0  0  0
 32 33  1  0  0  0  0
 33 34  1  0  0  0  0
 35 36  1  0  0  0  0
 36 37  1  0  0  0  0
 37 38  1  1  0  0  0
 37 43  1  0  0  0  0
 39 41  2  0  0  0  0
 40 43  1  0  0  0  0
 40 39  1  0  0  0  0
 43 42  2  0  0  0  0
 44 39  1  0  0  0  0
 45 44  1  0  0  0  0
 46 45  1  0  0  0  0
 46 47  1  0  0  0  0
M  END
>  <MODEL>
8

>  <REMARK>
 VINA RESULT:      -8.1      2.918     10.818
  Name = 
  12 active torsions:
  status: ('A' for Active; 'I' for Inactive)
    1  A    between atoms: C_1  and  O_14
    2  A    between atoms: C_4  and  C_28
    3  A    between atoms: C_4  and  C_35
    4  A    between atoms: C_6  and  C_39
    5  A    between atoms: C_8  and  C_30
    6  A    between atoms: C_12  and  C_16
    7  A    between atoms: O_14  and  C_30
    8  A    between atoms: C_16  and  C_19
    9  A    between atoms: C_23  and  C_33
   10  A    between atoms: C_28  and  C_33
   11  A    between atoms: N_31  and  S_32
   12  A    between atoms: S_32  and  C_43
                            x       y       z     vdW  Elec       q    Type
                         _______ _______ _______ _____ _____    ______ ____

>  <TORSDO>
F 12

$$$$
=
 OpenBabel10222420243D

 47 52  0  0  1  0  0  0  0  0999 V2000
  188.1280  177.9220  139.3550 C   0  0  0  0  0  3  0  0  0  0  0  0
  189.3750  177.4050  142.1060 C   0  0  0  0  0  0  0  0  0  0  0  0
  191.5320  176.5480  138.6740 C   0  0  1  0  0  3  0  0  0  0  0  0
  188.0330  177.4550  142.1990 C   0  0  0  0  0  3  0  0  0  0  0  0
  191.4810  177.0390  143.2310 N   0  0  0  0  0  0  0  0  0  0  0  0
  189.3700  176.3480  137.3340 C   0  0  0  0  0  2  0  0  0  0  0  0
  186.1550  177.9740  145.2900 C   0  0  2  0  0  3  0  0  0  0  0  0
  191.3910  176.9610  140.8290 N   0  0  1  0  0  0  0  0  0  0  0  0
  190.1450  177.7580  140.8440 C   0  0  1  0  0  3  0  0  0  0  0  0
  187.4540  177.7330  138.0530 C   0  0  0  0  0  0  0  0  0  0  0  0
  188.0450  177.0180  137.0860 C   0  0  0  0  0  3  0  0  0  0  0  0
  192.1150  177.2850  139.7220 O   0  0  0  0  0  0  0  0  0  0  0  0
  189.4120  177.5740  139.5200 C   0  0  0  0  0  0  0  0  0  0  0  0
  190.1870  177.0980  143.3150 C   0  0  0  0  0  0  0  0  0  0  0  0
  187.5330  177.6840  145.6390 N   0  0  0  0  0  0  0  0  0  0  0  0
  186.0890  177.8480  143.7630 C   0  0  0  0  0  2  0  0  0  0  0  0
  187.2980  176.9940  143.4270 C   0  0  2  0  0  3  0  0  0  0  0  0
  188.1320  177.1390  144.6400 C   0  0  0  0  0  0  0  0  0  0  0  0
  189.5500  176.9830  144.5890 N   0  0  0  0  0  2  0  0  0  0  0  0
  190.2100  177.2100  138.2820 C   0  0  1  0  0  3  0  0  0  0  0  0
  192.1990  177.3360  141.9900 C   0  0  0  0  0  2  0  0  0  0  0  0
  194.0470  174.7610  136.7260 C   0  0  0  0  0  2  0  0  0  0  0  0
  193.9110  176.8220  137.8460 C   0  0  0  0  0  2  0  0  0  0  0  0
  194.8220  175.9250  137.1440 N   0  0  0  0  0  0  0  0  0  0  0  0
  192.5810  175.0080  137.0110 C   0  0  0  0  0  2  0  0  0  0  0  0
  192.4910  176.4320  137.4880 C   0  0  1  0  0  3  0  0  0  0  0  0
  194.4040  176.5840  134.5940 O   0  0  0  0  0  0  0  0  0  0  0  0
  195.6000  178.1920  136.0070 O   0  0  0  0  0  0  0  0  0  0  0  0
  195.3960  176.7310  135.7140 S   0  0  0  0  0  0  0  0  0  0  0  0
  196.9500  176.0160  135.2240 C   0  0  0  0  0  2  0  0  0  0  0  0
  197.6310  175.4680  136.3860 N   0  0  0  0  0  1  0  0  0  0  0  0
  185.7950  179.3850  145.7300 C   0  0  0  0  0  2  0  0  0  0  0  0
  184.7410  179.9830  144.8100 C   0  0  0  0  0  2  0  0  0  0  0  0
  183.5070  179.3780  145.0500 O   0  0  0  0  0  1  0  0  0  0  0  0
  186.1000  178.3250  137.8390 C   0  0  0  0  0  2  0  0  0  0  0  0
  185.0960  177.7860  138.8490 C   0  0  0  0  0  2  0  0  0  0  0  0
  184.5540  178.8910  139.7480 C   0  0  1  0  0  3  0  0  0  0  0  0
  184.5130  180.0980  139.0450 O   0  0  0  0  0  1  0  0  0  0  0  0
  180.7260  179.1400  140.3250 C   0  0  0  0  0  0  0  0  0  0  0  0
  182.0790  179.3440  139.9000 N   0  0  0  0  0  2  0  0  0  0  0  0
  180.4150  178.1390  141.0220 O   0  0  0  0  0  0  0  0  0  0  0  0
  183.0360  177.4830  140.9500 O   0  0  0  0  0  0  0  0  0  0  0  0
  183.1940  178.5140  140.2410 C   0  0  0  0  0  0  0  0  0  0  0  0
  179.7390  180.0620  139.9910 O   0  0  0  0  0  0  0  0  0  0  0  0
  180.0040  181.4580  139.9560 C   0  0  0  0  0  2  0  0  0  0  0  0
  179.4640  182.0530  138.6720 C   0  0  0  0  0  2  0  0  0  0  0  0
  179.8390  181.2600  137.5890 O   0  0  0  0  0  1  0  0  0  0  0  0
  1 13  2  0  0  0  0
  2  4  2  0  0  0  0
  2 14  1  0  0  0  0
  3 12  1  1  0  0  0
  5 14  2  0  0  0  0
  7 15  1  0  0  0  0
  7 32  1  6  0  0  0
  8  9  1  0  0  0  0
  8 21  1  1  0  0  0
  9 13  1  6  0  0  0
  9  2  1  0  0  0  0
 10  1  1  0  0  0  0
 11  6  1  0  0  0  0
 11 10  2  0  0  0  0
 12  8  1  0  0  0  0
 14 19  1  0  0  0  0
 16  7  1  0  0  0  0
 17  4  1  6  0  0  0
 17 16  1  0  0  0  0
 17 18  1  0  0  0  0
 18 15  2  0  0  0  0
 19 18  1  0  0  0  0
 20  6  1  6  0  0  0
 20  3  1  0  0  0  0
 20 13  1  0  0  0  0
 21  5  1  0  0  0  0
 22 25  1  0  0  0  0
 22 24  1  0  0  0  0
 24 23  1  0  0  0  0
 26 25  1  1  0  0  0
 26 23  1  0  0  0  0
 26  3  1  0  0  0  0
 27 29  2  0  0  0  0
 29 28  2  0  0  0  0
 29 24  1  0  0  0  0
 30 29  1  0  0  0  0
 30 31  1  0  0  0  0
 33 34  1  0  0  0  0
 33 32  1  0  0  0  0
 35 10  1  0  0  0  0
 35 36  1  0  0  0  0
 36 37  1  0  0  0  0
 37 38  1  6  0  0  0
 37 43  1  0  0  0  0
 39 41  2  0  0  0  0
 40 43  1  0  0  0  0
 40 39  1  0  0  0  0
 43 42  2  0  0  0  0
 44 39  1  0  0  0  0
 45 44  1  0  0  0  0
 46 45  1  0  0  0  0
 47 46  1  0  0  0  0
M  END
>  <MODEL>
9

>  <REMARK>
 VINA RESULT:      -7.9      3.289      9.885
  Name = 
  12 active torsions:
  status: ('A' for Active; 'I' for Inactive)
    1  A    between atoms: C_1  and  O_14
    2  A    between atoms: C_4  and  C_28
    3  A    between atoms: C_4  and  C_35
    4  A    between atoms: C_6  and  C_39
    5  A    between atoms: C_8  and  C_30
    6  A    between atoms: C_12  and  C_16
    7  A    between atoms: O_14  and  C_30
    8  A    between atoms: C_16  and  C_19
    9  A    between atoms: C_23  and  C_33
   10  A    between atoms: C_28  and  C_33
   11  A    between atoms: N_31  and  S_32
   12  A    between atoms: S_32  and  C_43
                            x       y       z     vdW  Elec       q    Type
                         _______ _______ _______ _____ _____    ______ ____

>  <TORSDO>
F 12

$$$$
