=
 OpenBabel10222417123D

 51 57  0  0  1  0  0  0  0  0999 V2000
  189.5910  177.0760  140.7380 C   0  0  2  0  0  3  0  0  0  0  0  0
  190.6370  177.4790  139.8030 N   0  0  0  0  0  2  0  0  0  0  0  0
  190.0750  177.5000  138.5160 N   0  0  0  0  0  0  0  0  0  0  0  0
  191.0820  176.9510  137.6180 C   0  0  0  0  0  2  0  0  0  0  0  0
  191.4290  175.5390  138.0430 C   0  0  0  0  0  1  0  0  0  0  0  0
  188.9580  176.5650  138.5380 C   0  0  0  0  0  2  0  0  0  0  0  0
  188.1250  176.6940  137.2700 C   0  0  0  0  0  2  0  0  0  0  0  0
  186.9750  175.8000  137.3340 N   0  0  0  0  0  2  0  0  0  0  0  0
  187.3630  174.5510  136.6890 C   0  0  2  0  0  3  0  0  0  0  0  0
  188.0700  174.8440  135.3780 C   0  0  0  0  0  1  0  0  0  0  0  0
  186.1390  173.6880  136.4050 C   0  0  0  0  0  2  0  0  0  0  0  0
  184.0920  173.8870  137.7200 N   0  0  0  0  0  0  0  0  0  0  0  0
  184.3190  172.4490  137.4080 C   0  0  0  0  0  2  0  0  0  0  0  0
  183.7470  176.1330  138.1790 O   0  0  0  0  0  0  0  0  0  0  0  0
  185.4290  173.2280  137.6750 C   0  0  1  0  0  3  0  0  0  0  0  0
  183.2440  175.0230  137.8770 C   0  0  0  0  0  0  0  0  0  0  0  0
  179.5330  174.6790  138.7080 C   0  0  0  0  0  2  0  0  0  0  0  0
  179.9490  174.9380  136.0060 C   0  0  0  0  0  2  0  0  0  0  0  0
  181.7990  174.9090  137.6450 C   0  0  0  0  0  0  0  0  0  0  0  0
  179.9900  172.6370  137.2130 C   0  0  0  0  0  2  0  0  0  0  0  0
  178.9460  173.5120  137.8930 C   0  0  2  0  0  3  0  0  0  0  0  0
  181.3510  174.9850  136.4230 N   0  0  0  0  0  0  0  0  0  0  0  0
  180.9590  174.6880  138.7530 O   0  0  0  0  0  0  0  0  0  0  0  0
  179.2000  173.6390  136.3870 C   0  0  1  0  0  3  0  0  0  0  0  0
  189.0060  178.2450  141.3800 N   0  0  0  0  0  2  0  0  0  0  0  0
  186.4400  178.3900  141.8130 C   0  0  0  0  0  0  0  0  0  0  0  0
  187.6260  178.3200  141.6100 C   0  0  0  0  0  0  0  0  0  0  0  0
  180.4590  177.8270  140.5620 C   0  0  0  0  0  2  0  0  0  0  0  0
  185.0320  178.4810  142.0720 C   0  0  0  0  0  0  0  0  0  0  0  0
  182.2800  178.6430  142.5710 C   0  0  0  0  0  0  0  0  0  0  0  0
  180.8180  178.7260  142.7920 C   0  0  0  0  0  0  0  0  0  0  0  0
  182.7520  178.4680  141.2570 C   0  0  0  0  0  0  0  0  0  0  0  0
  180.0010  178.4000  141.8320 N   0  0  0  0  0  0  0  0  0  0  0  0
  181.7810  178.4550  140.1150 C   0  0  0  0  0  2  0  0  0  0  0  0
  184.5680  178.6540  143.3800 C   0  0  0  0  0  3  0  0  0  0  0  0
  183.1930  178.7370  143.6310 C   0  0  0  0  0  3  0  0  0  0  0  0
  184.1250  178.3980  141.0110 C   0  0  0  0  0  3  0  0  0  0  0  0
  179.0420  179.3370  144.2500 O   0  0  0  0  0  0  0  0  0  0  0  0
  180.2830  179.2240  144.0650 C   0  0  0  0  0  3  0  0  0  0  0  0
  190.1290  176.1620  141.7480 N   0  0  0  0  0  2  0  0  0  0  0  0
  190.9630  176.8880  142.6140 N   0  0  0  0  0  2  0  0  0  0  0  0
  191.2080  176.0690  143.7280 N   0  0  0  0  0  2  0  0  0  0  0  0
  190.4690  176.8900  147.2210 C   0  0  0  0  0  3  0  0  0  0  0  0
  189.5140  177.2130  145.0850 C   0  0  2  0  0  3  0  0  0  0  0  0
  190.4850  178.2410  144.6420 N   0  0  0  0  0  2  0  0  0  0  0  0
  191.5530  176.5670  146.2600 C   0  0  0  0  0  2  0  0  0  0  0  0
  189.3690  177.2520  146.5710 C   0  0  0  0  0  0  0  0  0  0  0  0
  190.9140  176.8630  144.9110 C   0  0  2  0  0  0  0  0  0  0  0  0
  188.1590  177.6460  147.2370 N   0  0  0  0  0  0  0  0  0  0  0  0
  188.1570  178.0360  148.6390 C   0  0  0  0  0  1  0  0  0  0  0  0
  186.9160  177.7700  146.4910 C   0  0  0  0  0  1  0  0  0  0  0  0
  1  2  1  6  0  0  0
  1 25  1  0  0  0  0
  1 40  1  0  0  0  0
  3  6  1  0  0  0  0
  3  2  1  0  0  0  0
  4  5  1  0  0  0  0
  4  3  1  0  0  0  0
  7  8  1  0  0  0  0
  7  6  1  0  0  0  0
  9 10  1  6  0  0  0
  9  8  1  0  0  0  0
 11  9  1  0  0  0  0
 12 16  1  0  0  0  0
 13 15  1  0  0  0  0
 13 12  1  0  0  0  0
 15 11  1  6  0  0  0
 15 12  1  0  0  0  0
 16 14  2  0  0  0  0
 17 23  1  0  0  0  0
 18 22  1  0  0  0  0
 19 16  1  0  0  0  0
 19 23  1  0  0  0  0
 21 20  1  1  0  0  0
 21 17  1  0  0  0  0
 22 19  2  0  0  0  0
 24 18  1  1  0  0  0
 24 20  1  0  0  0  0
 24 21  1  0  0  0  0
 25 27  1  0  0  0  0
 26 29  1  0  0  0  0
 27 26  3  0  0  0  0
 28 33  1  0  0  0  0
 29 35  1  0  0  0  0
 30 31  1  0  0  0  0
 30 36  1  0  0  0  0
 31 39  1  0  0  0  0
 32 30  2  0  0  0  0
 33 31  2  0  0  0  0
 34 28  1  0  0  0  0
 34 32  1  0  0  0  0
 35 36  2  0  0  0  0
 37 32  1  0  0  0  0
 37 29  2  0  0  0  0
 39 38  2  0  0  0  0
 40 41  1  0  0  0  0
 41 42  1  0  0  0  0
 44 45  1  6  0  0  0
 44 47  1  0  0  0  0
 45 48  1  0  0  0  0
 46 43  1  0  0  0  0
 47 43  2  0  0  0  0
 47 49  1  0  0  0  0
 48 42  1  6  0  0  0
 48 44  1  0  0  0  0
 48 46  1  0  0  0  0
 49 50  1  0  0  0  0
 51 49  1  0  0  0  0
M  END
>  <MODEL>
1

>  <REMARK>
 VINA RESULT:      -7.6      0.000      0.000
  Name = 
  19 active torsions:
  status: ('A' for Active; 'I' for Inactive)
    1  A    between atoms: N_1  and  C_35
    2  A    between atoms: N_1  and  C_51
    3  A    between atoms: C_7  and  C_30
    4  A    between atoms: N_9  and  C_35
    5  A    between atoms: N_9  and  N_36
    6  A    between atoms: CA_12  and  C_22
    7  A    between atoms: N_13  and  N_21
    8  A    between atoms: N_13  and  N_46
    9  A    between atoms: C_16  and  C_43
   10  A    between atoms: N_21  and  C_48
   11  A    between atoms: C_25  and  C_38
   12  A    between atoms: C_25  and  N_40
   13  A    between atoms: N_27  and  C_47
   14  A    between atoms: C_28  and  C_33
   15  A    between atoms: C_28  and  N_36
   16  A    between atoms: C_33  and  N_40
   17  A    between atoms: C_34  and  N_36
   18  A    between atoms: C_35  and  N_46
   19  A    between atoms: C_38  and  C_42
                            x       y       z     vdW  Elec       q    Type
                         _______ _______ _______ _____ _____    ______ ____

>  <TORSDO>
F 19

$$$$
=
 OpenBabel10222417123D

 51 57  0  0  1  0  0  0  0  0999 V2000
  191.9560  175.6230  138.1770 C   0  0  2  0  0  3  0  0  0  0  0  0
  191.1980  174.4100  137.8870 N   0  0  0  0  0  2  0  0  0  0  0  0
  190.7770  174.4780  136.5490 N   0  0  0  0  0  0  0  0  0  0  0  0
  191.0220  173.1640  135.9720 C   0  0  0  0  0  2  0  0  0  0  0  0
  192.3990  173.1330  135.3400 C   0  0  0  0  0  1  0  0  0  0  0  0
  189.3340  174.6770  136.5790 C   0  0  0  0  0  2  0  0  0  0  0  0
  188.9250  175.7880  135.6220 C   0  0  0  0  0  2  0  0  0  0  0  0
  188.4060  176.9260  136.3700 N   0  0  0  0  0  2  0  0  0  0  0  0
  186.9990  177.0720  136.0130 C   0  0  2  0  0  3  0  0  0  0  0  0
  186.8540  178.0950  134.8990 C   0  0  0  0  0  1  0  0  0  0  0  0
  186.1820  177.5350  137.2140 C   0  0  0  0  0  2  0  0  0  0  0  0
  186.1740  178.5660  139.4270 N   0  0  0  0  0  0  0  0  0  0  0  0
  187.3570  177.6670  139.3240 C   0  0  0  0  0  2  0  0  0  0  0  0
  184.3170  179.9460  139.5720 O   0  0  0  0  0  0  0  0  0  0  0  0
  186.9940  178.3760  138.1950 C   0  0  1  0  0  3  0  0  0  0  0  0
  185.0740  179.1230  140.1430 C   0  0  0  0  0  0  0  0  0  0  0  0
  183.0370  178.3590  143.2800 C   0  0  0  0  0  2  0  0  0  0  0  0
  185.6970  177.7730  143.6290 C   0  0  0  0  0  2  0  0  0  0  0  0
  184.8010  178.7080  141.5240 C   0  0  0  0  0  0  0  0  0  0  0  0
  184.7140  180.1340  144.0890 C   0  0  0  0  0  2  0  0  0  0  0  0
  183.6660  179.0990  144.4750 C   0  0  2  0  0  3  0  0  0  0  0  0
  185.7870  178.2690  142.2560 N   0  0  0  0  0  0  0  0  0  0  0  0
  183.4860  178.8320  142.0120 O   0  0  0  0  0  0  0  0  0  0  0  0
  185.1580  178.7960  144.6570 C   0  0  1  0  0  3  0  0  0  0  0  0
  191.0800  176.6520  138.7190 N   0  0  0  0  0  2  0  0  0  0  0  0
  190.6710  176.8430  141.2870 C   0  0  0  0  0  0  0  0  0  0  0  0
  190.8630  176.7530  140.1000 C   0  0  0  0  0  0  0  0  0  0  0  0
  192.0190  176.4650  147.2610 C   0  0  0  0  0  2  0  0  0  0  0  0
  190.4300  176.9660  142.6960 C   0  0  0  0  0  0  0  0  0  0  0  0
  189.9770  177.2140  145.4490 C   0  0  0  0  0  0  0  0  0  0  0  0
  189.7710  177.3190  146.9120 C   0  0  0  0  0  0  0  0  0  0  0  0
  191.0550  176.4440  144.9760 C   0  0  0  0  0  0  0  0  0  0  0  0
  190.7030  176.9130  147.7250 N   0  0  0  0  0  0  0  0  0  0  0  0
  191.9100  175.6870  145.9480 C   0  0  0  0  0  2  0  0  0  0  0  0
  189.3570  177.7340  143.1610 C   0  0  0  0  0  3  0  0  0  0  0  0
  189.1280  177.8570  144.5360 C   0  0  0  0  0  3  0  0  0  0  0  0
  191.2730  176.3140  143.6020 C   0  0  0  0  0  3  0  0  0  0  0  0
  187.8260  177.1440  148.2680 O   0  0  0  0  0  0  0  0  0  0  0  0
  188.5030  177.8230  147.4520 C   0  0  0  0  0  3  0  0  0  0  0  0
  192.6230  176.1140  136.9680 N   0  0  0  0  0  2  0  0  0  0  0  0
  193.9750  176.3510  137.2650 N   0  0  0  0  0  2  0  0  0  0  0  0
  194.2950  175.5560  138.3770 N   0  0  0  0  0  2  0  0  0  0  0  0
  196.1230  173.3050  136.1390 C   0  0  0  0  0  3  0  0  0  0  0  0
  194.8690  173.1820  138.1360 C   0  0  2  0  0  3  0  0  0  0  0  0
  195.9040  173.7970  139.0010 N   0  0  0  0  0  2  0  0  0  0  0  0
  196.0080  174.7080  136.6090 C   0  0  0  0  0  2  0  0  0  0  0  0
  195.5120  172.4830  136.9840 C   0  0  0  0  0  0  0  0  0  0  0  0
  195.2620  174.5670  137.9290 C   0  0  2  0  0  0  0  0  0  0  0  0
  195.4770  171.0580  136.8050 N   0  0  0  0  0  0  0  0  0  0  0  0
  195.5380  170.1500  137.9400 C   0  0  0  0  0  1  0  0  0  0  0  0
  195.2700  170.4880  135.4830 C   0  0  0  0  0  1  0  0  0  0  0  0
  1 40  1  6  0  0  0
  1 25  1  0  0  0  0
  2  1  1  0  0  0  0
  3  6  1  0  0  0  0
  3  2  1  0  0  0  0
  4  3  1  0  0  0  0
  5  4  1  0  0  0  0
  7  8  1  0  0  0  0
  7  6  1  0  0  0  0
  9 10  1  6  0  0  0
  9  8  1  0  0  0  0
  9 11  1  0  0  0  0
 12 16  1  0  0  0  0
 13 12  1  0  0  0  0
 14 16  2  0  0  0  0
 15 11  1  6  0  0  0
 15 13  1  0  0  0  0
 15 12  1  0  0  0  0
 16 19  1  0  0  0  0
 19 23  1  0  0  0  0
 19 22  2  0  0  0  0
 20 21  1  0  0  0  0
 20 24  1  0  0  0  0
 21 17  1  6  0  0  0
 21 24  1  0  0  0  0
 22 18  1  0  0  0  0
 23 17  1  0  0  0  0
 24 18  1  6  0  0  0
 25 27  1  0  0  0  0
 26 29  1  0  0  0  0
 27 26  3  0  0  0  0
 28 33  1  0  0  0  0
 29 35  2  0  0  0  0
 29 37  1  0  0  0  0
 30 31  1  0  0  0  0
 31 39  1  0  0  0  0
 31 33  2  0  0  0  0
 32 30  1  0  0  0  0
 32 34  1  0  0  0  0
 34 28  1  0  0  0  0
 35 36  1  0  0  0  0
 36 30  2  0  0  0  0
 37 32  2  0  0  0  0
 39 38  2  0  0  0  0
 40 41  1  0  0  0  0
 41 42  1  0  0  0  0
 43 46  1  0  0  0  0
 43 47  2  0  0  0  0
 44 47  1  6  0  0  0
 44 45  1  0  0  0  0
 46 48  1  0  0  0  0
 48 44  1  0  0  0  0
 48 42  1  1  0  0  0
 48 45  1  0  0  0  0
 49 47  1  0  0  0  0
 49 50  1  0  0  0  0
 51 49  1  0  0  0  0
M  END
>  <MODEL>
2

>  <REMARK>
 VINA RESULT:      -7.6      3.802      8.266
  Name = 
  19 active torsions:
  status: ('A' for Active; 'I' for Inactive)
    1  A    between atoms: N_1  and  C_35
    2  A    between atoms: N_1  and  C_51
    3  A    between atoms: C_7  and  C_30
    4  A    between atoms: N_9  and  C_35
    5  A    between atoms: N_9  and  N_36
    6  A    between atoms: CA_12  and  C_22
    7  A    between atoms: N_13  and  N_21
    8  A    between atoms: N_13  and  N_46
    9  A    between atoms: C_16  and  C_43
   10  A    between atoms: N_21  and  C_48
   11  A    between atoms: C_25  and  C_38
   12  A    between atoms: C_25  and  N_40
   13  A    between atoms: N_27  and  C_47
   14  A    between atoms: C_28  and  C_33
   15  A    between atoms: C_28  and  N_36
   16  A    between atoms: C_33  and  N_40
   17  A    between atoms: C_34  and  N_36
   18  A    between atoms: C_35  and  N_46
   19  A    between atoms: C_38  and  C_42
                            x       y       z     vdW  Elec       q    Type
                         _______ _______ _______ _____ _____    ______ ____

>  <TORSDO>
F 19

$$$$
=
 OpenBabel10222417123D

 51 57  0  0  1  0  0  0  0  0999 V2000
  189.1120  177.3540  139.4040 C   0  0  2  0  0  3  0  0  0  0  0  0
  190.0060  178.0210  140.3470 N   0  0  0  0  0  2  0  0  0  0  0  0
  190.0880  177.2210  141.4980 N   0  0  0  0  0  0  0  0  0  0  0  0
  191.4340  177.3920  142.0240 C   0  0  0  0  0  2  0  0  0  0  0  0
  192.4180  177.5210  140.8790 C   0  0  0  0  0  1  0  0  0  0  0  0
  189.1660  177.7970  142.4680 C   0  0  0  0  0  2  0  0  0  0  0  0
  189.0240  176.8870  143.6790 C   0  0  0  0  0  2  0  0  0  0  0  0
  187.6280  176.8230  144.0960 N   0  0  0  0  0  2  0  0  0  0  0  0
  187.4470  177.8120  145.1530 C   0  0  2  0  0  3  0  0  0  0  0  0
  188.3890  177.5130  146.3060 C   0  0  0  0  0  1  0  0  0  0  0  0
  186.0140  177.7910  145.6720 C   0  0  0  0  0  2  0  0  0  0  0  0
  184.6270  178.8720  143.9780 N   0  0  0  0  0  0  0  0  0  0  0  0
  183.8750  178.8460  145.2640 C   0  0  0  0  0  2  0  0  0  0  0  0
  185.8070  178.8860  141.9830 O   0  0  0  0  0  0  0  0  0  0  0  0
  185.2390  179.0590  145.3260 C   0  0  1  0  0  3  0  0  0  0  0  0
  184.7000  178.7480  142.5600 C   0  0  0  0  0  0  0  0  0  0  0  0
  182.5470  177.0330  139.9130 C   0  0  0  0  0  2  0  0  0  0  0  0
  181.0670  178.7350  141.4790 C   0  0  0  0  0  2  0  0  0  0  0  0
  183.5000  178.4200  141.7800 C   0  0  0  0  0  0  0  0  0  0  0  0
  182.3060  179.5280  139.3380 C   0  0  0  0  0  2  0  0  0  0  0  0
  181.8060  178.1100  139.1000 C   0  0  2  0  0  3  0  0  0  0  0  0
  182.3660  178.9740  142.1080 N   0  0  0  0  0  0  0  0  0  0  0  0
  183.6320  177.5430  140.6870 O   0  0  0  0  0  0  0  0  0  0  0  0
  181.0000  179.0790  139.9720 C   0  0  1  0  0  3  0  0  0  0  0  0
  189.6420  177.4470  138.0510 N   0  0  0  0  0  2  0  0  0  0  0  0
  191.9290  176.3540  137.4420 C   0  0  0  0  0  0  0  0  0  0  0  0
  190.8720  176.8610  137.7210 C   0  0  0  0  0  0  0  0  0  0  0  0
  196.2260  171.9740  137.5770 C   0  0  0  0  0  2  0  0  0  0  0  0
  193.1890  175.7420  137.1290 C   0  0  0  0  0  0  0  0  0  0  0  0
  195.6400  174.5330  136.5150 C   0  0  0  0  0  0  0  0  0  0  0  0
  196.9300  173.8670  136.2240 C   0  0  0  0  0  0  0  0  0  0  0  0
  194.8530  174.0400  137.5720 C   0  0  0  0  0  0  0  0  0  0  0  0
  197.2000  172.7160  136.7710 N   0  0  0  0  0  0  0  0  0  0  0  0
  195.3700  172.9200  138.4230 C   0  0  0  0  0  2  0  0  0  0  0  0
  193.9670  176.2350  136.0770 C   0  0  0  0  0  3  0  0  0  0  0  0
  195.1930  175.6340  135.7700 C   0  0  0  0  0  3  0  0  0  0  0  0
  193.6360  174.6520  137.8830 C   0  0  0  0  0  3  0  0  0  0  0  0
  198.6880  175.4160  135.8200 O   0  0  0  0  0  0  0  0  0  0  0  0
  197.9300  174.5170  135.3680 C   0  0  0  0  0  3  0  0  0  0  0  0
  187.7720  177.9410  139.4630 N   0  0  0  0  0  2  0  0  0  0  0  0
  187.4420  178.4370  138.1900 N   0  0  0  0  0  2  0  0  0  0  0  0
  186.0410  178.4200  138.0950 N   0  0  0  0  0  2  0  0  0  0  0  0
  184.2160  175.8890  136.1780 C   0  0  0  0  0  3  0  0  0  0  0  0
  186.3870  176.2310  137.0410 C   0  0  2  0  0  3  0  0  0  0  0  0
  186.7800  177.2610  136.0500 N   0  0  0  0  0  2  0  0  0  0  0  0
  184.2660  177.3280  136.5350 C   0  0  0  0  0  2  0  0  0  0  0  0
  185.3780  175.3050  136.4450 C   0  0  0  0  0  0  0  0  0  0  0  0
  185.7000  177.5120  137.0110 C   0  0  2  0  0  0  0  0  0  0  0  0
  185.6380  173.9170  136.1810 N   0  0  0  0  0  0  0  0  0  0  0  0
  186.9590  173.4550  135.7860 C   0  0  0  0  0  1  0  0  0  0  0  0
  184.6040  172.9200  136.4100 C   0  0  0  0  0  1  0  0  0  0  0  0
  1 25  1  6  0  0  0
  1 40  1  0  0  0  0
  1  2  1  0  0  0  0
  2  3  1  0  0  0  0
  3  4  1  0  0  0  0
  3  6  1  0  0  0  0
  5  4  1  0  0  0  0
  6  7  1  0  0  0  0
  7  8  1  0  0  0  0
  8  9  1  0  0  0  0
  9 11  1  0  0  0  0
  9 10  1  1  0  0  0
 12 13  1  0  0  0  0
 12 15  1  0  0  0  0
 13 15  1  0  0  0  0
 14 16  2  0  0  0  0
 15 11  1  1  0  0  0
 16 12  1  0  0  0  0
 17 23  1  0  0  0  0
 18 22  1  0  0  0  0
 19 22  2  0  0  0  0
 19 16  1  0  0  0  0
 21 20  1  1  0  0  0
 21 17  1  0  0  0  0
 21 24  1  0  0  0  0
 23 19  1  0  0  0  0
 24 20  1  1  0  0  0
 24 18  1  0  0  0  0
 26 27  3  0  0  0  0
 27 25  1  0  0  0  0
 28 34  1  0  0  0  0
 29 26  1  0  0  0  0
 29 37  1  0  0  0  0
 30 32  1  0  0  0  0
 31 30  1  0  0  0  0
 31 33  2  0  0  0  0
 32 37  2  0  0  0  0
 32 34  1  0  0  0  0
 33 28  1  0  0  0  0
 35 29  2  0  0  0  0
 36 35  1  0  0  0  0
 36 30  2  0  0  0  0
 39 38  2  0  0  0  0
 39 31  1  0  0  0  0
 41 40  1  0  0  0  0
 42 41  1  0  0  0  0
 43 47  2  0  0  0  0
 43 46  1  0  0  0  0
 44 45  1  6  0  0  0
 45 48  1  0  0  0  0
 46 48  1  0  0  0  0
 47 44  1  0  0  0  0
 48 44  1  0  0  0  0
 48 42  1  1  0  0  0
 49 51  1  0  0  0  0
 49 47  1  0  0  0  0
 50 49  1  0  0  0  0
M  END
>  <MODEL>
3

>  <REMARK>
 VINA RESULT:      -7.1      3.718     10.379
  Name = 
  19 active torsions:
  status: ('A' for Active; 'I' for Inactive)
    1  A    between atoms: N_1  and  C_35
    2  A    between atoms: N_1  and  C_51
    3  A    between atoms: C_7  and  C_30
    4  A    between atoms: N_9  and  C_35
    5  A    between atoms: N_9  and  N_36
    6  A    between atoms: CA_12  and  C_22
    7  A    between atoms: N_13  and  N_21
    8  A    between atoms: N_13  and  N_46
    9  A    between atoms: C_16  and  C_43
   10  A    between atoms: N_21  and  C_48
   11  A    between atoms: C_25  and  C_38
   12  A    between atoms: C_25  and  N_40
   13  A    between atoms: N_27  and  C_47
   14  A    between atoms: C_28  and  C_33
   15  A    between atoms: C_28  and  N_36
   16  A    between atoms: C_33  and  N_40
   17  A    between atoms: C_34  and  N_36
   18  A    between atoms: C_35  and  N_46
   19  A    between atoms: C_38  and  C_42
                            x       y       z     vdW  Elec       q    Type
                         _______ _______ _______ _____ _____    ______ ____

>  <TORSDO>
F 19

$$$$
=
 OpenBabel10222417123D

 51 57  0  0  1  0  0  0  0  0999 V2000
  191.0170  176.7740  139.1470 C   0  0  2  0  0  3  0  0  0  0  0  0
  190.0000  177.8070  138.9770 N   0  0  0  0  0  2  0  0  0  0  0  0
  189.7880  177.9760  137.5990 N   0  0  0  0  0  0  0  0  0  0  0  0
  189.6630  176.6400  137.0340 C   0  0  0  0  0  2  0  0  0  0  0  0
  189.8400  176.7030  135.5300 C   0  0  0  0  0  1  0  0  0  0  0  0
  188.4950  178.6310  137.4560 C   0  0  0  0  0  2  0  0  0  0  0  0
  187.4150  177.8540  138.1970 C   0  0  0  0  0  2  0  0  0  0  0  0
  186.0950  178.3070  137.7760 N   0  0  0  0  0  2  0  0  0  0  0  0
  185.2880  177.1170  137.5300 C   0  0  2  0  0  3  0  0  0  0  0  0
  186.1510  176.0250  136.9230 C   0  0  0  0  0  1  0  0  0  0  0  0
  184.1440  177.4290  136.5710 C   0  0  0  0  0  2  0  0  0  0  0  0
  182.2250  178.5760  137.5520 N   0  0  0  0  0  0  0  0  0  0  0  0
  181.7500  177.7350  136.4190 C   0  0  0  0  0  2  0  0  0  0  0  0
  182.9890  179.8930  139.3000 O   0  0  0  0  0  0  0  0  0  0  0  0
  182.7700  177.2320  137.2030 C   0  0  1  0  0  3  0  0  0  0  0  0
  182.2070  179.7740  138.3250 C   0  0  0  0  0  0  0  0  0  0  0  0
  178.9530  181.5470  137.4020 C   0  0  0  0  0  2  0  0  0  0  0  0
  181.0470  183.3110  137.6150 C   0  0  0  0  0  2  0  0  0  0  0  0
  181.3110  180.8790  137.9620 C   0  0  0  0  0  0  0  0  0  0  0  0
  180.4900  182.0640  135.4050 C   0  0  0  0  0  2  0  0  0  0  0  0
  179.1810  182.3700  136.1200 C   0  0  2  0  0  3  0  0  0  0  0  0
  181.7930  182.0890  137.9130 N   0  0  0  0  0  0  0  0  0  0  0  0
  179.9710  180.5790  137.6500 O   0  0  0  0  0  0  0  0  0  0  0  0
  180.3670  183.3370  136.2260 C   0  0  1  0  0  3  0  0  0  0  0  0
  190.7610  176.0050  140.3560 N   0  0  0  0  0  2  0  0  0  0  0  0
  189.0090  176.8230  142.1050 C   0  0  0  0  0  0  0  0  0  0  0  0
  189.8210  176.4420  141.2980 C   0  0  0  0  0  0  0  0  0  0  0  0
  183.5020  178.7360  144.0180 C   0  0  0  0  0  2  0  0  0  0  0  0
  188.0410  177.2920  143.0540 C   0  0  0  0  0  0  0  0  0  0  0  0
  186.1380  178.1980  144.9000 C   0  0  0  0  0  0  0  0  0  0  0  0
  185.1080  178.6900  145.8420 C   0  0  0  0  0  0  0  0  0  0  0  0
  185.8940  178.3090  143.5180 C   0  0  0  0  0  0  0  0  0  0  0  0
  183.9190  178.9860  145.4010 N   0  0  0  0  0  0  0  0  0  0  0  0
  184.6490  178.9920  143.0380 C   0  0  0  0  0  2  0  0  0  0  0  0
  188.2890  177.1780  144.4260 C   0  0  0  0  0  3  0  0  0  0  0  0
  187.3400  177.6310  145.3490 C   0  0  0  0  0  3  0  0  0  0  0  0
  186.8490  177.8660  142.6000 C   0  0  0  0  0  3  0  0  0  0  0  0
  185.9050  179.9940  147.6630 O   0  0  0  0  0  0  0  0  0  0  0  0
  185.4310  178.8990  147.2590 C   0  0  0  0  0  3  0  0  0  0  0  0
  192.3530  177.3720  139.2020 N   0  0  0  0  0  2  0  0  0  0  0  0
  193.1030  176.8990  138.1130 N   0  0  0  0  0  2  0  0  0  0  0  0
  194.0430  175.9910  138.6270 N   0  0  0  0  0  2  0  0  0  0  0  0
  193.6860  173.0340  136.4950 C   0  0  0  0  0  3  0  0  0  0  0  0
  195.3020  174.0090  137.9140 C   0  0  2  0  0  3  0  0  0  0  0  0
  195.6640  175.1110  136.9920 N   0  0  0  0  0  2  0  0  0  0  0  0
  193.2120  174.4220  136.7230 C   0  0  0  0  0  2  0  0  0  0  0  0
  194.8290  172.8240  137.1370 C   0  0  0  0  0  0  0  0  0  0  0  0
  194.3200  175.0260  137.5750 C   0  0  2  0  0  0  0  0  0  0  0  0
  195.5420  171.5790  137.0830 N   0  0  0  0  0  0  0  0  0  0  0  0
  195.3030  170.5250  138.0570 C   0  0  0  0  0  1  0  0  0  0  0  0
  196.4500  171.2980  135.9810 C   0  0  0  0  0  1  0  0  0  0  0  0
  1  2  1  1  0  0  0
  1 40  1  0  0  0  0
  1 25  1  0  0  0  0
  3  2  1  0  0  0  0
  4  3  1  0  0  0  0
  5  4  1  0  0  0  0
  6  3  1  0  0  0  0
  6  7  1  0  0  0  0
  8  7  1  0  0  0  0
  9 10  1  6  0  0  0
  9  8  1  0  0  0  0
 11  9  1  0  0  0  0
 12 16  1  0  0  0  0
 13 15  1  0  0  0  0
 13 12  1  0  0  0  0
 15 11  1  6  0  0  0
 15 12  1  0  0  0  0
 16 14  2  0  0  0  0
 17 23  1  0  0  0  0
 18 22  1  0  0  0  0
 19 16  1  0  0  0  0
 21 20  1  6  0  0  0
 21 24  1  0  0  0  0
 21 17  1  0  0  0  0
 22 19  2  0  0  0  0
 23 19  1  0  0  0  0
 24 20  1  6  0  0  0
 24 18  1  0  0  0  0
 25 27  1  0  0  0  0
 26 29  1  0  0  0  0
 27 26  3  0  0  0  0
 28 33  1  0  0  0  0
 29 35  1  0  0  0  0
 30 36  1  0  0  0  0
 30 31  1  0  0  0  0
 31 39  1  0  0  0  0
 32 30  2  0  0  0  0
 33 31  2  0  0  0  0
 34 32  1  0  0  0  0
 34 28  1  0  0  0  0
 35 36  2  0  0  0  0
 37 29  2  0  0  0  0
 37 32  1  0  0  0  0
 39 38  2  0  0  0  0
 41 42  1  0  0  0  0
 41 40  1  0  0  0  0
 43 46  1  0  0  0  0
 43 47  2  0  0  0  0
 44 45  1  6  0  0  0
 45 48  1  0  0  0  0
 46 48  1  0  0  0  0
 47 44  1  0  0  0  0
 48 44  1  0  0  0  0
 48 42  1  1  0  0  0
 49 47  1  0  0  0  0
 49 50  1  0  0  0  0
 51 49  1  0  0  0  0
M  END
>  <MODEL>
4

>  <REMARK>
 VINA RESULT:      -6.9      3.814      6.851
  Name = 
  19 active torsions:
  status: ('A' for Active; 'I' for Inactive)
    1  A    between atoms: N_1  and  C_35
    2  A    between atoms: N_1  and  C_51
    3  A    between atoms: C_7  and  C_30
    4  A    between atoms: N_9  and  C_35
    5  A    between atoms: N_9  and  N_36
    6  A    between atoms: CA_12  and  C_22
    7  A    between atoms: N_13  and  N_21
    8  A    between atoms: N_13  and  N_46
    9  A    between atoms: C_16  and  C_43
   10  A    between atoms: N_21  and  C_48
   11  A    between atoms: C_25  and  C_38
   12  A    between atoms: C_25  and  N_40
   13  A    between atoms: N_27  and  C_47
   14  A    between atoms: C_28  and  C_33
   15  A    between atoms: C_28  and  N_36
   16  A    between atoms: C_33  and  N_40
   17  A    between atoms: C_34  and  N_36
   18  A    between atoms: C_35  and  N_46
   19  A    between atoms: C_38  and  C_42
                            x       y       z     vdW  Elec       q    Type
                         _______ _______ _______ _____ _____    ______ ____

>  <TORSDO>
F 19

$$$$
=
 OpenBabel10222417123D

 51 57  0  0  1  0  0  0  0  0999 V2000
  188.8860  177.6540  140.7300 C   0  0  2  0  0  3  0  0  0  0  0  0
  189.1340  177.8870  142.1500 N   0  0  0  0  0  2  0  0  0  0  0  0
  189.2850  176.6350  142.7680 N   0  0  0  0  0  0  0  0  0  0  0  0
  190.3370  176.7910  143.7630 C   0  0  0  0  0  2  0  0  0  0  0  0
  191.5570  177.4200  143.1220 C   0  0  0  0  0  1  0  0  0  0  0  0
  188.0440  176.3760  143.4850 C   0  0  0  0  0  2  0  0  0  0  0  0
  187.5120  177.6540  144.1170 C   0  0  0  0  0  2  0  0  0  0  0  0
  186.0990  177.5010  144.4410 N   0  0  0  0  0  2  0  0  0  0  0  0
  185.5810  178.8280  144.7550 C   0  0  2  0  0  3  0  0  0  0  0  0
  184.7780  178.7770  146.0430 C   0  0  0  0  0  1  0  0  0  0  0  0
  184.6810  179.3350  143.6340 C   0  0  0  0  0  2  0  0  0  0  0  0
  182.9560  178.6430  142.0510 N   0  0  0  0  0  0  0  0  0  0  0  0
  184.2740  178.6340  141.3560 C   0  0  0  0  0  2  0  0  0  0  0  0
  180.9140  178.6820  143.1470 O   0  0  0  0  0  0  0  0  0  0  0  0
  184.2460  178.2300  142.6770 C   0  0  1  0  0  3  0  0  0  0  0  0
  181.5560  178.9070  142.0920 C   0  0  0  0  0  0  0  0  0  0  0  0
  180.2250  179.1350  138.5200 C   0  0  0  0  0  2  0  0  0  0  0  0
  179.4980  181.3200  140.0160 C   0  0  0  0  0  2  0  0  0  0  0  0
  180.8740  179.4780  140.9240 C   0  0  0  0  0  0  0  0  0  0  0  0
  181.7430  181.2030  138.7130 C   0  0  0  0  0  2  0  0  0  0  0  0
  180.6840  180.4690  137.9020 C   0  0  2  0  0  3  0  0  0  0  0  0
  180.2640  180.6240  141.0500 N   0  0  0  0  0  0  0  0  0  0  0  0
  180.9350  178.7780  139.7040 O   0  0  0  0  0  0  0  0  0  0  0  0
  180.3040  181.6900  138.7480 C   0  0  1  0  0  3  0  0  0  0  0  0
  190.0410  178.0590  139.9410 N   0  0  0  0  0  2  0  0  0  0  0  0
  191.3830  176.3090  138.5500 C   0  0  0  0  0  0  0  0  0  0  0  0
  190.7610  177.1200  139.1900 C   0  0  0  0  0  0  0  0  0  0  0  0
  196.4260  173.3660  136.6620 C   0  0  0  0  0  2  0  0  0  0  0  0
  192.1350  175.3410  137.8050 C   0  0  0  0  0  0  0  0  0  0  0  0
  193.6110  173.4450  136.3640 C   0  0  0  0  0  0  0  0  0  0  0  0
  194.4280  172.4670  135.6100 C   0  0  0  0  0  0  0  0  0  0  0  0
  194.2600  174.5360  136.9720 C   0  0  0  0  0  0  0  0  0  0  0  0
  195.7250  172.4890  135.7190 N   0  0  0  0  0  0  0  0  0  0  0  0
  195.7340  174.7270  136.7730 C   0  0  0  0  0  2  0  0  0  0  0  0
  191.4840  174.2580  137.2040 C   0  0  0  0  0  3  0  0  0  0  0  0
  192.2200  173.3110  136.4820 C   0  0  0  0  0  3  0  0  0  0  0  0
  193.5200  175.4850  137.6810 C   0  0  0  0  0  3  0  0  0  0  0  0
  193.6530  170.2990  135.0160 O   0  0  0  0  0  0  0  0  0  0  0  0
  193.7910  171.5090  134.6980 C   0  0  0  0  0  3  0  0  0  0  0  0
  187.6940  178.3820  140.2900 N   0  0  0  0  0  2  0  0  0  0  0  0
  187.8020  178.6320  138.9120 N   0  0  0  0  0  2  0  0  0  0  0  0
  186.5330  178.4070  138.3550 N   0  0  0  0  0  2  0  0  0  0  0  0
  185.9160  175.9080  135.7490 C   0  0  0  0  0  3  0  0  0  0  0  0
  187.5920  176.4490  137.3220 C   0  0  2  0  0  3  0  0  0  0  0  0
  188.0900  177.6450  136.6030 N   0  0  0  0  0  2  0  0  0  0  0  0
  185.5860  177.2800  136.2070 C   0  0  0  0  0  2  0  0  0  0  0  0
  187.0150  175.4710  136.3520 C   0  0  0  0  0  0  0  0  0  0  0  0
  186.7310  177.6090  137.1550 C   0  0  2  0  0  0  0  0  0  0  0  0
  187.5940  174.1820  136.0910 N   0  0  0  0  0  0  0  0  0  0  0  0
  187.4120  173.0690  137.0100 C   0  0  0  0  0  1  0  0  0  0  0  0
  188.2890  173.9290  134.8380 C   0  0  0  0  0  1  0  0  0  0  0  0
  1 25  1  6  0  0  0
  1  2  1  0  0  0  0
  2  3  1  0  0  0  0
  3  6  1  0  0  0  0
  3  4  1  0  0  0  0
  5  4  1  0  0  0  0
  6  7  1  0  0  0  0
  7  8  1  0  0  0  0
  8  9  1  0  0  0  0
  9 10  1  1  0  0  0
 11  9  1  0  0  0  0
 12 16  1  0  0  0  0
 12 15  1  0  0  0  0
 13 12  1  0  0  0  0
 13 15  1  0  0  0  0
 15 11  1  1  0  0  0
 16 14  2  0  0  0  0
 17 23  1  0  0  0  0
 18 22  1  0  0  0  0
 19 22  2  0  0  0  0
 19 16  1  0  0  0  0
 21 17  1  1  0  0  0
 21 20  1  0  0  0  0
 21 24  1  0  0  0  0
 23 19  1  0  0  0  0
 24 20  1  1  0  0  0
 24 18  1  0  0  0  0
 26 27  3  0  0  0  0
 27 25  1  0  0  0  0
 28 34  1  0  0  0  0
 29 26  1  0  0  0  0
 30 36  2  0  0  0  0
 30 32  1  0  0  0  0
 31 33  2  0  0  0  0
 31 30  1  0  0  0  0
 32 37  2  0  0  0  0
 33 28  1  0  0  0  0
 34 32  1  0  0  0  0
 35 29  2  0  0  0  0
 36 35  1  0  0  0  0
 37 29  1  0  0  0  0
 39 38  2  0  0  0  0
 39 31  1  0  0  0  0
 40  1  1  0  0  0  0
 41 40  1  0  0  0  0
 42 41  1  0  0  0  0
 43 46  1  0  0  0  0
 43 47  2  0  0  0  0
 44 47  1  6  0  0  0
 45 48  1  0  0  0  0
 45 44  1  0  0  0  0
 46 48  1  0  0  0  0
 48 44  1  0  0  0  0
 48 42  1  1  0  0  0
 49 47  1  0  0  0  0
 49 50  1  0  0  0  0
 51 49  1  0  0  0  0
M  END
>  <MODEL>
5

>  <REMARK>
 VINA RESULT:      -6.8      3.259      9.896
  Name = 
  19 active torsions:
  status: ('A' for Active; 'I' for Inactive)
    1  A    between atoms: N_1  and  C_35
    2  A    between atoms: N_1  and  C_51
    3  A    between atoms: C_7  and  C_30
    4  A    between atoms: N_9  and  C_35
    5  A    between atoms: N_9  and  N_36
    6  A    between atoms: CA_12  and  C_22
    7  A    between atoms: N_13  and  N_21
    8  A    between atoms: N_13  and  N_46
    9  A    between atoms: C_16  and  C_43
   10  A    between atoms: N_21  and  C_48
   11  A    between atoms: C_25  and  C_38
   12  A    between atoms: C_25  and  N_40
   13  A    between atoms: N_27  and  C_47
   14  A    between atoms: C_28  and  C_33
   15  A    between atoms: C_28  and  N_36
   16  A    between atoms: C_33  and  N_40
   17  A    between atoms: C_34  and  N_36
   18  A    between atoms: C_35  and  N_46
   19  A    between atoms: C_38  and  C_42
                            x       y       z     vdW  Elec       q    Type
                         _______ _______ _______ _____ _____    ______ ____

>  <TORSDO>
F 19

$$$$
=
 OpenBabel10222417123D

 51 57  0  0  1  0  0  0  0  0999 V2000
  189.8220  176.3960  138.1110 C   0  0  2  0  0  3  0  0  0  0  0  0
  188.3790  176.2120  137.9930 N   0  0  0  0  0  2  0  0  0  0  0  0
  188.0040  176.5970  136.6950 N   0  0  0  0  0  0  0  0  0  0  0  0
  187.4700  175.4060  136.0500 C   0  0  0  0  0  2  0  0  0  0  0  0
  188.0790  174.1690  136.6790 C   0  0  0  0  0  1  0  0  0  0  0  0
  186.9030  177.5390  136.8460 C   0  0  0  0  0  2  0  0  0  0  0  0
  185.8460  176.9840  137.7900 C   0  0  0  0  0  2  0  0  0  0  0  0
  184.5890  177.6980  137.6080 N   0  0  0  0  0  2  0  0  0  0  0  0
  183.8550  177.6090  138.8660 C   0  0  2  0  0  3  0  0  0  0  0  0
  182.9950  176.3570  138.8740 C   0  0  0  0  0  1  0  0  0  0  0  0
  182.9540  178.8240  139.0530 C   0  0  0  0  0  2  0  0  0  0  0  0
  180.9840  180.0100  138.2330 N   0  0  0  0  0  0  0  0  0  0  0  0
  181.5420  179.1890  137.1230 C   0  0  0  0  0  2  0  0  0  0  0  0
  180.1410  181.2940  139.9700 O   0  0  0  0  0  0  0  0  0  0  0  0
  181.5870  178.6550  138.3970 C   0  0  1  0  0  3  0  0  0  0  0  0
  180.3890  181.2010  138.7420 C   0  0  0  0  0  0  0  0  0  0  0  0
  180.3920  183.2760  135.5360 C   0  0  0  0  0  2  0  0  0  0  0  0
  178.9470  184.4910  137.5310 C   0  0  0  0  0  2  0  0  0  0  0  0
  180.1050  182.3300  137.8480 C   0  0  0  0  0  0  0  0  0  0  0  0
  181.5060  184.8400  137.2480 C   0  0  0  0  0  2  0  0  0  0  0  0
  180.8890  184.6960  135.8630 C   0  0  2  0  0  3  0  0  0  0  0  0
  179.3680  183.3110  138.2880 N   0  0  0  0  0  0  0  0  0  0  0  0
  180.6710  182.3210  136.5590 O   0  0  0  0  0  0  0  0  0  0  0  0
  180.1030  185.3670  136.9950 C   0  0  1  0  0  3  0  0  0  0  0  0
  190.1340  177.2260  139.2670 N   0  0  0  0  0  2  0  0  0  0  0  0
  188.3170  177.7420  141.0630 C   0  0  0  0  0  0  0  0  0  0  0  0
  189.1590  177.5020  140.2350 C   0  0  0  0  0  0  0  0  0  0  0  0
  185.9330  178.2790  146.6920 C   0  0  0  0  0  2  0  0  0  0  0  0
  187.3050  178.0380  142.0360 C   0  0  0  0  0  0  0  0  0  0  0  0
  185.3410  178.6260  143.9450 C   0  0  0  0  0  0  0  0  0  0  0  0
  184.3250  178.9140  144.9830 C   0  0  0  0  0  0  0  0  0  0  0  0
  186.4770  177.8780  144.3050 C   0  0  0  0  0  0  0  0  0  0  0  0
  184.6020  178.6910  146.2360 N   0  0  0  0  0  0  0  0  0  0  0  0
  186.5910  177.3250  145.6940 C   0  0  0  0  0  2  0  0  0  0  0  0
  186.1780  178.7830  141.6730 C   0  0  0  0  0  3  0  0  0  0  0  0
  185.1950  179.0760  142.6250 C   0  0  0  0  0  3  0  0  0  0  0  0
  187.4500  177.5780  143.3480 C   0  0  0  0  0  3  0  0  0  0  0  0
  182.0870  178.5950  144.2480 O   0  0  0  0  0  0  0  0  0  0  0  0
  182.9900  179.3950  144.6080 C   0  0  0  0  0  3  0  0  0  0  0  0
  190.3650  177.0020  136.8940 N   0  0  0  0  0  2  0  0  0  0  0  0
  191.6690  176.5200  136.6940 N   0  0  0  0  0  2  0  0  0  0  0  0
  191.7820  175.3280  137.4280 N   0  0  0  0  0  2  0  0  0  0  0  0
  194.4870  172.8650  137.2510 C   0  0  0  0  0  3  0  0  0  0  0  0
  194.2090  175.1570  137.7460 C   0  0  2  0  0  3  0  0  0  0  0  0
  193.9800  175.5850  136.3450 N   0  0  0  0  0  2  0  0  0  0  0  0
  193.1290  173.2050  136.7570 C   0  0  0  0  0  2  0  0  0  0  0  0
  195.0700  173.9370  137.7750 C   0  0  0  0  0  0  0  0  0  0  0  0
  193.0310  174.6990  137.0280 C   0  0  2  0  0  0  0  0  0  0  0  0
  196.4010  173.9210  138.3140 N   0  0  0  0  0  0  0  0  0  0  0  0
  197.5270  173.4250  137.5380 C   0  0  0  0  0  1  0  0  0  0  0  0
  196.6730  174.5070  139.6180 C   0  0  0  0  0  1  0  0  0  0  0  0
  1 40  1  6  0  0  0
  1 25  1  0  0  0  0
  2  1  1  0  0  0  0
  3  6  1  0  0  0  0
  3  2  1  0  0  0  0
  4  5  1  0  0  0  0
  4  3  1  0  0  0  0
  6  7  1  0  0  0  0
  8  7  1  0  0  0  0
  8  9  1  0  0  0  0
  9 10  1  6  0  0  0
  9 11  1  0  0  0  0
 12 15  1  0  0  0  0
 12 16  1  0  0  0  0
 13 12  1  0  0  0  0
 13 15  1  0  0  0  0
 15 11  1  1  0  0  0
 16 14  2  0  0  0  0
 17 23  1  0  0  0  0
 18 22  1  0  0  0  0
 19 22  2  0  0  0  0
 19 16  1  0  0  0  0
 21 17  1  1  0  0  0
 21 24  1  0  0  0  0
 21 20  1  0  0  0  0
 23 19  1  0  0  0  0
 24 20  1  1  0  0  0
 24 18  1  0  0  0  0
 25 27  1  0  0  0  0
 26 29  1  0  0  0  0
 27 26  3  0  0  0  0
 29 37  1  0  0  0  0
 30 32  1  0  0  0  0
 30 31  1  0  0  0  0
 31 33  2  0  0  0  0
 32 34  1  0  0  0  0
 33 28  1  0  0  0  0
 34 28  1  0  0  0  0
 35 29  2  0  0  0  0
 35 36  1  0  0  0  0
 36 30  2  0  0  0  0
 37 32  2  0  0  0  0
 38 39  2  0  0  0  0
 39 31  1  0  0  0  0
 41 40  1  0  0  0  0
 41 42  1  0  0  0  0
 43 47  2  0  0  0  0
 44 45  1  6  0  0  0
 44 47  1  0  0  0  0
 45 48  1  0  0  0  0
 46 48  1  0  0  0  0
 46 43  1  0  0  0  0
 47 49  1  0  0  0  0
 48 42  1  1  0  0  0
 48 44  1  0  0  0  0
 49 51  1  0  0  0  0
 50 49  1  0  0  0  0
M  END
>  <MODEL>
6

>  <REMARK>
 VINA RESULT:      -6.8      3.801      7.348
  Name = 
  19 active torsions:
  status: ('A' for Active; 'I' for Inactive)
    1  A    between atoms: N_1  and  C_35
    2  A    between atoms: N_1  and  C_51
    3  A    between atoms: C_7  and  C_30
    4  A    between atoms: N_9  and  C_35
    5  A    between atoms: N_9  and  N_36
    6  A    between atoms: CA_12  and  C_22
    7  A    between atoms: N_13  and  N_21
    8  A    between atoms: N_13  and  N_46
    9  A    between atoms: C_16  and  C_43
   10  A    between atoms: N_21  and  C_48
   11  A    between atoms: C_25  and  C_38
   12  A    between atoms: C_25  and  N_40
   13  A    between atoms: N_27  and  C_47
   14  A    between atoms: C_28  and  C_33
   15  A    between atoms: C_28  and  N_36
   16  A    between atoms: C_33  and  N_40
   17  A    between atoms: C_34  and  N_36
   18  A    between atoms: C_35  and  N_46
   19  A    between atoms: C_38  and  C_42
                            x       y       z     vdW  Elec       q    Type
                         _______ _______ _______ _____ _____    ______ ____

>  <TORSDO>
F 19

$$$$
=
 OpenBabel10222417123D

 51 57  0  0  1  0  0  0  0  0999 V2000
  187.4650  178.0720  138.1110 C   0  0  2  0  0  3  0  0  0  0  0  0
  186.9770  176.8980  137.3940 N   0  0  0  0  0  2  0  0  0  0  0  0
  186.7080  177.2860  136.0720 N   0  0  0  0  0  0  0  0  0  0  0  0
  187.5920  176.4990  135.2230 C   0  0  0  0  0  2  0  0  0  0  0  0
  188.8930  177.2460  135.0100 C   0  0  0  0  0  1  0  0  0  0  0  0
  185.3430  176.8630  135.7870 C   0  0  0  0  0  2  0  0  0  0  0  0
  185.3320  175.4860  135.1380 C   0  0  0  0  0  2  0  0  0  0  0  0
  184.8630  174.4880  136.0910 N   0  0  0  0  0  2  0  0  0  0  0  0
  185.1150  173.1770  135.5040 C   0  0  2  0  0  3  0  0  0  0  0  0
  184.7130  172.0870  136.4820 C   0  0  0  0  0  1  0  0  0  0  0  0
  186.5920  173.0120  135.1650 C   0  0  0  0  0  2  0  0  0  0  0  0
  188.7890  173.0890  136.2250 N   0  0  0  0  0  0  0  0  0  0  0  0
  187.7670  173.5280  137.2150 C   0  0  0  0  0  2  0  0  0  0  0  0
  190.3670  172.4200  134.6630 O   0  0  0  0  0  0  0  0  0  0  0  0
  187.4190  172.5120  136.3450 C   0  0  1  0  0  3  0  0  0  0  0  0
  190.0700  173.1920  135.6070 C   0  0  0  0  0  0  0  0  0  0  0  0
  193.0410  175.5840  135.4160 C   0  0  0  0  0  2  0  0  0  0  0  0
  191.6620  175.8640  137.7750 C   0  0  0  0  0  2  0  0  0  0  0  0
  191.0220  174.2230  136.0410 C   0  0  0  0  0  0  0  0  0  0  0  0
  193.5830  174.1400  137.4740 C   0  0  0  0  0  2  0  0  0  0  0  0
  193.9250  175.3800  136.6600 C   0  0  2  0  0  3  0  0  0  0  0  0
  190.8470  174.7930  137.2000 N   0  0  0  0  0  0  0  0  0  0  0  0
  192.1070  174.5290  135.1970 O   0  0  0  0  0  0  0  0  0  0  0  0
  193.1540  175.5080  137.9780 C   0  0  1  0  0  3  0  0  0  0  0  0
  188.8020  177.8280  138.6330 N   0  0  0  0  0  2  0  0  0  0  0  0
  189.2020  177.5280  141.1920 C   0  0  0  0  0  0  0  0  0  0  0  0
  189.0150  177.6640  140.0090 C   0  0  0  0  0  0  0  0  0  0  0  0
  187.6790  177.0870  147.1200 C   0  0  0  0  0  2  0  0  0  0  0  0
  189.4390  177.3800  142.5990 C   0  0  0  0  0  0  0  0  0  0  0  0
  189.8880  177.0790  145.3480 C   0  0  0  0  0  0  0  0  0  0  0  0
  190.0850  176.9360  146.8080 C   0  0  0  0  0  0  0  0  0  0  0  0
  188.6440  177.5410  144.8800 C   0  0  0  0  0  0  0  0  0  0  0  0
  189.0590  177.0010  147.6080 N   0  0  0  0  0  0  0  0  0  0  0  0
  187.5880  177.9530  145.8620 C   0  0  0  0  0  2  0  0  0  0  0  0
  190.6770  176.9190  143.0590 C   0  0  0  0  0  3  0  0  0  0  0  0
  190.9040  176.7700  144.4320 C   0  0  0  0  0  3  0  0  0  0  0  0
  188.4270  177.7000  143.5090 C   0  0  0  0  0  3  0  0  0  0  0  0
  191.8980  175.6360  147.6320 O   0  0  0  0  0  0  0  0  0  0  0  0
  191.4330  176.7760  147.3670 C   0  0  0  0  0  3  0  0  0  0  0  0
  186.5540  178.4240  139.2020 N   0  0  0  0  0  2  0  0  0  0  0  0
  185.4000  179.0080  138.6540 N   0  0  0  0  0  2  0  0  0  0  0  0
  184.6320  179.4840  139.7290 N   0  0  0  0  0  2  0  0  0  0  0  0
  182.4500  176.5450  139.5810 C   0  0  0  0  0  3  0  0  0  0  0  0
  182.6480  178.6580  138.5450 C   0  0  2  0  0  3  0  0  0  0  0  0
  182.1680  179.4400  139.7090 N   0  0  0  0  0  2  0  0  0  0  0  0
  183.3880  177.3100  140.4400 C   0  0  0  0  0  2  0  0  0  0  0  0
  182.0440  177.2920  138.5610 C   0  0  0  0  0  0  0  0  0  0  0  0
  183.4210  178.6790  139.7760 C   0  0  2  0  0  0  0  0  0  0  0  0
  181.1110  176.8280  137.5720 N   0  0  0  0  0  0  0  0  0  0  0  0
  181.5570  176.3510  136.2720 C   0  0  0  0  0  1  0  0  0  0  0  0
  179.6950  176.7230  137.8900 C   0  0  0  0  0  1  0  0  0  0  0  0
  1  2  1  1  0  0  0
  1 25  1  0  0  0  0
  1 40  1  0  0  0  0
  3  2  1  0  0  0  0
  4  3  1  0  0  0  0
  5  4  1  0  0  0  0
  6  3  1  0  0  0  0
  7  6  1  0  0  0  0
  7  8  1  0  0  0  0
  9  8  1  0  0  0  0
  9 10  1  1  0  0  0
 11  9  1  0  0  0  0
 12 15  1  0  0  0  0
 12 13  1  0  0  0  0
 14 16  2  0  0  0  0
 15 11  1  6  0  0  0
 15 13  1  0  0  0  0
 16 19  1  0  0  0  0
 16 12  1  0  0  0  0
 18 24  1  0  0  0  0
 19 22  2  0  0  0  0
 21 17  1  6  0  0  0
 21 20  1  0  0  0  0
 21 24  1  0  0  0  0
 22 18  1  0  0  0  0
 23 17  1  0  0  0  0
 23 19  1  0  0  0  0
 24 20  1  6  0  0  0
 25 27  1  0  0  0  0
 26 29  1  0  0  0  0
 27 26  3  0  0  0  0
 28 33  1  0  0  0  0
 29 35  2  0  0  0  0
 29 37  1  0  0  0  0
 30 31  1  0  0  0  0
 31 39  1  0  0  0  0
 31 33  2  0  0  0  0
 32 30  1  0  0  0  0
 32 34  1  0  0  0  0
 34 28  1  0  0  0  0
 35 36  1  0  0  0  0
 36 30  2  0  0  0  0
 37 32  2  0  0  0  0
 39 38  2  0  0  0  0
 41 40  1  0  0  0  0
 41 42  1  0  0  0  0
 43 46  1  0  0  0  0
 44 47  1  1  0  0  0
 44 45  1  0  0  0  0
 44 48  1  0  0  0  0
 45 48  1  0  0  0  0
 47 43  2  0  0  0  0
 48 42  1  1  0  0  0
 48 46  1  0  0  0  0
 49 51  1  0  0  0  0
 49 47  1  0  0  0  0
 50 49  1  0  0  0  0
M  END
>  <MODEL>
7

>  <REMARK>
 VINA RESULT:      -6.7      3.610      8.670
  Name = 
  19 active torsions:
  status: ('A' for Active; 'I' for Inactive)
    1  A    between atoms: N_1  and  C_35
    2  A    between atoms: N_1  and  C_51
    3  A    between atoms: C_7  and  C_30
    4  A    between atoms: N_9  and  C_35
    5  A    between atoms: N_9  and  N_36
    6  A    between atoms: CA_12  and  C_22
    7  A    between atoms: N_13  and  N_21
    8  A    between atoms: N_13  and  N_46
    9  A    between atoms: C_16  and  C_43
   10  A    between atoms: N_21  and  C_48
   11  A    between atoms: C_25  and  C_38
   12  A    between atoms: C_25  and  N_40
   13  A    between atoms: N_27  and  C_47
   14  A    between atoms: C_28  and  C_33
   15  A    between atoms: C_28  and  N_36
   16  A    between atoms: C_33  and  N_40
   17  A    between atoms: C_34  and  N_36
   18  A    between atoms: C_35  and  N_46
   19  A    between atoms: C_38  and  C_42
                            x       y       z     vdW  Elec       q    Type
                         _______ _______ _______ _____ _____    ______ ____

>  <TORSDO>
F 19

$$$$
=
 OpenBabel10222417123D

 51 57  0  0  1  0  0  0  0  0999 V2000
  184.2400  178.6230  138.7250 C   0  0  2  0  0  3  0  0  0  0  0  0
  185.5960  179.0130  138.3520 N   0  0  0  0  0  2  0  0  0  0  0  0
  186.3340  177.8390  138.1310 N   0  0  0  0  0  0  0  0  0  0  0  0
  186.4640  177.7000  136.6870 C   0  0  0  0  0  2  0  0  0  0  0  0
  187.3480  178.8050  136.1460 C   0  0  0  0  0  1  0  0  0  0  0  0
  187.6670  178.0820  138.6650 C   0  0  0  0  0  2  0  0  0  0  0  0
  188.5370  176.8420  138.5220 C   0  0  0  0  0  2  0  0  0  0  0  0
  189.9420  177.2230  138.4420 N   0  0  0  0  0  2  0  0  0  0  0  0
  190.5950  176.2790  137.5410 C   0  0  2  0  0  3  0  0  0  0  0  0
  189.6370  175.1520  137.1930 C   0  0  0  0  0  1  0  0  0  0  0  0
  191.8380  175.6830  138.1930 C   0  0  0  0  0  2  0  0  0  0  0  0
  194.1680  175.4260  137.5120 N   0  0  0  0  0  0  0  0  0  0  0  0
  193.4670  176.2710  136.5050 C   0  0  0  0  0  2  0  0  0  0  0  0
  195.2350  174.0950  139.0810 O   0  0  0  0  0  0  0  0  0  0  0  0
  193.1150  176.4340  137.8310 C   0  0  1  0  0  3  0  0  0  0  0  0
  195.0900  174.4010  137.8720 C   0  0  0  0  0  0  0  0  0  0  0  0
  196.1030  171.5040  135.6000 C   0  0  0  0  0  2  0  0  0  0  0  0
  197.5560  173.7710  135.0630 C   0  0  0  0  0  2  0  0  0  0  0  0
  195.8370  173.6760  136.8360 C   0  0  0  0  0  0  0  0  0  0  0  0
  198.2760  172.0440  136.8650 C   0  0  0  0  0  2  0  0  0  0  0  0
  197.6230  171.2880  135.7160 C   0  0  2  0  0  3  0  0  0  0  0  0
  196.7490  174.3140  136.1570 N   0  0  0  0  0  0  0  0  0  0  0  0
  195.5570  172.3100  136.6420 O   0  0  0  0  0  0  0  0  0  0  0  0
  198.4370  172.5580  135.4440 C   0  0  1  0  0  3  0  0  0  0  0  0
  183.9010  179.1570  140.0360 N   0  0  0  0  0  2  0  0  0  0  0  0
  185.3300  178.5630  142.1340 C   0  0  0  0  0  0  0  0  0  0  0  0
  184.6700  178.8350  141.1620 C   0  0  0  0  0  0  0  0  0  0  0  0
  190.4330  177.1990  145.2570 C   0  0  0  0  0  2  0  0  0  0  0  0
  186.1140  178.2580  143.2960 C   0  0  0  0  0  0  0  0  0  0  0  0
  187.6590  177.6760  145.5590 C   0  0  0  0  0  0  0  0  0  0  0  0
  188.5060  177.3520  146.7300 C   0  0  0  0  0  0  0  0  0  0  0  0
  188.1680  177.4270  144.2710 C   0  0  0  0  0  0  0  0  0  0  0  0
  189.7670  177.0790  146.5570 N   0  0  0  0  0  0  0  0  0  0  0  0
  189.5070  176.7690  144.1170 C   0  0  0  0  0  2  0  0  0  0  0  0
  185.6030  178.5090  144.5740 C   0  0  0  0  0  3  0  0  0  0  0  0
  186.3730  178.2170  145.7050 C   0  0  0  0  0  3  0  0  0  0  0  0
  187.3910  177.7090  143.1450 C   0  0  0  0  0  3  0  0  0  0  0  0
  188.3160  178.0460  148.9960 O   0  0  0  0  0  0  0  0  0  0  0  0
  187.9240  177.2810  148.0760 C   0  0  0  0  0  3  0  0  0  0  0  0
  184.1060  177.1640  138.7240 N   0  0  0  0  0  2  0  0  0  0  0  0
  183.0590  176.8080  137.8580 N   0  0  0  0  0  2  0  0  0  0  0  0
  182.2320  175.9170  138.5610 N   0  0  0  0  0  2  0  0  0  0  0  0
  179.9740  178.7490  139.1050 C   0  0  0  0  0  3  0  0  0  0  0  0
  181.0140  177.0450  140.3670 C   0  0  2  0  0  3  0  0  0  0  0  0
  180.1480  175.9470  139.8760 N   0  0  0  0  0  2  0  0  0  0  0  0
  180.4610  177.7690  138.1030 C   0  0  0  0  0  2  0  0  0  0  0  0
  180.2690  178.3390  140.3330 C   0  0  0  0  0  0  0  0  0  0  0  0
  181.0500  176.6620  138.9650 C   0  0  2  0  0  0  0  0  0  0  0  0
  179.9020  179.0710  141.5130 N   0  0  0  0  0  0  0  0  0  0  0  0
  179.6600  180.5050  141.4730 C   0  0  0  0  0  1  0  0  0  0  0  0
  179.6550  178.3710  142.7650 C   0  0  0  0  0  1  0  0  0  0  0  0
  1  2  1  1  0  0  0
  1 25  1  0  0  0  0
  3  2  1  0  0  0  0
  3  6  1  0  0  0  0
  4  3  1  0  0  0  0
  5  4  1  0  0  0  0
  7  6  1  0  0  0  0
  8  7  1  0  0  0  0
  9 10  1  1  0  0  0
  9 11  1  0  0  0  0
  9  8  1  0  0  0  0
 12 15  1  0  0  0  0
 12 16  1  0  0  0  0
 13 12  1  0  0  0  0
 13 15  1  0  0  0  0
 15 11  1  6  0  0  0
 16 14  2  0  0  0  0
 17 23  1  0  0  0  0
 18 22  1  0  0  0  0
 19 16  1  0  0  0  0
 21 17  1  1  0  0  0
 21 20  1  0  0  0  0
 22 19  2  0  0  0  0
 23 19  1  0  0  0  0
 24 18  1  1  0  0  0
 24 21  1  0  0  0  0
 24 20  1  0  0  0  0
 25 27  1  0  0  0  0
 26 29  1  0  0  0  0
 27 26  3  0  0  0  0
 28 33  1  0  0  0  0
 29 35  1  0  0  0  0
 30 36  1  0  0  0  0
 30 31  1  0  0  0  0
 31 39  1  0  0  0  0
 32 30  2  0  0  0  0
 33 31  2  0  0  0  0
 34 32  1  0  0  0  0
 34 28  1  0  0  0  0
 35 36  2  0  0  0  0
 37 29  2  0  0  0  0
 37 32  1  0  0  0  0
 39 38  2  0  0  0  0
 40  1  1  0  0  0  0
 41 42  1  0  0  0  0
 41 40  1  0  0  0  0
 43 47  2  0  0  0  0
 44 45  1  1  0  0  0
 46 48  1  0  0  0  0
 46 43  1  0  0  0  0
 47 44  1  0  0  0  0
 47 49  1  0  0  0  0
 48 42  1  6  0  0  0
 48 45  1  0  0  0  0
 48 44  1  0  0  0  0
 49 51  1  0  0  0  0
 50 49  1  0  0  0  0
M  END
>  <MODEL>
8

>  <REMARK>
 VINA RESULT:      -6.7      4.334     10.121
  Name = 
  19 active torsions:
  status: ('A' for Active; 'I' for Inactive)
    1  A    between atoms: N_1  and  C_35
    2  A    between atoms: N_1  and  C_51
    3  A    between atoms: C_7  and  C_30
    4  A    between atoms: N_9  and  C_35
    5  A    between atoms: N_9  and  N_36
    6  A    between atoms: CA_12  and  C_22
    7  A    between atoms: N_13  and  N_21
    8  A    between atoms: N_13  and  N_46
    9  A    between atoms: C_16  and  C_43
   10  A    between atoms: N_21  and  C_48
   11  A    between atoms: C_25  and  C_38
   12  A    between atoms: C_25  and  N_40
   13  A    between atoms: N_27  and  C_47
   14  A    between atoms: C_28  and  C_33
   15  A    between atoms: C_28  and  N_36
   16  A    between atoms: C_33  and  N_40
   17  A    between atoms: C_34  and  N_36
   18  A    between atoms: C_35  and  N_46
   19  A    between atoms: C_38  and  C_42
                            x       y       z     vdW  Elec       q    Type
                         _______ _______ _______ _____ _____    ______ ____

>  <TORSDO>
F 19

$$$$
=
 OpenBabel10222417123D

 51 57  0  0  1  0  0  0  0  0999 V2000
  187.2640  178.2490  138.0000 C   0  0  2  0  0  3  0  0  0  0  0  0
  187.4070  177.0330  137.2060 N   0  0  0  0  0  2  0  0  0  0  0  0
  187.1630  177.3660  135.8640 N   0  0  0  0  0  0  0  0  0  0  0  0
  188.1800  176.6830  135.0780 C   0  0  0  0  0  2  0  0  0  0  0  0
  189.5080  177.3990  135.2270 C   0  0  0  0  0  1  0  0  0  0  0  0
  185.8770  176.7750  135.5180 C   0  0  0  0  0  2  0  0  0  0  0  0
  186.0730  175.4670  134.7650 C   0  0  0  0  0  2  0  0  0  0  0  0
  185.7660  174.3390  135.6350 N   0  0  0  0  0  2  0  0  0  0  0  0
  186.1810  173.1280  134.9350 C   0  0  2  0  0  3  0  0  0  0  0  0
  185.7020  171.9030  135.6950 C   0  0  0  0  0  1  0  0  0  0  0  0
  187.6990  173.0680  134.8140 C   0  0  0  0  0  2  0  0  0  0  0  0
  189.8240  172.8870  136.0020 N   0  0  0  0  0  0  0  0  0  0  0  0
  188.8350  173.5560  136.8930 C   0  0  0  0  0  2  0  0  0  0  0  0
  191.3530  171.8610  134.5940 O   0  0  0  0  0  0  0  0  0  0  0  0
  188.3740  172.5410  136.0760 C   0  0  1  0  0  3  0  0  0  0  0  0
  191.1350  172.7430  135.4610 C   0  0  0  0  0  0  0  0  0  0  0  0
  194.1050  174.0160  137.4950 C   0  0  0  0  0  2  0  0  0  0  0  0
  193.4840  175.7170  135.4300 C   0  0  0  0  0  2  0  0  0  0  0  0
  192.2150  173.6440  135.8800 C   0  0  0  0  0  0  0  0  0  0  0  0
  192.3620  175.8890  137.7670 C   0  0  0  0  0  2  0  0  0  0  0  0
  193.8080  175.4530  137.9640 C   0  0  2  0  0  3  0  0  0  0  0  0
  192.4310  174.7290  135.1900 N   0  0  0  0  0  0  0  0  0  0  0  0
  192.9530  173.3140  137.0330 O   0  0  0  0  0  0  0  0  0  0  0  0
  193.4340  176.3990  136.8170 C   0  0  1  0  0  3  0  0  0  0  0  0
  188.5010  178.5390  138.7110 N   0  0  0  0  0  2  0  0  0  0  0  0
  188.7290  178.0180  141.2550 C   0  0  0  0  0  0  0  0  0  0  0  0
  188.6240  178.2560  140.0780 C   0  0  0  0  0  0  0  0  0  0  0  0
  191.6760  176.7970  146.4970 C   0  0  0  0  0  2  0  0  0  0  0  0
  188.8510  177.7550  142.6610 C   0  0  0  0  0  0  0  0  0  0  0  0
  189.1040  177.2530  145.4050 C   0  0  0  0  0  0  0  0  0  0  0  0
  189.2770  176.9720  146.8480 C   0  0  0  0  0  0  0  0  0  0  0  0
  190.1720  176.9730  144.5320 C   0  0  0  0  0  0  0  0  0  0  0  0
  190.4630  176.7070  147.3160 N   0  0  0  0  0  0  0  0  0  0  0  0
  191.4150  176.3260  145.0650 C   0  0  0  0  0  2  0  0  0  0  0  0
  187.7870  178.0370  143.5230 C   0  0  0  0  0  3  0  0  0  0  0  0
  187.9110  177.7850  144.8940 C   0  0  0  0  0  3  0  0  0  0  0  0
  190.0390  177.2150  143.1630 C   0  0  0  0  0  3  0  0  0  0  0  0
  187.5790  177.9930  148.1620 O   0  0  0  0  0  0  0  0  0  0  0  0
  188.1160  176.9330  147.7460 C   0  0  0  0  0  3  0  0  0  0  0  0
  186.1550  178.1180  138.9480 N   0  0  0  0  0  2  0  0  0  0  0  0
  185.3360  179.2540  138.8430 N   0  0  0  0  0  2  0  0  0  0  0  0
  184.6950  179.4120  140.0820 N   0  0  0  0  0  2  0  0  0  0  0  0
  181.1230  179.5990  139.2940 C   0  0  0  0  0  3  0  0  0  0  0  0
  182.5060  178.9960  141.1110 C   0  0  2  0  0  3  0  0  0  0  0  0
  182.9660  177.7130  140.5280 N   0  0  0  0  0  2  0  0  0  0  0  0
  182.4810  179.4550  138.7140 C   0  0  0  0  0  2  0  0  0  0  0  0
  181.1460  179.3350  140.5960 C   0  0  0  0  0  0  0  0  0  0  0  0
  183.3130  178.9940  139.9010 C   0  0  2  0  0  0  0  0  0  0  0  0
  179.9730  179.3690  141.4240 N   0  0  0  0  0  0  0  0  0  0  0  0
  179.3500  180.6270  141.8060 C   0  0  0  0  0  1  0  0  0  0  0  0
  179.3120  178.1320  141.8130 C   0  0  0  0  0  1  0  0  0  0  0  0
  1  2  1  1  0  0  0
  1 25  1  0  0  0  0
  1 40  1  0  0  0  0
  3  2  1  0  0  0  0
  4  5  1  0  0  0  0
  4  3  1  0  0  0  0
  6  3  1  0  0  0  0
  7  6  1  0  0  0  0
  7  8  1  0  0  0  0
  9  8  1  0  0  0  0
  9 10  1  1  0  0  0
 11  9  1  0  0  0  0
 12 15  1  0  0  0  0
 12 13  1  0  0  0  0
 14 16  2  0  0  0  0
 15 11  1  6  0  0  0
 15 13  1  0  0  0  0
 16 19  1  0  0  0  0
 16 12  1  0  0  0  0
 19 23  1  0  0  0  0
 20 21  1  0  0  0  0
 21 17  1  6  0  0  0
 22 18  1  0  0  0  0
 22 19  2  0  0  0  0
 23 17  1  0  0  0  0
 24 18  1  6  0  0  0
 24 20  1  0  0  0  0
 24 21  1  0  0  0  0
 25 27  1  0  0  0  0
 26 29  1  0  0  0  0
 27 26  3  0  0  0  0
 28 33  1  0  0  0  0
 29 37  2  0  0  0  0
 29 35  1  0  0  0  0
 30 31  1  0  0  0  0
 31 33  2  0  0  0  0
 31 39  1  0  0  0  0
 32 34  1  0  0  0  0
 32 30  2  0  0  0  0
 34 28  1  0  0  0  0
 35 36  2  0  0  0  0
 36 30  1  0  0  0  0
 37 32  1  0  0  0  0
 39 38  2  0  0  0  0
 41 40  1  0  0  0  0
 41 42  1  0  0  0  0
 43 47  2  0  0  0  0
 44 45  1  6  0  0  0
 46 43  1  0  0  0  0
 46 48  1  0  0  0  0
 47 44  1  0  0  0  0
 47 49  1  0  0  0  0
 48 42  1  1  0  0  0
 48 45  1  0  0  0  0
 48 44  1  0  0  0  0
 49 50  1  0  0  0  0
 49 51  1  0  0  0  0
M  END
>  <MODEL>
9

>  <REMARK>
 VINA RESULT:      -6.7      3.796      8.609
  Name = 
  19 active torsions:
  status: ('A' for Active; 'I' for Inactive)
    1  A    between atoms: N_1  and  C_35
    2  A    between atoms: N_1  and  C_51
    3  A    between atoms: C_7  and  C_30
    4  A    between atoms: N_9  and  C_35
    5  A    between atoms: N_9  and  N_36
    6  A    between atoms: CA_12  and  C_22
    7  A    between atoms: N_13  and  N_21
    8  A    between atoms: N_13  and  N_46
    9  A    between atoms: C_16  and  C_43
   10  A    between atoms: N_21  and  C_48
   11  A    between atoms: C_25  and  C_38
   12  A    between atoms: C_25  and  N_40
   13  A    between atoms: N_27  and  C_47
   14  A    between atoms: C_28  and  C_33
   15  A    between atoms: C_28  and  N_36
   16  A    between atoms: C_33  and  N_40
   17  A    between atoms: C_34  and  N_36
   18  A    between atoms: C_35  and  N_46
   19  A    between atoms: C_38  and  C_42
                            x       y       z     vdW  Elec       q    Type
                         _______ _______ _______ _____ _____    ______ ____

>  <TORSDO>
F 19

$$$$
