=
 OpenBabel10222416393D

 30 34  0  0  1  0  0  0  0  0999 V2000
  189.6940  176.5060  139.3610 C   0  0  0  0  0  0  0  0  0  0  0  0
  188.1820  176.7730  137.3570 C   0  0  0  0  0  0  0  0  0  0  0  0
  185.7320  178.9290  142.3870 C   0  0  2  0  0  3  0  0  0  0  0  0
  189.3030  176.3640  146.1130 C   0  0  0  0  0  1  0  0  0  0  0  0
  186.7250  178.2890  138.3250 N   0  0  0  0  0  0  0  0  0  0  0  0
  188.6810  177.5480  141.4390 C   0  0  1  0  0  3  0  0  0  0  0  0
  188.5410  176.9780  138.6060 C   0  0  2  0  0  3  0  0  0  0  0  0
  186.9550  177.5750  137.0650 C   0  0  0  0  0  3  0  0  0  0  0  0
  189.8120  176.9330  140.7210 N   0  0  0  0  0  2  0  0  0  0  0  0
  190.9460  179.2640  144.1180 C   0  0  0  0  0  2  0  0  0  0  0  0
  189.7920  177.0950  144.8750 C   0  0  2  0  0  3  0  0  0  0  0  0
  190.6050  178.6870  142.7470 C   0  0  0  0  0  2  0  0  0  0  0  0
  185.7030  177.6660  143.2330 C   0  0  0  0  0  2  0  0  0  0  0  0
  190.7500  178.2400  145.2450 C   0  0  1  0  0  3  0  0  0  0  0  0
  187.6120  177.9030  139.1840 C   0  0  0  0  0  0  0  0  0  0  0  0
  189.1280  178.2690  142.7130 C   0  0  2  0  0  3  0  0  0  0  0  0
  191.9870  177.7140  145.6140 O   0  0  0  0  0  1  0  0  0  0  0  0
  187.6460  178.4560  144.6950 C   0  0  0  0  0  2  0  0  0  0  0  0
  188.8490  175.9580  136.4530 O   0  0  0  0  0  1  0  0  0  0  0  0
  185.0380  178.7150  141.1910 C   0  0  0  0  0  0  0  0  0  0  0  0
  186.4810  178.6730  141.2330 C   0  0  0  0  0  0  0  0  0  0  0  0
  190.5830  175.7860  138.8340 O   0  0  0  0  0  0  0  0  0  0  0  0
  187.8050  178.4790  140.5610 C   0  0  1  0  0  3  0  0  0  0  0  0
  186.2180  177.9130  144.6490 C   0  0  0  0  0  2  0  0  0  0  0  0
  188.6310  177.5410  143.9700 C   0  0  2  0  0  3  0  0  0  0  0  0
  183.8180  178.6010  140.4630 N   0  0  0  0  0  2  0  0  0  0  0  0
  182.2170  179.3410  138.7430 N   0  0  0  0  0  2  0  0  0  0  0  0
  181.7910  180.2360  137.6810 C   0  0  0  0  0  1  0  0  0  0  0  0
  184.2230  180.4700  139.1230 O   0  0  0  0  0  0  0  0  0  0  0  0
  183.4560  179.5160  139.4280 C   0  0  0  0  0  0  0  0  0  0  0  0
  1  9  1  0  0  0  0
  3 13  1  1  0  0  0
  5 15  2  0  0  0  0
  6  9  1  6  0  0  0
  6 16  1  0  0  0  0
  7  2  1  6  0  0  0
  7 15  1  0  0  0  0
  7  1  1  0  0  0  0
  8  2  2  0  0  0  0
  8  5  1  0  0  0  0
 10 14  1  0  0  0  0
 11 14  1  0  0  0  0
 11  4  1  1  0  0  0
 12 10  1  0  0  0  0
 13 24  1  0  0  0  0
 14 17  1  6  0  0  0
 16 12  1  1  0  0  0
 16 25  1  0  0  0  0
 19  2  1  0  0  0  0
 20 21  2  0  0  0  0
 20  3  1  0  0  0  0
 21  3  1  0  0  0  0
 22  1  2  0  0  0  0
 23 15  1  6  0  0  0
 23 21  1  0  0  0  0
 23  6  1  0  0  0  0
 24 18  1  0  0  0  0
 25 18  1  1  0  0  0
 25 11  1  0  0  0  0
 26 20  1  0  0  0  0
 27 30  1  0  0  0  0
 28 27  1  0  0  0  0
 29 30  2  0  0  0  0
 30 26  1  0  0  0  0
M  END
>  <MODEL>
1

>  <REMARK>
 VINA RESULT:      -8.9      0.000      0.000
  Name = 
  1 active torsions:
  status: ('A' for Active; 'I' for Inactive)
    1  A    between atoms: N_2  and  C_24
                            x       y       z     vdW  Elec       q    Type
                         _______ _______ _______ _____ _____    ______ ____

>  <TORSDO>
F 1

$$$$
=
 OpenBabel10222416393D

 30 34  0  0  1  0  0  0  0  0999 V2000
  189.9080  176.4590  139.4360 C   0  0  0  0  0  0  0  0  0  0  0  0
  188.5260  176.7940  137.3500 C   0  0  0  0  0  0  0  0  0  0  0  0
  185.8890  179.0460  142.2410 C   0  0  2  0  0  3  0  0  0  0  0  0
  189.1280  176.3240  146.1550 C   0  0  0  0  0  1  0  0  0  0  0  0
  187.0830  178.3700  138.2400 N   0  0  0  0  0  0  0  0  0  0  0  0
  188.8250  177.5410  141.4570 C   0  0  1  0  0  3  0  0  0  0  0  0
  188.8220  176.9820  138.6190 C   0  0  2  0  0  3  0  0  0  0  0  0
  187.3530  177.6490  136.9930 C   0  0  0  0  0  3  0  0  0  0  0  0
  189.9670  176.8780  140.8020 N   0  0  0  0  0  2  0  0  0  0  0  0
  191.0060  179.1540  144.2670 C   0  0  0  0  0  2  0  0  0  0  0  0
  189.7180  177.0360  144.9490 C   0  0  2  0  0  3  0  0  0  0  0  0
  190.7180  178.5930  142.8770 C   0  0  0  0  0  2  0  0  0  0  0  0
  185.7570  177.7840  143.0790 C   0  0  0  0  0  2  0  0  0  0  0  0
  190.7010  178.1370  145.3770 C   0  0  1  0  0  3  0  0  0  0  0  0
  187.9020  177.9440  139.1470 C   0  0  0  0  0  0  0  0  0  0  0  0
  189.2290  178.2400  142.7570 C   0  0  2  0  0  3  0  0  0  0  0  0
  191.8920  177.5580  145.8140 O   0  0  0  0  0  1  0  0  0  0  0  0
  187.6460  178.4880  144.6520 C   0  0  0  0  0  2  0  0  0  0  0  0
  189.2080  175.9520  136.4830 O   0  0  0  0  0  1  0  0  0  0  0  0
  185.2550  178.8650  141.0070 C   0  0  0  0  0  0  0  0  0  0  0  0
  186.6900  178.7600  141.1310 C   0  0  0  0  0  0  0  0  0  0  0  0
  190.7940  175.7020  138.9580 O   0  0  0  0  0  0  0  0  0  0  0  0
  188.0400  178.5100  140.5340 C   0  0  1  0  0  3  0  0  0  0  0  0
  186.2010  178.0060  144.5240 C   0  0  0  0  0  2  0  0  0  0  0  0
  188.6300  177.5320  143.9810 C   0  0  2  0  0  3  0  0  0  0  0  0
  184.0740  178.8040  140.2110 N   0  0  0  0  0  2  0  0  0  0  0  0
  181.6310  178.6660  139.9260 N   0  0  0  0  0  2  0  0  0  0  0  0
  180.2770  178.5830  140.4460 C   0  0  0  0  0  1  0  0  0  0  0  0
  182.6230  178.7050  142.0380 O   0  0  0  0  0  0  0  0  0  0  0  0
  182.7690  178.7240  140.7850 C   0  0  0  0  0  0  0  0  0  0  0  0
  1  9  1  0  0  0  0
  3 13  1  1  0  0  0
  5 15  2  0  0  0  0
  6  9  1  6  0  0  0
  6 16  1  0  0  0  0
  7  2  1  6  0  0  0
  7 15  1  0  0  0  0
  7  1  1  0  0  0  0
  8  2  2  0  0  0  0
  8  5  1  0  0  0  0
 10 14  1  0  0  0  0
 11 14  1  0  0  0  0
 11  4  1  1  0  0  0
 12 10  1  0  0  0  0
 13 24  1  0  0  0  0
 14 17  1  6  0  0  0
 16 12  1  1  0  0  0
 16 25  1  0  0  0  0
 19  2  1  0  0  0  0
 20 21  2  0  0  0  0
 20  3  1  0  0  0  0
 21  3  1  0  0  0  0
 22  1  2  0  0  0  0
 23 15  1  6  0  0  0
 23 21  1  0  0  0  0
 23  6  1  0  0  0  0
 24 18  1  0  0  0  0
 25 18  1  1  0  0  0
 25 11  1  0  0  0  0
 26 30  1  0  0  0  0
 26 20  1  0  0  0  0
 27 28  1  0  0  0  0
 27 30  1  0  0  0  0
 30 29  2  0  0  0  0
M  END
>  <MODEL>
2

>  <REMARK>
 VINA RESULT:      -8.6      1.059      1.059
  Name = 
  1 active torsions:
  status: ('A' for Active; 'I' for Inactive)
    1  A    between atoms: N_2  and  C_24
                            x       y       z     vdW  Elec       q    Type
                         _______ _______ _______ _____ _____    ______ ____

>  <TORSDO>
F 1

$$$$
=
 OpenBabel10222416393D

 30 34  0  0  1  0  0  0  0  0999 V2000
  185.6370  178.6830  139.4850 C   0  0  0  0  0  0  0  0  0  0  0  0
  187.7760  178.6860  140.8260 C   0  0  0  0  0  0  0  0  0  0  0  0
  182.8890  178.6280  144.2980 C   0  0  2  0  0  3  0  0  0  0  0  0
  179.0840  180.1760  140.2560 C   0  0  0  0  0  1  0  0  0  0  0  0
  186.8230  178.0780  142.8460 N   0  0  0  0  0  0  0  0  0  0  0  0
  183.5980  178.5220  140.9830 C   0  0  1  0  0  3  0  0  0  0  0  0
  186.4730  178.5820  140.6740 C   0  0  0  0  0  0  0  0  0  0  0  0
  188.1240  178.4030  142.2510 C   0  0  0  0  0  2  0  0  0  0  0  0
  184.2290  178.4950  139.6520 N   0  0  0  0  0  2  0  0  0  0  0  0
  180.4260  176.5550  139.8330 C   0  0  0  0  0  2  0  0  0  0  0  0
  180.1340  179.1010  140.0300 C   0  0  2  0  0  3  0  0  0  0  0  0
  181.8950  176.9650  139.8060 C   0  0  0  0  0  2  0  0  0  0  0  0
  182.2320  179.9260  143.8580 C   0  0  0  0  0  2  0  0  0  0  0  0
  179.4850  177.7560  139.6650 C   0  0  1  0  0  3  0  0  0  0  0  0
  185.9100  178.2260  141.9420 C   0  0  0  0  0  0  0  0  0  0  0  0
  182.1890  177.9240  140.9680 C   0  0  2  0  0  3  0  0  0  0  0  0
  179.0220  177.8010  138.3500 O   0  0  0  0  0  1  0  0  0  0  0  0
  180.4240  178.7020  142.5290 C   0  0  0  0  0  2  0  0  0  0  0  0
  188.6810  178.9920  139.8180 O   0  0  0  0  0  1  0  0  0  0  0  0
  184.1870  178.8820  144.7540 C   0  0  0  0  0  0  0  0  0  0  0  0
  183.9520  178.3520  143.4310 C   0  0  0  0  0  0  0  0  0  0  0  0
  186.1280  178.8810  138.3420 O   0  0  0  0  0  0  0  0  0  0  0  0
  184.4550  177.8780  142.1040 C   0  0  1  0  0  3  0  0  0  0  0  0
  180.7380  179.7530  143.5940 C   0  0  0  0  0  2  0  0  0  0  0  0
  181.1220  179.0020  141.2040 C   0  0  2  0  0  3  0  0  0  0  0  0
  185.0840  179.3420  145.7620 N   0  0  0  0  0  2  0  0  0  0  0  0
  186.8800  179.0030  147.4140 N   0  0  0  0  0  2  0  0  0  0  0  0
  187.8450  178.1730  148.1140 C   0  0  0  0  0  1  0  0  0  0  0  0
  186.0630  177.2500  146.1080 O   0  0  0  0  0  0  0  0  0  0  0  0
  186.0120  178.4730  146.4130 C   0  0  0  0  0  0  0  0  0  0  0  0
  1  9  1  0  0  0  0
  1  7  1  0  0  0  0
  2  8  1  0  0  0  0
  3 13  1  6  0  0  0
  3 20  1  0  0  0  0
  6  9  1  6  0  0  0
  6 23  1  0  0  0  0
  7  2  2  0  0  0  0
  7 15  1  0  0  0  0
  8  5  1  0  0  0  0
 11  4  1  1  0  0  0
 11 25  1  0  0  0  0
 12 10  1  0  0  0  0
 14 17  1  6  0  0  0
 14 10  1  0  0  0  0
 14 11  1  0  0  0  0
 15  5  2  0  0  0  0
 16 12  1  6  0  0  0
 16  6  1  0  0  0  0
 16 25  1  0  0  0  0
 18 24  1  0  0  0  0
 19  2  1  0  0  0  0
 20 26  1  0  0  0  0
 21  3  1  0  0  0  0
 21 20  2  0  0  0  0
 22  1  2  0  0  0  0
 23 15  1  6  0  0  0
 23 21  1  0  0  0  0
 24 13  1  0  0  0  0
 25 18  1  1  0  0  0
 26 30  1  0  0  0  0
 27 28  1  0  0  0  0
 29 30  2  0  0  0  0
 30 27  1  0  0  0  0
M  END
>  <MODEL>
3

>  <REMARK>
 VINA RESULT:      -7.6      3.549      7.682
  Name = 
  1 active torsions:
  status: ('A' for Active; 'I' for Inactive)
    1  A    between atoms: N_2  and  C_24
                            x       y       z     vdW  Elec       q    Type
                         _______ _______ _______ _____ _____    ______ ____

>  <TORSDO>
F 1

$$$$
=
 OpenBabel10222416393D

 30 34  0  0  1  0  0  0  0  0999 V2000
  184.1010  178.0630  139.4180 C   0  0  0  0  0  0  0  0  0  0  0  0
  182.8640  178.5860  141.5560 C   0  0  0  0  0  0  0  0  0  0  0  0
  188.7710  178.0060  142.4010 C   0  0  2  0  0  3  0  0  0  0  0  0
  189.9890  175.4130  137.4010 C   0  0  0  0  0  1  0  0  0  0  0  0
  184.7250  179.1720  142.8020 N   0  0  0  0  0  0  0  0  0  0  0  0
  186.6060  177.9590  139.7920 C   0  0  1  0  0  3  0  0  0  0  0  0
  183.9430  178.4240  140.8210 C   0  0  0  0  0  0  0  0  0  0  0  0
  183.2680  179.0530  142.9170 C   0  0  0  0  0  2  0  0  0  0  0  0
  185.4320  177.9900  138.9020 N   0  0  0  0  0  2  0  0  0  0  0  0
  189.0880  179.1740  137.0320 C   0  0  0  0  0  2  0  0  0  0  0  0
  189.1060  176.6450  137.4960 C   0  0  2  0  0  3  0  0  0  0  0  0
  187.7390  179.0520  137.7350 C   0  0  0  0  0  2  0  0  0  0  0  0
  188.9690  176.5730  141.9360 C   0  0  0  0  0  2  0  0  0  0  0  0
  189.6740  177.8040  136.6610 C   0  0  1  0  0  3  0  0  0  0  0  0
  185.0770  178.7740  141.6220 C   0  0  0  0  0  0  0  0  0  0  0  0
  187.9060  178.2720  139.0470 C   0  0  2  0  0  3  0  0  0  0  0  0
  189.4530  177.5570  135.3060 O   0  0  0  0  0  1  0  0  0  0  0  0
  190.0810  177.3080  139.7540 C   0  0  0  0  0  2  0  0  0  0  0  0
  181.5610  178.3730  141.1280 O   0  0  0  0  0  1  0  0  0  0  0  0
  187.8200  178.0460  143.4270 C   0  0  0  0  0  0  0  0  0  0  0  0
  187.4710  178.4050  142.0720 C   0  0  0  0  0  0  0  0  0  0  0  0
  183.1080  177.8640  138.6680 O   0  0  0  0  0  0  0  0  0  0  0  0
  186.4690  178.8500  141.0540 C   0  0  1  0  0  3  0  0  0  0  0  0
  190.1710  176.4330  141.0050 C   0  0  0  0  0  2  0  0  0  0  0  0
  188.8080  177.0340  138.9540 C   0  0  2  0  0  3  0  0  0  0  0  0
  187.4520  177.8560  144.7910 N   0  0  0  0  0  2  0  0  0  0  0  0
  187.9600  177.7280  147.1980 N   0  0  0  0  0  2  0  0  0  0  0  0
  188.8730  177.7900  148.3260 C   0  0  0  0  0  1  0  0  0  0  0  0
  189.6140  178.1700  145.6140 O   0  0  0  0  0  0  0  0  0  0  0  0
  188.4000  177.9300  145.8560 C   0  0  0  0  0  0  0  0  0  0  0  0
  1  7  1  0  0  0  0
  2  8  1  0  0  0  0
  3 13  1  6  0  0  0
  3 20  1  0  0  0  0
  5  8  1  0  0  0  0
  6  9  1  6  0  0  0
  6 23  1  0  0  0  0
  7  2  2  0  0  0  0
  7 15  1  0  0  0  0
  9  1  1  0  0  0  0
 10 12  1  0  0  0  0
 11  4  1  1  0  0  0
 11 25  1  0  0  0  0
 14 17  1  6  0  0  0
 14 10  1  0  0  0  0
 14 11  1  0  0  0  0
 15  5  2  0  0  0  0
 16 12  1  6  0  0  0
 16  6  1  0  0  0  0
 18 24  1  0  0  0  0
 19  2  1  0  0  0  0
 20 26  1  0  0  0  0
 21  3  1  0  0  0  0
 21 20  2  0  0  0  0
 22  1  2  0  0  0  0
 23 15  1  1  0  0  0
 23 21  1  0  0  0  0
 24 13  1  0  0  0  0
 25 16  1  0  0  0  0
 25 18  1  1  0  0  0
 26 30  1  0  0  0  0
 27 28  1  0  0  0  0
 29 30  2  0  0  0  0
 30 27  1  0  0  0  0
M  END
>  <MODEL>
4

>  <REMARK>
 VINA RESULT:      -7.3      2.353      6.772
  Name = 
  1 active torsions:
  status: ('A' for Active; 'I' for Inactive)
    1  A    between atoms: N_2  and  C_24
                            x       y       z     vdW  Elec       q    Type
                         _______ _______ _______ _____ _____    ______ ____

>  <TORSDO>
F 1

$$$$
=
 OpenBabel10222416393D

 30 34  0  0  1  0  0  0  0  0999 V2000
  183.4580  176.7530  137.6430 C   0  0  0  0  0  0  0  0  0  0  0  0
  181.4780  177.3870  139.0750 C   0  0  0  0  0  0  0  0  0  0  0  0
  186.6910  179.1580  141.4490 C   0  0  2  0  0  3  0  0  0  0  0  0
  190.1400  175.8660  138.2120 C   0  0  0  0  0  1  0  0  0  0  0  0
  182.5970  178.9070  140.4160 N   0  0  0  0  0  0  0  0  0  0  0  0
  185.6290  177.6350  138.6110 C   0  0  1  0  0  3  0  0  0  0  0  0
  182.7480  177.4130  138.7310 C   0  0  0  0  0  0  0  0  0  0  0  0
  181.2650  178.3250  140.2190 C   0  0  0  0  0  2  0  0  0  0  0  0
  184.8600  177.0070  137.5220 N   0  0  0  0  0  2  0  0  0  0  0  0
  188.5240  178.8170  136.2700 C   0  0  0  0  0  2  0  0  0  0  0  0
  189.0040  176.6890  137.6300 C   0  0  2  0  0  3  0  0  0  0  0  0
  187.0900  178.4360  136.6270 C   0  0  0  0  0  2  0  0  0  0  0  0
  187.3820  177.8140  141.6110 C   0  0  0  0  0  2  0  0  0  0  0  0
  189.5200  177.6920  136.5840 C   0  0  1  0  0  3  0  0  0  0  0  0
  183.4170  178.3440  139.5890 C   0  0  0  0  0  0  0  0  0  0  0  0
  186.9860  178.1610  138.1340 C   0  0  2  0  0  3  0  0  0  0  0  0
  189.8420  177.0160  135.4080 O   0  0  0  0  0  1  0  0  0  0  0  0
  188.9540  178.2500  139.6420 C   0  0  0  0  0  2  0  0  0  0  0  0
  180.4940  176.6250  138.4610 O   0  0  0  0  0  1  0  0  0  0  0  0
  185.4690  179.1490  142.1300 C   0  0  0  0  0  0  0  0  0  0  0  0
  185.5260  178.9710  140.6980 C   0  0  0  0  0  0  0  0  0  0  0  0
  182.8630  176.0220  136.8090 O   0  0  0  0  0  0  0  0  0  0  0  0
  184.8550  178.7370  139.3800 C   0  0  1  0  0  3  0  0  0  0  0  0
  188.8250  177.8470  141.1110 C   0  0  0  0  0  2  0  0  0  0  0  0
  188.1410  177.3400  138.7240 C   0  0  2  0  0  3  0  0  0  0  0  0
  184.7160  179.2300  143.3370 N   0  0  0  0  0  2  0  0  0  0  0  0
  184.3930  178.8320  145.7470 N   0  0  0  0  0  2  0  0  0  0  0  0
  184.8280  178.3290  147.0380 C   0  0  0  0  0  1  0  0  0  0  0  0
  186.3340  178.1630  144.6390 O   0  0  0  0  0  0  0  0  0  0  0  0
  185.2020  178.7160  144.5780 C   0  0  0  0  0  0  0  0  0  0  0  0
  1  7  1  0  0  0  0
  2  8  1  0  0  0  0
  3 13  1  1  0  0  0
  3 20  1  0  0  0  0
  6  9  1  6  0  0  0
  6 23  1  0  0  0  0
  7  2  2  0  0  0  0
  7 15  1  0  0  0  0
  8  5  1  0  0  0  0
  9  1  1  0  0  0  0
 10 14  1  0  0  0  0
 10 12  1  0  0  0  0
 11  4  1  1  0  0  0
 11 25  1  0  0  0  0
 14 17  1  6  0  0  0
 14 11  1  0  0  0  0
 15  5  2  0  0  0  0
 16 12  1  6  0  0  0
 16  6  1  0  0  0  0
 16 25  1  0  0  0  0
 18 24  1  0  0  0  0
 19  2  1  0  0  0  0
 20 26  1  0  0  0  0
 21  3  1  0  0  0  0
 21 20  2  0  0  0  0
 22  1  2  0  0  0  0
 23 15  1  1  0  0  0
 23 21  1  0  0  0  0
 24 13  1  0  0  0  0
 25 18  1  6  0  0  0
 26 30  1  0  0  0  0
 27 28  1  0  0  0  0
 30 29  2  0  0  0  0
 30 27  1  0  0  0  0
M  END
>  <MODEL>
5

>  <REMARK>
 VINA RESULT:      -7.1      2.862      6.248
  Name = 
  1 active torsions:
  status: ('A' for Active; 'I' for Inactive)
    1  A    between atoms: N_2  and  C_24
                            x       y       z     vdW  Elec       q    Type
                         _______ _______ _______ _____ _____    ______ ____

>  <TORSDO>
F 1

$$$$
=
 OpenBabel10222416393D

 30 34  0  0  1  0  0  0  0  0999 V2000
  185.6640  177.8490  143.4220 C   0  0  0  0  0  0  0  0  0  0  0  0
  188.0680  178.1220  142.7030 C   0  0  0  0  0  0  0  0  0  0  0  0
  184.2480  178.3830  138.0900 C   0  0  2  0  0  3  0  0  0  0  0  0
  179.6710  176.1470  140.7860 C   0  0  0  0  0  1  0  0  0  0  0  0
  187.6200  178.9350  140.5830 N   0  0  0  0  0  0  0  0  0  0  0  0
  184.0720  178.0990  141.4650 C   0  0  1  0  0  3  0  0  0  0  0  0
  186.7660  178.1410  142.5160 C   0  0  2  0  0  3  0  0  0  0  0  0
  188.7460  178.6010  141.4610 C   0  0  0  0  0  3  0  0  0  0  0  0
  184.3350  177.9870  142.9110 N   0  0  0  0  0  2  0  0  0  0  0  0
  180.5620  179.7460  141.9450 C   0  0  0  0  0  2  0  0  0  0  0  0
  180.5370  177.2340  141.3980 C   0  0  2  0  0  3  0  0  0  0  0  0
  182.0040  179.4080  142.3150 C   0  0  0  0  0  2  0  0  0  0  0  0
  183.6070  177.0080  138.1950 C   0  0  0  0  0  2  0  0  0  0  0  0
  179.7100  178.4880  141.7250 C   0  0  1  0  0  3  0  0  0  0  0  0
  186.5200  178.6280  141.1910 C   0  0  0  0  0  0  0  0  0  0  0  0
  182.6620  178.6210  141.1730 C   0  0  2  0  0  3  0  0  0  0  0  0
  178.9310  178.2530  142.8570 O   0  0  0  0  0  1  0  0  0  0  0  0
  181.4260  177.9630  139.1240 C   0  0  0  0  0  2  0  0  0  0  0  0
  188.7060  177.7350  143.8740 O   0  0  0  0  0  1  0  0  0  0  0  0
  185.6360  178.2530  137.9680 C   0  0  0  0  0  0  0  0  0  0  0  0
  185.0270  178.5980  139.2320 C   0  0  0  0  0  0  0  0  0  0  0  0
  185.8590  177.5310  144.6250 O   0  0  0  0  0  0  0  0  0  0  0  0
  185.1330  178.9230  140.6900 C   0  0  1  0  0  3  0  0  0  0  0  0
  182.0860  177.0730  138.0720 C   0  0  0  0  0  2  0  0  0  0  0  0
  181.7830  177.5310  140.5460 C   0  0  2  0  0  3  0  0  0  0  0  0
  186.7960  177.9700  137.1900 N   0  0  0  0  0  2  0  0  0  0  0  0
  188.3510  176.4310  136.0590 N   0  0  0  0  0  2  0  0  0  0  0  0
  188.7920  175.1020  135.6700 C   0  0  0  0  0  1  0  0  0  0  0  0
  186.4810  175.6560  137.2190 O   0  0  0  0  0  0  0  0  0  0  0  0
  187.1750  176.6380  136.8400 C   0  0  0  0  0  0  0  0  0  0  0  0
  1 22  2  0  0  0  0
  2 19  1  0  0  0  0
  3 13  1  1  0  0  0
  3 21  1  0  0  0  0
  5 15  2  0  0  0  0
  5  8  1  0  0  0  0
  6  9  1  1  0  0  0
  7 15  1  1  0  0  0
  7  2  1  0  0  0  0
  7  1  1  0  0  0  0
  8  2  2  0  0  0  0
  9  1  1  0  0  0  0
 10 12  1  0  0  0  0
 11  4  1  6  0  0  0
 11 14  1  0  0  0  0
 14 10  1  0  0  0  0
 14 17  1  1  0  0  0
 16  6  1  0  0  0  0
 16 12  1  1  0  0  0
 20  3  1  0  0  0  0
 20 21  2  0  0  0  0
 23 21  1  6  0  0  0
 23 15  1  0  0  0  0
 23  6  1  0  0  0  0
 24 13  1  0  0  0  0
 24 18  1  0  0  0  0
 25 18  1  6  0  0  0
 25 16  1  0  0  0  0
 25 11  1  0  0  0  0
 26 20  1  0  0  0  0
 27 30  1  0  0  0  0
 28 27  1  0  0  0  0
 30 26  1  0  0  0  0
 30 29  2  0  0  0  0
M  END
>  <MODEL>
6

>  <REMARK>
 VINA RESULT:      -6.9      3.062      7.158
  Name = 
  1 active torsions:
  status: ('A' for Active; 'I' for Inactive)
    1  A    between atoms: N_2  and  C_24
                            x       y       z     vdW  Elec       q    Type
                         _______ _______ _______ _____ _____    ______ ____

>  <TORSDO>
F 1

$$$$
=
 OpenBabel10222416393D

 30 34  0  0  1  0  0  0  0  0999 V2000
  188.3810  177.8140  140.2850 C   0  0  0  0  0  0  0  0  0  0  0  0
  190.5070  177.7280  141.6450 C   0  0  0  0  0  0  0  0  0  0  0  0
  191.0840  175.0620  136.3060 C   0  0  2  0  0  3  0  0  0  0  0  0
  185.4700  174.6120  135.0860 C   0  0  0  0  0  1  0  0  0  0  0  0
  191.9090  177.1250  139.9050 N   0  0  0  0  0  0  0  0  0  0  0  0
  188.7040  176.7980  137.9850 C   0  0  1  0  0  3  0  0  0  0  0  0
  189.7930  177.5730  140.5500 C   0  0  0  0  0  0  0  0  0  0  0  0
  191.9370  177.4220  141.3410 C   0  0  0  0  0  2  0  0  0  0  0  0
  187.9070  177.5640  138.9600 N   0  0  0  0  0  2  0  0  0  0  0  0
  186.8270  178.2470  134.8810 C   0  0  0  0  0  2  0  0  0  0  0  0
  186.0980  175.8920  135.6110 C   0  0  2  0  0  3  0  0  0  0  0  0
  187.3800  178.2570  136.3040 C   0  0  0  0  0  2  0  0  0  0  0  0
  190.0240  173.9800  136.4310 C   0  0  0  0  0  2  0  0  0  0  0  0
  185.8860  177.0600  134.6340 C   0  0  1  0  0  3  0  0  0  0  0  0
  190.6830  177.1810  139.4980 C   0  0  0  0  0  0  0  0  0  0  0  0
  188.2000  176.9830  136.5520 C   0  0  2  0  0  3  0  0  0  0  0  0
  184.5620  177.4950  134.7060 O   0  0  0  0  0  1  0  0  0  0  0  0
  188.4260  175.1940  134.8470 C   0  0  0  0  0  2  0  0  0  0  0  0
  190.0100  178.1290  142.8780 O   0  0  0  0  0  1  0  0  0  0  0  0
  192.0030  174.9510  137.3550 C   0  0  0  0  0  0  0  0  0  0  0  0
  190.9520  175.9400  137.3870 C   0  0  0  0  0  0  0  0  0  0  0  0
  187.6080  178.2700  141.1690 O   0  0  0  0  0  0  0  0  0  0  0  0
  190.2300  177.0610  138.0680 C   0  0  1  0  0  3  0  0  0  0  0  0
  189.1480  173.8890  135.1840 C   0  0  0  0  0  2  0  0  0  0  0  0
  187.5700  175.6920  136.0100 C   0  0  2  0  0  3  0  0  0  0  0  0
  193.1290  174.3210  137.9630 N   0  0  0  0  0  2  0  0  0  0  0  0
  195.5440  174.0950  138.3910 N   0  0  0  0  0  2  0  0  0  0  0  0
  196.9260  174.5070  138.2170 C   0  0  0  0  0  1  0  0  0  0  0  0
  194.6920  175.7680  137.0050 O   0  0  0  0  0  0  0  0  0  0  0  0
  194.4660  174.7760  137.7510 C   0  0  0  0  0  0  0  0  0  0  0  0
  1  7  1  0  0  0  0
  1 22  2  0  0  0  0
  2 19  1  0  0  0  0
  3 13  1  1  0  0  0
  3 20  1  0  0  0  0
  3 21  1  0  0  0  0
  5  8  1  0  0  0  0
  6 23  1  0  0  0  0
  6  9  1  1  0  0  0
  7  2  2  0  0  0  0
  8  2  1  0  0  0  0
  9  1  1  0  0  0  0
 10 12  1  0  0  0  0
 11  4  1  6  0  0  0
 11 25  1  0  0  0  0
 14 17  1  1  0  0  0
 14 10  1  0  0  0  0
 14 11  1  0  0  0  0
 15  5  2  0  0  0  0
 15  7  1  0  0  0  0
 16 12  1  1  0  0  0
 16  6  1  0  0  0  0
 18 24  1  0  0  0  0
 20 21  2  0  0  0  0
 20 26  1  0  0  0  0
 23 21  1  1  0  0  0
 23 15  1  0  0  0  0
 24 13  1  0  0  0  0
 25 18  1  6  0  0  0
 25 16  1  0  0  0  0
 28 27  1  0  0  0  0
 29 30  2  0  0  0  0
 30 26  1  0  0  0  0
 30 27  1  0  0  0  0
M  END
>  <MODEL>
7

>  <REMARK>
 VINA RESULT:      -6.8      3.509      8.942
  Name = 
  1 active torsions:
  status: ('A' for Active; 'I' for Inactive)
    1  A    between atoms: N_2  and  C_24
                            x       y       z     vdW  Elec       q    Type
                         _______ _______ _______ _____ _____    ______ ____

>  <TORSDO>
F 1

$$$$
=
 OpenBabel10222416393D

 30 34  0  0  1  0  0  0  0  0999 V2000
  188.5370  177.4030  141.2790 C   0  0  0  0  0  0  0  0  0  0  0  0
  190.5900  177.6030  142.7340 C   0  0  0  0  0  0  0  0  0  0  0  0
  191.9190  176.1230  137.0790 C   0  0  2  0  0  3  0  0  0  0  0  0
  186.6210  174.5350  135.4590 C   0  0  0  0  0  1  0  0  0  0  0  0
  192.1320  177.6710  141.0090 N   0  0  0  0  0  0  0  0  0  0  0  0
  189.1470  176.9090  138.8680 C   0  0  1  0  0  3  0  0  0  0  0  0
  189.9590  177.4700  141.5870 C   0  0  0  0  0  0  0  0  0  0  0  0
  192.0570  177.7130  142.4730 C   0  0  0  0  0  2  0  0  0  0  0  0
  188.1660  177.2770  139.9040 N   0  0  0  0  0  2  0  0  0  0  0  0
  187.0270  178.3700  135.9320 C   0  0  0  0  0  2  0  0  0  0  0  0
  186.8980  175.8190  136.2230 C   0  0  2  0  0  3  0  0  0  0  0  0
  187.5320  178.2690  137.3680 C   0  0  0  0  0  2  0  0  0  0  0  0
  191.1620  174.8100  136.9600 C   0  0  0  0  0  2  0  0  0  0  0  0
  186.4180  177.0500  135.4370 C   0  0  1  0  0  3  0  0  0  0  0  0
  190.9380  177.4960  140.5420 C   0  0  0  0  0  0  0  0  0  0  0  0
  188.6410  177.2100  137.4560 C   0  0  2  0  0  3  0  0  0  0  0  0
  185.0270  177.1300  135.4980 O   0  0  0  0  0  1  0  0  0  0  0  0
  189.3410  175.8530  135.5000 C   0  0  0  0  0  2  0  0  0  0  0  0
  189.9850  177.6520  143.9830 O   0  0  0  0  0  1  0  0  0  0  0  0
  192.8160  176.0600  138.1500 C   0  0  0  0  0  0  0  0  0  0  0  0
  191.5500  176.7420  138.2780 C   0  0  0  0  0  0  0  0  0  0  0  0
  187.6580  177.4960  142.1760 O   0  0  0  0  0  0  0  0  0  0  0  0
  190.5570  177.5170  139.0860 C   0  0  1  0  0  3  0  0  0  0  0  0
  190.3600  174.7250  135.6630 C   0  0  0  0  0  2  0  0  0  0  0  0
  188.3650  175.9180  136.6740 C   0  0  2  0  0  3  0  0  0  0  0  0
  194.0520  175.6280  138.7150 N   0  0  0  0  0  2  0  0  0  0  0  0
  196.2220  174.4670  138.6060 N   0  0  0  0  0  2  0  0  0  0  0  0
  197.2330  173.6910  137.9080 C   0  0  0  0  0  1  0  0  0  0  0  0
  194.7770  174.5480  136.7760 O   0  0  0  0  0  0  0  0  0  0  0  0
  195.0060  174.8660  137.9740 C   0  0  0  0  0  0  0  0  0  0  0  0
  1  7  1  0  0  0  0
  1 22  2  0  0  0  0
  2 19  1  0  0  0  0
  3 13  1  1  0  0  0
  3 20  1  0  0  0  0
  3 21  1  0  0  0  0
  5  8  1  0  0  0  0
  6 23  1  0  0  0  0
  6  9  1  1  0  0  0
  7  2  2  0  0  0  0
  8  2  1  0  0  0  0
  9  1  1  0  0  0  0
 10 12  1  0  0  0  0
 11  4  1  6  0  0  0
 11 25  1  0  0  0  0
 14 17  1  1  0  0  0
 14 10  1  0  0  0  0
 14 11  1  0  0  0  0
 15  5  2  0  0  0  0
 15  7  1  0  0  0  0
 16 12  1  1  0  0  0
 16  6  1  0  0  0  0
 18 24  1  0  0  0  0
 20 21  2  0  0  0  0
 20 26  1  0  0  0  0
 23 21  1  6  0  0  0
 23 15  1  0  0  0  0
 24 13  1  0  0  0  0
 25 18  1  6  0  0  0
 25 16  1  0  0  0  0
 28 27  1  0  0  0  0
 29 30  2  0  0  0  0
 30 27  1  0  0  0  0
 30 26  1  0  0  0  0
M  END
>  <MODEL>
8

>  <REMARK>
 VINA RESULT:      -6.7      3.384      8.834
  Name = 
  1 active torsions:
  status: ('A' for Active; 'I' for Inactive)
    1  A    between atoms: N_2  and  C_24
                            x       y       z     vdW  Elec       q    Type
                         _______ _______ _______ _____ _____    ______ ____

>  <TORSDO>
F 1

$$$$
=
 OpenBabel10222416393D

 30 34  0  0  1  0  0  0  0  0999 V2000
  186.5340  177.7350  143.4120 C   0  0  0  0  0  0  0  0  0  0  0  0
  188.8820  177.7000  144.3370 C   0  0  0  0  0  0  0  0  0  0  0  0
  188.7760  177.9790  138.3490 C   0  0  2  0  0  3  0  0  0  0  0  0
  183.2660  176.4510  137.6300 C   0  0  0  0  0  1  0  0  0  0  0  0
  189.9420  178.3810  142.3950 N   0  0  0  0  0  0  0  0  0  0  0  0
  186.5290  177.9890  140.8900 C   0  0  1  0  0  3  0  0  0  0  0  0
  187.9860  177.8380  143.3830 C   0  0  0  0  0  0  0  0  0  0  0  0
  190.2360  178.0050  143.7820 C   0  0  0  0  0  2  0  0  0  0  0  0
  185.8320  177.9670  142.1880 N   0  0  0  0  0  2  0  0  0  0  0  0
  183.7190  180.0210  139.0930 C   0  0  0  0  0  2  0  0  0  0  0  0
  183.7060  177.4890  138.6470 C   0  0  2  0  0  3  0  0  0  0  0  0
  184.5690  179.5680  140.2760 C   0  0  0  0  0  2  0  0  0  0  0  0
  188.0340  176.6910  138.0340 C   0  0  0  0  0  2  0  0  0  0  0  0
  183.0260  178.8440  138.3920 C   0  0  1  0  0  3  0  0  0  0  0  0
  188.6720  178.2390  142.1920 C   0  0  0  0  0  0  0  0  0  0  0  0
  185.6800  178.6280  139.7870 C   0  0  2  0  0  3  0  0  0  0  0  0
  181.6930  178.7830  138.7980 O   0  0  0  0  0  1  0  0  0  0  0  0
  185.8890  177.9370  137.4130 C   0  0  0  0  0  2  0  0  0  0  0  0
  188.6090  177.3450  145.6510 O   0  0  0  0  0  1  0  0  0  0  0  0
  189.9140  177.6980  139.1130 C   0  0  0  0  0  0  0  0  0  0  0  0
  188.7090  178.2040  139.7290 C   0  0  2  0  0  3  0  0  0  0  0  0
  185.9060  177.4970  144.4780 O   0  0  0  0  0  0  0  0  0  0  0  0
  187.9390  178.6330  140.9380 C   0  0  1  0  0  3  0  0  0  0  0  0
  186.9340  176.9020  136.9950 C   0  0  0  0  0  2  0  0  0  0  0  0
  185.2380  177.5860  138.7500 C   0  0  2  0  0  3  0  0  0  0  0  0
  191.2580  177.2350  139.2200 N   0  0  0  0  0  0  0  0  0  0  0  0
  193.2560  176.0940  138.3420 N   0  0  0  0  0  2  0  0  0  0  0  0
  193.9750  175.3700  137.3080 C   0  0  0  0  0  1  0  0  0  0  0  0
  191.3000  176.2880  137.0860 O   0  0  0  0  0  0  0  0  0  0  0  0
  191.9090  176.5280  138.1640 C   0  0  0  0  0  0  0  0  0  0  0  0
  1 22  2  0  0  0  0
  2 19  1  0  0  0  0
  3 13  1  1  0  0  0
  3 20  1  0  0  0  0
  3 21  1  0  0  0  0
  5  8  1  0  0  0  0
  6 23  1  0  0  0  0
  6  9  1  1  0  0  0
  7  1  1  0  0  0  0
  7  2  2  0  0  0  0
  8  2  1  0  0  0  0
  9  1  1  0  0  0  0
 10 12  1  0  0  0  0
 11  4  1  6  0  0  0
 11 25  1  0  0  0  0
 14 11  1  0  0  0  0
 14 17  1  1  0  0  0
 14 10  1  0  0  0  0
 15  5  2  0  0  0  0
 15  7  1  0  0  0  0
 16 12  1  1  0  0  0
 16  6  1  0  0  0  0
 20 26  2  0  0  0  0
 21 20  1  1  0  0  0
 21 23  1  0  0  0  0
 23 15  1  1  0  0  0
 24 18  1  0  0  0  0
 24 13  1  0  0  0  0
 25 18  1  6  0  0  0
 25 16  1  0  0  0  0
 28 27  1  0  0  0  0
 29 30  2  0  0  0  0
 30 27  1  0  0  0  0
 30 26  1  0  0  0  0
M  END
>  <MODEL>
9

>  <REMARK>
 VINA RESULT:      -6.6      2.374      7.569
  Name = 
  1 active torsions:
  status: ('A' for Active; 'I' for Inactive)
    1  A    between atoms: N_2  and  C_24
                            x       y       z     vdW  Elec       q    Type
                         _______ _______ _______ _____ _____    ______ ____

>  <TORSDO>
F 1

$$$$
