=
 OpenBabel10222415273D

 31 34  0  0  1  0  0  0  0  0999 V2000
  185.0210  178.8340  139.9000 C   0  0  0  0  0  2  0  0  0  0  0  0
  185.9110  177.8560  139.1360 C   0  0  2  0  0  3  0  0  0  0  0  0
  185.2560  178.7840  141.4010 C   0  0  0  0  0  2  0  0  0  0  0  0
  187.6530  178.3740  141.6000 N   0  0  0  0  0  0  0  0  0  0  0  0
  186.6070  179.3850  141.7450 C   0  0  0  0  0  2  0  0  0  0  0  0
  187.3500  178.4090  139.0430 C   0  0  1  0  0  3  0  0  0  0  0  0
  189.3000  177.5490  140.1600 O   0  0  0  0  0  0  0  0  0  0  0  0
  188.1540  178.0670  140.2830 C   0  0  0  0  0  0  0  0  0  0  0  0
  189.2560  178.0320  135.8480 C   0  0  0  0  0  3  0  0  0  0  0  0
  188.6920  178.8470  136.8600 C   0  0  0  0  0  3  0  0  0  0  0  0
  189.0820  175.4570  135.8500 C   0  0  0  0  0  0  0  0  0  0  0  0
  188.9240  176.7530  136.2480 C   0  0  0  0  0  0  0  0  0  0  0  0
  188.4350  174.6920  136.8330 C   0  0  0  0  0  3  0  0  0  0  0  0
  187.9180  175.5400  137.7690 N   0  0  0  0  0  2  0  0  0  0  0  0
  188.0660  177.9990  137.7830 C   0  0  0  0  0  0  0  0  0  0  0  0
  189.7690  174.9810  134.6970 N   0  0  0  0  0  1  0  0  0  0  0  0
  188.2480  176.7490  137.3570 N   0  0  0  0  0  0  0  0  0  0  0  0
  189.1510  178.1960  143.4780 C   0  0  0  0  0  3  0  0  0  0  0  0
  187.4360  176.4280  143.2190 C   0  0  0  0  0  1  0  0  0  0  0  0
  188.1300  177.6780  142.7730 C   0  0  0  0  0  0  0  0  0  0  0  0
  189.2110  177.7740  145.9100 N   0  0  0  0  0  0  0  0  0  0  0  0
  189.7950  177.6640  144.6960 C   0  0  0  0  0  0  0  0  0  0  0  0
  191.3010  176.9140  144.8220 S   0  0  0  0  0  0  0  0  0  0  0  0
  189.9690  177.2490  146.9110 C   0  0  0  0  0  3  0  0  0  0  0  0
  191.1800  176.7160  146.4880 C   0  0  0  0  0  0  0  0  0  0  0  0
  192.1910  176.0950  147.3500 C   0  0  0  0  0  0  0  0  0  0  0  0
  192.6000  176.7360  148.5560 N   0  0  0  0  0  1  0  0  0  0  0  0
  192.7060  174.9920  147.0300 O   0  0  0  0  0  0  0  0  0  0  0  0
  185.3350  177.6390  137.8140 N   0  0  0  0  0  2  0  0  0  0  0  0
  183.0810  176.4600  137.5350 N   0  0  0  0  0  0  0  0  0  0  0  0
  184.1010  176.9940  137.6600 C   0  0  0  0  0  0  0  0  0  0  0  0
  1  3  1  0  0  0  0
  2 29  1  6  0  0  0
  2  1  1  0  0  0  0
  3  5  1  0  0  0  0
  4  5  1  0  0  0  0
  4 20  1  0  0  0  0
  6 15  1  6  0  0  0
  6  2  1  0  0  0  0
  6  8  1  0  0  0  0
  7  8  2  0  0  0  0
  8  4  1  0  0  0  0
  9 12  2  0  0  0  0
  9 10  1  0  0  0  0
 10 15  2  0  0  0  0
 11 12  1  0  0  0  0
 11 13  2  0  0  0  0
 12 17  1  0  0  0  0
 13 14  1  0  0  0  0
 16 11  1  0  0  0  0
 17 14  1  0  0  0  0
 17 15  1  0  0  0  0
 18 22  1  0  0  0  0
 20 19  1  0  0  0  0
 20 18  2  0  0  0  0
 21 24  1  0  0  0  0
 22 23  1  0  0  0  0
 22 21  2  0  0  0  0
 23 25  1  0  0  0  0
 25 24  2  0  0  0  0
 25 26  1  0  0  0  0
 26 27  1  0  0  0  0
 28 26  2  0  0  0  0
 30 31  3  0  0  0  0
 31 29  1  0  0  0  0
M  END
>  <MODEL>
1

>  <REMARK>
 VINA RESULT:      -6.3      0.000      0.000
  Name = 
  6 active torsions:
  status: ('A' for Active; 'I' for Inactive)
    1  A    between atoms: C_3  and  C_29
    2  A    between atoms: N_5  and  C_14
    3  A    between atoms: N_5  and  C_19
    4  A    between atoms: C_11  and  C_21
    5  A    between atoms: N_18  and  C_28
    6  A    between atoms: C_20  and  C_23
                            x       y       z     vdW  Elec       q    Type
                         _______ _______ _______ _____ _____    ______ ____

>  <TORSDO>
F 6

$$$$
=
 OpenBabel10222415273D

 31 34  0  0  1  0  0  0  0  0999 V2000
  190.2280  174.7730  135.9260 C   0  0  0  0  0  2  0  0  0  0  0  0
  191.4270  174.3540  136.7740 C   0  0  2  0  0  3  0  0  0  0  0  0
  189.2540  175.6540  136.6920 C   0  0  0  0  0  2  0  0  0  0  0  0
  190.6950  176.9990  138.1300 N   0  0  0  0  0  0  0  0  0  0  0  0
  189.8580  177.0260  136.9310 C   0  0  0  0  0  2  0  0  0  0  0  0
  192.4190  175.5290  136.9090 C   0  0  1  0  0  3  0  0  0  0  0  0
  192.8920  176.7960  138.9000 O   0  0  0  0  0  0  0  0  0  0  0  0
  192.0270  176.4550  138.0440 C   0  0  0  0  0  0  0  0  0  0  0  0
  195.7500  173.9740  137.5980 C   0  0  0  0  0  3  0  0  0  0  0  0
  194.3550  174.0570  137.8280 C   0  0  0  0  0  3  0  0  0  0  0  0
  197.0010  175.5110  135.9450 C   0  0  0  0  0  0  0  0  0  0  0  0
  195.9760  174.9630  136.6620 C   0  0  0  0  0  0  0  0  0  0  0  0
  196.4040  176.5170  135.1680 C   0  0  0  0  0  3  0  0  0  0  0  0
  195.0670  176.5400  135.4430 N   0  0  0  0  0  2  0  0  0  0  0  0
  193.8550  175.0860  137.0210 C   0  0  0  0  0  0  0  0  0  0  0  0
  198.3730  175.1350  135.9650 N   0  0  0  0  0  1  0  0  0  0  0  0
  194.8850  175.5880  136.3390 N   0  0  0  0  0  0  0  0  0  0  0  0
  190.6040  176.9610  140.5370 C   0  0  0  0  0  3  0  0  0  0  0  0
  189.1420  178.5830  139.3700 C   0  0  0  0  0  1  0  0  0  0  0  0
  190.1510  177.4770  139.3820 C   0  0  0  0  0  0  0  0  0  0  0  0
  190.9130  178.1570  142.6750 N   0  0  0  0  0  0  0  0  0  0  0  0
  190.2000  177.2950  141.9180 C   0  0  0  0  0  0  0  0  0  0  0  0
  188.8930  176.6750  142.7860 S   0  0  0  0  0  0  0  0  0  0  0  0
  190.3980  178.3140  143.9260 C   0  0  0  0  0  3  0  0  0  0  0  0
  189.2570  177.5600  144.1700 C   0  0  0  0  0  0  0  0  0  0  0  0
  188.5020  177.5300  145.4270 C   0  0  0  0  0  0  0  0  0  0  0  0
  189.0430  176.8830  146.5750 N   0  0  0  0  0  1  0  0  0  0  0  0
  187.3700  178.0750  145.4990 O   0  0  0  0  0  0  0  0  0  0  0  0
  192.0530  173.1920  136.1510 N   0  0  0  0  0  2  0  0  0  0  0  0
  190.7270  171.6540  134.5950 N   0  0  0  0  0  0  0  0  0  0  0  0
  191.3280  172.3500  135.2990 C   0  0  0  0  0  0  0  0  0  0  0  0
  1  3  1  0  0  0  0
  1  2  1  0  0  0  0
  2 29  1  6  0  0  0
  2  6  1  0  0  0  0
  3  5  1  0  0  0  0
  4 20  1  0  0  0  0
  5  4  1  0  0  0  0
  6 15  1  1  0  0  0
  6  8  1  0  0  0  0
  8  4  1  0  0  0  0
  8  7  2  0  0  0  0
  9 10  1  0  0  0  0
 11 16  1  0  0  0  0
 11 12  1  0  0  0  0
 12  9  2  0  0  0  0
 13 14  1  0  0  0  0
 13 11  2  0  0  0  0
 14 17  1  0  0  0  0
 15 10  2  0  0  0  0
 17 12  1  0  0  0  0
 17 15  1  0  0  0  0
 18 22  1  0  0  0  0
 19 20  1  0  0  0  0
 20 18  2  0  0  0  0
 21 24  1  0  0  0  0
 22 21  2  0  0  0  0
 22 23  1  0  0  0  0
 23 25  1  0  0  0  0
 24 25  2  0  0  0  0
 25 26  1  0  0  0  0
 26 28  2  0  0  0  0
 26 27  1  0  0  0  0
 30 31  3  0  0  0  0
 31 29  1  0  0  0  0
M  END
>  <MODEL>
2

>  <REMARK>
 VINA RESULT:      -6.2      4.338      6.312
  Name = 
  6 active torsions:
  status: ('A' for Active; 'I' for Inactive)
    1  A    between atoms: C_3  and  C_29
    2  A    between atoms: N_5  and  C_14
    3  A    between atoms: N_5  and  C_19
    4  A    between atoms: C_11  and  C_21
    5  A    between atoms: N_18  and  C_28
    6  A    between atoms: C_20  and  C_23
                            x       y       z     vdW  Elec       q    Type
                         _______ _______ _______ _____ _____    ______ ____

>  <TORSDO>
F 6

$$$$
=
 OpenBabel10222415273D

 31 34  0  0  1  0  0  0  0  0999 V2000
  182.0190  179.1220  143.7490 C   0  0  0  0  0  2  0  0  0  0  0  0
  182.2490  178.3440  142.4550 C   0  0  2  0  0  3  0  0  0  0  0  0
  183.1880  179.0050  144.7130 C   0  0  0  0  0  2  0  0  0  0  0  0
  185.1420  178.9480  143.2530 N   0  0  0  0  0  0  0  0  0  0  0  0
  184.3850  179.7770  144.1890 C   0  0  0  0  0  2  0  0  0  0  0  0
  183.2270  179.1120  141.5400 C   0  0  1  0  0  3  0  0  0  0  0  0
  185.4830  178.4790  140.9880 O   0  0  0  0  0  0  0  0  0  0  0  0
  184.6690  178.8090  141.8980 C   0  0  0  0  0  0  0  0  0  0  0  0
  182.5710  179.2440  137.8600 C   0  0  0  0  0  3  0  0  0  0  0  0
  182.7600  179.8930  139.1050 C   0  0  0  0  0  3  0  0  0  0  0  0
  182.6250  176.6780  137.5860 C   0  0  0  0  0  0  0  0  0  0  0  0
  182.6780  177.9060  138.1820 C   0  0  0  0  0  0  0  0  0  0  0  0
  182.8430  175.7600  138.6250 C   0  0  0  0  0  3  0  0  0  0  0  0
  183.0140  176.4540  139.7880 N   0  0  0  0  0  2  0  0  0  0  0  0
  182.9600  178.9000  140.0720 C   0  0  0  0  0  0  0  0  0  0  0  0
  182.4110  176.3900  136.2090 N   0  0  0  0  0  1  0  0  0  0  0  0
  182.9040  177.7240  139.4480 N   0  0  0  0  0  0  0  0  0  0  0  0
  186.7400  178.4410  144.9820 C   0  0  0  0  0  3  0  0  0  0  0  0
  187.0100  177.2830  142.8100 C   0  0  0  0  0  1  0  0  0  0  0  0
  186.3200  178.2510  143.7190 C   0  0  0  0  0  0  0  0  0  0  0  0
  187.8130  177.3610  146.9260 N   0  0  0  0  0  0  0  0  0  0  0  0
  187.9040  177.8420  145.6670 C   0  0  0  0  0  0  0  0  0  0  0  0
  189.4790  177.6930  145.0820 S   0  0  0  0  0  0  0  0  0  0  0  0
  188.9950  176.8750  147.3940 C   0  0  0  0  0  3  0  0  0  0  0  0
  190.0480  176.9750  146.4930 C   0  0  0  0  0  0  0  0  0  0  0  0
  191.4270  176.5380  146.7340 C   0  0  0  0  0  0  0  0  0  0  0  0
  192.0450  176.7740  147.9960 N   0  0  0  0  0  1  0  0  0  0  0  0
  192.0740  175.9540  145.8260 O   0  0  0  0  0  0  0  0  0  0  0  0
  180.9600  178.1330  141.8040 N   0  0  0  0  0  2  0  0  0  0  0  0
  179.2490  180.0270  141.6210 N   0  0  0  0  0  0  0  0  0  0  0  0
  180.0230  179.1690  141.7040 C   0  0  0  0  0  0  0  0  0  0  0  0
  1  3  1  0  0  0  0
  2 29  1  6  0  0  0
  2  1  1  0  0  0  0
  4 20  1  0  0  0  0
  4  5  1  0  0  0  0
  5  3  1  0  0  0  0
  6 15  1  6  0  0  0
  6  8  1  0  0  0  0
  6  2  1  0  0  0  0
  7  8  2  0  0  0  0
  8  4  1  0  0  0  0
  9 12  2  0  0  0  0
  9 10  1  0  0  0  0
 10 15  2  0  0  0  0
 11 12  1  0  0  0  0
 11 13  2  0  0  0  0
 12 17  1  0  0  0  0
 13 14  1  0  0  0  0
 16 11  1  0  0  0  0
 17 14  1  0  0  0  0
 17 15  1  0  0  0  0
 18 22  1  0  0  0  0
 19 20  1  0  0  0  0
 20 18  2  0  0  0  0
 21 24  1  0  0  0  0
 22 21  2  0  0  0  0
 23 22  1  0  0  0  0
 23 25  1  0  0  0  0
 25 26  1  0  0  0  0
 25 24  2  0  0  0  0
 26 27  1  0  0  0  0
 28 26  2  0  0  0  0
 30 31  3  0  0  0  0
 31 29  1  0  0  0  0
M  END
>  <MODEL>
3

>  <REMARK>
 VINA RESULT:      -6.1      3.868      4.614
  Name = 
  6 active torsions:
  status: ('A' for Active; 'I' for Inactive)
    1  A    between atoms: C_3  and  C_29
    2  A    between atoms: N_5  and  C_14
    3  A    between atoms: N_5  and  C_19
    4  A    between atoms: C_11  and  C_21
    5  A    between atoms: N_18  and  C_28
    6  A    between atoms: C_20  and  C_23
                            x       y       z     vdW  Elec       q    Type
                         _______ _______ _______ _____ _____    ______ ____

>  <TORSDO>
F 6

$$$$
=
 OpenBabel10222415273D

 31 34  0  0  1  0  0  0  0  0999 V2000
  181.2990  179.0250  143.3220 C   0  0  0  0  0  2  0  0  0  0  0  0
  181.6070  178.2250  142.0580 C   0  0  2  0  0  3  0  0  0  0  0  0
  182.4210  178.9510  144.3450 C   0  0  0  0  0  2  0  0  0  0  0  0
  184.4460  178.9000  142.9840 N   0  0  0  0  0  0  0  0  0  0  0  0
  183.6280  179.7340  143.8640 C   0  0  0  0  0  2  0  0  0  0  0  0
  182.6150  178.9920  141.1760 C   0  0  1  0  0  3  0  0  0  0  0  0
  184.9060  178.3920  140.7490 O   0  0  0  0  0  0  0  0  0  0  0  0
  184.0430  178.7250  141.6110 C   0  0  0  0  0  0  0  0  0  0  0  0
  182.0660  179.0320  137.4770 C   0  0  0  0  0  3  0  0  0  0  0  0
  182.1280  179.7030  138.7230 C   0  0  0  0  0  3  0  0  0  0  0  0
  182.4620  176.4950  137.2180 C   0  0  0  0  0  0  0  0  0  0  0  0
  182.3360  177.7200  137.8090 C   0  0  0  0  0  0  0  0  0  0  0  0
  182.7660  175.6150  138.2690 C   0  0  0  0  0  3  0  0  0  0  0  0
  182.8070  176.3270  139.4330 N   0  0  0  0  0  2  0  0  0  0  0  0
  182.4250  178.7460  139.7010 C   0  0  0  0  0  0  0  0  0  0  0  0
  182.3330  176.1800  135.8370 N   0  0  0  0  0  1  0  0  0  0  0  0
  182.5430  177.5720  139.0830 N   0  0  0  0  0  0  0  0  0  0  0  0
  186.7150  178.1220  142.7630 C   0  0  0  0  0  3  0  0  0  0  0  0
  185.5910  177.7470  144.9380 C   0  0  0  0  0  1  0  0  0  0  0  0
  185.6120  178.2360  143.5230 C   0  0  0  0  0  0  0  0  0  0  0  0
  188.5280  176.4990  142.3490 N   0  0  0  0  0  0  0  0  0  0  0  0
  188.0070  177.4920  143.1010 C   0  0  0  0  0  0  0  0  0  0  0  0
  188.9980  177.8220  144.4270 S   0  0  0  0  0  0  0  0  0  0  0  0
  189.7090  176.0290  142.8350 C   0  0  0  0  0  3  0  0  0  0  0  0
  190.1340  176.6570  144.0000 C   0  0  0  0  0  0  0  0  0  0  0  0
  191.3620  176.3480  144.7410 C   0  0  0  0  0  0  0  0  0  0  0  0
  191.7340  177.1300  145.8730 N   0  0  0  0  0  1  0  0  0  0  0  0
  192.0950  175.3900  144.3810 O   0  0  0  0  0  0  0  0  0  0  0  0
  180.3560  177.9770  141.3500 N   0  0  0  0  0  2  0  0  0  0  0  0
  179.2660  175.6620  141.3690 N   0  0  0  0  0  0  0  0  0  0  0  0
  179.7580  176.7110  141.3600 C   0  0  0  0  0  0  0  0  0  0  0  0
  1  3  1  0  0  0  0
  2 29  1  6  0  0  0
  2  1  1  0  0  0  0
  4 20  1  0  0  0  0
  4  5  1  0  0  0  0
  5  3  1  0  0  0  0
  6 15  1  6  0  0  0
  6  8  1  0  0  0  0
  6  2  1  0  0  0  0
  7  8  2  0  0  0  0
  8  4  1  0  0  0  0
  9 12  2  0  0  0  0
  9 10  1  0  0  0  0
 10 15  2  0  0  0  0
 11 12  1  0  0  0  0
 11 13  2  0  0  0  0
 12 17  1  0  0  0  0
 13 14  1  0  0  0  0
 16 11  1  0  0  0  0
 17 14  1  0  0  0  0
 17 15  1  0  0  0  0
 18 22  1  0  0  0  0
 18 20  2  0  0  0  0
 20 19  1  0  0  0  0
 21 24  1  0  0  0  0
 21 22  2  0  0  0  0
 22 23  1  0  0  0  0
 24 25  2  0  0  0  0
 25 23  1  0  0  0  0
 25 26  1  0  0  0  0
 26 27  1  0  0  0  0
 28 26  2  0  0  0  0
 29 31  1  0  0  0  0
 31 30  3  0  0  0  0
M  END
>  <MODEL>
4

>  <REMARK>
 VINA RESULT:      -6.0      3.933      4.920
  Name = 
  6 active torsions:
  status: ('A' for Active; 'I' for Inactive)
    1  A    between atoms: C_3  and  C_29
    2  A    between atoms: N_5  and  C_14
    3  A    between atoms: N_5  and  C_19
    4  A    between atoms: C_11  and  C_21
    5  A    between atoms: N_18  and  C_28
    6  A    between atoms: C_20  and  C_23
                            x       y       z     vdW  Elec       q    Type
                         _______ _______ _______ _____ _____    ______ ____

>  <TORSDO>
F 6

$$$$
=
 OpenBabel10222415273D

 31 34  0  0  1  0  0  0  0  0999 V2000
  189.7810  176.8280  141.1660 C   0  0  0  0  0  2  0  0  0  0  0  0
  188.7090  176.5160  142.2080 C   0  0  2  0  0  3  0  0  0  0  0  0
  189.1890  177.2620  139.8340 C   0  0  0  0  0  2  0  0  0  0  0  0
  187.2100  178.5410  140.4680 N   0  0  0  0  0  0  0  0  0  0  0  0
  188.5750  178.6450  139.9550 C   0  0  0  0  0  2  0  0  0  0  0  0
  188.1170  177.8270  142.7690 C   0  0  1  0  0  3  0  0  0  0  0  0
  185.8990  178.6830  142.3980 O   0  0  0  0  0  0  0  0  0  0  0  0
  187.0050  178.3550  141.8830 C   0  0  0  0  0  0  0  0  0  0  0  0
  186.4440  177.3930  146.0860 C   0  0  0  0  0  3  0  0  0  0  0  0
  186.3910  177.4210  144.6710 C   0  0  0  0  0  3  0  0  0  0  0  0
  188.6070  177.8220  147.4260 C   0  0  0  0  0  0  0  0  0  0  0  0
  187.7670  177.6720  146.3590 C   0  0  0  0  0  0  0  0  0  0  0  0
  189.8620  178.1040  146.8630 C   0  0  0  0  0  3  0  0  0  0  0  0
  189.7350  178.1160  145.5040 N   0  0  0  0  0  2  0  0  0  0  0  0
  187.6790  177.7160  144.2070 C   0  0  0  0  0  0  0  0  0  0  0  0
  188.2870  177.7030  148.8070 N   0  0  0  0  0  1  0  0  0  0  0  0
  188.4620  177.8510  145.2760 N   0  0  0  0  0  0  0  0  0  0  0  0
  184.9200  179.0770  139.9490 C   0  0  0  0  0  3  0  0  0  0  0  0
  186.3090  178.1400  138.1260 C   0  0  0  0  0  1  0  0  0  0  0  0
  186.1010  178.5840  139.5410 C   0  0  0  0  0  0  0  0  0  0  0  0
  183.1500  180.4300  138.8850 N   0  0  0  0  0  0  0  0  0  0  0  0
  183.6640  179.2170  139.1840 C   0  0  0  0  0  0  0  0  0  0  0  0
  182.6630  177.9850  138.6130 S   0  0  0  0  0  0  0  0  0  0  0  0
  181.9770  180.3540  138.1990 C   0  0  0  0  0  3  0  0  0  0  0  0
  181.5460  179.0560  137.9520 C   0  0  0  0  0  0  0  0  0  0  0  0
  180.3180  178.6810  137.2430 C   0  0  0  0  0  0  0  0  0  0  0  0
  179.8020  179.5140  136.2090 N   0  0  0  0  0  1  0  0  0  0  0  0
  179.7110  177.6200  137.5450 O   0  0  0  0  0  0  0  0  0  0  0  0
  189.3080  175.7040  143.2620 N   0  0  0  0  0  2  0  0  0  0  0  0
  191.8350  175.7010  143.6550 N   0  0  0  0  0  0  0  0  0  0  0  0
  190.6910  175.7040  143.4760 C   0  0  0  0  0  0  0  0  0  0  0  0
  1  2  1  0  0  0  0
  2  6  1  0  0  0  0
  2 29  1  1  0  0  0
  3  5  1  0  0  0  0
  3  1  1  0  0  0  0
  4  8  1  0  0  0  0
  5  4  1  0  0  0  0
  6 15  1  1  0  0  0
  8  7  2  0  0  0  0
  8  6  1  0  0  0  0
  9 12  2  0  0  0  0
 10  9  1  0  0  0  0
 11 16  1  0  0  0  0
 12 11  1  0  0  0  0
 13 11  2  0  0  0  0
 14 13  1  0  0  0  0
 15 10  2  0  0  0  0
 15 17  1  0  0  0  0
 17 14  1  0  0  0  0
 17 12  1  0  0  0  0
 19 20  1  0  0  0  0
 20 18  2  0  0  0  0
 20  4  1  0  0  0  0
 21 22  2  0  0  0  0
 22 18  1  0  0  0  0
 23 22  1  0  0  0  0
 24 21  1  0  0  0  0
 25 24  2  0  0  0  0
 25 23  1  0  0  0  0
 26 28  2  0  0  0  0
 26 25  1  0  0  0  0
 27 26  1  0  0  0  0
 29 31  1  0  0  0  0
 31 30  3  0  0  0  0
M  END
>  <MODEL>
5

>  <REMARK>
 VINA RESULT:      -5.9      3.837      9.495
  Name = 
  6 active torsions:
  status: ('A' for Active; 'I' for Inactive)
    1  A    between atoms: C_3  and  C_29
    2  A    between atoms: N_5  and  C_14
    3  A    between atoms: N_5  and  C_19
    4  A    between atoms: C_11  and  C_21
    5  A    between atoms: N_18  and  C_28
    6  A    between atoms: C_20  and  C_23
                            x       y       z     vdW  Elec       q    Type
                         _______ _______ _______ _____ _____    ______ ____

>  <TORSDO>
F 6

$$$$
=
 OpenBabel10222415273D

 31 34  0  0  1  0  0  0  0  0999 V2000
  179.5880  178.0200  142.0750 C   0  0  0  0  0  2  0  0  0  0  0  0
  180.4860  177.3370  141.0460 C   0  0  2  0  0  3  0  0  0  0  0  0
  180.3220  178.3370  143.3680 C   0  0  0  0  0  2  0  0  0  0  0  0
  182.5740  178.9190  142.6310 N   0  0  0  0  0  0  0  0  0  0  0  0
  181.3180  179.4600  143.1490 C   0  0  0  0  0  2  0  0  0  0  0  0
  181.4270  178.3720  140.3910 C   0  0  1  0  0  3  0  0  0  0  0  0
  183.8100  178.5410  140.6830 O   0  0  0  0  0  0  0  0  0  0  0  0
  182.6710  178.5930  141.2290 C   0  0  0  0  0  0  0  0  0  0  0  0
  182.0360  178.1610  136.7080 C   0  0  0  0  0  3  0  0  0  0  0  0
  181.5320  178.8500  137.8380 C   0  0  0  0  0  3  0  0  0  0  0  0
  183.1730  175.8490  136.8550 C   0  0  0  0  0  0  0  0  0  0  0  0
  182.5430  176.9960  137.2460 C   0  0  0  0  0  0  0  0  0  0  0  0
  183.3730  175.1220  138.0400 C   0  0  0  0  0  3  0  0  0  0  0  0
  182.8620  175.8420  139.0810 N   0  0  0  0  0  2  0  0  0  0  0  0
  181.7680  178.0460  138.9600 C   0  0  0  0  0  0  0  0  0  0  0  0
  183.5600  175.4770  135.5370 N   0  0  0  0  0  1  0  0  0  0  0  0
  182.3850  176.9450  138.5350 N   0  0  0  0  0  0  0  0  0  0  0  0
  184.8380  178.2190  143.0620 C   0  0  0  0  0  3  0  0  0  0  0  0
  183.5080  179.0190  144.9910 C   0  0  0  0  0  1  0  0  0  0  0  0
  183.6710  178.6820  143.5420 C   0  0  0  0  0  0  0  0  0  0  0  0
  187.1950  177.4910  143.1600 N   0  0  0  0  0  0  0  0  0  0  0  0
  186.0800  177.9090  143.7980 C   0  0  0  0  0  0  0  0  0  0  0  0
  186.3290  177.9590  145.4660 S   0  0  0  0  0  0  0  0  0  0  0  0
  188.2260  177.2300  144.0090 C   0  0  0  0  0  3  0  0  0  0  0  0
  187.9250  177.4400  145.3490 C   0  0  0  0  0  0  0  0  0  0  0  0
  188.8410  177.2320  146.4760 C   0  0  0  0  0  0  0  0  0  0  0  0
  188.3440  177.2080  147.8110 N   0  0  0  0  0  1  0  0  0  0  0  0
  190.0730  177.0760  146.2700 O   0  0  0  0  0  0  0  0  0  0  0  0
  179.6400  176.6800  140.0550 N   0  0  0  0  0  2  0  0  0  0  0  0
  179.2710  174.1490  140.1000 N   0  0  0  0  0  0  0  0  0  0  0  0
  179.4390  175.2940  140.0800 C   0  0  0  0  0  0  0  0  0  0  0  0
  1  3  1  0  0  0  0
  2 29  1  6  0  0  0
  2  1  1  0  0  0  0
  4  5  1  0  0  0  0
  4 20  1  0  0  0  0
  5  3  1  0  0  0  0
  6 15  1  6  0  0  0
  6  2  1  0  0  0  0
  6  8  1  0  0  0  0
  7  8  2  0  0  0  0
  8  4  1  0  0  0  0
  9 12  2  0  0  0  0
  9 10  1  0  0  0  0
 10 15  2  0  0  0  0
 11 12  1  0  0  0  0
 11 13  2  0  0  0  0
 12 17  1  0  0  0  0
 13 14  1  0  0  0  0
 16 11  1  0  0  0  0
 17 15  1  0  0  0  0
 17 14  1  0  0  0  0
 18 20  2  0  0  0  0
 18 22  1  0  0  0  0
 20 19  1  0  0  0  0
 21 22  2  0  0  0  0
 21 24  1  0  0  0  0
 22 23  1  0  0  0  0
 24 25  2  0  0  0  0
 25 23  1  0  0  0  0
 25 26  1  0  0  0  0
 26 27  1  0  0  0  0
 28 26  2  0  0  0  0
 29 31  1  0  0  0  0
 31 30  3  0  0  0  0
M  END
>  <MODEL>
6

>  <REMARK>
 VINA RESULT:      -5.9      4.050      5.354
  Name = 
  6 active torsions:
  status: ('A' for Active; 'I' for Inactive)
    1  A    between atoms: C_3  and  C_29
    2  A    between atoms: N_5  and  C_14
    3  A    between atoms: N_5  and  C_19
    4  A    between atoms: C_11  and  C_21
    5  A    between atoms: N_18  and  C_28
    6  A    between atoms: C_20  and  C_23
                            x       y       z     vdW  Elec       q    Type
                         _______ _______ _______ _____ _____    ______ ____

>  <TORSDO>
F 6

$$$$
=
 OpenBabel10222415273D

 31 34  0  0  1  0  0  0  0  0999 V2000
  183.3460  177.2960  138.2070 C   0  0  0  0  0  2  0  0  0  0  0  0
  184.6990  176.7150  137.8020 C   0  0  2  0  0  3  0  0  0  0  0  0
  183.3350  177.7990  139.6420 C   0  0  0  0  0  2  0  0  0  0  0  0
  185.5790  178.7030  139.9570 N   0  0  0  0  0  0  0  0  0  0  0  0
  184.1740  179.0580  139.7670 C   0  0  0  0  0  2  0  0  0  0  0  0
  185.7060  177.8540  137.5300 C   0  0  1  0  0  3  0  0  0  0  0  0
  187.6260  178.4280  138.8630 O   0  0  0  0  0  0  0  0  0  0  0  0
  186.3680  178.3220  138.8120 C   0  0  0  0  0  0  0  0  0  0  0  0
  188.0100  177.5450  134.6010 C   0  0  0  0  0  3  0  0  0  0  0  0
  186.9510  178.2010  135.2750 C   0  0  0  0  0  3  0  0  0  0  0  0
  189.2090  175.4640  135.5450 C   0  0  0  0  0  0  0  0  0  0  0  0
  188.3360  176.5110  135.4540 C   0  0  0  0  0  0  0  0  0  0  0  0
  188.9090  174.8470  136.7690 C   0  0  0  0  0  3  0  0  0  0  0  0
  187.8840  175.5280  137.3590 N   0  0  0  0  0  2  0  0  0  0  0  0
  186.7220  177.5110  136.4710 C   0  0  0  0  0  0  0  0  0  0  0  0
  190.2160  175.0900  134.6120 N   0  0  0  0  0  1  0  0  0  0  0  0
  187.5940  176.5050  136.5200 N   0  0  0  0  0  0  0  0  0  0  0  0
  187.2710  178.0280  141.5330 C   0  0  0  0  0  3  0  0  0  0  0  0
  185.4630  179.5000  142.3680 C   0  0  0  0  0  1  0  0  0  0  0  0
  186.1320  178.7000  141.2930 C   0  0  0  0  0  0  0  0  0  0  0  0
  189.3060  178.2540  142.9140 N   0  0  0  0  0  0  0  0  0  0  0  0
  188.0100  177.8890  142.8050 C   0  0  0  0  0  0  0  0  0  0  0  0
  187.4460  177.2450  144.2590 S   0  0  0  0  0  0  0  0  0  0  0  0
  189.8190  178.0250  144.1530 C   0  0  0  0  0  3  0  0  0  0  0  0
  188.9160  177.4620  145.0470 C   0  0  0  0  0  0  0  0  0  0  0  0
  189.1990  177.1050  146.4410 C   0  0  0  0  0  0  0  0  0  0  0  0
  190.5220  176.7580  146.8400 N   0  0  0  0  0  1  0  0  0  0  0  0
  188.2740  177.1020  147.2950 O   0  0  0  0  0  0  0  0  0  0  0  0
  184.5100  175.8750  136.6240 N   0  0  0  0  0  2  0  0  0  0  0  0
  184.3780  173.3280  136.8290 N   0  0  0  0  0  0  0  0  0  0  0  0
  184.4380  174.4810  136.7350 C   0  0  0  0  0  0  0  0  0  0  0  0
  1  3  1  0  0  0  0
  2 29  1  6  0  0  0
  2  1  1  0  0  0  0
  3  5  1  0  0  0  0
  4 20  1  0  0  0  0
  5  4  1  0  0  0  0
  6 15  1  6  0  0  0
  6  2  1  0  0  0  0
  6  8  1  0  0  0  0
  8  7  2  0  0  0  0
  8  4  1  0  0  0  0
  9 10  1  0  0  0  0
  9 12  2  0  0  0  0
 10 15  2  0  0  0  0
 11 13  2  0  0  0  0
 12 11  1  0  0  0  0
 12 17  1  0  0  0  0
 13 14  1  0  0  0  0
 15 17  1  0  0  0  0
 16 11  1  0  0  0  0
 17 14  1  0  0  0  0
 18 22  1  0  0  0  0
 20 18  2  0  0  0  0
 20 19  1  0  0  0  0
 21 24  1  0  0  0  0
 22 21  2  0  0  0  0
 22 23  1  0  0  0  0
 23 25  1  0  0  0  0
 24 25  2  0  0  0  0
 25 26  1  0  0  0  0
 26 27  1  0  0  0  0
 26 28  2  0  0  0  0
 29 31  1  0  0  0  0
 31 30  3  0  0  0  0
M  END
>  <MODEL>
7

>  <REMARK>
 VINA RESULT:      -5.8      1.909      2.615
  Name = 
  6 active torsions:
  status: ('A' for Active; 'I' for Inactive)
    1  A    between atoms: C_3  and  C_29
    2  A    between atoms: N_5  and  C_14
    3  A    between atoms: N_5  and  C_19
    4  A    between atoms: C_11  and  C_21
    5  A    between atoms: N_18  and  C_28
    6  A    between atoms: C_20  and  C_23
                            x       y       z     vdW  Elec       q    Type
                         _______ _______ _______ _____ _____    ______ ____

>  <TORSDO>
F 6

$$$$
=
 OpenBabel10222415273D

 31 34  0  0  1  0  0  0  0  0999 V2000
  181.2310  179.0270  143.3460 C   0  0  0  0  0  2  0  0  0  0  0  0
  181.5590  178.2560  142.0700 C   0  0  2  0  0  3  0  0  0  0  0  0
  182.3450  178.9480  144.3770 C   0  0  0  0  0  2  0  0  0  0  0  0
  184.3810  178.9510  143.0320 N   0  0  0  0  0  0  0  0  0  0  0  0
  183.5460  179.7570  143.9210 C   0  0  0  0  0  2  0  0  0  0  0  0
  182.5640  179.0540  141.2110 C   0  0  1  0  0  3  0  0  0  0  0  0
  184.8660  178.4920  140.7920 O   0  0  0  0  0  0  0  0  0  0  0  0
  183.9920  178.7970  141.6520 C   0  0  0  0  0  0  0  0  0  0  0  0
  182.4060  177.9220  137.6500 C   0  0  0  0  0  3  0  0  0  0  0  0
  182.7930  177.7120  138.9960 C   0  0  0  0  0  3  0  0  0  0  0  0
  181.1730  180.0440  136.8510 C   0  0  0  0  0  0  0  0  0  0  0  0
  181.7940  179.1580  137.6850 C   0  0  0  0  0  0  0  0  0  0  0  0
  180.8020  181.1190  137.6740 C   0  0  0  0  0  3  0  0  0  0  0  0
  181.2070  180.8490  138.9490 N   0  0  0  0  0  2  0  0  0  0  0  0
  182.3890  178.8340  139.7300 C   0  0  0  0  0  0  0  0  0  0  0  0
  180.9380  179.9030  135.4550 N   0  0  0  0  0  1  0  0  0  0  0  0
  181.7890  179.6660  138.8810 N   0  0  0  0  0  0  0  0  0  0  0  0
  186.6340  178.1360  142.7860 C   0  0  0  0  0  3  0  0  0  0  0  0
  185.5590  177.8560  144.9990 C   0  0  0  0  0  1  0  0  0  0  0  0
  185.5520  178.2920  143.5670 C   0  0  0  0  0  0  0  0  0  0  0  0
  188.4140  176.4700  142.3940 N   0  0  0  0  0  0  0  0  0  0  0  0
  187.9270  177.5020  143.1170 C   0  0  0  0  0  0  0  0  0  0  0  0
  188.9570  177.8730  144.4000 S   0  0  0  0  0  0  0  0  0  0  0  0
  189.6010  176.0040  142.8690 C   0  0  0  0  0  3  0  0  0  0  0  0
  190.0660  176.6740  143.9940 C   0  0  0  0  0  0  0  0  0  0  0  0
  191.3090  176.3790  144.7160 C   0  0  0  0  0  0  0  0  0  0  0  0
  191.6840  177.1570  145.8490 N   0  0  0  0  0  1  0  0  0  0  0  0
  192.0520  175.4370  144.3370 O   0  0  0  0  0  0  0  0  0  0  0  0
  180.3170  178.0050  141.3460 N   0  0  0  0  0  2  0  0  0  0  0  0
  179.2360  175.6860  141.3390 N   0  0  0  0  0  0  0  0  0  0  0  0
  179.7260  176.7350  141.3440 C   0  0  0  0  0  0  0  0  0  0  0  0
  1  3  1  0  0  0  0
  2 29  1  6  0  0  0
  2  1  1  0  0  0  0
  4 20  1  0  0  0  0
  4  5  1  0  0  0  0
  5  3  1  0  0  0  0
  6 15  1  6  0  0  0
  6  8  1  0  0  0  0
  6  2  1  0  0  0  0
  7  8  2  0  0  0  0
  8  4  1  0  0  0  0
  9 12  2  0  0  0  0
  9 10  1  0  0  0  0
 10 15  2  0  0  0  0
 11 13  2  0  0  0  0
 11 12  1  0  0  0  0
 12 17  1  0  0  0  0
 13 14  1  0  0  0  0
 16 11  1  0  0  0  0
 17 14  1  0  0  0  0
 17 15  1  0  0  0  0
 18 22  1  0  0  0  0
 18 20  2  0  0  0  0
 20 19  1  0  0  0  0
 21 24  1  0  0  0  0
 21 22  2  0  0  0  0
 22 23  1  0  0  0  0
 24 25  2  0  0  0  0
 25 23  1  0  0  0  0
 25 26  1  0  0  0  0
 26 27  1  0  0  0  0
 28 26  2  0  0  0  0
 30 31  3  0  0  0  0
 31 29  1  0  0  0  0
M  END
>  <MODEL>
8

>  <REMARK>
 VINA RESULT:      -5.8      4.088      5.591
  Name = 
  6 active torsions:
  status: ('A' for Active; 'I' for Inactive)
    1  A    between atoms: C_3  and  C_29
    2  A    between atoms: N_5  and  C_14
    3  A    between atoms: N_5  and  C_19
    4  A    between atoms: C_11  and  C_21
    5  A    between atoms: N_18  and  C_28
    6  A    between atoms: C_20  and  C_23
                            x       y       z     vdW  Elec       q    Type
                         _______ _______ _______ _____ _____    ______ ____

>  <TORSDO>
F 6

$$$$
=
 OpenBabel10222415273D

 31 34  0  0  1  0  0  0  0  0999 V2000
  179.5730  178.1350  142.1960 C   0  0  0  0  0  2  0  0  0  0  0  0
  180.3240  177.7300  140.9300 C   0  0  2  0  0  3  0  0  0  0  0  0
  180.4790  178.1930  143.4160 C   0  0  0  0  0  2  0  0  0  0  0  0
  182.5980  179.0130  142.5280 N   0  0  0  0  0  0  0  0  0  0  0  0
  181.4230  179.3770  143.3180 C   0  0  0  0  0  2  0  0  0  0  0  0
  181.1530  178.9190  140.3990 C   0  0  1  0  0  3  0  0  0  0  0  0
  183.5510  179.1180  140.3960 O   0  0  0  0  0  0  0  0  0  0  0  0
  182.5000  179.0040  141.0890 C   0  0  0  0  0  0  0  0  0  0  0  0
  181.7290  178.3270  136.7520 C   0  0  0  0  0  3  0  0  0  0  0  0
  181.8140  177.9010  138.1000 C   0  0  0  0  0  3  0  0  0  0  0  0
  180.7510  180.6100  136.0520 C   0  0  0  0  0  0  0  0  0  0  0  0
  181.1560  179.5780  136.8500 C   0  0  0  0  0  0  0  0  0  0  0  0
  180.2410  181.5750  136.9350 C   0  0  0  0  0  3  0  0  0  0  0  0
  180.3570  181.0990  138.2100 N   0  0  0  0  0  2  0  0  0  0  0  0
  181.2920  178.9270  138.8990 C   0  0  0  0  0  0  0  0  0  0  0  0
  180.8160  180.6870  134.6320 N   0  0  0  0  0  1  0  0  0  0  0  0
  180.9090  179.9070  138.0820 N   0  0  0  0  0  0  0  0  0  0  0  0
  183.9520  178.9010  144.5160 C   0  0  0  0  0  3  0  0  0  0  0  0
  184.8700  177.8770  142.4570 C   0  0  0  0  0  1  0  0  0  0  0  0
  183.8150  178.6290  143.2070 C   0  0  0  0  0  0  0  0  0  0  0  0
  185.1080  179.0030  146.6960 N   0  0  0  0  0  0  0  0  0  0  0  0
  185.0940  178.6040  145.4050 C   0  0  0  0  0  0  0  0  0  0  0  0
  186.5300  177.8110  145.0090 S   0  0  0  0  0  0  0  0  0  0  0  0
  186.2540  178.6600  147.3440 C   0  0  0  0  0  3  0  0  0  0  0  0
  187.1730  177.9800  146.5540 C   0  0  0  0  0  0  0  0  0  0  0  0
  188.4880  177.4990  146.9900 C   0  0  0  0  0  0  0  0  0  0  0  0
  189.5130  177.2420  146.0340 N   0  0  0  0  0  1  0  0  0  0  0  0
  188.7190  177.3080  148.2120 O   0  0  0  0  0  0  0  0  0  0  0  0
  179.3530  177.2700  139.9420 N   0  0  0  0  0  2  0  0  0  0  0  0
  178.9770  174.7740  139.5240 N   0  0  0  0  0  0  0  0  0  0  0  0
  179.1480  175.9040  139.7120 C   0  0  0  0  0  0  0  0  0  0  0  0
  1  3  1  0  0  0  0
  2 29  1  6  0  0  0
  2  1  1  0  0  0  0
  4 20  1  0  0  0  0
  4  5  1  0  0  0  0
  5  3  1  0  0  0  0
  6 15  1  6  0  0  0
  6  2  1  0  0  0  0
  6  8  1  0  0  0  0
  7  8  2  0  0  0  0
  8  4  1  0  0  0  0
  9 12  2  0  0  0  0
  9 10  1  0  0  0  0
 10 15  2  0  0  0  0
 11 12  1  0  0  0  0
 11 13  2  0  0  0  0
 12 17  1  0  0  0  0
 13 14  1  0  0  0  0
 16 11  1  0  0  0  0
 17 14  1  0  0  0  0
 17 15  1  0  0  0  0
 18 22  1  0  0  0  0
 19 20  1  0  0  0  0
 20 18  2  0  0  0  0
 21 24  1  0  0  0  0
 22 21  2  0  0  0  0
 23 22  1  0  0  0  0
 23 25  1  0  0  0  0
 25 26  1  0  0  0  0
 25 24  2  0  0  0  0
 26 28  2  0  0  0  0
 27 26  1  0  0  0  0
 30 31  3  0  0  0  0
 31 29  1  0  0  0  0
M  END
>  <MODEL>
9

>  <REMARK>
 VINA RESULT:      -5.7      5.225      6.397
  Name = 
  6 active torsions:
  status: ('A' for Active; 'I' for Inactive)
    1  A    between atoms: C_3  and  C_29
    2  A    between atoms: N_5  and  C_14
    3  A    between atoms: N_5  and  C_19
    4  A    between atoms: C_11  and  C_21
    5  A    between atoms: N_18  and  C_28
    6  A    between atoms: C_20  and  C_23
                            x       y       z     vdW  Elec       q    Type
                         _______ _______ _______ _____ _____    ______ ____

>  <TORSDO>
F 6

$$$$
