=
 OpenBabel10222416223D

 38 44  0  0  1  0  0  0  0  0999 V2000
  179.0910  180.0400  138.7460 C   0  0  0  0  0  1  0  0  0  0  0  0
  182.7630  178.6010  141.6930 C   0  0  1  0  0  3  0  0  0  0  0  0
  182.5990  177.5460  140.5890 C   0  0  0  0  0  2  0  0  0  0  0  0
  180.3300  178.5380  140.2640 C   0  0  0  0  0  0  0  0  0  0  0  0
  180.9750  177.3400  138.4800 C   0  0  0  0  0  0  0  0  0  0  0  0
  179.8070  177.7970  138.1400 N   0  0  0  0  0  0  0  0  0  0  0  0
  179.2640  178.6120  139.2240 C   0  0  2  0  0  3  0  0  0  0  0  0
  180.3330  179.2510  141.5860 C   0  0  0  0  0  2  0  0  0  0  0  0
  181.4660  178.7530  142.4940 C   0  0  0  0  0  2  0  0  0  0  0  0
  181.3410  177.8120  139.8090 C   0  0  0  0  0  0  0  0  0  0  0  0
  182.1160  175.2510  138.0230 C   0  0  0  0  0  3  0  0  0  0  0  0
  185.0410  175.7480  137.0120 C   0  0  0  0  0  0  0  0  0  0  0  0
  184.5870  176.8000  136.3160 C   0  0  0  0  0  0  0  0  0  0  0  0
  182.0610  176.8810  136.2100 C   0  0  0  0  0  3  0  0  0  0  0  0
  182.8950  174.3140  137.1680 C   0  0  0  0  0  2  0  0  0  0  0  0
  183.2760  176.9860  135.6590 C   0  0  0  0  0  3  0  0  0  0  0  0
  184.3120  174.5620  137.3570 N   0  0  0  0  0  2  0  0  0  0  0  0
  186.7540  175.8760  137.5070 S   0  0  0  0  0  0  0  0  0  0  0  0
  185.6230  177.8520  136.1050 C   0  0  0  0  0  2  0  0  0  0  0  0
  181.7730  176.4670  137.5970 C   0  0  0  0  0  0  0  0  0  0  0  0
  186.6580  177.6620  137.2000 C   0  0  0  0  0  2  0  0  0  0  0  0
  185.9810  177.8520  144.3890 C   0  0  2  0  0  3  0  0  0  0  0  0
  185.3280  178.1170  141.9150 C   0  0  1  0  0  3  0  0  0  0  0  0
  185.8600  179.3560  141.2110 C   0  0  0  0  0  1  0  0  0  0  0  0
  184.0580  179.3830  143.7580 C   0  0  0  0  0  2  0  0  0  0  0  0
  186.3810  177.6210  142.9220 C   0  0  0  0  0  2  0  0  0  0  0  0
  185.3440  179.2300  144.5830 C   0  0  0  0  0  2  0  0  0  0  0  0
  183.9710  178.3720  142.6060 C   0  0  1  0  0  3  0  0  0  0  0  0
  191.7640  176.5730  146.2060 C   0  0  0  0  0  3  0  0  0  0  0  0
  189.2540  177.3240  147.1230 C   0  0  0  0  0  0  0  0  0  0  0  0
  186.9350  177.8650  146.6920 C   0  0  0  0  0  3  0  0  0  0  0  0
  191.5320  176.8170  147.5640 C   0  0  0  0  0  3  0  0  0  0  0  0
  189.4500  177.0890  145.7460 C   0  0  0  0  0  0  0  0  0  0  0  0
  190.7150  176.7120  145.2920 C   0  0  0  0  0  3  0  0  0  0  0  0
  187.1270  177.6370  145.3230 C   0  0  0  0  0  0  0  0  0  0  0  0
  187.9950  177.7090  147.5910 C   0  0  0  0  0  3  0  0  0  0  0  0
  188.3910  177.2490  144.8500 C   0  0  0  0  0  3  0  0  0  0  0  0
  190.2920  177.1850  147.9910 N   0  0  0  0  0  0  0  0  0  0  0  0
  2  3  1  6  0  0  0
  2  9  1  0  0  0  0
  2 28  1  0  0  0  0
  4  8  1  0  0  0  0
  5 10  1  0  0  0  0
  6  5  2  0  0  0  0
  6  7  1  0  0  0  0
  7  1  1  6  0  0  0
  7  4  1  0  0  0  0
  8  9  1  0  0  0  0
 10  4  2  0  0  0  0
 10  3  1  0  0  0  0
 12 17  1  0  0  0  0
 12 18  1  0  0  0  0
 13 12  2  0  0  0  0
 14 20  1  0  0  0  0
 15 17  1  0  0  0  0
 15 11  1  0  0  0  0
 16 14  2  0  0  0  0
 16 13  1  0  0  0  0
 19 13  1  0  0  0  0
 19 21  1  0  0  0  0
 20 11  2  0  0  0  0
 20  5  1  0  0  0  0
 21 18  1  0  0  0  0
 22 27  1  0  0  0  0
 22 35  1  1  0  0  0
 23 24  1  1  0  0  0
 23 28  1  0  0  0  0
 23 26  1  0  0  0  0
 25 27  1  0  0  0  0
 26 22  1  0  0  0  0
 28 25  1  1  0  0  0
 29 32  1  0  0  0  0
 30 36  1  0  0  0  0
 30 38  1  0  0  0  0
 31 36  2  0  0  0  0
 32 38  2  0  0  0  0
 33 30  2  0  0  0  0
 34 33  1  0  0  0  0
 34 29  2  0  0  0  0
 35 31  1  0  0  0  0
 37 35  2  0  0  0  0
 37 33  1  0  0  0  0
M  END
>  <MODEL>
1

>  <REMARK>
 VINA RESULT:     -10.3      0.000      0.000
  Name = 
  3 active torsions:
  status: ('A' for Active; 'I' for Inactive)
    1  A    between atoms: C_2  and  C_36
    2  A    between atoms: C_8  and  C_23
    3  A    between atoms: C_18  and  C_37
                            x       y       z     vdW  Elec       q    Type
                         _______ _______ _______ _____ _____    ______ ____

>  <TORSDO>
F 3

$$$$
=
 OpenBabel10222416223D

 38 44  0  0  1  0  0  0  0  0999 V2000
  179.2190  180.3100  139.1130 C   0  0  0  0  0  1  0  0  0  0  0  0
  182.9190  178.7070  141.9370 C   0  0  1  0  0  3  0  0  0  0  0  0
  182.7830  177.7490  140.7440 C   0  0  0  0  0  2  0  0  0  0  0  0
  180.4910  178.7110  140.4990 C   0  0  0  0  0  0  0  0  0  0  0  0
  181.1670  177.6890  138.6190 C   0  0  0  0  0  0  0  0  0  0  0  0
  179.9890  178.1460  138.3160 N   0  0  0  0  0  0  0  0  0  0  0  0
  179.4250  178.8500  139.4650 C   0  0  2  0  0  3  0  0  0  0  0  0
  180.4750  179.3060  141.8780 C   0  0  0  0  0  2  0  0  0  0  0  0
  181.6180  178.7570  142.7430 C   0  0  0  0  0  2  0  0  0  0  0  0
  181.5200  178.0510  139.9860 C   0  0  0  0  0  0  0  0  0  0  0  0
  182.0420  177.3060  136.3920 C   0  0  0  0  0  3  0  0  0  0  0  0
  181.6000  174.3370  135.4890 C   0  0  0  0  0  0  0  0  0  0  0  0
  181.8790  173.9480  136.7410 C   0  0  0  0  0  0  0  0  0  0  0  0
  182.8450  175.8160  138.1480 C   0  0  0  0  0  3  0  0  0  0  0  0
  182.8740  176.5850  135.3890 C   0  0  0  0  0  2  0  0  0  0  0  0
  182.8140  174.5500  137.7160 C   0  0  0  0  0  3  0  0  0  0  0  0
  182.0970  175.5020  134.8150 N   0  0  0  0  0  2  0  0  0  0  0  0
  180.5180  173.2280  134.5970 S   0  0  0  0  0  0  0  0  0  0  0  0
  181.2200  172.6640  137.1150 C   0  0  0  0  0  2  0  0  0  0  0  0
  181.9870  176.9160  137.6660 C   0  0  0  0  0  0  0  0  0  0  0  0
  180.0250  172.5090  136.1890 C   0  0  0  0  0  2  0  0  0  0  0  0
  186.1460  177.8240  144.5810 C   0  0  2  0  0  3  0  0  0  0  0  0
  185.4660  178.1180  142.1180 C   0  0  1  0  0  3  0  0  0  0  0  0
  186.0360  179.3360  141.4070 C   0  0  0  0  0  1  0  0  0  0  0  0
  184.2770  179.4330  143.9810 C   0  0  0  0  0  2  0  0  0  0  0  0
  186.5140  177.5790  143.1080 C   0  0  0  0  0  2  0  0  0  0  0  0
  185.5690  179.2270  144.7870 C   0  0  0  0  0  2  0  0  0  0  0  0
  184.1310  178.4270  142.8310 C   0  0  1  0  0  3  0  0  0  0  0  0
  191.9480  176.4980  146.3000 C   0  0  0  0  0  3  0  0  0  0  0  0
  189.4310  177.1550  147.2700 C   0  0  0  0  0  0  0  0  0  0  0  0
  187.1050  177.6960  146.8790 C   0  0  0  0  0  3  0  0  0  0  0  0
  191.7170  176.6490  147.6720 C   0  0  0  0  0  3  0  0  0  0  0  0
  189.6270  177.0150  145.8790 C   0  0  0  0  0  0  0  0  0  0  0  0
  190.8960  176.6850  145.4000 C   0  0  0  0  0  3  0  0  0  0  0  0
  187.2970  177.5620  145.4970 C   0  0  0  0  0  0  0  0  0  0  0  0
  188.1690  177.4930  147.7630 C   0  0  0  0  0  3  0  0  0  0  0  0
  188.5640  177.2220  144.9980 C   0  0  0  0  0  3  0  0  0  0  0  0
  190.4740  176.9720  148.1240 N   0  0  0  0  0  0  0  0  0  0  0  0
  2  3  1  6  0  0  0
  2  9  1  0  0  0  0
  2 28  1  0  0  0  0
  4  8  1  0  0  0  0
  5 10  1  0  0  0  0
  6  5  2  0  0  0  0
  6  7  1  0  0  0  0
  7  1  1  6  0  0  0
  7  4  1  0  0  0  0
  8  9  1  0  0  0  0
 10  4  2  0  0  0  0
 10  3  1  0  0  0  0
 11 20  2  0  0  0  0
 12 13  2  0  0  0  0
 13 19  1  0  0  0  0
 13 16  1  0  0  0  0
 15 11  1  0  0  0  0
 16 14  2  0  0  0  0
 17 15  1  0  0  0  0
 17 12  1  0  0  0  0
 18 12  1  0  0  0  0
 18 21  1  0  0  0  0
 20 14  1  0  0  0  0
 20  5  1  0  0  0  0
 21 19  1  0  0  0  0
 22 27  1  0  0  0  0
 22 35  1  1  0  0  0
 23 24  1  1  0  0  0
 23 28  1  0  0  0  0
 23 26  1  0  0  0  0
 25 27  1  0  0  0  0
 26 22  1  0  0  0  0
 28 25  1  6  0  0  0
 29 32  1  0  0  0  0
 30 36  1  0  0  0  0
 30 38  1  0  0  0  0
 31 36  2  0  0  0  0
 32 38  2  0  0  0  0
 33 30  2  0  0  0  0
 34 33  1  0  0  0  0
 34 29  2  0  0  0  0
 35 31  1  0  0  0  0
 37 35  2  0  0  0  0
 37 33  1  0  0  0  0
M  END
>  <MODEL>
2

>  <REMARK>
 VINA RESULT:      -9.8      1.699      2.571
  Name = 
  3 active torsions:
  status: ('A' for Active; 'I' for Inactive)
    1  A    between atoms: C_2  and  C_36
    2  A    between atoms: C_8  and  C_23
    3  A    between atoms: C_18  and  C_37
                            x       y       z     vdW  Elec       q    Type
                         _______ _______ _______ _____ _____    ______ ____

>  <TORSDO>
F 3

$$$$
=
 OpenBabel10222416223D

 38 44  0  0  1  0  0  0  0  0999 V2000
  180.0770  178.0830  135.6320 C   0  0  0  0  0  1  0  0  0  0  0  0
  182.7730  177.7560  139.7380 C   0  0  1  0  0  3  0  0  0  0  0  0
  183.4750  176.9390  138.6440 C   0  0  0  0  0  2  0  0  0  0  0  0
  181.2590  176.9680  137.4910 C   0  0  0  0  0  0  0  0  0  0  0  0
  182.9240  176.4680  136.0740 C   0  0  0  0  0  0  0  0  0  0  0  0
  181.8660  176.4670  135.3200 N   0  0  0  0  0  0  0  0  0  0  0  0
  180.6900  176.7870  136.1240 C   0  0  2  0  0  3  0  0  0  0  0  0
  180.5020  177.3770  138.7220 C   0  0  0  0  0  2  0  0  0  0  0  0
  181.3580  177.2270  139.9870 C   0  0  0  0  0  2  0  0  0  0  0  0
  182.5740  176.8060  137.4470 C   0  0  0  0  0  0  0  0  0  0  0  0
  184.7880  174.9520  135.7570 C   0  0  0  0  0  3  0  0  0  0  0  0
  187.4960  176.2790  136.6110 C   0  0  0  0  0  0  0  0  0  0  0  0
  187.0590  177.4330  136.0860 C   0  0  0  0  0  0  0  0  0  0  0  0
  184.9700  177.1380  134.6900 C   0  0  0  0  0  3  0  0  0  0  0  0
  186.1280  174.5740  135.2300 C   0  0  0  0  0  2  0  0  0  0  0  0
  186.1860  177.6500  134.9130 C   0  0  0  0  0  3  0  0  0  0  0  0
  187.1440  174.9530  136.1950 N   0  0  0  0  0  2  0  0  0  0  0  0
  188.6680  176.4760  137.9480 S   0  0  0  0  0  0  0  0  0  0  0  0
  187.6550  178.6340  136.7370 C   0  0  0  0  0  2  0  0  0  0  0  0
  184.2710  176.1630  135.5510 C   0  0  0  0  0  0  0  0  0  0  0  0
  188.1090  178.1940  138.1190 C   0  0  0  0  0  2  0  0  0  0  0  0
  184.8530  177.9310  143.4570 C   0  0  2  0  0  3  0  0  0  0  0  0
  185.0860  178.1500  140.9050 C   0  0  1  0  0  3  0  0  0  0  0  0
  185.3780  179.5470  140.3760 C   0  0  0  0  0  1  0  0  0  0  0  0
  182.8880  178.7680  142.0870 C   0  0  0  0  0  2  0  0  0  0  0  0
  185.8080  177.9620  142.2510 C   0  0  0  0  0  2  0  0  0  0  0  0
  183.7600  178.9940  143.3310 C   0  0  0  0  0  2  0  0  0  0  0  0
  183.5720  177.8780  141.0400 C   0  0  1  0  0  3  0  0  0  0  0  0
  189.5450  177.4750  147.4770 C   0  0  0  0  0  3  0  0  0  0  0  0
  186.9260  178.3530  147.1980 C   0  0  0  0  0  0  0  0  0  0  0  0
  184.9430  178.6490  145.8430 C   0  0  0  0  0  3  0  0  0  0  0  0
  188.8700  178.0920  148.5370 C   0  0  0  0  0  3  0  0  0  0  0  0
  187.5750  177.7390  146.1050 C   0  0  0  0  0  0  0  0  0  0  0  0
  188.8910  177.3010  146.2540 C   0  0  0  0  0  3  0  0  0  0  0  0
  185.5850  178.0440  144.7540 C   0  0  0  0  0  0  0  0  0  0  0  0
  185.6100  178.8040  147.0610 C   0  0  0  0  0  3  0  0  0  0  0  0
  186.9070  177.5890  144.8880 C   0  0  0  0  0  3  0  0  0  0  0  0
  187.5860  178.5150  148.3760 N   0  0  0  0  0  0  0  0  0  0  0  0
  2  3  1  6  0  0  0
  2  9  1  0  0  0  0
  2 28  1  0  0  0  0
  4  8  1  0  0  0  0
  5 10  1  0  0  0  0
  6  5  2  0  0  0  0
  6  7  1  0  0  0  0
  7  1  1  6  0  0  0
  7  4  1  0  0  0  0
  8  9  1  0  0  0  0
 10  4  2  0  0  0  0
 10  3  1  0  0  0  0
 12 18  1  0  0  0  0
 13 12  2  0  0  0  0
 13 19  1  0  0  0  0
 14 16  2  0  0  0  0
 14 20  1  0  0  0  0
 15 11  1  0  0  0  0
 15 17  1  0  0  0  0
 16 13  1  0  0  0  0
 17 12  1  0  0  0  0
 18 21  1  0  0  0  0
 19 21  1  0  0  0  0
 20 11  2  0  0  0  0
 20  5  1  0  0  0  0
 22 35  1  1  0  0  0
 23 24  1  1  0  0  0
 23 28  1  0  0  0  0
 23 26  1  0  0  0  0
 25 27  1  0  0  0  0
 26 22  1  0  0  0  0
 27 22  1  0  0  0  0
 28 25  1  1  0  0  0
 29 32  1  0  0  0  0
 30 38  1  0  0  0  0
 31 36  2  0  0  0  0
 33 34  1  0  0  0  0
 33 30  2  0  0  0  0
 34 29  2  0  0  0  0
 35 37  2  0  0  0  0
 35 31  1  0  0  0  0
 36 30  1  0  0  0  0
 37 33  1  0  0  0  0
 38 32  2  0  0  0  0
M  END
>  <MODEL>
3

>  <REMARK>
 VINA RESULT:      -9.5      1.684      2.671
  Name = 
  3 active torsions:
  status: ('A' for Active; 'I' for Inactive)
    1  A    between atoms: C_2  and  C_36
    2  A    between atoms: C_8  and  C_23
    3  A    between atoms: C_18  and  C_37
                            x       y       z     vdW  Elec       q    Type
                         _______ _______ _______ _____ _____    ______ ____

>  <TORSDO>
F 3

$$$$
=
 OpenBabel10222416223D

 38 44  0  0  1  0  0  0  0  0999 V2000
  186.2400  179.0150  145.9790 C   0  0  0  0  0  1  0  0  0  0  0  0
  188.6760  177.3900  142.0220 C   0  0  1  0  0  3  0  0  0  0  0  0
  187.1900  177.5040  141.6510 C   0  0  0  0  0  2  0  0  0  0  0  0
  186.7870  177.4900  144.1160 C   0  0  0  0  0  0  0  0  0  0  0  0
  185.0250  178.3060  142.9920 C   0  0  0  0  0  0  0  0  0  0  0  0
  184.6640  178.3930  144.2370 N   0  0  0  0  0  0  0  0  0  0  0  0
  185.7350  177.8930  145.0950 C   0  0  2  0  0  3  0  0  0  0  0  0
  188.1520  176.9600  144.4460 C   0  0  0  0  0  2  0  0  0  0  0  0
  188.8680  176.4270  143.1980 C   0  0  0  0  0  2  0  0  0  0  0  0
  186.3720  177.7610  142.8860 C   0  0  0  0  0  0  0  0  0  0  0  0
  182.8240  178.6130  142.0230 C   0  0  0  0  0  3  0  0  0  0  0  0
  182.6440  177.3260  139.1710 C   0  0  0  0  0  0  0  0  0  0  0  0
  183.8940  177.7470  138.9370 C   0  0  0  0  0  0  0  0  0  0  0  0
  184.7170  179.3770  140.6880 C   0  0  0  0  0  3  0  0  0  0  0  0
  181.8850  179.0410  140.9510 C   0  0  0  0  0  2  0  0  0  0  0  0
  184.5720  178.9690  139.4220 C   0  0  0  0  0  3  0  0  0  0  0  0
  181.6730  177.9370  140.0330 N   0  0  0  0  0  2  0  0  0  0  0  0
  182.1760  175.8620  138.2570 S   0  0  0  0  0  0  0  0  0  0  0  0
  184.6240  176.8940  137.9550 C   0  0  0  0  0  2  0  0  0  0  0  0
  184.1450  178.7210  141.8800 C   0  0  0  0  0  0  0  0  0  0  0  0
  183.9390  175.5380  137.9710 C   0  0  0  0  0  2  0  0  0  0  0  0
  191.3030  176.2270  138.8700 C   0  0  2  0  0  3  0  0  0  0  0  0
  189.0510  177.3380  139.4300 C   0  0  1  0  0  3  0  0  0  0  0  0
  188.9530  178.8300  139.1510 C   0  0  0  0  0  1  0  0  0  0  0  0
  191.0410  177.5010  141.0500 C   0  0  0  0  0  2  0  0  0  0  0  0
  189.9290  176.6830  138.3490 C   0  0  0  0  0  2  0  0  0  0  0  0
  191.9160  177.2690  139.8090 C   0  0  0  0  0  2  0  0  0  0  0  0
  189.5910  177.0390  140.8450 C   0  0  1  0  0  3  0  0  0  0  0  0
  196.4550  174.1670  136.1160 C   0  0  0  0  0  3  0  0  0  0  0  0
  193.9060  175.1500  135.6250 C   0  0  0  0  0  0  0  0  0  0  0  0
  191.7890  175.9970  136.4360 C   0  0  0  0  0  3  0  0  0  0  0  0
  195.9690  174.3010  134.8110 C   0  0  0  0  0  3  0  0  0  0  0  0
  194.3600  175.0260  136.9550 C   0  0  0  0  0  0  0  0  0  0  0  0
  195.6430  174.5310  137.1940 C   0  0  0  0  0  3  0  0  0  0  0  0
  192.2350  175.8710  137.7580 C   0  0  0  0  0  0  0  0  0  0  0  0
  192.6220  175.6380  135.3710 C   0  0  0  0  0  3  0  0  0  0  0  0
  193.5250  175.3820  138.0170 C   0  0  0  0  0  3  0  0  0  0  0  0
  194.7150  174.7850  134.5940 N   0  0  0  0  0  0  0  0  0  0  0  0
  2  3  1  6  0  0  0
  2  9  1  0  0  0  0
  3 10  1  0  0  0  0
  4  8  1  0  0  0  0
  4  7  1  0  0  0  0
  5  6  2  0  0  0  0
  6  7  1  0  0  0  0
  7  1  1  1  0  0  0
  9  8  1  0  0  0  0
 10  5  1  0  0  0  0
 10  4  2  0  0  0  0
 12 17  1  0  0  0  0
 13 12  2  0  0  0  0
 13 16  1  0  0  0  0
 14 20  1  0  0  0  0
 15 11  1  0  0  0  0
 16 14  2  0  0  0  0
 17 15  1  0  0  0  0
 18 12  1  0  0  0  0
 19 21  1  0  0  0  0
 19 13  1  0  0  0  0
 20 11  2  0  0  0  0
 20  5  1  0  0  0  0
 21 18  1  0  0  0  0
 22 35  1  6  0  0  0
 22 27  1  0  0  0  0
 23 24  1  6  0  0  0
 23 28  1  0  0  0  0
 26 22  1  0  0  0  0
 26 23  1  0  0  0  0
 27 25  1  0  0  0  0
 28 25  1  1  0  0  0
 28  2  1  0  0  0  0
 29 34  1  0  0  0  0
 30 33  1  0  0  0  0
 31 35  1  0  0  0  0
 32 29  2  0  0  0  0
 33 34  2  0  0  0  0
 33 37  1  0  0  0  0
 35 37  2  0  0  0  0
 36 30  1  0  0  0  0
 36 31  2  0  0  0  0
 38 32  1  0  0  0  0
 38 30  2  0  0  0  0
M  END
>  <MODEL>
4

>  <REMARK>
 VINA RESULT:      -8.7      4.992      8.028
  Name = 
  3 active torsions:
  status: ('A' for Active; 'I' for Inactive)
    1  A    between atoms: C_2  and  C_36
    2  A    between atoms: C_8  and  C_23
    3  A    between atoms: C_18  and  C_37
                            x       y       z     vdW  Elec       q    Type
                         _______ _______ _______ _____ _____    ______ ____

>  <TORSDO>
F 3

$$$$
=
 OpenBabel10222416223D

 38 44  0  0  1  0  0  0  0  0999 V2000
  180.0520  180.8000  136.0260 C   0  0  0  0  0  1  0  0  0  0  0  0
  182.3420  179.3560  140.1370 C   0  0  1  0  0  3  0  0  0  0  0  0
  182.4690  178.2290  139.1030 C   0  0  0  0  0  2  0  0  0  0  0  0
  180.5510  179.3450  137.9570 C   0  0  0  0  0  0  0  0  0  0  0  0
  181.6520  177.9640  136.5740 C   0  0  0  0  0  0  0  0  0  0  0  0
  180.7200  178.4710  135.8250 N   0  0  0  0  0  0  0  0  0  0  0  0
  179.9160  179.4070  136.6080 C   0  0  2  0  0  3  0  0  0  0  0  0
  180.1680  180.1620  139.1580 C   0  0  0  0  0  2  0  0  0  0  0  0
  180.8690  179.6620  140.4280 C   0  0  0  0  0  2  0  0  0  0  0  0
  181.5840  178.5160  137.9210 C   0  0  0  0  0  0  0  0  0  0  0  0
  182.7530  175.8090  136.7160 C   0  0  0  0  0  3  0  0  0  0  0  0
  185.8690  176.1080  136.5620 C   0  0  0  0  0  0  0  0  0  0  0  0
  185.6990  177.0730  135.6470 C   0  0  0  0  0  0  0  0  0  0  0  0
  183.3210  177.1970  134.7930 C   0  0  0  0  0  3  0  0  0  0  0  0
  183.6890  174.7540  136.2420 C   0  0  0  0  0  2  0  0  0  0  0  0
  184.6470  177.2040  134.6160 C   0  0  0  0  0  3  0  0  0  0  0  0
  185.0030  174.9910  136.8100 N   0  0  0  0  0  2  0  0  0  0  0  0
  187.3700  176.2590  137.5210 S   0  0  0  0  0  0  0  0  0  0  0  0
  186.8110  178.0660  135.6320 C   0  0  0  0  0  2  0  0  0  0  0  0
  182.6190  176.9680  136.0710 C   0  0  0  0  0  0  0  0  0  0  0  0
  187.4710  177.9930  136.9980 C   0  0  0  0  0  2  0  0  0  0  0  0
  184.7380  178.8170  143.6240 C   0  0  2  0  0  3  0  0  0  0  0  0
  182.3380  179.1060  142.7450 C   0  0  1  0  0  3  0  0  0  0  0  0
  181.4320  177.8900  142.8600 C   0  0  0  0  0  1  0  0  0  0  0  0
  184.1380  177.9610  141.3110 C   0  0  0  0  0  2  0  0  0  0  0  0
  183.2760  179.1500  143.9650 C   0  0  0  0  0  2  0  0  0  0  0  0
  184.8300  177.6430  142.6450 C   0  0  0  0  0  2  0  0  0  0  0  0
  183.1380  179.1190  141.4250 C   0  0  1  0  0  3  0  0  0  0  0  0
  189.6150  177.1080  147.0410 C   0  0  0  0  0  3  0  0  0  0  0  0
  187.0780  178.2290  147.1790 C   0  0  0  0  0  0  0  0  0  0  0  0
  185.0490  178.9740  146.0920 C   0  0  0  0  0  3  0  0  0  0  0  0
  189.0720  177.5230  148.2620 C   0  0  0  0  0  3  0  0  0  0  0  0
  187.5940  177.8250  145.9290 C   0  0  0  0  0  0  0  0  0  0  0  0
  188.8700  177.2630  145.8680 C   0  0  0  0  0  3  0  0  0  0  0  0
  185.5600  178.5790  144.8490 C   0  0  0  0  0  0  0  0  0  0  0  0
  185.8060  178.8000  147.2550 C   0  0  0  0  0  3  0  0  0  0  0  0
  186.8380  178.0040  144.7690 C   0  0  0  0  0  3  0  0  0  0  0  0
  187.8250  178.0700  148.3050 N   0  0  0  0  0  0  0  0  0  0  0  0
  2  3  1  6  0  0  0
  2  9  1  0  0  0  0
  2 28  1  0  0  0  0
  4  8  1  0  0  0  0
  5 10  1  0  0  0  0
  6  5  2  0  0  0  0
  6  7  1  0  0  0  0
  7  1  1  6  0  0  0
  7  4  1  0  0  0  0
  8  9  1  0  0  0  0
 10  4  2  0  0  0  0
 10  3  1  0  0  0  0
 12 17  1  0  0  0  0
 12 18  1  0  0  0  0
 13 12  2  0  0  0  0
 14 20  1  0  0  0  0
 15 11  1  0  0  0  0
 15 17  1  0  0  0  0
 16 14  2  0  0  0  0
 16 13  1  0  0  0  0
 19 13  1  0  0  0  0
 19 21  1  0  0  0  0
 20  5  1  0  0  0  0
 20 11  2  0  0  0  0
 21 18  1  0  0  0  0
 22 26  1  0  0  0  0
 22 35  1  1  0  0  0
 23 24  1  1  0  0  0
 23 26  1  0  0  0  0
 25 27  1  0  0  0  0
 27 22  1  0  0  0  0
 28 25  1  6  0  0  0
 28 23  1  0  0  0  0
 29 32  1  0  0  0  0
 30 36  1  0  0  0  0
 30 38  1  0  0  0  0
 31 36  2  0  0  0  0
 32 38  2  0  0  0  0
 33 30  2  0  0  0  0
 34 33  1  0  0  0  0
 34 29  2  0  0  0  0
 35 31  1  0  0  0  0
 37 35  2  0  0  0  0
 37 33  1  0  0  0  0
M  END
>  <MODEL>
5

>  <REMARK>
 VINA RESULT:      -8.5      1.379      2.274
  Name = 
  3 active torsions:
  status: ('A' for Active; 'I' for Inactive)
    1  A    between atoms: C_2  and  C_36
    2  A    between atoms: C_8  and  C_23
    3  A    between atoms: C_18  and  C_37
                            x       y       z     vdW  Elec       q    Type
                         _______ _______ _______ _____ _____    ______ ____

>  <TORSDO>
F 3

$$$$
=
 OpenBabel10222416223D

 38 44  0  0  1  0  0  0  0  0999 V2000
  192.1350  174.7880  134.6080 C   0  0  0  0  0  1  0  0  0  0  0  0
  189.9670  176.1070  138.8260 C   0  0  1  0  0  3  0  0  0  0  0  0
  188.9820  175.2290  138.0400 C   0  0  0  0  0  2  0  0  0  0  0  0
  190.3970  175.7760  136.0570 C   0  0  0  0  0  0  0  0  0  0  0  0
  189.1280  173.9620  135.6940 C   0  0  0  0  0  0  0  0  0  0  0  0
  189.8070  174.0890  134.5940 N   0  0  0  0  0  0  0  0  0  0  0  0
  190.6930  175.2460  134.6940 C   0  0  2  0  0  3  0  0  0  0  0  0
  191.0740  176.9390  136.7240 C   0  0  0  0  0  2  0  0  0  0  0  0
  190.3520  177.3480  138.0150 C   0  0  0  0  0  2  0  0  0  0  0  0
  189.4980  175.0010  136.6460 C   0  0  0  0  0  0  0  0  0  0  0  0
  187.8320  172.0860  134.8730 C   0  0  0  0  0  3  0  0  0  0  0  0
  184.7870  172.4290  135.5300 C   0  0  0  0  0  0  0  0  0  0  0  0
  185.1340  172.9460  136.7160 C   0  0  0  0  0  0  0  0  0  0  0  0
  187.5880  172.6240  137.2390 C   0  0  0  0  0  3  0  0  0  0  0  0
  186.8590  170.9690  135.0180 C   0  0  0  0  0  2  0  0  0  0  0  0
  186.2930  172.6160  137.5740 C   0  0  0  0  0  3  0  0  0  0  0  0
  185.5200  171.4660  134.7600 N   0  0  0  0  0  2  0  0  0  0  0  0
  183.2150  173.0080  134.9050 S   0  0  0  0  0  0  0  0  0  0  0  0
  184.1210  173.8980  137.2580 C   0  0  0  0  0  2  0  0  0  0  0  0
  188.1330  172.8900  135.8930 C   0  0  0  0  0  0  0  0  0  0  0  0
  183.3210  174.3980  136.0670 C   0  0  0  0  0  2  0  0  0  0  0  0
  188.4380  177.0350  142.6970 C   0  0  2  0  0  3  0  0  0  0  0  0
  190.5410  176.3850  141.3670 C   0  0  1  0  0  3  0  0  0  0  0  0
  191.6140  177.4560  141.2460 C   0  0  0  0  0  1  0  0  0  0  0  0
  188.6650  177.7660  140.2770 C   0  0  0  0  0  2  0  0  0  0  0  0
  189.8770  176.4940  142.7510 C   0  0  0  0  0  2  0  0  0  0  0  0
  188.3150  178.1970  141.7090 C   0  0  0  0  0  2  0  0  0  0  0  0
  189.4940  176.4740  140.2360 C   0  0  1  0  0  3  0  0  0  0  0  0
  188.5640  178.1500  148.7900 C   0  0  0  0  0  3  0  0  0  0  0  0
  186.9230  178.1840  146.5510 C   0  0  0  0  0  0  0  0  0  0  0  0
  186.5950  177.8220  144.1810 C   0  0  0  0  0  3  0  0  0  0  0  0
  187.2310  178.5670  148.8750 C   0  0  0  0  0  3  0  0  0  0  0  0
  188.2630  177.7600  146.4250 C   0  0  0  0  0  0  0  0  0  0  0  0
  189.0820  177.7460  147.5550 C   0  0  0  0  0  3  0  0  0  0  0  0
  187.9270  177.4050  144.0510 C   0  0  0  0  0  0  0  0  0  0  0  0
  186.0940  178.2110  145.4270 C   0  0  0  0  0  3  0  0  0  0  0  0
  188.7620  177.3760  145.1790 C   0  0  0  0  0  3  0  0  0  0  0  0
  186.4450  178.5760  147.7630 N   0  0  0  0  0  0  0  0  0  0  0  0
  2  9  1  6  0  0  0
  2 28  1  0  0  0  0
  3  2  1  0  0  0  0
  4 10  2  0  0  0  0
  4  8  1  0  0  0  0
  5 20  1  0  0  0  0
  5 10  1  0  0  0  0
  6  7  1  0  0  0  0
  6  5  2  0  0  0  0
  7  1  1  1  0  0  0
  7  4  1  0  0  0  0
  8  9  1  0  0  0  0
 10  3  1  0  0  0  0
 11 15  1  0  0  0  0
 11 20  2  0  0  0  0
 12 13  2  0  0  0  0
 13 19  1  0  0  0  0
 13 16  1  0  0  0  0
 14 16  2  0  0  0  0
 17 15  1  0  0  0  0
 17 12  1  0  0  0  0
 18 12  1  0  0  0  0
 18 21  1  0  0  0  0
 20 14  1  0  0  0  0
 21 19  1  0  0  0  0
 22 26  1  0  0  0  0
 22 35  1  1  0  0  0
 23 24  1  6  0  0  0
 23 26  1  0  0  0  0
 25 27  1  0  0  0  0
 27 22  1  0  0  0  0
 28 25  1  6  0  0  0
 28 23  1  0  0  0  0
 29 32  1  0  0  0  0
 30 38  1  0  0  0  0
 31 36  1  0  0  0  0
 33 30  1  0  0  0  0
 33 34  1  0  0  0  0
 34 29  2  0  0  0  0
 35 31  2  0  0  0  0
 35 37  1  0  0  0  0
 36 30  2  0  0  0  0
 37 33  2  0  0  0  0
 38 32  2  0  0  0  0
M  END
>  <MODEL>
6

>  <REMARK>
 VINA RESULT:      -8.0      3.979      6.847
  Name = 
  3 active torsions:
  status: ('A' for Active; 'I' for Inactive)
    1  A    between atoms: C_2  and  C_36
    2  A    between atoms: C_8  and  C_23
    3  A    between atoms: C_18  and  C_37
                            x       y       z     vdW  Elec       q    Type
                         _______ _______ _______ _____ _____    ______ ____

>  <TORSDO>
F 3

$$$$
=
 OpenBabel10222416223D

 38 44  0  0  1  0  0  0  0  0999 V2000
  188.9460  178.4460  149.0130 C   0  0  0  0  0  1  0  0  0  0  0  0
  189.6990  177.3560  144.2720 C   0  0  1  0  0  3  0  0  0  0  0  0
  188.1930  177.5710  144.4760 C   0  0  0  0  0  2  0  0  0  0  0  0
  188.6780  177.2010  146.8980 C   0  0  0  0  0  0  0  0  0  0  0  0
  186.7080  178.2300  146.5950 C   0  0  0  0  0  0  0  0  0  0  0  0
  186.8140  178.1410  147.8860 N   0  0  0  0  0  0  0  0  0  0  0  0
  188.0730  177.4850  148.2320 C   0  0  2  0  0  3  0  0  0  0  0  0
  190.0250  176.5850  146.6460 C   0  0  0  0  0  2  0  0  0  0  0  0
  190.2120  176.2230  145.1660 C   0  0  0  0  0  2  0  0  0  0  0  0
  187.8830  177.6650  145.9440 C   0  0  0  0  0  0  0  0  0  0  0  0
  184.3380  178.2570  146.0830 C   0  0  0  0  0  3  0  0  0  0  0  0
  183.8410  178.5530  143.0030 C   0  0  0  0  0  0  0  0  0  0  0  0
  184.8730  179.4070  142.9510 C   0  0  0  0  0  0  0  0  0  0  0  0
  185.6550  180.1310  145.2450 C   0  0  0  0  0  3  0  0  0  0  0  0
  183.1110  178.8330  145.4680 C   0  0  0  0  0  2  0  0  0  0  0  0
  185.3340  180.3750  143.9690 C   0  0  0  0  0  3  0  0  0  0  0  0
  182.9690  178.3200  144.1180 N   0  0  0  0  0  2  0  0  0  0  0  0
  183.5420  177.6650  141.4800 S   0  0  0  0  0  0  0  0  0  0  0  0
  185.5480  179.4270  141.6210 C   0  0  0  0  0  2  0  0  0  0  0  0
  185.5320  178.8330  145.9360 C   0  0  0  0  0  0  0  0  0  0  0  0
  185.2230  178.1010  140.9530 C   0  0  0  0  0  2  0  0  0  0  0  0
  190.9700  176.6090  140.2700 C   0  0  2  0  0  3  0  0  0  0  0  0
  189.0840  177.5660  141.7340 C   0  0  1  0  0  3  0  0  0  0  0  0
  188.8830  179.0720  141.6670 C   0  0  0  0  0  1  0  0  0  0  0  0
  191.5330  177.6590  142.5110 C   0  0  0  0  0  2  0  0  0  0  0  0
  189.4990  177.0530  140.3430 C   0  0  0  0  0  2  0  0  0  0  0  0
  191.8850  177.5820  141.0180 C   0  0  0  0  0  2  0  0  0  0  0  0
  190.1130  177.1580  142.8100 C   0  0  1  0  0  3  0  0  0  0  0  0
  194.7460  175.0640  135.6090 C   0  0  0  0  0  3  0  0  0  0  0  0
  192.1840  175.9540  136.2000 C   0  0  0  0  0  0  0  0  0  0  0  0
  190.5120  176.6170  137.8190 C   0  0  0  0  0  3  0  0  0  0  0  0
  193.8050  175.2850  134.5980 C   0  0  0  0  0  3  0  0  0  0  0  0
  193.1060  175.7380  137.2470 C   0  0  0  0  0  0  0  0  0  0  0  0
  194.3920  175.2900  136.9420 C   0  0  0  0  0  3  0  0  0  0  0  0
  191.4230  176.3990  138.8620 C   0  0  0  0  0  0  0  0  0  0  0  0
  190.8910  176.3950  136.4920 C   0  0  0  0  0  3  0  0  0  0  0  0
  192.7230  175.9570  138.5730 C   0  0  0  0  0  3  0  0  0  0  0  0
  192.5540  175.7220  134.9120 N   0  0  0  0  0  0  0  0  0  0  0  0
  2  3  1  6  0  0  0
  2  9  1  0  0  0  0
  3 10  1  0  0  0  0
  4  7  1  0  0  0  0
  5  6  2  0  0  0  0
  6  7  1  0  0  0  0
  7  1  1  1  0  0  0
  8  4  1  0  0  0  0
  9  8  1  0  0  0  0
 10  5  1  0  0  0  0
 10  4  2  0  0  0  0
 12 17  1  0  0  0  0
 13 12  2  0  0  0  0
 13 16  1  0  0  0  0
 14 20  1  0  0  0  0
 15 11  1  0  0  0  0
 16 14  2  0  0  0  0
 17 15  1  0  0  0  0
 18 12  1  0  0  0  0
 19 13  1  0  0  0  0
 20 11  2  0  0  0  0
 20  5  1  0  0  0  0
 21 18  1  0  0  0  0
 21 19  1  0  0  0  0
 22 35  1  6  0  0  0
 22 26  1  0  0  0  0
 22 27  1  0  0  0  0
 23 24  1  6  0  0  0
 23 28  1  0  0  0  0
 26 23  1  0  0  0  0
 27 25  1  0  0  0  0
 28 25  1  6  0  0  0
 28  2  1  0  0  0  0
 29 34  1  0  0  0  0
 30 36  1  0  0  0  0
 30 33  1  0  0  0  0
 31 35  1  0  0  0  0
 32 38  1  0  0  0  0
 32 29  2  0  0  0  0
 33 37  1  0  0  0  0
 34 33  2  0  0  0  0
 36 31  2  0  0  0  0
 37 35  2  0  0  0  0
 38 30  2  0  0  0  0
M  END
>  <MODEL>
7

>  <REMARK>
 VINA RESULT:      -7.8      4.213      9.144
  Name = 
  3 active torsions:
  status: ('A' for Active; 'I' for Inactive)
    1  A    between atoms: C_2  and  C_36
    2  A    between atoms: C_8  and  C_23
    3  A    between atoms: C_18  and  C_37
                            x       y       z     vdW  Elec       q    Type
                         _______ _______ _______ _____ _____    ______ ____

>  <TORSDO>
F 3

$$$$
=
 OpenBabel10222416223D

 38 44  0  0  1  0  0  0  0  0999 V2000
  178.9410  180.9370  141.1560 C   0  0  0  0  0  1  0  0  0  0  0  0
  183.1720  178.8230  142.5200 C   0  0  1  0  0  3  0  0  0  0  0  0
  182.5560  177.9710  141.4010 C   0  0  0  0  0  2  0  0  0  0  0  0
  180.4220  179.1380  141.9720 C   0  0  0  0  0  0  0  0  0  0  0  0
  180.3370  178.2060  139.9330 C   0  0  0  0  0  0  0  0  0  0  0  0
  179.1790  178.7820  140.0570 N   0  0  0  0  0  0  0  0  0  0  0  0
  179.0970  179.4430  141.3570 C   0  0  2  0  0  3  0  0  0  0  0  0
  180.9190  179.6280  143.3020 C   0  0  0  0  0  2  0  0  0  0  0  0
  182.2180  178.9220  143.7140 C   0  0  0  0  0  2  0  0  0  0  0  0
  181.1530  178.4350  141.1180 C   0  0  0  0  0  0  0  0  0  0  0  0
  180.6910  176.1070  138.7730 C   0  0  0  0  0  3  0  0  0  0  0  0
  183.5000  176.0310  137.3850 C   0  0  0  0  0  0  0  0  0  0  0  0
  183.3410  177.3220  137.0640 C   0  0  0  0  0  0  0  0  0  0  0  0
  180.9790  178.1400  137.4570 C   0  0  0  0  0  3  0  0  0  0  0  0
  181.0340  175.2790  137.5850 C   0  0  0  0  0  2  0  0  0  0  0  0
  182.1000  178.0540  136.7310 C   0  0  0  0  0  3  0  0  0  0  0  0
  182.4670  175.0510  137.5590 N   0  0  0  0  0  2  0  0  0  0  0  0
  185.2040  175.5210  137.5650 S   0  0  0  0  0  0  0  0  0  0  0  0
  184.6330  178.0540  136.9270 C   0  0  0  0  0  2  0  0  0  0  0  0
  180.7160  177.4400  138.7290 C   0  0  0  0  0  0  0  0  0  0  0  0
  185.6590  177.2700  137.7290 C   0  0  0  0  0  2  0  0  0  0  0  0
  186.9740  177.3960  143.8220 C   0  0  2  0  0  3  0  0  0  0  0  0
  185.7230  178.6410  141.9510 C   0  0  1  0  0  3  0  0  0  0  0  0
  186.0360  180.1230  141.8090 C   0  0  0  0  0  1  0  0  0  0  0  0
  184.9190  178.7730  144.3900 C   0  0  0  0  0  2  0  0  0  0  0  0
  187.0040  177.8970  142.3690 C   0  0  0  0  0  2  0  0  0  0  0  0
  186.3730  178.4440  144.7620 C   0  0  0  0  0  2  0  0  0  0  0  0
  184.5740  178.3770  142.9480 C   0  0  1  0  0  3  0  0  0  0  0  0
  191.6730  176.3940  147.7340 C   0  0  0  0  0  3  0  0  0  0  0  0
  190.8300  176.0080  145.1170 C   0  0  0  0  0  0  0  0  0  0  0  0
  189.1570  176.2720  143.3880 C   0  0  0  0  0  3  0  0  0  0  0  0
  192.4740  175.7200  146.8060 C   0  0  0  0  0  3  0  0  0  0  0  0
  189.9920  176.6900  146.0250 C   0  0  0  0  0  0  0  0  0  0  0  0
  190.4230  176.8790  147.3390 C   0  0  0  0  0  3  0  0  0  0  0  0
  188.3200  176.9450  144.2890 C   0  0  0  0  0  0  0  0  0  0  0  0
  190.4080  175.8040  143.8010 C   0  0  0  0  0  3  0  0  0  0  0  0
  188.7410  177.1530  145.6120 C   0  0  0  0  0  3  0  0  0  0  0  0
  192.0400  175.5420  145.5280 N   0  0  0  0  0  0  0  0  0  0  0  0
  2  3  1  6  0  0  0
  2 28  1  0  0  0  0
  2  9  1  0  0  0  0
  4  8  1  0  0  0  0
  5  6  2  0  0  0  0
  5 10  1  0  0  0  0
  6  7  1  0  0  0  0
  7  1  1  6  0  0  0
  7  4  1  0  0  0  0
  8  9  1  0  0  0  0
 10  3  1  0  0  0  0
 10  4  2  0  0  0  0
 12 17  1  0  0  0  0
 12 18  1  0  0  0  0
 13 12  2  0  0  0  0
 14 20  1  0  0  0  0
 15 11  1  0  0  0  0
 16 13  1  0  0  0  0
 16 14  2  0  0  0  0
 17 15  1  0  0  0  0
 18 21  1  0  0  0  0
 19 13  1  0  0  0  0
 19 21  1  0  0  0  0
 20 11  2  0  0  0  0
 20  5  1  0  0  0  0
 22 35  1  1  0  0  0
 22 27  1  0  0  0  0
 23 24  1  1  0  0  0
 23 26  1  0  0  0  0
 23 28  1  0  0  0  0
 25 27  1  0  0  0  0
 26 22  1  0  0  0  0
 28 25  1  1  0  0  0
 30 38  2  0  0  0  0
 30 33  1  0  0  0  0
 31 36  2  0  0  0  0
 31 35  1  0  0  0  0
 32 29  2  0  0  0  0
 33 34  2  0  0  0  0
 34 29  1  0  0  0  0
 35 37  2  0  0  0  0
 36 30  1  0  0  0  0
 37 33  1  0  0  0  0
 38 32  1  0  0  0  0
M  END
>  <MODEL>
8

>  <REMARK>
 VINA RESULT:      -7.6      1.403      1.985
  Name = 
  3 active torsions:
  status: ('A' for Active; 'I' for Inactive)
    1  A    between atoms: C_2  and  C_36
    2  A    between atoms: C_8  and  C_23
    3  A    between atoms: C_18  and  C_37
                            x       y       z     vdW  Elec       q    Type
                         _______ _______ _______ _____ _____    ______ ____

>  <TORSDO>
F 3

$$$$
=
 OpenBabel10222416223D

 38 44  0  0  1  0  0  0  0  0999 V2000
  192.2460  176.5990  134.5940 C   0  0  0  0  0  1  0  0  0  0  0  0
  190.4650  176.6020  139.1830 C   0  0  1  0  0  3  0  0  0  0  0  0
  191.5720  175.5400  139.1040 C   0  0  0  0  0  2  0  0  0  0  0  0
  191.2220  175.6580  136.6340 C   0  0  0  0  0  0  0  0  0  0  0  0
  193.2020  174.7370  137.1480 C   0  0  0  0  0  0  0  0  0  0  0  0
  193.1940  174.7450  135.8490 N   0  0  0  0  0  0  0  0  0  0  0  0
  191.9450  175.3320  135.3700 C   0  0  2  0  0  3  0  0  0  0  0  0
  189.8930  176.3480  136.7450 C   0  0  0  0  0  2  0  0  0  0  0  0
  189.3490  176.2970  138.1790 C   0  0  0  0  0  2  0  0  0  0  0  0
  191.9790  175.3300  137.6720 C   0  0  0  0  0  0  0  0  0  0  0  0
  195.0560  175.0130  138.6860 C   0  0  0  0  0  3  0  0  0  0  0  0
  197.6690  173.6900  137.5690 C   0  0  0  0  0  0  0  0  0  0  0  0
  196.9190  172.6850  137.0950 C   0  0  0  0  0  0  0  0  0  0  0  0
  194.5520  172.7310  137.9860 C   0  0  0  0  0  3  0  0  0  0  0  0
  196.1850  174.5170  139.5190 C   0  0  0  0  0  2  0  0  0  0  0  0
  195.6850  172.0980  137.6570 C   0  0  0  0  0  3  0  0  0  0  0  0
  197.3970  174.5010  138.7200 N   0  0  0  0  0  2  0  0  0  0  0  0
  199.1760  173.9820  136.6520 S   0  0  0  0  0  0  0  0  0  0  0  0
  197.5160  172.0270  135.8970 C   0  0  0  0  0  2  0  0  0  0  0  0
  194.3280  174.1890  137.9300 C   0  0  0  0  0  0  0  0  0  0  0  0
  198.4610  173.0400  135.2750 C   0  0  0  0  0  2  0  0  0  0  0  0
  188.7270  177.1360  143.0400 C   0  0  2  0  0  3  0  0  0  0  0  0
  190.9180  176.7160  141.7610 C   0  0  1  0  0  3  0  0  0  0  0  0
  191.9270  177.8550  141.7690 C   0  0  0  0  0  1  0  0  0  0  0  0
  189.0060  178.0640  140.6950 C   0  0  0  0  0  2  0  0  0  0  0  0
  190.1940  176.6790  143.1180 C   0  0  0  0  0  2  0  0  0  0  0  0
  188.5720  178.3620  142.1380 C   0  0  0  0  0  2  0  0  0  0  0  0
  189.9140  176.8300  140.5940 C   0  0  1  0  0  3  0  0  0  0  0  0
  188.5740  178.1490  149.1500 C   0  0  0  0  0  3  0  0  0  0  0  0
  186.9780  177.8830  146.8940 C   0  0  0  0  0  0  0  0  0  0  0  0
  186.7510  177.5010  144.5150 C   0  0  0  0  0  3  0  0  0  0  0  0
  187.1830  178.2810  149.2270 C   0  0  0  0  0  3  0  0  0  0  0  0
  188.3780  177.7460  146.7770 C   0  0  0  0  0  0  0  0  0  0  0  0
  189.1730  177.8820  147.9160 C   0  0  0  0  0  3  0  0  0  0  0  0
  188.1400  177.3700  144.3940 C   0  0  0  0  0  0  0  0  0  0  0  0
  186.1700  177.7570  145.7610 C   0  0  0  0  0  3  0  0  0  0  0  0
  188.9550  177.4940  145.5310 C   0  0  0  0  0  3  0  0  0  0  0  0
  186.4200  178.1460  148.1070 N   0  0  0  0  0  0  0  0  0  0  0  0
  2  9  1  6  0  0  0
  2 28  1  0  0  0  0
  3  2  1  0  0  0  0
  4  8  1  0  0  0  0
  4 10  2  0  0  0  0
  5 10  1  0  0  0  0
  5 20  1  0  0  0  0
  6  5  2  0  0  0  0
  7  1  1  1  0  0  0
  7  6  1  0  0  0  0
  7  4  1  0  0  0  0
  8  9  1  0  0  0  0
 10  3  1  0  0  0  0
 11 15  1  0  0  0  0
 12 17  1  0  0  0  0
 13 12  2  0  0  0  0
 13 16  1  0  0  0  0
 16 14  2  0  0  0  0
 17 15  1  0  0  0  0
 18 12  1  0  0  0  0
 19 13  1  0  0  0  0
 20 14  1  0  0  0  0
 20 11  2  0  0  0  0
 21 19  1  0  0  0  0
 21 18  1  0  0  0  0
 22 26  1  0  0  0  0
 22 35  1  1  0  0  0
 23 24  1  1  0  0  0
 23 26  1  0  0  0  0
 25 27  1  0  0  0  0
 27 22  1  0  0  0  0
 28 25  1  6  0  0  0
 28 23  1  0  0  0  0
 29 32  1  0  0  0  0
 30 38  1  0  0  0  0
 31 36  1  0  0  0  0
 33 30  1  0  0  0  0
 33 34  1  0  0  0  0
 34 29  2  0  0  0  0
 35 31  2  0  0  0  0
 35 37  1  0  0  0  0
 36 30  2  0  0  0  0
 37 33  2  0  0  0  0
 38 32  2  0  0  0  0
M  END
>  <MODEL>
9

>  <REMARK>
 VINA RESULT:      -7.5      6.672      9.644
  Name = 
  3 active torsions:
  status: ('A' for Active; 'I' for Inactive)
    1  A    between atoms: C_2  and  C_36
    2  A    between atoms: C_8  and  C_23
    3  A    between atoms: C_18  and  C_37
                            x       y       z     vdW  Elec       q    Type
                         _______ _______ _______ _____ _____    ______ ____

>  <TORSDO>
F 3

$$$$
