=
 OpenBabel10222418473D

 29 30  0  0  1  0  0  0  0  0999 V2000
  182.6650  178.8910  143.8640 C   0  0  0  0  0  1  0  0  0  0  0  0
  184.1620  178.6340  143.9410 C   0  0  2  0  0  3  0  0  0  0  0  0
  188.0070  178.1110  149.2110 Cl  0  0  0  0  0  0  0  0  0  0  0  0
  189.8880  177.2650  146.9200 C   0  0  0  0  0  3  0  0  0  0  0  0
  186.9630  177.9540  144.8080 N   0  0  0  0  0  0  0  0  0  0  0  0
  184.7060  178.7200  145.2990 N   0  0  0  0  0  2  0  0  0  0  0  0
  188.5880  177.6310  146.5470 C   0  0  0  0  0  0  0  0  0  0  0  0
  190.8100  176.8660  145.9500 C   0  0  0  0  0  0  0  0  0  0  0  0
  190.4390  176.8270  144.6010 C   0  0  0  0  0  3  0  0  0  0  0  0
  187.6360  178.0430  147.4930 C   0  0  0  0  0  0  0  0  0  0  0  0
  189.1460  177.1920  144.2190 C   0  0  0  0  0  3  0  0  0  0  0  0
  186.3550  178.4050  147.0710 C   0  0  0  0  0  3  0  0  0  0  0  0
  188.2190  177.5930  145.1830 C   0  0  0  0  0  0  0  0  0  0  0  0
  186.0300  178.3560  145.7140 C   0  0  0  0  0  0  0  0  0  0  0  0
  192.0950  176.5050  146.3240 O   0  0  0  0  0  1  0  0  0  0  0  0
  184.9860  179.3920  142.8880 C   0  0  0  0  0  2  0  0  0  0  0  0
  185.6110  178.5690  141.7520 C   0  0  1  0  0  3  0  0  0  0  0  0
  184.6160  178.1890  140.6630 C   0  0  0  0  0  2  0  0  0  0  0  0
  184.4090  180.0600  139.1700 O   0  0  0  0  0  1  0  0  0  0  0  0
  183.7820  179.3900  140.2230 C   0  0  1  0  0  3  0  0  0  0  0  0
  181.9820  179.5210  138.4390 C   0  0  0  0  0  1  0  0  0  0  0  0
  182.1880  177.4840  139.8580 C   0  0  0  0  0  1  0  0  0  0  0  0
  182.3650  178.9900  139.8120 C   0  0  0  0  0  3  0  0  0  0  0  0
  186.7080  179.2330  141.2000 O   0  0  0  0  0  0  0  0  0  0  0  0
  187.7140  178.2690  141.1150 C   0  0  0  0  0  2  0  0  0  0  0  0
  188.5370  178.4850  139.8550 C   0  0  0  0  0  2  0  0  0  0  0  0
  187.8070  177.9610  138.6270 C   0  0  0  0  0  2  0  0  0  0  0  0
  188.9480  179.6900  137.4600 O   0  0  0  0  0  1  0  0  0  0  0  0
  188.5430  178.3600  137.3630 C   0  0  0  0  0  2  0  0  0  0  0  0
  2  1  1  1  0  0  0
  2  6  1  0  0  0  0
  5 13  1  0  0  0  0
  5 14  2  0  0  0  0
  6 14  1  0  0  0  0
  7  4  1  0  0  0  0
  7 10  1  0  0  0  0
  8 15  1  0  0  0  0
  8  4  2  0  0  0  0
  9  8  1  0  0  0  0
 10  3  1  0  0  0  0
 11  9  2  0  0  0  0
 11 13  1  0  0  0  0
 12 10  2  0  0  0  0
 13  7  2  0  0  0  0
 14 12  1  0  0  0  0
 16  2  1  0  0  0  0
 17 18  1  6  0  0  0
 17 16  1  0  0  0  0
 20 19  1  6  0  0  0
 20 18  1  0  0  0  0
 21 23  1  0  0  0  0
 23 22  1  0  0  0  0
 23 20  1  0  0  0  0
 24 17  1  0  0  0  0
 25 24  1  0  0  0  0
 26 25  1  0  0  0  0
 27 26  1  0  0  0  0
 29 28  1  0  0  0  0
 29 27  1  0  0  0  0
M  END
>  <MODEL>
1

>  <REMARK>
 VINA RESULT:      -7.8      0.000      0.000
  Name = 
  11 active torsions:
  status: ('A' for Active; 'I' for Inactive)
    1  A    between atoms: C_1  and  C_5
    2  A    between atoms: C_1  and  O_23
    3  A    between atoms: C_5  and  C_17
    4  A    between atoms: C_6  and  C_20
    5  A    between atoms: C_6  and  C_25
    6  A    between atoms: N_9  and  C_19
    7  A    between atoms: C_17  and  C_29
    8  A    between atoms: C_19  and  C_24
    9  A    between atoms: C_20  and  C_21
   10  A    between atoms: C_21  and  O_23
   11  A    between atoms: C_21  and  C_24
                            x       y       z     vdW  Elec       q    Type
                         _______ _______ _______ _____ _____    ______ ____

>  <TORSDO>
F 11

$$$$
=
 OpenBabel10222418473D

 29 30  0  0  1  0  0  0  0  0999 V2000
  186.2510  179.3600  147.4530 C   0  0  0  0  0  1  0  0  0  0  0  0
  185.9360  178.8350  146.0610 C   0  0  2  0  0  3  0  0  0  0  0  0
  180.1400  178.8630  143.0230 Cl  0  0  0  0  0  0  0  0  0  0  0  0
  182.1320  178.8170  140.6710 C   0  0  0  0  0  3  0  0  0  0  0  0
  184.6560  178.7610  143.3380 N   0  0  0  0  0  0  0  0  0  0  0  0
  184.5030  178.7650  145.7670 N   0  0  0  0  0  2  0  0  0  0  0  0
  182.6940  178.8070  141.9540 C   0  0  0  0  0  0  0  0  0  0  0  0
  182.9570  178.8000  139.5430 C   0  0  0  0  0  0  0  0  0  0  0  0
  184.3480  178.7740  139.6910 C   0  0  0  0  0  3  0  0  0  0  0  0
  181.8960  178.8190  143.1100 C   0  0  0  0  0  0  0  0  0  0  0  0
  184.9180  178.7620  140.9660 C   0  0  0  0  0  3  0  0  0  0  0  0
  182.5030  178.8010  144.3670 C   0  0  0  0  0  3  0  0  0  0  0  0
  184.1000  178.7790  142.0980 C   0  0  0  0  0  0  0  0  0  0  0  0
  183.8960  178.7710  144.4670 C   0  0  0  0  0  0  0  0  0  0  0  0
  182.3960  178.8090  138.2750 O   0  0  0  0  0  1  0  0  0  0  0  0
  186.7170  177.5670  145.6750 C   0  0  0  0  0  2  0  0  0  0  0  0
  187.9330  177.7390  144.7540 C   0  0  1  0  0  3  0  0  0  0  0  0
  189.1810  178.2180  145.4840 C   0  0  0  0  0  2  0  0  0  0  0  0
  191.4540  177.4740  145.2510 O   0  0  0  0  0  1  0  0  0  0  0  0
  190.1850  177.0830  145.6820 C   0  0  1  0  0  3  0  0  0  0  0  0
  191.6670  176.2890  147.5810 C   0  0  0  0  0  1  0  0  0  0  0  0
  189.6350  177.6450  148.0670 C   0  0  0  0  0  1  0  0  0  0  0  0
  190.2510  176.6170  147.1360 C   0  0  0  0  0  3  0  0  0  0  0  0
  188.1990  176.5600  144.0550 O   0  0  0  0  0  0  0  0  0  0  0  0
  187.7930  176.8140  142.7430 C   0  0  0  0  0  2  0  0  0  0  0  0
  188.9350  177.4370  141.9560 C   0  0  0  0  0  2  0  0  0  0  0  0
  188.4320  178.5490  141.0470 C   0  0  0  0  0  2  0  0  0  0  0  0
  188.9440  179.1090  138.7940 O   0  0  0  0  0  1  0  0  0  0  0  0
  188.4370  178.0930  139.6010 C   0  0  0  0  0  2  0  0  0  0  0  0
  2  1  1  1  0  0  0
  3 10  1  0  0  0  0
  4  7  1  0  0  0  0
  5 14  2  0  0  0  0
  6  2  1  0  0  0  0
  7 13  2  0  0  0  0
  7 10  1  0  0  0  0
  8  9  1  0  0  0  0
  8  4  2  0  0  0  0
  9 11  2  0  0  0  0
 10 12  2  0  0  0  0
 11 13  1  0  0  0  0
 12 14  1  0  0  0  0
 13  5  1  0  0  0  0
 14  6  1  0  0  0  0
 15  8  1  0  0  0  0
 16  2  1  0  0  0  0
 17 18  1  1  0  0  0
 17 16  1  0  0  0  0
 18 20  1  0  0  0  0
 20 19  1  1  0  0  0
 20 23  1  0  0  0  0
 23 21  1  0  0  0  0
 23 22  1  0  0  0  0
 24 17  1  0  0  0  0
 25 24  1  0  0  0  0
 26 25  1  0  0  0  0
 27 26  1  0  0  0  0
 28 29  1  0  0  0  0
 29 27  1  0  0  0  0
M  END
>  <MODEL>
2

>  <REMARK>
 VINA RESULT:      -7.7      2.363      7.178
  Name = 
  11 active torsions:
  status: ('A' for Active; 'I' for Inactive)
    1  A    between atoms: C_1  and  C_5
    2  A    between atoms: C_1  and  O_23
    3  A    between atoms: C_5  and  C_17
    4  A    between atoms: C_6  and  C_20
    5  A    between atoms: C_6  and  C_25
    6  A    between atoms: N_9  and  C_19
    7  A    between atoms: C_17  and  C_29
    8  A    between atoms: C_19  and  C_24
    9  A    between atoms: C_20  and  C_21
   10  A    between atoms: C_21  and  O_23
   11  A    between atoms: C_21  and  C_24
                            x       y       z     vdW  Elec       q    Type
                         _______ _______ _______ _____ _____    ______ ____

>  <TORSDO>
F 11

$$$$
=
 OpenBabel10222418473D

 29 30  0  0  1  0  0  0  0  0999 V2000
  185.9710  179.7970  147.4990 C   0  0  0  0  0  1  0  0  0  0  0  0
  185.7380  178.8760  146.3120 C   0  0  2  0  0  3  0  0  0  0  0  0
  180.3060  178.9710  142.6650 Cl  0  0  0  0  0  0  0  0  0  0  0  0
  182.5380  178.8480  140.5430 C   0  0  0  0  0  3  0  0  0  0  0  0
  184.7580  178.7840  143.4680 N   0  0  0  0  0  0  0  0  0  0  0  0
  184.3440  178.8300  145.8660 N   0  0  0  0  0  2  0  0  0  0  0  0
  182.9580  178.8470  141.8790 C   0  0  0  0  0  0  0  0  0  0  0  0
  183.4790  178.7950  139.5120 C   0  0  0  0  0  0  0  0  0  0  0  0
  184.8450  178.7450  139.8090 C   0  0  0  0  0  3  0  0  0  0  0  0
  182.0410  178.8930  142.9420 C   0  0  0  0  0  0  0  0  0  0  0  0
  185.2740  178.7420  141.1390 C   0  0  0  0  0  3  0  0  0  0  0  0
  182.5080  178.8830  144.2580 C   0  0  0  0  0  3  0  0  0  0  0  0
  184.3390  178.7930  142.1750 C   0  0  0  0  0  0  0  0  0  0  0  0
  183.8810  178.8280  144.5090 C   0  0  0  0  0  0  0  0  0  0  0  0
  183.0580  178.7960  138.1910 O   0  0  0  0  0  1  0  0  0  0  0  0
  186.3970  177.4930  146.4500 C   0  0  0  0  0  2  0  0  0  0  0  0
  187.7570  177.2870  145.7690 C   0  0  1  0  0  3  0  0  0  0  0  0
  187.6660  177.1980  144.2510 C   0  0  0  0  0  2  0  0  0  0  0  0
  188.8510  175.6030  142.9000 O   0  0  0  0  0  1  0  0  0  0  0  0
  189.0000  176.7830  143.6330 C   0  0  1  0  0  3  0  0  0  0  0  0
  191.1050  177.9470  142.8290 C   0  0  0  0  0  1  0  0  0  0  0  0
  189.1540  177.6990  141.3000 C   0  0  0  0  0  1  0  0  0  0  0  0
  189.5890  177.8770  142.7430 C   0  0  0  0  0  3  0  0  0  0  0  0
  188.6600  178.2830  146.1450 O   0  0  0  0  0  0  0  0  0  0  0  0
  189.1660  177.8700  147.3800 C   0  0  0  0  0  2  0  0  0  0  0  0
  189.9090  176.5520  147.2230 C   0  0  0  0  0  2  0  0  0  0  0  0
  191.3780  176.7860  146.9050 C   0  0  0  0  0  2  0  0  0  0  0  0
  193.1210  175.9630  148.2970 O   0  0  0  0  0  1  0  0  0  0  0  0
  192.2060  175.5840  147.3170 C   0  0  0  0  0  2  0  0  0  0  0  0
  2 16  1  0  0  0  0
  2  1  1  1  0  0  0
  3 10  1  0  0  0  0
  4  7  1  0  0  0  0
  5 14  2  0  0  0  0
  6  2  1  0  0  0  0
  7 13  2  0  0  0  0
  7 10  1  0  0  0  0
  8  9  1  0  0  0  0
  8  4  2  0  0  0  0
  9 11  2  0  0  0  0
 10 12  2  0  0  0  0
 11 13  1  0  0  0  0
 12 14  1  0  0  0  0
 13  5  1  0  0  0  0
 14  6  1  0  0  0  0
 15  8  1  0  0  0  0
 17 18  1  6  0  0  0
 17 24  1  0  0  0  0
 17 16  1  0  0  0  0
 20 19  1  6  0  0  0
 20 18  1  0  0  0  0
 22 23  1  0  0  0  0
 23 21  1  0  0  0  0
 23 20  1  0  0  0  0
 24 25  1  0  0  0  0
 26 25  1  0  0  0  0
 27 26  1  0  0  0  0
 27 29  1  0  0  0  0
 29 28  1  0  0  0  0
M  END
>  <MODEL>
3

>  <REMARK>
 VINA RESULT:      -7.6      2.820      7.435
  Name = 
  11 active torsions:
  status: ('A' for Active; 'I' for Inactive)
    1  A    between atoms: C_1  and  C_5
    2  A    between atoms: C_1  and  O_23
    3  A    between atoms: C_5  and  C_17
    4  A    between atoms: C_6  and  C_20
    5  A    between atoms: C_6  and  C_25
    6  A    between atoms: N_9  and  C_19
    7  A    between atoms: C_17  and  C_29
    8  A    between atoms: C_19  and  C_24
    9  A    between atoms: C_20  and  C_21
   10  A    between atoms: C_21  and  O_23
   11  A    between atoms: C_21  and  C_24
                            x       y       z     vdW  Elec       q    Type
                         _______ _______ _______ _____ _____    ______ ____

>  <TORSDO>
F 11

$$$$
=
 OpenBabel10222418473D

 29 30  0  0  1  0  0  0  0  0999 V2000
  191.4740  177.0860  139.8400 C   0  0  0  0  0  1  0  0  0  0  0  0
  190.7950  177.4780  141.1430 C   0  0  2  0  0  3  0  0  0  0  0  0
  192.2800  175.8740  147.3120 Cl  0  0  0  0  0  0  0  0  0  0  0  0
  189.4320  177.0240  147.5830 C   0  0  0  0  0  3  0  0  0  0  0  0
  189.6880  177.4320  143.9420 N   0  0  0  0  0  0  0  0  0  0  0  0
  191.4450  176.9260  142.3360 N   0  0  0  0  0  2  0  0  0  0  0  0
  189.9620  176.9880  146.2860 C   0  0  0  0  0  0  0  0  0  0  0  0
  188.1490  177.5290  147.8030 C   0  0  0  0  0  0  0  0  0  0  0  0
  187.3880  178.0050  146.7310 C   0  0  0  0  0  3  0  0  0  0  0  0
  191.2460  176.4820  146.0260 C   0  0  0  0  0  0  0  0  0  0  0  0
  187.9060  177.9730  145.4330 C   0  0  0  0  0  3  0  0  0  0  0  0
  191.7270  176.4620  144.7150 C   0  0  0  0  0  3  0  0  0  0  0  0
  189.1880  177.4680  145.2050 C   0  0  0  0  0  0  0  0  0  0  0  0
  190.9300  176.9440  143.6740 C   0  0  0  0  0  0  0  0  0  0  0  0
  187.6290  177.5610  149.0880 O   0  0  0  0  0  1  0  0  0  0  0  0
  189.2670  177.3140  141.1310 C   0  0  0  0  0  2  0  0  0  0  0  0
  188.4440  178.4010  140.4260 C   0  0  1  0  0  3  0  0  0  0  0  0
  187.5090  177.8530  139.3560 C   0  0  0  0  0  2  0  0  0  0  0  0
  188.9440  179.2730  138.0530 O   0  0  0  0  0  1  0  0  0  0  0  0
  187.8320  178.4320  137.9800 C   0  0  1  0  0  3  0  0  0  0  0  0
  189.5300  176.9050  136.8760 C   0  0  0  0  0  1  0  0  0  0  0  0
  187.1780  176.1410  137.1830 C   0  0  0  0  0  1  0  0  0  0  0  0
  188.0750  177.3410  136.9370 C   0  0  0  0  0  3  0  0  0  0  0  0
  187.7320  179.1670  141.3510 O   0  0  0  0  0  0  0  0  0  0  0  0
  186.8100  178.2860  141.9210 C   0  0  0  0  0  2  0  0  0  0  0  0
  185.5090  179.0150  142.2180 C   0  0  0  0  0  2  0  0  0  0  0  0
  184.7960  178.3990  143.4130 C   0  0  0  0  0  2  0  0  0  0  0  0
  184.1200  179.0370  145.6020 O   0  0  0  0  0  1  0  0  0  0  0  0
  184.1900  179.4830  144.2840 C   0  0  0  0  0  2  0  0  0  0  0  0
  2  1  1  6  0  0  0
  2  6  1  0  0  0  0
  4  8  1  0  0  0  0
  5 13  1  0  0  0  0
  6 14  1  0  0  0  0
  7  4  2  0  0  0  0
  8 15  1  0  0  0  0
  9  8  2  0  0  0  0
 10  7  1  0  0  0  0
 10  3  1  0  0  0  0
 11  9  1  0  0  0  0
 12 10  2  0  0  0  0
 13 11  2  0  0  0  0
 13  7  1  0  0  0  0
 14  5  2  0  0  0  0
 14 12  1  0  0  0  0
 16  2  1  0  0  0  0
 17 18  1  6  0  0  0
 17 16  1  0  0  0  0
 17 24  1  0  0  0  0
 20 19  1  1  0  0  0
 20 18  1  0  0  0  0
 21 23  1  0  0  0  0
 23 22  1  0  0  0  0
 23 20  1  0  0  0  0
 24 25  1  0  0  0  0
 25 26  1  0  0  0  0
 26 27  1  0  0  0  0
 27 29  1  0  0  0  0
 29 28  1  0  0  0  0
M  END
>  <MODEL>
4

>  <REMARK>
 VINA RESULT:      -7.5      2.631      5.361
  Name = 
  11 active torsions:
  status: ('A' for Active; 'I' for Inactive)
    1  A    between atoms: C_1  and  C_5
    2  A    between atoms: C_1  and  O_23
    3  A    between atoms: C_5  and  C_17
    4  A    between atoms: C_6  and  C_20
    5  A    between atoms: C_6  and  C_25
    6  A    between atoms: N_9  and  C_19
    7  A    between atoms: C_17  and  C_29
    8  A    between atoms: C_19  and  C_24
    9  A    between atoms: C_20  and  C_21
   10  A    between atoms: C_21  and  O_23
   11  A    between atoms: C_21  and  C_24
                            x       y       z     vdW  Elec       q    Type
                         _______ _______ _______ _____ _____    ______ ____

>  <TORSDO>
F 11

$$$$
=
 OpenBabel10222418473D

 29 30  0  0  1  0  0  0  0  0999 V2000
  190.4450  178.8230  143.6420 C   0  0  0  0  0  1  0  0  0  0  0  0
  189.7330  177.6390  143.0080 C   0  0  2  0  0  3  0  0  0  0  0  0
  187.3270  178.6520  137.0070 Cl  0  0  0  0  0  0  0  0  0  0  0  0
  189.8350  176.9480  136.4470 C   0  0  0  0  0  3  0  0  0  0  0  0
  190.1860  176.9940  140.1030 N   0  0  0  0  0  0  0  0  0  0  0  0
  188.8680  178.0030  141.8830 N   0  0  0  0  0  2  0  0  0  0  0  0
  189.5690  177.2290  137.7940 C   0  0  0  0  0  0  0  0  0  0  0  0
  190.9500  176.1840  136.0970 C   0  0  0  0  0  0  0  0  0  0  0  0
  191.8080  175.6980  137.0890 C   0  0  0  0  0  3  0  0  0  0  0  0
  188.4540  177.9900  138.1830 C   0  0  0  0  0  0  0  0  0  0  0  0
  191.5510  175.9710  138.4350 C   0  0  0  0  0  3  0  0  0  0  0  0
  188.2280  178.2380  139.5390 C   0  0  0  0  0  3  0  0  0  0  0  0
  190.4380  176.7340  138.7930 C   0  0  0  0  0  0  0  0  0  0  0  0
  189.1090  177.7290  140.4960 C   0  0  0  0  0  0  0  0  0  0  0  0
  191.2080  175.9070  134.7630 O   0  0  0  0  0  1  0  0  0  0  0  0
  189.0750  176.6850  144.0190 C   0  0  0  0  0  2  0  0  0  0  0  0
  188.1830  177.3080  145.1020 C   0  0  1  0  0  3  0  0  0  0  0  0
  186.6940  177.1110  144.8460 C   0  0  0  0  0  2  0  0  0  0  0  0
  185.3360  178.0990  143.1270 O   0  0  0  0  0  1  0  0  0  0  0  0
  186.0470  178.3810  144.2960 C   0  0  1  0  0  3  0  0  0  0  0  0
  183.6670  179.0330  144.8840 C   0  0  0  0  0  1  0  0  0  0  0  0
  185.2720  178.4090  146.6850 C   0  0  0  0  0  1  0  0  0  0  0  0
  185.1250  179.0480  145.3160 C   0  0  0  0  0  3  0  0  0  0  0  0
  188.5270  176.8310  146.3680 O   0  0  0  0  0  0  0  0  0  0  0  0
  189.3240  177.8300  146.9310 C   0  0  0  0  0  2  0  0  0  0  0  0
  190.4740  177.2040  147.7050 C   0  0  0  0  0  2  0  0  0  0  0  0
  191.2220  176.1910  146.8510 C   0  0  0  0  0  2  0  0  0  0  0  0
  192.7730  176.6150  148.6020 O   0  0  0  0  0  1  0  0  0  0  0  0
  192.4940  175.7480  147.5480 C   0  0  0  0  0  2  0  0  0  0  0  0
  2  1  1  1  0  0  0
  2 16  1  0  0  0  0
  3 10  1  0  0  0  0
  4  7  1  0  0  0  0
  5 14  2  0  0  0  0
  6  2  1  0  0  0  0
  7 10  1  0  0  0  0
  7 13  2  0  0  0  0
  8  4  2  0  0  0  0
  8  9  1  0  0  0  0
  9 11  2  0  0  0  0
 10 12  2  0  0  0  0
 11 13  1  0  0  0  0
 12 14  1  0  0  0  0
 13  5  1  0  0  0  0
 14  6  1  0  0  0  0
 15  8  1  0  0  0  0
 17 16  1  6  0  0  0
 17 24  1  0  0  0  0
 18 17  1  0  0  0  0
 20 19  1  6  0  0  0
 20 18  1  0  0  0  0
 20 23  1  0  0  0  0
 21 23  1  0  0  0  0
 23 22  1  0  0  0  0
 24 25  1  0  0  0  0
 25 26  1  0  0  0  0
 27 29  1  0  0  0  0
 27 26  1  0  0  0  0
 29 28  1  0  0  0  0
M  END
>  <MODEL>
5

>  <REMARK>
 VINA RESULT:      -7.4      3.787      7.887
  Name = 
  11 active torsions:
  status: ('A' for Active; 'I' for Inactive)
    1  A    between atoms: C_1  and  C_5
    2  A    between atoms: C_1  and  O_23
    3  A    between atoms: C_5  and  C_17
    4  A    between atoms: C_6  and  C_20
    5  A    between atoms: C_6  and  C_25
    6  A    between atoms: N_9  and  C_19
    7  A    between atoms: C_17  and  C_29
    8  A    between atoms: C_19  and  C_24
    9  A    between atoms: C_20  and  C_21
   10  A    between atoms: C_21  and  O_23
   11  A    between atoms: C_21  and  C_24
                            x       y       z     vdW  Elec       q    Type
                         _______ _______ _______ _____ _____    ______ ____

>  <TORSDO>
F 11

$$$$
=
 OpenBabel10222418473D

 29 30  0  0  1  0  0  0  0  0999 V2000
  191.0260  179.1260  143.8150 C   0  0  0  0  0  1  0  0  0  0  0  0
  190.4890  177.7920  143.3210 C   0  0  2  0  0  3  0  0  0  0  0  0
  191.4460  175.9700  137.1090 Cl  0  0  0  0  0  0  0  0  0  0  0  0
  188.6020  177.1550  137.0310 C   0  0  0  0  0  3  0  0  0  0  0  0
  189.2020  177.7800  140.6000 N   0  0  0  0  0  0  0  0  0  0  0  0
  191.0940  177.3400  142.0650 N   0  0  0  0  0  2  0  0  0  0  0  0
  189.2480  177.1850  138.2740 C   0  0  0  0  0  0  0  0  0  0  0  0
  187.3090  177.6680  136.9000 C   0  0  0  0  0  0  0  0  0  0  0  0
  186.6530  178.2120  138.0090 C   0  0  0  0  0  3  0  0  0  0  0  0
  190.5490  176.6830  138.4420 C   0  0  0  0  0  0  0  0  0  0  0  0
  187.2900  178.2490  139.2520 C   0  0  0  0  0  3  0  0  0  0  0  0
  191.1530  176.7420  139.7000 C   0  0  0  0  0  3  0  0  0  0  0  0
  188.5820  177.7380  139.3910 C   0  0  0  0  0  0  0  0  0  0  0  0
  190.4630  177.2980  140.7790 C   0  0  0  0  0  0  0  0  0  0  0  0
  186.6740  177.6360  135.6670 O   0  0  0  0  0  1  0  0  0  0  0  0
  188.9560  177.6810  143.3520 C   0  0  0  0  0  2  0  0  0  0  0  0
  188.2780  177.6260  144.7290 C   0  0  1  0  0  3  0  0  0  0  0  0
  186.8090  177.2290  144.6640 C   0  0  0  0  0  2  0  0  0  0  0  0
  185.1890  177.8700  143.0090 O   0  0  0  0  0  1  0  0  0  0  0  0
  185.9520  178.3490  144.0760 C   0  0  1  0  0  3  0  0  0  0  0  0
  183.5760  178.9750  144.7070 C   0  0  0  0  0  1  0  0  0  0  0  0
  185.2050  178.3180  146.4740 C   0  0  0  0  0  1  0  0  0  0  0  0
  185.0390  178.9870  145.1230 C   0  0  0  0  0  3  0  0  0  0  0  0
  188.9740  176.7790  145.5930 O   0  0  0  0  0  0  0  0  0  0  0  0
  188.8390  177.3570  146.8580 C   0  0  0  0  0  2  0  0  0  0  0  0
  190.0200  176.9700  147.7350 C   0  0  0  0  0  2  0  0  0  0  0  0
  191.2880  176.8150  146.9090 C   0  0  0  0  0  2  0  0  0  0  0  0
  192.9480  176.0000  148.4040 O   0  0  0  0  0  1  0  0  0  0  0  0
  192.0840  175.6140  147.3820 C   0  0  0  0  0  2  0  0  0  0  0  0
  2 16  1  0  0  0  0
  2  1  1  6  0  0  0
  3 10  1  0  0  0  0
  4  7  1  0  0  0  0
  5 14  2  0  0  0  0
  6  2  1  0  0  0  0
  7 10  1  0  0  0  0
  7 13  2  0  0  0  0
  8  4  2  0  0  0  0
  8  9  1  0  0  0  0
  9 11  2  0  0  0  0
 10 12  2  0  0  0  0
 11 13  1  0  0  0  0
 12 14  1  0  0  0  0
 13  5  1  0  0  0  0
 14  6  1  0  0  0  0
 15  8  1  0  0  0  0
 17 16  1  6  0  0  0
 17 24  1  0  0  0  0
 18 17  1  0  0  0  0
 20 19  1  6  0  0  0
 20 18  1  0  0  0  0
 20 23  1  0  0  0  0
 21 23  1  0  0  0  0
 23 22  1  0  0  0  0
 24 25  1  0  0  0  0
 25 26  1  0  0  0  0
 27 29  1  0  0  0  0
 27 26  1  0  0  0  0
 29 28  1  0  0  0  0
M  END
>  <MODEL>
6

>  <REMARK>
 VINA RESULT:      -7.3      3.702      7.902
  Name = 
  11 active torsions:
  status: ('A' for Active; 'I' for Inactive)
    1  A    between atoms: C_1  and  C_5
    2  A    between atoms: C_1  and  O_23
    3  A    between atoms: C_5  and  C_17
    4  A    between atoms: C_6  and  C_20
    5  A    between atoms: C_6  and  C_25
    6  A    between atoms: N_9  and  C_19
    7  A    between atoms: C_17  and  C_29
    8  A    between atoms: C_19  and  C_24
    9  A    between atoms: C_20  and  C_21
   10  A    between atoms: C_21  and  O_23
   11  A    between atoms: C_21  and  C_24
                            x       y       z     vdW  Elec       q    Type
                         _______ _______ _______ _____ _____    ______ ____

>  <TORSDO>
F 11

$$$$
=
 OpenBabel10222418473D

 29 30  0  0  1  0  0  0  0  0999 V2000
  184.3950  178.2550  142.0520 C   0  0  0  0  0  1  0  0  0  0  0  0
  185.7940  178.0400  142.6070 C   0  0  2  0  0  3  0  0  0  0  0  0
  187.7850  177.8380  148.8380 Cl  0  0  0  0  0  0  0  0  0  0  0  0
  190.2920  176.9130  147.3000 C   0  0  0  0  0  3  0  0  0  0  0  0
  188.1800  177.4500  144.3440 N   0  0  0  0  0  0  0  0  0  0  0  0
  185.8830  178.2010  144.0610 N   0  0  0  0  0  2  0  0  0  0  0  0
  189.1750  177.2390  146.5190 C   0  0  0  0  0  0  0  0  0  0  0  0
  191.4730  176.4820  146.6910 C   0  0  0  0  0  0  0  0  0  0  0  0
  191.5450  176.3720  145.2990 C   0  0  0  0  0  3  0  0  0  0  0  0
  187.9740  177.6810  147.0960 C   0  0  0  0  0  0  0  0  0  0  0  0
  190.4380  176.6970  144.5110 C   0  0  0  0  0  3  0  0  0  0  0  0
  186.8900  178.0000  146.2750 C   0  0  0  0  0  3  0  0  0  0  0  0
  189.2540  177.1290  145.1120 C   0  0  0  0  0  0  0  0  0  0  0  0
  187.0090  177.8800  144.8880 C   0  0  0  0  0  0  0  0  0  0  0  0
  192.5750  176.1620  147.4690 O   0  0  0  0  0  1  0  0  0  0  0  0
  186.8990  178.7720  141.8280 C   0  0  0  0  0  2  0  0  0  0  0  0
  187.6210  177.9880  140.7220 C   0  0  1  0  0  3  0  0  0  0  0  0
  187.4800  178.6210  139.3430 C   0  0  0  0  0  2  0  0  0  0  0  0
  185.2460  179.2920  138.7680 O   0  0  0  0  0  1  0  0  0  0  0  0
  186.1570  178.2370  138.6830 C   0  0  1  0  0  3  0  0  0  0  0  0
  187.6810  178.2590  136.6550 C   0  0  0  0  0  1  0  0  0  0  0  0
  186.1580  176.3270  137.0520 C   0  0  0  0  0  1  0  0  0  0  0  0
  186.3390  177.8240  137.2230 C   0  0  0  0  0  3  0  0  0  0  0  0
  188.9680  177.8050  141.0390 O   0  0  0  0  0  0  0  0  0  0  0  0
  189.6500  177.9340  139.8270 C   0  0  0  0  0  2  0  0  0  0  0  0
  190.7400  176.8780  139.7270 C   0  0  0  0  0  2  0  0  0  0  0  0
  190.7700  176.2510  138.3410 C   0  0  0  0  0  2  0  0  0  0  0  0
  193.0940  176.7530  138.3450 O   0  0  0  0  0  1  0  0  0  0  0  0
  192.1690  175.7670  138.0100 C   0  0  0  0  0  2  0  0  0  0  0  0
  2  1  1  6  0  0  0
  2  6  1  0  0  0  0
  5 14  2  0  0  0  0
  5 13  1  0  0  0  0
  6 14  1  0  0  0  0
  7 10  1  0  0  0  0
  7  4  2  0  0  0  0
  8  4  1  0  0  0  0
  8 15  1  0  0  0  0
  9  8  2  0  0  0  0
 10  3  1  0  0  0  0
 11 13  2  0  0  0  0
 11  9  1  0  0  0  0
 12 10  2  0  0  0  0
 13  7  1  0  0  0  0
 14 12  1  0  0  0  0
 16  2  1  0  0  0  0
 17 18  1  6  0  0  0
 17 24  1  0  0  0  0
 17 16  1  0  0  0  0
 20 19  1  6  0  0  0
 20 18  1  0  0  0  0
 21 23  1  0  0  0  0
 22 23  1  0  0  0  0
 23 20  1  0  0  0  0
 25 24  1  0  0  0  0
 26 25  1  0  0  0  0
 27 26  1  0  0  0  0
 29 27  1  0  0  0  0
 29 28  1  0  0  0  0
M  END
>  <MODEL>
7

>  <REMARK>
 VINA RESULT:      -7.2      1.941      2.789
  Name = 
  11 active torsions:
  status: ('A' for Active; 'I' for Inactive)
    1  A    between atoms: C_1  and  C_5
    2  A    between atoms: C_1  and  O_23
    3  A    between atoms: C_5  and  C_17
    4  A    between atoms: C_6  and  C_20
    5  A    between atoms: C_6  and  C_25
    6  A    between atoms: N_9  and  C_19
    7  A    between atoms: C_17  and  C_29
    8  A    between atoms: C_19  and  C_24
    9  A    between atoms: C_20  and  C_21
   10  A    between atoms: C_21  and  O_23
   11  A    between atoms: C_21  and  C_24
                            x       y       z     vdW  Elec       q    Type
                         _______ _______ _______ _____ _____    ______ ____

>  <TORSDO>
F 11

$$$$
=
 OpenBabel10222418473D

 29 30  0  0  1  0  0  0  0  0999 V2000
  188.9500  178.9710  138.2920 C   0  0  0  0  0  1  0  0  0  0  0  0
  188.2900  178.0820  139.3340 C   0  0  2  0  0  3  0  0  0  0  0  0
  182.8430  179.3740  142.7230 Cl  0  0  0  0  0  0  0  0  0  0  0  0
  184.8400  178.5870  144.9350 C   0  0  0  0  0  3  0  0  0  0  0  0
  187.1800  178.2150  142.1290 N   0  0  0  0  0  0  0  0  0  0  0  0
  186.9500  178.5250  139.7260 N   0  0  0  0  0  2  0  0  0  0  0  0
  185.3370  178.5790  143.6250 C   0  0  0  0  0  0  0  0  0  0  0  0
  185.6720  178.2430  146.0030 C   0  0  0  0  0  0  0  0  0  0  0  0
  187.0040  177.8860  145.7700 C   0  0  0  0  0  3  0  0  0  0  0  0
  184.5320  178.9240  142.5280 C   0  0  0  0  0  0  0  0  0  0  0  0
  187.5100  177.8760  144.4670 C   0  0  0  0  0  3  0  0  0  0  0  0
  185.0750  178.9070  141.2410 C   0  0  0  0  0  3  0  0  0  0  0  0
  186.6850  178.2200  143.3940 C   0  0  0  0  0  0  0  0  0  0  0  0
  186.4120  178.5480  141.0550 C   0  0  0  0  0  0  0  0  0  0  0  0
  185.1760  178.2540  147.2980 O   0  0  0  0  0  1  0  0  0  0  0  0
  189.2000  177.7190  140.5190 C   0  0  0  0  0  2  0  0  0  0  0  0
  190.6270  177.2490  140.1980 C   0  0  1  0  0  3  0  0  0  0  0  0
  191.5160  177.1300  141.4300 C   0  0  0  0  0  2  0  0  0  0  0  0
  190.4600  175.7110  143.0560 O   0  0  0  0  0  1  0  0  0  0  0  0
  190.6890  177.0450  142.7110 C   0  0  1  0  0  3  0  0  0  0  0  0
  190.9300  179.2340  143.9700 C   0  0  0  0  0  1  0  0  0  0  0  0
  191.0840  177.0680  145.1910 C   0  0  0  0  0  1  0  0  0  0  0  0
  191.3540  177.7760  143.8770 C   0  0  0  0  0  3  0  0  0  0  0  0
  190.6080  176.0450  139.4920 O   0  0  0  0  0  0  0  0  0  0  0  0
  191.5460  176.2060  138.4700 C   0  0  0  0  0  2  0  0  0  0  0  0
  190.9220  175.8480  137.1300 C   0  0  0  0  0  2  0  0  0  0  0  0
  190.1450  174.5430  137.2180 C   0  0  0  0  0  2  0  0  0  0  0  0
  187.9150  175.3660  137.2280 O   0  0  0  0  0  1  0  0  0  0  0  0
  188.8350  174.6540  136.4620 C   0  0  0  0  0  2  0  0  0  0  0  0
  2  1  1  1  0  0  0
  2  6  1  0  0  0  0
  2 16  1  0  0  0  0
  4  8  1  0  0  0  0
  5 13  1  0  0  0  0
  6 14  1  0  0  0  0
  7  4  2  0  0  0  0
  8 15  1  0  0  0  0
  9  8  2  0  0  0  0
 10  3  1  0  0  0  0
 10  7  1  0  0  0  0
 11  9  1  0  0  0  0
 12 10  2  0  0  0  0
 13  7  1  0  0  0  0
 13 11  2  0  0  0  0
 14 12  1  0  0  0  0
 14  5  2  0  0  0  0
 17 16  1  1  0  0  0
 17 18  1  0  0  0  0
 18 20  1  0  0  0  0
 20 19  1  1  0  0  0
 20 23  1  0  0  0  0
 23 21  1  0  0  0  0
 23 22  1  0  0  0  0
 24 17  1  0  0  0  0
 25 24  1  0  0  0  0
 26 27  1  0  0  0  0
 26 25  1  0  0  0  0
 29 27  1  0  0  0  0
 29 28  1  0  0  0  0
M  END
>  <MODEL>
8

>  <REMARK>
 VINA RESULT:      -7.0      3.229      6.299
  Name = 
  11 active torsions:
  status: ('A' for Active; 'I' for Inactive)
    1  A    between atoms: C_1  and  C_5
    2  A    between atoms: C_1  and  O_23
    3  A    between atoms: C_5  and  C_17
    4  A    between atoms: C_6  and  C_20
    5  A    between atoms: C_6  and  C_25
    6  A    between atoms: N_9  and  C_19
    7  A    between atoms: C_17  and  C_29
    8  A    between atoms: C_19  and  C_24
    9  A    between atoms: C_20  and  C_21
   10  A    between atoms: C_21  and  O_23
   11  A    between atoms: C_21  and  C_24
                            x       y       z     vdW  Elec       q    Type
                         _______ _______ _______ _____ _____    ______ ____

>  <TORSDO>
F 11

$$$$
=
 OpenBabel10222418473D

 29 30  0  0  1  0  0  0  0  0999 V2000
  189.0140  178.9220  138.5120 C   0  0  0  0  0  1  0  0  0  0  0  0
  188.2820  178.0030  139.4770 C   0  0  2  0  0  3  0  0  0  0  0  0
  182.6070  179.2710  142.4790 Cl  0  0  0  0  0  0  0  0  0  0  0  0
  184.4780  178.6000  144.8350 C   0  0  0  0  0  3  0  0  0  0  0  0
  186.9960  178.1970  142.1920 N   0  0  0  0  0  0  0  0  0  0  0  0
  186.9110  178.4270  139.7700 N   0  0  0  0  0  2  0  0  0  0  0  0
  185.0560  178.5630  143.5590 C   0  0  0  0  0  0  0  0  0  0  0  0
  185.2490  178.3090  145.9630 C   0  0  0  0  0  0  0  0  0  0  0  0
  186.6010  177.9760  145.8240 C   0  0  0  0  0  3  0  0  0  0  0  0
  184.3140  178.8550  142.4030 C   0  0  0  0  0  0  0  0  0  0  0  0
  187.1870  177.9380  144.5560 C   0  0  0  0  0  3  0  0  0  0  0  0
  184.9370  178.8110  141.1540 C   0  0  0  0  0  3  0  0  0  0  0  0
  186.4230  178.2290  143.4230 C   0  0  0  0  0  0  0  0  0  0  0  0
  186.2900  178.4780  141.0620 C   0  0  0  0  0  0  0  0  0  0  0  0
  184.6720  178.3480  147.2230 O   0  0  0  0  0  1  0  0  0  0  0  0
  189.0990  177.6200  140.7220 C   0  0  0  0  0  2  0  0  0  0  0  0
  190.5880  177.3040  140.5220 C   0  0  1  0  0  3  0  0  0  0  0  0
  191.4200  177.4920  141.7850 C   0  0  0  0  0  2  0  0  0  0  0  0
  191.4560  175.7540  143.4430 O   0  0  0  0  0  1  0  0  0  0  0  0
  190.7400  176.8680  143.0020 C   0  0  1  0  0  3  0  0  0  0  0  0
  190.9230  177.2670  145.5000 C   0  0  0  0  0  1  0  0  0  0  0  0
  191.4010  179.1180  143.9020 C   0  0  0  0  0  1  0  0  0  0  0  0
  190.5770  177.8680  144.1470 C   0  0  0  0  0  3  0  0  0  0  0  0
  190.7610  176.0170  140.0110 O   0  0  0  0  0  0  0  0  0  0  0  0
  191.1530  176.2000  138.6830 C   0  0  0  0  0  2  0  0  0  0  0  0
  192.5790  176.7250  138.6290 C   0  0  0  0  0  2  0  0  0  0  0  0
  193.3170  176.1820  137.4150 C   0  0  0  0  0  2  0  0  0  0  0  0
  195.2720  175.0480  138.1540 O   0  0  0  0  0  1  0  0  0  0  0  0
  193.9580  174.8460  137.7390 C   0  0  0  0  0  2  0  0  0  0  0  0
  2  1  1  1  0  0  0
  2  6  1  0  0  0  0
  2 16  1  0  0  0  0
  4  8  1  0  0  0  0
  5 13  1  0  0  0  0
  6 14  1  0  0  0  0
  7  4  2  0  0  0  0
  8 15  1  0  0  0  0
  9  8  2  0  0  0  0
 10  3  1  0  0  0  0
 10  7  1  0  0  0  0
 11  9  1  0  0  0  0
 12 10  2  0  0  0  0
 13  7  1  0  0  0  0
 13 11  2  0  0  0  0
 14 12  1  0  0  0  0
 14  5  2  0  0  0  0
 17 16  1  1  0  0  0
 17 18  1  0  0  0  0
 18 20  1  0  0  0  0
 20 19  1  1  0  0  0
 20 23  1  0  0  0  0
 22 23  1  0  0  0  0
 23 21  1  0  0  0  0
 24 17  1  0  0  0  0
 25 24  1  0  0  0  0
 26 25  1  0  0  0  0
 27 29  1  0  0  0  0
 27 26  1  0  0  0  0
 29 28  1  0  0  0  0
M  END
>  <MODEL>
9

>  <REMARK>
 VINA RESULT:      -7.0      3.660      6.658
  Name = 
  11 active torsions:
  status: ('A' for Active; 'I' for Inactive)
    1  A    between atoms: C_1  and  C_5
    2  A    between atoms: C_1  and  O_23
    3  A    between atoms: C_5  and  C_17
    4  A    between atoms: C_6  and  C_20
    5  A    between atoms: C_6  and  C_25
    6  A    between atoms: N_9  and  C_19
    7  A    between atoms: C_17  and  C_29
    8  A    between atoms: C_19  and  C_24
    9  A    between atoms: C_20  and  C_21
   10  A    between atoms: C_21  and  O_23
   11  A    between atoms: C_21  and  C_24
                            x       y       z     vdW  Elec       q    Type
                         _______ _______ _______ _____ _____    ______ ____

>  <TORSDO>
F 11

$$$$
