=
 OpenBabel10222416313D

 32 35  0  0  0  0  0  0  0  0999 V2000
  187.7480  177.2890  148.1640 O   0  0  0  0  0  0  0  0  0  0  0  0
  191.6270  176.4300  147.1310 C   0  0  0  0  0  0  0  0  0  0  0  0
  192.5130  176.0580  148.1320 O   0  0  0  0  0  1  0  0  0  0  0  0
  185.9340  178.8070  146.7450 C   0  0  0  0  0  3  0  0  0  0  0  0
  184.8380  179.3210  146.0580 C   0  0  0  0  0  3  0  0  0  0  0  0
  184.6500  179.0300  144.7030 C   0  0  0  0  0  0  0  0  0  0  0  0
  190.3070  176.7460  147.4500 C   0  0  0  0  0  3  0  0  0  0  0  0
  189.3790  177.1300  146.4620 C   0  0  0  0  0  0  0  0  0  0  0  0
  192.0540  176.4920  145.8080 C   0  0  0  0  0  3  0  0  0  0  0  0
  186.6870  177.6830  144.7390 C   0  0  0  0  0  0  0  0  0  0  0  0
  185.5790  178.2120  144.0390 C   0  0  0  0  0  0  0  0  0  0  0  0
  191.1590  176.8680  144.8080 C   0  0  0  0  0  3  0  0  0  0  0  0
  186.8800  177.9950  146.1030 C   0  0  0  0  0  0  0  0  0  0  0  0
  188.9740  177.5720  143.9610 C   0  0  0  0  0  2  0  0  0  0  0  0
  187.9930  177.4550  146.9360 C   0  0  0  0  0  0  0  0  0  0  0  0
  189.8300  177.1830  145.1140 C   0  0  0  0  0  0  0  0  0  0  0  0
  187.6650  176.8260  144.0140 C   0  0  0  0  0  2  0  0  0  0  0  0
  185.3570  177.8820  142.5930 C   0  0  0  0  0  2  0  0  0  0  0  0
  186.2500  178.7130  141.7350 C   0  0  0  0  0  3  0  0  0  0  0  0
  187.1780  178.1330  140.9810 C   0  0  0  0  0  3  0  0  0  0  0  0
  188.0700  178.9680  140.1250 C   0  0  0  0  0  2  0  0  0  0  0  0
  189.1760  178.0340  138.0850 C   0  0  0  0  0  3  0  0  0  0  0  0
  190.1370  177.2200  137.4790 C   0  0  0  0  0  3  0  0  0  0  0  0
  191.0280  176.4830  138.2660 C   0  0  0  0  0  3  0  0  0  0  0  0
  190.9570  176.5610  139.6610 C   0  0  0  0  0  3  0  0  0  0  0  0
  189.1070  178.1160  139.4810 C   0  0  0  0  0  0  0  0  0  0  0  0
  189.9950  177.3740  140.2670 C   0  0  0  0  0  3  0  0  0  0  0  0
  183.5520  179.5460  143.9990 O   0  0  0  0  0  0  0  0  0  0  0  0
  182.2550  178.9580  144.0290 C   0  0  0  0  0  2  0  0  0  0  0  0
  181.6630  178.9100  142.6300 C   0  0  0  0  0  2  0  0  0  0  0  0
  180.0520  178.4280  144.0590 C   0  0  0  0  0  1  0  0  0  0  0  0
  180.2960  178.6400  142.7030 O   0  0  0  0  0  0  0  0  0  0  0  0
  2  7  1  0  0  0  0
  2  3  1  0  0  0  0
  5  4  2  0  0  0  0
  6  5  1  0  0  0  0
  8 15  1  0  0  0  0
  8  7  2  0  0  0  0
  9  2  2  0  0  0  0
 10 13  2  0  0  0  0
 11  6  2  0  0  0  0
 11 10  1  0  0  0  0
 12 16  2  0  0  0  0
 12  9  1  0  0  0  0
 13  4  1  0  0  0  0
 13 15  1  0  0  0  0
 14 17  1  0  0  0  0
 14 16  1  0  0  0  0
 15  1  2  0  0  0  0
 16  8  1  0  0  0  0
 17 10  1  0  0  0  0
 18 11  1  0  0  0  0
 19 18  1  0  0  0  0
 20 19  2  0  0  0  0
 21 20  1  0  0  0  0
 22 26  1  0  0  0  0
 23 22  2  0  0  0  0
 23 24  1  0  0  0  0
 24 25  2  0  0  0  0
 25 27  1  0  0  0  0
 26 21  1  0  0  0  0
 26 27  2  0  0  0  0
 28 29  1  0  0  0  0
 28  6  1  0  0  0  0
 30 32  1  0  0  0  0
 30 29  1  0  0  0  0
 32 31  1  0  0  0  0
M  END
>  <MODEL>
1

>  <REMARK>
 VINA RESULT:      -9.3      0.000      0.000
  Name = 
  8 active torsions:
  status: ('A' for Active; 'I' for Inactive)
    1  A    between atoms: C_4  and  C_14
    2  A    between atoms: C_4  and  C_31
    3  A    between atoms: C_12  and  O_28
    4  A    between atoms: C_15  and  C_20
    5  A    between atoms: C_18  and  O_19
    6  A    between atoms: C_18  and  C_25
    7  A    between atoms: C_20  and  C_22
    8  A    between atoms: C_25  and  O_28
                            x       y       z     vdW  Elec       q    Type
                         _______ _______ _______ _____ _____    ______ ____

>  <TORSDO>
F 8

$$$$
=
 OpenBabel10222416313D

 32 35  0  0  0  0  0  0  0  0999 V2000
  191.8210  177.2330  140.7250 O   0  0  0  0  0  0  0  0  0  0  0  0
  189.0830  177.9610  137.7540 C   0  0  0  0  0  0  0  0  0  0  0  0
  189.5170  177.9530  136.4360 O   0  0  0  0  0  1  0  0  0  0  0  0
  191.6340  177.9410  143.3850 C   0  0  0  0  0  3  0  0  0  0  0  0
  191.5960  177.9950  144.7750 C   0  0  0  0  0  3  0  0  0  0  0  0
  190.4240  177.6670  145.4640 C   0  0  0  0  0  0  0  0  0  0  0  0
  189.9910  177.7350  138.7890 C   0  0  0  0  0  3  0  0  0  0  0  0
  189.5890  177.7380  140.1390 C   0  0  0  0  0  0  0  0  0  0  0  0
  187.7430  178.1970  138.0470 C   0  0  0  0  0  3  0  0  0  0  0  0
  189.3260  177.2180  143.3290 C   0  0  0  0  0  0  0  0  0  0  0  0
  189.2830  177.2820  144.7410 C   0  0  0  0  0  0  0  0  0  0  0  0
  187.3160  178.2060  139.3740 C   0  0  0  0  0  3  0  0  0  0  0  0
  190.5080  177.5670  142.6390 C   0  0  0  0  0  0  0  0  0  0  0  0
  187.6380  178.0130  141.7920 C   0  0  0  0  0  2  0  0  0  0  0  0
  190.6640  177.4940  141.1570 C   0  0  0  0  0  0  0  0  0  0  0  0
  188.2150  177.9760  140.4210 C   0  0  0  0  0  0  0  0  0  0  0  0
  188.1040  176.8160  142.5810 C   0  0  0  0  0  2  0  0  0  0  0  0
  188.0380  176.9060  145.4880 C   0  0  0  0  0  2  0  0  0  0  0  0
  187.0830  178.0510  145.5010 C   0  0  0  0  0  3  0  0  0  0  0  0
  185.7990  177.8510  145.2250 C   0  0  0  0  0  3  0  0  0  0  0  0
  184.8480  179.0010  145.2380 C   0  0  0  0  0  2  0  0  0  0  0  0
  184.3570  178.6500  142.8110 C   0  0  0  0  0  3  0  0  0  0  0  0
  183.4570  178.5580  141.7450 C   0  0  0  0  0  3  0  0  0  0  0  0
  182.0840  178.7020  141.9740 C   0  0  0  0  0  3  0  0  0  0  0  0
  181.6130  178.9400  143.2690 C   0  0  0  0  0  3  0  0  0  0  0  0
  183.8860  178.8830  144.1070 C   0  0  0  0  0  0  0  0  0  0  0  0
  182.5130  179.0330  144.3340 C   0  0  0  0  0  3  0  0  0  0  0  0
  190.3710  177.7230  146.8650 O   0  0  0  0  0  0  0  0  0  0  0  0
  191.2760  177.0220  147.7120 C   0  0  0  0  0  2  0  0  0  0  0  0
  191.6400  175.6780  147.1030 C   0  0  0  0  0  2  0  0  0  0  0  0
  193.1150  175.9070  148.7280 C   0  0  0  0  0  1  0  0  0  0  0  0
  192.9370  175.3250  147.4740 O   0  0  0  0  0  0  0  0  0  0  0  0
  1 15  2  0  0  0  0
  2  9  2  0  0  0  0
  2  7  1  0  0  0  0
  3  2  1  0  0  0  0
  4  5  1  0  0  0  0
  5  6  2  0  0  0  0
  6 28  1  0  0  0  0
  7  8  2  0  0  0  0
  8 16  1  0  0  0  0
  8 15  1  0  0  0  0
  9 12  1  0  0  0  0
 10 11  2  0  0  0  0
 11  6  1  0  0  0  0
 11 18  1  0  0  0  0
 12 16  2  0  0  0  0
 13 10  1  0  0  0  0
 13  4  2  0  0  0  0
 14 17  1  0  0  0  0
 15 13  1  0  0  0  0
 16 14  1  0  0  0  0
 17 10  1  0  0  0  0
 18 19  1  0  0  0  0
 20 21  1  0  0  0  0
 20 19  2  0  0  0  0
 22 26  1  0  0  0  0
 23 24  1  0  0  0  0
 23 22  2  0  0  0  0
 24 25  2  0  0  0  0
 25 27  1  0  0  0  0
 26 27  2  0  0  0  0
 26 21  1  0  0  0  0
 28 29  1  0  0  0  0
 30 32  1  0  0  0  0
 30 29  1  0  0  0  0
 32 31  1  0  0  0  0
M  END
>  <MODEL>
2

>  <REMARK>
 VINA RESULT:      -9.1      2.666      7.951
  Name = 
  8 active torsions:
  status: ('A' for Active; 'I' for Inactive)
    1  A    between atoms: C_4  and  C_14
    2  A    between atoms: C_4  and  C_31
    3  A    between atoms: C_12  and  O_28
    4  A    between atoms: C_15  and  C_20
    5  A    between atoms: C_18  and  O_19
    6  A    between atoms: C_18  and  C_25
    7  A    between atoms: C_20  and  C_22
    8  A    between atoms: C_25  and  O_28
                            x       y       z     vdW  Elec       q    Type
                         _______ _______ _______ _____ _____    ______ ____

>  <TORSDO>
F 8

$$$$
=
 OpenBabel10222416313D

 32 35  0  0  0  0  0  0  0  0999 V2000
  187.7040  177.1530  148.1500 O   0  0  0  0  0  0  0  0  0  0  0  0
  191.5960  176.2320  147.2230 C   0  0  0  0  0  0  0  0  0  0  0  0
  192.4400  175.8180  148.2440 O   0  0  0  0  0  1  0  0  0  0  0  0
  185.9700  178.7420  146.7080 C   0  0  0  0  0  3  0  0  0  0  0  0
  184.9090  179.2960  145.9990 C   0  0  0  0  0  3  0  0  0  0  0  0
  184.7590  179.0400  144.6320 C   0  0  0  0  0  0  0  0  0  0  0  0
  190.2720  176.5700  147.5070 C   0  0  0  0  0  3  0  0  0  0  0  0
  189.3860  176.9960  146.4990 C   0  0  0  0  0  0  0  0  0  0  0  0
  192.0670  176.3140  145.9160 C   0  0  0  0  0  3  0  0  0  0  0  0
  186.7650  177.6470  144.7030 C   0  0  0  0  0  0  0  0  0  0  0  0
  185.6920  178.2160  143.9800 C   0  0  0  0  0  0  0  0  0  0  0  0
  191.2130  176.7320  144.8970 C   0  0  0  0  0  3  0  0  0  0  0  0
  186.9190  177.9240  146.0790 C   0  0  0  0  0  0  0  0  0  0  0  0
  189.0730  177.5030  143.9960 C   0  0  0  0  0  2  0  0  0  0  0  0
  187.9920  177.3410  146.9350 C   0  0  0  0  0  0  0  0  0  0  0  0
  189.8820  177.0690  145.1670 C   0  0  0  0  0  0  0  0  0  0  0  0
  187.7470  176.7860  143.9900 C   0  0  0  0  0  2  0  0  0  0  0  0
  185.5100  177.9240  142.5200 C   0  0  0  0  0  2  0  0  0  0  0  0
  186.5740  178.6030  141.7250 C   0  0  0  0  0  3  0  0  0  0  0  0
  187.2790  177.9180  140.8320 C   0  0  0  0  0  3  0  0  0  0  0  0
  188.3430  178.6010  140.0400 C   0  0  0  0  0  2  0  0  0  0  0  0
  186.9600  177.7670  138.1310 C   0  0  0  0  0  3  0  0  0  0  0  0
  186.7900  177.4920  136.7700 C   0  0  0  0  0  3  0  0  0  0  0  0
  187.8200  177.7750  135.8660 C   0  0  0  0  0  3  0  0  0  0  0  0
  189.0180  178.3310  136.3230 C   0  0  0  0  0  3  0  0  0  0  0  0
  188.1570  178.3280  138.5880 C   0  0  0  0  0  0  0  0  0  0  0  0
  189.1880  178.6050  137.6830 C   0  0  0  0  0  3  0  0  0  0  0  0
  183.6970  179.5950  143.9050 O   0  0  0  0  0  0  0  0  0  0  0  0
  182.3680  179.0810  143.9400 C   0  0  0  0  0  2  0  0  0  0  0  0
  181.8060  178.9690  142.5330 C   0  0  0  0  0  2  0  0  0  0  0  0
  180.1810  178.4970  143.9480 C   0  0  0  0  0  1  0  0  0  0  0  0
  180.4560  178.6210  142.5880 O   0  0  0  0  0  0  0  0  0  0  0  0
  2  7  1  0  0  0  0
  2  3  1  0  0  0  0
  5  4  2  0  0  0  0
  6  5  1  0  0  0  0
  8 15  1  0  0  0  0
  8  7  2  0  0  0  0
  9  2  2  0  0  0  0
 10 13  2  0  0  0  0
 11  6  2  0  0  0  0
 11 10  1  0  0  0  0
 12 16  2  0  0  0  0
 12  9  1  0  0  0  0
 13  4  1  0  0  0  0
 13 15  1  0  0  0  0
 14 16  1  0  0  0  0
 15  1  2  0  0  0  0
 16  8  1  0  0  0  0
 17 14  1  0  0  0  0
 17 10  1  0  0  0  0
 18 11  1  0  0  0  0
 19 18  1  0  0  0  0
 20 19  2  0  0  0  0
 21 20  1  0  0  0  0
 22 26  1  0  0  0  0
 23 22  2  0  0  0  0
 24 25  2  0  0  0  0
 24 23  1  0  0  0  0
 25 27  1  0  0  0  0
 26 21  1  0  0  0  0
 27 26  2  0  0  0  0
 28 29  1  0  0  0  0
 28  6  1  0  0  0  0
 30 32  1  0  0  0  0
 30 29  1  0  0  0  0
 32 31  1  0  0  0  0
M  END
>  <MODEL>
3

>  <REMARK>
 VINA RESULT:      -9.1      0.954      1.416
  Name = 
  8 active torsions:
  status: ('A' for Active; 'I' for Inactive)
    1  A    between atoms: C_4  and  C_14
    2  A    between atoms: C_4  and  C_31
    3  A    between atoms: C_12  and  O_28
    4  A    between atoms: C_15  and  C_20
    5  A    between atoms: C_18  and  O_19
    6  A    between atoms: C_18  and  C_25
    7  A    between atoms: C_20  and  C_22
    8  A    between atoms: C_25  and  O_28
                            x       y       z     vdW  Elec       q    Type
                         _______ _______ _______ _____ _____    ______ ____

>  <TORSDO>
F 8

$$$$
=
 OpenBabel10222416313D

 32 35  0  0  0  0  0  0  0  0999 V2000
  185.8430  178.5310  146.9150 O   0  0  0  0  0  0  0  0  0  0  0  0
  183.4710  178.7280  143.5700 C   0  0  0  0  0  0  0  0  0  0  0  0
  182.1260  179.0290  143.7270 O   0  0  0  0  0  1  0  0  0  0  0  0
  188.2500  177.2110  147.1860 C   0  0  0  0  0  3  0  0  0  0  0  0
  189.5650  176.8220  147.4210 C   0  0  0  0  0  3  0  0  0  0  0  0
  190.5540  177.0480  146.4580 C   0  0  0  0  0  0  0  0  0  0  0  0
  184.3010  178.6360  144.6870 C   0  0  0  0  0  3  0  0  0  0  0  0
  185.6710  178.3300  144.5670 C   0  0  0  0  0  0  0  0  0  0  0  0
  183.9950  178.5160  142.2980 C   0  0  0  0  0  3  0  0  0  0  0  0
  188.8730  178.0740  145.0130 C   0  0  0  0  0  0  0  0  0  0  0  0
  190.2080  177.6710  145.2480 C   0  0  0  0  0  0  0  0  0  0  0  0
  185.3470  178.2120  142.1480 C   0  0  0  0  0  3  0  0  0  0  0  0
  187.8770  177.8270  145.9830 C   0  0  0  0  0  0  0  0  0  0  0  0
  187.6130  177.7890  142.9690 C   0  0  0  0  0  2  0  0  0  0  0  0
  186.4530  178.2490  145.8450 C   0  0  0  0  0  0  0  0  0  0  0  0
  186.1910  178.1210  143.2600 C   0  0  0  0  0  0  0  0  0  0  0  0
  188.5260  178.7240  143.7210 C   0  0  0  0  0  2  0  0  0  0  0  0
  191.2780  177.9340  144.2310 C   0  0  0  0  0  2  0  0  0  0  0  0
  191.1790  176.9480  143.1160 C   0  0  0  0  0  3  0  0  0  0  0  0
  191.0270  177.3700  141.8660 C   0  0  0  0  0  3  0  0  0  0  0  0
  190.9270  176.3790  140.7540 C   0  0  0  0  0  2  0  0  0  0  0  0
  190.7340  176.6260  138.2720 C   0  0  0  0  0  3  0  0  0  0  0  0
  190.1820  177.2380  137.1430 C   0  0  0  0  0  3  0  0  0  0  0  0
  189.2220  178.2450  137.2900 C   0  0  0  0  0  3  0  0  0  0  0  0
  188.8150  178.6400  138.5680 C   0  0  0  0  0  3  0  0  0  0  0  0
  190.3230  177.0180  139.5510 C   0  0  0  0  0  0  0  0  0  0  0  0
  189.3680  178.0290  139.6980 C   0  0  0  0  0  3  0  0  0  0  0  0
  191.8820  176.6560  146.6820 O   0  0  0  0  0  0  0  0  0  0  0  0
  192.2460  175.5400  147.4890 C   0  0  0  0  0  2  0  0  0  0  0  0
  193.3100  175.9400  148.4980 C   0  0  0  0  0  2  0  0  0  0  0  0
  193.8500  177.2230  150.2090 C   0  0  0  0  0  1  0  0  0  0  0  0
  192.8850  177.0570  149.2170 O   0  0  0  0  0  0  0  0  0  0  0  0
  2  3  1  0  0  0  0
  2  7  1  0  0  0  0
  4  5  1  0  0  0  0
  6 28  1  0  0  0  0
  6  5  2  0  0  0  0
  8  7  2  0  0  0  0
  8 15  1  0  0  0  0
  9  2  2  0  0  0  0
 10 11  2  0  0  0  0
 10 13  1  0  0  0  0
 11  6  1  0  0  0  0
 12  9  1  0  0  0  0
 12 16  2  0  0  0  0
 13  4  2  0  0  0  0
 14 16  1  0  0  0  0
 14 17  1  0  0  0  0
 15 13  1  0  0  0  0
 15  1  2  0  0  0  0
 16  8  1  0  0  0  0
 17 10  1  0  0  0  0
 18 11  1  0  0  0  0
 19 18  1  0  0  0  0
 20 19  2  0  0  0  0
 21 20  1  0  0  0  0
 22 26  1  0  0  0  0
 23 24  1  0  0  0  0
 23 22  2  0  0  0  0
 24 25  2  0  0  0  0
 25 27  1  0  0  0  0
 26 27  2  0  0  0  0
 26 21  1  0  0  0  0
 28 29  1  0  0  0  0
 29 30  1  0  0  0  0
 30 32  1  0  0  0  0
 32 31  1  0  0  0  0
M  END
>  <MODEL>
4

>  <REMARK>
 VINA RESULT:      -9.0      1.399      6.848
  Name = 
  8 active torsions:
  status: ('A' for Active; 'I' for Inactive)
    1  A    between atoms: C_4  and  C_14
    2  A    between atoms: C_4  and  C_31
    3  A    between atoms: C_12  and  O_28
    4  A    between atoms: C_15  and  C_20
    5  A    between atoms: C_18  and  O_19
    6  A    between atoms: C_18  and  C_25
    7  A    between atoms: C_20  and  C_22
    8  A    between atoms: C_25  and  O_28
                            x       y       z     vdW  Elec       q    Type
                         _______ _______ _______ _____ _____    ______ ____

>  <TORSDO>
F 8

$$$$
=
 OpenBabel10222416313D

 32 35  0  0  0  0  0  0  0  0999 V2000
  185.6780  178.6360  138.0600 O   0  0  0  0  0  0  0  0  0  0  0  0
  189.6470  177.6020  138.2210 C   0  0  0  0  0  0  0  0  0  0  0  0
  190.3410  177.4470  137.0290 O   0  0  0  0  0  1  0  0  0  0  0  0
  183.7670  178.2520  140.0120 C   0  0  0  0  0  3  0  0  0  0  0  0
  182.7540  178.3630  140.9600 C   0  0  0  0  0  3  0  0  0  0  0  0
  183.0440  178.7880  142.2610 C   0  0  0  0  0  0  0  0  0  0  0  0
  188.2930  177.9350  138.2010 C   0  0  0  0  0  3  0  0  0  0  0  0
  187.5550  178.0990  139.3900 C   0  0  0  0  0  0  0  0  0  0  0  0
  190.3000  177.4220  139.4370 C   0  0  0  0  0  3  0  0  0  0  0  0
  185.3970  178.9970  141.6380 C   0  0  0  0  0  0  0  0  0  0  0  0
  184.3700  179.1020  142.6040 C   0  0  0  0  0  0  0  0  0  0  0  0
  189.5960  177.5770  140.6300 C   0  0  0  0  0  3  0  0  0  0  0  0
  185.0990  178.5510  140.3310 C   0  0  0  0  0  0  0  0  0  0  0  0
  187.5980  178.0500  141.9610 C   0  0  0  0  0  2  0  0  0  0  0  0
  186.1040  178.4460  139.2340 C   0  0  0  0  0  0  0  0  0  0  0  0
  188.2380  177.9160  140.6240 C   0  0  0  0  0  0  0  0  0  0  0  0
  186.7960  179.3250  142.0240 C   0  0  0  0  0  2  0  0  0  0  0  0
  184.6690  179.5820  143.9930 C   0  0  0  0  0  2  0  0  0  0  0  0
  185.1960  178.4590  144.8210 C   0  0  0  0  0  3  0  0  0  0  0  0
  186.0950  178.6950  145.7690 C   0  0  0  0  0  3  0  0  0  0  0  0
  186.6200  177.5670  146.5940 C   0  0  0  0  0  2  0  0  0  0  0  0
  188.6740  177.7880  145.1830 C   0  0  0  0  0  3  0  0  0  0  0  0
  190.0530  177.6480  144.9990 C   0  0  0  0  0  3  0  0  0  0  0  0
  190.8510  177.1540  146.0360 C   0  0  0  0  0  3  0  0  0  0  0  0
  190.2690  176.8000  147.2570 C   0  0  0  0  0  3  0  0  0  0  0  0
  188.0920  177.4370  146.4060 C   0  0  0  0  0  0  0  0  0  0  0  0
  188.8910  176.9380  147.4410 C   0  0  0  0  0  3  0  0  0  0  0  0
  182.0330  178.8990  143.2260 O   0  0  0  0  0  0  0  0  0  0  0  0
  180.7760  179.5220  142.9770 C   0  0  0  0  0  2  0  0  0  0  0  0
  179.6390  178.6180  143.4230 C   0  0  0  0  0  2  0  0  0  0  0  0
  178.9850  178.1690  141.3640 C   0  0  0  0  0  1  0  0  0  0  0  0
  179.4850  177.5680  142.5180 O   0  0  0  0  0  0  0  0  0  0  0  0
  1 15  2  0  0  0  0
  2  9  1  0  0  0  0
  3  2  1  0  0  0  0
  4 13  2  0  0  0  0
  4  5  1  0  0  0  0
  5  6  2  0  0  0  0
  6 11  1  0  0  0  0
  6 28  1  0  0  0  0
  7  2  2  0  0  0  0
  7  8  1  0  0  0  0
  8 16  2  0  0  0  0
  9 12  2  0  0  0  0
 10 17  1  0  0  0  0
 10 11  2  0  0  0  0
 11 18  1  0  0  0  0
 13 10  1  0  0  0  0
 14 17  1  0  0  0  0
 15  8  1  0  0  0  0
 15 13  1  0  0  0  0
 16 12  1  0  0  0  0
 16 14  1  0  0  0  0
 18 19  1  0  0  0  0
 19 20  2  0  0  0  0
 20 21  1  0  0  0  0
 22 26  1  0  0  0  0
 23 22  2  0  0  0  0
 23 24  1  0  0  0  0
 24 25  2  0  0  0  0
 25 27  1  0  0  0  0
 26 21  1  0  0  0  0
 26 27  2  0  0  0  0
 29 28  1  0  0  0  0
 29 30  1  0  0  0  0
 31 32  1  0  0  0  0
 32 30  1  0  0  0  0
M  END
>  <MODEL>
5

>  <REMARK>
 VINA RESULT:      -9.0      2.699      6.171
  Name = 
  8 active torsions:
  status: ('A' for Active; 'I' for Inactive)
    1  A    between atoms: C_4  and  C_14
    2  A    between atoms: C_4  and  C_31
    3  A    between atoms: C_12  and  O_28
    4  A    between atoms: C_15  and  C_20
    5  A    between atoms: C_18  and  O_19
    6  A    between atoms: C_18  and  C_25
    7  A    between atoms: C_20  and  C_22
    8  A    between atoms: C_25  and  O_28
                            x       y       z     vdW  Elec       q    Type
                         _______ _______ _______ _____ _____    ______ ____

>  <TORSDO>
F 8

$$$$
=
 OpenBabel10222416313D

 32 35  0  0  0  0  0  0  0  0999 V2000
  185.3020  178.5280  141.0000 O   0  0  0  0  0  0  0  0  0  0  0  0
  183.5070  178.9350  144.6690 C   0  0  0  0  0  0  0  0  0  0  0  0
  182.1820  179.3430  144.7180 O   0  0  0  0  0  1  0  0  0  0  0  0
  188.0030  178.5630  140.4430 C   0  0  0  0  0  3  0  0  0  0  0  0
  189.3050  178.3100  140.0230 C   0  0  0  0  0  3  0  0  0  0  0  0
  190.1460  177.4840  140.7760 C   0  0  0  0  0  0  0  0  0  0  0  0
  184.1520  178.8040  143.4390 C   0  0  0  0  0  3  0  0  0  0  0  0
  185.4970  178.3930  143.3500 C   0  0  0  0  0  0  0  0  0  0  0  0
  184.1960  178.6570  145.8460 C   0  0  0  0  0  3  0  0  0  0  0  0
  188.3380  177.1600  142.3860 C   0  0  0  0  0  0  0  0  0  0  0  0
  189.6630  176.9100  141.9640 C   0  0  0  0  0  0  0  0  0  0  0  0
  185.5280  178.2490  145.7890 C   0  0  0  0  0  3  0  0  0  0  0  0
  187.5010  178.0100  141.6290 C   0  0  0  0  0  0  0  0  0  0  0  0
  187.6050  177.6690  144.6340 C   0  0  0  0  0  2  0  0  0  0  0  0
  186.0780  178.3030  141.9700 C   0  0  0  0  0  0  0  0  0  0  0  0
  186.1850  178.1090  144.5620 C   0  0  0  0  0  0  0  0  0  0  0  0
  187.8490  176.5510  143.6530 C   0  0  0  0  0  2  0  0  0  0  0  0
  190.5610  176.0030  142.7530 C   0  0  0  0  0  2  0  0  0  0  0  0
  191.0250  176.6930  143.9920 C   0  0  0  0  0  3  0  0  0  0  0  0
  191.0220  176.0490  145.1530 C   0  0  0  0  0  3  0  0  0  0  0  0
  191.4850  176.7440  146.3900 C   0  0  0  0  0  2  0  0  0  0  0  0
  190.4020  178.2640  148.0550 C   0  0  0  0  0  3  0  0  0  0  0  0
  189.3120  178.6280  148.8520 C   0  0  0  0  0  3  0  0  0  0  0  0
  188.1380  177.8690  148.8220 C   0  0  0  0  0  3  0  0  0  0  0  0
  188.0550  176.7440  147.9940 C   0  0  0  0  0  3  0  0  0  0  0  0
  190.3170  177.1420  147.2230 C   0  0  0  0  0  0  0  0  0  0  0  0
  189.1440  176.3800  147.1990 C   0  0  0  0  0  3  0  0  0  0  0  0
  191.4610  177.2240  140.3650 O   0  0  0  0  0  0  0  0  0  0  0  0
  191.8000  176.7740  139.0560 C   0  0  0  0  0  2  0  0  0  0  0  0
  193.3090  176.7160  138.8900 C   0  0  0  0  0  2  0  0  0  0  0  0
  192.6800  175.9510  136.9190 C   0  0  0  0  0  1  0  0  0  0  0  0
  193.6390  176.7530  137.5350 O   0  0  0  0  0  0  0  0  0  0  0  0
  1 15  2  0  0  0  0
  2  3  1  0  0  0  0
  2  9  1  0  0  0  0
  4 13  1  0  0  0  0
  5  4  2  0  0  0  0
  5  6  1  0  0  0  0
  6 11  2  0  0  0  0
  7  2  2  0  0  0  0
  8  7  1  0  0  0  0
  8 16  2  0  0  0  0
 10 17  1  0  0  0  0
 11 10  1  0  0  0  0
 11 18  1  0  0  0  0
 12  9  2  0  0  0  0
 13 15  1  0  0  0  0
 13 10  2  0  0  0  0
 15  8  1  0  0  0  0
 16 14  1  0  0  0  0
 16 12  1  0  0  0  0
 17 14  1  0  0  0  0
 18 19  1  0  0  0  0
 19 20  2  0  0  0  0
 20 21  1  0  0  0  0
 21 26  1  0  0  0  0
 22 23  1  0  0  0  0
 24 23  2  0  0  0  0
 25 24  1  0  0  0  0
 26 22  2  0  0  0  0
 27 26  1  0  0  0  0
 27 25  2  0  0  0  0
 28  6  1  0  0  0  0
 29 28  1  0  0  0  0
 30 29  1  0  0  0  0
 31 32  1  0  0  0  0
 32 30  1  0  0  0  0
M  END
>  <MODEL>
6

>  <REMARK>
 VINA RESULT:      -8.9      2.755      8.253
  Name = 
  8 active torsions:
  status: ('A' for Active; 'I' for Inactive)
    1  A    between atoms: C_4  and  C_14
    2  A    between atoms: C_4  and  C_31
    3  A    between atoms: C_12  and  O_28
    4  A    between atoms: C_15  and  C_20
    5  A    between atoms: C_18  and  O_19
    6  A    between atoms: C_18  and  C_25
    7  A    between atoms: C_20  and  C_22
    8  A    between atoms: C_25  and  O_28
                            x       y       z     vdW  Elec       q    Type
                         _______ _______ _______ _____ _____    ______ ____

>  <TORSDO>
F 8

$$$$
=
 OpenBabel10222416313D

 32 35  0  0  0  0  0  0  0  0999 V2000
  184.1500  178.7350  145.7860 O   0  0  0  0  0  0  0  0  0  0  0  0
  180.9320  179.0550  143.2580 C   0  0  0  0  0  0  0  0  0  0  0  0
  179.6770  179.2790  143.8060 O   0  0  0  0  0  1  0  0  0  0  0  0
  186.5700  177.5150  145.2710 C   0  0  0  0  0  3  0  0  0  0  0  0
  187.9080  177.1740  145.1000 C   0  0  0  0  0  3  0  0  0  0  0  0
  188.5820  177.5140  143.9220 C   0  0  0  0  0  0  0  0  0  0  0  0
  182.0440  178.9230  144.0900 C   0  0  0  0  0  3  0  0  0  0  0  0
  183.3330  178.6930  143.5700 C   0  0  0  0  0  0  0  0  0  0  0  0
  181.0840  178.9580  141.8780 C   0  0  0  0  0  3  0  0  0  0  0  0
  186.5370  178.5590  143.0880 C   0  0  0  0  0  0  0  0  0  0  0  0
  187.8940  178.2050  142.9100 C   0  0  0  0  0  0  0  0  0  0  0  0
  182.3470  178.7310  141.3340 C   0  0  0  0  0  3  0  0  0  0  0  0
  185.8590  178.1970  144.2730 C   0  0  0  0  0  0  0  0  0  0  0  0
  184.7620  178.3590  141.4580 C   0  0  0  0  0  2  0  0  0  0  0  0
  184.4430  178.5580  144.5700 C   0  0  0  0  0  0  0  0  0  0  0  0
  183.4710  178.6010  142.1570 C   0  0  0  0  0  0  0  0  0  0  0  0
  185.8240  179.2810  142.0000 C   0  0  0  0  0  2  0  0  0  0  0  0
  188.6290  178.5890  141.6600 C   0  0  0  0  0  2  0  0  0  0  0  0
  188.5490  177.4870  140.6590 C   0  0  0  0  0  3  0  0  0  0  0  0
  188.9690  177.6860  139.4140 C   0  0  0  0  0  3  0  0  0  0  0  0
  188.8860  176.5810  138.4150 C   0  0  0  0  0  2  0  0  0  0  0  0
  191.3780  176.7640  138.5090 C   0  0  0  0  0  3  0  0  0  0  0  0
  192.6530  176.2590  138.2380 C   0  0  0  0  0  3  0  0  0  0  0  0
  192.7950  175.0240  137.5960 C   0  0  0  0  0  3  0  0  0  0  0  0
  191.6610  174.2950  137.2250 C   0  0  0  0  0  3  0  0  0  0  0  0
  190.2430  176.0320  138.1430 C   0  0  0  0  0  0  0  0  0  0  0  0
  190.3860  174.8000  137.4960 C   0  0  0  0  0  3  0  0  0  0  0  0
  189.9290  177.1720  143.7350 O   0  0  0  0  0  0  0  0  0  0  0  0
  190.9770  177.6200  144.5900 C   0  0  0  0  0  2  0  0  0  0  0  0
  191.5780  176.4490  145.3500 C   0  0  0  0  0  2  0  0  0  0  0  0
  192.0930  175.6860  147.3550 C   0  0  0  0  0  1  0  0  0  0  0  0
  191.9810  176.8640  146.6190 O   0  0  0  0  0  0  0  0  0  0  0  0
  2  3  1  0  0  0  0
  2  7  1  0  0  0  0
  5  4  1  0  0  0  0
  6  5  2  0  0  0  0
  8  7  2  0  0  0  0
  8 15  1  0  0  0  0
  9  2  2  0  0  0  0
 10 13  1  0  0  0  0
 11 10  2  0  0  0  0
 11  6  1  0  0  0  0
 12  9  1  0  0  0  0
 12 16  2  0  0  0  0
 13 15  1  0  0  0  0
 13  4  2  0  0  0  0
 14 17  1  0  0  0  0
 14 16  1  0  0  0  0
 15  1  2  0  0  0  0
 16  8  1  0  0  0  0
 17 10  1  0  0  0  0
 18 11  1  0  0  0  0
 19 18  1  0  0  0  0
 20 19  2  0  0  0  0
 21 20  1  0  0  0  0
 23 22  1  0  0  0  0
 24 23  2  0  0  0  0
 25 27  2  0  0  0  0
 25 24  1  0  0  0  0
 26 21  1  0  0  0  0
 26 22  2  0  0  0  0
 27 26  1  0  0  0  0
 28  6  1  0  0  0  0
 28 29  1  0  0  0  0
 29 30  1  0  0  0  0
 30 32  1  0  0  0  0
 32 31  1  0  0  0  0
M  END
>  <MODEL>
7

>  <REMARK>
 VINA RESULT:      -8.7      1.592      6.896
  Name = 
  8 active torsions:
  status: ('A' for Active; 'I' for Inactive)
    1  A    between atoms: C_4  and  C_14
    2  A    between atoms: C_4  and  C_31
    3  A    between atoms: C_12  and  O_28
    4  A    between atoms: C_15  and  C_20
    5  A    between atoms: C_18  and  O_19
    6  A    between atoms: C_18  and  C_25
    7  A    between atoms: C_20  and  C_22
    8  A    between atoms: C_25  and  O_28
                            x       y       z     vdW  Elec       q    Type
                         _______ _______ _______ _____ _____    ______ ____

>  <TORSDO>
F 8

$$$$
=
 OpenBabel10222416313D

 32 35  0  0  0  0  0  0  0  0999 V2000
  187.2580  177.4720  147.6670 O   0  0  0  0  0  0  0  0  0  0  0  0
  191.2100  176.9190  146.7000 C   0  0  0  0  0  0  0  0  0  0  0  0
  192.1100  176.6470  147.7200 O   0  0  0  0  0  1  0  0  0  0  0  0
  185.3430  178.7970  146.1900 C   0  0  0  0  0  3  0  0  0  0  0  0
  184.2170  179.2010  145.4790 C   0  0  0  0  0  3  0  0  0  0  0  0
  184.0720  178.8620  144.1290 C   0  0  0  0  0  0  0  0  0  0  0  0
  189.8630  177.1290  146.9960 C   0  0  0  0  0  3  0  0  0  0  0  0
  188.9200  177.4100  145.9880 C   0  0  0  0  0  0  0  0  0  0  0  0
  191.6480  176.9840  145.3810 C   0  0  0  0  0  3  0  0  0  0  0  0
  186.2140  177.6930  144.2220 C   0  0  0  0  0  0  0  0  0  0  0  0
  185.0750  178.1100  143.4960 C   0  0  0  0  0  0  0  0  0  0  0  0
  190.7370  177.2600  144.3620 C   0  0  0  0  0  3  0  0  0  0  0  0
  186.3620  178.0530  145.5790 C   0  0  0  0  0  0  0  0  0  0  0  0
  188.5120  177.7570  143.4720 C   0  0  0  0  0  2  0  0  0  0  0  0
  187.5050  177.6290  146.4380 C   0  0  0  0  0  0  0  0  0  0  0  0
  189.3830  177.4690  144.6450 C   0  0  0  0  0  0  0  0  0  0  0  0
  187.2700  176.9050  143.5300 C   0  0  0  0  0  2  0  0  0  0  0  0
  184.9010  177.7280  142.0560 C   0  0  0  0  0  2  0  0  0  0  0  0
  184.5610  178.9320  141.2440 C   0  0  0  0  0  3  0  0  0  0  0  0
  184.0970  178.7920  140.0070 C   0  0  0  0  0  3  0  0  0  0  0  0
  183.7600  180.0000  139.1980 C   0  0  0  0  0  2  0  0  0  0  0  0
  181.7190  180.8750  138.0480 C   0  0  0  0  0  3  0  0  0  0  0  0
  180.5160  180.6700  137.3650 C   0  0  0  0  0  3  0  0  0  0  0  0
  180.0800  179.3700  137.0920 C   0  0  0  0  0  3  0  0  0  0  0  0
  180.8460  178.2750  137.5020 C   0  0  0  0  0  3  0  0  0  0  0  0
  182.4890  179.7800  138.4540 C   0  0  0  0  0  0  0  0  0  0  0  0
  182.0480  178.4800  138.1850 C   0  0  0  0  0  3  0  0  0  0  0  0
  182.9450  179.2670  143.4000 O   0  0  0  0  0  0  0  0  0  0  0  0
  181.6130  178.8940  143.7430 C   0  0  0  0  0  2  0  0  0  0  0  0
  180.6420  179.3390  142.6630 C   0  0  0  0  0  2  0  0  0  0  0  0
  179.1860  180.8550  141.9930 C   0  0  0  0  0  1  0  0  0  0  0  0
  180.1860  180.6280  142.9380 O   0  0  0  0  0  0  0  0  0  0  0  0
  2  7  1  0  0  0  0
  2  3  1  0  0  0  0
  5  4  2  0  0  0  0
  6  5  1  0  0  0  0
  8 15  1  0  0  0  0
  8  7  2  0  0  0  0
  9  2  2  0  0  0  0
 10 13  2  0  0  0  0
 11  6  2  0  0  0  0
 11 10  1  0  0  0  0
 12 16  2  0  0  0  0
 12  9  1  0  0  0  0
 13  4  1  0  0  0  0
 13 15  1  0  0  0  0
 14 17  1  0  0  0  0
 14 16  1  0  0  0  0
 15  1  2  0  0  0  0
 16  8  1  0  0  0  0
 17 10  1  0  0  0  0
 18 11  1  0  0  0  0
 19 18  1  0  0  0  0
 20 19  2  0  0  0  0
 21 20  1  0  0  0  0
 22 26  1  0  0  0  0
 23 22  2  0  0  0  0
 24 23  1  0  0  0  0
 24 25  2  0  0  0  0
 25 27  1  0  0  0  0
 26 21  1  0  0  0  0
 27 26  2  0  0  0  0
 28 29  1  0  0  0  0
 28  6  1  0  0  0  0
 30 32  1  0  0  0  0
 30 29  1  0  0  0  0
 31 32  1  0  0  0  0
M  END
>  <MODEL>
8

>  <REMARK>
 VINA RESULT:      -8.6      2.553      4.279
  Name = 
  8 active torsions:
  status: ('A' for Active; 'I' for Inactive)
    1  A    between atoms: C_4  and  C_14
    2  A    between atoms: C_4  and  C_31
    3  A    between atoms: C_12  and  O_28
    4  A    between atoms: C_15  and  C_20
    5  A    between atoms: C_18  and  O_19
    6  A    between atoms: C_18  and  C_25
    7  A    between atoms: C_20  and  C_22
    8  A    between atoms: C_25  and  O_28
                            x       y       z     vdW  Elec       q    Type
                         _______ _______ _______ _____ _____    ______ ____

>  <TORSDO>
F 8

$$$$
=
 OpenBabel10222416313D

 32 35  0  0  0  0  0  0  0  0999 V2000
  184.1660  178.7400  145.7310 O   0  0  0  0  0  0  0  0  0  0  0  0
  181.0400  179.0910  143.0930 C   0  0  0  0  0  0  0  0  0  0  0  0
  179.7680  179.3210  143.5980 O   0  0  0  0  0  1  0  0  0  0  0  0
  186.5950  177.5080  145.2950 C   0  0  0  0  0  3  0  0  0  0  0  0
  187.9360  177.1590  145.1690 C   0  0  0  0  0  3  0  0  0  0  0  0
  188.6520  177.5000  144.0170 C   0  0  0  0  0  0  0  0  0  0  0  0
  182.1210  178.9490  143.9630 C   0  0  0  0  0  3  0  0  0  0  0  0
  183.4260  178.7130  143.4880 C   0  0  0  0  0  0  0  0  0  0  0  0
  181.2390  178.9990  141.7190 C   0  0  0  0  0  3  0  0  0  0  0  0
  186.6450  178.5610  143.1170 C   0  0  0  0  0  0  0  0  0  0  0  0
  188.0050  178.1990  142.9850 C   0  0  0  0  0  0  0  0  0  0  0  0
  182.5190  178.7670  141.2190 C   0  0  0  0  0  3  0  0  0  0  0  0
  185.9230  178.1980  144.2760 C   0  0  0  0  0  0  0  0  0  0  0  0
  184.9270  178.3800  141.4250 C   0  0  0  0  0  2  0  0  0  0  0  0
  184.5000  178.5670  144.5250 C   0  0  0  0  0  0  0  0  0  0  0  0
  183.6130  178.6270  142.0800 C   0  0  0  0  0  0  0  0  0  0  0  0
  185.9750  179.2930  142.0080 C   0  0  0  0  0  2  0  0  0  0  0  0
  188.7860  178.5850  141.7640 C   0  0  0  0  0  2  0  0  0  0  0  0
  188.6570  177.5290  140.7180 C   0  0  0  0  0  3  0  0  0  0  0  0
  188.9270  177.8120  139.4490 C   0  0  0  0  0  3  0  0  0  0  0  0
  188.7950  176.7530  138.4060 C   0  0  0  0  0  2  0  0  0  0  0  0
  186.5980  177.8790  138.0060 C   0  0  0  0  0  3  0  0  0  0  0  0
  185.2970  177.8770  137.4960 C   0  0  0  0  0  3  0  0  0  0  0  0
  184.8100  176.7490  136.8270 C   0  0  0  0  0  3  0  0  0  0  0  0
  185.6250  175.6240  136.6690 C   0  0  0  0  0  3  0  0  0  0  0  0
  187.4160  176.7560  137.8440 C   0  0  0  0  0  0  0  0  0  0  0  0
  186.9260  175.6260  137.1800 C   0  0  0  0  0  3  0  0  0  0  0  0
  190.0030  177.1510  143.8760 O   0  0  0  0  0  0  0  0  0  0  0  0
  191.0310  177.6320  144.7370 C   0  0  0  0  0  2  0  0  0  0  0  0
  191.6800  176.4780  145.4840 C   0  0  0  0  0  2  0  0  0  0  0  0
  192.1880  175.6270  147.4550 C   0  0  0  0  0  1  0  0  0  0  0  0
  191.8720  176.8270  146.8210 O   0  0  0  0  0  0  0  0  0  0  0  0
  2  3  1  0  0  0  0
  2  7  1  0  0  0  0
  5  4  1  0  0  0  0
  6  5  2  0  0  0  0
  8  7  2  0  0  0  0
  8 15  1  0  0  0  0
  9  2  2  0  0  0  0
 10 13  1  0  0  0  0
 11 10  2  0  0  0  0
 11  6  1  0  0  0  0
 12  9  1  0  0  0  0
 12 16  2  0  0  0  0
 13 15  1  0  0  0  0
 13  4  2  0  0  0  0
 14 17  1  0  0  0  0
 14 16  1  0  0  0  0
 15  1  2  0  0  0  0
 16  8  1  0  0  0  0
 17 10  1  0  0  0  0
 18 11  1  0  0  0  0
 19 18  1  0  0  0  0
 20 19  2  0  0  0  0
 21 20  1  0  0  0  0
 23 22  2  0  0  0  0
 24 23  1  0  0  0  0
 25 24  2  0  0  0  0
 25 27  1  0  0  0  0
 26 22  1  0  0  0  0
 26 21  1  0  0  0  0
 27 26  2  0  0  0  0
 28  6  1  0  0  0  0
 28 29  1  0  0  0  0
 29 30  1  0  0  0  0
 30 32  1  0  0  0  0
 32 31  1  0  0  0  0
M  END
>  <MODEL>
9

>  <REMARK>
 VINA RESULT:      -8.6      2.102      7.085
  Name = 
  8 active torsions:
  status: ('A' for Active; 'I' for Inactive)
    1  A    between atoms: C_4  and  C_14
    2  A    between atoms: C_4  and  C_31
    3  A    between atoms: C_12  and  O_28
    4  A    between atoms: C_15  and  C_20
    5  A    between atoms: C_18  and  O_19
    6  A    between atoms: C_18  and  C_25
    7  A    between atoms: C_20  and  C_22
    8  A    between atoms: C_25  and  O_28
                            x       y       z     vdW  Elec       q    Type
                         _______ _______ _______ _____ _____    ______ ____

>  <TORSDO>
F 8

$$$$
