=
 OpenBabel10222417463D

 52 58  0  0  1  0  0  0  0  0999 V2000
  190.4680  177.0100  141.1840 C   0  0  0  0  0  0  0  0  0  0  0  0
  186.3180  177.9590  139.2680 C   0  0  1  0  0  3  0  0  0  0  0  0
  185.0700  177.5050  137.2620 C   0  0  0  0  0  0  0  0  0  0  0  0
  191.5730  177.4430  140.2540 C   0  0  1  0  0  3  0  0  0  0  0  0
  185.6540  176.3940  136.7860 C   0  0  0  0  0  3  0  0  0  0  0  0
  185.8690  178.5450  137.9860 C   0  0  1  0  0  3  0  0  0  0  0  0
  189.3150  177.5550  138.3500 C   0  0  0  0  0  0  0  0  0  0  0  0
  188.6550  178.0370  137.0770 C   0  0  0  0  0  2  0  0  0  0  0  0
  192.8900  177.2850  140.8620 N   0  0  0  0  0  1  0  0  0  0  0  0
  189.1900  177.2360  140.8320 C   0  0  0  0  0  3  0  0  0  0  0  0
  188.0680  176.8950  136.2320 C   0  0  0  0  0  2  0  0  0  0  0  0
  187.5490  178.5530  139.6050 O   0  0  0  0  0  0  0  0  0  0  0  0
  191.5180  176.6560  139.0290 N   0  0  0  0  0  0  0  0  0  0  0  0
  188.7160  177.7980  139.5460 C   0  0  0  0  0  0  0  0  0  0  0  0
  185.2930  178.9120  139.2110 O   0  0  0  0  0  0  0  0  0  0  0  0
  190.5340  176.7250  138.1740 C   0  0  0  0  0  3  0  0  0  0  0  0
  187.0840  176.0190  137.0100 C   0  0  0  0  0  2  0  0  0  0  0  0
  181.5610  179.0110  137.7510 C   0  0  0  0  0  0  0  0  0  0  0  0
  181.1510  180.1060  138.1720 O   0  0  0  0  0  0  0  0  0  0  0  0
  183.6360  177.7310  137.0190 C   0  0  0  0  0  0  0  0  0  0  0  0
  182.9680  178.7900  137.7200 N   0  0  0  0  0  2  0  0  0  0  0  0
  183.0120  177.0130  136.1880 O   0  0  0  0  0  0  0  0  0  0  0  0
  180.5850  177.9720  137.2710 C   0  0  0  0  0  2  0  0  0  0  0  0
  179.0540  177.9640  140.5760 C   0  0  0  0  0  2  0  0  0  0  0  0
  179.8680  177.2760  138.4110 C   0  0  1  0  0  3  0  0  0  0  0  0
  180.8770  176.8260  139.4620 C   0  0  1  0  0  3  0  0  0  0  0  0
  178.9320  178.2460  139.0970 C   0  0  0  0  0  2  0  0  0  0  0  0
  180.4810  177.4850  140.7740 C   0  0  0  0  0  2  0  0  0  0  0  0
  179.5860  174.8500  139.1410 O   0  0  0  0  0  1  0  0  0  0  0  0
  180.8190  175.3170  139.5960 C   0  0  0  0  0  2  0  0  0  0  0  0
  190.7620  176.2890  142.4850 C   0  0  2  0  0  3  0  0  0  0  0  0
  189.6110  175.3640  142.8590 C   0  0  0  0  0  1  0  0  0  0  0  0
  190.9970  177.1920  143.5300 O   0  0  0  0  0  0  0  0  0  0  0  0
  189.1860  178.1610  144.8040 C   0  0  2  0  0  3  0  0  0  0  0  0
  191.9430  176.6440  146.1820 C   0  0  0  0  0  2  0  0  0  0  0  0
  190.0220  176.9200  144.4880 C   0  0  2  0  0  3  0  0  0  0  0  0
  191.3660  176.8360  147.5730 C   0  0  0  0  0  2  0  0  0  0  0  0
  189.9960  179.2460  145.0760 O   0  0  0  0  0  1  0  0  0  0  0  0
  188.2600  177.8830  145.9690 C   0  0  1  0  0  3  0  0  0  0  0  0
  190.5960  176.1450  145.6980 C   0  0  2  0  0  3  0  0  0  0  0  0
  189.0800  177.6370  147.2150 C   0  0  0  0  0  2  0  0  0  0  0  0
  189.9920  176.4140  147.0830 C   0  0  2  0  0  3  0  0  0  0  0  0
  187.3500  179.0030  146.1990 N   0  0  0  0  0  2  0  0  0  0  0  0
  186.0070  178.4580  146.3540 C   0  0  2  0  0  3  0  0  0  0  0  0
  186.0930  177.0520  146.9220 C   0  0  0  0  0  1  0  0  0  0  0  0
  183.1720  178.8310  143.8570 C   0  0  0  0  0  0  0  0  0  0  0  0
  185.2380  178.4840  145.0580 C   0  0  0  0  0  0  0  0  0  0  0  0
  183.8630  178.7580  145.0650 C   0  0  0  0  0  3  0  0  0  0  0  0
  185.2220  178.4010  142.6810 C   0  0  0  0  0  3  0  0  0  0  0  0
  185.8770  178.3140  143.8660 N   0  0  0  0  0  0  0  0  0  0  0  0
  183.8530  178.6640  142.6530 C   0  0  0  0  0  3  0  0  0  0  0  0
  181.7140  179.0870  143.8550 C   0  0  0  0  0  1  0  0  0  0  0  0
  1 31  1  0  0  0  0
  2 15  1  1  0  0  0
  2 12  1  0  0  0  0
  4  9  1  1  0  0  0
  4  1  1  0  0  0  0
  5 17  1  0  0  0  0
  5  3  2  0  0  0  0
  6  3  1  6  0  0  0
  6 15  1  0  0  0  0
  6  2  1  0  0  0  0
  7 14  2  0  0  0  0
  8  7  1  0  0  0  0
 10  1  2  0  0  0  0
 11 17  1  0  0  0  0
 11  8  1  0  0  0  0
 13  4  1  0  0  0  0
 14 12  1  0  0  0  0
 14 10  1  0  0  0  0
 16  7  1  0  0  0  0
 16 13  2  0  0  0  0
 18 19  2  0  0  0  0
 20  3  1  0  0  0  0
 20 21  1  0  0  0  0
 21 18  1  0  0  0  0
 22 20  2  0  0  0  0
 23 18  1  0  0  0  0
 24 28  1  0  0  0  0
 25 23  1  6  0  0  0
 25 27  1  0  0  0  0
 25 26  1  0  0  0  0
 26 30  1  1  0  0  0
 26 28  1  0  0  0  0
 27 24  1  0  0  0  0
 29 30  1  0  0  0  0
 31 32  1  1  0  0  0
 31 33  1  0  0  0  0
 34 38  1  1  0  0  0
 34 39  1  0  0  0  0
 35 37  1  0  0  0  0
 36 33  1  6  0  0  0
 36 34  1  0  0  0  0
 36 40  1  0  0  0  0
 39 43  1  1  0  0  0
 39 41  1  0  0  0  0
 40 35  1  1  0  0  0
 40 42  1  0  0  0  0
 42 41  1  6  0  0  0
 42 37  1  0  0  0  0
 43 44  1  0  0  0  0
 44 45  1  6  0  0  0
 46 48  1  0  0  0  0
 47 48  2  0  0  0  0
 47 44  1  0  0  0  0
 49 50  2  0  0  0  0
 50 47  1  0  0  0  0
 51 49  1  0  0  0  0
 51 46  2  0  0  0  0
 52 46  1  0  0  0  0
M  END
>  <MODEL>
1

>  <REMARK>
 VINA RESULT:      -8.0      0.000      0.000
  Name = 
  10 active torsions:
  status: ('A' for Active; 'I' for Inactive)
    1  A    between atoms: C_1  and  C_30
    2  A    between atoms: C_6  and  C_30
    3  A    between atoms: C_8  and  C_33
    4  A    between atoms: C_9  and  O_18
    5  A    between atoms: C_10  and  C_16
    6  A    between atoms: C_12  and  C_52
    7  A    between atoms: C_13  and  C_17
    8  A    between atoms: C_16  and  N_48
    9  A    between atoms: O_18  and  C_33
   10  A    between atoms: C_23  and  N_48
                            x       y       z     vdW  Elec       q    Type
                         _______ _______ _______ _____ _____    ______ ____

>  <TORSDO>
F 10

$$$$
=
 OpenBabel10222417463D

 52 58  0  0  1  0  0  0  0  0999 V2000
  190.4280  176.9910  141.1380 C   0  0  0  0  0  0  0  0  0  0  0  0
  186.6460  177.7650  138.5130 C   0  0  1  0  0  3  0  0  0  0  0  0
  185.7930  177.2620  136.3210 C   0  0  0  0  0  0  0  0  0  0  0  0
  191.6600  177.4720  140.4170 C   0  0  1  0  0  3  0  0  0  0  0  0
  186.4990  176.1780  135.9620 C   0  0  0  0  0  3  0  0  0  0  0  0
  186.4060  178.3340  137.1680 C   0  0  1  0  0  3  0  0  0  0  0  0
  189.7730  177.4920  138.1420 C   0  0  0  0  0  0  0  0  0  0  0  0
  189.3280  177.9470  136.7700 C   0  0  0  0  0  2  0  0  0  0  0  0
  192.8550  177.3700  141.2490 N   0  0  0  0  0  1  0  0  0  0  0  0
  189.2230  177.1630  140.5650 C   0  0  0  0  0  3  0  0  0  0  0  0
  188.9500  176.7830  135.8410 C   0  0  0  0  0  2  0  0  0  0  0  0
  187.7710  178.4100  139.0590 O   0  0  0  0  0  0  0  0  0  0  0  0
  191.8570  176.6860  139.2050 N   0  0  0  0  0  0  0  0  0  0  0  0
  188.9620  177.7070  139.2120 C   0  0  0  0  0  0  0  0  0  0  0  0
  185.6080  178.6730  138.2710 O   0  0  0  0  0  0  0  0  0  0  0  0
  191.0380  176.7150  138.1900 C   0  0  0  0  0  3  0  0  0  0  0  0
  187.8810  175.8650  136.4380 C   0  0  0  0  0  2  0  0  0  0  0  0
  181.9760  177.7380  136.4800 C   0  0  0  0  0  0  0  0  0  0  0  0
  181.2160  178.2850  137.2970 O   0  0  0  0  0  0  0  0  0  0  0  0
  184.4170  177.4270  135.8260 C   0  0  0  0  0  0  0  0  0  0  0  0
  183.3740  177.7440  136.7590 N   0  0  0  0  0  2  0  0  0  0  0  0
  184.1670  177.3110  134.5940 O   0  0  0  0  0  0  0  0  0  0  0  0
  181.4200  177.1160  135.2290 C   0  0  0  0  0  2  0  0  0  0  0  0
  179.4080  174.7770  137.1640 C   0  0  0  0  0  2  0  0  0  0  0  0
  180.8360  175.7400  135.4730 C   0  0  1  0  0  3  0  0  0  0  0  0
  181.7140  174.9680  136.4520 C   0  0  1  0  0  3  0  0  0  0  0  0
  179.4750  175.8680  136.1200 C   0  0  0  0  0  2  0  0  0  0  0  0
  180.8390  174.5910  137.6380 C   0  0  0  0  0  2  0  0  0  0  0  0
  182.2450  172.6560  136.6750 O   0  0  0  0  0  1  0  0  0  0  0  0
  182.2420  173.7200  135.7730 C   0  0  0  0  0  2  0  0  0  0  0  0
  190.5170  176.2810  142.4750 C   0  0  2  0  0  3  0  0  0  0  0  0
  189.2080  175.5710  142.7960 C   0  0  0  0  0  1  0  0  0  0  0  0
  190.8340  177.1710  143.5090 O   0  0  0  0  0  0  0  0  0  0  0  0
  189.1100  178.1150  144.9160 C   0  0  2  0  0  3  0  0  0  0  0  0
  191.9850  176.6400  146.0820 C   0  0  0  0  0  2  0  0  0  0  0  0
  189.9380  176.8860  144.5390 C   0  0  2  0  0  3  0  0  0  0  0  0
  191.5120  176.8250  147.5130 C   0  0  0  0  0  2  0  0  0  0  0  0
  189.9220  179.2120  145.1260 O   0  0  0  0  0  1  0  0  0  0  0  0
  188.2790  177.8260  146.1480 C   0  0  1  0  0  3  0  0  0  0  0  0
  190.6120  176.1210  145.7010 C   0  0  2  0  0  3  0  0  0  0  0  0
  189.1940  177.5920  147.3280 C   0  0  0  0  0  2  0  0  0  0  0  0
  190.1110  176.3830  147.1280 C   0  0  2  0  0  3  0  0  0  0  0  0
  187.3730  178.9330  146.4460 N   0  0  0  0  0  2  0  0  0  0  0  0
  186.0460  178.3710  146.6710 C   0  0  2  0  0  3  0  0  0  0  0  0
  186.1660  176.8850  146.9550 C   0  0  0  0  0  1  0  0  0  0  0  0
  184.6990  178.6790  143.1350 C   0  0  0  0  0  0  0  0  0  0  0  0
  185.1200  178.6380  145.5120 C   0  0  0  0  0  0  0  0  0  0  0  0
  185.5790  178.4810  144.1970 C   0  0  0  0  0  3  0  0  0  0  0  0
  182.9400  179.1390  144.7040 C   0  0  0  0  0  3  0  0  0  0  0  0
  183.8130  178.9620  145.7270 N   0  0  0  0  0  0  0  0  0  0  0  0
  183.3670  178.9990  143.3840 C   0  0  0  0  0  3  0  0  0  0  0  0
  185.1830  178.5490  141.7420 C   0  0  0  0  0  1  0  0  0  0  0  0
  1 31  1  0  0  0  0
  2 15  1  1  0  0  0
  2 12  1  0  0  0  0
  4  1  1  0  0  0  0
  4  9  1  1  0  0  0
  5  3  2  0  0  0  0
  5 17  1  0  0  0  0
  6  3  1  6  0  0  0
  6 15  1  0  0  0  0
  6  2  1  0  0  0  0
  7 16  1  0  0  0  0
  7 14  2  0  0  0  0
  8  7  1  0  0  0  0
 10  1  2  0  0  0  0
 11 17  1  0  0  0  0
 11  8  1  0  0  0  0
 12 14  1  0  0  0  0
 13  4  1  0  0  0  0
 14 10  1  0  0  0  0
 16 13  2  0  0  0  0
 18 21  1  0  0  0  0
 18 19  2  0  0  0  0
 20  3  1  0  0  0  0
 20 21  1  0  0  0  0
 22 20  2  0  0  0  0
 23 18  1  0  0  0  0
 24 28  1  0  0  0  0
 25 23  1  1  0  0  0
 25 27  1  0  0  0  0
 25 26  1  0  0  0  0
 26 30  1  6  0  0  0
 26 28  1  0  0  0  0
 27 24  1  0  0  0  0
 30 29  1  0  0  0  0
 31 32  1  1  0  0  0
 31 33  1  0  0  0  0
 34 38  1  1  0  0  0
 34 39  1  0  0  0  0
 35 37  1  0  0  0  0
 36 33  1  6  0  0  0
 36 34  1  0  0  0  0
 36 40  1  0  0  0  0
 39 43  1  1  0  0  0
 39 41  1  0  0  0  0
 40 35  1  1  0  0  0
 40 42  1  0  0  0  0
 42 41  1  6  0  0  0
 42 37  1  0  0  0  0
 43 44  1  0  0  0  0
 44 45  1  6  0  0  0
 46 51  2  0  0  0  0
 46 48  1  0  0  0  0
 47 50  1  0  0  0  0
 47 44  1  0  0  0  0
 48 47  2  0  0  0  0
 49 50  2  0  0  0  0
 51 49  1  0  0  0  0
 52 46  1  0  0  0  0
M  END
>  <MODEL>
2

>  <REMARK>
 VINA RESULT:      -7.5      1.604      1.920
  Name = 
  10 active torsions:
  status: ('A' for Active; 'I' for Inactive)
    1  A    between atoms: C_1  and  C_30
    2  A    between atoms: C_6  and  C_30
    3  A    between atoms: C_8  and  C_33
    4  A    between atoms: C_9  and  O_18
    5  A    between atoms: C_10  and  C_16
    6  A    between atoms: C_12  and  C_52
    7  A    between atoms: C_13  and  C_17
    8  A    between atoms: C_16  and  N_48
    9  A    between atoms: O_18  and  C_33
   10  A    between atoms: C_23  and  N_48
                            x       y       z     vdW  Elec       q    Type
                         _______ _______ _______ _____ _____    ______ ____

>  <TORSDO>
F 10

$$$$
=
 OpenBabel10222417463D

 52 58  0  0  1  0  0  0  0  0999 V2000
  181.5370  177.8950  140.5890 C   0  0  0  0  0  0  0  0  0  0  0  0
  186.0440  178.0700  141.7910 C   0  0  1  0  0  3  0  0  0  0  0  0
  187.4240  178.0960  143.7610 C   0  0  0  0  0  0  0  0  0  0  0  0
  180.7870  179.0250  141.2460 C   0  0  1  0  0  3  0  0  0  0  0  0
  186.6270  177.5590  144.6980 C   0  0  0  0  0  3  0  0  0  0  0  0
  186.8600  178.9440  142.6630 C   0  0  1  0  0  3  0  0  0  0  0  0
  183.2660  179.1400  142.8510 C   0  0  0  0  0  0  0  0  0  0  0  0
  184.2470  179.8490  143.7580 C   0  0  0  0  0  2  0  0  0  0  0  0
  179.3990  179.0910  140.8010 N   0  0  0  0  0  1  0  0  0  0  0  0
  182.8650  177.7940  140.7760 C   0  0  0  0  0  3  0  0  0  0  0  0
  184.6020  179.0390  145.0150 C   0  0  0  0  0  2  0  0  0  0  0  0
  185.0080  178.8510  141.2470 O   0  0  0  0  0  0  0  0  0  0  0  0
  180.8130  178.8550  142.6930 N   0  0  0  0  0  0  0  0  0  0  0  0
  183.6970  178.6410  141.6620 C   0  0  0  0  0  0  0  0  0  0  0  0
  187.3010  178.5440  141.3920 O   0  0  0  0  0  0  0  0  0  0  0  0
  181.9040  178.9320  143.4060 C   0  0  0  0  0  3  0  0  0  0  0  0
  185.1340  177.6400  144.6940 C   0  0  0  0  0  2  0  0  0  0  0  0
  190.7550  176.1840  144.0350 C   0  0  0  0  0  0  0  0  0  0  0  0
  191.1250  175.0550  143.6710 O   0  0  0  0  0  0  0  0  0  0  0  0
  188.8800  177.8960  143.8480 C   0  0  0  0  0  0  0  0  0  0  0  0
  189.4070  176.5650  143.7690 N   0  0  0  0  0  2  0  0  0  0  0  0
  189.6510  178.8890  143.9700 O   0  0  0  0  0  0  0  0  0  0  0  0
  191.7230  177.1170  144.7110 C   0  0  0  0  0  2  0  0  0  0  0  0
  191.5980  175.1330  147.7630 C   0  0  0  0  0  2  0  0  0  0  0  0
  191.6970  176.9860  146.2200 C   0  0  1  0  0  3  0  0  0  0  0  0
  190.2580  176.8510  146.7070 C   0  0  1  0  0  3  0  0  0  0  0  0
  192.4170  175.7240  146.6390 C   0  0  0  0  0  2  0  0  0  0  0  0
  190.1640  175.5370  147.4670 C   0  0  0  0  0  2  0  0  0  0  0  0
  188.5990  177.9290  148.0340 O   0  0  0  0  0  1  0  0  0  0  0  0
  189.9300  178.0110  147.6250 C   0  0  0  0  0  2  0  0  0  0  0  0
  180.8240  176.8460  139.7580 C   0  0  2  0  0  3  0  0  0  0  0  0
  181.5290  175.5000  139.8690 C   0  0  0  0  0  1  0  0  0  0  0  0
  180.7450  177.2250  138.4120 O   0  0  0  0  0  0  0  0  0  0  0  0
  182.7730  177.1520  137.0980 C   0  0  2  0  0  3  0  0  0  0  0  0
  179.7180  175.9970  136.0320 C   0  0  0  0  0  2  0  0  0  0  0  0
  181.6160  176.3760  137.7310 C   0  0  2  0  0  3  0  0  0  0  0  0
  180.3440  175.5040  134.7400 C   0  0  0  0  0  2  0  0  0  0  0  0
  182.3060  178.2270  136.3690 O   0  0  0  0  0  1  0  0  0  0  0  0
  183.5980  176.2340  136.2210 C   0  0  1  0  0  3  0  0  0  0  0  0
  180.8640  175.3840  136.8140 C   0  0  2  0  0  3  0  0  0  0  0  0
  182.7580  175.7630  135.0560 C   0  0  0  0  0  2  0  0  0  0  0  0
  181.5360  174.9550  135.5030 C   0  0  2  0  0  3  0  0  0  0  0  0
  184.7890  176.9140  135.7190 N   0  0  0  0  0  2  0  0  0  0  0  0
  185.9500  176.1310  136.1240 C   0  0  2  0  0  3  0  0  0  0  0  0
  185.5130  175.0310  137.0750 C   0  0  0  0  0  1  0  0  0  0  0  0
  188.8530  177.2750  138.2870 C   0  0  0  0  0  0  0  0  0  0  0  0
  187.0240  176.9940  136.7360 C   0  0  0  0  0  0  0  0  0  0  0  0
  187.8290  176.4860  137.7650 C   0  0  0  0  0  3  0  0  0  0  0  0
  188.2770  179.0150  136.7350 C   0  0  0  0  0  3  0  0  0  0  0  0
  187.2720  178.2440  136.2510 N   0  0  0  0  0  0  0  0  0  0  0  0
  189.0900  178.5440  137.7650 C   0  0  0  0  0  3  0  0  0  0  0  0
  189.6870  176.7610  139.3970 C   0  0  0  0  0  1  0  0  0  0  0  0
  1 10  2  0  0  0  0
  1  4  1  0  0  0  0
  2 12  1  6  0  0  0
  2  6  1  0  0  0  0
  3 20  1  0  0  0  0
  3  5  2  0  0  0  0
  4  9  1  6  0  0  0
  4 13  1  0  0  0  0
  6 15  1  6  0  0  0
  6  3  1  0  0  0  0
  7 16  1  0  0  0  0
  7  8  1  0  0  0  0
  8 11  1  0  0  0  0
 10 14  1  0  0  0  0
 12 14  1  0  0  0  0
 13 16  2  0  0  0  0
 14  7  2  0  0  0  0
 15  2  1  0  0  0  0
 17  5  1  0  0  0  0
 17 11  1  0  0  0  0
 18 23  1  0  0  0  0
 19 18  2  0  0  0  0
 20 22  2  0  0  0  0
 21 20  1  0  0  0  0
 21 18  1  0  0  0  0
 25 23  1  6  0  0  0
 25 27  1  0  0  0  0
 25 26  1  0  0  0  0
 26 28  1  0  0  0  0
 26 30  1  1  0  0  0
 27 24  1  0  0  0  0
 28 24  1  0  0  0  0
 30 29  1  0  0  0  0
 31 32  1  6  0  0  0
 31  1  1  0  0  0  0
 33 31  1  0  0  0  0
 34 38  1  6  0  0  0
 34 36  1  0  0  0  0
 36 33  1  6  0  0  0
 37 35  1  0  0  0  0
 39 43  1  6  0  0  0
 39 34  1  0  0  0  0
 40 35  1  6  0  0  0
 40 36  1  0  0  0  0
 41 42  1  0  0  0  0
 41 39  1  0  0  0  0
 42 37  1  6  0  0  0
 42 40  1  0  0  0  0
 43 44  1  0  0  0  0
 44 47  1  0  0  0  0
 44 45  1  1  0  0  0
 46 52  1  0  0  0  0
 47 48  1  0  0  0  0
 48 46  2  0  0  0  0
 49 51  2  0  0  0  0
 50 49  1  0  0  0  0
 50 47  2  0  0  0  0
 51 46  1  0  0  0  0
M  END
>  <MODEL>
3

>  <REMARK>
 VINA RESULT:      -7.4      2.129     10.596
  Name = 
  10 active torsions:
  status: ('A' for Active; 'I' for Inactive)
    1  A    between atoms: C_1  and  C_30
    2  A    between atoms: C_6  and  C_30
    3  A    between atoms: C_8  and  C_33
    4  A    between atoms: C_9  and  O_18
    5  A    between atoms: C_10  and  C_16
    6  A    between atoms: C_12  and  C_52
    7  A    between atoms: C_13  and  C_17
    8  A    between atoms: C_16  and  N_48
    9  A    between atoms: O_18  and  C_33
   10  A    between atoms: C_23  and  N_48
                            x       y       z     vdW  Elec       q    Type
                         _______ _______ _______ _____ _____    ______ ____

>  <TORSDO>
F 10

$$$$
=
 OpenBabel10222417463D

 52 58  0  0  1  0  0  0  0  0999 V2000
  183.6910  178.5740  142.0250 C   0  0  0  0  0  0  0  0  0  0  0  0
  188.0080  178.2460  140.2800 C   0  0  1  0  0  3  0  0  0  0  0  0
  190.1410  177.2730  140.8160 C   0  0  0  0  0  0  0  0  0  0  0  0
  183.7420  179.1560  143.4140 C   0  0  1  0  0  3  0  0  0  0  0  0
  189.8200  176.2930  141.6760 C   0  0  0  0  0  3  0  0  0  0  0  0
  189.3650  178.5530  140.7840 C   0  0  1  0  0  3  0  0  0  0  0  0
  186.6050  178.4910  143.1010 C   0  0  0  0  0  0  0  0  0  0  0  0
  188.0660  178.6460  143.4580 C   0  0  0  0  0  2  0  0  0  0  0  0
  182.4080  179.3980  143.9540 N   0  0  0  0  0  1  0  0  0  0  0  0
  184.8330  178.4370  141.3290 C   0  0  0  0  0  3  0  0  0  0  0  0
  188.7650  177.3060  143.7370 C   0  0  0  0  0  2  0  0  0  0  0  0
  187.1130  179.1590  140.8680 O   0  0  0  0  0  0  0  0  0  0  0  0
  184.4550  178.2460  144.3010 N   0  0  0  0  0  0  0  0  0  0  0  0
  186.2030  178.7140  141.8210 C   0  0  0  0  0  0  0  0  0  0  0  0
  188.9570  178.9050  139.4880 O   0  0  0  0  0  0  0  0  0  0  0  0
  185.7250  177.9720  144.1790 C   0  0  0  0  0  3  0  0  0  0  0  0
  188.6320  176.3100  142.5830 C   0  0  0  0  0  2  0  0  0  0  0  0
  192.2030  176.0040  137.8240 C   0  0  0  0  0  0  0  0  0  0  0  0
  191.9090  175.6590  136.6670 O   0  0  0  0  0  0  0  0  0  0  0  0
  191.3080  177.1100  139.9340 C   0  0  0  0  0  0  0  0  0  0  0  0
  191.1490  176.4190  138.6880 N   0  0  0  0  0  2  0  0  0  0  0  0
  192.4270  177.5930  140.2670 O   0  0  0  0  0  0  0  0  0  0  0  0
  193.6400  176.0010  138.2710 C   0  0  0  0  0  2  0  0  0  0  0  0
  196.5590  173.8240  138.3530 C   0  0  0  0  0  2  0  0  0  0  0  0
  194.3390  174.6900  137.9710 C   0  0  1  0  0  3  0  0  0  0  0  0
  195.1240  174.8060  136.6690 C   0  0  1  0  0  3  0  0  0  0  0  0
  195.3450  174.3840  139.0580 C   0  0  0  0  0  2  0  0  0  0  0  0
  196.5780  174.5000  136.9930 C   0  0  0  0  0  2  0  0  0  0  0  0
  193.7500  172.8930  136.3180 O   0  0  0  0  0  1  0  0  0  0  0  0
  194.5870  173.8010  135.6710 C   0  0  0  0  0  2  0  0  0  0  0  0
  182.3880  178.1010  141.4100 C   0  0  2  0  0  3  0  0  0  0  0  0
  182.5990  176.8120  140.6270 C   0  0  0  0  0  1  0  0  0  0  0  0
  181.8340  179.0750  140.5700 O   0  0  0  0  0  0  0  0  0  0  0  0
  182.3290  178.5120  138.2720 C   0  0  2  0  0  3  0  0  0  0  0  0
  179.4900  180.1460  139.3090 C   0  0  0  0  0  2  0  0  0  0  0  0
  181.3650  178.3860  139.4530 C   0  0  2  0  0  3  0  0  0  0  0  0
  178.9550  180.1380  137.8880 C   0  0  0  0  0  2  0  0  0  0  0  0
  182.6690  179.8320  138.0520 O   0  0  0  0  0  1  0  0  0  0  0  0
  181.7120  177.9080  137.0280 C   0  0  1  0  0  3  0  0  0  0  0  0
  179.8760  178.6860  139.1660 C   0  0  2  0  0  3  0  0  0  0  0  0
  180.4960  178.7120  136.6290 C   0  0  0  0  0  2  0  0  0  0  0  0
  179.4070  178.7000  137.7040 C   0  0  2  0  0  3  0  0  0  0  0  0
  182.6670  177.8870  135.9220 N   0  0  0  0  0  2  0  0  0  0  0  0
  183.1590  176.5220  135.7880 C   0  0  2  0  0  3  0  0  0  0  0  0
  182.2650  175.5800  136.5750 C   0  0  0  0  0  1  0  0  0  0  0  0
  186.7710  177.3960  136.5640 C   0  0  0  0  0  0  0  0  0  0  0  0
  184.5990  176.4000  136.2140 C   0  0  0  0  0  0  0  0  0  0  0  0
  185.4550  177.5060  136.1180 C   0  0  0  0  0  3  0  0  0  0  0  0
  186.3390  175.1260  137.2190 C   0  0  0  0  0  3  0  0  0  0  0  0
  185.0670  175.2420  136.7620 N   0  0  0  0  0  0  0  0  0  0  0  0
  187.2180  176.2040  137.1290 C   0  0  0  0  0  3  0  0  0  0  0  0
  187.6920  178.5480  136.4350 C   0  0  0  0  0  1  0  0  0  0  0  0
  1  4  1  0  0  0  0
  2 15  1  6  0  0  0
  2  6  1  0  0  0  0
  2 12  1  0  0  0  0
  3  5  2  0  0  0  0
  4  9  1  1  0  0  0
  4 13  1  0  0  0  0
  5 17  1  0  0  0  0
  6 15  1  6  0  0  0
  6  3  1  0  0  0  0
  7  8  1  0  0  0  0
  7 16  1  0  0  0  0
  8 11  1  0  0  0  0
 10 14  1  0  0  0  0
 10  1  2  0  0  0  0
 12 14  1  0  0  0  0
 14  7  2  0  0  0  0
 16 13  2  0  0  0  0
 17 11  1  0  0  0  0
 18 23  1  0  0  0  0
 18 21  1  0  0  0  0
 19 18  2  0  0  0  0
 20 22  2  0  0  0  0
 20  3  1  0  0  0  0
 21 20  1  0  0  0  0
 24 27  1  0  0  0  0
 25 23  1  1  0  0  0
 25 27  1  0  0  0  0
 26 30  1  6  0  0  0
 26 28  1  0  0  0  0
 26 25  1  0  0  0  0
 28 24  1  0  0  0  0
 30 29  1  0  0  0  0
 31 32  1  6  0  0  0
 31  1  1  0  0  0  0
 33 31  1  0  0  0  0
 34 38  1  6  0  0  0
 34 36  1  0  0  0  0
 36 33  1  1  0  0  0
 37 35  1  0  0  0  0
 39 43  1  6  0  0  0
 39 34  1  0  0  0  0
 40 35  1  6  0  0  0
 40 36  1  0  0  0  0
 41 39  1  0  0  0  0
 42 41  1  6  0  0  0
 42 37  1  0  0  0  0
 42 40  1  0  0  0  0
 44 43  1  0  0  0  0
 44 47  1  0  0  0  0
 44 45  1  1  0  0  0
 46 51  1  0  0  0  0
 47 50  2  0  0  0  0
 48 47  1  0  0  0  0
 48 46  2  0  0  0  0
 50 49  1  0  0  0  0
 51 49  2  0  0  0  0
 52 46  1  0  0  0  0
M  END
>  <MODEL>
4

>  <REMARK>
 VINA RESULT:      -7.3      2.920     10.432
  Name = 
  10 active torsions:
  status: ('A' for Active; 'I' for Inactive)
    1  A    between atoms: C_1  and  C_30
    2  A    between atoms: C_6  and  C_30
    3  A    between atoms: C_8  and  C_33
    4  A    between atoms: C_9  and  O_18
    5  A    between atoms: C_10  and  C_16
    6  A    between atoms: C_12  and  C_52
    7  A    between atoms: C_13  and  C_17
    8  A    between atoms: C_16  and  N_48
    9  A    between atoms: O_18  and  C_33
   10  A    between atoms: C_23  and  N_48
                            x       y       z     vdW  Elec       q    Type
                         _______ _______ _______ _____ _____    ______ ____

>  <TORSDO>
F 10

$$$$
=
 OpenBabel10222417463D

 52 58  0  0  1  0  0  0  0  0999 V2000
  190.4680  177.4330  144.7900 C   0  0  0  0  0  0  0  0  0  0  0  0
  186.0160  178.0500  143.5290 C   0  0  1  0  0  3  0  0  0  0  0  0
  183.9790  179.0110  144.3750 C   0  0  0  0  0  0  0  0  0  0  0  0
  190.5320  176.7080  146.1090 C   0  0  1  0  0  3  0  0  0  0  0  0
  184.4160  179.8850  145.2950 C   0  0  0  0  0  3  0  0  0  0  0  0
  184.7040  177.7230  144.1320 C   0  0  1  0  0  3  0  0  0  0  0  0
  187.6760  177.4710  146.1550 C   0  0  0  0  0  0  0  0  0  0  0  0
  186.2520  177.3140  146.6380 C   0  0  0  0  0  2  0  0  0  0  0  0
  191.9020  176.3770  146.4850 N   0  0  0  0  0  1  0  0  0  0  0  0
  189.2680  177.6720  144.2300 C   0  0  0  0  0  3  0  0  0  0  0  0
  185.6300  178.6330  147.1240 C   0  0  0  0  0  2  0  0  0  0  0  0
  186.9310  177.0580  143.9270 O   0  0  0  0  0  0  0  0  0  0  0  0
  189.9400  177.5350  147.1530 N   0  0  0  0  0  0  0  0  0  0  0  0
  187.9450  177.3760  144.8250 C   0  0  0  0  0  0  0  0  0  0  0  0
  184.9720  177.5030  142.7720 O   0  0  0  0  0  0  0  0  0  0  0  0
  188.6740  177.8510  147.1880 C   0  0  0  0  0  3  0  0  0  0  0  0
  185.6850  179.7430  146.0720 C   0  0  0  0  0  2  0  0  0  0  0  0
  180.4890  178.3750  142.8810 C   0  0  0  0  0  0  0  0  0  0  0  0
  179.5330  177.6550  143.2170 O   0  0  0  0  0  0  0  0  0  0  0  0
  182.7390  179.2960  143.6360 C   0  0  0  0  0  0  0  0  0  0  0  0
  181.6630  178.3490  143.6890 N   0  0  0  0  0  2  0  0  0  0  0  0
  182.6220  180.3700  142.9820 O   0  0  0  0  0  0  0  0  0  0  0  0
  180.3810  179.2580  141.6680 C   0  0  0  0  0  2  0  0  0  0  0  0
  181.3850  176.2720  139.8390 C   0  0  0  0  0  2  0  0  0  0  0  0
  180.7270  178.5290  140.3850 C   0  0  1  0  0  3  0  0  0  0  0  0
  182.2390  178.5100  140.1880 C   0  0  1  0  0  3  0  0  0  0  0  0
  180.2850  177.0860  140.4800 C   0  0  0  0  0  2  0  0  0  0  0  0
  182.6620  177.0520  140.1020 C   0  0  0  0  0  2  0  0  0  0  0  0
  183.3720  180.3490  139.1830 O   0  0  0  0  0  1  0  0  0  0  0  0
  182.5840  179.2330  138.9020 C   0  0  0  0  0  2  0  0  0  0  0  0
  191.7210  177.9370  144.1000 C   0  0  2  0  0  3  0  0  0  0  0  0
  191.5200  179.3600  143.5930 C   0  0  0  0  0  1  0  0  0  0  0  0
  192.0890  177.1070  143.0340 O   0  0  0  0  0  0  0  0  0  0  0  0
  190.2480  177.0640  141.4690 C   0  0  2  0  0  3  0  0  0  0  0  0
  193.5510  176.6870  140.6020 C   0  0  0  0  0  2  0  0  0  0  0  0
  191.5690  177.7100  141.8900 C   0  0  2  0  0  3  0  0  0  0  0  0
  193.1690  176.6290  139.1340 C   0  0  0  0  0  2  0  0  0  0  0  0
  190.3660  175.6900  141.4110 O   0  0  0  0  0  1  0  0  0  0  0  0
  189.8010  177.6160  140.1320 C   0  0  1  0  0  3  0  0  0  0  0  0
  192.6380  177.8830  140.7870 C   0  0  2  0  0  3  0  0  0  0  0  0
  190.7920  177.2120  139.0650 C   0  0  0  0  0  2  0  0  0  0  0  0
  192.1920  177.7760  139.3220 C   0  0  2  0  0  3  0  0  0  0  0  0
  188.4730  177.1230  139.7750 N   0  0  0  0  0  2  0  0  0  0  0  0
  187.7160  178.2440  139.2290 C   0  0  2  0  0  3  0  0  0  0  0  0
  186.6120  178.6290  140.1970 C   0  0  0  0  0  1  0  0  0  0  0  0
  185.3120  177.3460  136.4320 C   0  0  0  0  0  0  0  0  0  0  0  0
  187.1670  177.9370  137.8590 C   0  0  0  0  0  0  0  0  0  0  0  0
  185.8210  177.5760  137.7090 C   0  0  0  0  0  3  0  0  0  0  0  0
  187.4610  177.8750  135.5000 C   0  0  0  0  0  3  0  0  0  0  0  0
  187.9480  178.0760  136.7500 N   0  0  0  0  0  0  0  0  0  0  0  0
  186.1290  177.5060  135.3160 C   0  0  0  0  0  3  0  0  0  0  0  0
  183.9000  176.9310  136.2650 C   0  0  0  0  0  1  0  0  0  0  0  0
  1  4  1  0  0  0  0
  2 15  1  6  0  0  0
  2 12  1  0  0  0  0
  2  6  1  0  0  0  0
  3  5  2  0  0  0  0
  4  9  1  1  0  0  0
  4 13  1  0  0  0  0
  5 17  1  0  0  0  0
  6 15  1  6  0  0  0
  6  3  1  0  0  0  0
  7  8  1  0  0  0  0
  7 16  1  0  0  0  0
  8 11  1  0  0  0  0
 10  1  2  0  0  0  0
 10 14  1  0  0  0  0
 12 14  1  0  0  0  0
 13 16  2  0  0  0  0
 14  7  2  0  0  0  0
 17 11  1  0  0  0  0
 18 19  2  0  0  0  0
 18 21  1  0  0  0  0
 20 21  1  0  0  0  0
 20  3  1  0  0  0  0
 22 20  2  0  0  0  0
 23 18  1  0  0  0  0
 24 28  1  0  0  0  0
 24 27  1  0  0  0  0
 25 27  1  0  0  0  0
 25 23  1  1  0  0  0
 26 30  1  6  0  0  0
 26 25  1  0  0  0  0
 28 26  1  0  0  0  0
 30 29  1  0  0  0  0
 31 32  1  6  0  0  0
 31  1  1  0  0  0  0
 33 31  1  0  0  0  0
 34 38  1  6  0  0  0
 34 36  1  0  0  0  0
 36 33  1  1  0  0  0
 37 42  1  0  0  0  0
 37 35  1  0  0  0  0
 39 43  1  6  0  0  0
 39 34  1  0  0  0  0
 40 35  1  1  0  0  0
 40 36  1  0  0  0  0
 41 39  1  0  0  0  0
 42 41  1  1  0  0  0
 42 40  1  0  0  0  0
 44 43  1  0  0  0  0
 44 45  1  1  0  0  0
 46 48  1  0  0  0  0
 47 44  1  0  0  0  0
 48 47  2  0  0  0  0
 49 50  2  0  0  0  0
 50 47  1  0  0  0  0
 51 49  1  0  0  0  0
 51 46  2  0  0  0  0
 52 46  1  0  0  0  0
M  END
>  <MODEL>
5

>  <REMARK>
 VINA RESULT:      -7.2      2.202      6.464
  Name = 
  10 active torsions:
  status: ('A' for Active; 'I' for Inactive)
    1  A    between atoms: C_1  and  C_30
    2  A    between atoms: C_6  and  C_30
    3  A    between atoms: C_8  and  C_33
    4  A    between atoms: C_9  and  O_18
    5  A    between atoms: C_10  and  C_16
    6  A    between atoms: C_12  and  C_52
    7  A    between atoms: C_13  and  C_17
    8  A    between atoms: C_16  and  N_48
    9  A    between atoms: O_18  and  C_33
   10  A    between atoms: C_23  and  N_48
                            x       y       z     vdW  Elec       q    Type
                         _______ _______ _______ _____ _____    ______ ____

>  <TORSDO>
F 10

$$$$
=
 OpenBabel10222417463D

 52 58  0  0  1  0  0  0  0  0999 V2000
  183.7630  178.6150  142.0120 C   0  0  0  0  0  0  0  0  0  0  0  0
  188.0610  178.2520  140.2280 C   0  0  1  0  0  3  0  0  0  0  0  0
  190.1870  177.2480  140.7360 C   0  0  0  0  0  0  0  0  0  0  0  0
  183.8330  179.1820  143.4070 C   0  0  1  0  0  3  0  0  0  0  0  0
  189.8610  176.2630  141.5880 C   0  0  0  0  0  3  0  0  0  0  0  0
  189.4260  178.5380  140.7230 C   0  0  1  0  0  3  0  0  0  0  0  0
  186.6850  178.4850  143.0630 C   0  0  0  0  0  0  0  0  0  0  0  0
  188.1510  178.6190  143.4090 C   0  0  0  0  0  2  0  0  0  0  0  0
  182.5070  179.4350  143.9610 N   0  0  0  0  0  1  0  0  0  0  0  0
  184.8980  178.4710  141.3060 C   0  0  0  0  0  3  0  0  0  0  0  0
  188.8360  177.2680  143.6690 C   0  0  0  0  0  2  0  0  0  0  0  0
  187.1830  179.1700  140.8330 O   0  0  0  0  0  0  0  0  0  0  0  0
  184.5420  178.2540  144.2790 N   0  0  0  0  0  0  0  0  0  0  0  0
  186.2750  178.7270  141.7890 C   0  0  0  0  0  0  0  0  0  0  0  0
  189.0130  178.9070  139.4350 O   0  0  0  0  0  0  0  0  0  0  0  0
  185.8080  177.9660  144.1430 C   0  0  0  0  0  3  0  0  0  0  0  0
  188.6810  176.2850  142.5060 C   0  0  0  0  0  2  0  0  0  0  0  0
  192.1430  176.2200  137.5840 C   0  0  0  0  0  0  0  0  0  0  0  0
  191.8340  176.1050  136.3860 O   0  0  0  0  0  0  0  0  0  0  0  0
  191.3440  177.0790  139.8430 C   0  0  0  0  0  0  0  0  0  0  0  0
  191.1290  176.6230  138.5010 N   0  0  0  0  0  2  0  0  0  0  0  0
  192.5070  177.3550  140.2520 O   0  0  0  0  0  0  0  0  0  0  0  0
  193.5560  175.9610  138.0290 C   0  0  0  0  0  2  0  0  0  0  0  0
  194.9420  172.6210  137.5920 C   0  0  0  0  0  2  0  0  0  0  0  0
  194.2420  174.8960  137.1970 C   0  0  1  0  0  3  0  0  0  0  0  0
  195.7410  174.9030  137.4760 C   0  0  1  0  0  3  0  0  0  0  0  0
  193.7330  173.5280  137.5930 C   0  0  0  0  0  2  0  0  0  0  0  0
  196.1110  173.5130  137.9710 C   0  0  0  0  0  2  0  0  0  0  0  0
  197.6030  176.0020  136.4770 O   0  0  0  0  0  1  0  0  0  0  0  0
  196.4860  175.2180  136.1940 C   0  0  0  0  0  2  0  0  0  0  0  0
  182.4500  178.1650  141.4040 C   0  0  2  0  0  3  0  0  0  0  0  0
  182.5720  176.7540  140.8420 C   0  0  0  0  0  1  0  0  0  0  0  0
  182.0270  179.0360  140.3930 O   0  0  0  0  0  0  0  0  0  0  0  0
  183.0990  178.1530  138.4140 C   0  0  2  0  0  3  0  0  0  0  0  0
  180.2540  180.0790  138.3930 C   0  0  0  0  0  2  0  0  0  0  0  0
  181.8310  178.2390  139.2660 C   0  0  2  0  0  3  0  0  0  0  0  0
  180.1460  179.9210  136.8870 C   0  0  0  0  0  2  0  0  0  0  0  0
  183.6130  179.4100  138.1670 O   0  0  0  0  0  1  0  0  0  0  0  0
  182.8060  177.4340  137.1150 C   0  0  1  0  0  3  0  0  0  0  0  0
  180.5210  178.5920  138.5240 C   0  0  2  0  0  3  0  0  0  0  0  0
  181.8370  178.2530  136.2940 C   0  0  0  0  0  2  0  0  0  0  0  0
  180.4910  178.4460  136.9960 C   0  0  2  0  0  3  0  0  0  0  0  0
  184.0290  177.2120  136.3470 N   0  0  0  0  0  2  0  0  0  0  0  0
  185.0710  176.8030  137.2810 C   0  0  2  0  0  3  0  0  0  0  0  0
  186.3170  177.6390  137.0490 C   0  0  0  0  0  1  0  0  0  0  0  0
  184.6070  173.0390  137.1070 C   0  0  0  0  0  0  0  0  0  0  0  0
  185.3690  175.3290  137.1800 C   0  0  0  0  0  0  0  0  0  0  0  0
  184.3250  174.3960  137.2550 C   0  0  0  0  0  3  0  0  0  0  0  0
  186.9250  173.5760  136.7790 C   0  0  0  0  0  3  0  0  0  0  0  0
  186.6380  174.8910  136.9440 N   0  0  0  0  0  0  0  0  0  0  0  0
  185.9120  172.6210  136.8560 C   0  0  0  0  0  3  0  0  0  0  0  0
  183.5160  172.0430  137.2180 C   0  0  0  0  0  1  0  0  0  0  0  0
  1  4  1  0  0  0  0
  2 15  1  6  0  0  0
  2  6  1  0  0  0  0
  2 12  1  0  0  0  0
  3  5  2  0  0  0  0
  4  9  1  1  0  0  0
  4 13  1  0  0  0  0
  5 17  1  0  0  0  0
  6 15  1  6  0  0  0
  6  3  1  0  0  0  0
  7  8  1  0  0  0  0
  7 16  1  0  0  0  0
  8 11  1  0  0  0  0
 10 14  1  0  0  0  0
 10  1  2  0  0  0  0
 12 14  1  0  0  0  0
 14  7  2  0  0  0  0
 16 13  2  0  0  0  0
 17 11  1  0  0  0  0
 18 23  1  0  0  0  0
 18 21  1  0  0  0  0
 19 18  2  0  0  0  0
 20 22  2  0  0  0  0
 20  3  1  0  0  0  0
 21 20  1  0  0  0  0
 24 27  1  0  0  0  0
 24 28  1  0  0  0  0
 25 26  1  0  0  0  0
 25 27  1  0  0  0  0
 25 23  1  1  0  0  0
 26 30  1  6  0  0  0
 26 28  1  0  0  0  0
 30 29  1  0  0  0  0
 31 32  1  6  0  0  0
 31  1  1  0  0  0  0
 33 31  1  0  0  0  0
 34 38  1  6  0  0  0
 34 36  1  0  0  0  0
 36 33  1  1  0  0  0
 37 42  1  0  0  0  0
 37 35  1  0  0  0  0
 39 43  1  6  0  0  0
 39 34  1  0  0  0  0
 40 35  1  6  0  0  0
 40 36  1  0  0  0  0
 41 39  1  0  0  0  0
 42 41  1  6  0  0  0
 42 40  1  0  0  0  0
 43 44  1  0  0  0  0
 44 45  1  6  0  0  0
 46 52  1  0  0  0  0
 46 48  1  0  0  0  0
 47 48  2  0  0  0  0
 47 44  1  0  0  0  0
 49 51  1  0  0  0  0
 49 50  2  0  0  0  0
 50 47  1  0  0  0  0
 51 46  2  0  0  0  0
M  END
>  <MODEL>
6

>  <REMARK>
 VINA RESULT:      -7.2      3.167     10.377
  Name = 
  10 active torsions:
  status: ('A' for Active; 'I' for Inactive)
    1  A    between atoms: C_1  and  C_30
    2  A    between atoms: C_6  and  C_30
    3  A    between atoms: C_8  and  C_33
    4  A    between atoms: C_9  and  O_18
    5  A    between atoms: C_10  and  C_16
    6  A    between atoms: C_12  and  C_52
    7  A    between atoms: C_13  and  C_17
    8  A    between atoms: C_16  and  N_48
    9  A    between atoms: O_18  and  C_33
   10  A    between atoms: C_23  and  N_48
                            x       y       z     vdW  Elec       q    Type
                         _______ _______ _______ _____ _____    ______ ____

>  <TORSDO>
F 10

$$$$
=
 OpenBabel10222417463D

 52 58  0  0  1  0  0  0  0  0999 V2000
  190.4410  177.2870  143.5840 C   0  0  0  0  0  0  0  0  0  0  0  0
  185.8920  178.2140  143.0990 C   0  0  1  0  0  3  0  0  0  0  0  0
  184.0150  178.9580  144.4070 C   0  0  0  0  0  0  0  0  0  0  0  0
  190.6430  176.2660  144.6740 C   0  0  1  0  0  3  0  0  0  0  0  0
  184.5960  179.5840  145.4420 C   0  0  0  0  0  3  0  0  0  0  0  0
  184.6550  177.7610  143.7740 C   0  0  1  0  0  3  0  0  0  0  0  0
  187.8470  177.0140  145.2720 C   0  0  0  0  0  0  0  0  0  0  0  0
  186.4900  176.7550  145.8880 C   0  0  0  0  0  2  0  0  0  0  0  0
  192.0370  175.8470  144.7780 N   0  0  0  0  0  1  0  0  0  0  0  0
  189.1900  177.6590  143.2580 C   0  0  0  0  0  3  0  0  0  0  0  0
  185.9830  177.9230  146.7480 C   0  0  0  0  0  2  0  0  0  0  0  0
  186.8120  177.1500  143.1270 O   0  0  0  0  0  0  0  0  0  0  0  0
  190.2190  176.8230  145.9520 N   0  0  0  0  0  0  0  0  0  0  0  0
  187.9420  177.2380  143.9350 C   0  0  0  0  0  0  0  0  0  0  0  0
  184.7410  177.8700  142.3780 O   0  0  0  0  0  0  0  0  0  0  0  0
  188.9800  177.1290  146.2260 C   0  0  0  0  0  3  0  0  0  0  0  0
  185.9470  179.2520  145.9910 C   0  0  0  0  0  2  0  0  0  0  0  0
  180.2860  178.7610  143.4720 C   0  0  0  0  0  0  0  0  0  0  0  0
  179.3350  178.0780  143.8880 O   0  0  0  0  0  0  0  0  0  0  0  0
  182.7030  179.4190  143.9250 C   0  0  0  0  0  0  0  0  0  0  0  0
  181.5680  178.5530  144.0600 N   0  0  0  0  0  2  0  0  0  0  0  0
  182.5810  180.5700  143.4200 O   0  0  0  0  0  0  0  0  0  0  0  0
  180.0650  179.7890  142.3970 C   0  0  0  0  0  2  0  0  0  0  0  0
  180.3170  176.9570  140.1210 C   0  0  0  0  0  2  0  0  0  0  0  0
  180.1080  179.1930  141.0040 C   0  0  1  0  0  3  0  0  0  0  0  0
  181.5550  178.9880  140.5690 C   0  0  1  0  0  3  0  0  0  0  0  0
  179.4600  177.8260  141.0120 C   0  0  0  0  0  2  0  0  0  0  0  0
  181.7250  177.5090  140.2600 C   0  0  0  0  0  2  0  0  0  0  0  0
  183.1990  179.8800  139.0940 O   0  0  0  0  0  1  0  0  0  0  0  0
  181.8260  179.8170  139.3300 C   0  0  0  0  0  2  0  0  0  0  0  0
  191.6150  177.9330  142.8750 C   0  0  2  0  0  3  0  0  0  0  0  0
  192.0610  179.1910  143.6090 C   0  0  0  0  0  1  0  0  0  0  0  0
  191.3010  178.2520  141.5470 O   0  0  0  0  0  0  0  0  0  0  0  0
  192.9580  177.1120  140.2070 C   0  0  2  0  0  3  0  0  0  0  0  0
  189.8060  177.9390  139.1190 C   0  0  0  0  0  2  0  0  0  0  0  0
  191.5540  177.0940  140.8120 C   0  0  2  0  0  3  0  0  0  0  0  0
  190.0700  177.2440  137.7950 C   0  0  0  0  0  2  0  0  0  0  0  0
  193.1940  178.2980  139.5410 O   0  0  0  0  0  1  0  0  0  0  0  0
  193.1380  175.9340  139.2730 C   0  0  1  0  0  3  0  0  0  0  0  0
  190.3910  176.7490  139.8540 C   0  0  2  0  0  3  0  0  0  0  0  0
  192.2010  176.0780  138.0950 C   0  0  0  0  0  2  0  0  0  0  0  0
  190.7290  176.0810  138.5140 C   0  0  2  0  0  3  0  0  0  0  0  0
  194.5150  175.8460  138.7930 N   0  0  0  0  0  2  0  0  0  0  0  0
  194.5440  174.8730  137.7070 C   0  0  2  0  0  3  0  0  0  0  0  0
  194.8210  173.4910  138.2720 C   0  0  0  0  0  1  0  0  0  0  0  0
  197.5110  174.7180  135.3430 C   0  0  0  0  0  0  0  0  0  0  0  0
  195.5470  175.2460  136.6460 C   0  0  0  0  0  0  0  0  0  0  0  0
  196.6190  174.3880  136.3630 C   0  0  0  0  0  3  0  0  0  0  0  0
  196.2340  176.7030  134.8960 C   0  0  0  0  0  3  0  0  0  0  0  0
  195.3860  176.3780  135.9040 N   0  0  0  0  0  0  0  0  0  0  0  0
  197.3160  175.8760  134.5940 C   0  0  0  0  0  3  0  0  0  0  0  0
  198.6650  173.8350  135.0590 C   0  0  0  0  0  1  0  0  0  0  0  0
  1  4  1  0  0  0  0
  2 15  1  6  0  0  0
  2 12  1  0  0  0  0
  2  6  1  0  0  0  0
  3  5  2  0  0  0  0
  4  9  1  1  0  0  0
  4 13  1  0  0  0  0
  5 17  1  0  0  0  0
  6 15  1  6  0  0  0
  6  3  1  0  0  0  0
  7  8  1  0  0  0  0
  7 16  1  0  0  0  0
  8 11  1  0  0  0  0
 10  1  2  0  0  0  0
 10 14  1  0  0  0  0
 12 14  1  0  0  0  0
 13 16  2  0  0  0  0
 14  7  2  0  0  0  0
 17 11  1  0  0  0  0
 18 19  2  0  0  0  0
 18 21  1  0  0  0  0
 20 21  1  0  0  0  0
 20  3  1  0  0  0  0
 22 20  2  0  0  0  0
 23 18  1  0  0  0  0
 24 28  1  0  0  0  0
 24 27  1  0  0  0  0
 25 27  1  0  0  0  0
 25 23  1  1  0  0  0
 26 30  1  6  0  0  0
 26 25  1  0  0  0  0
 28 26  1  0  0  0  0
 29 30  1  0  0  0  0
 31  1  1  0  0  0  0
 31 32  1  1  0  0  0
 33 31  1  0  0  0  0
 34 38  1  6  0  0  0
 34 36  1  0  0  0  0
 36 33  1  6  0  0  0
 37 35  1  0  0  0  0
 39 43  1  6  0  0  0
 39 34  1  0  0  0  0
 40 35  1  6  0  0  0
 40 36  1  0  0  0  0
 41 42  1  0  0  0  0
 41 39  1  0  0  0  0
 42 37  1  6  0  0  0
 42 40  1  0  0  0  0
 44 45  1  1  0  0  0
 44 43  1  0  0  0  0
 46 48  1  0  0  0  0
 47 44  1  0  0  0  0
 48 47  2  0  0  0  0
 49 50  2  0  0  0  0
 50 47  1  0  0  0  0
 51 49  1  0  0  0  0
 51 46  2  0  0  0  0
 52 46  1  0  0  0  0
M  END
>  <MODEL>
7

>  <REMARK>
 VINA RESULT:      -7.2      3.513      8.572
  Name = 
  10 active torsions:
  status: ('A' for Active; 'I' for Inactive)
    1  A    between atoms: C_1  and  C_30
    2  A    between atoms: C_6  and  C_30
    3  A    between atoms: C_8  and  C_33
    4  A    between atoms: C_9  and  O_18
    5  A    between atoms: C_10  and  C_16
    6  A    between atoms: C_12  and  C_52
    7  A    between atoms: C_13  and  C_17
    8  A    between atoms: C_16  and  N_48
    9  A    between atoms: O_18  and  C_33
   10  A    between atoms: C_23  and  N_48
                            x       y       z     vdW  Elec       q    Type
                         _______ _______ _______ _____ _____    ______ ____

>  <TORSDO>
F 10

$$$$
=
 OpenBabel10222417463D

 52 58  0  0  1  0  0  0  0  0999 V2000
  190.1350  176.4520  138.5760 C   0  0  0  0  0  0  0  0  0  0  0  0
  185.7130  175.9810  137.1560 C   0  0  1  0  0  3  0  0  0  0  0  0
  184.1290  174.2550  136.6110 C   0  0  0  0  0  0  0  0  0  0  0  0
  191.0590  175.7390  137.6220 C   0  0  1  0  0  3  0  0  0  0  0  0
  184.6180  173.1810  137.2500 C   0  0  0  0  0  3  0  0  0  0  0  0
  185.0450  175.2890  136.0320 C   0  0  1  0  0  3  0  0  0  0  0  0
  188.5000  174.5490  136.7420 C   0  0  0  0  0  0  0  0  0  0  0  0
  187.6260  173.8410  135.7310 C   0  0  0  0  0  2  0  0  0  0  0  0
  192.4630  175.9640  137.9500 N   0  0  0  0  0  1  0  0  0  0  0  0
  188.8150  176.4710  138.3190 C   0  0  0  0  0  3  0  0  0  0  0  0
  186.8980  172.6190  136.3130 C   0  0  0  0  0  2  0  0  0  0  0  0
  186.9850  176.3910  136.7140 O   0  0  0  0  0  0  0  0  0  0  0  0
  190.7880  174.3070  137.6550 N   0  0  0  0  0  0  0  0  0  0  0  0
  188.1230  175.7670  137.2150 C   0  0  0  0  0  0  0  0  0  0  0  0
  184.6960  176.5930  136.4130 O   0  0  0  0  0  0  0  0  0  0  0  0
  189.6680  173.7790  137.2420 C   0  0  0  0  0  3  0  0  0  0  0  0
  186.0650  172.9540  137.5530 C   0  0  0  0  0  2  0  0  0  0  0  0
  180.7860  175.9330  135.7040 C   0  0  0  0  0  0  0  0  0  0  0  0
  180.4660  176.8210  134.8960 O   0  0  0  0  0  0  0  0  0  0  0  0
  182.6750  174.3870  136.4250 C   0  0  0  0  0  0  0  0  0  0  0  0
  182.1590  175.5600  135.7800 N   0  0  0  0  0  2  0  0  0  0  0  0
  181.9000  173.4690  136.8110 O   0  0  0  0  0  0  0  0  0  0  0  0
  179.7350  175.2660  136.5490 C   0  0  0  0  0  2  0  0  0  0  0  0
  180.9630  177.3200  139.2960 C   0  0  0  0  0  2  0  0  0  0  0  0
  179.5650  175.9340  137.8990 C   0  0  1  0  0  3  0  0  0  0  0  0
  180.1610  175.0560  138.9930 C   0  0  1  0  0  3  0  0  0  0  0  0
  180.3300  177.2390  137.9260 C   0  0  0  0  0  2  0  0  0  0  0  0
  181.2280  175.8800  139.6990 C   0  0  0  0  0  2  0  0  0  0  0  0
  179.5900  173.8130  140.9440 O   0  0  0  0  0  1  0  0  0  0  0  0
  179.0700  174.6650  139.9700 C   0  0  0  0  0  2  0  0  0  0  0  0
  190.6540  177.1120  139.8380 C   0  0  2  0  0  3  0  0  0  0  0  0
  191.9770  177.8180  139.5720 C   0  0  0  0  0  1  0  0  0  0  0  0
  190.8200  176.1820  140.8730 O   0  0  0  0  0  0  0  0  0  0  0  0
  188.8720  177.5270  141.3640 C   0  0  2  0  0  3  0  0  0  0  0  0
  191.1120  176.4080  143.7170 C   0  0  0  0  0  2  0  0  0  0  0  0
  189.6390  176.2270  141.6120 C   0  0  2  0  0  3  0  0  0  0  0  0
  190.2660  177.0130  144.8240 C   0  0  0  0  0  2  0  0  0  0  0  0
  189.7000  178.6230  141.5060 O   0  0  0  0  0  1  0  0  0  0  0  0
  187.6940  177.6260  142.3100 C   0  0  1  0  0  3  0  0  0  0  0  0
  189.8610  175.8250  143.0880 C   0  0  2  0  0  3  0  0  0  0  0  0
  188.1970  177.7320  143.7310 C   0  0  0  0  0  2  0  0  0  0  0  0
  188.9990  176.5020  144.1620 C   0  0  2  0  0  3  0  0  0  0  0  0
  186.8630  178.7870  141.9980 N   0  0  0  0  0  2  0  0  0  0  0  0
  185.5690  178.2960  141.5400 C   0  0  2  0  0  3  0  0  0  0  0  0
  185.2510  178.8960  140.1820 C   0  0  0  0  0  1  0  0  0  0  0  0
  182.1360  178.8940  143.0460 C   0  0  0  0  0  0  0  0  0  0  0  0
  184.4760  178.5780  142.5380 C   0  0  0  0  0  0  0  0  0  0  0  0
  183.1460  178.6850  142.1080 C   0  0  0  0  0  3  0  0  0  0  0  0
  183.7810  178.8450  144.7970 C   0  0  0  0  0  3  0  0  0  0  0  0
  184.7540  178.6610  143.8700 N   0  0  0  0  0  0  0  0  0  0  0  0
  182.4490  178.9640  144.4020 C   0  0  0  0  0  3  0  0  0  0  0  0
  180.7330  179.0410  142.5990 C   0  0  0  0  0  1  0  0  0  0  0  0
  1 31  1  0  0  0  0
  2 15  1  6  0  0  0
  3  5  2  0  0  0  0
  4 13  1  0  0  0  0
  4  9  1  1  0  0  0
  4  1  1  0  0  0  0
  5 17  1  0  0  0  0
  6 15  1  1  0  0  0
  6  3  1  0  0  0  0
  6  2  1  0  0  0  0
  7 14  2  0  0  0  0
  7 16  1  0  0  0  0
  8 11  1  0  0  0  0
  8  7  1  0  0  0  0
 10  1  2  0  0  0  0
 11 17  1  0  0  0  0
 12  2  1  0  0  0  0
 12 14  1  0  0  0  0
 14 10  1  0  0  0  0
 16 13  2  0  0  0  0
 18 21  1  0  0  0  0
 18 23  1  0  0  0  0
 19 18  2  0  0  0  0
 20  3  1  0  0  0  0
 20 22  2  0  0  0  0
 21 20  1  0  0  0  0
 24 28  1  0  0  0  0
 25 23  1  6  0  0  0
 25 27  1  0  0  0  0
 25 26  1  0  0  0  0
 26 28  1  0  0  0  0
 26 30  1  1  0  0  0
 27 24  1  0  0  0  0
 30 29  1  0  0  0  0
 31 32  1  6  0  0  0
 31 33  1  0  0  0  0
 34 38  1  1  0  0  0
 34 36  1  0  0  0  0
 34 39  1  0  0  0  0
 35 37  1  0  0  0  0
 36 33  1  1  0  0  0
 36 40  1  0  0  0  0
 39 43  1  6  0  0  0
 39 41  1  0  0  0  0
 40 35  1  1  0  0  0
 40 42  1  0  0  0  0
 42 41  1  6  0  0  0
 42 37  1  0  0  0  0
 44 45  1  6  0  0  0
 44 43  1  0  0  0  0
 44 47  1  0  0  0  0
 46 51  1  0  0  0  0
 47 50  2  0  0  0  0
 48 47  1  0  0  0  0
 48 46  2  0  0  0  0
 50 49  1  0  0  0  0
 51 49  2  0  0  0  0
 52 46  1  0  0  0  0
M  END
>  <MODEL>
8

>  <REMARK>
 VINA RESULT:      -6.7      2.104      3.315
  Name = 
  10 active torsions:
  status: ('A' for Active; 'I' for Inactive)
    1  A    between atoms: C_1  and  C_30
    2  A    between atoms: C_6  and  C_30
    3  A    between atoms: C_8  and  C_33
    4  A    between atoms: C_9  and  O_18
    5  A    between atoms: C_10  and  C_16
    6  A    between atoms: C_12  and  C_52
    7  A    between atoms: C_13  and  C_17
    8  A    between atoms: C_16  and  N_48
    9  A    between atoms: O_18  and  C_33
   10  A    between atoms: C_23  and  N_48
                            x       y       z     vdW  Elec       q    Type
                         _______ _______ _______ _____ _____    ______ ____

>  <TORSDO>
F 10

$$$$
=
 OpenBabel10222417463D

 52 58  0  0  1  0  0  0  0  0999 V2000
  188.0790  176.6110  136.7790 C   0  0  0  0  0  0  0  0  0  0  0  0
  189.4580  176.7380  141.2370 C   0  0  1  0  0  3  0  0  0  0  0  0
  191.3860  177.3240  142.5510 C   0  0  0  0  0  0  0  0  0  0  0  0
  189.0360  175.7730  135.9700 C   0  0  1  0  0  3  0  0  0  0  0  0
  192.0640  178.1530  141.7430 C   0  0  0  0  0  3  0  0  0  0  0  0
  190.6000  176.1770  141.9940 C   0  0  1  0  0  3  0  0  0  0  0  0
  190.6920  176.1320  138.3910 C   0  0  0  0  0  0  0  0  0  0  0  0
  191.8200  175.7350  139.3180 C   0  0  0  0  0  2  0  0  0  0  0  0
  188.5790  175.5960  134.5950 N   0  0  0  0  0  1  0  0  0  0  0  0
  188.2780  176.7380  138.1030 C   0  0  0  0  0  3  0  0  0  0  0  0
  192.7600  176.9020  139.6600 C   0  0  0  0  0  2  0  0  0  0  0  0
  189.1550  175.8450  140.1920 O   0  0  0  0  0  0  0  0  0  0  0  0
  190.3490  176.4040  135.9550 N   0  0  0  0  0  0  0  0  0  0  0  0
  189.4250  176.2070  138.8760 C   0  0  0  0  0  0  0  0  0  0  0  0
  189.2880  176.1310  142.4880 O   0  0  0  0  0  0  0  0  0  0  0  0
  191.0930  176.5390  137.0200 C   0  0  0  0  0  3  0  0  0  0  0  0
  192.0250  178.1080  140.2480 C   0  0  0  0  0  2  0  0  0  0  0  0
  191.7170  176.3480  146.2600 C   0  0  0  0  0  0  0  0  0  0  0  0
  192.2830  175.4130  146.8510 O   0  0  0  0  0  0  0  0  0  0  0  0
  191.4640  177.5090  144.0090 C   0  0  0  0  0  0  0  0  0  0  0  0
  191.7960  176.3870  144.8380 N   0  0  0  0  0  2  0  0  0  0  0  0
  191.2600  178.6470  144.5160 O   0  0  0  0  0  0  0  0  0  0  0  0
  190.9950  177.4110  147.0430 C   0  0  0  0  0  2  0  0  0  0  0  0
  187.5670  177.3580  145.8130 C   0  0  0  0  0  2  0  0  0  0  0  0
  189.5190  177.1090  147.2090 C   0  0  1  0  0  3  0  0  0  0  0  0
  188.7770  178.3650  147.6510 C   0  0  1  0  0  3  0  0  0  0  0  0
  188.9260  176.7000  145.8790 C   0  0  0  0  0  2  0  0  0  0  0  0
  187.7070  178.6450  146.6070 C   0  0  0  0  0  2  0  0  0  0  0  0
  187.7330  176.7870  149.0980 O   0  0  0  0  0  1  0  0  0  0  0  0
  188.1390  178.1180  149.0030 C   0  0  0  0  0  2  0  0  0  0  0  0
  186.9240  177.3470  136.1290 C   0  0  2  0  0  3  0  0  0  0  0  0
  186.5650  178.5950  136.9250 C   0  0  0  0  0  1  0  0  0  0  0  0
  185.7950  176.5270  136.0090 O   0  0  0  0  0  0  0  0  0  0  0  0
  184.2010  177.0700  137.7430 C   0  0  2  0  0  3  0  0  0  0  0  0
  183.3590  175.9850  134.5940 C   0  0  0  0  0  2  0  0  0  0  0  0
  184.7060  177.3370  136.3240 C   0  0  2  0  0  3  0  0  0  0  0  0
  181.8860  176.1530  134.9190 C   0  0  0  0  0  2  0  0  0  0  0  0
  184.0130  175.7190  137.9540 O   0  0  0  0  0  1  0  0  0  0  0  0
  182.9160  177.8310  137.9910 C   0  0  1  0  0  3  0  0  0  0  0  0
  183.6430  177.3450  135.2010 C   0  0  2  0  0  3  0  0  0  0  0  0
  181.8320  177.2970  137.0830 C   0  0  0  0  0  2  0  0  0  0  0  0
  182.1670  177.4800  135.6000 C   0  0  2  0  0  3  0  0  0  0  0  0
  182.4900  177.7070  139.3830 N   0  0  0  0  0  2  0  0  0  0  0  0
  182.6800  179.0040  140.0220 C   0  0  2  0  0  3  0  0  0  0  0  0
  182.9300  180.0600  138.9600 C   0  0  0  0  0  1  0  0  0  0  0  0
  184.5340  178.6970  143.3200 C   0  0  0  0  0  0  0  0  0  0  0  0
  183.7920  178.9710  141.0390 C   0  0  0  0  0  0  0  0  0  0  0  0
  183.4950  178.7780  142.3950 C   0  0  0  0  0  3  0  0  0  0  0  0
  186.1180  178.9570  141.5340 C   0  0  0  0  0  3  0  0  0  0  0  0
  185.0950  179.0540  140.6480 N   0  0  0  0  0  0  0  0  0  0  0  0
  185.8570  178.7750  142.8910 C   0  0  0  0  0  3  0  0  0  0  0  0
  184.2290  178.5280  144.7590 C   0  0  0  0  0  1  0  0  0  0  0  0
  1 10  2  0  0  0  0
  2 12  1  6  0  0  0
  2  6  1  0  0  0  0
  2 15  1  0  0  0  0
  3 20  1  0  0  0  0
  4  9  1  6  0  0  0
  4  1  1  0  0  0  0
  5  3  2  0  0  0  0
  6 15  1  1  0  0  0
  6  3  1  0  0  0  0
  7 14  2  0  0  0  0
  7  8  1  0  0  0  0
  8 11  1  0  0  0  0
 10 14  1  0  0  0  0
 11 17  1  0  0  0  0
 13  4  1  0  0  0  0
 13 16  2  0  0  0  0
 14 12  1  0  0  0  0
 16  7  1  0  0  0  0
 17  5  1  0  0  0  0
 18 19  2  0  0  0  0
 18 23  1  0  0  0  0
 20 22  2  0  0  0  0
 20 21  1  0  0  0  0
 21 18  1  0  0  0  0
 24 27  1  0  0  0  0
 24 28  1  0  0  0  0
 25 23  1  6  0  0  0
 25 26  1  0  0  0  0
 26 30  1  1  0  0  0
 27 25  1  0  0  0  0
 28 26  1  0  0  0  0
 30 29  1  0  0  0  0
 31  1  1  0  0  0  0
 31 32  1  1  0  0  0
 33 31  1  0  0  0  0
 34 38  1  6  0  0  0
 34 39  1  0  0  0  0
 35 37  1  0  0  0  0
 36 33  1  6  0  0  0
 36 34  1  0  0  0  0
 39 43  1  1  0  0  0
 40 35  1  1  0  0  0
 40 42  1  0  0  0  0
 40 36  1  0  0  0  0
 41 39  1  0  0  0  0
 42 37  1  6  0  0  0
 42 41  1  0  0  0  0
 43 44  1  0  0  0  0
 44 45  1  6  0  0  0
 44 47  1  0  0  0  0
 46 52  1  0  0  0  0
 47 48  1  0  0  0  0
 48 46  2  0  0  0  0
 49 51  2  0  0  0  0
 50 47  2  0  0  0  0
 50 49  1  0  0  0  0
 51 46  1  0  0  0  0
M  END
>  <MODEL>
9

>  <REMARK>
 VINA RESULT:      -6.6      2.299      8.999
  Name = 
  10 active torsions:
  status: ('A' for Active; 'I' for Inactive)
    1  A    between atoms: C_1  and  C_30
    2  A    between atoms: C_6  and  C_30
    3  A    between atoms: C_8  and  C_33
    4  A    between atoms: C_9  and  O_18
    5  A    between atoms: C_10  and  C_16
    6  A    between atoms: C_12  and  C_52
    7  A    between atoms: C_13  and  C_17
    8  A    between atoms: C_16  and  N_48
    9  A    between atoms: O_18  and  C_33
   10  A    between atoms: C_23  and  N_48
                            x       y       z     vdW  Elec       q    Type
                         _______ _______ _______ _____ _____    ______ ____

>  <TORSDO>
F 10

$$$$
