=
 OpenBabel10222418543D

 43 49  0  0  1  0  0  0  0  0999 V2000
  186.1000  177.6700  142.1390 O   0  0  0  0  0  0  0  0  0  0  0  0
  185.5150  178.9480  142.1710 C   0  0  0  0  0  2  0  0  0  0  0  0
  192.9120  176.7560  138.1180 C   0  0  0  0  0  1  0  0  0  0  0  0
  184.2080  179.9200  139.2220 N   0  0  0  0  0  0  0  0  0  0  0  0
  189.7400  177.9090  138.4160 O   0  0  0  0  0  0  0  0  0  0  0  0
  187.2740  176.4210  137.9720 O   0  0  0  0  0  0  0  0  0  0  0  0
  191.7690  174.9020  136.9360 C   0  0  0  0  0  2  0  0  0  0  0  0
  190.2720  173.8530  136.8270 S   0  0  0  0  0  0  0  0  0  0  0  0
  189.0370  176.6120  140.2810 C   0  0  0  0  0  2  0  0  0  0  0  0
  189.5900  176.5690  138.8700 C   0  0  1  0  0  0  0  0  0  0  0  0
  184.4210  179.4910  137.9910 N   0  0  0  0  0  0  0  0  0  0  0  0
  189.2410  178.7600  139.4210 C   0  0  0  0  0  2  0  0  0  0  0  0
  184.1510  178.9080  141.5050 C   0  0  0  0  0  2  0  0  0  0  0  0
  189.0330  175.1810  136.6250 C   0  0  1  0  0  3  0  0  0  0  0  0
  188.5580  175.7970  137.9950 C   0  0  2  0  0  3  0  0  0  0  0  0
  186.1860  177.7980  136.2470 N   0  0  1  0  0  0  0  0  0  0  0  0
  184.6260  178.1630  138.0770 C   0  0  0  0  0  0  0  0  0  0  0  0
  184.2900  178.8410  140.0220 C   0  0  0  0  0  0  0  0  0  0  0  0
  188.3740  178.5260  141.7460 C   0  0  0  0  0  2  0  0  0  0  0  0
  184.9830  177.2920  136.9090 C   0  0  1  0  0  3  0  0  0  0  0  0
  187.4140  177.7520  142.6540 C   0  0  1  0  0  3  0  0  0  0  0  0
  187.3550  177.3730  136.9510 C   0  0  2  0  0  3  0  0  0  0  0  0
  188.0960  176.9700  134.9450 C   0  0  0  0  0  2  0  0  0  0  0  0
  191.5660  176.1640  137.7570 C   0  0  1  0  0  3  0  0  0  0  0  0
  184.5620  177.7090  139.3440 N   0  0  0  0  0  2  0  0  0  0  0  0
  189.3290  176.1490  135.4350 C   0  0  0  0  0  2  0  0  0  0  0  0
  190.8350  175.8950  138.9280 O   0  0  0  0  0  0  0  0  0  0  0  0
  188.3770  177.9490  140.3400 C   0  0  2  0  0  3  0  0  0  0  0  0
  186.9510  176.6660  135.7850 N   0  0  2  0  0  0  0  0  0  0  0  0
  183.8460  177.1920  135.9360 C   0  0  0  0  0  3  0  0  0  0  0  0
  182.6560  176.9170  136.3300 N   0  0  0  0  0  2  0  0  0  0  0  0
  187.4330  178.2610  143.9600 O   0  0  0  0  0  0  0  0  0  0  0  0
  187.9360  177.2240  144.7470 C   0  0  1  0  0  3  0  0  0  0  0  0
  191.2880  177.9990  142.6200 O   0  0  0  0  0  0  0  0  0  0  0  0
  189.2300  177.5380  146.9600 C   0  0  1  0  0  3  0  0  0  0  0  0
  189.3410  176.8470  144.2690 C   0  0  0  0  0  2  0  0  0  0  0  0
  190.3380  178.2230  146.1560 C   0  0  0  0  0  2  0  0  0  0  0  0
  190.3200  177.8250  144.7440 N   0  0  0  0  0  0  0  0  0  0  0  0
  191.2920  178.3550  143.8290 C   0  0  0  0  0  0  0  0  0  0  0  0
  187.8860  177.6380  146.2290 C   0  0  0  0  0  2  0  0  0  0  0  0
  192.3210  179.3350  144.2840 C   0  0  0  0  0  1  0  0  0  0  0  0
  190.9160  176.2120  147.5040 C   0  0  0  0  0  1  0  0  0  0  0  0
  189.5570  176.1980  147.1910 O   0  0  0  0  0  0  0  0  0  0  0  0
  1  2  1  0  0  0  0
  1 21  1  0  0  0  0
  4 18  2  0  0  0  0
  5 10  1  0  0  0  0
  5 12  1  0  0  0  0
  7 24  1  0  0  0  0
  8  7  1  0  0  0  0
  9 28  1  0  0  0  0
 10 27  1  0  0  0  0
 10  9  1  1  0  0  0
 11 17  2  0  0  0  0
 11  4  1  0  0  0  0
 12 28  1  0  0  0  0
 13  2  1  0  0  0  0
 14 26  1  6  0  0  0
 14  8  1  0  0  0  0
 14 15  1  0  0  0  0
 15  6  1  6  0  0  0
 15 10  1  0  0  0  0
 16 20  1  0  0  0  0
 16 22  1  0  0  0  0
 17 25  1  0  0  0  0
 18 13  1  0  0  0  0
 19 21  1  0  0  0  0
 20 17  1  0  0  0  0
 21 32  1  0  0  0  0
 22  6  1  0  0  0  0
 23 26  1  0  0  0  0
 23 29  1  0  0  0  0
 24  3  1  0  0  0  0
 24 27  1  0  0  0  0
 25 18  1  0  0  0  0
 28 19  1  0  0  0  0
 29 16  1  0  0  0  0
 29 22  1  0  0  0  0
 30 31  2  0  0  0  0
 30 20  1  0  0  0  0
 32 33  1  0  0  0  0
 33 40  1  0  0  0  0
 34 39  2  0  0  0  0
 35 43  1  0  0  0  0
 36 38  1  0  0  0  0
 36 33  1  0  0  0  0
 37 35  1  0  0  0  0
 38 37  1  0  0  0  0
 39 41  1  0  0  0  0
 39 38  1  0  0  0  0
 40 35  1  0  0  0  0
 43 42  1  0  0  0  0
M  END
>  <MODEL>
1

>  <REMARK>
 VINA RESULT:      -7.9      0.000      0.000
  Name = 
  4 active torsions:
  status: ('A' for Active; 'I' for Inactive)
    1  A    between atoms: C_1  and  O_6
    2  A    between atoms: O_6  and  C_31
    3  A    between atoms: C_8  and  C_30
    4  A    between atoms: C_14  and  O_40
                            x       y       z     vdW  Elec       q    Type
                         _______ _______ _______ _____ _____    ______ ____

>  <TORSDO>
F 4

$$$$
=
 OpenBabel10222418543D

 43 49  0  0  1  0  0  0  0  0999 V2000
  186.6010  177.8480  141.7490 O   0  0  0  0  0  0  0  0  0  0  0  0
  186.0530  179.1230  141.9660 C   0  0  0  0  0  2  0  0  0  0  0  0
  190.0820  176.3960  134.7360 C   0  0  0  0  0  1  0  0  0  0  0  0
  183.2700  179.7290  140.1660 N   0  0  0  0  0  0  0  0  0  0  0  0
  187.5410  177.5980  136.6290 O   0  0  0  0  0  0  0  0  0  0  0  0
  185.3440  176.0820  137.7990 O   0  0  0  0  0  0  0  0  0  0  0  0
  188.5970  174.4170  134.5990 C   0  0  0  0  0  2  0  0  0  0  0  0
  187.3620  173.3720  135.4580 S   0  0  0  0  0  0  0  0  0  0  0  0
  188.0760  176.5480  138.6940 C   0  0  0  0  0  2  0  0  0  0  0  0
  187.7550  176.3260  137.2290 C   0  0  1  0  0  0  0  0  0  0  0  0
  182.7910  179.1480  139.0800 N   0  0  0  0  0  0  0  0  0  0  0  0
  187.6300  178.5710  137.6430 C   0  0  0  0  0  2  0  0  0  0  0  0
  184.5530  179.0090  142.1840 C   0  0  0  0  0  2  0  0  0  0  0  0
  186.1370  174.6730  135.8420 C   0  0  1  0  0  3  0  0  0  0  0  0
  186.4630  175.4570  137.1680 C   0  0  2  0  0  3  0  0  0  0  0  0
  183.3970  177.2400  136.8400 N   0  0  1  0  0  0  0  0  0  0  0  0
  183.0940  177.8400  139.1780 C   0  0  0  0  0  0  0  0  0  0  0  0
  183.8510  178.7570  140.8940 C   0  0  0  0  0  0  0  0  0  0  0  0
  188.2150  178.6330  140.0650 C   0  0  0  0  0  2  0  0  0  0  0  0
  182.7990  176.8280  138.1120 C   0  0  1  0  0  3  0  0  0  0  0  0
  187.9720  177.9850  141.4310 C   0  0  1  0  0  3  0  0  0  0  0  0
  184.7850  176.8990  136.8120 C   0  0  2  0  0  3  0  0  0  0  0  0
  184.3130  176.2450  134.7920 C   0  0  0  0  0  2  0  0  0  0  0  0
  188.8030  175.7740  135.2540 C   0  0  1  0  0  3  0  0  0  0  0  0
  183.7730  177.5480  140.3040 N   0  0  0  0  0  2  0  0  0  0  0  0
  185.6610  175.4830  134.5940 C   0  0  0  0  0  2  0  0  0  0  0  0
  188.8640  175.6560  136.6540 O   0  0  0  0  0  0  0  0  0  0  0  0
  187.4750  177.8860  138.9690 C   0  0  2  0  0  3  0  0  0  0  0  0
  183.8480  176.0550  136.1540 N   0  0  2  0  0  0  0  0  0  0  0  0
  181.3220  176.6150  137.9560 C   0  0  0  0  0  3  0  0  0  0  0  0
  180.6030  176.2050  138.9370 N   0  0  0  0  0  2  0  0  0  0  0  0
  188.6800  178.6520  142.4400 O   0  0  0  0  0  0  0  0  0  0  0  0
  189.2120  177.6410  143.2420 C   0  0  1  0  0  3  0  0  0  0  0  0
  190.9540  176.5740  139.7520 O   0  0  0  0  0  0  0  0  0  0  0  0
  191.5160  177.7290  144.4020 C   0  0  1  0  0  3  0  0  0  0  0  0
  189.9670  176.6350  142.3700 C   0  0  0  0  0  2  0  0  0  0  0  0
  192.1590  177.7420  143.0130 C   0  0  0  0  0  2  0  0  0  0  0  0
  191.2750  177.1680  141.9920 N   0  0  0  0  0  0  0  0  0  0  0  0
  191.7060  177.0830  140.6240 C   0  0  0  0  0  0  0  0  0  0  0  0
  190.0830  178.2690  144.3440 C   0  0  0  0  0  2  0  0  0  0  0  0
  193.0440  177.5950  140.2070 C   0  0  0  0  0  1  0  0  0  0  0  0
  191.7560  176.6020  146.2930 C   0  0  0  0  0  1  0  0  0  0  0  0
  191.5250  176.4330  144.9270 O   0  0  0  0  0  0  0  0  0  0  0  0
  1  2  1  0  0  0  0
  2 13  1  0  0  0  0
  3 24  1  0  0  0  0
  4 18  2  0  0  0  0
  5 10  1  0  0  0  0
  5 12  1  0  0  0  0
  7 24  1  0  0  0  0
  7  8  1  0  0  0  0
  8 14  1  0  0  0  0
  9 28  1  0  0  0  0
 10  9  1  1  0  0  0
 11 17  2  0  0  0  0
 11  4  1  0  0  0  0
 12 28  1  0  0  0  0
 14 26  1  6  0  0  0
 14 15  1  0  0  0  0
 15 10  1  0  0  0  0
 15  6  1  6  0  0  0
 16 20  1  0  0  0  0
 17 25  1  0  0  0  0
 18 13  1  0  0  0  0
 19 21  1  0  0  0  0
 20 17  1  0  0  0  0
 21  1  1  0  0  0  0
 21 32  1  0  0  0  0
 22 16  1  0  0  0  0
 22  6  1  0  0  0  0
 23 29  1  0  0  0  0
 24 27  1  0  0  0  0
 25 18  1  0  0  0  0
 26 23  1  0  0  0  0
 27 10  1  0  0  0  0
 28 19  1  0  0  0  0
 29 22  1  0  0  0  0
 29 16  1  0  0  0  0
 30 20  1  0  0  0  0
 30 31  2  0  0  0  0
 32 33  1  0  0  0  0
 33 40  1  0  0  0  0
 34 39  2  0  0  0  0
 35 43  1  0  0  0  0
 36 33  1  0  0  0  0
 37 35  1  0  0  0  0
 38 36  1  0  0  0  0
 38 37  1  0  0  0  0
 39 38  1  0  0  0  0
 40 35  1  0  0  0  0
 41 39  1  0  0  0  0
 43 42  1  0  0  0  0
M  END
>  <MODEL>
2

>  <REMARK>
 VINA RESULT:      -7.3      1.912      2.746
  Name = 
  4 active torsions:
  status: ('A' for Active; 'I' for Inactive)
    1  A    between atoms: C_1  and  O_6
    2  A    between atoms: O_6  and  C_31
    3  A    between atoms: C_8  and  C_30
    4  A    between atoms: C_14  and  O_40
                            x       y       z     vdW  Elec       q    Type
                         _______ _______ _______ _____ _____    ______ ____

>  <TORSDO>
F 4

$$$$
=
 OpenBabel10222418543D

 43 49  0  0  1  0  0  0  0  0999 V2000
  186.3690  177.7560  142.0940 O   0  0  0  0  0  0  0  0  0  0  0  0
  185.8100  179.0450  142.1090 C   0  0  0  0  0  2  0  0  0  0  0  0
  192.9870  176.5780  137.8250 C   0  0  0  0  0  1  0  0  0  0  0  0
  184.3970  179.9470  139.1870 N   0  0  0  0  0  0  0  0  0  0  0  0
  189.8520  177.8020  138.2160 O   0  0  0  0  0  0  0  0  0  0  0  0
  187.3420  176.3500  137.9260 O   0  0  0  0  0  0  0  0  0  0  0  0
  191.7610  174.7100  136.7530 C   0  0  0  0  0  2  0  0  0  0  0  0
  190.2420  173.6870  136.7420 S   0  0  0  0  0  0  0  0  0  0  0  0
  189.2050  176.5810  140.1520 C   0  0  0  0  0  2  0  0  0  0  0  0
  189.6970  176.4810  138.7210 C   0  0  1  0  0  0  0  0  0  0  0  0
  184.5490  179.4740  137.9620 N   0  0  0  0  0  0  0  0  0  0  0  0
  189.4110  178.6950  139.2130 C   0  0  0  0  0  2  0  0  0  0  0  0
  184.4180  179.0100  141.5020 C   0  0  0  0  0  2  0  0  0  0  0  0
  189.0200  175.0330  136.5490 C   0  0  1  0  0  3  0  0  0  0  0  0
  188.6140  175.7010  137.9160 C   0  0  2  0  0  3  0  0  0  0  0  0
  186.2080  177.6910  136.2030 N   0  0  1  0  0  0  0  0  0  0  0  0
  184.7330  178.1450  138.0840 C   0  0  0  0  0  0  0  0  0  0  0  0
  184.4930  178.8930  140.0180 C   0  0  0  0  0  0  0  0  0  0  0  0
  188.6400  178.5530  141.5790 C   0  0  0  0  0  2  0  0  0  0  0  0
  185.0240  177.2300  136.9320 C   0  0  1  0  0  3  0  0  0  0  0  0
  187.7050  177.8280  142.5520 C   0  0  1  0  0  3  0  0  0  0  0  0
  187.3980  177.2660  136.8710 C   0  0  2  0  0  3  0  0  0  0  0  0
  188.0450  176.7840  134.8510 C   0  0  0  0  0  2  0  0  0  0  0  0
  191.6160  176.0020  137.5410 C   0  0  1  0  0  3  0  0  0  0  0  0
  184.7150  177.7340  139.3670 N   0  0  0  0  0  2  0  0  0  0  0  0
  189.2830  175.9550  135.3160 C   0  0  0  0  0  2  0  0  0  0  0  0
  190.9310  175.7850  138.7490 O   0  0  0  0  0  0  0  0  0  0  0  0
  188.5730  177.9310  140.1940 C   0  0  2  0  0  3  0  0  0  0  0  0
  186.9310  176.5300  135.7470 N   0  0  2  0  0  0  0  0  0  0  0  0
  183.8450  177.1210  136.0110 C   0  0  0  0  0  3  0  0  0  0  0  0
  183.9920  177.1650  134.7370 N   0  0  0  0  0  2  0  0  0  0  0  0
  187.7890  178.3790  143.8380 O   0  0  0  0  0  0  0  0  0  0  0  0
  186.6190  177.9760  144.4840 C   0  0  1  0  0  3  0  0  0  0  0  0
  189.2790  176.4040  147.0930 O   0  0  0  0  0  0  0  0  0  0  0  0
  185.4610  179.2690  146.3940 C   0  0  1  0  0  3  0  0  0  0  0  0
  186.9680  177.0530  145.6540 C   0  0  0  0  0  2  0  0  0  0  0  0
  186.6990  179.0050  147.2550 C   0  0  0  0  0  2  0  0  0  0  0  0
  187.4530  177.8340  146.7920 N   0  0  0  0  0  0  0  0  0  0  0  0
  188.6430  177.4190  147.4800 C   0  0  0  0  0  0  0  0  0  0  0  0
  185.8140  179.2180  144.9040 C   0  0  0  0  0  2  0  0  0  0  0  0
  189.1530  178.1780  148.6590 C   0  0  0  0  0  1  0  0  0  0  0  0
  183.4820  178.5470  145.7150 C   0  0  0  0  0  1  0  0  0  0  0  0
  184.4610  178.3380  146.6870 O   0  0  0  0  0  0  0  0  0  0  0  0
  1  2  1  0  0  0  0
  1 21  1  0  0  0  0
  4 18  2  0  0  0  0
  5 10  1  0  0  0  0
  5 12  1  0  0  0  0
  7 24  1  0  0  0  0
  8  7  1  0  0  0  0
  9 28  1  0  0  0  0
 10 27  1  0  0  0  0
 10  9  1  1  0  0  0
 11 17  2  0  0  0  0
 11  4  1  0  0  0  0
 12 28  1  0  0  0  0
 13  2  1  0  0  0  0
 14 26  1  6  0  0  0
 14  8  1  0  0  0  0
 14 15  1  0  0  0  0
 15  6  1  6  0  0  0
 15 10  1  0  0  0  0
 16 22  1  0  0  0  0
 16 20  1  0  0  0  0
 17 25  1  0  0  0  0
 18 13  1  0  0  0  0
 19 21  1  0  0  0  0
 20 17  1  0  0  0  0
 21 32  1  0  0  0  0
 22  6  1  0  0  0  0
 23 26  1  0  0  0  0
 23 29  1  0  0  0  0
 24  3  1  0  0  0  0
 24 27  1  0  0  0  0
 25 18  1  0  0  0  0
 28 19  1  0  0  0  0
 29 16  1  0  0  0  0
 29 22  1  0  0  0  0
 30 20  1  0  0  0  0
 31 30  2  0  0  0  0
 32 33  1  0  0  0  0
 33 40  1  0  0  0  0
 33 36  1  0  0  0  0
 34 39  2  0  0  0  0
 35 43  1  0  0  0  0
 35 37  1  0  0  0  0
 36 38  1  0  0  0  0
 38 37  1  0  0  0  0
 38 39  1  0  0  0  0
 39 41  1  0  0  0  0
 40 35  1  0  0  0  0
 42 43  1  0  0  0  0
M  END
>  <MODEL>
3

>  <REMARK>
 VINA RESULT:      -6.9      1.434      2.375
  Name = 
  4 active torsions:
  status: ('A' for Active; 'I' for Inactive)
    1  A    between atoms: C_1  and  O_6
    2  A    between atoms: O_6  and  C_31
    3  A    between atoms: C_8  and  C_30
    4  A    between atoms: C_14  and  O_40
                            x       y       z     vdW  Elec       q    Type
                         _______ _______ _______ _____ _____    ______ ____

>  <TORSDO>
F 4

$$$$
=
 OpenBabel10222418543D

 43 49  0  0  1  0  0  0  0  0999 V2000
  183.7870  178.1570  143.2260 O   0  0  0  0  0  0  0  0  0  0  0  0
  182.9740  179.2330  143.6210 C   0  0  0  0  0  2  0  0  0  0  0  0
  187.9630  178.8770  136.4840 C   0  0  0  0  0  1  0  0  0  0  0  0
  180.2560  179.6670  141.6780 N   0  0  0  0  0  0  0  0  0  0  0  0
  185.1060  179.1600  138.2840 O   0  0  0  0  0  0  0  0  0  0  0  0
  183.1930  177.0490  138.9000 O   0  0  0  0  0  0  0  0  0  0  0  0
  186.9290  176.7270  135.8130 C   0  0  0  0  0  2  0  0  0  0  0  0
  185.8800  175.3130  136.3180 S   0  0  0  0  0  0  0  0  0  0  0  0
  185.7030  177.8220  140.1580 C   0  0  0  0  0  2  0  0  0  0  0  0
  185.5350  177.8540  138.6520 C   0  0  1  0  0  0  0  0  0  0  0  0
  179.9820  179.2460  140.4560 N   0  0  0  0  0  0  0  0  0  0  0  0
  184.9230  179.8990  139.4690 C   0  0  0  0  0  2  0  0  0  0  0  0
  181.5190  178.7970  143.6500 C   0  0  0  0  0  2  0  0  0  0  0  0
  184.3900  176.2520  136.8080 C   0  0  1  0  0  3  0  0  0  0  0  0
  184.4560  176.7900  138.2860 C   0  0  2  0  0  3  0  0  0  0  0  0
  181.1190  177.9940  137.9730 N   0  0  1  0  0  0  0  0  0  0  0  0
  180.5410  178.0260  140.3360 C   0  0  0  0  0  0  0  0  0  0  0  0
  180.9730  178.6920  142.2660 C   0  0  0  0  0  0  0  0  0  0  0  0
  185.3160  179.5640  141.9070 C   0  0  0  0  0  2  0  0  0  0  0  0
  180.5330  177.2220  139.0700 C   0  0  1  0  0  3  0  0  0  0  0  0
  185.1190  178.6120  143.0910 C   0  0  1  0  0  3  0  0  0  0  0  0
  182.5460  177.9330  138.0310 C   0  0  2  0  0  3  0  0  0  0  0  0
  182.3580  177.6370  135.8840 C   0  0  0  0  0  2  0  0  0  0  0  0
  186.8070  177.9310  136.7330 C   0  0  1  0  0  3  0  0  0  0  0  0
  181.1860  177.6390  141.4530 N   0  0  0  0  0  2  0  0  0  0  0  0
  183.8440  177.2000  135.6930 C   0  0  0  0  0  2  0  0  0  0  0  0
  186.7940  177.5390  138.0820 O   0  0  0  0  0  0  0  0  0  0  0  0
  184.8220  178.9360  140.6150 C   0  0  2  0  0  3  0  0  0  0  0  0
  181.8500  177.0840  137.1270 N   0  0  2  0  0  0  0  0  0  0  0  0
  179.1460  176.7720  138.7180 C   0  0  0  0  0  3  0  0  0  0  0  0
  178.9310  175.6100  138.2200 N   0  0  0  0  0  2  0  0  0  0  0  0
  185.6030  179.1760  144.2790 O   0  0  0  0  0  0  0  0  0  0  0  0
  185.9320  178.0880  145.0900 C   0  0  1  0  0  3  0  0  0  0  0  0
  188.6330  177.4410  142.1510 O   0  0  0  0  0  0  0  0  0  0  0  0
  187.8100  178.0760  146.8620 C   0  0  1  0  0  3  0  0  0  0  0  0
  186.9460  177.1950  144.3710 C   0  0  0  0  0  2  0  0  0  0  0  0
  188.8170  178.2530  145.7220 C   0  0  0  0  0  2  0  0  0  0  0  0
  188.2830  177.7860  144.4380 N   0  0  0  0  0  0  0  0  0  0  0  0
  189.0860  177.8600  143.2490 C   0  0  0  0  0  0  0  0  0  0  0  0
  186.4280  178.6010  146.4530 C   0  0  0  0  0  2  0  0  0  0  0  0
  190.4620  178.4330  143.2860 C   0  0  0  0  0  1  0  0  0  0  0  0
  189.0000  176.4130  147.7090 C   0  0  0  0  0  1  0  0  0  0  0  0
  187.7280  176.7300  147.2300 O   0  0  0  0  0  0  0  0  0  0  0  0
  1  2  1  0  0  0  0
  2 13  1  0  0  0  0
  3 24  1  0  0  0  0
  4 18  2  0  0  0  0
  5 10  1  0  0  0  0
  5 12  1  0  0  0  0
  7  8  1  0  0  0  0
  7 24  1  0  0  0  0
  8 14  1  0  0  0  0
  9 28  1  0  0  0  0
 10  9  1  1  0  0  0
 11  4  1  0  0  0  0
 12 28  1  0  0  0  0
 14 26  1  6  0  0  0
 14 15  1  0  0  0  0
 15 10  1  0  0  0  0
 15  6  1  6  0  0  0
 16 22  1  0  0  0  0
 16 20  1  0  0  0  0
 17 11  2  0  0  0  0
 17 25  1  0  0  0  0
 18 13  1  0  0  0  0
 19 21  1  0  0  0  0
 20 17  1  0  0  0  0
 21  1  1  0  0  0  0
 21 32  1  0  0  0  0
 22  6  1  0  0  0  0
 23 29  1  0  0  0  0
 24 27  1  0  0  0  0
 25 18  1  0  0  0  0
 26 23  1  0  0  0  0
 27 10  1  0  0  0  0
 28 19  1  0  0  0  0
 29 16  1  0  0  0  0
 29 22  1  0  0  0  0
 30 20  1  0  0  0  0
 31 30  2  0  0  0  0
 32 33  1  0  0  0  0
 33 40  1  0  0  0  0
 34 39  2  0  0  0  0
 35 43  1  0  0  0  0
 36 38  1  0  0  0  0
 36 33  1  0  0  0  0
 37 35  1  0  0  0  0
 38 37  1  0  0  0  0
 39 41  1  0  0  0  0
 39 38  1  0  0  0  0
 40 35  1  0  0  0  0
 43 42  1  0  0  0  0
M  END
>  <MODEL>
4

>  <REMARK>
 VINA RESULT:      -6.6      2.827      4.012
  Name = 
  4 active torsions:
  status: ('A' for Active; 'I' for Inactive)
    1  A    between atoms: C_1  and  O_6
    2  A    between atoms: O_6  and  C_31
    3  A    between atoms: C_8  and  C_30
    4  A    between atoms: C_14  and  O_40
                            x       y       z     vdW  Elec       q    Type
                         _______ _______ _______ _____ _____    ______ ____

>  <TORSDO>
F 4

$$$$
=
 OpenBabel10222418543D

 43 49  0  0  1  0  0  0  0  0999 V2000
  186.9600  178.0260  141.6100 O   0  0  0  0  0  0  0  0  0  0  0  0
  186.3900  179.3090  141.6780 C   0  0  0  0  0  2  0  0  0  0  0  0
  191.1030  176.0900  135.0910 C   0  0  0  0  0  1  0  0  0  0  0  0
  183.7930  179.7550  139.5780 N   0  0  0  0  0  0  0  0  0  0  0  0
  188.3890  177.4060  136.6360 O   0  0  0  0  0  0  0  0  0  0  0  0
  186.0920  175.9620  137.7000 O   0  0  0  0  0  0  0  0  0  0  0  0
  189.6410  174.0930  134.9600 C   0  0  0  0  0  2  0  0  0  0  0  0
  188.3310  173.1030  135.7720 S   0  0  0  0  0  0  0  0  0  0  0  0
  188.7240  176.5170  138.8160 C   0  0  0  0  0  2  0  0  0  0  0  0
  188.5460  176.1840  137.3480 C   0  0  1  0  0  0  0  0  0  0  0  0
  183.4220  179.0920  138.4970 N   0  0  0  0  0  0  0  0  0  0  0  0
  188.3780  178.4520  137.5790 C   0  0  0  0  0  2  0  0  0  0  0  0
  184.8770  179.1980  141.7580 C   0  0  0  0  0  2  0  0  0  0  0  0
  187.0720  174.4190  135.9380 C   0  0  1  0  0  3  0  0  0  0  0  0
  187.2680  175.3020  137.2280 C   0  0  2  0  0  3  0  0  0  0  0  0
  184.2440  177.0280  136.4750 N   0  0  1  0  0  0  0  0  0  0  0  0
  183.7170  177.7970  138.7220 C   0  0  0  0  0  0  0  0  0  0  0  0
  184.3030  178.8450  140.4280 C   0  0  0  0  0  0  0  0  0  0  0  0
  188.7270  178.6980  140.0350 C   0  0  0  0  0  2  0  0  0  0  0  0
  183.5270  176.7060  137.7100 C   0  0  1  0  0  3  0  0  0  0  0  0
  188.3540  178.1510  141.4160 C   0  0  1  0  0  3  0  0  0  0  0  0
  185.6290  176.6980  136.6060 C   0  0  2  0  0  3  0  0  0  0  0  0
  185.3560  175.8920  134.6040 C   0  0  0  0  0  2  0  0  0  0  0  0
  189.7810  175.4960  135.5290 C   0  0  1  0  0  3  0  0  0  0  0  0
  184.2850  177.5950  139.9260 N   0  0  0  0  0  2  0  0  0  0  0  0
  186.7170  175.1290  134.5940 C   0  0  0  0  0  2  0  0  0  0  0  0
  189.7060  175.4830  136.9330 O   0  0  0  0  0  0  0  0  0  0  0  0
  188.0980  177.8650  138.9310 C   0  0  2  0  0  3  0  0  0  0  0  0
  184.7620  175.7990  135.9260 N   0  0  2  0  0  0  0  0  0  0  0  0
  182.0730  176.4690  137.4300 C   0  0  0  0  0  3  0  0  0  0  0  0
  181.5560  175.3000  137.5420 N   0  0  0  0  0  2  0  0  0  0  0  0
  188.9600  178.8980  142.4350 O   0  0  0  0  0  0  0  0  0  0  0  0
  190.1930  178.2800  142.6550 C   0  0  1  0  0  3  0  0  0  0  0  0
  189.2110  178.9790  146.5160 O   0  0  0  0  0  0  0  0  0  0  0  0
  190.5220  175.7690  143.1600 C   0  0  1  0  0  3  0  0  0  0  0  0
  190.5590  178.3710  144.1390 C   0  0  0  0  0  2  0  0  0  0  0  0
  189.7580  175.9850  144.4700 C   0  0  0  0  0  2  0  0  0  0  0  0
  189.8060  177.3830  144.9110 N   0  0  0  0  0  0  0  0  0  0  0  0
  189.1550  177.7820  146.1280 C   0  0  0  0  0  0  0  0  0  0  0  0
  190.1410  176.8350  142.1270 C   0  0  0  0  0  2  0  0  0  0  0  0
  188.3990  176.7960  146.9530 C   0  0  0  0  0  1  0  0  0  0  0  0
  192.1000  174.8850  144.4360 C   0  0  0  0  0  1  0  0  0  0  0  0
  191.9000  175.7920  143.3950 O   0  0  0  0  0  0  0  0  0  0  0  0
  1  2  1  0  0  0  0
  2 13  1  0  0  0  0
  3 24  1  0  0  0  0
  4 18  2  0  0  0  0
  5 10  1  0  0  0  0
  5 12  1  0  0  0  0
  7 24  1  0  0  0  0
  7  8  1  0  0  0  0
  8 14  1  0  0  0  0
  9 28  1  0  0  0  0
 10  9  1  1  0  0  0
 11 17  2  0  0  0  0
 11  4  1  0  0  0  0
 12 28  1  0  0  0  0
 14 26  1  6  0  0  0
 14 15  1  0  0  0  0
 15 10  1  0  0  0  0
 15  6  1  6  0  0  0
 16 22  1  0  0  0  0
 16 20  1  0  0  0  0
 17 25  1  0  0  0  0
 18 13  1  0  0  0  0
 19 21  1  0  0  0  0
 20 17  1  0  0  0  0
 21  1  1  0  0  0  0
 21 32  1  0  0  0  0
 22  6  1  0  0  0  0
 23 29  1  0  0  0  0
 24 27  1  0  0  0  0
 25 18  1  0  0  0  0
 26 23  1  0  0  0  0
 27 10  1  0  0  0  0
 28 19  1  0  0  0  0
 29 16  1  0  0  0  0
 29 22  1  0  0  0  0
 30 31  2  0  0  0  0
 30 20  1  0  0  0  0
 32 33  1  0  0  0  0
 33 36  1  0  0  0  0
 35 43  1  0  0  0  0
 35 37  1  0  0  0  0
 36 38  1  0  0  0  0
 37 38  1  0  0  0  0
 38 39  1  0  0  0  0
 39 34  2  0  0  0  0
 39 41  1  0  0  0  0
 40 33  1  0  0  0  0
 40 35  1  0  0  0  0
 43 42  1  0  0  0  0
M  END
>  <MODEL>
5

>  <REMARK>
 VINA RESULT:      -6.1      1.712      2.586
  Name = 
  4 active torsions:
  status: ('A' for Active; 'I' for Inactive)
    1  A    between atoms: C_1  and  O_6
    2  A    between atoms: O_6  and  C_31
    3  A    between atoms: C_8  and  C_30
    4  A    between atoms: C_14  and  O_40
                            x       y       z     vdW  Elec       q    Type
                         _______ _______ _______ _____ _____    ______ ____

>  <TORSDO>
F 4

$$$$
=
 OpenBabel10222418543D

 43 49  0  0  1  0  0  0  0  0999 V2000
  184.4410  177.0820  139.2810 O   0  0  0  0  0  0  0  0  0  0  0  0
  184.5730  178.0030  138.2280 C   0  0  0  0  0  2  0  0  0  0  0  0
  185.6340  179.6730  146.7160 C   0  0  0  0  0  1  0  0  0  0  0  0
  187.7500  178.9700  137.6590 N   0  0  0  0  0  0  0  0  0  0  0  0
  186.5020  179.4380  143.4490 O   0  0  0  0  0  0  0  0  0  0  0  0
  187.9100  177.2410  142.1520 O   0  0  0  0  0  0  0  0  0  0  0  0
  187.2430  177.8010  146.9300 C   0  0  0  0  0  2  0  0  0  0  0  0
  187.9550  176.3030  146.1540 S   0  0  0  0  0  0  0  0  0  0  0  0
  185.1000  177.6260  142.8120 C   0  0  0  0  0  2  0  0  0  0  0  0
  186.1990  178.0810  143.7520 C   0  0  1  0  0  0  0  0  0  0  0  0
  188.8290  178.9110  138.4200 N   0  0  0  0  0  0  0  0  0  0  0  0
  185.7210  179.8130  142.3380 C   0  0  0  0  0  2  0  0  0  0  0  0
  185.7060  177.5770  137.3100 C   0  0  0  0  0  2  0  0  0  0  0  0
  188.5480  177.0670  144.6030 C   0  0  1  0  0  3  0  0  0  0  0  0
  187.4320  177.1650  143.4960 C   0  0  2  0  0  3  0  0  0  0  0  0
  189.8530  178.4110  141.1990 N   0  0  1  0  0  0  0  0  0  0  0  0
  188.7310  177.7750  139.1370 C   0  0  0  0  0  0  0  0  0  0  0  0
  187.0280  177.8680  137.9340 C   0  0  0  0  0  0  0  0  0  0  0  0
  183.9080  178.8030  140.9580 C   0  0  0  0  0  2  0  0  0  0  0  0
  189.7170  177.3600  140.1890 C   0  0  1  0  0  3  0  0  0  0  0  0
  183.4650  177.5550  140.1880 C   0  0  1  0  0  3  0  0  0  0  0  0
  188.7800  178.3350  142.1410 C   0  0  2  0  0  3  0  0  0  0  0  0
  190.3740  178.6570  143.5860 C   0  0  0  0  0  2  0  0  0  0  0  0
  186.5020  178.6960  145.9510 C   0  0  1  0  0  3  0  0  0  0  0  0
  187.6040  177.0880  138.8690 N   0  0  0  0  0  2  0  0  0  0  0  0
  189.4940  178.2910  144.8210 C   0  0  0  0  0  2  0  0  0  0  0  0
  185.7060  177.9390  145.0740 O   0  0  0  0  0  0  0  0  0  0  0  0
  185.2330  178.5660  141.6620 C   0  0  2  0  0  3  0  0  0  0  0  0
  190.0430  177.7760  142.4800 N   0  0  2  0  0  0  0  0  0  0  0  0
  191.0500  177.0300  139.5870 C   0  0  0  0  0  3  0  0  0  0  0  0
  191.1420  176.3080  138.5310 N   0  0  0  0  0  2  0  0  0  0  0  0
  182.2270  177.7610  139.5640 O   0  0  0  0  0  0  0  0  0  0  0  0
  181.6570  178.8460  140.2340 C   0  0  1  0  0  3  0  0  0  0  0  0
  181.2170  180.2160  136.4550 O   0  0  0  0  0  0  0  0  0  0  0  0
  179.1320  179.1550  140.6740 C   0  0  1  0  0  3  0  0  0  0  0  0
  181.3680  179.9720  139.2390 C   0  0  0  0  0  2  0  0  0  0  0  0
  178.9330  179.2600  139.1600 C   0  0  0  0  0  2  0  0  0  0  0  0
  180.1590  179.6760  138.4710 N   0  0  0  0  0  0  0  0  0  0  0  0
  180.1690  179.8420  137.0440 C   0  0  0  0  0  0  0  0  0  0  0  0
  180.4100  178.3730  141.0010 C   0  0  0  0  0  2  0  0  0  0  0  0
  178.9470  179.5730  136.2320 C   0  0  0  0  0  1  0  0  0  0  0  0
  179.3750  180.2020  142.6090 C   0  0  0  0  0  1  0  0  0  0  0  0
  179.1850  180.4300  141.2460 O   0  0  0  0  0  0  0  0  0  0  0  0
  1 21  1  0  0  0  0
  2  1  1  0  0  0  0
  4 18  2  0  0  0  0
  4 11  1  0  0  0  0
  5 10  1  0  0  0  0
  8  7  1  0  0  0  0
 10  9  1  6  0  0  0
 10 27  1  0  0  0  0
 11 17  2  0  0  0  0
 12  5  1  0  0  0  0
 13 18  1  0  0  0  0
 13  2  1  0  0  0  0
 14 26  1  1  0  0  0
 14  8  1  0  0  0  0
 15  6  1  6  0  0  0
 15 10  1  0  0  0  0
 15 14  1  0  0  0  0
 16 22  1  0  0  0  0
 16 29  1  0  0  0  0
 17 20  1  0  0  0  0
 18 25  1  0  0  0  0
 19 28  1  0  0  0  0
 20 16  1  0  0  0  0
 21 19  1  0  0  0  0
 22  6  1  0  0  0  0
 22 29  1  0  0  0  0
 23 26  1  0  0  0  0
 24  3  1  0  0  0  0
 24  7  1  0  0  0  0
 25 17  1  0  0  0  0
 27 24  1  0  0  0  0
 28 12  1  0  0  0  0
 28  9  1  0  0  0  0
 29 23  1  0  0  0  0
 30 20  1  0  0  0  0
 31 30  2  0  0  0  0
 32 21  1  0  0  0  0
 32 33  1  0  0  0  0
 33 40  1  0  0  0  0
 34 39  2  0  0  0  0
 35 40  1  0  0  0  0
 35 43  1  0  0  0  0
 36 33  1  0  0  0  0
 37 35  1  0  0  0  0
 38 37  1  0  0  0  0
 38 36  1  0  0  0  0
 39 38  1  0  0  0  0
 41 39  1  0  0  0  0
 43 42  1  0  0  0  0
M  END
>  <MODEL>
6

>  <REMARK>
 VINA RESULT:      -5.7      3.540      8.466
  Name = 
  4 active torsions:
  status: ('A' for Active; 'I' for Inactive)
    1  A    between atoms: C_1  and  O_6
    2  A    between atoms: O_6  and  C_31
    3  A    between atoms: C_8  and  C_30
    4  A    between atoms: C_14  and  O_40
                            x       y       z     vdW  Elec       q    Type
                         _______ _______ _______ _____ _____    ______ ____

>  <TORSDO>
F 4

$$$$
=
 OpenBabel10222418543D

 43 49  0  0  1  0  0  0  0  0999 V2000
  184.4490  177.1400  138.8840 O   0  0  0  0  0  0  0  0  0  0  0  0
  184.6610  178.0500  137.8340 C   0  0  0  0  0  2  0  0  0  0  0  0
  185.3210  179.7550  146.3550 C   0  0  0  0  0  1  0  0  0  0  0  0
  187.8890  178.9260  137.4260 N   0  0  0  0  0  0  0  0  0  0  0  0
  186.3530  179.4710  143.1390 O   0  0  0  0  0  0  0  0  0  0  0  0
  187.7660  177.2270  141.9320 O   0  0  0  0  0  0  0  0  0  0  0  0
  186.8650  177.8410  146.6650 C   0  0  0  0  0  2  0  0  0  0  0  0
  187.5760  176.3180  145.9370 S   0  0  0  0  0  0  0  0  0  0  0  0
  184.9370  177.6930  142.4410 C   0  0  0  0  0  2  0  0  0  0  0  0
  185.9970  178.1250  143.4340 C   0  0  1  0  0  0  0  0  0  0  0  0
  188.9240  178.8440  138.2430 N   0  0  0  0  0  0  0  0  0  0  0  0
  185.6420  179.8580  141.9860 C   0  0  0  0  0  2  0  0  0  0  0  0
  185.8280  177.5860  136.9790 C   0  0  0  0  0  2  0  0  0  0  0  0
  188.2700  177.0540  144.4140 C   0  0  1  0  0  3  0  0  0  0  0  0
  187.2170  177.1740  143.2490 C   0  0  2  0  0  3  0  0  0  0  0  0
  189.7880  178.3370  141.0750 N   0  0  1  0  0  0  0  0  0  0  0  0
  188.7580  177.7160  138.9600 C   0  0  0  0  0  0  0  0  0  0  0  0
  187.1240  177.8460  137.6700 C   0  0  0  0  0  0  0  0  0  0  0  0
  183.8760  178.8880  140.5200 C   0  0  0  0  0  2  0  0  0  0  0  0
  189.6760  177.2830  140.0650 C   0  0  1  0  0  3  0  0  0  0  0  0
  183.4400  177.6470  139.7350 C   0  0  1  0  0  3  0  0  0  0  0  0
  188.6650  178.2970  141.9600 C   0  0  2  0  0  3  0  0  0  0  0  0
  190.1900  178.5870  143.4840 C   0  0  0  0  0  2  0  0  0  0  0  0
  186.2010  178.7490  145.6420 C   0  0  1  0  0  3  0  0  0  0  0  0
  187.6280  177.0570  138.6390 N   0  0  0  0  0  2  0  0  0  0  0  0
  189.2360  178.2540  144.6740 C   0  0  0  0  0  2  0  0  0  0  0  0
  185.4320  178.0070  144.7290 O   0  0  0  0  0  0  0  0  0  0  0  0
  185.1560  178.6200  141.2940 C   0  0  2  0  0  3  0  0  0  0  0  0
  189.8930  177.7060  142.3680 N   0  0  2  0  0  0  0  0  0  0  0  0
  191.0290  176.9110  139.5360 C   0  0  0  0  0  3  0  0  0  0  0  0
  191.1840  175.9090  138.7510 N   0  0  0  0  0  2  0  0  0  0  0  0
  182.2420  177.8810  139.0460 O   0  0  0  0  0  0  0  0  0  0  0  0
  181.2420  177.3590  139.8680 C   0  0  1  0  0  3  0  0  0  0  0  0
  178.9440  178.2130  136.6510 O   0  0  0  0  0  0  0  0  0  0  0  0
  180.4280  174.9090  139.8390 C   0  0  1  0  0  3  0  0  0  0  0  0
  179.8750  177.5590  139.2090 C   0  0  0  0  0  2  0  0  0  0  0  0
  179.9190  175.1490  138.4150 C   0  0  0  0  0  2  0  0  0  0  0  0
  179.6690  176.5700  138.1520 N   0  0  0  0  0  0  0  0  0  0  0  0
  179.1760  176.9940  136.8710 C   0  0  0  0  0  0  0  0  0  0  0  0
  181.5580  175.8860  140.1840 C   0  0  0  0  0  2  0  0  0  0  0  0
  178.9310  176.0100  135.7770 C   0  0  0  0  0  1  0  0  0  0  0  0
  179.2490  173.7690  141.3250 C   0  0  0  0  0  1  0  0  0  0  0  0
  179.3810  175.0360  140.7550 O   0  0  0  0  0  0  0  0  0  0  0  0
  1 21  1  0  0  0  0
  2  1  1  0  0  0  0
  4 18  2  0  0  0  0
  4 11  1  0  0  0  0
  5 10  1  0  0  0  0
  6 22  1  0  0  0  0
  8  7  1  0  0  0  0
 10  9  1  6  0  0  0
 10 27  1  0  0  0  0
 11 17  2  0  0  0  0
 12  5  1  0  0  0  0
 13 18  1  0  0  0  0
 13  2  1  0  0  0  0
 14 26  1  1  0  0  0
 14  8  1  0  0  0  0
 15  6  1  6  0  0  0
 15 10  1  0  0  0  0
 15 14  1  0  0  0  0
 16 22  1  0  0  0  0
 16 29  1  0  0  0  0
 17 20  1  0  0  0  0
 18 25  1  0  0  0  0
 19 28  1  0  0  0  0
 20 16  1  0  0  0  0
 21 19  1  0  0  0  0
 22 29  1  0  0  0  0
 23 26  1  0  0  0  0
 24  3  1  0  0  0  0
 24  7  1  0  0  0  0
 25 17  1  0  0  0  0
 27 24  1  0  0  0  0
 28 12  1  0  0  0  0
 28  9  1  0  0  0  0
 29 23  1  0  0  0  0
 30 20  1  0  0  0  0
 31 30  2  0  0  0  0
 32 21  1  0  0  0  0
 32 33  1  0  0  0  0
 33 40  1  0  0  0  0
 34 39  2  0  0  0  0
 35 40  1  0  0  0  0
 35 43  1  0  0  0  0
 36 33  1  0  0  0  0
 37 35  1  0  0  0  0
 38 37  1  0  0  0  0
 38 36  1  0  0  0  0
 39 38  1  0  0  0  0
 41 39  1  0  0  0  0
 43 42  1  0  0  0  0
M  END
>  <MODEL>
7

>  <REMARK>
 VINA RESULT:      -5.7      3.727      8.592
  Name = 
  4 active torsions:
  status: ('A' for Active; 'I' for Inactive)
    1  A    between atoms: C_1  and  O_6
    2  A    between atoms: O_6  and  C_31
    3  A    between atoms: C_8  and  C_30
    4  A    between atoms: C_14  and  O_40
                            x       y       z     vdW  Elec       q    Type
                         _______ _______ _______ _____ _____    ______ ____

>  <TORSDO>
F 4

$$$$
=
 OpenBabel10222418543D

 43 49  0  0  1  0  0  0  0  0999 V2000
  187.8290  176.6920  138.3370 O   0  0  0  0  0  0  0  0  0  0  0  0
  188.9050  177.5690  138.5570 C   0  0  0  0  0  2  0  0  0  0  0  0
  180.5410  179.8040  137.5570 C   0  0  0  0  0  1  0  0  0  0  0  0
  188.8990  178.9840  141.6140 N   0  0  0  0  0  0  0  0  0  0  0  0
  183.5360  179.5430  139.1190 O   0  0  0  0  0  0  0  0  0  0  0  0
  184.3410  177.5270  141.0640 O   0  0  0  0  0  0  0  0  0  0  0  0
  179.8560  178.2150  139.3310 C   0  0  0  0  0  2  0  0  0  0  0  0
  180.3490  176.8080  140.3950 S   0  0  0  0  0  0  0  0  0  0  0  0
  184.2930  177.5060  138.1520 C   0  0  0  0  0  2  0  0  0  0  0  0
  183.1920  178.1720  138.9530 C   0  0  1  0  0  0  0  0  0  0  0  0
  187.9340  179.1310  142.5060 N   0  0  0  0  0  0  0  0  0  0  0  0
  184.8080  179.7360  138.5460 C   0  0  0  0  0  2  0  0  0  0  0  0
  189.5390  177.2780  139.9070 C   0  0  0  0  0  2  0  0  0  0  0  0
  181.8060  177.5760  141.1890 C   0  0  1  0  0  3  0  0  0  0  0  0
  183.1190  177.4450  140.3290 C   0  0  2  0  0  3  0  0  0  0  0  0
  184.9740  178.9340  142.9810 N   0  0  1  0  0  0  0  0  0  0  0  0
  187.1630  178.0300  142.4200 C   0  0  0  0  0  0  0  0  0  0  0  0
  188.6870  177.8000  141.0130 C   0  0  0  0  0  0  0  0  0  0  0  0
  186.4380  178.3920  137.2250 C   0  0  0  0  0  2  0  0  0  0  0  0
  185.9040  177.8250  143.2090 C   0  0  1  0  0  3  0  0  0  0  0  0
  187.1790  177.0540  137.1350 C   0  0  1  0  0  3  0  0  0  0  0  0
  184.2650  178.7400  141.7540 C   0  0  2  0  0  3  0  0  0  0  0  0
  182.5600  179.3760  142.9460 C   0  0  0  0  0  2  0  0  0  0  0  0
  181.0340  178.9360  138.6950 C   0  0  1  0  0  3  0  0  0  0  0  0
  187.5950  177.1650  141.4830 N   0  0  0  0  0  2  0  0  0  0  0  0
  181.5020  178.9400  141.8850 C   0  0  0  0  0  2  0  0  0  0  0  0
  181.9890  178.0220  138.2180 O   0  0  0  0  0  0  0  0  0  0  0  0
  185.4650  178.3970  138.3920 C   0  0  2  0  0  3  0  0  0  0  0  0
  183.6350  178.4000  142.9830 N   0  0  2  0  0  0  0  0  0  0  0  0
  186.1960  177.6750  144.6730 C   0  0  0  0  0  3  0  0  0  0  0  0
  186.0050  178.6440  145.4920 N   0  0  0  0  0  2  0  0  0  0  0  0
  188.0530  177.0340  136.0400 O   0  0  0  0  0  0  0  0  0  0  0  0
  187.8050  175.8200  135.3970 C   0  0  1  0  0  3  0  0  0  0  0  0
  191.8440  175.6350  135.4160 O   0  0  0  0  0  0  0  0  0  0  0  0
  187.6630  173.5250  136.5720 C   0  0  1  0  0  3  0  0  0  0  0  0
  189.1240  175.2120  134.9140 C   0  0  0  0  0  2  0  0  0  0  0  0
  189.1420  173.6770  136.9350 C   0  0  0  0  0  2  0  0  0  0  0  0
  189.8400  174.5960  136.0300 N   0  0  0  0  0  0  0  0  0  0  0  0
  191.2420  174.8600  136.2040 C   0  0  0  0  0  0  0  0  0  0  0  0
  187.0160  174.8960  136.3420 C   0  0  0  0  0  2  0  0  0  0  0  0
  192.0100  174.2300  137.3170 C   0  0  0  0  0  1  0  0  0  0  0  0
  187.9700  171.4640  135.8250 C   0  0  0  0  0  1  0  0  0  0  0  0
  187.5240  172.7270  135.4330 O   0  0  0  0  0  0  0  0  0  0  0  0
  1  2  1  0  0  0  0
  2 13  1  0  0  0  0
  3 24  1  0  0  0  0
  4 11  1  0  0  0  0
  6 22  1  0  0  0  0
  7  8  1  0  0  0  0
  8 14  1  0  0  0  0
  9 28  1  0  0  0  0
 10  9  1  6  0  0  0
 10  5  1  0  0  0  0
 10 15  1  0  0  0  0
 12  5  1  0  0  0  0
 13 18  1  0  0  0  0
 14 26  1  6  0  0  0
 15  6  1  1  0  0  0
 15 14  1  0  0  0  0
 16 29  1  0  0  0  0
 16 20  1  0  0  0  0
 17 11  2  0  0  0  0
 17 20  1  0  0  0  0
 18 25  1  0  0  0  0
 18  4  2  0  0  0  0
 19 28  1  0  0  0  0
 20 30  1  0  0  0  0
 21 19  1  0  0  0  0
 21  1  1  0  0  0  0
 22 16  1  0  0  0  0
 22 29  1  0  0  0  0
 23 29  1  0  0  0  0
 24  7  1  0  0  0  0
 25 17  1  0  0  0  0
 26 23  1  0  0  0  0
 27 24  1  0  0  0  0
 27 10  1  0  0  0  0
 28 12  1  0  0  0  0
 30 31  2  0  0  0  0
 32 21  1  0  0  0  0
 33 32  1  0  0  0  0
 33 40  1  0  0  0  0
 34 39  2  0  0  0  0
 35 37  1  0  0  0  0
 36 33  1  0  0  0  0
 36 38  1  0  0  0  0
 38 39  1  0  0  0  0
 38 37  1  0  0  0  0
 39 41  1  0  0  0  0
 40 35  1  0  0  0  0
 43 42  1  0  0  0  0
 43 35  1  0  0  0  0
M  END
>  <MODEL>
8

>  <REMARK>
 VINA RESULT:      -5.7      3.656      8.296
  Name = 
  4 active torsions:
  status: ('A' for Active; 'I' for Inactive)
    1  A    between atoms: C_1  and  O_6
    2  A    between atoms: O_6  and  C_31
    3  A    between atoms: C_8  and  C_30
    4  A    between atoms: C_14  and  O_40
                            x       y       z     vdW  Elec       q    Type
                         _______ _______ _______ _____ _____    ______ ____

>  <TORSDO>
F 4

$$$$
=
 OpenBabel10222418543D

 43 49  0  0  1  0  0  0  0  0999 V2000
  184.8380  177.2410  138.6170 O   0  0  0  0  0  0  0  0  0  0  0  0
  185.1780  178.1370  137.5900 C   0  0  0  0  0  2  0  0  0  0  0  0
  185.1520  179.8470  146.1350 C   0  0  0  0  0  1  0  0  0  0  0  0
  188.4620  178.8830  137.4690 N   0  0  0  0  0  0  0  0  0  0  0  0
  186.4510  179.5110  143.0240 O   0  0  0  0  0  0  0  0  0  0  0  0
  187.8740  177.2070  141.9460 O   0  0  0  0  0  0  0  0  0  0  0  0
  186.5850  177.8750  146.5810 C   0  0  0  0  0  2  0  0  0  0  0  0
  187.2960  176.3220  145.9190 S   0  0  0  0  0  0  0  0  0  0  0  0
  185.0320  177.7870  142.2040 C   0  0  0  0  0  2  0  0  0  0  0  0
  186.0170  178.1810  143.2860 C   0  0  1  0  0  0  0  0  0  0  0  0
  189.4170  178.7630  138.3740 N   0  0  0  0  0  0  0  0  0  0  0  0
  185.8610  179.9210  141.8130 C   0  0  0  0  0  2  0  0  0  0  0  0
  186.3970  177.6250  136.8410 C   0  0  0  0  0  2  0  0  0  0  0  0
  188.1500  177.0240  144.4630 C   0  0  1  0  0  3  0  0  0  0  0  0
  187.2100  177.1810  143.2100 C   0  0  2  0  0  3  0  0  0  0  0  0
  190.0070  178.2330  141.2710 N   0  0  1  0  0  0  0  0  0  0  0  0
  189.1440  177.6450  139.0740 C   0  0  0  0  0  0  0  0  0  0  0  0
  187.6360  177.8360  137.6440 C   0  0  0  0  0  0  0  0  0  0  0  0
  184.1940  179.0160  140.1960 C   0  0  0  0  0  2  0  0  0  0  0  0
  189.9420  177.1800  140.2560 C   0  0  1  0  0  3  0  0  0  0  0  0
  183.7790  177.7910  139.3760 C   0  0  1  0  0  3  0  0  0  0  0  0
  188.8100  178.2410  142.0530 C   0  0  2  0  0  3  0  0  0  0  0  0
  190.2040  178.4760  143.7060 C   0  0  0  0  0  2  0  0  0  0  0  0
  186.0500  178.8040  145.5040 C   0  0  1  0  0  3  0  0  0  0  0  0
  188.0210  177.0310  138.6540 N   0  0  0  0  0  2  0  0  0  0  0  0
  189.1360  178.1850  144.8070 C   0  0  0  0  0  2  0  0  0  0  0  0
  185.3360  178.0900  144.5260 O   0  0  0  0  0  0  0  0  0  0  0  0
  185.3890  178.7010  141.0800 C   0  0  2  0  0  3  0  0  0  0  0  0
  189.9720  177.6040  142.5690 N   0  0  2  0  0  0  0  0  0  0  0  0
  191.3210  176.7540  139.8480 C   0  0  0  0  0  3  0  0  0  0  0  0
  192.3400  177.5010  140.0700 N   0  0  0  0  0  2  0  0  0  0  0  0
  182.6570  178.0690  138.5840 O   0  0  0  0  0  0  0  0  0  0  0  0
  181.7890  176.9960  138.7930 C   0  0  1  0  0  3  0  0  0  0  0  0
  181.3590  178.7850  142.3940 O   0  0  0  0  0  0  0  0  0  0  0  0
  179.2350  177.0630  138.4190 C   0  0  1  0  0  3  0  0  0  0  0  0
  181.3240  176.9840  140.2510 C   0  0  0  0  0  2  0  0  0  0  0  0
  179.1470  178.0880  139.5530 C   0  0  0  0  0  2  0  0  0  0  0  0
  180.2920  177.9990  140.4650 N   0  0  0  0  0  0  0  0  0  0  0  0
  180.3840  178.8740  141.6010 C   0  0  0  0  0  0  0  0  0  0  0  0
  180.6300  177.0740  137.7830 C   0  0  0  0  0  2  0  0  0  0  0  0
  179.3370  179.9030  141.8640 C   0  0  0  0  0  1  0  0  0  0  0  0
  178.9310  174.9700  137.7630 C   0  0  0  0  0  1  0  0  0  0  0  0
  178.9310  175.7850  138.8970 O   0  0  0  0  0  0  0  0  0  0  0  0
  1 21  1  0  0  0  0
  2  1  1  0  0  0  0
  4 18  2  0  0  0  0
  4 11  1  0  0  0  0
  5 10  1  0  0  0  0
  6 22  1  0  0  0  0
  8  7  1  0  0  0  0
 10  9  1  6  0  0  0
 10 27  1  0  0  0  0
 11 17  2  0  0  0  0
 12  5  1  0  0  0  0
 13  2  1  0  0  0  0
 13 18  1  0  0  0  0
 14 26  1  1  0  0  0
 14  8  1  0  0  0  0
 15  6  1  6  0  0  0
 15 10  1  0  0  0  0
 15 14  1  0  0  0  0
 16 22  1  0  0  0  0
 16 29  1  0  0  0  0
 17 20  1  0  0  0  0
 18 25  1  0  0  0  0
 19 28  1  0  0  0  0
 20 16  1  0  0  0  0
 21 19  1  0  0  0  0
 22 29  1  0  0  0  0
 23 26  1  0  0  0  0
 24  3  1  0  0  0  0
 24  7  1  0  0  0  0
 25 17  1  0  0  0  0
 27 24  1  0  0  0  0
 28 12  1  0  0  0  0
 28  9  1  0  0  0  0
 29 23  1  0  0  0  0
 30 31  2  0  0  0  0
 30 20  1  0  0  0  0
 32 33  1  0  0  0  0
 32 21  1  0  0  0  0
 33 36  1  0  0  0  0
 35 43  1  0  0  0  0
 35 37  1  0  0  0  0
 36 38  1  0  0  0  0
 37 38  1  0  0  0  0
 38 39  1  0  0  0  0
 39 41  1  0  0  0  0
 39 34  2  0  0  0  0
 40 35  1  0  0  0  0
 40 33  1  0  0  0  0
 42 43  1  0  0  0  0
M  END
>  <MODEL>
9

>  <REMARK>
 VINA RESULT:      -5.4      3.505      8.480
  Name = 
  4 active torsions:
  status: ('A' for Active; 'I' for Inactive)
    1  A    between atoms: C_1  and  O_6
    2  A    between atoms: O_6  and  C_31
    3  A    between atoms: C_8  and  C_30
    4  A    between atoms: C_14  and  O_40
                            x       y       z     vdW  Elec       q    Type
                         _______ _______ _______ _____ _____    ______ ____

>  <TORSDO>
F 4

$$$$
