=
 OpenBabel10222420013D

 36 41  0  0  1  0  0  0  0  0999 V2000
  187.5740  178.0160  144.6440 C   0  0  0  0  0  0  0  0  0  0  0  0
  186.7190  179.0420  141.3400 C   0  0  0  0  0  3  0  0  0  0  0  0
  186.2290  178.4530  142.6050 C   0  0  0  0  0  0  0  0  0  0  0  0
  184.4650  178.3080  144.3230 C   0  0  0  0  0  0  0  0  0  0  0  0
  188.2700  176.9320  142.4890 C   0  0  0  0  0  0  0  0  0  0  0  0
  183.0860  178.3400  144.5550 C   0  0  0  0  0  3  0  0  0  0  0  0
  188.9290  175.8080  142.9740 O   0  0  0  0  0  1  0  0  0  0  0  0
  188.6440  177.5100  141.3250 C   0  0  0  0  0  0  0  0  0  0  0  0
  182.7030  179.2410  142.3880 N   0  0  0  0  0  0  0  0  0  0  0  0
  187.1300  177.4800  143.3220 C   0  0  0  0  0  0  0  0  0  0  0  0
  184.0290  179.1860  142.1040 C   0  0  0  0  0  3  0  0  0  0  0  0
  180.4930  178.8470  143.8820 Cl  0  0  0  0  0  0  0  0  0  0  0  0
  184.9580  178.6680  143.0280 C   0  0  0  0  0  0  0  0  0  0  0  0
  186.6680  178.2090  145.5980 C   0  0  0  0  0  2  0  0  0  0  0  0
  187.8400  178.6160  140.7650 C   0  0  0  0  0  3  0  0  0  0  0  0
  185.2060  178.1060  145.4270 C   0  0  0  0  0  3  0  0  0  0  0  0
  182.2150  178.7920  143.5690 C   0  0  0  0  0  0  0  0  0  0  0  0
  192.0390  176.5930  139.5040 C   0  0  0  0  0  0  0  0  0  0  0  0
  190.5110  173.7840  137.4690 O   0  0  0  0  0  0  0  0  0  0  0  0
  193.0330  174.7360  137.3820 C   0  0  0  0  0  2  0  0  0  0  0  0
  193.7130  176.9900  136.8900 O   0  0  0  0  0  1  0  0  0  0  0  0
  191.2760  175.0750  137.3830 S   0  0  0  0  0  0  0  0  0  0  0  0
  193.4160  176.4460  139.1490 N   0  0  0  0  0  2  0  0  0  0  0  0
  190.8890  175.8250  136.1400 O   0  0  0  0  0  0  0  0  0  0  0  0
  191.4520  177.3930  140.8530 S   0  0  0  0  0  0  0  0  0  0  0  0
  189.8180  177.0550  140.5370 C   0  0  0  0  0  0  0  0  0  0  0  0
  193.8350  175.9640  137.8300 C   0  0  1  0  0  3  0  0  0  0  0  0
  189.7320  176.3050  139.3600 C   0  0  0  0  0  3  0  0  0  0  0  0
  190.9870  176.0520  138.7990 C   0  0  0  0  0  0  0  0  0  0  0  0
  188.9750  178.2380  144.8930 N   0  0  0  0  0  2  0  0  0  0  0  0
  192.4460  175.5190  146.9060 C   0  0  0  0  0  1  0  0  0  0  0  0
  190.6740  177.0830  147.8510 C   0  0  0  0  0  3  0  0  0  0  0  0
  189.6790  177.8630  147.2810 C   0  0  0  0  0  3  0  0  0  0  0  0
  190.7590  176.8120  145.6520 O   0  0  0  0  0  0  0  0  0  0  0  0
  189.7880  177.6470  145.9180 C   0  0  0  0  0  0  0  0  0  0  0  0
  191.3020  176.4620  146.7900 C   0  0  0  0  0  0  0  0  0  0  0  0
  1 30  1  0  0  0  0
  1 14  1  0  0  0  0
  2  3  1  0  0  0  0
  3 13  2  0  0  0  0
  3 10  1  0  0  0  0
  4  6  1  0  0  0  0
  4 16  2  0  0  0  0
  5  7  1  0  0  0  0
  5 10  1  0  0  0  0
  8  5  2  0  0  0  0
  9 17  1  0  0  0  0
 10  1  2  0  0  0  0
 11  9  2  0  0  0  0
 11 13  1  0  0  0  0
 13  4  1  0  0  0  0
 15  8  1  0  0  0  0
 15  2  2  0  0  0  0
 16 14  1  0  0  0  0
 17 12  1  0  0  0  0
 17  6  2  0  0  0  0
 18 25  1  0  0  0  0
 20 22  1  0  0  0  0
 20 27  1  0  0  0  0
 22 19  2  0  0  0  0
 22 29  1  0  0  0  0
 23 18  1  0  0  0  0
 24 22  2  0  0  0  0
 26 25  1  0  0  0  0
 26  8  1  0  0  0  0
 27 21  1  6  0  0  0
 27 23  1  0  0  0  0
 28 26  2  0  0  0  0
 29 28  1  0  0  0  0
 29 18  2  0  0  0  0
 30 35  1  0  0  0  0
 33 32  1  0  0  0  0
 34 35  1  0  0  0  0
 34 36  1  0  0  0  0
 35 33  2  0  0  0  0
 36 31  1  0  0  0  0
 36 32  2  0  0  0  0
M  END
>  <MODEL>
1

>  <REMARK>
 VINA RESULT:     -10.4      0.000      0.000
  Name = 
  3 active torsions:
  status: ('A' for Active; 'I' for Inactive)
    1  A    between atoms: C_1  and  N_30
    2  A    between atoms: C_18  and  C_29
    3  A    between atoms: N_30  and  C_32
                            x       y       z     vdW  Elec       q    Type
                         _______ _______ _______ _____ _____    ______ ____

>  <TORSDO>
F 3

$$$$
=
 OpenBabel10222420013D

 36 41  0  0  1  0  0  0  0  0999 V2000
  188.0130  177.5650  144.9600 C   0  0  0  0  0  0  0  0  0  0  0  0
  190.6880  175.6320  143.6150 C   0  0  0  0  0  3  0  0  0  0  0  0
  190.2720  176.5820  144.6700 C   0  0  0  0  0  0  0  0  0  0  0  0
  190.3500  177.2750  147.0370 C   0  0  0  0  0  0  0  0  0  0  0  0
  189.2210  177.9440  142.7920 C   0  0  0  0  0  0  0  0  0  0  0  0
  191.1470  177.3500  148.1830 C   0  0  0  0  0  3  0  0  0  0  0  0
  188.6440  179.1440  142.3890 O   0  0  0  0  0  1  0  0  0  0  0  0
  189.6500  177.0390  141.8840 C   0  0  0  0  0  0  0  0  0  0  0  0
  192.7330  175.8600  147.2260 N   0  0  0  0  0  0  0  0  0  0  0  0
  189.3380  177.6980  144.2820 C   0  0  0  0  0  0  0  0  0  0  0  0
  192.0140  175.7920  146.0770 C   0  0  0  0  0  3  0  0  0  0  0  0
  193.3240  176.7370  149.7050 Cl  0  0  0  0  0  0  0  0  0  0  0  0
  190.8280  176.5350  145.9080 C   0  0  0  0  0  0  0  0  0  0  0  0
  187.9520  177.6870  146.2830 C   0  0  0  0  0  2  0  0  0  0  0  0
  190.3830  175.8380  142.3380 C   0  0  0  0  0  3  0  0  0  0  0  0
  189.1100  177.7740  147.1920 C   0  0  0  0  0  3  0  0  0  0  0  0
  192.3480  176.6510  148.2550 C   0  0  0  0  0  0  0  0  0  0  0  0
  188.7370  177.7300  138.0940 C   0  0  0  0  0  0  0  0  0  0  0  0
  192.0450  176.4350  136.7720 O   0  0  0  0  0  0  0  0  0  0  0  0
  189.9090  177.3070  135.3760 C   0  0  0  0  0  2  0  0  0  0  0  0
  187.6720  176.4290  135.4540 O   0  0  0  0  0  1  0  0  0  0  0  0
  190.5530  176.2760  136.6880 S   0  0  0  0  0  0  0  0  0  0  0  0
  188.1530  178.2210  136.8840 N   0  0  0  0  0  2  0  0  0  0  0  0
  190.1980  174.8370  136.4430 O   0  0  0  0  0  0  0  0  0  0  0  0
  188.2900  178.1640  139.6470 S   0  0  0  0  0  0  0  0  0  0  0  0
  189.4600  177.2080  140.4210 C   0  0  0  0  0  0  0  0  0  0  0  0
  188.4190  177.6020  135.5820 C   0  0  1  0  0  3  0  0  0  0  0  0
  190.2110  176.5400  139.4490 C   0  0  0  0  0  3  0  0  0  0  0  0
  189.7950  176.8490  138.1510 C   0  0  0  0  0  0  0  0  0  0  0  0
  186.8200  177.3890  144.1740 N   0  0  0  0  0  2  0  0  0  0  0  0
  182.3800  179.0220  143.1210 C   0  0  0  0  0  1  0  0  0  0  0  0
  183.8020  179.0450  145.2310 C   0  0  0  0  0  3  0  0  0  0  0  0
  185.0720  178.5800  145.5380 C   0  0  0  0  0  3  0  0  0  0  0  0
  184.6550  178.1110  143.4100 O   0  0  0  0  0  0  0  0  0  0  0  0
  185.5430  178.0140  144.3660 C   0  0  0  0  0  0  0  0  0  0  0  0
  183.6080  178.7220  143.9030 C   0  0  0  0  0  0  0  0  0  0  0  0
  1 14  1  0  0  0  0
  2  3  1  0  0  0  0
  3 13  2  0  0  0  0
  4 16  2  0  0  0  0
  4  6  1  0  0  0  0
  5 10  1  0  0  0  0
  6 17  2  0  0  0  0
  7  5  1  0  0  0  0
  8 15  1  0  0  0  0
  8  5  2  0  0  0  0
  9 17  1  0  0  0  0
 10  3  1  0  0  0  0
 10  1  2  0  0  0  0
 11  9  2  0  0  0  0
 13 11  1  0  0  0  0
 13  4  1  0  0  0  0
 14 16  1  0  0  0  0
 15  2  2  0  0  0  0
 17 12  1  0  0  0  0
 18 29  2  0  0  0  0
 18 25  1  0  0  0  0
 20 27  1  0  0  0  0
 20 22  1  0  0  0  0
 22 19  2  0  0  0  0
 22 29  1  0  0  0  0
 23 18  1  0  0  0  0
 24 22  2  0  0  0  0
 25 26  1  0  0  0  0
 26  8  1  0  0  0  0
 27 21  1  1  0  0  0
 27 23  1  0  0  0  0
 28 26  2  0  0  0  0
 29 28  1  0  0  0  0
 30 35  1  0  0  0  0
 30  1  1  0  0  0  0
 31 36  1  0  0  0  0
 32 33  1  0  0  0  0
 34 36  1  0  0  0  0
 34 35  1  0  0  0  0
 35 33  2  0  0  0  0
 36 32  2  0  0  0  0
M  END
>  <MODEL>
2

>  <REMARK>
 VINA RESULT:      -9.4      3.377      6.175
  Name = 
  3 active torsions:
  status: ('A' for Active; 'I' for Inactive)
    1  A    between atoms: C_1  and  N_30
    2  A    between atoms: C_18  and  C_29
    3  A    between atoms: N_30  and  C_32
                            x       y       z     vdW  Elec       q    Type
                         _______ _______ _______ _____ _____    ______ ____

>  <TORSDO>
F 3

$$$$
=
 OpenBabel10222420013D

 36 41  0  0  1  0  0  0  0  0999 V2000
  189.1430  178.0420  142.7740 C   0  0  0  0  0  0  0  0  0  0  0  0
  187.5240  178.7390  145.8720 C   0  0  0  0  0  3  0  0  0  0  0  0
  188.5370  177.9150  145.1770 C   0  0  0  0  0  0  0  0  0  0  0  0
  190.7640  176.8550  145.1860 C   0  0  0  0  0  0  0  0  0  0  0  0
  186.7600  177.5440  143.3890 C   0  0  0  0  0  0  0  0  0  0  0  0
  191.7280  176.2210  145.9760 C   0  0  0  0  0  3  0  0  0  0  0  0
  186.3530  176.8350  142.2640 O   0  0  0  0  0  1  0  0  0  0  0  0
  185.8840  178.2970  144.0910 C   0  0  0  0  0  0  0  0  0  0  0  0
  190.6470  176.9620  147.9600 N   0  0  0  0  0  0  0  0  0  0  0  0
  188.2190  177.4400  143.7820 C   0  0  1  0  0  3  0  0  0  0  0  0
  189.6660  177.5550  147.2330 C   0  0  0  0  0  3  0  0  0  0  0  0
  192.8710  175.4870  148.3400 Cl  0  0  0  0  0  0  0  0  0  0  0  0
  189.6470  177.4810  145.8260 C   0  0  0  0  0  0  0  0  0  0  0  0
  190.4340  177.7280  142.8160 C   0  0  0  0  0  3  0  0  0  0  0  0
  186.3120  178.9260  145.3590 C   0  0  0  0  0  3  0  0  0  0  0  0
  191.0970  176.9600  143.8870 C   0  0  0  0  0  3  0  0  0  0  0  0
  191.6440  176.2670  147.3640 C   0  0  0  0  0  0  0  0  0  0  0  0
  182.0120  178.8190  143.4510 C   0  0  0  0  0  0  0  0  0  0  0  0
  182.4340  179.5070  139.7480 O   0  0  0  0  0  0  0  0  0  0  0  0
  180.1490  179.3240  141.1670 C   0  0  0  0  0  2  0  0  0  0  0  0
  179.3880  177.4380  142.4500 O   0  0  0  0  0  1  0  0  0  0  0  0
  181.7440  178.6280  140.7530 S   0  0  0  0  0  0  0  0  0  0  0  0
  180.6120  179.0710  143.5990 N   0  0  0  0  0  2  0  0  0  0  0  0
  181.5800  177.2400  140.2030 O   0  0  0  0  0  0  0  0  0  0  0  0
  183.1440  178.8080  144.6840 S   0  0  0  0  0  0  0  0  0  0  0  0
  184.4730  178.4970  143.6740 C   0  0  0  0  0  0  0  0  0  0  0  0
  179.6530  178.8070  142.5230 C   0  0  1  0  0  3  0  0  0  0  0  0
  184.0230  178.4000  142.3540 C   0  0  0  0  0  3  0  0  0  0  0  0
  182.6420  178.5890  142.2480 C   0  0  0  0  0  0  0  0  0  0  0  0
  188.6150  178.8810  141.7300 N   0  0  0  0  0  2  0  0  0  0  0  0
  186.2920  178.0890  137.5500 C   0  0  0  0  0  1  0  0  0  0  0  0
  188.7360  177.9680  138.2490 C   0  0  0  0  0  3  0  0  0  0  0  0
  189.4060  178.1920  139.4420 C   0  0  0  0  0  3  0  0  0  0  0  0
  187.2420  178.5450  139.7820 O   0  0  0  0  0  0  0  0  0  0  0  0
  188.4210  178.5460  140.3480 C   0  0  0  0  0  0  0  0  0  0  0  0
  187.4060  178.2030  138.5290 C   0  0  0  0  0  0  0  0  0  0  0  0
  1 14  2  0  0  0  0
  3 13  2  0  0  0  0
  3  2  1  0  0  0  0
  4 13  1  0  0  0  0
  4  6  1  0  0  0  0
  5 10  1  0  0  0  0
  5  8  2  0  0  0  0
  6 17  2  0  0  0  0
  7  5  1  0  0  0  0
  8 15  1  0  0  0  0
 10  1  1  6  0  0  0
 10  3  1  0  0  0  0
 11  9  2  0  0  0  0
 13 11  1  0  0  0  0
 14 16  1  0  0  0  0
 15  2  2  0  0  0  0
 16  4  2  0  0  0  0
 17  9  1  0  0  0  0
 17 12  1  0  0  0  0
 18 23  1  0  0  0  0
 18 25  1  0  0  0  0
 19 22  2  0  0  0  0
 20 27  1  0  0  0  0
 22 20  1  0  0  0  0
 22 29  1  0  0  0  0
 24 22  2  0  0  0  0
 26  8  1  0  0  0  0
 26 25  1  0  0  0  0
 27 21  1  6  0  0  0
 27 23  1  0  0  0  0
 28 26  2  0  0  0  0
 29 28  1  0  0  0  0
 29 18  2  0  0  0  0
 30  1  1  0  0  0  0
 31 36  1  0  0  0  0
 32 36  2  0  0  0  0
 32 33  1  0  0  0  0
 33 35  2  0  0  0  0
 34 35  1  0  0  0  0
 35 30  1  0  0  0  0
 36 34  1  0  0  0  0
M  END
>  <MODEL>
3

>  <REMARK>
 VINA RESULT:      -9.0      4.474      8.814
  Name = 
  3 active torsions:
  status: ('A' for Active; 'I' for Inactive)
    1  A    between atoms: C_1  and  N_30
    2  A    between atoms: C_18  and  C_29
    3  A    between atoms: N_30  and  C_32
                            x       y       z     vdW  Elec       q    Type
                         _______ _______ _______ _____ _____    ______ ____

>  <TORSDO>
F 3

$$$$
=
 OpenBabel10222420013D

 36 41  0  0  1  0  0  0  0  0999 V2000
  185.8210  178.2250  143.0050 C   0  0  0  0  0  0  0  0  0  0  0  0
  188.6440  176.1260  143.5780 C   0  0  0  0  0  3  0  0  0  0  0  0
  187.8310  177.2530  144.0870 C   0  0  0  0  0  0  0  0  0  0  0  0
  186.7620  178.3910  145.9960 C   0  0  0  0  0  0  0  0  0  0  0  0
  187.9830  178.2050  141.7280 C   0  0  0  0  0  0  0  0  0  0  0  0
  186.8760  178.7020  147.3550 C   0  0  0  0  0  3  0  0  0  0  0  0
  187.7860  179.2910  140.8830 O   0  0  0  0  0  1  0  0  0  0  0  0
  188.7360  177.1510  141.3420 C   0  0  0  0  0  0  0  0  0  0  0  0
  188.6020  177.0890  147.6200 N   0  0  0  0  0  0  0  0  0  0  0  0
  187.3130  178.2530  143.0860 C   0  0  0  0  0  0  0  0  0  0  0  0
  188.5570  176.7860  146.2980 C   0  0  0  0  0  3  0  0  0  0  0  0
  187.9310  178.4400  149.8540 Cl  0  0  0  0  0  0  0  0  0  0  0  0
  187.6820  177.4570  145.4200 C   0  0  0  0  0  0  0  0  0  0  0  0
  185.1120  178.5990  144.0660 C   0  0  0  0  0  2  0  0  0  0  0  0
  189.0420  176.0760  142.3100 C   0  0  0  0  0  3  0  0  0  0  0  0
  185.6570  178.8840  145.4070 C   0  0  0  0  0  3  0  0  0  0  0  0
  187.8160  178.0560  148.1500 C   0  0  0  0  0  0  0  0  0  0  0  0
  189.8570  176.9190  137.5520 C   0  0  0  0  0  0  0  0  0  0  0  0
  193.5550  176.7490  138.3660 O   0  0  0  0  0  0  0  0  0  0  0  0
  192.3610  176.5740  135.9550 C   0  0  0  0  0  2  0  0  0  0  0  0
  190.7170  174.9610  135.2670 O   0  0  0  0  0  1  0  0  0  0  0  0
  192.4290  176.0460  137.6630 S   0  0  0  0  0  0  0  0  0  0  0  0
  189.9130  176.9870  136.1240 N   0  0  0  0  0  2  0  0  0  0  0  0
  192.6170  174.5570  137.7400 O   0  0  0  0  0  0  0  0  0  0  0  0
  188.5600  177.3740  138.5070 S   0  0  0  0  0  0  0  0  0  0  0  0
  189.3240  177.0310  139.9840 C   0  0  0  0  0  0  0  0  0  0  0  0
  190.9720  176.3310  135.3520 C   0  0  1  0  0  3  0  0  0  0  0  0
  190.6120  176.5530  139.7250 C   0  0  0  0  0  3  0  0  0  0  0  0
  190.8950  176.5020  138.3560 C   0  0  0  0  0  0  0  0  0  0  0  0
  185.1770  177.8750  141.7660 N   0  0  0  0  0  2  0  0  0  0  0  0
  182.3090  180.3210  138.7180 C   0  0  0  0  0  1  0  0  0  0  0  0
  181.8810  179.0040  140.8540 C   0  0  0  0  0  3  0  0  0  0  0  0
  182.6970  178.3030  141.7300 C   0  0  0  0  0  3  0  0  0  0  0  0
  183.9680  179.1450  140.1180 O   0  0  0  0  0  0  0  0  0  0  0  0
  183.9750  178.4320  141.2140 C   0  0  0  0  0  0  0  0  0  0  0  0
  182.7300  179.4970  139.8830 C   0  0  0  0  0  0  0  0  0  0  0  0
  1 10  2  0  0  0  0
  1 14  1  0  0  0  0
  2  3  1  0  0  0  0
  3 13  2  0  0  0  0
  4  6  1  0  0  0  0
  5 10  1  0  0  0  0
  6 17  2  0  0  0  0
  7  5  1  0  0  0  0
  8  5  2  0  0  0  0
  8 15  1  0  0  0  0
  9 17  1  0  0  0  0
 10  3  1  0  0  0  0
 11  9  2  0  0  0  0
 13  4  1  0  0  0  0
 13 11  1  0  0  0  0
 14 16  1  0  0  0  0
 15  2  2  0  0  0  0
 16  4  2  0  0  0  0
 17 12  1  0  0  0  0
 18 29  2  0  0  0  0
 18 25  1  0  0  0  0
 20 22  1  0  0  0  0
 22 24  2  0  0  0  0
 22 29  1  0  0  0  0
 22 19  2  0  0  0  0
 23 18  1  0  0  0  0
 25 26  1  0  0  0  0
 26  8  1  0  0  0  0
 27 21  1  1  0  0  0
 27 20  1  0  0  0  0
 27 23  1  0  0  0  0
 28 26  2  0  0  0  0
 29 28  1  0  0  0  0
 30  1  1  0  0  0  0
 31 36  1  0  0  0  0
 32 33  1  0  0  0  0
 34 35  1  0  0  0  0
 35 33  2  0  0  0  0
 35 30  1  0  0  0  0
 36 34  1  0  0  0  0
 36 32  2  0  0  0  0
M  END
>  <MODEL>
4

>  <REMARK>
 VINA RESULT:      -8.5      2.843      5.707
  Name = 
  3 active torsions:
  status: ('A' for Active; 'I' for Inactive)
    1  A    between atoms: C_1  and  N_30
    2  A    between atoms: C_18  and  C_29
    3  A    between atoms: N_30  and  C_32
                            x       y       z     vdW  Elec       q    Type
                         _______ _______ _______ _____ _____    ______ ____

>  <TORSDO>
F 3

$$$$
=
 OpenBabel10222420013D

 36 41  0  0  1  0  0  0  0  0999 V2000
  187.9820  177.9610  144.4690 C   0  0  0  0  0  0  0  0  0  0  0  0
  186.6680  179.0330  141.3340 C   0  0  0  0  0  3  0  0  0  0  0  0
  186.3630  178.4200  142.6450 C   0  0  0  0  0  0  0  0  0  0  0  0
  184.8570  178.2350  144.5900 C   0  0  0  0  0  0  0  0  0  0  0  0
  188.3760  176.9170  142.2190 C   0  0  0  0  0  0  0  0  0  0  0  0
  183.5240  178.2530  145.0130 C   0  0  0  0  0  3  0  0  0  0  0  0
  189.1020  175.7900  142.5890 O   0  0  0  0  0  1  0  0  0  0  0  0
  188.5800  177.5160  141.0240 C   0  0  0  0  0  0  0  0  0  0  0  0
  182.8370  179.1850  142.9370 N   0  0  0  0  0  0  0  0  0  0  0  0
  187.3600  177.4430  143.2120 C   0  0  0  0  0  0  0  0  0  0  0  0
  184.1100  179.1450  142.4690 C   0  0  0  0  0  3  0  0  0  0  0  0
  180.8600  178.7510  144.7180 Cl  0  0  0  0  0  0  0  0  0  0  0  0
  185.1620  178.6190  143.2450 C   0  0  0  0  0  0  0  0  0  0  0  0
  187.2170  178.1320  145.5430 C   0  0  0  0  0  2  0  0  0  0  0  0
  187.6990  178.6250  140.6010 C   0  0  0  0  0  3  0  0  0  0  0  0
  185.7470  178.0210  145.5770 C   0  0  0  0  0  3  0  0  0  0  0  0
  182.5210  178.7130  144.1660 C   0  0  0  0  0  0  0  0  0  0  0  0
  191.0460  176.1070  138.2650 C   0  0  0  0  0  0  0  0  0  0  0  0
  193.9320  178.3300  139.3130 O   0  0  0  0  0  0  0  0  0  0  0  0
  193.8970  176.4110  137.4180 C   0  0  0  0  0  2  0  0  0  0  0  0
  193.3720  174.0850  137.7230 O   0  0  0  0  0  1  0  0  0  0  0  0
  193.5090  176.9050  139.0940 S   0  0  0  0  0  0  0  0  0  0  0  0
  191.6070  175.4930  137.1020 N   0  0  0  0  0  2  0  0  0  0  0  0
  194.1990  176.0020  140.0760 O   0  0  0  0  0  0  0  0  0  0  0  0
  189.4160  176.2050  138.6360 S   0  0  0  0  0  0  0  0  0  0  0  0
  189.6350  177.0830  140.0730 C   0  0  0  0  0  0  0  0  0  0  0  0
  193.0410  175.2180  136.9780 C   0  0  1  0  0  3  0  0  0  0  0  0
  191.0030  177.3020  140.2640 C   0  0  0  0  0  3  0  0  0  0  0  0
  191.7770  176.7520  139.2380 C   0  0  0  0  0  0  0  0  0  0  0  0
  189.4030  178.1900  144.5230 N   0  0  0  0  0  2  0  0  0  0  0  0
  192.0560  176.0030  147.9390 C   0  0  0  0  0  1  0  0  0  0  0  0
  192.0550  175.9150  145.3960 C   0  0  0  0  0  3  0  0  0  0  0  0
  191.2990  176.5380  144.4130 C   0  0  0  0  0  3  0  0  0  0  0  0
  190.5790  177.2360  146.3930 O   0  0  0  0  0  0  0  0  0  0  0  0
  190.4060  177.3420  145.1010 C   0  0  0  0  0  0  0  0  0  0  0  0
  191.5580  176.3900  146.5920 C   0  0  0  0  0  0  0  0  0  0  0  0
  1 30  1  0  0  0  0
  1 14  1  0  0  0  0
  2  3  1  0  0  0  0
  3 10  1  0  0  0  0
  3 13  2  0  0  0  0
  4  6  1  0  0  0  0
  4 16  2  0  0  0  0
  5  7  1  0  0  0  0
  5 10  1  0  0  0  0
  8  5  2  0  0  0  0
  9 17  1  0  0  0  0
 10  1  2  0  0  0  0
 11  9  2  0  0  0  0
 11 13  1  0  0  0  0
 13  4  1  0  0  0  0
 14 16  1  0  0  0  0
 15  8  1  0  0  0  0
 15  2  2  0  0  0  0
 17 12  1  0  0  0  0
 17  6  2  0  0  0  0
 18 25  1  0  0  0  0
 18 29  2  0  0  0  0
 20 22  1  0  0  0  0
 22 29  1  0  0  0  0
 22 19  2  0  0  0  0
 22 24  2  0  0  0  0
 23 18  1  0  0  0  0
 25 26  1  0  0  0  0
 26 28  2  0  0  0  0
 26  8  1  0  0  0  0
 27 23  1  0  0  0  0
 27 20  1  0  0  0  0
 27 21  1  1  0  0  0
 29 28  1  0  0  0  0
 30 35  1  0  0  0  0
 32 36  2  0  0  0  0
 33 35  2  0  0  0  0
 33 32  1  0  0  0  0
 34 36  1  0  0  0  0
 35 34  1  0  0  0  0
 36 31  1  0  0  0  0
M  END
>  <MODEL>
5

>  <REMARK>
 VINA RESULT:      -8.1      1.380      2.002
  Name = 
  3 active torsions:
  status: ('A' for Active; 'I' for Inactive)
    1  A    between atoms: C_1  and  N_30
    2  A    between atoms: C_18  and  C_29
    3  A    between atoms: N_30  and  C_32
                            x       y       z     vdW  Elec       q    Type
                         _______ _______ _______ _____ _____    ______ ____

>  <TORSDO>
F 3

$$$$
=
 OpenBabel10222420013D

 36 41  0  0  1  0  0  0  0  0999 V2000
  189.2490  177.6100  138.9210 C   0  0  0  0  0  0  0  0  0  0  0  0
  192.2920  177.6360  140.7770 C   0  0  0  0  0  3  0  0  0  0  0  0
  191.5430  177.0200  139.6600 C   0  0  0  0  0  0  0  0  0  0  0  0
  191.5360  176.1320  137.3590 C   0  0  0  0  0  0  0  0  0  0  0  0
  189.5910  176.8470  141.2890 C   0  0  0  0  0  0  0  0  0  0  0  0
  192.2760  175.4370  136.3970 C   0  0  0  0  0  3  0  0  0  0  0  0
  188.3340  176.3210  141.5670 O   0  0  0  0  0  1  0  0  0  0  0  0
  190.3450  177.4020  142.2640 C   0  0  0  0  0  0  0  0  0  0  0  0
  194.2720  175.7410  137.6540 N   0  0  0  0  0  0  0  0  0  0  0  0
  190.0690  176.7770  139.8530 C   0  0  1  0  0  3  0  0  0  0  0  0
  193.5860  176.3830  138.6330 C   0  0  0  0  0  3  0  0  0  0  0  0
  194.5580  174.3800  135.3440 Cl  0  0  0  0  0  0  0  0  0  0  0  0
  192.1890  176.5560  138.5610 C   0  0  0  0  0  0  0  0  0  0  0  0
  189.3330  177.3840  137.6130 C   0  0  0  0  0  3  0  0  0  0  0  0
  191.7300  177.8260  141.9670 C   0  0  0  0  0  3  0  0  0  0  0  0
  190.3030  176.4880  136.9570 C   0  0  0  0  0  3  0  0  0  0  0  0
  193.6410  175.2320  136.5680 C   0  0  0  0  0  0  0  0  0  0  0  0
  189.5110  177.7320  146.1200 C   0  0  0  0  0  0  0  0  0  0  0  0
  186.1030  179.2850  145.5340 O   0  0  0  0  0  0  0  0  0  0  0  0
  187.2470  178.5900  147.8750 C   0  0  0  0  0  2  0  0  0  0  0  0
  188.0080  176.4030  148.5230 O   0  0  0  0  0  1  0  0  0  0  0  0
  186.8250  178.1440  146.1950 S   0  0  0  0  0  0  0  0  0  0  0  0
  189.5920  177.8250  147.5450 N   0  0  0  0  0  2  0  0  0  0  0  0
  185.9680  176.9100  146.1830 O   0  0  0  0  0  0  0  0  0  0  0  0
  190.8020  177.5320  145.0740 S   0  0  0  0  0  0  0  0  0  0  0  0
  189.8650  177.5730  143.6590 C   0  0  0  0  0  0  0  0  0  0  0  0
  188.4060  177.7360  148.4020 C   0  0  1  0  0  3  0  0  0  0  0  0
  188.5220  177.7460  144.0110 C   0  0  0  0  0  3  0  0  0  0  0  0
  188.3440  177.8380  145.3950 C   0  0  0  0  0  0  0  0  0  0  0  0
  188.3280  178.5810  139.4510 N   0  0  0  0  0  2  0  0  0  0  0  0
  183.7520  178.8660  141.0230 C   0  0  0  0  0  1  0  0  0  0  0  0
  184.8010  178.3520  138.7620 C   0  0  0  0  0  3  0  0  0  0  0  0
  186.1080  178.2680  138.3060 C   0  0  0  0  0  3  0  0  0  0  0  0
  186.1550  178.7770  140.4650 O   0  0  0  0  0  0  0  0  0  0  0  0
  186.8940  178.5420  139.4120 C   0  0  0  0  0  0  0  0  0  0  0  0
  184.9020  178.6690  140.1010 C   0  0  0  0  0  0  0  0  0  0  0  0
  1 30  1  0  0  0  0
  2 15  2  0  0  0  0
  3 10  1  0  0  0  0
  3  2  1  0  0  0  0
  4 13  1  0  0  0  0
  5  7  1  0  0  0  0
  5  8  2  0  0  0  0
  6 17  2  0  0  0  0
  6  4  1  0  0  0  0
  8 26  1  0  0  0  0
  9 11  2  0  0  0  0
 10  1  1  6  0  0  0
 10  5  1  0  0  0  0
 12 17  1  0  0  0  0
 13 11  1  0  0  0  0
 13  3  2  0  0  0  0
 14  1  2  0  0  0  0
 15  8  1  0  0  0  0
 16  4  2  0  0  0  0
 16 14  1  0  0  0  0
 17  9  1  0  0  0  0
 18 23  1  0  0  0  0
 19 22  2  0  0  0  0
 20 27  1  0  0  0  0
 22 20  1  0  0  0  0
 23 27  1  0  0  0  0
 24 22  2  0  0  0  0
 25 18  1  0  0  0  0
 26 28  2  0  0  0  0
 26 25  1  0  0  0  0
 27 21  1  6  0  0  0
 28 29  1  0  0  0  0
 29 18  2  0  0  0  0
 29 22  1  0  0  0  0
 32 36  2  0  0  0  0
 33 32  1  0  0  0  0
 33 35  2  0  0  0  0
 35 30  1  0  0  0  0
 35 34  1  0  0  0  0
 36 34  1  0  0  0  0
 36 31  1  0  0  0  0
M  END
>  <MODEL>
6

>  <REMARK>
 VINA RESULT:      -8.0      4.306      9.208
  Name = 
  3 active torsions:
  status: ('A' for Active; 'I' for Inactive)
    1  A    between atoms: C_1  and  N_30
    2  A    between atoms: C_18  and  C_29
    3  A    between atoms: N_30  and  C_32
                            x       y       z     vdW  Elec       q    Type
                         _______ _______ _______ _____ _____    ______ ____

>  <TORSDO>
F 3

$$$$
=
 OpenBabel10222420013D

 36 41  0  0  1  0  0  0  0  0999 V2000
  185.2290  179.0000  141.4900 C   0  0  0  0  0  0  0  0  0  0  0  0
  188.4720  178.5210  140.0910 C   0  0  0  0  0  2  0  0  0  0  0  0
  187.0240  178.2530  139.9480 C   0  0  0  0  0  0  0  0  0  0  0  0
  185.0410  178.0910  138.4900 C   0  0  0  0  0  0  0  0  0  0  0  0
  187.0820  177.5710  142.4020 C   0  0  0  0  0  0  0  0  0  0  0  0
  184.5780  177.7260  137.2220 C   0  0  0  0  0  3  0  0  0  0  0  0
  186.4290  176.9660  143.4710 O   0  0  0  0  0  1  0  0  0  0  0  0
  188.4090  177.8230  142.4500 C   0  0  0  0  0  0  0  0  0  0  0  0
  186.8010  177.6740  136.3810 N   0  0  0  0  0  0  0  0  0  0  0  0
  186.2420  177.9400  141.1970 C   0  0  0  0  0  0  0  0  0  0  0  0
  187.2980  177.9830  137.6060 C   0  0  0  0  0  3  0  0  0  0  0  0
  184.8770  177.0670  134.5940 Cl  0  0  0  0  0  0  0  0  0  0  0  0
  186.4530  178.1480  138.7210 C   0  0  0  0  0  0  0  0  0  0  0  0
  184.2180  179.1750  140.6430 C   0  0  0  0  0  3  0  0  0  0  0  0
  189.1000  178.3390  141.2490 C   0  0  0  0  0  3  0  0  0  0  0  0
  184.0810  178.5300  139.3240 C   0  0  0  0  0  3  0  0  0  0  0  0
  185.4730  177.5010  136.1810 C   0  0  0  0  0  0  0  0  0  0  0  0
  190.9510  176.9460  145.3560 C   0  0  0  0  0  0  0  0  0  0  0  0
  188.9610  178.7640  148.0210 O   0  0  0  0  0  0  0  0  0  0  0  0
  191.2110  177.3060  148.3130 C   0  0  0  0  0  2  0  0  0  0  0  0
  191.5230  174.9940  147.7340 O   0  0  0  0  0  1  0  0  0  0  0  0
  189.5590  177.4400  147.6380 S   0  0  0  0  0  0  0  0  0  0  0  0
  192.1090  176.5760  146.1100 N   0  0  0  0  0  2  0  0  0  0  0  0
  188.6980  176.3160  148.1420 O   0  0  0  0  0  0  0  0  0  0  0  0
  190.8500  177.0300  143.6870 S   0  0  0  0  0  0  0  0  0  0  0  0
  189.2390  177.5640  143.6530 C   0  0  0  0  0  0  0  0  0  0  0  0
  192.0440  176.2750  147.5430 C   0  0  1  0  0  3  0  0  0  0  0  0
  188.7740  177.6780  144.9670 C   0  0  0  0  0  3  0  0  0  0  0  0
  189.7490  177.3330  145.9080 C   0  0  0  0  0  0  0  0  0  0  0  0
  185.3150  179.7540  142.7130 N   0  0  0  0  0  2  0  0  0  0  0  0
  185.6820  178.7170  147.4330 C   0  0  0  0  0  1  0  0  0  0  0  0
  183.7600  178.6480  145.7670 C   0  0  0  0  0  3  0  0  0  0  0  0
  183.6480  178.9420  144.4160 C   0  0  0  0  0  3  0  0  0  0  0  0
  185.7480  179.3020  145.0370 O   0  0  0  0  0  0  0  0  0  0  0  0
  184.9160  179.3400  144.0280 C   0  0  0  0  0  0  0  0  0  0  0  0
  185.0810  178.8920  146.0840 C   0  0  0  0  0  0  0  0  0  0  0  0
  1 30  1  0  0  0  0
  2 15  1  0  0  0  0
  3  2  1  0  0  0  0
  3 10  1  0  0  0  0
  4 13  1  0  0  0  0
  4 16  2  0  0  0  0
  5  8  1  0  0  0  0
  5  7  1  0  0  0  0
  6  4  1  0  0  0  0
  8 26  1  0  0  0  0
  9 11  2  0  0  0  0
 10  1  1  0  0  0  0
 10  5  2  0  0  0  0
 11 13  1  0  0  0  0
 12 17  1  0  0  0  0
 13  3  2  0  0  0  0
 14  1  2  0  0  0  0
 15  8  2  0  0  0  0
 16 14  1  0  0  0  0
 17  9  1  0  0  0  0
 17  6  2  0  0  0  0
 18 29  2  0  0  0  0
 18 23  1  0  0  0  0
 22 19  2  0  0  0  0
 22 24  2  0  0  0  0
 22 20  1  0  0  0  0
 23 27  1  0  0  0  0
 25 18  1  0  0  0  0
 26 25  1  0  0  0  0
 26 28  2  0  0  0  0
 27 21  1  6  0  0  0
 27 20  1  0  0  0  0
 28 29  1  0  0  0  0
 29 22  1  0  0  0  0
 30 35  1  0  0  0  0
 32 36  2  0  0  0  0
 33 32  1  0  0  0  0
 34 36  1  0  0  0  0
 35 33  2  0  0  0  0
 35 34  1  0  0  0  0
 36 31  1  0  0  0  0
M  END
>  <MODEL>
7

>  <REMARK>
 VINA RESULT:      -7.7      4.179      6.920
  Name = 
  3 active torsions:
  status: ('A' for Active; 'I' for Inactive)
    1  A    between atoms: C_1  and  N_30
    2  A    between atoms: C_18  and  C_29
    3  A    between atoms: N_30  and  C_32
                            x       y       z     vdW  Elec       q    Type
                         _______ _______ _______ _____ _____    ______ ____

>  <TORSDO>
F 3

$$$$
=
 OpenBabel10222420013D

 36 41  0  0  1  0  0  0  0  0999 V2000
  189.3540  178.1190  142.4440 C   0  0  0  0  0  0  0  0  0  0  0  0
  187.3110  178.6560  145.3150 C   0  0  0  0  0  3  0  0  0  0  0  0
  188.4530  177.9070  144.7460 C   0  0  0  0  0  0  0  0  0  0  0  0
  190.7220  176.9810  145.0300 C   0  0  0  0  0  0  0  0  0  0  0  0
  186.9470  177.4670  142.7400 C   0  0  0  0  0  0  0  0  0  0  0  0
  191.6140  176.3900  145.9310 C   0  0  0  0  0  3  0  0  0  0  0  0
  186.7320  176.7580  141.5630 O   0  0  0  0  0  1  0  0  0  0  0  0
  185.9430  178.1530  143.3320 C   0  0  0  0  0  0  0  0  0  0  0  0
  190.2440  177.0260  147.7670 N   0  0  0  0  0  0  0  0  0  0  0  0
  188.3470  177.4420  143.3170 C   0  0  1  0  0  3  0  0  0  0  0  0
  189.3290  177.5740  146.9270 C   0  0  0  0  0  3  0  0  0  0  0  0
  192.4870  175.6780  148.4130 Cl  0  0  0  0  0  0  0  0  0  0  0  0
  189.4950  177.5270  145.5280 C   0  0  0  0  0  0  0  0  0  0  0  0
  190.6460  177.8810  142.6490 C   0  0  0  0  0  3  0  0  0  0  0  0
  186.1660  178.7800  144.6520 C   0  0  0  0  0  3  0  0  0  0  0  0
  191.2120  177.1330  143.7870 C   0  0  0  0  0  3  0  0  0  0  0  0
  191.3500  176.4030  147.2970 C   0  0  0  0  0  0  0  0  0  0  0  0
  182.5450  178.4320  141.3200 C   0  0  0  0  0  0  0  0  0  0  0  0
  180.3750  178.3170  144.4260 O   0  0  0  0  0  0  0  0  0  0  0  0
  179.6120  178.6540  141.8610 C   0  0  0  0  0  2  0  0  0  0  0  0
  180.3080  180.4000  140.3610 O   0  0  0  0  0  1  0  0  0  0  0  0
  180.7050  179.1200  143.1990 S   0  0  0  0  0  0  0  0  0  0  0  0
  181.5380  178.4070  140.3050 N   0  0  0  0  0  2  0  0  0  0  0  0
  180.5760  180.5890  143.4900 O   0  0  0  0  0  0  0  0  0  0  0  0
  184.1580  178.0360  141.1140 S   0  0  0  0  0  0  0  0  0  0  0  0
  184.5880  178.2770  142.7390 C   0  0  0  0  0  0  0  0  0  0  0  0
  180.2180  179.0130  140.4990 C   0  0  1  0  0  3  0  0  0  0  0  0
  183.4520  178.6720  143.4520 C   0  0  0  0  0  3  0  0  0  0  0  0
  182.3150  178.7480  142.6410 C   0  0  0  0  0  0  0  0  0  0  0  0
  188.9130  178.9460  141.3510 N   0  0  0  0  0  2  0  0  0  0  0  0
  186.7590  178.2280  137.0690 C   0  0  0  0  0  1  0  0  0  0  0  0
  189.1300  177.8710  137.9210 C   0  0  0  0  0  3  0  0  0  0  0  0
  189.7520  178.0740  139.1440 C   0  0  0  0  0  3  0  0  0  0  0  0
  187.6250  178.6760  139.3360 O   0  0  0  0  0  0  0  0  0  0  0  0
  188.7630  178.5720  139.9740 C   0  0  0  0  0  0  0  0  0  0  0  0
  187.8200  178.2630  138.1100 C   0  0  0  0  0  0  0  0  0  0  0  0
  1 14  2  0  0  0  0
  3  2  1  0  0  0  0
  3 13  2  0  0  0  0
  4 13  1  0  0  0  0
  4  6  1  0  0  0  0
  5 10  1  0  0  0  0
  5  8  2  0  0  0  0
  6 17  2  0  0  0  0
  7  5  1  0  0  0  0
  8 15  1  0  0  0  0
 10  1  1  6  0  0  0
 10  3  1  0  0  0  0
 11  9  2  0  0  0  0
 13 11  1  0  0  0  0
 14 16  1  0  0  0  0
 15  2  2  0  0  0  0
 16  4  2  0  0  0  0
 17  9  1  0  0  0  0
 17 12  1  0  0  0  0
 18 29  2  0  0  0  0
 20 22  1  0  0  0  0
 22 24  2  0  0  0  0
 22 19  2  0  0  0  0
 23 27  1  0  0  0  0
 23 18  1  0  0  0  0
 25 18  1  0  0  0  0
 25 26  1  0  0  0  0
 26  8  1  0  0  0  0
 26 28  2  0  0  0  0
 27 21  1  1  0  0  0
 27 20  1  0  0  0  0
 29 22  1  0  0  0  0
 29 28  1  0  0  0  0
 30  1  1  0  0  0  0
 31 36  1  0  0  0  0
 32 36  2  0  0  0  0
 32 33  1  0  0  0  0
 33 35  2  0  0  0  0
 34 35  1  0  0  0  0
 35 30  1  0  0  0  0
 36 34  1  0  0  0  0
M  END
>  <MODEL>
8

>  <REMARK>
 VINA RESULT:      -7.5      4.639      8.874
  Name = 
  3 active torsions:
  status: ('A' for Active; 'I' for Inactive)
    1  A    between atoms: C_1  and  N_30
    2  A    between atoms: C_18  and  C_29
    3  A    between atoms: N_30  and  C_32
                            x       y       z     vdW  Elec       q    Type
                         _______ _______ _______ _____ _____    ______ ____

>  <TORSDO>
F 3

$$$$
=
 OpenBabel10222420013D

 36 41  0  0  1  0  0  0  0  0999 V2000
  189.4240  177.4800  139.5370 C   0  0  0  0  0  0  0  0  0  0  0  0
  188.5950  174.7990  137.3390 C   0  0  0  0  0  3  0  0  0  0  0  0
  189.6360  175.7630  137.7570 C   0  0  0  0  0  0  0  0  0  0  0  0
  192.0060  176.2240  138.2660 C   0  0  0  0  0  0  0  0  0  0  0  0
  187.8120  177.5360  137.6130 C   0  0  0  0  0  0  0  0  0  0  0  0
  193.3290  175.9280  137.9250 C   0  0  0  0  0  3  0  0  0  0  0  0
  187.4820  178.8860  137.6010 O   0  0  0  0  0  1  0  0  0  0  0  0
  186.9210  176.5980  137.2180 C   0  0  0  0  0  0  0  0  0  0  0  0
  192.6250  174.0290  136.6780 N   0  0  0  0  0  0  0  0  0  0  0  0
  189.2000  177.1660  138.0930 C   0  0  0  0  0  0  0  0  0  0  0  0
  191.3240  174.3040  136.9480 C   0  0  0  0  0  3  0  0  0  0  0  0
  195.2850  174.4670  136.7120 Cl  0  0  0  0  0  0  0  0  0  0  0  0
  190.9520  175.4370  137.6990 C   0  0  0  0  0  0  0  0  0  0  0  0
  190.6700  177.5280  139.9990 C   0  0  0  0  0  2  0  0  0  0  0  0
  187.3440  175.1860  137.1100 C   0  0  0  0  0  3  0  0  0  0  0  0
  191.8790  177.1280  139.2540 C   0  0  0  0  0  3  0  0  0  0  0  0
  193.6220  174.8370  137.1120 C   0  0  0  0  0  0  0  0  0  0  0  0
  183.3570  177.5020  135.7490 C   0  0  0  0  0  0  0  0  0  0  0  0
  181.5260  176.7480  138.9800 O   0  0  0  0  0  0  0  0  0  0  0  0
  180.5230  177.7220  136.6740 C   0  0  0  0  0  2  0  0  0  0  0  0
  181.1800  179.7420  135.5470 O   0  0  0  0  0  1  0  0  0  0  0  0
  181.7820  177.8050  137.9430 S   0  0  0  0  0  0  0  0  0  0  0  0
  182.2500  177.7670  134.8830 N   0  0  0  0  0  2  0  0  0  0  0  0
  181.7910  179.1660  138.5790 O   0  0  0  0  0  0  0  0  0  0  0  0
  184.9070  177.0950  135.2650 S   0  0  0  0  0  0  0  0  0  0  0  0
  185.5220  176.9210  136.8370 C   0  0  0  0  0  0  0  0  0  0  0  0
  181.0050  178.3680  135.3700 C   0  0  1  0  0  3  0  0  0  0  0  0
  184.5000  177.1860  137.7540 C   0  0  0  0  0  3  0  0  0  0  0  0
  183.2930  177.5050  137.1250 C   0  0  0  0  0  0  0  0  0  0  0  0
  188.3040  177.8020  140.3820 N   0  0  0  0  0  2  0  0  0  0  0  0
  186.3880  177.8770  144.8330 C   0  0  0  0  0  1  0  0  0  0  0  0
  188.3830  176.6800  143.8040 C   0  0  0  0  0  3  0  0  0  0  0  0
  188.9370  176.6550  142.5320 C   0  0  0  0  0  3  0  0  0  0  0  0
  187.1770  178.0050  142.4980 O   0  0  0  0  0  0  0  0  0  0  0  0
  188.1410  177.4970  141.7750 C   0  0  0  0  0  0  0  0  0  0  0  0
  187.3010  177.5320  143.7120 C   0  0  0  0  0  0  0  0  0  0  0  0
  1 14  1  0  0  0  0
  1 30  1  0  0  0  0
  2  3  1  0  0  0  0
  3 10  1  0  0  0  0
  4 16  2  0  0  0  0
  5 10  1  0  0  0  0
  6  4  1  0  0  0  0
  7  5  1  0  0  0  0
  8  5  2  0  0  0  0
  9 11  2  0  0  0  0
  9 17  1  0  0  0  0
 10  1  2  0  0  0  0
 11 13  1  0  0  0  0
 12 17  1  0  0  0  0
 13  3  2  0  0  0  0
 13  4  1  0  0  0  0
 15  8  1  0  0  0  0
 15  2  2  0  0  0  0
 16 14  1  0  0  0  0
 17  6  2  0  0  0  0
 18 29  2  0  0  0  0
 20 22  1  0  0  0  0
 22 24  2  0  0  0  0
 22 19  2  0  0  0  0
 23 27  1  0  0  0  0
 23 18  1  0  0  0  0
 25 18  1  0  0  0  0
 25 26  1  0  0  0  0
 26  8  1  0  0  0  0
 26 28  2  0  0  0  0
 27 21  1  1  0  0  0
 27 20  1  0  0  0  0
 29 28  1  0  0  0  0
 29 22  1  0  0  0  0
 30 35  1  0  0  0  0
 33 32  1  0  0  0  0
 34 36  1  0  0  0  0
 35 34  1  0  0  0  0
 35 33  2  0  0  0  0
 36 32  2  0  0  0  0
 36 31  1  0  0  0  0
M  END
>  <MODEL>
9

>  <REMARK>
 VINA RESULT:      -7.5      5.524      8.927
  Name = 
  3 active torsions:
  status: ('A' for Active; 'I' for Inactive)
    1  A    between atoms: C_1  and  N_30
    2  A    between atoms: C_18  and  C_29
    3  A    between atoms: N_30  and  C_32
                            x       y       z     vdW  Elec       q    Type
                         _______ _______ _______ _____ _____    ______ ____

>  <TORSDO>
F 3

$$$$
