=
 OpenBabel10222418293D

 49 55  0  0  1  0  0  0  0  0999 V2000
  186.4570  174.0430  135.9420 N   0  0  0  0  0  0  0  0  0  0  0  0
  187.4590  174.3790  135.1900 C   0  0  0  0  0  3  0  0  0  0  0  0
  191.2960  177.0560  139.5460 C   0  0  0  0  0  1  0  0  0  0  0  0
  188.9190  177.0170  138.7260 C   0  0  0  0  0  0  0  0  0  0  0  0
  187.4070  175.9360  136.9310 C   0  0  0  0  0  0  0  0  0  0  0  0
  186.3140  174.9270  137.1020 C   0  0  1  0  0  3  0  0  0  0  0  0
  189.2430  176.0440  135.2940 N   0  0  0  0  0  0  0  0  0  0  0  0
  188.0720  176.4630  137.9120 C   0  0  0  0  0  0  0  0  0  0  0  0
  190.3440  176.9040  138.4350 N   0  0  0  0  0  0  0  0  0  0  0  0
  189.9370  177.1910  135.8990 C   0  0  0  0  0  2  0  0  0  0  0  0
  188.1180  175.5470  135.7310 C   0  0  0  0  0  0  0  0  0  0  0  0
  190.9110  176.7930  137.0530 C   0  0  2  0  0  3  0  0  0  0  0  0
  182.4920  176.8900  137.2220 C   0  0  0  0  0  0  0  0  0  0  0  0
  183.8290  173.0430  137.2370 S   0  0  0  0  0  1  0  0  0  0  0  0
  184.8650  176.9900  137.1300 C   0  0  0  0  0  3  0  0  0  0  0  0
  182.5400  175.4880  137.2560 C   0  0  0  0  0  0  0  0  0  0  0  0
  183.7780  174.8360  137.1960 C   0  0  0  0  0  0  0  0  0  0  0  0
  181.3980  174.7640  137.3720 F   0  0  0  0  0  0  0  0  0  0  0  0
  184.9620  175.5930  137.1180 C   0  0  0  0  0  0  0  0  0  0  0  0
  183.6530  177.5980  137.1810 N   0  0  0  0  0  0  0  0  0  0  0  0
  181.2810  178.9660  136.6430 C   0  0  0  0  0  2  0  0  0  0  0  0
  181.1880  177.6270  137.3550 C   0  0  0  0  0  3  0  0  0  0  0  0
  180.5360  177.8260  135.9950 C   0  0  0  0  0  2  0  0  0  0  0  0
  193.9270  175.5330  137.4540 C   0  0  0  0  0  0  0  0  0  0  0  0
  191.6530  175.5250  136.8220 N   0  0  0  0  0  0  0  0  0  0  0  0
  195.7380  174.8000  136.6310 N   0  0  0  0  0  0  0  0  0  0  0  0
  192.5670  175.2930  137.9630 C   0  0  0  0  0  2  0  0  0  0  0  0
  195.0720  174.9030  137.7780 N   0  0  0  0  0  0  0  0  0  0  0  0
  193.9070  175.7470  136.1440 C   0  0  0  0  0  0  0  0  0  0  0  0
  195.0300  175.2410  135.5960 N   0  0  0  0  0  0  0  0  0  0  0  0
  192.5310  175.6630  135.6290 C   0  0  0  0  0  2  0  0  0  0  0  0
  197.1100  174.2970  136.5530 C   0  0  0  0  0  2  0  0  0  0  0  0
  197.7600  174.1050  137.9270 C   0  0  0  0  0  2  0  0  0  0  0  0
  198.3420  175.2760  139.7230 C   0  0  0  0  0  1  0  0  0  0  0  0
  198.4110  175.2730  138.3330 O   0  0  0  0  0  0  0  0  0  0  0  0
  188.7260  179.2840  139.4270 O   0  0  0  0  0  0  0  0  0  0  0  0
  188.4240  178.0740  139.6300 C   0  0  0  0  0  0  0  0  0  0  0  0
  187.6210  177.7250  140.7170 O   0  0  0  0  0  0  0  0  0  0  0  0
  189.0830  177.5340  144.6590 C   0  0  0  0  0  0  0  0  0  0  0  0
  189.2530  178.3500  142.3770 C   0  0  0  0  0  3  0  0  0  0  0  0
  189.7510  178.2870  143.6820 C   0  0  0  0  0  3  0  0  0  0  0  0
  187.4480  176.8630  143.0110 C   0  0  0  0  0  3  0  0  0  0  0  0
  188.0880  177.6520  142.0340 C   0  0  0  0  0  0  0  0  0  0  0  0
  187.9390  176.8110  144.3140 C   0  0  0  0  0  3  0  0  0  0  0  0
  189.5500  177.5110  146.0590 C   0  0  0  0  0  0  0  0  0  0  0  0
  189.2240  178.0460  148.5060 C   0  0  0  0  0  1  0  0  0  0  0  0
  188.7030  177.9860  147.1440 N   0  0  0  0  0  0  0  0  0  0  0  0
  187.2620  178.0620  146.9880 C   0  0  0  0  0  1  0  0  0  0  0  0
  190.7050  177.0290  146.3070 O   0  0  0  0  0  0  0  0  0  0  0  0
  1  6  1  0  0  0  0
  2 11  1  0  0  0  0
  2  1  2  0  0  0  0
  4 37  1  0  0  0  0
  5  6  1  0  0  0  0
  5  8  2  0  0  0  0
  6 19  1  6  0  0  0
  7 11  2  0  0  0  0
  7 10  1  0  0  0  0
  8  4  2  0  0  0  0
  9  4  1  0  0  0  0
  9  3  1  0  0  0  0
 11  5  1  0  0  0  0
 12 10  1  6  0  0  0
 12  9  1  0  0  0  0
 13 16  1  0  0  0  0
 13 22  1  0  0  0  0
 15 20  1  0  0  0  0
 16 18  1  0  0  0  0
 17 14  1  0  0  0  0
 17 16  2  0  0  0  0
 19 15  2  0  0  0  0
 19 17  1  0  0  0  0
 20 13  2  0  0  0  0
 21 22  1  0  0  0  0
 23 21  1  0  0  0  0
 23 22  1  0  0  0  0
 24 28  2  0  0  0  0
 24 27  1  0  0  0  0
 25 12  1  0  0  0  0
 25 27  1  0  0  0  0
 26 28  1  0  0  0  0
 29 24  1  0  0  0  0
 30 29  2  0  0  0  0
 30 26  1  0  0  0  0
 31 29  1  0  0  0  0
 31 25  1  0  0  0  0
 32 26  1  0  0  0  0
 32 33  1  0  0  0  0
 33 35  1  0  0  0  0
 35 34  1  0  0  0  0
 36 37  2  0  0  0  0
 37 38  1  0  0  0  0
 38 43  1  0  0  0  0
 39 45  1  0  0  0  0
 40 41  1  0  0  0  0
 41 39  2  0  0  0  0
 42 44  2  0  0  0  0
 43 40  2  0  0  0  0
 43 42  1  0  0  0  0
 44 39  1  0  0  0  0
 45 49  2  0  0  0  0
 45 47  1  0  0  0  0
 47 46  1  0  0  0  0
 48 47  1  0  0  0  0
M  END
>  <MODEL>
1

>  <REMARK>
 VINA RESULT:      -8.1      0.000      0.000
  Name = 
  10 active torsions:
  status: ('A' for Active; 'I' for Inactive)
    1  A    between atoms: C_1  and  C_7
    2  A    between atoms: C_2  and  C_10
    3  A    between atoms: N_5  and  C_47
    4  A    between atoms: C_11  and  C_18
    5  A    between atoms: C_11  and  O_29
    6  A    between atoms: O_12  and  C_32
    7  A    between atoms: O_12  and  C_42
    8  A    between atoms: N_14  and  C_18
    9  A    between atoms: C_16  and  C_42
   10  A    between atoms: C_22  and  C_39
                            x       y       z     vdW  Elec       q    Type
                         _______ _______ _______ _____ _____    ______ ____

>  <TORSDO>
F 10

$$$$
=
 OpenBabel10222418293D

 49 55  0  0  1  0  0  0  0  0999 V2000
  192.0280  175.7870  134.5960 N   0  0  0  0  0  0  0  0  0  0  0  0
  190.8110  175.3390  134.5940 C   0  0  0  0  0  3  0  0  0  0  0  0
  188.4650  178.4070  139.6870 C   0  0  0  0  0  1  0  0  0  0  0  0
  190.4280  177.0480  138.8980 C   0  0  0  0  0  0  0  0  0  0  0  0
  191.3280  175.7940  136.8260 C   0  0  0  0  0  0  0  0  0  0  0  0
  192.4860  176.1410  135.9430 C   0  0  1  0  0  3  0  0  0  0  0  0
  189.0480  175.0560  136.2610 N   0  0  0  0  0  0  0  0  0  0  0  0
  190.9920  176.4640  137.8850 C   0  0  0  0  0  0  0  0  0  0  0  0
  188.9990  177.3380  138.8300 N   0  0  0  0  0  0  0  0  0  0  0  0
  188.5140  175.1010  137.6300 C   0  0  0  0  0  2  0  0  0  0  0  0
  190.2870  175.3120  135.9410 C   0  0  0  0  0  0  0  0  0  0  0  0
  188.0130  176.5170  138.0580 C   0  0  2  0  0  3  0  0  0  0  0  0
  195.9520  173.8970  137.1360 C   0  0  0  0  0  0  0  0  0  0  0  0
  195.2260  177.2510  134.9410 S   0  0  0  0  0  1  0  0  0  0  0  0
  193.5980  174.2220  137.1420 C   0  0  0  0  0  3  0  0  0  0  0  0
  196.1220  175.0510  136.3550 C   0  0  0  0  0  0  0  0  0  0  0  0
  194.9990  175.7790  135.9420 C   0  0  0  0  0  0  0  0  0  0  0  0
  197.3660  175.4780  136.0210 F   0  0  0  0  0  0  0  0  0  0  0  0
  193.7130  175.3550  136.3260 C   0  0  0  0  0  0  0  0  0  0  0  0
  194.7010  173.5300  137.5220 N   0  0  0  0  0  0  0  0  0  0  0  0
  196.8880  171.6390  137.5030 C   0  0  0  0  0  2  0  0  0  0  0  0
  197.1360  173.1300  137.6570 C   0  0  0  0  0  3  0  0  0  0  0  0
  197.8090  172.3470  136.5400 C   0  0  0  0  0  2  0  0  0  0  0  0
  184.9730  177.3010  137.0670 C   0  0  0  0  0  0  0  0  0  0  0  0
  187.3310  177.2800  136.9790 N   0  0  0  0  0  0  0  0  0  0  0  0
  183.3950  177.1310  135.6610 N   0  0  0  0  0  0  0  0  0  0  0  0
  186.1730  177.9950  137.5610 C   0  0  0  0  0  2  0  0  0  0  0  0
  183.7760  177.8200  136.7330 N   0  0  0  0  0  0  0  0  0  0  0  0
  185.3000  176.3660  136.1830 C   0  0  0  0  0  0  0  0  0  0  0  0
  184.3300  176.2800  135.2500 N   0  0  0  0  0  0  0  0  0  0  0  0
  186.7570  176.3390  135.9790 C   0  0  0  0  0  2  0  0  0  0  0  0
  182.0740  177.2790  135.0500 C   0  0  0  0  0  2  0  0  0  0  0  0
  181.0670  176.2300  135.5330 C   0  0  0  0  0  2  0  0  0  0  0  0
  181.3840  174.2140  136.4100 C   0  0  0  0  0  1  0  0  0  0  0  0
  181.5440  175.5730  136.6690 O   0  0  0  0  0  0  0  0  0  0  0  0
  192.1260  177.7260  140.4230 O   0  0  0  0  0  0  0  0  0  0  0  0
  191.1180  176.9970  140.2020 C   0  0  0  0  0  0  0  0  0  0  0  0
  190.6480  176.1310  141.1910 O   0  0  0  0  0  0  0  0  0  0  0  0
  188.7310  177.3960  144.7170 C   0  0  0  0  0  0  0  0  0  0  0  0
  188.7830  176.0230  142.7130 C   0  0  0  0  0  3  0  0  0  0  0  0
  188.1350  176.4430  143.8790 C   0  0  0  0  0  3  0  0  0  0  0  0
  190.6010  177.5510  143.1940 C   0  0  0  0  0  3  0  0  0  0  0  0
  190.0300  176.5610  142.3700 C   0  0  0  0  0  0  0  0  0  0  0  0
  189.9590  177.9590  144.3620 C   0  0  0  0  0  3  0  0  0  0  0  0
  188.0990  177.8010  145.9880 C   0  0  0  0  0  0  0  0  0  0  0  0
  187.9570  177.7240  148.5090 C   0  0  0  0  0  1  0  0  0  0  0  0
  188.6560  177.3950  147.2700 N   0  0  0  0  0  0  0  0  0  0  0  0
  190.0470  176.9960  147.3870 C   0  0  0  0  0  1  0  0  0  0  0  0
  187.0650  178.5490  145.9420 O   0  0  0  0  0  0  0  0  0  0  0  0
  1  6  1  0  0  0  0
  2  1  2  0  0  0  0
  2 11  1  0  0  0  0
  4 37  1  0  0  0  0
  5  8  2  0  0  0  0
  6 19  1  1  0  0  0
  6  5  1  0  0  0  0
  7 10  1  0  0  0  0
  8  4  2  0  0  0  0
  9  4  1  0  0  0  0
  9  3  1  0  0  0  0
 10 12  1  0  0  0  0
 11  7  2  0  0  0  0
 11  5  1  0  0  0  0
 12 25  1  6  0  0  0
 12  9  1  0  0  0  0
 13 20  1  0  0  0  0
 13 22  1  0  0  0  0
 14 17  1  0  0  0  0
 15 20  2  0  0  0  0
 16 13  2  0  0  0  0
 17 19  2  0  0  0  0
 17 16  1  0  0  0  0
 18 16  1  0  0  0  0
 19 15  1  0  0  0  0
 21 22  1  0  0  0  0
 23 21  1  0  0  0  0
 23 22  1  0  0  0  0
 24 27  1  0  0  0  0
 25 27  1  0  0  0  0
 26 28  1  0  0  0  0
 28 24  2  0  0  0  0
 29 24  1  0  0  0  0
 30 26  1  0  0  0  0
 30 29  2  0  0  0  0
 31 29  1  0  0  0  0
 31 25  1  0  0  0  0
 32 33  1  0  0  0  0
 32 26  1  0  0  0  0
 33 35  1  0  0  0  0
 34 35  1  0  0  0  0
 37 36  2  0  0  0  0
 37 38  1  0  0  0  0
 38 43  1  0  0  0  0
 39 45  1  0  0  0  0
 40 41  1  0  0  0  0
 41 39  2  0  0  0  0
 42 44  2  0  0  0  0
 43 40  2  0  0  0  0
 43 42  1  0  0  0  0
 44 39  1  0  0  0  0
 45 47  1  0  0  0  0
 47 48  1  0  0  0  0
 47 46  1  0  0  0  0
 49 45  2  0  0  0  0
M  END
>  <MODEL>
2

>  <REMARK>
 VINA RESULT:      -8.0      3.543      9.206
  Name = 
  10 active torsions:
  status: ('A' for Active; 'I' for Inactive)
    1  A    between atoms: C_1  and  C_7
    2  A    between atoms: C_2  and  C_10
    3  A    between atoms: N_5  and  C_47
    4  A    between atoms: C_11  and  C_18
    5  A    between atoms: C_11  and  O_29
    6  A    between atoms: O_12  and  C_32
    7  A    between atoms: O_12  and  C_42
    8  A    between atoms: N_14  and  C_18
    9  A    between atoms: C_16  and  C_42
   10  A    between atoms: C_22  and  C_39
                            x       y       z     vdW  Elec       q    Type
                         _______ _______ _______ _____ _____    ______ ____

>  <TORSDO>
F 10

$$$$
=
 OpenBabel10222418293D

 49 55  0  0  1  0  0  0  0  0999 V2000
  185.1610  175.7110  135.9490 N   0  0  0  0  0  0  0  0  0  0  0  0
  186.1010  176.0360  135.1180 C   0  0  0  0  0  3  0  0  0  0  0  0
  191.0710  176.4100  139.1210 C   0  0  0  0  0  1  0  0  0  0  0  0
  188.6770  177.1240  138.8300 C   0  0  0  0  0  0  0  0  0  0  0  0
  186.7010  176.9750  137.1710 C   0  0  0  0  0  0  0  0  0  0  0  0
  185.4160  176.2170  137.3010 C   0  0  1  0  0  3  0  0  0  0  0  0
  188.2560  177.1760  135.2730 N   0  0  0  0  0  0  0  0  0  0  0  0
  187.6110  177.0310  138.0940 C   0  0  0  0  0  0  0  0  0  0  0  0
  189.9690  176.8030  138.2300 N   0  0  0  0  0  0  0  0  0  0  0  0
  189.3040  177.9150  135.9940 C   0  0  0  0  0  2  0  0  0  0  0  0
  187.1120  176.8210  135.7910 C   0  0  0  0  0  0  0  0  0  0  0  0
  190.2890  176.9930  136.7790 C   0  0  2  0  0  3  0  0  0  0  0  0
  182.3000  178.8230  138.7060 C   0  0  0  0  0  0  0  0  0  0  0  0
  182.6030  174.9060  137.6280 S   0  0  0  0  0  1  0  0  0  0  0  0
  184.5650  178.4570  138.0840 C   0  0  0  0  0  3  0  0  0  0  0  0
  181.9980  177.4780  138.4420 C   0  0  0  0  0  0  0  0  0  0  0  0
  182.9990  176.6240  137.9650 C   0  0  0  0  0  0  0  0  0  0  0  0
  180.7500  176.9960  138.6730 F   0  0  0  0  0  0  0  0  0  0  0  0
  184.3020  177.1190  137.7660 C   0  0  0  0  0  0  0  0  0  0  0  0
  183.5750  179.2660  138.5390 N   0  0  0  0  0  0  0  0  0  0  0  0
  181.4480  181.1440  138.7020 C   0  0  0  0  0  2  0  0  0  0  0  0
  181.2700  179.7520  139.2860 C   0  0  0  0  0  3  0  0  0  0  0  0
  180.3290  180.2620  138.2050 C   0  0  0  0  0  2  0  0  0  0  0  0
  192.7720  174.8420  136.5490 C   0  0  0  0  0  0  0  0  0  0  0  0
  190.6340  175.7250  136.0830 N   0  0  0  0  0  0  0  0  0  0  0  0
  194.3250  173.9400  135.4220 N   0  0  0  0  0  0  0  0  0  0  0  0
  191.3770  174.8530  137.0200 C   0  0  0  0  0  2  0  0  0  0  0  0
  193.6600  173.8310  136.5700 N   0  0  0  0  0  0  0  0  0  0  0  0
  192.8850  175.4920  135.3970 C   0  0  0  0  0  0  0  0  0  0  0  0
  193.8340  174.9000  134.6450 N   0  0  0  0  0  0  0  0  0  0  0  0
  191.5740  176.0020  134.9630 C   0  0  0  0  0  2  0  0  0  0  0  0
  195.4880  173.1140  135.0980 C   0  0  0  0  0  2  0  0  0  0  0  0
  196.6310  173.2600  136.1080 C   0  0  0  0  0  2  0  0  0  0  0  0
  198.3070  174.6820  135.7880 C   0  0  0  0  0  1  0  0  0  0  0  0
  196.9960  174.6010  136.2500 O   0  0  0  0  0  0  0  0  0  0  0  0
  187.5940  178.6570  140.2930 O   0  0  0  0  0  0  0  0  0  0  0  0
  188.6080  177.9420  140.0560 C   0  0  0  0  0  0  0  0  0  0  0  0
  189.6770  177.9230  140.9530 O   0  0  0  0  0  0  0  0  0  0  0  0
  189.1690  177.4330  145.1020 C   0  0  0  0  0  0  0  0  0  0  0  0
  188.5740  176.8640  142.8160 C   0  0  0  0  0  3  0  0  0  0  0  0
  188.3930  176.7000  144.1920 C   0  0  0  0  0  3  0  0  0  0  0  0
  190.2710  178.5360  143.2560 C   0  0  0  0  0  3  0  0  0  0  0  0
  189.5270  177.7710  142.3360 C   0  0  0  0  0  0  0  0  0  0  0  0
  190.0970  178.3630  144.6280 C   0  0  0  0  0  3  0  0  0  0  0  0
  189.0440  177.2240  146.5580 C   0  0  0  0  0  0  0  0  0  0  0  0
  187.8990  177.6690  148.7650 C   0  0  0  0  0  1  0  0  0  0  0  0
  187.9450  177.8080  147.3120 N   0  0  0  0  0  0  0  0  0  0  0  0
  186.7150  178.2070  146.6520 C   0  0  0  0  0  1  0  0  0  0  0  0
  189.9070  176.4860  147.1420 O   0  0  0  0  0  0  0  0  0  0  0  0
  1  6  1  0  0  0  0
  2 11  1  0  0  0  0
  2  1  2  0  0  0  0
  4 37  1  0  0  0  0
  5  6  1  0  0  0  0
  5  8  2  0  0  0  0
  6 19  1  6  0  0  0
  7 11  2  0  0  0  0
  7 10  1  0  0  0  0
  8  4  2  0  0  0  0
  9  4  1  0  0  0  0
  9  3  1  0  0  0  0
 11  5  1  0  0  0  0
 12 10  1  6  0  0  0
 12  9  1  0  0  0  0
 13 22  1  0  0  0  0
 14 17  1  0  0  0  0
 15 20  2  0  0  0  0
 16 18  1  0  0  0  0
 16 13  2  0  0  0  0
 17 16  1  0  0  0  0
 19 17  2  0  0  0  0
 19 15  1  0  0  0  0
 20 13  1  0  0  0  0
 21 22  1  0  0  0  0
 23 21  1  0  0  0  0
 23 22  1  0  0  0  0
 24 28  2  0  0  0  0
 24 27  1  0  0  0  0
 25 12  1  0  0  0  0
 25 27  1  0  0  0  0
 26 28  1  0  0  0  0
 29 24  1  0  0  0  0
 30 29  2  0  0  0  0
 30 26  1  0  0  0  0
 31 29  1  0  0  0  0
 31 25  1  0  0  0  0
 32 26  1  0  0  0  0
 32 33  1  0  0  0  0
 33 35  1  0  0  0  0
 34 35  1  0  0  0  0
 37 36  2  0  0  0  0
 37 38  1  0  0  0  0
 38 43  1  0  0  0  0
 39 45  1  0  0  0  0
 40 41  1  0  0  0  0
 41 39  2  0  0  0  0
 42 44  2  0  0  0  0
 43 40  2  0  0  0  0
 43 42  1  0  0  0  0
 44 39  1  0  0  0  0
 45 49  2  0  0  0  0
 45 47  1  0  0  0  0
 47 46  1  0  0  0  0
 48 47  1  0  0  0  0
M  END
>  <MODEL>
3

>  <REMARK>
 VINA RESULT:      -7.9      1.588      1.936
  Name = 
  10 active torsions:
  status: ('A' for Active; 'I' for Inactive)
    1  A    between atoms: C_1  and  C_7
    2  A    between atoms: C_2  and  C_10
    3  A    between atoms: N_5  and  C_47
    4  A    between atoms: C_11  and  C_18
    5  A    between atoms: C_11  and  O_29
    6  A    between atoms: O_12  and  C_32
    7  A    between atoms: O_12  and  C_42
    8  A    between atoms: N_14  and  C_18
    9  A    between atoms: C_16  and  C_42
   10  A    between atoms: C_22  and  C_39
                            x       y       z     vdW  Elec       q    Type
                         _______ _______ _______ _____ _____    ______ ____

>  <TORSDO>
F 10

$$$$
=
 OpenBabel10222418293D

 49 55  0  0  1  0  0  0  0  0999 V2000
  185.3150  176.4250  135.1720 N   0  0  0  0  0  0  0  0  0  0  0  0
  184.1910  175.8310  135.4270 C   0  0  0  0  0  3  0  0  0  0  0  0
  181.9210  179.6430  140.0300 C   0  0  0  0  0  1  0  0  0  0  0  0
  183.9830  178.4100  139.2880 C   0  0  0  0  0  0  0  0  0  0  0  0
  184.8540  176.8460  137.4240 C   0  0  0  0  0  0  0  0  0  0  0  0
  185.8460  177.1330  136.3400 C   0  0  1  0  0  3  0  0  0  0  0  0
  182.6740  175.7060  137.3380 N   0  0  0  0  0  0  0  0  0  0  0  0
  184.5260  177.6890  138.3540 C   0  0  0  0  0  0  0  0  0  0  0  0
  182.5270  178.4860  139.3540 N   0  0  0  0  0  0  0  0  0  0  0  0
  182.2820  175.9910  138.7260 C   0  0  0  0  0  2  0  0  0  0  0  0
  183.8180  176.0440  136.8080 C   0  0  0  0  0  0  0  0  0  0  0  0
  181.6100  177.3890  138.9100 C   0  0  2  0  0  3  0  0  0  0  0  0
  189.7050  175.6080  137.4620 C   0  0  0  0  0  0  0  0  0  0  0  0
  187.9370  179.2700  137.2360 S   0  0  0  0  0  1  0  0  0  0  0  0
  187.4820  175.2490  136.7020 C   0  0  0  0  0  3  0  0  0  0  0  0
  189.4720  176.9900  137.5310 C   0  0  0  0  0  0  0  0  0  0  0  0
  188.2260  177.5020  137.1480 C   0  0  0  0  0  0  0  0  0  0  0  0
  190.4360  177.8280  137.9890 F   0  0  0  0  0  0  0  0  0  0  0  0
  187.2150  176.6230  136.7120 C   0  0  0  0  0  0  0  0  0  0  0  0
  188.7000  174.7790  137.0710 N   0  0  0  0  0  0  0  0  0  0  0  0
  191.3980  173.8610  137.0240 C   0  0  0  0  0  2  0  0  0  0  0  0
  191.0050  175.0150  137.9320 C   0  0  0  0  0  3  0  0  0  0  0  0
  192.0920  175.1920  136.8830 C   0  0  0  0  0  2  0  0  0  0  0  0
  180.8810  180.0340  137.0900 C   0  0  0  0  0  0  0  0  0  0  0  0
  180.7090  177.7890  137.7970 N   0  0  0  0  0  0  0  0  0  0  0  0
  179.5230  181.5610  136.5250 N   0  0  0  0  0  0  0  0  0  0  0  0
  181.4490  178.6910  136.8860 C   0  0  0  0  0  2  0  0  0  0  0  0
  180.6870  181.0130  136.1860 N   0  0  0  0  0  0  0  0  0  0  0  0
  179.8340  179.9830  137.9040 C   0  0  0  0  0  0  0  0  0  0  0  0
  178.9360  180.9150  137.5270 N   0  0  0  0  0  0  0  0  0  0  0  0
  179.5780  178.5970  138.3270 C   0  0  0  0  0  2  0  0  0  0  0  0
  178.9950  182.7640  135.8820 C   0  0  0  0  0  2  0  0  0  0  0  0
  179.0010  183.9900  136.8010 C   0  0  0  0  0  2  0  0  0  0  0  0
  181.0910  184.7320  136.6830 C   0  0  0  0  0  1  0  0  0  0  0  0
  180.1980  184.0650  137.5170 O   0  0  0  0  0  0  0  0  0  0  0  0
  185.7760  179.5450  140.3670 O   0  0  0  0  0  0  0  0  0  0  0  0
  184.8020  178.7490  140.4690 C   0  0  0  0  0  0  0  0  0  0  0  0
  184.4920  178.1750  141.7040 O   0  0  0  0  0  0  0  0  0  0  0  0
  187.3180  177.6280  144.7730 C   0  0  0  0  0  0  0  0  0  0  0  0
  186.6080  177.3150  142.4710 C   0  0  0  0  0  3  0  0  0  0  0  0
  187.5500  177.1220  143.4860 C   0  0  0  0  0  3  0  0  0  0  0  0
  185.1750  178.4750  144.0430 C   0  0  0  0  0  3  0  0  0  0  0  0
  185.4200  178.0080  142.7370 C   0  0  0  0  0  0  0  0  0  0  0  0
  186.1200  178.2920  145.0510 C   0  0  0  0  0  3  0  0  0  0  0  0
  188.3290  177.4990  145.8410 C   0  0  0  0  0  0  0  0  0  0  0  0
  190.7280  177.2660  146.5960 C   0  0  0  0  0  1  0  0  0  0  0  0
  189.7520  177.4960  145.5350 N   0  0  0  0  0  0  0  0  0  0  0  0
  190.2510  178.0640  144.2960 C   0  0  0  0  0  1  0  0  0  0  0  0
  187.9290  177.4240  147.0510 O   0  0  0  0  0  0  0  0  0  0  0  0
  1  2  2  0  0  0  0
  1  6  1  0  0  0  0
  2 11  1  0  0  0  0
  4  9  1  0  0  0  0
  4 37  1  0  0  0  0
  5  8  2  0  0  0  0
  6 19  1  1  0  0  0
  6  5  1  0  0  0  0
  7 10  1  0  0  0  0
  8  4  2  0  0  0  0
  9  3  1  0  0  0  0
 10 12  1  0  0  0  0
 11  7  2  0  0  0  0
 11  5  1  0  0  0  0
 12 25  1  6  0  0  0
 12  9  1  0  0  0  0
 13 16  1  0  0  0  0
 13 22  1  0  0  0  0
 15 19  2  0  0  0  0
 15 20  1  0  0  0  0
 16 18  1  0  0  0  0
 17 14  1  0  0  0  0
 17 16  2  0  0  0  0
 19 17  1  0  0  0  0
 20 13  2  0  0  0  0
 21 22  1  0  0  0  0
 23 21  1  0  0  0  0
 23 22  1  0  0  0  0
 24 29  1  0  0  0  0
 25 31  1  0  0  0  0
 26 30  1  0  0  0  0
 27 24  1  0  0  0  0
 27 25  1  0  0  0  0
 28 26  1  0  0  0  0
 28 24  2  0  0  0  0
 29 31  1  0  0  0  0
 30 29  2  0  0  0  0
 32 26  1  0  0  0  0
 32 33  1  0  0  0  0
 33 35  1  0  0  0  0
 34 35  1  0  0  0  0
 36 37  2  0  0  0  0
 37 38  1  0  0  0  0
 38 43  1  0  0  0  0
 39 44  1  0  0  0  0
 39 45  1  0  0  0  0
 40 43  2  0  0  0  0
 40 41  1  0  0  0  0
 41 39  2  0  0  0  0
 42 44  2  0  0  0  0
 43 42  1  0  0  0  0
 45 49  2  0  0  0  0
 47 45  1  0  0  0  0
 47 46  1  0  0  0  0
 48 47  1  0  0  0  0
M  END
>  <MODEL>
4

>  <REMARK>
 VINA RESULT:      -7.3      3.800      9.726
  Name = 
  10 active torsions:
  status: ('A' for Active; 'I' for Inactive)
    1  A    between atoms: C_1  and  C_7
    2  A    between atoms: C_2  and  C_10
    3  A    between atoms: N_5  and  C_47
    4  A    between atoms: C_11  and  C_18
    5  A    between atoms: C_11  and  O_29
    6  A    between atoms: O_12  and  C_32
    7  A    between atoms: O_12  and  C_42
    8  A    between atoms: N_14  and  C_18
    9  A    between atoms: C_16  and  C_42
   10  A    between atoms: C_22  and  C_39
                            x       y       z     vdW  Elec       q    Type
                         _______ _______ _______ _____ _____    ______ ____

>  <TORSDO>
F 10

$$$$
=
 OpenBabel10222418293D

 49 55  0  0  1  0  0  0  0  0999 V2000
  190.8850  177.9140  141.7670 N   0  0  0  0  0  0  0  0  0  0  0  0
  191.3850  176.9830  141.0160 C   0  0  0  0  0  3  0  0  0  0  0  0
  188.1510  178.0400  135.6040 C   0  0  0  0  0  1  0  0  0  0  0  0
  187.8660  177.7880  138.0890 C   0  0  0  0  0  0  0  0  0  0  0  0
  189.2050  177.3290  140.2510 C   0  0  0  0  0  0  0  0  0  0  0  0
  189.5120  178.2570  141.3850 C   0  0  1  0  0  3  0  0  0  0  0  0
  190.6520  175.7480  139.0400 N   0  0  0  0  0  0  0  0  0  0  0  0
  188.4680  177.6430  139.2300 C   0  0  0  0  0  0  0  0  0  0  0  0
  188.5840  177.4300  136.8700 N   0  0  0  0  0  0  0  0  0  0  0  0
  189.6710  175.3800  138.0080 C   0  0  0  0  0  2  0  0  0  0  0  0
  190.4120  176.5590  140.0340 C   0  0  0  0  0  0  0  0  0  0  0  0
  189.6370  176.3680  136.7990 C   0  0  2  0  0  3  0  0  0  0  0  0
  186.7290  177.7280  144.6180 C   0  0  0  0  0  0  0  0  0  0  0  0
  190.7740  178.0140  144.2290 S   0  0  0  0  0  1  0  0  0  0  0  0
  187.1750  178.0210  142.3020 C   0  0  0  0  0  3  0  0  0  0  0  0
  188.1030  177.7890  144.9030 C   0  0  0  0  0  0  0  0  0  0  0  0
  189.0200  177.9400  143.8560 C   0  0  0  0  0  0  0  0  0  0  0  0
  188.5420  177.7280  146.1860 F   0  0  0  0  0  0  0  0  0  0  0  0
  188.5560  178.0440  142.5310 C   0  0  0  0  0  0  0  0  0  0  0  0
  186.3060  177.8660  143.3330 N   0  0  0  0  0  0  0  0  0  0  0  0
  185.7020  178.9330  146.5170 C   0  0  0  0  0  2  0  0  0  0  0  0
  185.7110  177.6380  145.7210 C   0  0  0  0  0  3  0  0  0  0  0  0
  184.6030  178.6610  145.5210 C   0  0  0  0  0  2  0  0  0  0  0  0
  192.4930  175.2810  135.5730 C   0  0  0  0  0  0  0  0  0  0  0  0
  190.9690  176.8860  136.3910 N   0  0  0  0  0  0  0  0  0  0  0  0
  194.5650  174.8920  135.8040 N   0  0  0  0  0  0  0  0  0  0  0  0
  191.4000  176.1790  135.1640 C   0  0  0  0  0  2  0  0  0  0  0  0
  193.6000  174.9340  134.8890 N   0  0  0  0  0  0  0  0  0  0  0  0
  192.8170  175.4830  136.8450 C   0  0  0  0  0  0  0  0  0  0  0  0
  194.1420  175.2900  137.0000 N   0  0  0  0  0  0  0  0  0  0  0  0
  191.9830  176.5470  137.4250 C   0  0  0  0  0  2  0  0  0  0  0  0
  195.9160  174.4160  135.5100 C   0  0  0  0  0  2  0  0  0  0  0  0
  196.9600  175.5380  135.4950 C   0  0  0  0  0  2  0  0  0  0  0  0
  197.7180  174.2130  137.1090 C   0  0  0  0  0  1  0  0  0  0  0  0
  197.7030  175.5370  136.6780 O   0  0  0  0  0  0  0  0  0  0  0  0
  185.6960  176.9750  137.5450 O   0  0  0  0  0  0  0  0  0  0  0  0
  186.3930  177.8770  138.0880 C   0  0  0  0  0  0  0  0  0  0  0  0
  185.7730  178.9750  138.6890 O   0  0  0  0  0  0  0  0  0  0  0  0
  181.9390  178.7790  140.4150 C   0  0  0  0  0  0  0  0  0  0  0  0
  184.2190  177.9580  140.2250 C   0  0  0  0  0  3  0  0  0  0  0  0
  182.9460  177.8810  140.7990 C   0  0  0  0  0  3  0  0  0  0  0  0
  183.4640  179.7990  138.8420 C   0  0  0  0  0  3  0  0  0  0  0  0
  184.4940  178.9300  139.2540 C   0  0  0  0  0  0  0  0  0  0  0  0
  182.2000  179.7280  139.4230 C   0  0  0  0  0  3  0  0  0  0  0  0
  180.6110  178.7620  141.0580 C   0  0  0  0  0  0  0  0  0  0  0  0
  179.1550  178.7100  143.1210 C   0  0  0  0  0  1  0  0  0  0  0  0
  180.4740  178.8280  142.5050 N   0  0  0  0  0  0  0  0  0  0  0  0
  181.5390  179.3640  143.3330 C   0  0  0  0  0  1  0  0  0  0  0  0
  179.5750  178.7240  140.3130 O   0  0  0  0  0  0  0  0  0  0  0  0
  2  1  2  0  0  0  0
  3  9  1  0  0  0  0
  4  8  2  0  0  0  0
  5  6  1  0  0  0  0
  6  1  1  0  0  0  0
  6 19  1  1  0  0  0
  7 11  2  0  0  0  0
  8  5  2  0  0  0  0
  9  4  1  0  0  0  0
 10  7  1  0  0  0  0
 11  5  1  0  0  0  0
 11  2  1  0  0  0  0
 12 25  1  1  0  0  0
 12  9  1  0  0  0  0
 12 10  1  0  0  0  0
 13 16  1  0  0  0  0
 13 22  1  0  0  0  0
 15 19  2  0  0  0  0
 15 20  1  0  0  0  0
 16 18  1  0  0  0  0
 17 14  1  0  0  0  0
 17 16  2  0  0  0  0
 19 17  1  0  0  0  0
 20 13  2  0  0  0  0
 22 21  1  0  0  0  0
 23 22  1  0  0  0  0
 23 21  1  0  0  0  0
 24 29  1  0  0  0  0
 25 31  1  0  0  0  0
 26 30  1  0  0  0  0
 27 24  1  0  0  0  0
 27 25  1  0  0  0  0
 28 24  2  0  0  0  0
 28 26  1  0  0  0  0
 29 30  2  0  0  0  0
 29 31  1  0  0  0  0
 32 26  1  0  0  0  0
 33 32  1  0  0  0  0
 33 35  1  0  0  0  0
 35 34  1  0  0  0  0
 36 37  2  0  0  0  0
 37  4  1  0  0  0  0
 37 38  1  0  0  0  0
 38 43  1  0  0  0  0
 39 41  1  0  0  0  0
 39 45  1  0  0  0  0
 40 41  2  0  0  0  0
 42 43  2  0  0  0  0
 42 44  1  0  0  0  0
 43 40  1  0  0  0  0
 44 39  2  0  0  0  0
 45 47  1  0  0  0  0
 47 46  1  0  0  0  0
 47 48  1  0  0  0  0
 49 45  2  0  0  0  0
M  END
>  <MODEL>
5

>  <REMARK>
 VINA RESULT:      -7.1      3.643      6.606
  Name = 
  10 active torsions:
  status: ('A' for Active; 'I' for Inactive)
    1  A    between atoms: C_1  and  C_7
    2  A    between atoms: C_2  and  C_10
    3  A    between atoms: N_5  and  C_47
    4  A    between atoms: C_11  and  C_18
    5  A    between atoms: C_11  and  O_29
    6  A    between atoms: O_12  and  C_32
    7  A    between atoms: O_12  and  C_42
    8  A    between atoms: N_14  and  C_18
    9  A    between atoms: C_16  and  C_42
   10  A    between atoms: C_22  and  C_39
                            x       y       z     vdW  Elec       q    Type
                         _______ _______ _______ _____ _____    ______ ____

>  <TORSDO>
F 10

$$$$
=
 OpenBabel10222418293D

 49 55  0  0  1  0  0  0  0  0999 V2000
  186.1800  174.3600  135.5540 N   0  0  0  0  0  0  0  0  0  0  0  0
  187.2400  174.7430  134.9130 C   0  0  0  0  0  3  0  0  0  0  0  0
  190.6830  177.1340  139.7390 C   0  0  0  0  0  1  0  0  0  0  0  0
  188.3840  177.1490  138.7210 C   0  0  0  0  0  0  0  0  0  0  0  0
  187.0340  176.1850  136.7390 C   0  0  0  0  0  0  0  0  0  0  0  0
  185.9350  175.1680  136.7530 C   0  0  1  0  0  3  0  0  0  0  0  0
  189.0010  176.3970  135.2730 N   0  0  0  0  0  0  0  0  0  0  0  0
  187.6120  176.6490  137.8040 C   0  0  0  0  0  0  0  0  0  0  0  0
  189.8300  177.0530  138.5440 N   0  0  0  0  0  0  0  0  0  0  0  0
  189.6370  177.5020  136.0060 C   0  0  0  0  0  2  0  0  0  0  0  0
  187.8460  175.8730  135.5810 C   0  0  0  0  0  0  0  0  0  0  0  0
  190.5110  177.0300  137.2110 C   0  0  2  0  0  3  0  0  0  0  0  0
  182.1160  177.1380  136.6560 C   0  0  0  0  0  0  0  0  0  0  0  0
  183.4550  173.3320  137.2180 S   0  0  0  0  0  1  0  0  0  0  0  0
  184.4870  177.2170  136.5020 C   0  0  0  0  0  3  0  0  0  0  0  0
  182.1650  175.7560  136.8980 C   0  0  0  0  0  0  0  0  0  0  0  0
  183.4020  175.0990  136.9110 C   0  0  0  0  0  0  0  0  0  0  0  0
  181.0260  175.0610  137.1440 F   0  0  0  0  0  0  0  0  0  0  0  0
  184.5840  175.8330  136.6960 C   0  0  0  0  0  0  0  0  0  0  0  0
  183.2760  177.8290  136.4860 N   0  0  0  0  0  0  0  0  0  0  0  0
  180.5110  178.2970  138.1370 C   0  0  0  0  0  2  0  0  0  0  0  0
  180.8150  177.8900  136.7050 C   0  0  0  0  0  3  0  0  0  0  0  0
  181.0330  179.3230  137.1630 C   0  0  0  0  0  2  0  0  0  0  0  0
  193.5590  175.8340  137.5580 C   0  0  0  0  0  0  0  0  0  0  0  0
  191.2760  175.7800  136.9630 N   0  0  0  0  0  0  0  0  0  0  0  0
  195.3720  175.1420  136.7030 N   0  0  0  0  0  0  0  0  0  0  0  0
  192.2130  175.5640  138.0890 C   0  0  0  0  0  2  0  0  0  0  0  0
  194.7230  175.2280  137.8610 N   0  0  0  0  0  0  0  0  0  0  0  0
  193.5140  176.0520  136.2490 C   0  0  0  0  0  0  0  0  0  0  0  0
  194.6390  175.5710  135.6810 N   0  0  0  0  0  0  0  0  0  0  0  0
  192.1320  175.9400  135.7560 C   0  0  0  0  0  2  0  0  0  0  0  0
  196.7530  174.6690  136.6010 C   0  0  0  0  0  2  0  0  0  0  0  0
  197.3810  174.3480  137.9610 C   0  0  0  0  0  2  0  0  0  0  0  0
  198.1410  175.2530  139.8420 C   0  0  0  0  0  1  0  0  0  0  0  0
  198.0560  175.4610  138.4680 O   0  0  0  0  0  0  0  0  0  0  0  0
  188.4760  178.5610  140.6350 O   0  0  0  0  0  0  0  0  0  0  0  0
  187.8100  178.1470  139.6440 C   0  0  0  0  0  0  0  0  0  0  0  0
  186.5190  178.6280  139.4170 O   0  0  0  0  0  0  0  0  0  0  0  0
  183.5350  178.6520  142.3840 C   0  0  0  0  0  0  0  0  0  0  0  0
  185.8410  178.9960  141.6990 C   0  0  0  0  0  3  0  0  0  0  0  0
  184.8580  179.0000  142.6940 C   0  0  0  0  0  3  0  0  0  0  0  0
  184.1900  178.2430  140.0940 C   0  0  0  0  0  3  0  0  0  0  0  0
  185.5110  178.6340  140.3870 C   0  0  0  0  0  0  0  0  0  0  0  0
  183.2090  178.2580  141.0830 C   0  0  0  0  0  3  0  0  0  0  0  0
  182.4670  178.7180  143.4000 C   0  0  0  0  0  0  0  0  0  0  0  0
  180.0330  178.9330  144.0380 C   0  0  0  0  0  1  0  0  0  0  0  0
  181.0640  178.7680  143.0170 N   0  0  0  0  0  0  0  0  0  0  0  0
  180.6280  178.3030  141.7130 C   0  0  0  0  0  1  0  0  0  0  0  0
  182.7990  178.6930  144.6330 O   0  0  0  0  0  0  0  0  0  0  0  0
  1  6  1  0  0  0  0
  2  1  2  0  0  0  0
  2 11  1  0  0  0  0
  4 37  1  0  0  0  0
  5  6  1  0  0  0  0
  5  8  2  0  0  0  0
  6 19  1  6  0  0  0
  7 11  2  0  0  0  0
  7 10  1  0  0  0  0
  8  4  2  0  0  0  0
  9  4  1  0  0  0  0
  9  3  1  0  0  0  0
 11  5  1  0  0  0  0
 12 10  1  6  0  0  0
 12  9  1  0  0  0  0
 13 22  1  0  0  0  0
 13 16  1  0  0  0  0
 15 19  2  0  0  0  0
 16 17  2  0  0  0  0
 16 18  1  0  0  0  0
 17 14  1  0  0  0  0
 19 17  1  0  0  0  0
 20 15  1  0  0  0  0
 20 13  2  0  0  0  0
 22 23  1  0  0  0  0
 22 21  1  0  0  0  0
 23 21  1  0  0  0  0
 24 28  2  0  0  0  0
 24 27  1  0  0  0  0
 25 12  1  0  0  0  0
 25 27  1  0  0  0  0
 26 28  1  0  0  0  0
 29 24  1  0  0  0  0
 30 29  2  0  0  0  0
 30 26  1  0  0  0  0
 31 29  1  0  0  0  0
 31 25  1  0  0  0  0
 32 26  1  0  0  0  0
 32 33  1  0  0  0  0
 33 35  1  0  0  0  0
 35 34  1  0  0  0  0
 37 36  2  0  0  0  0
 38 37  1  0  0  0  0
 38 43  1  0  0  0  0
 39 41  1  0  0  0  0
 39 45  1  0  0  0  0
 40 41  2  0  0  0  0
 42 43  2  0  0  0  0
 42 44  1  0  0  0  0
 43 40  1  0  0  0  0
 44 39  2  0  0  0  0
 45 49  2  0  0  0  0
 47 45  1  0  0  0  0
 47 46  1  0  0  0  0
 48 47  1  0  0  0  0
M  END
>  <MODEL>
6

>  <REMARK>
 VINA RESULT:      -7.1      2.570      3.333
  Name = 
  10 active torsions:
  status: ('A' for Active; 'I' for Inactive)
    1  A    between atoms: C_1  and  C_7
    2  A    between atoms: C_2  and  C_10
    3  A    between atoms: N_5  and  C_47
    4  A    between atoms: C_11  and  C_18
    5  A    between atoms: C_11  and  O_29
    6  A    between atoms: O_12  and  C_32
    7  A    between atoms: O_12  and  C_42
    8  A    between atoms: N_14  and  C_18
    9  A    between atoms: C_16  and  C_42
   10  A    between atoms: C_22  and  C_39
                            x       y       z     vdW  Elec       q    Type
                         _______ _______ _______ _____ _____    ______ ____

>  <TORSDO>
F 10

$$$$
=
 OpenBabel10222418293D

 49 55  0  0  1  0  0  0  0  0999 V2000
  190.3810  178.1070  141.6540 N   0  0  0  0  0  0  0  0  0  0  0  0
  191.0550  177.1080  141.1760 C   0  0  0  0  0  3  0  0  0  0  0  0
  189.5520  177.5890  134.9820 C   0  0  0  0  0  1  0  0  0  0  0  0
  188.5530  177.5890  137.2890 C   0  0  0  0  0  0  0  0  0  0  0  0
  189.1980  177.3600  139.7810 C   0  0  0  0  0  0  0  0  0  0  0  0
  189.1850  178.4010  140.8580 C   0  0  1  0  0  3  0  0  0  0  0  0
  190.8960  175.6730  139.2050 N   0  0  0  0  0  0  0  0  0  0  0  0
  188.7960  177.5650  138.5650 C   0  0  0  0  0  0  0  0  0  0  0  0
  189.5850  177.1140  136.3730 N   0  0  0  0  0  0  0  0  0  0  0  0
  190.2470  175.1970  137.9750 C   0  0  0  0  0  2  0  0  0  0  0  0
  190.3980  176.5800  140.0010 C   0  0  0  0  0  0  0  0  0  0  0  0
  190.5880  176.0560  136.7160 C   0  0  2  0  0  3  0  0  0  0  0  0
  185.6090  178.2160  143.2350 C   0  0  0  0  0  0  0  0  0  0  0  0
  189.3580  176.6330  143.4240 S   0  0  0  0  0  1  0  0  0  0  0  0
  186.7890  179.0230  141.3370 C   0  0  0  0  0  3  0  0  0  0  0  0
  186.7460  177.5080  143.6560 C   0  0  0  0  0  0  0  0  0  0  0  0
  187.9100  177.5430  142.8790 C   0  0  0  0  0  0  0  0  0  0  0  0
  186.7290  176.8130  144.8210 F   0  0  0  0  0  0  0  0  0  0  0  0
  187.9340  178.3000  141.6920 C   0  0  0  0  0  0  0  0  0  0  0  0
  185.6700  178.9660  142.1020 N   0  0  0  0  0  0  0  0  0  0  0  0
  184.6500  178.9970  145.3750 C   0  0  0  0  0  2  0  0  0  0  0  0
  184.3640  178.2590  144.0770 C   0  0  0  0  0  3  0  0  0  0  0  0
  183.8900  179.6910  144.2720 C   0  0  0  0  0  2  0  0  0  0  0  0
  193.5830  174.9920  135.8580 C   0  0  0  0  0  0  0  0  0  0  0  0
  191.9930  176.5380  136.6630 N   0  0  0  0  0  0  0  0  0  0  0  0
  195.5540  174.4180  136.3900 N   0  0  0  0  0  0  0  0  0  0  0  0
  192.6270  176.0250  135.4280 C   0  0  0  0  0  2  0  0  0  0  0  0
  194.7870  174.6890  135.3370 N   0  0  0  0  0  0  0  0  0  0  0  0
  193.6620  174.9450  137.1820 C   0  0  0  0  0  0  0  0  0  0  0  0
  194.9230  174.6320  137.5400 N   0  0  0  0  0  0  0  0  0  0  0  0
  192.7730  175.9510  137.7860 C   0  0  0  0  0  2  0  0  0  0  0  0
  196.9170  173.9020  136.2670 C   0  0  0  0  0  2  0  0  0  0  0  0
  197.6970  173.9440  137.5860 C   0  0  0  0  0  2  0  0  0  0  0  0
  198.3220  175.2540  139.2680 C   0  0  0  0  0  1  0  0  0  0  0  0
  198.0690  175.2540  137.8980 O   0  0  0  0  0  0  0  0  0  0  0  0
  186.8410  178.2650  135.7800 O   0  0  0  0  0  0  0  0  0  0  0  0
  187.1460  177.6690  136.8510 C   0  0  0  0  0  0  0  0  0  0  0  0
  186.1510  177.0820  137.6350 O   0  0  0  0  0  0  0  0  0  0  0  0
  182.6180  179.0420  138.8140 C   0  0  0  0  0  0  0  0  0  0  0  0
  183.7460  177.1620  137.7670 C   0  0  0  0  0  3  0  0  0  0  0  0
  182.5660  177.8090  138.1490 C   0  0  0  0  0  3  0  0  0  0  0  0
  185.0300  179.0080  138.6690 C   0  0  0  0  0  3  0  0  0  0  0  0
  184.9890  177.7480  138.0400 C   0  0  0  0  0  0  0  0  0  0  0  0
  183.8540  179.6460  139.0580 C   0  0  0  0  0  3  0  0  0  0  0  0
  181.3900  179.7090  139.2890 C   0  0  0  0  0  0  0  0  0  0  0  0
  179.4990  179.9360  140.9480 C   0  0  0  0  0  1  0  0  0  0  0  0
  180.7670  179.3320  140.5490 N   0  0  0  0  0  0  0  0  0  0  0  0
  181.5270  178.6560  141.5850 C   0  0  0  0  0  1  0  0  0  0  0  0
  180.9000  180.6540  138.5850 O   0  0  0  0  0  0  0  0  0  0  0  0
  2  1  2  0  0  0  0
  3  9  1  0  0  0  0
  4  8  2  0  0  0  0
  5 11  1  0  0  0  0
  5  6  1  0  0  0  0
  6  1  1  0  0  0  0
  6 19  1  1  0  0  0
  7 11  2  0  0  0  0
  8  5  2  0  0  0  0
  9 12  1  0  0  0  0
  9  4  1  0  0  0  0
 10  7  1  0  0  0  0
 11  2  1  0  0  0  0
 12 25  1  1  0  0  0
 12 10  1  0  0  0  0
 13 16  1  0  0  0  0
 13 22  1  0  0  0  0
 15 19  2  0  0  0  0
 15 20  1  0  0  0  0
 16 18  1  0  0  0  0
 17 14  1  0  0  0  0
 17 16  2  0  0  0  0
 19 17  1  0  0  0  0
 20 13  2  0  0  0  0
 22 23  1  0  0  0  0
 22 21  1  0  0  0  0
 23 21  1  0  0  0  0
 24 29  1  0  0  0  0
 25 31  1  0  0  0  0
 26 30  1  0  0  0  0
 27 24  1  0  0  0  0
 27 25  1  0  0  0  0
 28 24  2  0  0  0  0
 28 26  1  0  0  0  0
 29 30  2  0  0  0  0
 29 31  1  0  0  0  0
 32 26  1  0  0  0  0
 32 33  1  0  0  0  0
 33 35  1  0  0  0  0
 35 34  1  0  0  0  0
 36 37  2  0  0  0  0
 37  4  1  0  0  0  0
 37 38  1  0  0  0  0
 38 43  1  0  0  0  0
 39 44  1  0  0  0  0
 39 45  1  0  0  0  0
 40 43  2  0  0  0  0
 40 41  1  0  0  0  0
 41 39  2  0  0  0  0
 42 44  2  0  0  0  0
 43 42  1  0  0  0  0
 45 47  1  0  0  0  0
 47 46  1  0  0  0  0
 47 48  1  0  0  0  0
 49 45  2  0  0  0  0
M  END
>  <MODEL>
7

>  <REMARK>
 VINA RESULT:      -7.0      3.251      6.246
  Name = 
  10 active torsions:
  status: ('A' for Active; 'I' for Inactive)
    1  A    between atoms: C_1  and  C_7
    2  A    between atoms: C_2  and  C_10
    3  A    between atoms: N_5  and  C_47
    4  A    between atoms: C_11  and  C_18
    5  A    between atoms: C_11  and  O_29
    6  A    between atoms: O_12  and  C_32
    7  A    between atoms: O_12  and  C_42
    8  A    between atoms: N_14  and  C_18
    9  A    between atoms: C_16  and  C_42
   10  A    between atoms: C_22  and  C_39
                            x       y       z     vdW  Elec       q    Type
                         _______ _______ _______ _____ _____    ______ ____

>  <TORSDO>
F 10

$$$$
=
 OpenBabel10222418293D

 49 55  0  0  1  0  0  0  0  0999 V2000
  190.2890  177.9740  141.6940 N   0  0  0  0  0  0  0  0  0  0  0  0
  190.9240  176.9710  141.1730 C   0  0  0  0  0  3  0  0  0  0  0  0
  189.4300  177.7690  135.0090 C   0  0  0  0  0  1  0  0  0  0  0  0
  188.4360  177.7100  137.3170 C   0  0  0  0  0  0  0  0  0  0  0  0
  189.0760  177.3530  139.7960 C   0  0  0  0  0  0  0  0  0  0  0  0
  189.1050  178.3470  140.9150 C   0  0  1  0  0  3  0  0  0  0  0  0
  190.7070  175.6280  139.1440 N   0  0  0  0  0  0  0  0  0  0  0  0
  188.6800  177.6230  138.5900 C   0  0  0  0  0  0  0  0  0  0  0  0
  189.4480  177.2350  136.3790 N   0  0  0  0  0  0  0  0  0  0  0  0
  190.0380  175.2280  137.8970 C   0  0  0  0  0  2  0  0  0  0  0  0
  190.2450  176.5180  139.9790 C   0  0  0  0  0  0  0  0  0  0  0  0
  190.4100  176.1260  136.6740 C   0  0  2  0  0  3  0  0  0  0  0  0
  185.5200  178.1980  143.2820 C   0  0  0  0  0  0  0  0  0  0  0  0
  189.3140  176.7460  143.5860 S   0  0  0  0  0  1  0  0  0  0  0  0
  186.6880  178.9230  141.3430 C   0  0  0  0  0  3  0  0  0  0  0  0
  186.6750  177.5530  143.7510 C   0  0  0  0  0  0  0  0  0  0  0  0
  187.8430  177.5760  142.9800 C   0  0  0  0  0  0  0  0  0  0  0  0
  186.6730  176.9300  144.9580 F   0  0  0  0  0  0  0  0  0  0  0  0
  187.8520  178.2580  141.7480 C   0  0  0  0  0  0  0  0  0  0  0  0
  185.5660  178.8790  142.1060 N   0  0  0  0  0  0  0  0  0  0  0  0
  184.5480  179.0020  145.4080 C   0  0  0  0  0  2  0  0  0  0  0  0
  184.2690  178.2540  144.1150 C   0  0  0  0  0  3  0  0  0  0  0  0
  183.8010  179.6900  144.2930 C   0  0  0  0  0  2  0  0  0  0  0  0
  193.3710  174.9600  135.8290 C   0  0  0  0  0  0  0  0  0  0  0  0
  191.8320  176.5560  136.6370 N   0  0  0  0  0  0  0  0  0  0  0  0
  195.3140  174.3070  136.3700 N   0  0  0  0  0  0  0  0  0  0  0  0
  192.4570  176.0320  135.4020 C   0  0  0  0  0  2  0  0  0  0  0  0
  194.5670  174.6170  135.3140 N   0  0  0  0  0  0  0  0  0  0  0  0
  193.4360  174.8970  137.1530 C   0  0  0  0  0  0  0  0  0  0  0  0
  194.6820  174.5330  137.5180 N   0  0  0  0  0  0  0  0  0  0  0  0
  192.5810  175.9290  137.7600 C   0  0  0  0  0  2  0  0  0  0  0  0
  196.6580  173.7420  136.2530 C   0  0  0  0  0  2  0  0  0  0  0  0
  197.7520  174.8100  136.1400 C   0  0  0  0  0  2  0  0  0  0  0  0
  198.4290  174.5030  138.2340 C   0  0  0  0  0  1  0  0  0  0  0  0
  197.9290  175.4660  137.3610 O   0  0  0  0  0  0  0  0  0  0  0  0
  186.3580  178.8680  137.2440 O   0  0  0  0  0  0  0  0  0  0  0  0
  187.0330  177.8620  136.8870 C   0  0  0  0  0  0  0  0  0  0  0  0
  186.4530  176.8780  136.0840 O   0  0  0  0  0  0  0  0  0  0  0  0
  182.8200  174.9560  136.9900 C   0  0  0  0  0  0  0  0  0  0  0  0
  185.2330  175.1370  137.2180 C   0  0  0  0  0  3  0  0  0  0  0  0
  184.0320  174.4870  137.5190 C   0  0  0  0  0  3  0  0  0  0  0  0
  184.0190  176.6930  135.8130 C   0  0  0  0  0  3  0  0  0  0  0  0
  185.2340  176.2560  136.3760 C   0  0  0  0  0  0  0  0  0  0  0  0
  182.8210  176.0520  136.1230 C   0  0  0  0  0  3  0  0  0  0  0  0
  181.5330  174.3290  137.3500 C   0  0  0  0  0  0  0  0  0  0  0  0
  179.6600  173.9170  138.9940 C   0  0  0  0  0  1  0  0  0  0  0  0
  180.8810  174.6240  138.6180 N   0  0  0  0  0  0  0  0  0  0  0  0
  181.1890  175.8380  139.3520 C   0  0  0  0  0  1  0  0  0  0  0  0
  180.9810  173.5450  136.5080 O   0  0  0  0  0  0  0  0  0  0  0  0
  2  1  2  0  0  0  0
  3  9  1  0  0  0  0
  4  8  2  0  0  0  0
  5 11  1  0  0  0  0
  5  6  1  0  0  0  0
  6  1  1  0  0  0  0
  6 19  1  1  0  0  0
  7 11  2  0  0  0  0
  8  5  2  0  0  0  0
  9 12  1  0  0  0  0
  9  4  1  0  0  0  0
 10  7  1  0  0  0  0
 11  2  1  0  0  0  0
 12 25  1  1  0  0  0
 12 10  1  0  0  0  0
 13 16  1  0  0  0  0
 13 22  1  0  0  0  0
 15 19  2  0  0  0  0
 15 20  1  0  0  0  0
 16 18  1  0  0  0  0
 17 14  1  0  0  0  0
 17 16  2  0  0  0  0
 19 17  1  0  0  0  0
 20 13  2  0  0  0  0
 22 23  1  0  0  0  0
 22 21  1  0  0  0  0
 23 21  1  0  0  0  0
 24 29  1  0  0  0  0
 25 31  1  0  0  0  0
 26 30  1  0  0  0  0
 27 24  1  0  0  0  0
 27 25  1  0  0  0  0
 28 24  2  0  0  0  0
 28 26  1  0  0  0  0
 29 30  2  0  0  0  0
 29 31  1  0  0  0  0
 32 26  1  0  0  0  0
 33 32  1  0  0  0  0
 33 35  1  0  0  0  0
 35 34  1  0  0  0  0
 37 36  2  0  0  0  0
 37  4  1  0  0  0  0
 38 43  1  0  0  0  0
 38 37  1  0  0  0  0
 39 45  1  0  0  0  0
 39 41  1  0  0  0  0
 40 41  2  0  0  0  0
 42 44  1  0  0  0  0
 42 43  2  0  0  0  0
 43 40  1  0  0  0  0
 44 39  2  0  0  0  0
 45 47  1  0  0  0  0
 47 46  1  0  0  0  0
 47 48  1  0  0  0  0
 49 45  2  0  0  0  0
M  END
>  <MODEL>
8

>  <REMARK>
 VINA RESULT:      -6.7      3.244      6.746
  Name = 
  10 active torsions:
  status: ('A' for Active; 'I' for Inactive)
    1  A    between atoms: C_1  and  C_7
    2  A    between atoms: C_2  and  C_10
    3  A    between atoms: N_5  and  C_47
    4  A    between atoms: C_11  and  C_18
    5  A    between atoms: C_11  and  O_29
    6  A    between atoms: O_12  and  C_32
    7  A    between atoms: O_12  and  C_42
    8  A    between atoms: N_14  and  C_18
    9  A    between atoms: C_16  and  C_42
   10  A    between atoms: C_22  and  C_39
                            x       y       z     vdW  Elec       q    Type
                         _______ _______ _______ _____ _____    ______ ____

>  <TORSDO>
F 10

$$$$
=
 OpenBabel10222418293D

 49 55  0  0  1  0  0  0  0  0999 V2000
  187.1080  173.4790  135.7540 N   0  0  0  0  0  0  0  0  0  0  0  0
  188.0360  173.7260  134.8830 C   0  0  0  0  0  3  0  0  0  0  0  0
  192.4210  176.4550  138.6500 C   0  0  0  0  0  1  0  0  0  0  0  0
  189.9710  176.4830  138.0860 C   0  0  0  0  0  0  0  0  0  0  0  0
  188.2340  175.3760  136.5250 C   0  0  0  0  0  0  0  0  0  0  0  0
  187.1250  174.4310  136.8690 C   0  0  1  0  0  3  0  0  0  0  0  0
  189.8880  175.3100  134.7030 N   0  0  0  0  0  0  0  0  0  0  0  0
  189.0210  175.9250  137.3980 C   0  0  0  0  0  0  0  0  0  0  0  0
  191.3520  176.2870  137.6550 N   0  0  0  0  0  0  0  0  0  0  0  0
  190.6890  176.4540  135.1630 C   0  0  0  0  0  2  0  0  0  0  0  0
  188.7970  174.8900  135.2830 C   0  0  0  0  0  0  0  0  0  0  0  0
  191.7630  176.0740  136.2310 C   0  0  2  0  0  3  0  0  0  0  0  0
  183.4180  176.5690  137.2750 C   0  0  0  0  0  0  0  0  0  0  0  0
  184.5670  172.6630  137.1380 S   0  0  0  0  0  1  0  0  0  0  0  0
  185.7820  176.5590  137.0270 C   0  0  0  0  0  3  0  0  0  0  0  0
  183.4010  175.1650  137.2830 C   0  0  0  0  0  0  0  0  0  0  0  0
  184.5990  174.4570  137.1300 C   0  0  0  0  0  0  0  0  0  0  0  0
  182.2350  174.4940  137.4620 F   0  0  0  0  0  0  0  0  0  0  0  0
  185.8110  175.1590  136.9850 C   0  0  0  0  0  0  0  0  0  0  0  0
  184.6070  177.2220  137.1680 N   0  0  0  0  0  0  0  0  0  0  0  0
  181.8330  177.3780  138.9900 C   0  0  0  0  0  2  0  0  0  0  0  0
  182.1620  177.3630  137.5070 C   0  0  0  0  0  3  0  0  0  0  0  0
  182.4480  178.5960  138.3490 C   0  0  0  0  0  2  0  0  0  0  0  0
  194.7050  174.6410  136.5900 C   0  0  0  0  0  0  0  0  0  0  0  0
  192.4240  174.7630  135.9990 N   0  0  0  0  0  0  0  0  0  0  0  0
  196.4550  173.7940  135.7420 N   0  0  0  0  0  0  0  0  0  0  0  0
  193.3430  174.4870  137.1260 C   0  0  0  0  0  2  0  0  0  0  0  0
  195.8170  173.9470  136.9000 N   0  0  0  0  0  0  0  0  0  0  0  0
  194.6750  174.8440  135.2780 C   0  0  0  0  0  0  0  0  0  0  0  0
  195.7550  174.2660  134.7160 N   0  0  0  0  0  0  0  0  0  0  0  0
  193.2870  174.8370  134.7890 C   0  0  0  0  0  2  0  0  0  0  0  0
  197.7920  173.2090  135.6450 C   0  0  0  0  0  2  0  0  0  0  0  0
  197.7890  171.6800  135.7420 C   0  0  0  0  0  2  0  0  0  0  0  0
  198.9250  170.4340  137.1890 C   0  0  0  0  0  1  0  0  0  0  0  0
  197.8170  171.2700  137.0770 O   0  0  0  0  0  0  0  0  0  0  0  0
  189.1990  178.6980  138.4880 O   0  0  0  0  0  0  0  0  0  0  0  0
  189.6190  177.6100  138.9710 C   0  0  0  0  0  0  0  0  0  0  0  0
  189.7600  177.4640  140.3530 O   0  0  0  0  0  0  0  0  0  0  0  0
  186.6010  178.0830  143.0630 C   0  0  0  0  0  0  0  0  0  0  0  0
  187.8010  178.6880  141.0390 C   0  0  0  0  0  3  0  0  0  0  0  0
  186.7520  178.9060  141.9370 C   0  0  0  0  0  3  0  0  0  0  0  0
  188.5810  176.8560  142.4200 C   0  0  0  0  0  3  0  0  0  0  0  0
  188.7140  177.6500  141.2640 C   0  0  0  0  0  0  0  0  0  0  0  0
  187.5290  177.0670  143.3080 C   0  0  0  0  0  3  0  0  0  0  0  0
  185.4610  178.2490  143.9860 C   0  0  0  0  0  0  0  0  0  0  0  0
  184.4860  178.2530  146.3160 C   0  0  0  0  0  1  0  0  0  0  0  0
  185.6430  178.1850  145.4290 N   0  0  0  0  0  0  0  0  0  0  0  0
  186.9450  178.4170  146.0280 C   0  0  0  0  0  1  0  0  0  0  0  0
  184.3080  178.4880  143.4920 O   0  0  0  0  0  0  0  0  0  0  0  0
  1  6  1  0  0  0  0
  2 11  1  0  0  0  0
  2  1  2  0  0  0  0
  4 37  1  0  0  0  0
  5  6  1  0  0  0  0
  5  8  2  0  0  0  0
  6 19  1  6  0  0  0
  7 10  1  0  0  0  0
  7 11  2  0  0  0  0
  8  4  2  0  0  0  0
  9  4  1  0  0  0  0
  9  3  1  0  0  0  0
 11  5  1  0  0  0  0
 12 10  1  6  0  0  0
 12  9  1  0  0  0  0
 13 16  1  0  0  0  0
 13 22  1  0  0  0  0
 15 20  1  0  0  0  0
 16 18  1  0  0  0  0
 17 14  1  0  0  0  0
 17 16  2  0  0  0  0
 19 15  2  0  0  0  0
 19 17  1  0  0  0  0
 20 13  2  0  0  0  0
 22 23  1  0  0  0  0
 22 21  1  0  0  0  0
 23 21  1  0  0  0  0
 24 28  2  0  0  0  0
 24 27  1  0  0  0  0
 25 12  1  0  0  0  0
 25 27  1  0  0  0  0
 26 28  1  0  0  0  0
 29 24  1  0  0  0  0
 30 29  2  0  0  0  0
 30 26  1  0  0  0  0
 31 29  1  0  0  0  0
 31 25  1  0  0  0  0
 32 33  1  0  0  0  0
 32 26  1  0  0  0  0
 33 35  1  0  0  0  0
 35 34  1  0  0  0  0
 36 37  2  0  0  0  0
 37 38  1  0  0  0  0
 38 43  1  0  0  0  0
 39 44  1  0  0  0  0
 39 45  1  0  0  0  0
 40 43  2  0  0  0  0
 40 41  1  0  0  0  0
 41 39  2  0  0  0  0
 42 44  2  0  0  0  0
 43 42  1  0  0  0  0
 45 47  1  0  0  0  0
 47 48  1  0  0  0  0
 47 46  1  0  0  0  0
 49 45  2  0  0  0  0
M  END
>  <MODEL>
9

>  <REMARK>
 VINA RESULT:      -6.7      1.937      2.359
  Name = 
  10 active torsions:
  status: ('A' for Active; 'I' for Inactive)
    1  A    between atoms: C_1  and  C_7
    2  A    between atoms: C_2  and  C_10
    3  A    between atoms: N_5  and  C_47
    4  A    between atoms: C_11  and  C_18
    5  A    between atoms: C_11  and  O_29
    6  A    between atoms: O_12  and  C_32
    7  A    between atoms: O_12  and  C_42
    8  A    between atoms: N_14  and  C_18
    9  A    between atoms: C_16  and  C_42
   10  A    between atoms: C_22  and  C_39
                            x       y       z     vdW  Elec       q    Type
                         _______ _______ _______ _____ _____    ______ ____

>  <TORSDO>
F 10

$$$$
