=
 OpenBabel10222420023D

 54 59  0  0  1  0  0  0  0  0999 V2000
  184.9320  178.7410  140.4970 C   0  0  0  0  0  3  0  0  0  0  0  0
  184.9380  178.7780  139.1650 C   0  0  0  0  0  0  0  0  0  0  0  0
  183.7110  178.6740  138.4320 N   0  0  0  0  0  2  0  0  0  0  0  0
  181.9100  179.0390  140.0270 C   0  0  1  0  0  3  0  0  0  0  0  0
  182.4840  178.1040  138.9770 C   0  0  1  0  0  3  0  0  0  0  0  0
  181.2460  178.9480  138.6610 C   0  0  2  0  0  3  0  0  0  0  0  0
  180.6830  180.2310  136.5830 C   0  0  0  0  0  2  0  0  0  0  0  0
  179.5810  182.4800  136.6290 C   0  0  0  0  0  3  0  0  0  0  0  0
  181.5290  180.2210  137.8660 C   0  0  1  0  0  3  0  0  0  0  0  0
  181.2720  181.3890  138.7090 N   0  0  0  0  0  2  0  0  0  0  0  0
  181.6950  182.5800  137.9820 C   0  0  0  0  0  2  0  0  0  0  0  0
  180.5570  183.2070  137.2070 C   0  0  0  0  0  0  0  0  0  0  0  0
  179.3790  180.9970  136.7650 C   0  0  0  0  0  2  0  0  0  0  0  0
  181.2960  185.1290  135.8920 O   0  0  0  0  0  0  0  0  0  0  0  0
  180.5960  184.6190  136.9640 N   0  0  0  0  0  0  0  0  0  0  0  0
  179.9940  185.4050  137.7240 O   0  0  0  0  0  0  0  0  0  0  0  0
  180.4860  177.2320  140.6770 O   0  0  0  0  0  0  0  0  0  0  0  0
  181.1240  178.2600  141.0310 C   0  0  0  0  0  0  0  0  0  0  0  0
  181.1360  178.6430  142.4020 N   0  0  0  0  0  1  0  0  0  0  0  0
  186.1480  178.9130  138.4780 O   0  0  0  0  0  0  0  0  0  0  0  0
  186.6480  177.9020  137.6080 C   0  0  1  0  0  3  0  0  0  0  0  0
  188.7810  179.1240  137.0160 C   0  0  0  0  0  2  0  0  0  0  0  0
  189.5980  178.0940  137.7980 C   0  0  1  0  0  3  0  0  0  0  0  0
  187.4870  178.5100  136.4790 C   0  0  0  0  0  2  0  0  0  0  0  0
  188.7560  177.5040  138.9350 C   0  0  0  0  0  2  0  0  0  0  0  0
  187.4660  176.8820  138.4000 C   0  0  0  0  0  2  0  0  0  0  0  0
  190.0490  177.0820  136.9440 O   0  0  0  0  0  0  0  0  0  0  0  0
  191.2290  176.6170  137.5240 C   0  0  0  0  0  2  0  0  0  0  0  0
  191.3680  175.1340  137.2640 C   0  0  0  0  0  2  0  0  0  0  0  0
  190.2960  174.4550  137.8410 O   0  0  0  0  0  0  0  0  0  0  0  0
  189.8930  173.5380  136.8700 C   0  0  0  0  0  2  0  0  0  0  0  0
  186.5990  174.7340  135.4190 C   0  0  0  0  0  2  0  0  0  0  0  0
  185.8070  173.4450  135.6270 C   0  0  0  0  0  2  0  0  0  0  0  0
  186.0650  172.9450  137.0440 C   0  0  0  0  0  2  0  0  0  0  0  0
  188.4330  173.6820  136.6130 C   0  0  0  0  0  0  0  0  0  0  0  0
  188.0200  174.5340  135.7200 N   0  0  0  0  0  0  0  0  0  0  0  0
  187.5010  172.8080  137.2640 N   0  0  0  0  0  2  0  0  0  0  0  0
  186.1820  178.8460  141.3010 C   0  0  0  0  0  2  0  0  0  0  0  0
  185.6510  178.2240  143.8410 C   0  0  0  0  0  0  0  0  0  0  0  0
  185.8930  178.5090  142.6950 C   0  0  0  0  0  0  0  0  0  0  0  0
  185.3470  177.8660  145.2290 C   0  0  0  0  0  2  0  0  0  0  0  0
  186.6320  177.5900  146.0040 C   0  0  1  0  0  3  0  0  0  0  0  0
  187.8530  177.5900  145.0730 C   0  0  0  0  0  2  0  0  0  0  0  0
  188.4730  176.8650  148.0850 C   0  0  0  0  0  2  0  0  0  0  0  0
  189.4980  176.8480  146.9420 C   0  0  0  0  0  2  0  0  0  0  0  0
  189.1960  177.8260  145.7830 C   0  0  1  0  0  3  0  0  0  0  0  0
  187.7700  178.1030  148.1760 O   0  0  0  0  0  0  0  0  0  0  0  0
  186.8290  178.4760  147.2130 C   0  0  0  0  0  0  0  0  0  0  0  0
  186.1920  179.6330  147.3510 C   0  0  0  0  0  2  0  0  0  0  0  0
  189.7960  177.6840  143.4440 C   0  0  0  0  0  2  0  0  0  0  0  0
  190.8770  176.9320  142.7110 C   0  0  0  0  0  2  0  0  0  0  0  0
  190.2840  177.9260  144.7990 N   0  0  0  0  0  0  0  0  0  0  0  0
  191.5830  176.1570  143.7910 C   0  0  0  0  0  2  0  0  0  0  0  0
  191.2840  176.8970  145.0800 C   0  0  0  0  0  2  0  0  0  0  0  0
  1 38  1  0  0  0  0
  2  1  2  0  0  0  0
  3  2  1  0  0  0  0
  4 18  1  1  0  0  0
  5  3  1  6  0  0  0
  5  4  1  0  0  0  0
  6  9  1  6  0  0  0
  6  5  1  0  0  0  0
  6  4  1  0  0  0  0
  7 13  1  0  0  0  0
  8 13  1  0  0  0  0
  8 12  2  0  0  0  0
  9  7  1  6  0  0  0
  9 10  1  0  0  0  0
 11 10  1  0  0  0  0
 12 11  1  0  0  0  0
 14 15  2  0  0  0  0
 15 12  1  0  0  0  0
 15 16  2  0  0  0  0
 17 18  2  0  0  0  0
 18 19  1  0  0  0  0
 20  2  1  0  0  0  0
 21 26  1  0  0  0  0
 21 20  1  1  0  0  0
 22 23  1  0  0  0  0
 23 27  1  6  0  0  0
 23 25  1  0  0  0  0
 24 22  1  0  0  0  0
 24 21  1  0  0  0  0
 26 25  1  0  0  0  0
 27 28  1  0  0  0  0
 29 28  1  0  0  0  0
 29 30  1  0  0  0  0
 31 30  1  0  0  0  0
 32 33  1  0  0  0  0
 32 36  1  0  0  0  0
 33 34  1  0  0  0  0
 34 37  1  0  0  0  0
 35 31  1  0  0  0  0
 35 37  1  0  0  0  0
 36 35  2  0  0  0  0
 38 40  1  0  0  0  0
 39 41  1  0  0  0  0
 40 39  3  0  0  0  0
 42 41  1  6  0  0  0
 42 48  1  0  0  0  0
 43 46  1  0  0  0  0
 43 42  1  0  0  0  0
 44 47  1  0  0  0  0
 45 44  1  0  0  0  0
 46 52  1  6  0  0  0
 46 45  1  0  0  0  0
 48 49  2  0  0  0  0
 48 47  1  0  0  0  0
 50 52  1  0  0  0  0
 51 50  1  0  0  0  0
 51 53  1  0  0  0  0
 52 54  1  0  0  0  0
 53 54  1  0  0  0  0
M  END
>  <MODEL>
1

>  <REMARK>
 VINA RESULT:      -8.4      0.000      0.000
  Name = 
  18 active torsions:
  status: ('A' for Active; 'I' for Inactive)
    1  A    between atoms: O_1  and  C_34
    2  A    between atoms: O_1  and  C_35
    3  A    between atoms: C_6  and  C_7
    4  A    between atoms: C_7  and  C_28
    5  A    between atoms: C_10  and  C_17
    6  A    between atoms: C_10  and  O_37
    7  A    between atoms: C_13  and  C_16
    8  A    between atoms: C_14  and  C_34
    9  A    between atoms: C_14  and  O_37
   10  A    between atoms: C_18  and  C_25
   11  A    between atoms: C_19  and  O_27
   12  A    between atoms: N_20  and  C_31
   13  A    between atoms: C_23  and  O_27
   14  A    between atoms: C_23  and  N_38
   15  A    between atoms: C_24  and  N_38
   16  A    between atoms: C_25  and  C_30
   17  A    between atoms: C_32  and  C_39
   18  A    between atoms: C_46  and  N_53
                            x       y       z     vdW  Elec       q    Type
                         _______ _______ _______ _____ _____    ______ ____

>  <TORSDO>
F 18

$$$$
=
 OpenBabel10222420023D

 54 59  0  0  1  0  0  0  0  0999 V2000
  185.7030  178.8930  141.1080 C   0  0  0  0  0  3  0  0  0  0  0  0
  184.8640  179.1250  142.1170 C   0  0  0  0  0  0  0  0  0  0  0  0
  183.4760  179.3750  141.8620 N   0  0  0  0  0  2  0  0  0  0  0  0
  181.0740  178.9770  141.8770 C   0  0  1  0  0  3  0  0  0  0  0  0
  182.4510  178.3360  141.8540 C   0  0  1  0  0  3  0  0  0  0  0  0
  181.5930  178.3590  140.5870 C   0  0  2  0  0  3  0  0  0  0  0  0
  182.3420  178.8430  138.2440 C   0  0  0  0  0  2  0  0  0  0  0  0
  180.9320  180.0970  136.5960 C   0  0  0  0  0  3  0  0  0  0  0  0
  181.9510  179.4640  139.5950 C   0  0  1  0  0  3  0  0  0  0  0  0
  180.8270  180.3930  139.4740 N   0  0  0  0  0  2  0  0  0  0  0  0
  181.2490  181.5160  138.6450 C   0  0  0  0  0  2  0  0  0  0  0  0
  180.9040  181.3070  137.1860 C   0  0  0  0  0  0  0  0  0  0  0  0
  181.1620  178.7800  137.2830 C   0  0  0  0  0  2  0  0  0  0  0  0
  180.2920  183.6600  136.9400 O   0  0  0  0  0  0  0  0  0  0  0  0
  180.6700  182.4630  136.3710 N   0  0  0  0  0  0  0  0  0  0  0  0
  180.8080  182.3980  135.1330 O   0  0  0  0  0  0  0  0  0  0  0  0
  179.5400  177.1440  141.8570 O   0  0  0  0  0  0  0  0  0  0  0  0
  180.0930  178.0570  142.5270 C   0  0  0  0  0  0  0  0  0  0  0  0
  179.8180  178.1730  143.9180 N   0  0  0  0  0  1  0  0  0  0  0  0
  185.3410  179.1320  143.4310 O   0  0  0  0  0  0  0  0  0  0  0  0
  185.2510  177.9930  144.2810 C   0  0  1  0  0  3  0  0  0  0  0  0
  187.7060  177.9470  144.8870 C   0  0  0  0  0  2  0  0  0  0  0  0
  187.3690  178.3670  146.3180 C   0  0  1  0  0  3  0  0  0  0  0  0
  186.5470  177.1760  144.2500 C   0  0  0  0  0  2  0  0  0  0  0  0
  186.0810  179.1970  146.3370 C   0  0  0  0  0  2  0  0  0  0  0  0
  184.9190  178.4260  145.7090 C   0  0  0  0  0  2  0  0  0  0  0  0
  187.2400  177.2410  147.1370 O   0  0  0  0  0  0  0  0  0  0  0  0
  188.0360  177.5080  148.2500 C   0  0  0  0  0  2  0  0  0  0  0  0
  189.4720  177.6920  147.8110 C   0  0  0  0  0  2  0  0  0  0  0  0
  189.9570  176.4950  147.2870 O   0  0  0  0  0  0  0  0  0  0  0  0
  191.2400  176.8020  146.8310 C   0  0  0  0  0  2  0  0  0  0  0  0
  190.7900  176.0860  143.1330 C   0  0  0  0  0  2  0  0  0  0  0  0
  190.5130  177.5190  142.6830 C   0  0  0  0  0  2  0  0  0  0  0  0
  191.5470  178.4350  143.3270 C   0  0  0  0  0  2  0  0  0  0  0  0
  191.2230  176.9740  145.3510 C   0  0  0  0  0  0  0  0  0  0  0  0
  190.8270  175.9910  144.5960 N   0  0  0  0  0  0  0  0  0  0  0  0
  191.5350  178.2490  144.7750 N   0  0  0  0  0  2  0  0  0  0  0  0
  187.1530  178.6290  141.3240 C   0  0  0  0  0  2  0  0  0  0  0  0
  188.2980  178.0180  138.9930 C   0  0  0  0  0  0  0  0  0  0  0  0
  187.7810  178.2890  140.0480 C   0  0  0  0  0  0  0  0  0  0  0  0
  188.9210  177.7010  137.7050 C   0  0  0  0  0  2  0  0  0  0  0  0
  188.6920  176.2350  137.3470 C   0  0  1  0  0  3  0  0  0  0  0  0
  187.1980  175.9340  137.1650 C   0  0  0  0  0  2  0  0  0  0  0  0
  189.1050  173.4280  136.9010 C   0  0  0  0  0  2  0  0  0  0  0  0
  187.5720  173.3820  136.8510 C   0  0  0  0  0  2  0  0  0  0  0  0
  186.8980  174.6750  136.3350 C   0  0  1  0  0  3  0  0  0  0  0  0
  189.6580  174.3690  135.9820 O   0  0  0  0  0  0  0  0  0  0  0  0
  189.5250  175.7450  136.1840 C   0  0  0  0  0  0  0  0  0  0  0  0
  190.0690  176.5790  135.3050 C   0  0  0  0  0  2  0  0  0  0  0  0
  184.8740  175.7740  135.5950 C   0  0  0  0  0  2  0  0  0  0  0  0
  183.5080  175.9240  136.2150 C   0  0  0  0  0  2  0  0  0  0  0  0
  185.4500  174.5390  136.1190 N   0  0  0  0  0  0  0  0  0  0  0  0
  183.6320  175.2370  137.5490 C   0  0  0  0  0  2  0  0  0  0  0  0
  184.7950  174.2750  137.4000 C   0  0  0  0  0  2  0  0  0  0  0  0
  1 38  1  0  0  0  0
  1  2  2  0  0  0  0
  2 20  1  0  0  0  0
  3  2  1  0  0  0  0
  4 18  1  1  0  0  0
  5  3  1  6  0  0  0
  5  4  1  0  0  0  0
  6  9  1  6  0  0  0
  6  5  1  0  0  0  0
  6  4  1  0  0  0  0
  8 12  2  0  0  0  0
  8 13  1  0  0  0  0
  9  7  1  6  0  0  0
 10  9  1  0  0  0  0
 11 10  1  0  0  0  0
 12 11  1  0  0  0  0
 13  7  1  0  0  0  0
 15 14  2  0  0  0  0
 15 12  1  0  0  0  0
 16 15  2  0  0  0  0
 17 18  2  0  0  0  0
 18 19  1  0  0  0  0
 21 20  1  6  0  0  0
 21 26  1  0  0  0  0
 22 23  1  0  0  0  0
 23 25  1  0  0  0  0
 23 27  1  1  0  0  0
 24 21  1  0  0  0  0
 24 22  1  0  0  0  0
 26 25  1  0  0  0  0
 27 28  1  0  0  0  0
 29 28  1  0  0  0  0
 30 29  1  0  0  0  0
 31 30  1  0  0  0  0
 32 36  1  0  0  0  0
 33 32  1  0  0  0  0
 33 34  1  0  0  0  0
 34 37  1  0  0  0  0
 35 31  1  0  0  0  0
 36 35  2  0  0  0  0
 37 35  1  0  0  0  0
 39 40  3  0  0  0  0
 40 38  1  0  0  0  0
 41 39  1  0  0  0  0
 42 41  1  6  0  0  0
 43 42  1  0  0  0  0
 45 44  1  0  0  0  0
 46 52  1  1  0  0  0
 46 45  1  0  0  0  0
 46 43  1  0  0  0  0
 47 48  1  0  0  0  0
 47 44  1  0  0  0  0
 48 42  1  0  0  0  0
 49 48  2  0  0  0  0
 50 52  1  0  0  0  0
 50 51  1  0  0  0  0
 51 53  1  0  0  0  0
 52 54  1  0  0  0  0
 54 53  1  0  0  0  0
M  END
>  <MODEL>
2

>  <REMARK>
 VINA RESULT:      -7.9      1.774      7.732
  Name = 
  18 active torsions:
  status: ('A' for Active; 'I' for Inactive)
    1  A    between atoms: O_1  and  C_34
    2  A    between atoms: O_1  and  C_35
    3  A    between atoms: C_6  and  C_7
    4  A    between atoms: C_7  and  C_28
    5  A    between atoms: C_10  and  C_17
    6  A    between atoms: C_10  and  O_37
    7  A    between atoms: C_13  and  C_16
    8  A    between atoms: C_14  and  C_34
    9  A    between atoms: C_14  and  O_37
   10  A    between atoms: C_18  and  C_25
   11  A    between atoms: C_19  and  O_27
   12  A    between atoms: N_20  and  C_31
   13  A    between atoms: C_23  and  O_27
   14  A    between atoms: C_23  and  N_38
   15  A    between atoms: C_24  and  N_38
   16  A    between atoms: C_25  and  C_30
   17  A    between atoms: C_32  and  C_39
   18  A    between atoms: C_46  and  N_53
                            x       y       z     vdW  Elec       q    Type
                         _______ _______ _______ _____ _____    ______ ____

>  <TORSDO>
F 18

$$$$
=
 OpenBabel10222420023D

 54 59  0  0  1  0  0  0  0  0999 V2000
  187.3730  178.2900  140.4670 C   0  0  0  0  0  2  0  0  0  0  0  0
  188.6280  177.8430  140.5110 C   0  0  0  0  0  0  0  0  0  0  0  0
  189.1660  177.0840  139.4220 N   0  0  0  0  0  0  0  0  0  0  0  0
  189.2490  177.4790  137.0220 C   0  0  1  0  0  3  0  0  0  0  0  0
  188.4630  176.8580  138.1640 C   0  0  1  0  0  3  0  0  0  0  0  0
  189.2500  175.9680  137.1970 C   0  0  2  0  0  3  0  0  0  0  0  0
  190.8870  174.0720  137.2530 C   0  0  0  0  0  2  0  0  0  0  0  0
  193.1710  174.2150  136.2330 C   0  0  0  0  0  3  0  0  0  0  0  0
  190.6120  175.5110  137.7160 C   0  0  1  0  0  3  0  0  0  0  0  0
  191.6440  176.4460  137.2660 N   0  0  0  0  0  2  0  0  0  0  0  0
  192.9040  176.0760  137.8980 C   0  0  0  0  0  2  0  0  0  0  0  0
  193.7250  175.1480  137.0300 C   0  0  0  0  0  0  0  0  0  0  0  0
  191.7030  174.0320  135.9670 C   0  0  0  0  0  2  0  0  0  0  0  0
  195.7500  174.8310  138.3600 O   0  0  0  0  0  0  0  0  0  0  0  0
  195.1520  175.1750  137.1670 N   0  0  0  0  0  0  0  0  0  0  0  0
  195.8700  175.5100  136.2030 O   0  0  0  0  0  0  0  0  0  0  0  0
  187.4510  178.7570  136.1010 O   0  0  0  0  0  0  0  0  0  0  0  0
  188.3230  177.8660  135.9150 C   0  0  0  0  0  0  0  0  0  0  0  0
  188.4550  177.2680  134.6300 N   0  0  0  0  0  1  0  0  0  0  0  0
  189.4220  178.1110  141.6310 O   0  0  0  0  0  0  0  0  0  0  0  0
  189.0730  177.6650  142.9380 C   0  0  1  0  0  3  0  0  0  0  0  0
  190.6380  175.6780  142.9420 C   0  0  0  0  0  2  0  0  0  0  0  0
  191.5120  176.3580  143.9960 C   0  0  1  0  0  3  0  0  0  0  0  0
  189.1830  176.1400  143.0490 C   0  0  0  0  0  2  0  0  0  0  0  0
  191.4090  177.8820  143.8660 C   0  0  0  0  0  2  0  0  0  0  0  0
  189.9570  178.3470  143.9820 C   0  0  0  0  0  2  0  0  0  0  0  0
  191.1350  175.9480  145.2780 O   0  0  0  0  0  0  0  0  0  0  0  0
  191.8010  176.8120  146.1470 C   0  0  0  0  0  2  0  0  0  0  0  0
  191.1400  176.7690  147.5070 C   0  0  0  0  0  2  0  0  0  0  0  0
  189.7810  176.4980  147.3580 O   0  0  0  0  0  0  0  0  0  0  0  0
  189.1370  177.6140  147.8930 C   0  0  0  0  0  2  0  0  0  0  0  0
  185.6630  178.9070  147.0910 C   0  0  0  0  0  2  0  0  0  0  0  0
  185.7320  178.7430  145.5740 C   0  0  0  0  0  2  0  0  0  0  0  0
  186.2980  177.3620  145.2640 C   0  0  0  0  0  2  0  0  0  0  0  0
  187.8310  177.8220  147.2060 C   0  0  0  0  0  0  0  0  0  0  0  0
  186.9690  178.6570  147.7080 N   0  0  0  0  0  0  0  0  0  0  0  0
  187.5780  177.1910  145.9440 N   0  0  0  0  0  2  0  0  0  0  0  0
  186.7710  179.0830  141.5760 C   0  0  0  0  0  2  0  0  0  0  0  0
  184.1280  178.7180  141.5850 C   0  0  0  0  0  0  0  0  0  0  0  0
  185.3220  178.8880  141.5820 C   0  0  0  0  0  0  0  0  0  0  0  0
  182.6800  178.4980  141.5820 C   0  0  0  0  0  2  0  0  0  0  0  0
  182.1160  178.6700  140.1740 C   0  0  1  0  0  3  0  0  0  0  0  0
  182.8500  177.7730  139.1670 C   0  0  0  0  0  2  0  0  0  0  0  0
  180.6610  179.6730  137.9100 C   0  0  0  0  0  2  0  0  0  0  0  0
  181.5930  178.7490  137.1140 C   0  0  0  0  0  2  0  0  0  0  0  0
  182.0660  177.4890  137.8760 C   0  0  1  0  0  3  0  0  0  0  0  0
  179.9560  178.9870  138.9440 O   0  0  0  0  0  0  0  0  0  0  0  0
  180.6130  178.5250  140.0870 C   0  0  0  0  0  0  0  0  0  0  0  0
  179.9090  177.9040  141.0260 C   0  0  0  0  0  2  0  0  0  0  0  0
  184.1860  176.3980  137.4680 C   0  0  0  0  0  2  0  0  0  0  0  0
  185.0240  176.2270  136.2270 C   0  0  0  0  0  2  0  0  0  0  0  0
  182.7980  176.5320  137.0340 N   0  0  0  0  0  0  0  0  0  0  0  0
  184.2620  176.9690  135.1630 C   0  0  0  0  0  2  0  0  0  0  0  0
  182.8300  177.0260  135.6580 C   0  0  0  0  0  2  0  0  0  0  0  0
  1  2  1  0  0  0  0
  1 38  1  0  0  0  0
  2 20  1  0  0  0  0
  3  2  2  0  0  0  0
  4 18  1  6  0  0  0
  4  6  1  0  0  0  0
  4  5  1  0  0  0  0
  5  3  1  1  0  0  0
  6  9  1  1  0  0  0
  6  5  1  0  0  0  0
  8 12  2  0  0  0  0
  9  7  1  6  0  0  0
 10  9  1  0  0  0  0
 10 11  1  0  0  0  0
 12 15  1  0  0  0  0
 12 11  1  0  0  0  0
 13  8  1  0  0  0  0
 13  7  1  0  0  0  0
 15 14  2  0  0  0  0
 16 15  2  0  0  0  0
 18 17  2  0  0  0  0
 19 18  1  0  0  0  0
 21 20  1  6  0  0  0
 21 24  1  0  0  0  0
 21 26  1  0  0  0  0
 22 24  1  0  0  0  0
 22 23  1  0  0  0  0
 23 27  1  1  0  0  0
 25 26  1  0  0  0  0
 25 23  1  0  0  0  0
 27 28  1  0  0  0  0
 28 29  1  0  0  0  0
 30 29  1  0  0  0  0
 30 31  1  0  0  0  0
 32 36  1  0  0  0  0
 33 32  1  0  0  0  0
 34 33  1  0  0  0  0
 34 37  1  0  0  0  0
 35 36  2  0  0  0  0
 35 31  1  0  0  0  0
 37 35  1  0  0  0  0
 38 40  1  0  0  0  0
 40 39  3  0  0  0  0
 41 39  1  0  0  0  0
 42 41  1  1  0  0  0
 43 42  1  0  0  0  0
 44 47  1  0  0  0  0
 45 46  1  0  0  0  0
 45 44  1  0  0  0  0
 46 52  1  6  0  0  0
 46 43  1  0  0  0  0
 47 48  1  0  0  0  0
 48 42  1  0  0  0  0
 48 49  2  0  0  0  0
 51 50  1  0  0  0  0
 52 50  1  0  0  0  0
 53 54  1  0  0  0  0
 53 51  1  0  0  0  0
 54 52  1  0  0  0  0
M  END
>  <MODEL>
3

>  <REMARK>
 VINA RESULT:      -7.9      2.918     10.273
  Name = 
  18 active torsions:
  status: ('A' for Active; 'I' for Inactive)
    1  A    between atoms: O_1  and  C_34
    2  A    between atoms: O_1  and  C_35
    3  A    between atoms: C_6  and  C_7
    4  A    between atoms: C_7  and  C_28
    5  A    between atoms: C_10  and  C_17
    6  A    between atoms: C_10  and  O_37
    7  A    between atoms: C_13  and  C_16
    8  A    between atoms: C_14  and  C_34
    9  A    between atoms: C_14  and  O_37
   10  A    between atoms: C_18  and  C_25
   11  A    between atoms: C_19  and  O_27
   12  A    between atoms: N_20  and  C_31
   13  A    between atoms: C_23  and  O_27
   14  A    between atoms: C_23  and  N_38
   15  A    between atoms: C_24  and  N_38
   16  A    between atoms: C_25  and  C_30
   17  A    between atoms: C_32  and  C_39
   18  A    between atoms: C_46  and  N_53
                            x       y       z     vdW  Elec       q    Type
                         _______ _______ _______ _____ _____    ______ ____

>  <TORSDO>
F 18

$$$$
=
 OpenBabel10222420023D

 54 59  0  0  1  0  0  0  0  0999 V2000
  185.2870  178.9890  140.2600 C   0  0  0  0  0  3  0  0  0  0  0  0
  185.2130  178.4320  139.0510 C   0  0  0  0  0  0  0  0  0  0  0  0
  184.0290  178.5740  138.2580 N   0  0  0  0  0  2  0  0  0  0  0  0
  183.0640  176.3650  138.6000 C   0  0  1  0  0  3  0  0  0  0  0  0
  183.3580  177.4620  137.5920 C   0  0  1  0  0  3  0  0  0  0  0  0
  181.9290  177.2440  138.0960 C   0  0  2  0  0  3  0  0  0  0  0  0
  180.0350  178.6360  138.9640 C   0  0  0  0  0  2  0  0  0  0  0  0
  178.9310  178.2070  141.1720 C   0  0  0  0  0  3  0  0  0  0  0  0
  181.4900  178.2010  139.2020 C   0  0  1  0  0  3  0  0  0  0  0  0
  181.6710  177.5580  140.5040 N   0  0  0  0  0  2  0  0  0  0  0  0
  181.3920  178.5420  141.5430 C   0  0  0  0  0  2  0  0  0  0  0  0
  179.9520  178.4910  142.0030 C   0  0  0  0  0  0  0  0  0  0  0  0
  179.0480  177.7720  139.7380 C   0  0  0  0  0  2  0  0  0  0  0  0
  179.5790  177.9620  144.3590 O   0  0  0  0  0  0  0  0  0  0  0  0
  179.6520  178.8930  143.3460 N   0  0  0  0  0  0  0  0  0  0  0  0
  179.4560  180.0960  143.6130 O   0  0  0  0  0  0  0  0  0  0  0  0
  184.0880  174.3740  137.7630 O   0  0  0  0  0  0  0  0  0  0  0  0
  183.0280  175.0380  137.9150 C   0  0  0  0  0  0  0  0  0  0  0  0
  181.7880  174.4930  137.4780 N   0  0  0  0  0  1  0  0  0  0  0  0
  186.2960  177.6980  138.5570 O   0  0  0  0  0  0  0  0  0  0  0  0
  187.1610  178.2030  137.5440 C   0  0  1  0  0  3  0  0  0  0  0  0
  189.1980  176.9070  138.2950 C   0  0  0  0  0  2  0  0  0  0  0  0
  189.1200  176.0400  137.0370 C   0  0  1  0  0  3  0  0  0  0  0  0
  188.6060  178.2960  138.0450 C   0  0  0  0  0  2  0  0  0  0  0  0
  187.6690  175.9390  136.5520 C   0  0  0  0  0  2  0  0  0  0  0  0
  187.0780  177.3260  136.2950 C   0  0  0  0  0  2  0  0  0  0  0  0
  189.9380  176.5670  136.0330 O   0  0  0  0  0  0  0  0  0  0  0  0
  191.2430  176.3510  136.4770 C   0  0  0  0  0  2  0  0  0  0  0  0
  191.9640  175.4440  135.5050 C   0  0  0  0  0  2  0  0  0  0  0  0
  193.0210  174.8080  136.1540 O   0  0  0  0  0  0  0  0  0  0  0  0
  194.0850  175.7050  136.0600 C   0  0  0  0  0  2  0  0  0  0  0  0
  196.0170  174.3340  139.0230 C   0  0  0  0  0  2  0  0  0  0  0  0
  197.1880  173.7400  138.2430 C   0  0  0  0  0  2  0  0  0  0  0  0
  197.6640  174.7730  137.2280 C   0  0  0  0  0  2  0  0  0  0  0  0
  195.2100  175.2460  136.9220 C   0  0  0  0  0  0  0  0  0  0  0  0
  194.9600  174.7960  138.1170 N   0  0  0  0  0  0  0  0  0  0  0  0
  196.5430  175.1970  136.3950 N   0  0  0  0  0  2  0  0  0  0  0  0
  186.4980  178.8680  141.1190 C   0  0  0  0  0  2  0  0  0  0  0  0
  185.7700  178.2410  143.6080 C   0  0  0  0  0  0  0  0  0  0  0  0
  186.0940  178.5230  142.4820 C   0  0  0  0  0  0  0  0  0  0  0  0
  185.3900  177.8970  144.9810 C   0  0  0  0  0  2  0  0  0  0  0  0
  186.6310  177.6100  145.8230 C   0  0  1  0  0  3  0  0  0  0  0  0
  187.9080  177.6830  144.9740 C   0  0  0  0  0  2  0  0  0  0  0  0
  188.3530  176.8250  147.9820 C   0  0  0  0  0  2  0  0  0  0  0  0
  189.4490  176.8860  146.9080 C   0  0  0  0  0  2  0  0  0  0  0  0
  189.1960  177.9140  145.7800 C   0  0  1  0  0  3  0  0  0  0  0  0
  187.6150  178.0420  148.0860 O   0  0  0  0  0  0  0  0  0  0  0  0
  186.7280  178.4400  147.0830 C   0  0  0  0  0  0  0  0  0  0  0  0
  186.0550  179.5750  147.2350 C   0  0  0  0  0  2  0  0  0  0  0  0
  189.9060  178.1930  143.4840 C   0  0  0  0  0  2  0  0  0  0  0  0
  190.9360  177.4870  142.6400 C   0  0  0  0  0  2  0  0  0  0  0  0
  190.3410  178.0850  144.8730 N   0  0  0  0  0  0  0  0  0  0  0  0
  191.4900  176.4220  143.5500 C   0  0  0  0  0  2  0  0  0  0  0  0
  191.2030  176.9070  144.9580 C   0  0  0  0  0  2  0  0  0  0  0  0
  1 38  1  0  0  0  0
  2  1  2  0  0  0  0
  3  2  1  0  0  0  0
  4 18  1  6  0  0  0
  5  6  1  0  0  0  0
  5  3  1  1  0  0  0
  5  4  1  0  0  0  0
  6  4  1  0  0  0  0
  6  9  1  1  0  0  0
  7 13  1  0  0  0  0
  8 12  2  0  0  0  0
  9  7  1  6  0  0  0
  9 10  1  0  0  0  0
 10 11  1  0  0  0  0
 11 12  1  0  0  0  0
 12 15  1  0  0  0  0
 13  8  1  0  0  0  0
 15 16  2  0  0  0  0
 15 14  2  0  0  0  0
 17 18  2  0  0  0  0
 19 18  1  0  0  0  0
 20  2  1  0  0  0  0
 21 24  1  0  0  0  0
 21 20  1  1  0  0  0
 23 27  1  6  0  0  0
 23 22  1  0  0  0  0
 24 22  1  0  0  0  0
 25 23  1  0  0  0  0
 26 25  1  0  0  0  0
 26 21  1  0  0  0  0
 27 28  1  0  0  0  0
 29 30  1  0  0  0  0
 29 28  1  0  0  0  0
 31 30  1  0  0  0  0
 31 35  1  0  0  0  0
 33 32  1  0  0  0  0
 34 33  1  0  0  0  0
 35 36  2  0  0  0  0
 36 32  1  0  0  0  0
 37 35  1  0  0  0  0
 37 34  1  0  0  0  0
 38 40  1  0  0  0  0
 39 41  1  0  0  0  0
 40 39  3  0  0  0  0
 42 41  1  6  0  0  0
 42 48  1  0  0  0  0
 43 46  1  0  0  0  0
 43 42  1  0  0  0  0
 44 47  1  0  0  0  0
 45 44  1  0  0  0  0
 46 52  1  6  0  0  0
 46 45  1  0  0  0  0
 48 49  2  0  0  0  0
 48 47  1  0  0  0  0
 50 52  1  0  0  0  0
 51 50  1  0  0  0  0
 51 53  1  0  0  0  0
 52 54  1  0  0  0  0
 53 54  1  0  0  0  0
M  END
>  <MODEL>
4

>  <REMARK>
 VINA RESULT:      -7.9      2.932      4.677
  Name = 
  18 active torsions:
  status: ('A' for Active; 'I' for Inactive)
    1  A    between atoms: O_1  and  C_34
    2  A    between atoms: O_1  and  C_35
    3  A    between atoms: C_6  and  C_7
    4  A    between atoms: C_7  and  C_28
    5  A    between atoms: C_10  and  C_17
    6  A    between atoms: C_10  and  O_37
    7  A    between atoms: C_13  and  C_16
    8  A    between atoms: C_14  and  C_34
    9  A    between atoms: C_14  and  O_37
   10  A    between atoms: C_18  and  C_25
   11  A    between atoms: C_19  and  O_27
   12  A    between atoms: N_20  and  C_31
   13  A    between atoms: C_23  and  O_27
   14  A    between atoms: C_23  and  N_38
   15  A    between atoms: C_24  and  N_38
   16  A    between atoms: C_25  and  C_30
   17  A    between atoms: C_32  and  C_39
   18  A    between atoms: C_46  and  N_53
                            x       y       z     vdW  Elec       q    Type
                         _______ _______ _______ _____ _____    ______ ____

>  <TORSDO>
F 18

$$$$
=
 OpenBabel10222420023D

 54 59  0  0  1  0  0  0  0  0999 V2000
  185.0510  179.0750  140.4790 C   0  0  0  0  0  3  0  0  0  0  0  0
  184.8450  178.4910  139.2980 C   0  0  0  0  0  0  0  0  0  0  0  0
  183.6270  178.7200  138.5790 N   0  0  0  0  0  2  0  0  0  0  0  0
  181.6040  178.9460  139.9130 C   0  0  1  0  0  3  0  0  0  0  0  0
  182.3550  178.0870  138.9110 C   0  0  1  0  0  3  0  0  0  0  0  0
  181.1470  178.9140  138.4620 C   0  0  2  0  0  3  0  0  0  0  0  0
  180.7770  180.3290  136.4270 C   0  0  0  0  0  2  0  0  0  0  0  0
  179.6590  182.5700  136.5130 C   0  0  0  0  0  3  0  0  0  0  0  0
  181.4960  180.2370  137.7830 C   0  0  1  0  0  3  0  0  0  0  0  0
  181.1500  181.3470  138.6720 N   0  0  0  0  0  2  0  0  0  0  0  0
  181.6320  182.5830  138.0680 C   0  0  0  0  0  2  0  0  0  0  0  0
  180.5700  183.2580  137.2290 C   0  0  0  0  0  0  0  0  0  0  0  0
  179.4570  181.0810  136.5320 C   0  0  0  0  0  2  0  0  0  0  0  0
  181.3010  185.2580  136.0310 O   0  0  0  0  0  0  0  0  0  0  0  0
  180.6220  184.6830  137.0840 N   0  0  0  0  0  0  0  0  0  0  0  0
  180.0490  185.4210  137.9110 O   0  0  0  0  0  0  0  0  0  0  0  0
  180.6110  178.3010  141.9890 O   0  0  0  0  0  0  0  0  0  0  0  0
  180.7110  178.0910  140.7510 C   0  0  0  0  0  0  0  0  0  0  0  0
  179.9270  177.0690  140.1450 N   0  0  0  0  0  1  0  0  0  0  0  0
  185.8200  177.6440  138.7620 O   0  0  0  0  0  0  0  0  0  0  0  0
  186.5820  177.9920  137.6100 C   0  0  1  0  0  3  0  0  0  0  0  0
  188.7480  176.9830  138.4370 C   0  0  0  0  0  2  0  0  0  0  0  0
  188.6520  175.8860  137.3750 C   0  0  1  0  0  3  0  0  0  0  0  0
  188.0450  178.2610  137.9750 C   0  0  0  0  0  2  0  0  0  0  0  0
  187.1840  175.6120  137.0290 C   0  0  0  0  0  2  0  0  0  0  0  0
  186.4820  176.8860  136.5590 C   0  0  0  0  0  2  0  0  0  0  0  0
  189.3660  176.2540  136.2310 O   0  0  0  0  0  0  0  0  0  0  0  0
  190.4220  175.3460  136.1550 C   0  0  0  0  0  2  0  0  0  0  0  0
  191.7260  176.0990  136.0110 C   0  0  0  0  0  2  0  0  0  0  0  0
  192.6810  175.5490  136.8640 O   0  0  0  0  0  0  0  0  0  0  0  0
  193.9070  175.9150  136.3060 C   0  0  0  0  0  2  0  0  0  0  0  0
  197.3170  174.4640  137.1160 C   0  0  0  0  0  2  0  0  0  0  0  0
  197.2500  174.6280  138.6330 C   0  0  0  0  0  2  0  0  0  0  0  0
  195.8940  174.1230  139.1130 C   0  0  0  0  0  2  0  0  0  0  0  0
  195.0160  175.2360  137.0330 C   0  0  0  0  0  0  0  0  0  0  0  0
  196.1810  175.1250  136.4650 N   0  0  0  0  0  0  0  0  0  0  0  0
  194.8290  174.8100  138.3890 N   0  0  0  0  0  2  0  0  0  0  0  0
  186.3000  178.8660  141.2630 C   0  0  0  0  0  2  0  0  0  0  0  0
  185.6830  178.1750  143.7640 C   0  0  0  0  0  0  0  0  0  0  0  0
  185.9570  178.4860  142.6320 C   0  0  0  0  0  0  0  0  0  0  0  0
  185.3640  177.7980  145.1440 C   0  0  0  0  0  2  0  0  0  0  0  0
  186.6430  177.5540  145.9410 C   0  0  1  0  0  3  0  0  0  0  0  0
  187.8850  177.6480  145.0420 C   0  0  0  0  0  2  0  0  0  0  0  0
  188.4670  176.8400  148.0410 C   0  0  0  0  0  2  0  0  0  0  0  0
  189.5180  176.9150  146.9250 C   0  0  0  0  0  2  0  0  0  0  0  0
  189.1970  177.9220  145.7960 C   0  0  1  0  0  3  0  0  0  0  0  0
  187.7020  178.0390  148.1590 O   0  0  0  0  0  0  0  0  0  0  0  0
  186.7670  178.4020  147.1870 C   0  0  0  0  0  0  0  0  0  0  0  0
  186.0710  179.5210  147.3510 C   0  0  0  0  0  2  0  0  0  0  0  0
  189.8280  178.0500  143.4640 C   0  0  0  0  0  2  0  0  0  0  0  0
  190.9010  177.3640  142.6570 C   0  0  0  0  0  2  0  0  0  0  0  0
  190.3010  178.1110  144.8440 N   0  0  0  0  0  0  0  0  0  0  0  0
  191.5700  176.4430  143.6420 C   0  0  0  0  0  2  0  0  0  0  0  0
  191.2700  177.0280  145.0080 C   0  0  0  0  0  2  0  0  0  0  0  0
  1 38  1  0  0  0  0
  2  1  2  0  0  0  0
  3  2  1  0  0  0  0
  4 18  1  1  0  0  0
  5  3  1  6  0  0  0
  5  4  1  0  0  0  0
  6  9  1  6  0  0  0
  6  5  1  0  0  0  0
  6  4  1  0  0  0  0
  7 13  1  0  0  0  0
  8 13  1  0  0  0  0
  8 12  2  0  0  0  0
  9  7  1  6  0  0  0
  9 10  1  0  0  0  0
 11 10  1  0  0  0  0
 12 11  1  0  0  0  0
 14 15  2  0  0  0  0
 15 12  1  0  0  0  0
 15 16  2  0  0  0  0
 18 17  2  0  0  0  0
 19 18  1  0  0  0  0
 20  2  1  0  0  0  0
 21 24  1  0  0  0  0
 21 20  1  1  0  0  0
 23 27  1  6  0  0  0
 23 22  1  0  0  0  0
 24 22  1  0  0  0  0
 25 23  1  0  0  0  0
 26 25  1  0  0  0  0
 26 21  1  0  0  0  0
 28 27  1  0  0  0  0
 29 28  1  0  0  0  0
 29 30  1  0  0  0  0
 31 30  1  0  0  0  0
 31 35  1  0  0  0  0
 32 33  1  0  0  0  0
 33 34  1  0  0  0  0
 35 37  1  0  0  0  0
 36 35  2  0  0  0  0
 36 32  1  0  0  0  0
 37 34  1  0  0  0  0
 38 40  1  0  0  0  0
 39 41  1  0  0  0  0
 40 39  3  0  0  0  0
 42 41  1  6  0  0  0
 42 48  1  0  0  0  0
 43 46  1  0  0  0  0
 43 42  1  0  0  0  0
 44 47  1  0  0  0  0
 45 44  1  0  0  0  0
 46 52  1  6  0  0  0
 46 45  1  0  0  0  0
 48 49  2  0  0  0  0
 48 47  1  0  0  0  0
 50 52  1  0  0  0  0
 51 50  1  0  0  0  0
 51 53  1  0  0  0  0
 52 54  1  0  0  0  0
 53 54  1  0  0  0  0
M  END
>  <MODEL>
5

>  <REMARK>
 VINA RESULT:      -7.8      2.282      3.380
  Name = 
  18 active torsions:
  status: ('A' for Active; 'I' for Inactive)
    1  A    between atoms: O_1  and  C_34
    2  A    between atoms: O_1  and  C_35
    3  A    between atoms: C_6  and  C_7
    4  A    between atoms: C_7  and  C_28
    5  A    between atoms: C_10  and  C_17
    6  A    between atoms: C_10  and  O_37
    7  A    between atoms: C_13  and  C_16
    8  A    between atoms: C_14  and  C_34
    9  A    between atoms: C_14  and  O_37
   10  A    between atoms: C_18  and  C_25
   11  A    between atoms: C_19  and  O_27
   12  A    between atoms: N_20  and  C_31
   13  A    between atoms: C_23  and  O_27
   14  A    between atoms: C_23  and  N_38
   15  A    between atoms: C_24  and  N_38
   16  A    between atoms: C_25  and  C_30
   17  A    between atoms: C_32  and  C_39
   18  A    between atoms: C_46  and  N_53
                            x       y       z     vdW  Elec       q    Type
                         _______ _______ _______ _____ _____    ______ ____

>  <TORSDO>
F 18

$$$$
=
 OpenBabel10222420023D

 54 59  0  0  1  0  0  0  0  0999 V2000
  188.9680  177.3070  139.5360 C   0  0  0  0  0  3  0  0  0  0  0  0
  190.0380  176.8010  140.1490 C   0  0  0  0  0  0  0  0  0  0  0  0
  190.9320  175.9300  139.4460 N   0  0  0  0  0  2  0  0  0  0  0  0
  192.3480  175.1390  137.6310 C   0  0  1  0  0  3  0  0  0  0  0  0
  191.7800  176.3570  138.3380 C   0  0  1  0  0  3  0  0  0  0  0  0
  191.2300  175.9330  136.9730 C   0  0  2  0  0  3  0  0  0  0  0  0
  188.8520  175.8350  136.1870 C   0  0  0  0  0  2  0  0  0  0  0  0
  187.9790  174.0030  134.7180 C   0  0  0  0  0  3  0  0  0  0  0  0
  189.9290  175.1340  137.0310 C   0  0  1  0  0  3  0  0  0  0  0  0
  190.1790  173.7630  136.5830 N   0  0  0  0  0  2  0  0  0  0  0  0
  188.9640  172.9850  136.7920 C   0  0  0  0  0  2  0  0  0  0  0  0
  188.0880  172.9570  135.5600 C   0  0  0  0  0  0  0  0  0  0  0  0
  188.7800  175.2740  134.7730 C   0  0  0  0  0  2  0  0  0  0  0  0
  187.6540  170.5570  135.7150 O   0  0  0  0  0  0  0  0  0  0  0  0
  187.2370  171.8210  135.3560 N   0  0  0  0  0  0  0  0  0  0  0  0
  186.1050  171.9650  134.8520 O   0  0  0  0  0  0  0  0  0  0  0  0
  193.6980  175.9240  135.8210 O   0  0  0  0  0  0  0  0  0  0  0  0
  193.6590  175.4800  136.9990 C   0  0  0  0  0  0  0  0  0  0  0  0
  194.8650  175.3560  137.7440 N   0  0  0  0  0  1  0  0  0  0  0  0
  190.2860  177.1170  141.4890 O   0  0  0  0  0  0  0  0  0  0  0  0
  190.1240  176.1680  142.5380 C   0  0  1  0  0  3  0  0  0  0  0  0
  191.1080  177.6370  144.3470 C   0  0  0  0  0  2  0  0  0  0  0  0
  189.7300  177.7780  144.9940 C   0  0  1  0  0  3  0  0  0  0  0  0
  191.2300  176.3130  143.5900 C   0  0  0  0  0  2  0  0  0  0  0  0
  188.6310  177.6490  143.9330 C   0  0  0  0  0  2  0  0  0  0  0  0
  188.7460  176.3230  143.1800 C   0  0  0  0  0  2  0  0  0  0  0  0
  189.5620  176.8150  145.9940 O   0  0  0  0  0  0  0  0  0  0  0  0
  189.7470  177.5030  147.1940 C   0  0  0  0  0  2  0  0  0  0  0  0
  188.4000  177.8190  147.8060 C   0  0  0  0  0  2  0  0  0  0  0  0
  187.3860  177.4310  146.9320 O   0  0  0  0  0  0  0  0  0  0  0  0
  186.3110  178.2630  147.2460 C   0  0  0  0  0  2  0  0  0  0  0  0
  183.2770  179.0220  145.0990 C   0  0  0  0  0  2  0  0  0  0  0  0
  184.0210  179.3510  143.8070 C   0  0  0  0  0  2  0  0  0  0  0  0
  185.0740  178.2740  143.5700 C   0  0  0  0  0  2  0  0  0  0  0  0
  185.4210  178.4080  146.0600 C   0  0  0  0  0  0  0  0  0  0  0  0
  184.2100  178.8590  146.2180 N   0  0  0  0  0  0  0  0  0  0  0  0
  185.9340  178.1600  144.7440 N   0  0  0  0  0  2  0  0  0  0  0  0
  188.0110  178.2160  140.2270 C   0  0  0  0  0  2  0  0  0  0  0  0
  185.7080  178.2700  138.8820 C   0  0  0  0  0  0  0  0  0  0  0  0
  186.7470  178.2410  139.4920 C   0  0  0  0  0  0  0  0  0  0  0  0
  184.4460  178.3190  138.1380 C   0  0  0  0  0  2  0  0  0  0  0  0
  183.2790  178.5930  139.0820 C   0  0  1  0  0  3  0  0  0  0  0  0
  182.3610  179.6920  138.5280 C   0  0  0  0  0  2  0  0  0  0  0  0
  181.5700  178.6120  141.3890 C   0  0  0  0  0  2  0  0  0  0  0  0
  180.8720  179.7660  140.6550 C   0  0  0  0  0  2  0  0  0  0  0  0
  180.9400  179.6900  139.1120 C   0  0  1  0  0  3  0  0  0  0  0  0
  181.6580  177.4280  140.5970 O   0  0  0  0  0  0  0  0  0  0  0  0
  182.5130  177.3560  139.4940 C   0  0  0  0  0  0  0  0  0  0  0  0
  182.5680  176.2270  138.7970 C   0  0  0  0  0  2  0  0  0  0  0  0
  180.1080  180.5010  136.9900 C   0  0  0  0  0  2  0  0  0  0  0  0
  180.0870  181.8680  136.3560 C   0  0  0  0  0  2  0  0  0  0  0  0
  180.1090  180.6980  138.4370 N   0  0  0  0  0  0  0  0  0  0  0  0
  180.7910  182.7470  137.3550 C   0  0  0  0  0  2  0  0  0  0  0  0
  180.6670  182.0270  138.6830 C   0  0  0  0  0  2  0  0  0  0  0  0
  1  2  2  0  0  0  0
  1 38  1  0  0  0  0
  2 20  1  0  0  0  0
  3  2  1  0  0  0  0
  4 18  1  6  0  0  0
  4  5  1  0  0  0  0
  5  3  1  1  0  0  0
  6  9  1  1  0  0  0
  6  4  1  0  0  0  0
  6  5  1  0  0  0  0
  8 13  1  0  0  0  0
  8 12  2  0  0  0  0
  9  7  1  6  0  0  0
 10 11  1  0  0  0  0
 10  9  1  0  0  0  0
 12 11  1  0  0  0  0
 13  7  1  0  0  0  0
 15 12  1  0  0  0  0
 15 14  2  0  0  0  0
 16 15  2  0  0  0  0
 17 18  2  0  0  0  0
 18 19  1  0  0  0  0
 21 20  1  6  0  0  0
 21 26  1  0  0  0  0
 21 24  1  0  0  0  0
 22 23  1  0  0  0  0
 23 27  1  1  0  0  0
 24 22  1  0  0  0  0
 25 23  1  0  0  0  0
 26 25  1  0  0  0  0
 27 28  1  0  0  0  0
 28 29  1  0  0  0  0
 30 31  1  0  0  0  0
 30 29  1  0  0  0  0
 32 36  1  0  0  0  0
 33 32  1  0  0  0  0
 34 33  1  0  0  0  0
 34 37  1  0  0  0  0
 35 36  2  0  0  0  0
 35 31  1  0  0  0  0
 37 35  1  0  0  0  0
 39 40  3  0  0  0  0
 40 38  1  0  0  0  0
 41 39  1  0  0  0  0
 42 41  1  6  0  0  0
 42 48  1  0  0  0  0
 43 42  1  0  0  0  0
 43 46  1  0  0  0  0
 45 44  1  0  0  0  0
 46 52  1  6  0  0  0
 46 45  1  0  0  0  0
 47 44  1  0  0  0  0
 48 47  1  0  0  0  0
 49 48  2  0  0  0  0
 50 52  1  0  0  0  0
 51 50  1  0  0  0  0
 51 53  1  0  0  0  0
 52 54  1  0  0  0  0
 53 54  1  0  0  0  0
M  END
>  <MODEL>
6

>  <REMARK>
 VINA RESULT:      -7.6      2.682     10.396
  Name = 
  18 active torsions:
  status: ('A' for Active; 'I' for Inactive)
    1  A    between atoms: O_1  and  C_34
    2  A    between atoms: O_1  and  C_35
    3  A    between atoms: C_6  and  C_7
    4  A    between atoms: C_7  and  C_28
    5  A    between atoms: C_10  and  C_17
    6  A    between atoms: C_10  and  O_37
    7  A    between atoms: C_13  and  C_16
    8  A    between atoms: C_14  and  C_34
    9  A    between atoms: C_14  and  O_37
   10  A    between atoms: C_18  and  C_25
   11  A    between atoms: C_19  and  O_27
   12  A    between atoms: N_20  and  C_31
   13  A    between atoms: C_23  and  O_27
   14  A    between atoms: C_23  and  N_38
   15  A    between atoms: C_24  and  N_38
   16  A    between atoms: C_25  and  C_30
   17  A    between atoms: C_32  and  C_39
   18  A    between atoms: C_46  and  N_53
                            x       y       z     vdW  Elec       q    Type
                         _______ _______ _______ _____ _____    ______ ____

>  <TORSDO>
F 18

$$$$
=
 OpenBabel10222420023D

 54 59  0  0  1  0  0  0  0  0999 V2000
  188.2490  178.3140  139.6890 C   0  0  0  0  0  3  0  0  0  0  0  0
  187.3560  178.0810  138.7270 C   0  0  0  0  0  0  0  0  0  0  0  0
  187.7580  178.0730  137.3520 N   0  0  0  0  0  2  0  0  0  0  0  0
  188.9520  175.9600  137.5490 C   0  0  1  0  0  3  0  0  0  0  0  0
  188.8860  177.3020  136.8390 C   0  0  1  0  0  3  0  0  0  0  0  0
  188.4510  176.0260  136.1140 C   0  0  2  0  0  3  0  0  0  0  0  0
  186.5270  175.2470  134.7080 C   0  0  0  0  0  2  0  0  0  0  0  0
  185.1630  173.2220  135.2700 C   0  0  0  0  0  3  0  0  0  0  0  0
  186.9420  175.7920  136.0850 C   0  0  1  0  0  3  0  0  0  0  0  0
  186.5680  174.8890  137.1740 N   0  0  0  0  0  2  0  0  0  0  0  0
  185.1130  174.8040  137.2190 C   0  0  0  0  0  2  0  0  0  0  0  0
  184.5850  173.6390  136.4130 C   0  0  0  0  0  0  0  0  0  0  0  0
  186.4570  173.7260  134.6940 C   0  0  0  0  0  2  0  0  0  0  0  0
  182.1730  173.7690  136.7760 O   0  0  0  0  0  0  0  0  0  0  0  0
  183.3430  173.0430  136.8100 N   0  0  0  0  0  0  0  0  0  0  0  0
  183.3090  171.8550  137.1920 O   0  0  0  0  0  0  0  0  0  0  0  0
  190.6150  174.2940  137.9610 O   0  0  0  0  0  0  0  0  0  0  0  0
  190.3620  175.4670  137.5770 C   0  0  0  0  0  0  0  0  0  0  0  0
  191.4200  176.3010  137.1190 N   0  0  0  0  0  1  0  0  0  0  0  0
  186.0180  177.8490  139.0620 O   0  0  0  0  0  0  0  0  0  0  0  0
  185.0270  178.8690  138.9900 C   0  0  1  0  0  3  0  0  0  0  0  0
  183.0510  177.2930  139.0590 C   0  0  0  0  0  2  0  0  0  0  0  0
  182.6900  177.7940  140.4580 C   0  0  1  0  0  3  0  0  0  0  0  0
  183.7760  178.3740  138.2550 C   0  0  0  0  0  2  0  0  0  0  0  0
  183.9480  178.2720  141.1910 C   0  0  0  0  0  2  0  0  0  0  0  0
  184.6710  179.3580  140.3930 C   0  0  0  0  0  2  0  0  0  0  0  0
  181.7480  178.8250  140.3760 O   0  0  0  0  0  0  0  0  0  0  0  0
  180.5600  178.2010  139.9930 C   0  0  0  0  0  2  0  0  0  0  0  0
  179.4250  179.1980  140.0550 C   0  0  0  0  0  2  0  0  0  0  0  0
  179.9000  180.4690  139.7360 O   0  0  0  0  0  0  0  0  0  0  0  0
  179.6710  180.6000  138.3660 C   0  0  0  0  0  2  0  0  0  0  0  0
  181.5610  183.7940  137.5840 C   0  0  0  0  0  2  0  0  0  0  0  0
  180.6420  184.3070  136.4770 C   0  0  0  0  0  2  0  0  0  0  0  0
  179.1990  184.1800  136.9510 C   0  0  0  0  0  2  0  0  0  0  0  0
  179.9700  181.9940  137.9340 C   0  0  0  0  0  0  0  0  0  0  0  0
  181.1940  182.4330  137.9860 N   0  0  0  0  0  0  0  0  0  0  0  0
  178.9350  182.8040  137.3610 N   0  0  0  0  0  2  0  0  0  0  0  0
  187.8770  178.3330  141.1320 C   0  0  0  0  0  2  0  0  0  0  0  0
  190.0930  178.2080  142.6130 C   0  0  0  0  0  0  0  0  0  0  0  0
  189.0900  178.2670  141.9470 C   0  0  0  0  0  0  0  0  0  0  0  0
  191.3180  178.1240  143.4130 C   0  0  0  0  0  2  0  0  0  0  0  0
  190.9870  177.7590  144.8580 C   0  0  1  0  0  3  0  0  0  0  0  0
  189.4810  177.8760  145.1310 C   0  0  0  0  0  2  0  0  0  0  0  0
  191.2380  177.1210  147.6470 C   0  0  0  0  0  2  0  0  0  0  0  0
  189.7260  177.3850  147.6710 C   0  0  0  0  0  2  0  0  0  0  0  0
  188.9900  177.0730  146.3460 C   0  0  1  0  0  3  0  0  0  0  0  0
  191.6120  176.1480  146.6720 O   0  0  0  0  0  0  0  0  0  0  0  0
  191.5540  176.4300  145.3050 C   0  0  0  0  0  0  0  0  0  0  0  0
  191.9250  175.4940  144.4390 C   0  0  0  0  0  2  0  0  0  0  0  0
  186.9450  177.8180  145.2900 C   0  0  0  0  0  2  0  0  0  0  0  0
  185.7820  178.6390  145.7830 C   0  0  0  0  0  2  0  0  0  0  0  0
  187.5260  177.1540  146.4540 N   0  0  0  0  0  0  0  0  0  0  0  0
  186.1600  179.0030  147.1940 C   0  0  0  0  0  2  0  0  0  0  0  0
  187.1720  177.9580  147.6220 C   0  0  0  0  0  2  0  0  0  0  0  0
  1 38  1  0  0  0  0
  2 20  1  0  0  0  0
  2  1  2  0  0  0  0
  3  2  1  0  0  0  0
  4 18  1  6  0  0  0
  5  3  1  1  0  0  0
  5  4  1  0  0  0  0
  6  9  1  1  0  0  0
  6  5  1  0  0  0  0
  6  4  1  0  0  0  0
  8 12  2  0  0  0  0
  9  7  1  6  0  0  0
  9 10  1  0  0  0  0
 10 11  1  0  0  0  0
 12 15  1  0  0  0  0
 12 11  1  0  0  0  0
 13  7  1  0  0  0  0
 13  8  1  0  0  0  0
 14 15  2  0  0  0  0
 15 16  2  0  0  0  0
 18 17  2  0  0  0  0
 19 18  1  0  0  0  0
 21 20  1  1  0  0  0
 21 26  1  0  0  0  0
 22 23  1  0  0  0  0
 23 27  1  6  0  0  0
 23 25  1  0  0  0  0
 24 21  1  0  0  0  0
 24 22  1  0  0  0  0
 26 25  1  0  0  0  0
 28 29  1  0  0  0  0
 28 27  1  0  0  0  0
 30 29  1  0  0  0  0
 31 30  1  0  0  0  0
 32 36  1  0  0  0  0
 33 34  1  0  0  0  0
 33 32  1  0  0  0  0
 34 37  1  0  0  0  0
 35 36  2  0  0  0  0
 35 31  1  0  0  0  0
 37 35  1  0  0  0  0
 38 40  1  0  0  0  0
 39 41  1  0  0  0  0
 40 39  3  0  0  0  0
 42 41  1  6  0  0  0
 42 43  1  0  0  0  0
 42 48  1  0  0  0  0
 44 45  1  0  0  0  0
 46 43  1  6  0  0  0
 46 52  1  0  0  0  0
 46 45  1  0  0  0  0
 47 44  1  0  0  0  0
 48 47  1  0  0  0  0
 49 48  2  0  0  0  0
 50 51  1  0  0  0  0
 50 52  1  0  0  0  0
 51 53  1  0  0  0  0
 52 54  1  0  0  0  0
 53 54  1  0  0  0  0
M  END
>  <MODEL>
7

>  <REMARK>
 VINA RESULT:      -7.5      2.208      8.271
  Name = 
  18 active torsions:
  status: ('A' for Active; 'I' for Inactive)
    1  A    between atoms: O_1  and  C_34
    2  A    between atoms: O_1  and  C_35
    3  A    between atoms: C_6  and  C_7
    4  A    between atoms: C_7  and  C_28
    5  A    between atoms: C_10  and  C_17
    6  A    between atoms: C_10  and  O_37
    7  A    between atoms: C_13  and  C_16
    8  A    between atoms: C_14  and  C_34
    9  A    between atoms: C_14  and  O_37
   10  A    between atoms: C_18  and  C_25
   11  A    between atoms: C_19  and  O_27
   12  A    between atoms: N_20  and  C_31
   13  A    between atoms: C_23  and  O_27
   14  A    between atoms: C_23  and  N_38
   15  A    between atoms: C_24  and  N_38
   16  A    between atoms: C_25  and  C_30
   17  A    between atoms: C_32  and  C_39
   18  A    between atoms: C_46  and  N_53
                            x       y       z     vdW  Elec       q    Type
                         _______ _______ _______ _____ _____    ______ ____

>  <TORSDO>
F 18

$$$$
=
 OpenBabel10222420023D

 54 59  0  0  1  0  0  0  0  0999 V2000
  188.6370  177.4110  139.6240 C   0  0  0  0  0  3  0  0  0  0  0  0
  189.7060  176.8710  140.2120 C   0  0  0  0  0  0  0  0  0  0  0  0
  190.5480  175.9630  139.4920 N   0  0  0  0  0  2  0  0  0  0  0  0
  191.9160  175.1100  137.6680 C   0  0  1  0  0  3  0  0  0  0  0  0
  191.3850  176.3520  138.3620 C   0  0  1  0  0  3  0  0  0  0  0  0
  190.8040  175.9160  137.0150 C   0  0  2  0  0  3  0  0  0  0  0  0
  188.3890  175.9030  136.3420 C   0  0  0  0  0  2  0  0  0  0  0  0
  187.4000  174.1450  134.8550 C   0  0  0  0  0  3  0  0  0  0  0  0
  189.4870  175.1470  137.1080 C   0  0  1  0  0  3  0  0  0  0  0  0
  189.6810  173.7880  136.6020 N   0  0  0  0  0  2  0  0  0  0  0  0
  188.4580  173.0320  136.8430 C   0  0  0  0  0  2  0  0  0  0  0  0
  187.5230  173.0680  135.6540 C   0  0  0  0  0  0  0  0  0  0  0  0
  188.2350  175.3940  134.9150 C   0  0  0  0  0  2  0  0  0  0  0  0
  187.0640  170.6680  135.6660 O   0  0  0  0  0  0  0  0  0  0  0  0
  186.6350  171.9600  135.4530 N   0  0  0  0  0  0  0  0  0  0  0  0
  185.4590  172.1550  135.0840 O   0  0  0  0  0  0  0  0  0  0  0  0
  193.9380  176.3600  137.4260 O   0  0  0  0  0  0  0  0  0  0  0  0
  193.2220  175.4110  137.0090 C   0  0  0  0  0  0  0  0  0  0  0  0
  193.6900  174.5940  135.9420 N   0  0  0  0  0  1  0  0  0  0  0  0
  190.0030  177.1890  141.5410 O   0  0  0  0  0  0  0  0  0  0  0  0
  189.8820  176.2410  142.5970 C   0  0  1  0  0  3  0  0  0  0  0  0
  190.3520  177.8890  144.4570 C   0  0  0  0  0  2  0  0  0  0  0  0
  188.9000  177.7860  144.9260 C   0  0  1  0  0  3  0  0  0  0  0  0
  190.8030  176.5980  143.7690 C   0  0  0  0  0  2  0  0  0  0  0  0
  187.9850  177.4440  143.7450 C   0  0  0  0  0  2  0  0  0  0  0  0
  188.4280  176.1510  143.0600 C   0  0  0  0  0  2  0  0  0  0  0  0
  188.7820  176.8220  145.9330 O   0  0  0  0  0  0  0  0  0  0  0  0
  189.1750  177.4710  147.1030 C   0  0  0  0  0  2  0  0  0  0  0  0
  187.9920  178.2060  147.6940 C   0  0  0  0  0  2  0  0  0  0  0  0
  186.8340  177.8660  146.9960 O   0  0  0  0  0  0  0  0  0  0  0  0
  186.0270  179.0000  147.0760 C   0  0  0  0  0  2  0  0  0  0  0  0
  184.9480  179.6670  143.5010 C   0  0  0  0  0  2  0  0  0  0  0  0
  183.8240  178.6350  143.4340 C   0  0  0  0  0  2  0  0  0  0  0  0
  182.9760  178.7620  144.6940 C   0  0  0  0  0  2  0  0  0  0  0  0
  185.1840  179.1090  145.8520 C   0  0  0  0  0  0  0  0  0  0  0  0
  185.7170  179.5290  144.7420 N   0  0  0  0  0  0  0  0  0  0  0  0
  183.8270  178.6460  145.8740 N   0  0  0  0  0  2  0  0  0  0  0  0
  187.7340  178.3600  140.3330 C   0  0  0  0  0  2  0  0  0  0  0  0
  185.4650  178.6330  138.9560 C   0  0  0  0  0  0  0  0  0  0  0  0
  186.4930  178.5090  139.5740 C   0  0  0  0  0  0  0  0  0  0  0  0
  184.2090  178.7820  138.2180 C   0  0  0  0  0  2  0  0  0  0  0  0
  183.1450  177.8410  138.7770 C   0  0  1  0  0  3  0  0  0  0  0  0
  182.1710  178.5870  139.6990 C   0  0  0  0  0  2  0  0  0  0  0  0
  181.6860  175.4720  139.4890 C   0  0  0  0  0  2  0  0  0  0  0  0
  180.9120  176.4280  140.4070 C   0  0  0  0  0  2  0  0  0  0  0  0
  180.8180  177.8860  139.8990 C   0  0  1  0  0  3  0  0  0  0  0  0
  181.6950  175.9030  138.1280 O   0  0  0  0  0  0  0  0  0  0  0  0
  182.4310  177.0210  137.7260 C   0  0  0  0  0  0  0  0  0  0  0  0
  182.4160  177.3730  136.4460 C   0  0  0  0  0  2  0  0  0  0  0  0
  180.6500  179.8080  141.3580 C   0  0  0  0  0  2  0  0  0  0  0  0
  180.0150  180.0120  142.7090 C   0  0  0  0  0  2  0  0  0  0  0  0
  179.9180  178.7310  140.6980 N   0  0  0  0  0  0  0  0  0  0  0  0
  179.4750  178.6540  143.0710 C   0  0  0  0  0  2  0  0  0  0  0  0
  179.3090  177.9230  141.7530 C   0  0  0  0  0  2  0  0  0  0  0  0
  1  2  2  0  0  0  0
  1 38  1  0  0  0  0
  2 20  1  0  0  0  0
  3  2  1  0  0  0  0
  4 18  1  6  0  0  0
  4  5  1  0  0  0  0
  5  3  1  1  0  0  0
  6  9  1  1  0  0  0
  6  4  1  0  0  0  0
  6  5  1  0  0  0  0
  8 13  1  0  0  0  0
  8 12  2  0  0  0  0
  9  7  1  6  0  0  0
 10 11  1  0  0  0  0
 10  9  1  0  0  0  0
 12 11  1  0  0  0  0
 13  7  1  0  0  0  0
 15 12  1  0  0  0  0
 15 14  2  0  0  0  0
 16 15  2  0  0  0  0
 18 17  2  0  0  0  0
 19 18  1  0  0  0  0
 21 20  1  6  0  0  0
 21 26  1  0  0  0  0
 21 24  1  0  0  0  0
 22 23  1  0  0  0  0
 23 27  1  1  0  0  0
 24 22  1  0  0  0  0
 25 23  1  0  0  0  0
 26 25  1  0  0  0  0
 27 28  1  0  0  0  0
 28 29  1  0  0  0  0
 30 31  1  0  0  0  0
 30 29  1  0  0  0  0
 32 36  1  0  0  0  0
 33 32  1  0  0  0  0
 33 34  1  0  0  0  0
 34 37  1  0  0  0  0
 35 37  1  0  0  0  0
 35 31  1  0  0  0  0
 36 35  2  0  0  0  0
 39 40  3  0  0  0  0
 40 38  1  0  0  0  0
 41 39  1  0  0  0  0
 42 41  1  6  0  0  0
 42 43  1  0  0  0  0
 44 45  1  0  0  0  0
 46 43  1  1  0  0  0
 46 45  1  0  0  0  0
 46 52  1  0  0  0  0
 47 44  1  0  0  0  0
 48 47  1  0  0  0  0
 48 42  1  0  0  0  0
 49 48  2  0  0  0  0
 50 51  1  0  0  0  0
 51 53  1  0  0  0  0
 52 50  1  0  0  0  0
 52 54  1  0  0  0  0
 54 53  1  0  0  0  0
M  END
>  <MODEL>
8

>  <REMARK>
 VINA RESULT:      -7.4      3.240     10.169
  Name = 
  18 active torsions:
  status: ('A' for Active; 'I' for Inactive)
    1  A    between atoms: O_1  and  C_34
    2  A    between atoms: O_1  and  C_35
    3  A    between atoms: C_6  and  C_7
    4  A    between atoms: C_7  and  C_28
    5  A    between atoms: C_10  and  C_17
    6  A    between atoms: C_10  and  O_37
    7  A    between atoms: C_13  and  C_16
    8  A    between atoms: C_14  and  C_34
    9  A    between atoms: C_14  and  O_37
   10  A    between atoms: C_18  and  C_25
   11  A    between atoms: C_19  and  O_27
   12  A    between atoms: N_20  and  C_31
   13  A    between atoms: C_23  and  O_27
   14  A    between atoms: C_23  and  N_38
   15  A    between atoms: C_24  and  N_38
   16  A    between atoms: C_25  and  C_30
   17  A    between atoms: C_32  and  C_39
   18  A    between atoms: C_46  and  N_53
                            x       y       z     vdW  Elec       q    Type
                         _______ _______ _______ _____ _____    ______ ____

>  <TORSDO>
F 18

$$$$
=
 OpenBabel10222420023D

 54 59  0  0  1  0  0  0  0  0999 V2000
  188.3170  178.4750  139.7060 C   0  0  0  0  0  3  0  0  0  0  0  0
  187.4940  178.1450  138.7110 C   0  0  0  0  0  0  0  0  0  0  0  0
  187.9730  178.0880  137.3630 N   0  0  0  0  0  2  0  0  0  0  0  0
  189.7660  176.4600  137.6120 C   0  0  1  0  0  3  0  0  0  0  0  0
  189.3560  177.7900  137.0030 C   0  0  1  0  0  3  0  0  0  0  0  0
  189.4840  176.5460  136.1200 C   0  0  2  0  0  3  0  0  0  0  0  0
  188.3770  174.8020  134.7000 C   0  0  0  0  0  2  0  0  0  0  0  0
  187.3420  172.7280  135.6510 C   0  0  0  0  0  3  0  0  0  0  0  0
  188.1620  175.8480  135.8060 C   0  0  1  0  0  3  0  0  0  0  0  0
  187.6190  175.2580  137.0300 N   0  0  0  0  0  2  0  0  0  0  0  0
  186.2910  174.7350  136.7350 C   0  0  0  0  0  2  0  0  0  0  0  0
  186.3280  173.2720  136.3500 C   0  0  0  0  0  0  0  0  0  0  0  0
  188.6250  173.4120  135.2710 C   0  0  0  0  0  2  0  0  0  0  0  0
  184.5230  172.5590  137.8350 O   0  0  0  0  0  0  0  0  0  0  0  0
  185.1730  172.4680  136.6230 N   0  0  0  0  0  0  0  0  0  0  0  0
  184.7410  171.6750  135.7610 O   0  0  0  0  0  0  0  0  0  0  0  0
  191.6990  176.7310  138.9920 O   0  0  0  0  0  0  0  0  0  0  0  0
  191.2400  176.4420  137.8540 C   0  0  0  0  0  0  0  0  0  0  0  0
  192.1300  176.0480  136.8160 N   0  0  0  0  0  1  0  0  0  0  0  0
  186.1520  177.8600  138.9850 O   0  0  0  0  0  0  0  0  0  0  0  0
  185.0840  178.6380  138.4540 C   0  0  1  0  0  3  0  0  0  0  0  0
  183.3740  176.7770  138.5150 C   0  0  0  0  0  2  0  0  0  0  0  0
  182.6200  177.4950  139.6350 C   0  0  1  0  0  3  0  0  0  0  0  0
  184.1260  177.7730  137.6290 C   0  0  0  0  0  2  0  0  0  0  0  0
  183.5890  178.3450  140.4650 C   0  0  0  0  0  2  0  0  0  0  0  0
  184.3360  179.3470  139.5830 C   0  0  0  0  0  2  0  0  0  0  0  0
  181.6010  178.2900  139.1030 O   0  0  0  0  0  0  0  0  0  0  0  0
  180.5200  178.1220  139.9680 C   0  0  0  0  0  2  0  0  0  0  0  0
  180.3130  176.6480  140.2360 C   0  0  0  0  0  2  0  0  0  0  0  0
  179.7850  176.0350  139.1010 O   0  0  0  0  0  0  0  0  0  0  0  0
  179.6150  174.7000  139.4660 C   0  0  0  0  0  2  0  0  0  0  0  0
  179.6750  171.7780  137.0480 C   0  0  0  0  0  2  0  0  0  0  0  0
  180.2280  172.5290  135.8380 C   0  0  0  0  0  2  0  0  0  0  0  0
  181.4110  173.3740  136.2950 C   0  0  0  0  0  2  0  0  0  0  0  0
  179.9990  173.8130  138.3330 C   0  0  0  0  0  0  0  0  0  0  0  0
  179.3480  172.7030  138.1380 N   0  0  0  0  0  0  0  0  0  0  0  0
  181.0030  174.2360  137.4000 N   0  0  0  0  0  2  0  0  0  0  0  0
  187.8630  178.5470  141.1240 C   0  0  0  0  0  2  0  0  0  0  0  0
  189.9940  178.5740  142.7300 C   0  0  0  0  0  0  0  0  0  0  0  0
  189.0290  178.5660  142.0070 C   0  0  0  0  0  0  0  0  0  0  0  0
  191.1720  178.5740  143.6000 C   0  0  0  0  0  2  0  0  0  0  0  0
  190.8310  177.9730  144.9610 C   0  0  1  0  0  3  0  0  0  0  0  0
  189.3310  178.0990  145.2640 C   0  0  0  0  0  2  0  0  0  0  0  0
  191.0620  176.8450  147.5920 C   0  0  0  0  0  2  0  0  0  0  0  0
  189.5610  177.1590  147.6760 C   0  0  0  0  0  2  0  0  0  0  0  0
  188.8110  177.1140  146.3240 C   0  0  1  0  0  3  0  0  0  0  0  0
  191.3940  176.0440  146.4580 O   0  0  0  0  0  0  0  0  0  0  0  0
  191.3440  176.5650  145.1630 C   0  0  0  0  0  0  0  0  0  0  0  0
  191.6760  175.7820  144.1420 C   0  0  0  0  0  2  0  0  0  0  0  0
  186.7490  177.7650  145.2380 C   0  0  0  0  0  2  0  0  0  0  0  0
  185.6110  178.6590  145.6590 C   0  0  0  0  0  2  0  0  0  0  0  0
  187.3510  177.2330  146.4570 N   0  0  0  0  0  0  0  0  0  0  0  0
  186.0320  179.1800  147.0070 C   0  0  0  0  0  2  0  0  0  0  0  0
  187.0400  178.1760  147.5300 C   0  0  0  0  0  2  0  0  0  0  0  0
  1 38  1  0  0  0  0
  2 20  1  0  0  0  0
  2  1  2  0  0  0  0
  3  2  1  0  0  0  0
  4 18  1  6  0  0  0
  5  3  1  1  0  0  0
  5  4  1  0  0  0  0
  6  9  1  1  0  0  0
  6  5  1  0  0  0  0
  6  4  1  0  0  0  0
  7 13  1  0  0  0  0
  8 12  2  0  0  0  0
  9  7  1  6  0  0  0
  9 10  1  0  0  0  0
 11 10  1  0  0  0  0
 12 15  1  0  0  0  0
 12 11  1  0  0  0  0
 13  8  1  0  0  0  0
 15 14  2  0  0  0  0
 16 15  2  0  0  0  0
 18 17  2  0  0  0  0
 19 18  1  0  0  0  0
 21 20  1  1  0  0  0
 21 26  1  0  0  0  0
 22 23  1  0  0  0  0
 23 27  1  6  0  0  0
 23 25  1  0  0  0  0
 24 21  1  0  0  0  0
 24 22  1  0  0  0  0
 26 25  1  0  0  0  0
 27 28  1  0  0  0  0
 28 29  1  0  0  0  0
 30 31  1  0  0  0  0
 30 29  1  0  0  0  0
 32 36  1  0  0  0  0
 33 34  1  0  0  0  0
 33 32  1  0  0  0  0
 34 37  1  0  0  0  0
 35 31  1  0  0  0  0
 36 35  2  0  0  0  0
 37 35  1  0  0  0  0
 38 40  1  0  0  0  0
 39 41  1  0  0  0  0
 40 39  3  0  0  0  0
 42 41  1  6  0  0  0
 42 48  1  0  0  0  0
 42 43  1  0  0  0  0
 44 45  1  0  0  0  0
 46 43  1  6  0  0  0
 46 52  1  0  0  0  0
 46 45  1  0  0  0  0
 47 44  1  0  0  0  0
 48 47  1  0  0  0  0
 49 48  2  0  0  0  0
 50 51  1  0  0  0  0
 50 52  1  0  0  0  0
 51 53  1  0  0  0  0
 52 54  1  0  0  0  0
 53 54  1  0  0  0  0
M  END
>  <MODEL>
9

>  <REMARK>
 VINA RESULT:      -7.1      3.267      7.864
  Name = 
  18 active torsions:
  status: ('A' for Active; 'I' for Inactive)
    1  A    between atoms: O_1  and  C_34
    2  A    between atoms: O_1  and  C_35
    3  A    between atoms: C_6  and  C_7
    4  A    between atoms: C_7  and  C_28
    5  A    between atoms: C_10  and  C_17
    6  A    between atoms: C_10  and  O_37
    7  A    between atoms: C_13  and  C_16
    8  A    between atoms: C_14  and  C_34
    9  A    between atoms: C_14  and  O_37
   10  A    between atoms: C_18  and  C_25
   11  A    between atoms: C_19  and  O_27
   12  A    between atoms: N_20  and  C_31
   13  A    between atoms: C_23  and  O_27
   14  A    between atoms: C_23  and  N_38
   15  A    between atoms: C_24  and  N_38
   16  A    between atoms: C_25  and  C_30
   17  A    between atoms: C_32  and  C_39
   18  A    between atoms: C_46  and  N_53
                            x       y       z     vdW  Elec       q    Type
                         _______ _______ _______ _____ _____    ______ ____

>  <TORSDO>
F 18

$$$$
