=
 OpenBabel10222416403D

 30 34  0  0  1  0  0  0  0  0999 V2000
  186.9420  178.0910  142.8500 C   0  0  0  0  0  0  0  0  0  0  0  0
  184.5710  178.7480  139.6000 C   0  0  0  0  0  3  0  0  0  0  0  0
  183.9170  178.6460  140.8000 N   0  0  0  0  0  0  0  0  0  0  0  0
  186.7270  177.9080  144.3160 C   0  0  0  0  0  1  0  0  0  0  0  0
  186.6090  178.4090  140.6940 C   0  0  0  0  0  0  0  0  0  0  0  0
  187.9410  178.2670  140.8310 N   0  0  0  0  0  0  0  0  0  0  0  0
  185.9730  178.3060  141.8950 C   0  0  0  0  0  0  0  0  0  0  0  0
  185.9320  178.6280  139.5390 N   0  0  0  0  0  0  0  0  0  0  0  0
  188.1550  178.0750  142.1570 C   0  0  0  0  0  0  0  0  0  0  0  0
  184.5930  178.4250  141.9660 C   0  0  0  0  0  3  0  0  0  0  0  0
  189.0010  177.9070  136.3390 C   0  0  0  0  0  2  0  0  0  0  0  0
  188.9620  178.3120  139.7860 C   0  0  2  0  0  3  0  0  0  0  0  0
  190.0900  177.5040  137.2410 N   0  0  1  0  0  0  0  0  0  0  0  0
  190.3100  175.1900  137.9690 C   0  0  0  0  0  1  0  0  0  0  0  0
  189.4310  178.8360  137.3760 C   0  0  2  0  0  3  0  0  0  0  0  0
  188.3890  178.9010  138.4980 C   0  0  0  0  0  2  0  0  0  0  0  0
  189.5930  176.9280  139.5850 C   0  0  0  0  0  2  0  0  0  0  0  0
  189.5310  176.4790  138.1270 C   0  0  1  0  0  3  0  0  0  0  0  0
  191.5410  177.7210  144.7450 C   0  0  0  0  0  2  0  0  0  0  0  0
  191.2930  178.8310  143.7130 C   0  0  0  0  0  2  0  0  0  0  0  0
  190.3160  176.8120  144.9360 C   0  0  2  0  0  3  0  0  0  0  0  0
  190.1500  175.4520  142.8430 C   0  0  0  0  0  1  0  0  0  0  0  0
  189.5130  177.8630  142.7530 C   0  0  1  0  0  3  0  0  0  0  0  0
  189.9190  179.0020  143.4720 O   0  0  0  0  0  0  0  0  0  0  0  0
  189.5390  176.5970  143.6280 C   0  0  2  0  0  3  0  0  0  0  0  0
  189.4700  177.3720  145.8960 O   0  0  0  0  0  0  0  0  0  0  0  0
  190.0920  177.1170  147.1190 C   0  0  0  0  0  2  0  0  0  0  0  0
  189.4310  177.9320  148.2170 C   0  0  0  0  0  2  0  0  0  0  0  0
  187.9860  177.5050  148.3900 C   0  0  0  0  0  2  0  0  0  0  0  0
  187.0710  178.6260  147.9440 C   0  0  0  0  0  1  0  0  0  0  0  0
  1  4  1  0  0  0  0
  2  3  1  0  0  0  0
  3 10  2  0  0  0  0
  5  6  1  0  0  0  0
  5  7  2  0  0  0  0
  6  9  1  0  0  0  0
  7 10  1  0  0  0  0
  7  1  1  0  0  0  0
  8  2  2  0  0  0  0
  8  5  1  0  0  0  0
  9  1  2  0  0  0  0
 12 16  1  6  0  0  0
 12  6  1  0  0  0  0
 13 11  1  6  0  0  0
 13 15  1  0  0  0  0
 13 18  1  0  0  0  0
 15 11  1  6  0  0  0
 15 16  1  0  0  0  0
 17 12  1  0  0  0  0
 18 14  1  1  0  0  0
 18 17  1  0  0  0  0
 19 21  1  0  0  0  0
 20 19  1  0  0  0  0
 21 26  1  1  0  0  0
 23  9  1  1  0  0  0
 23 24  1  0  0  0  0
 23 25  1  0  0  0  0
 24 20  1  0  0  0  0
 25 22  1  6  0  0  0
 25 21  1  0  0  0  0
 26 27  1  0  0  0  0
 27 28  1  0  0  0  0
 28 29  1  0  0  0  0
 30 29  1  0  0  0  0
M  END
>  <MODEL>
1

>  <REMARK>
 VINA RESULT:      -8.1      0.000      0.000
  Name = 
  6 active torsions:
  status: ('A' for Active; 'I' for Inactive)
    1  A    between atoms: C_5  and  O_18
    2  A    between atoms: C_7  and  N_15
    3  A    between atoms: C_8  and  C_10
    4  A    between atoms: C_8  and  C_17
    5  A    between atoms: C_12  and  C_27
    6  A    between atoms: C_17  and  O_18
                            x       y       z     vdW  Elec       q    Type
                         _______ _______ _______ _____ _____    ______ ____

>  <TORSDO>
F 6

$$$$
=
 OpenBabel10222416403D

 30 34  0  0  1  0  0  0  0  0999 V2000
  186.6470  178.2870  142.6680 C   0  0  0  0  0  0  0  0  0  0  0  0
  183.3930  178.9550  145.0300 C   0  0  0  0  0  3  0  0  0  0  0  0
  183.2510  179.3050  143.7130 N   0  0  0  0  0  0  0  0  0  0  0  0
  186.9900  178.4910  141.2300 C   0  0  0  0  0  1  0  0  0  0  0  0
  185.5790  178.2480  144.5970 C   0  0  0  0  0  0  0  0  0  0  0  0
  186.7990  177.7400  144.8560 N   0  0  0  0  0  0  0  0  0  0  0  0
  185.4530  178.5920  143.2840 C   0  0  0  0  0  0  0  0  0  0  0  0
  184.5680  178.4210  145.4840 N   0  0  0  0  0  0  0  0  0  0  0  0
  187.4620  177.7560  143.6720 C   0  0  0  0  0  0  0  0  0  0  0  0
  184.2660  179.1350  142.8150 C   0  0  0  0  0  3  0  0  0  0  0  0
  189.0270  178.6790  148.8040 C   0  0  0  0  0  2  0  0  0  0  0  0
  187.3200  177.2610  146.1350 C   0  0  2  0  0  3  0  0  0  0  0  0
  189.2120  177.2990  148.3300 N   0  0  1  0  0  0  0  0  0  0  0  0
  191.0690  176.7270  146.8600 C   0  0  0  0  0  1  0  0  0  0  0  0
  187.8480  177.8750  148.5110 C   0  0  2  0  0  3  0  0  0  0  0  0
  187.1940  178.3430  147.2070 C   0  0  0  0  0  2  0  0  0  0  0  0
  188.7520  176.7380  145.9740 C   0  0  0  0  0  2  0  0  0  0  0  0
  189.7160  177.4010  146.9570 C   0  0  1  0  0  3  0  0  0  0  0  0
  191.2310  176.3810  142.1930 C   0  0  0  0  0  2  0  0  0  0  0  0
  190.2000  175.5530  142.9750 C   0  0  0  0  0  2  0  0  0  0  0  0
  190.6870  177.7570  141.7780 C   0  0  2  0  0  3  0  0  0  0  0  0
  190.5430  179.0930  143.8880 C   0  0  0  0  0  1  0  0  0  0  0  0
  188.8720  177.2790  143.5080 C   0  0  1  0  0  3  0  0  0  0  0  0
  188.9020  176.0630  142.8000 O   0  0  0  0  0  0  0  0  0  0  0  0
  189.7430  178.3540  142.8340 C   0  0  2  0  0  3  0  0  0  0  0  0
  190.0130  177.6400  140.5610 O   0  0  0  0  0  0  0  0  0  0  0  0
  190.9480  177.0900  139.6820 C   0  0  0  0  0  2  0  0  0  0  0  0
  190.3860  177.0740  138.2700 C   0  0  0  0  0  2  0  0  0  0  0  0
  189.0320  177.7560  138.2370 C   0  0  0  0  0  2  0  0  0  0  0  0
  189.0530  178.8720  137.2140 C   0  0  0  0  0  1  0  0  0  0  0  0
  1  7  1  0  0  0  0
  1  9  2  0  0  0  0
  2  8  1  0  0  0  0
  3  2  2  0  0  0  0
  4  1  1  0  0  0  0
  5  6  1  0  0  0  0
  5  8  2  0  0  0  0
  7  5  1  0  0  0  0
  9  6  1  0  0  0  0
 10  7  2  0  0  0  0
 10  3  1  0  0  0  0
 12  6  1  6  0  0  0
 12 16  1  0  0  0  0
 13 15  1  0  0  0  0
 13 11  1  1  0  0  0
 15 16  1  6  0  0  0
 15 11  1  0  0  0  0
 17 12  1  0  0  0  0
 17 18  1  0  0  0  0
 18 14  1  1  0  0  0
 18 13  1  0  0  0  0
 19 20  1  0  0  0  0
 21 26  1  6  0  0  0
 21 19  1  0  0  0  0
 21 25  1  0  0  0  0
 23  9  1  6  0  0  0
 24 20  1  0  0  0  0
 24 23  1  0  0  0  0
 25 23  1  0  0  0  0
 25 22  1  1  0  0  0
 27 26  1  0  0  0  0
 28 27  1  0  0  0  0
 29 28  1  0  0  0  0
 30 29  1  0  0  0  0
M  END
>  <MODEL>
2

>  <REMARK>
 VINA RESULT:      -8.0      2.463      6.658
  Name = 
  6 active torsions:
  status: ('A' for Active; 'I' for Inactive)
    1  A    between atoms: C_5  and  O_18
    2  A    between atoms: C_7  and  N_15
    3  A    between atoms: C_8  and  C_10
    4  A    between atoms: C_8  and  C_17
    5  A    between atoms: C_12  and  C_27
    6  A    between atoms: C_17  and  O_18
                            x       y       z     vdW  Elec       q    Type
                         _______ _______ _______ _____ _____    ______ ____

>  <TORSDO>
F 6

$$$$
=
 OpenBabel10222416403D

 30 34  0  0  1  0  0  0  0  0999 V2000
  187.5330  178.2090  141.1490 C   0  0  0  0  0  0  0  0  0  0  0  0
  183.5700  179.0390  141.6180 C   0  0  0  0  0  3  0  0  0  0  0  0
  184.0790  179.2720  140.3680 N   0  0  0  0  0  0  0  0  0  0  0  0
  188.5210  178.2920  140.0340 C   0  0  0  0  0  1  0  0  0  0  0  0
  185.6770  178.3250  142.3340 C   0  0  0  0  0  0  0  0  0  0  0  0
  186.6130  177.8570  143.1830 N   0  0  0  0  0  0  0  0  0  0  0  0
  186.1990  178.5510  141.0960 C   0  0  0  0  0  0  0  0  0  0  0  0
  184.3720  178.5620  142.6180 N   0  0  0  0  0  0  0  0  0  0  0  0
  187.7580  177.7780  142.4590 C   0  0  0  0  0  0  0  0  0  0  0  0
  185.3930  179.0370  140.0770 C   0  0  0  0  0  3  0  0  0  0  0  0
  186.4120  179.2250  147.6020 C   0  0  0  0  0  2  0  0  0  0  0  0
  186.4510  177.4980  144.5900 C   0  0  2  0  0  3  0  0  0  0  0  0
  186.9430  177.8650  147.4230 N   0  0  1  0  0  0  0  0  0  0  0  0
  189.3350  177.4890  147.1490 C   0  0  0  0  0  1  0  0  0  0  0  0
  185.6310  178.2620  146.8360 C   0  0  2  0  0  3  0  0  0  0  0  0
  185.6930  178.5920  145.3420 C   0  0  0  0  0  2  0  0  0  0  0  0
  187.8070  177.1630  145.2230 C   0  0  0  0  0  2  0  0  0  0  0  0
  188.0650  177.9820  146.4860 C   0  0  1  0  0  3  0  0  0  0  0  0
  191.7210  176.2930  143.0670 C   0  0  0  0  0  2  0  0  0  0  0  0
  190.4120  175.5500  143.3680 C   0  0  0  0  0  2  0  0  0  0  0  0
  191.4900  177.6020  142.2940 C   0  0  2  0  0  3  0  0  0  0  0  0
  190.4420  179.1780  143.9290 C   0  0  0  0  0  1  0  0  0  0  0  0
  189.0620  177.3060  143.0240 C   0  0  1  0  0  3  0  0  0  0  0  0
  189.3650  176.0150  142.5540 O   0  0  0  0  0  0  0  0  0  0  0  0
  190.1900  178.3060  142.7140 C   0  0  2  0  0  3  0  0  0  0  0  0
  191.4510  177.3280  140.9250 O   0  0  0  0  0  0  0  0  0  0  0  0
  192.7590  177.5300  140.4790 C   0  0  0  0  0  2  0  0  0  0  0  0
  192.9540  176.8670  139.1260 C   0  0  0  0  0  2  0  0  0  0  0  0
  191.6110  176.5030  138.5210 C   0  0  0  0  0  2  0  0  0  0  0  0
  191.7250  175.1810  137.7940 C   0  0  0  0  0  1  0  0  0  0  0  0
  1  9  2  0  0  0  0
  2  8  1  0  0  0  0
  3  2  2  0  0  0  0
  4  1  1  0  0  0  0
  5  8  2  0  0  0  0
  5  6  1  0  0  0  0
  7  1  1  0  0  0  0
  7  5  1  0  0  0  0
  9  6  1  0  0  0  0
 10  3  1  0  0  0  0
 10  7  2  0  0  0  0
 12  6  1  6  0  0  0
 12 17  1  0  0  0  0
 12 16  1  0  0  0  0
 13 11  1  1  0  0  0
 15 16  1  6  0  0  0
 15 13  1  0  0  0  0
 15 11  1  0  0  0  0
 17 18  1  0  0  0  0
 18 14  1  1  0  0  0
 18 13  1  0  0  0  0
 19 20  1  0  0  0  0
 21 26  1  6  0  0  0
 21 25  1  0  0  0  0
 21 19  1  0  0  0  0
 23  9  1  6  0  0  0
 24 23  1  0  0  0  0
 24 20  1  0  0  0  0
 25 23  1  0  0  0  0
 25 22  1  1  0  0  0
 27 26  1  0  0  0  0
 28 27  1  0  0  0  0
 29 28  1  0  0  0  0
 30 29  1  0  0  0  0
M  END
>  <MODEL>
3

>  <REMARK>
 VINA RESULT:      -7.6      2.157      6.262
  Name = 
  6 active torsions:
  status: ('A' for Active; 'I' for Inactive)
    1  A    between atoms: C_5  and  O_18
    2  A    between atoms: C_7  and  N_15
    3  A    between atoms: C_8  and  C_10
    4  A    between atoms: C_8  and  C_17
    5  A    between atoms: C_12  and  C_27
    6  A    between atoms: C_17  and  O_18
                            x       y       z     vdW  Elec       q    Type
                         _______ _______ _______ _____ _____    ______ ____

>  <TORSDO>
F 6

$$$$
=
 OpenBabel10222416403D

 30 34  0  0  1  0  0  0  0  0999 V2000
  185.4420  178.7580  140.5390 C   0  0  0  0  0  0  0  0  0  0  0  0
  185.6560  178.2340  144.5760 C   0  0  0  0  0  3  0  0  0  0  0  0
  184.4370  178.6370  144.0940 N   0  0  0  0  0  0  0  0  0  0  0  0
  184.3910  179.1740  139.5650 C   0  0  0  0  0  1  0  0  0  0  0  0
  186.5080  178.2440  142.4000 C   0  0  0  0  0  0  0  0  0  0  0  0
  187.4180  178.0990  141.4160 N   0  0  0  0  0  0  0  0  0  0  0  0
  185.3030  178.6440  141.9050 C   0  0  0  0  0  0  0  0  0  0  0  0
  186.7080  178.0350  143.7250 N   0  0  0  0  0  0  0  0  0  0  0  0
  186.7670  178.4090  140.2660 C   0  0  0  0  0  0  0  0  0  0  0  0
  184.2310  178.8500  142.7610 C   0  0  0  0  0  3  0  0  0  0  0  0
  190.6990  175.9700  143.8920 C   0  0  0  0  0  2  0  0  0  0  0  0
  188.8150  177.6900  141.5380 C   0  0  2  0  0  3  0  0  0  0  0  0
  191.2030  177.0730  143.0620 N   0  0  1  0  0  0  0  0  0  0  0  0
  191.3330  179.3390  143.9480 C   0  0  0  0  0  1  0  0  0  0  0  0
  190.3910  175.9710  142.4680 C   0  0  2  0  0  3  0  0  0  0  0  0
  188.9210  176.3370  142.2410 C   0  0  0  0  0  2  0  0  0  0  0  0
  189.6440  178.7870  142.2180 C   0  0  0  0  0  2  0  0  0  0  0  0
  190.4140  178.2540  143.4250 C   0  0  1  0  0  3  0  0  0  0  0  0
  189.3840  177.8510  136.9310 C   0  0  0  0  0  2  0  0  0  0  0  0
  189.0800  179.1790  137.6410 C   0  0  0  0  0  2  0  0  0  0  0  0
  188.8080  176.6390  137.6790 C   0  0  2  0  0  3  0  0  0  0  0  0
  186.3290  176.7630  137.3630 C   0  0  0  0  0  1  0  0  0  0  0  0
  187.4170  178.3850  138.9170 C   0  0  1  0  0  3  0  0  0  0  0  0
  188.6980  178.9640  138.9760 O   0  0  0  0  0  0  0  0  0  0  0  0
  187.4630  176.9540  138.3530 C   0  0  2  0  0  3  0  0  0  0  0  0
  189.7240  176.2130  138.6430 O   0  0  0  0  0  0  0  0  0  0  0  0
  190.7500  175.6010  137.9210 C   0  0  0  0  0  2  0  0  0  0  0  0
  192.0840  176.2380  138.2730 C   0  0  0  0  0  2  0  0  0  0  0  0
  191.9290  177.1500  139.4750 C   0  0  0  0  0  2  0  0  0  0  0  0
  193.2750  177.3500  140.1360 C   0  0  0  0  0  1  0  0  0  0  0  0
  1  7  1  0  0  0  0
  3  2  1  0  0  0  0
  4  1  1  0  0  0  0
  5  8  1  0  0  0  0
  6  5  1  0  0  0  0
  7  5  2  0  0  0  0
  7 10  1  0  0  0  0
  8  2  2  0  0  0  0
  9  1  2  0  0  0  0
  9  6  1  0  0  0  0
 10  3  2  0  0  0  0
 12  6  1  1  0  0  0
 12 17  1  0  0  0  0
 12 16  1  0  0  0  0
 13 18  1  0  0  0  0
 13 11  1  1  0  0  0
 15 16  1  1  0  0  0
 15 13  1  0  0  0  0
 15 11  1  0  0  0  0
 17 18  1  0  0  0  0
 18 14  1  6  0  0  0
 19 20  1  0  0  0  0
 19 21  1  0  0  0  0
 20 24  1  0  0  0  0
 21 25  1  0  0  0  0
 21 26  1  1  0  0  0
 23 24  1  0  0  0  0
 23  9  1  1  0  0  0
 25 22  1  6  0  0  0
 25 23  1  0  0  0  0
 27 28  1  0  0  0  0
 27 26  1  0  0  0  0
 28 29  1  0  0  0  0
 29 30  1  0  0  0  0
M  END
>  <MODEL>
4

>  <REMARK>
 VINA RESULT:      -7.5      2.641      6.021
  Name = 
  6 active torsions:
  status: ('A' for Active; 'I' for Inactive)
    1  A    between atoms: C_5  and  O_18
    2  A    between atoms: C_7  and  N_15
    3  A    between atoms: C_8  and  C_10
    4  A    between atoms: C_8  and  C_17
    5  A    between atoms: C_12  and  C_27
    6  A    between atoms: C_17  and  O_18
                            x       y       z     vdW  Elec       q    Type
                         _______ _______ _______ _____ _____    ______ ____

>  <TORSDO>
F 6

$$$$
=
 OpenBabel10222416403D

 30 34  0  0  1  0  0  0  0  0999 V2000
  187.8800  178.2240  140.6410 C   0  0  0  0  0  0  0  0  0  0  0  0
  187.5050  177.3870  136.6690 C   0  0  0  0  0  3  0  0  0  0  0  0
  186.4610  178.0740  137.2310 N   0  0  0  0  0  0  0  0  0  0  0  0
  187.0550  178.9140  141.6740 C   0  0  0  0  0  1  0  0  0  0  0  0
  188.5890  177.3600  138.7400 C   0  0  0  0  0  0  0  0  0  0  0  0
  189.5580  177.0900  139.6360 N   0  0  0  0  0  0  0  0  0  0  0  0
  187.5590  178.0420  139.3140 C   0  0  0  0  0  0  0  0  0  0  0  0
  188.5840  177.0220  137.4260 N   0  0  0  0  0  0  0  0  0  0  0  0
  189.1310  177.6230  140.8090 C   0  0  0  0  0  0  0  0  0  0  0  0
  186.4600  178.4160  138.5530 C   0  0  0  0  0  3  0  0  0  0  0  0
  193.5180  176.7310  137.2660 C   0  0  0  0  0  2  0  0  0  0  0  0
  190.8150  176.3780  139.4140 C   0  0  2  0  0  3  0  0  0  0  0  0
  192.9950  175.4450  137.7480 N   0  0  1  0  0  0  0  0  0  0  0  0
  191.4920  174.1160  136.3660 C   0  0  0  0  0  1  0  0  0  0  0  0
  193.2070  176.5890  138.6820 C   0  0  2  0  0  3  0  0  0  0  0  0
  191.9250  177.3540  139.0250 C   0  0  0  0  0  2  0  0  0  0  0  0
  190.6250  175.2470  138.3960 C   0  0  0  0  0  2  0  0  0  0  0  0
  191.6220  175.3440  137.2430 C   0  0  1  0  0  3  0  0  0  0  0  0
  190.5500  177.9390  144.8300 C   0  0  0  0  0  2  0  0  0  0  0  0
  191.1100  178.6750  143.6040 C   0  0  0  0  0  2  0  0  0  0  0  0
  189.2380  177.2000  144.5240 C   0  0  2  0  0  3  0  0  0  0  0  0
  189.8750  175.2560  143.0840 C   0  0  0  0  0  1  0  0  0  0  0  0
  189.9110  177.5430  142.0850 C   0  0  1  0  0  3  0  0  0  0  0  0
  190.1270  178.8300  142.6120 O   0  0  0  0  0  0  0  0  0  0  0  0
  189.2130  176.6210  143.1010 C   0  0  2  0  0  3  0  0  0  0  0  0
  188.1640  178.0780  144.6890 O   0  0  0  0  0  0  0  0  0  0  0  0
  187.0810  177.2650  145.0280 C   0  0  0  0  0  2  0  0  0  0  0  0
  186.6520  177.5410  146.4590 C   0  0  0  0  0  2  0  0  0  0  0  0
  185.5860  178.6190  146.4880 C   0  0  0  0  0  2  0  0  0  0  0  0
  184.8780  178.6670  145.1510 C   0  0  0  0  0  1  0  0  0  0  0  0
  1  9  2  0  0  0  0
  1  4  1  0  0  0  0
  2  3  2  0  0  0  0
  2  8  1  0  0  0  0
  3 10  1  0  0  0  0
  5  7  1  0  0  0  0
  5  6  1  0  0  0  0
  6  9  1  0  0  0  0
  7  1  1  0  0  0  0
  8  5  2  0  0  0  0
 10  7  2  0  0  0  0
 12 17  1  6  0  0  0
 12  6  1  0  0  0  0
 13 11  1  6  0  0  0
 13 15  1  0  0  0  0
 15 11  1  6  0  0  0
 15 16  1  0  0  0  0
 16 12  1  0  0  0  0
 18 14  1  6  0  0  0
 18 13  1  0  0  0  0
 18 17  1  0  0  0  0
 20 19  1  0  0  0  0
 21 26  1  6  0  0  0
 21 19  1  0  0  0  0
 23  9  1  6  0  0  0
 23 24  1  0  0  0  0
 23 25  1  0  0  0  0
 24 20  1  0  0  0  0
 25 22  1  1  0  0  0
 25 21  1  0  0  0  0
 26 27  1  0  0  0  0
 27 28  1  0  0  0  0
 28 29  1  0  0  0  0
 30 29  1  0  0  0  0
M  END
>  <MODEL>
5

>  <REMARK>
 VINA RESULT:      -7.2      1.855      2.944
  Name = 
  6 active torsions:
  status: ('A' for Active; 'I' for Inactive)
    1  A    between atoms: C_5  and  O_18
    2  A    between atoms: C_7  and  N_15
    3  A    between atoms: C_8  and  C_10
    4  A    between atoms: C_8  and  C_17
    5  A    between atoms: C_12  and  C_27
    6  A    between atoms: C_17  and  O_18
                            x       y       z     vdW  Elec       q    Type
                         _______ _______ _______ _____ _____    ______ ____

>  <TORSDO>
F 6

$$$$
=
 OpenBabel10222416403D

 30 34  0  0  1  0  0  0  0  0999 V2000
  191.7610  176.8960  139.8710 C   0  0  0  0  0  0  0  0  0  0  0  0
  192.6520  176.0840  135.9770 C   0  0  0  0  0  3  0  0  0  0  0  0
  193.7120  176.4560  136.7620 N   0  0  0  0  0  0  0  0  0  0  0  0
  192.5240  177.3270  141.0790 C   0  0  0  0  0  1  0  0  0  0  0  0
  191.2260  176.3010  137.8160 C   0  0  0  0  0  0  0  0  0  0  0  0
  190.0690  176.2790  138.5060 N   0  0  0  0  0  0  0  0  0  0  0  0
  192.2690  176.6730  138.6100 C   0  0  0  0  0  0  0  0  0  0  0  0
  191.3920  176.0050  136.5030 N   0  0  0  0  0  0  0  0  0  0  0  0
  190.3910  176.6390  139.7740 C   0  0  0  0  0  0  0  0  0  0  0  0
  193.5500  176.7570  138.0840 C   0  0  0  0  0  3  0  0  0  0  0  0
  187.4520  174.4840  135.1350 C   0  0  0  0  0  2  0  0  0  0  0  0
  188.7360  175.9360  138.0150 C   0  0  2  0  0  3  0  0  0  0  0  0
  186.7820  175.5380  135.9110 N   0  0  1  0  0  0  0  0  0  0  0  0
  186.9170  177.8700  135.2190 C   0  0  0  0  0  1  0  0  0  0  0  0
  187.4020  174.3610  136.5860 C   0  0  2  0  0  3  0  0  0  0  0  0
  188.7790  174.6480  137.1930 C   0  0  0  0  0  2  0  0  0  0  0  0
  188.1200  177.1150  137.2520 C   0  0  0  0  0  2  0  0  0  0  0  0
  187.6590  176.7110  135.8530 C   0  0  1  0  0  3  0  0  0  0  0  0
  188.3530  177.3030  143.4750 C   0  0  0  0  0  2  0  0  0  0  0  0
  188.7040  175.9410  142.8560 C   0  0  0  0  0  2  0  0  0  0  0  0
  189.0090  178.4740  142.7260 C   0  0  2  0  0  3  0  0  0  0  0  0
  187.8000  178.6450  140.5430 C   0  0  0  0  0  1  0  0  0  0  0  0
  189.3890  176.7500  140.8820 C   0  0  1  0  0  3  0  0  0  0  0  0
  189.8240  176.0390  142.0150 O   0  0  0  0  0  0  0  0  0  0  0  0
  189.0940  178.2240  141.2120 C   0  0  2  0  0  3  0  0  0  0  0  0
  190.2910  178.6880  143.2370 O   0  0  0  0  0  0  0  0  0  0  0  0
  190.1900  178.4020  144.6000 C   0  0  0  0  0  2  0  0  0  0  0  0
  191.4660  177.7370  145.0870 C   0  0  0  0  0  2  0  0  0  0  0  0
  191.1530  176.7530  146.1980 C   0  0  0  0  0  2  0  0  0  0  0  0
  189.8390  177.1260  146.8500 C   0  0  0  0  0  1  0  0  0  0  0  0
  1  4  1  0  0  0  0
  2  8  2  0  0  0  0
  2  3  1  0  0  0  0
  3 10  2  0  0  0  0
  5  6  1  0  0  0  0
  5  7  2  0  0  0  0
  6  9  1  0  0  0  0
  7  1  1  0  0  0  0
  8  5  1  0  0  0  0
  9  1  2  0  0  0  0
 10  7  1  0  0  0  0
 12 16  1  6  0  0  0
 12  6  1  0  0  0  0
 13 11  1  6  0  0  0
 13 15  1  0  0  0  0
 15 11  1  6  0  0  0
 15 16  1  0  0  0  0
 17 12  1  0  0  0  0
 18 14  1  1  0  0  0
 18 13  1  0  0  0  0
 18 17  1  0  0  0  0
 20 19  1  0  0  0  0
 21 26  1  1  0  0  0
 21 19  1  0  0  0  0
 23  9  1  6  0  0  0
 23 25  1  0  0  0  0
 23 24  1  0  0  0  0
 24 20  1  0  0  0  0
 25 22  1  6  0  0  0
 25 21  1  0  0  0  0
 26 27  1  0  0  0  0
 27 28  1  0  0  0  0
 28 29  1  0  0  0  0
 29 30  1  0  0  0  0
M  END
>  <MODEL>
6

>  <REMARK>
 VINA RESULT:      -6.5      2.428      5.186
  Name = 
  6 active torsions:
  status: ('A' for Active; 'I' for Inactive)
    1  A    between atoms: C_5  and  O_18
    2  A    between atoms: C_7  and  N_15
    3  A    between atoms: C_8  and  C_10
    4  A    between atoms: C_8  and  C_17
    5  A    between atoms: C_12  and  C_27
    6  A    between atoms: C_17  and  O_18
                            x       y       z     vdW  Elec       q    Type
                         _______ _______ _______ _____ _____    ______ ____

>  <TORSDO>
F 6

$$$$
=
 OpenBabel10222416403D

 30 34  0  0  1  0  0  0  0  0999 V2000
  186.6780  178.0150  143.1120 C   0  0  0  0  0  0  0  0  0  0  0  0
  184.3850  179.1660  139.9440 C   0  0  0  0  0  3  0  0  0  0  0  0
  183.7620  179.1840  141.1650 N   0  0  0  0  0  0  0  0  0  0  0  0
  186.4780  177.8640  144.5830 C   0  0  0  0  0  1  0  0  0  0  0  0
  186.3480  178.4170  140.9690 C   0  0  0  0  0  0  0  0  0  0  0  0
  187.6290  178.0100  141.0610 N   0  0  0  0  0  0  0  0  0  0  0  0
  185.7430  178.4290  142.1900 C   0  0  0  0  0  0  0  0  0  0  0  0
  185.6920  178.7780  139.8380 N   0  0  0  0  0  0  0  0  0  0  0  0
  187.8420  177.7660  142.3790 C   0  0  0  0  0  0  0  0  0  0  0  0
  184.4170  178.8210  142.3070 C   0  0  0  0  0  3  0  0  0  0  0  0
  188.7600  178.7680  136.6360 C   0  0  0  0  0  2  0  0  0  0  0  0
  188.6050  177.8610  139.9840 C   0  0  2  0  0  3  0  0  0  0  0  0
  189.3510  177.5460  137.2000 N   0  0  1  0  0  0  0  0  0  0  0  0
  188.1890  175.4110  137.0360 C   0  0  0  0  0  1  0  0  0  0  0  0
  189.5220  178.8660  137.8740 C   0  0  2  0  0  3  0  0  0  0  0  0
  188.5830  179.0820  139.0640 C   0  0  0  0  0  2  0  0  0  0  0  0
  188.3870  176.5410  139.2350 C   0  0  0  0  0  2  0  0  0  0  0  0
  188.2350  176.7560  137.7300 C   0  0  1  0  0  3  0  0  0  0  0  0
  191.8200  176.3010  142.9410 C   0  0  0  0  0  2  0  0  0  0  0  0
  190.5180  175.5270  143.1910 C   0  0  0  0  0  2  0  0  0  0  0  0
  191.5780  177.6460  142.2360 C   0  0  2  0  0  3  0  0  0  0  0  0
  190.4970  179.1200  143.9430 C   0  0  0  0  0  1  0  0  0  0  0  0
  189.1480  177.2820  142.9290 C   0  0  1  0  0  3  0  0  0  0  0  0
  189.4720  176.0210  142.3940 O   0  0  0  0  0  0  0  0  0  0  0  0
  190.2660  178.3100  142.6820 C   0  0  2  0  0  3  0  0  0  0  0  0
  191.5530  177.4450  140.8540 O   0  0  0  0  0  0  0  0  0  0  0  0
  192.8860  177.2370  140.4950 C   0  0  0  0  0  2  0  0  0  0  0  0
  192.9960  177.0530  138.9910 C   0  0  0  0  0  2  0  0  0  0  0  0
  192.0560  175.9580  138.5260 C   0  0  0  0  0  2  0  0  0  0  0  0
  192.2900  175.6810  137.0560 C   0  0  0  0  0  1  0  0  0  0  0  0
  1  4  1  0  0  0  0
  2  3  1  0  0  0  0
  3 10  2  0  0  0  0
  5  6  1  0  0  0  0
  5  7  2  0  0  0  0
  6  9  1  0  0  0  0
  7 10  1  0  0  0  0
  7  1  1  0  0  0  0
  8  2  2  0  0  0  0
  8  5  1  0  0  0  0
  9  1  2  0  0  0  0
 12 16  1  6  0  0  0
 12  6  1  0  0  0  0
 13 11  1  6  0  0  0
 13 18  1  0  0  0  0
 13 15  1  0  0  0  0
 15 11  1  6  0  0  0
 15 16  1  0  0  0  0
 17 12  1  0  0  0  0
 18 14  1  6  0  0  0
 18 17  1  0  0  0  0
 19 20  1  0  0  0  0
 21 26  1  6  0  0  0
 21 25  1  0  0  0  0
 21 19  1  0  0  0  0
 23  9  1  6  0  0  0
 24 23  1  0  0  0  0
 24 20  1  0  0  0  0
 25 23  1  0  0  0  0
 25 22  1  1  0  0  0
 27 26  1  0  0  0  0
 28 27  1  0  0  0  0
 29 28  1  0  0  0  0
 30 29  1  0  0  0  0
M  END
>  <MODEL>
7

>  <REMARK>
 VINA RESULT:      -6.5      1.932      4.168
  Name = 
  6 active torsions:
  status: ('A' for Active; 'I' for Inactive)
    1  A    between atoms: C_5  and  O_18
    2  A    between atoms: C_7  and  N_15
    3  A    between atoms: C_8  and  C_10
    4  A    between atoms: C_8  and  C_17
    5  A    between atoms: C_12  and  C_27
    6  A    between atoms: C_17  and  O_18
                            x       y       z     vdW  Elec       q    Type
                         _______ _______ _______ _____ _____    ______ ____

>  <TORSDO>
F 6

$$$$
=
 OpenBabel10222416403D

 30 34  0  0  1  0  0  0  0  0999 V2000
  187.5700  178.1410  141.2000 C   0  0  0  0  0  0  0  0  0  0  0  0
  184.2370  178.5680  143.5070 C   0  0  0  0  0  3  0  0  0  0  0  0
  185.4100  178.3780  144.1900 N   0  0  0  0  0  0  0  0  0  0  0  0
  189.0240  177.9160  141.4460 C   0  0  0  0  0  1  0  0  0  0  0  0
  185.4050  178.4480  141.4860 C   0  0  0  0  0  0  0  0  0  0  0  0
  185.5920  178.4550  140.1520 N   0  0  0  0  0  0  0  0  0  0  0  0
  186.5800  178.2580  142.1500 C   0  0  0  0  0  0  0  0  0  0  0  0
  184.2270  178.6040  142.1400 N   0  0  0  0  0  0  0  0  0  0  0  0
  186.9240  178.2720  139.9670 C   0  0  0  0  0  0  0  0  0  0  0  0
  186.5990  178.2200  143.5370 C   0  0  0  0  0  3  0  0  0  0  0  0
  181.3100  179.7660  138.9760 C   0  0  0  0  0  2  0  0  0  0  0  0
  184.5870  178.6280  139.1050 C   0  0  2  0  0  3  0  0  0  0  0  0
  181.8590  178.6960  138.1290 N   0  0  1  0  0  0  0  0  0  0  0  0
  181.5010  176.3540  138.6940 C   0  0  0  0  0  1  0  0  0  0  0  0
  182.6060  179.9690  138.3430 C   0  0  2  0  0  3  0  0  0  0  0  0
  183.7290  179.8620  139.3800 C   0  0  0  0  0  2  0  0  0  0  0  0
  183.7610  177.3480  138.9300 C   0  0  0  0  0  2  0  0  0  0  0  0
  182.2610  177.6180  139.0370 C   0  0  1  0  0  3  0  0  0  0  0  0
  189.6090  177.8200  136.6700 C   0  0  0  0  0  2  0  0  0  0  0  0
  189.0520  179.1410  137.2200 C   0  0  0  0  0  2  0  0  0  0  0  0
  189.2760  176.6210  137.5730 C   0  0  2  0  0  3  0  0  0  0  0  0
  186.8210  176.2260  137.2960 C   0  0  0  0  0  1  0  0  0  0  0  0
  187.5690  178.2070  138.6180 C   0  0  1  0  0  3  0  0  0  0  0  0
  188.7140  179.0240  138.5790 O   0  0  0  0  0  0  0  0  0  0  0  0
  187.8930  176.7530  138.2310 C   0  0  2  0  0  3  0  0  0  0  0  0
  190.2550  176.5020  138.5620 O   0  0  0  0  0  0  0  0  0  0  0  0
  191.2310  175.6740  138.0060 C   0  0  0  0  0  2  0  0  0  0  0  0
  192.6090  176.2700  138.2350 C   0  0  0  0  0  2  0  0  0  0  0  0
  193.3600  176.3770  136.9220 C   0  0  0  0  0  2  0  0  0  0  0  0
  192.6420  175.5690  135.8620 C   0  0  0  0  0  1  0  0  0  0  0  0
  1  4  1  0  0  0  0
  1  7  1  0  0  0  0
  2  3  1  0  0  0  0
  5  8  1  0  0  0  0
  5  7  2  0  0  0  0
  6  5  1  0  0  0  0
  7 10  1  0  0  0  0
  8  2  2  0  0  0  0
  9  6  1  0  0  0  0
  9  1  2  0  0  0  0
 10  3  2  0  0  0  0
 12 17  1  1  0  0  0
 12 16  1  0  0  0  0
 12  6  1  0  0  0  0
 13 15  1  0  0  0  0
 13 11  1  1  0  0  0
 13 18  1  0  0  0  0
 15 11  1  1  0  0  0
 15 16  1  0  0  0  0
 17 18  1  0  0  0  0
 18 14  1  6  0  0  0
 19 20  1  0  0  0  0
 19 21  1  0  0  0  0
 20 24  1  0  0  0  0
 21 25  1  0  0  0  0
 21 26  1  1  0  0  0
 23  9  1  1  0  0  0
 24 23  1  0  0  0  0
 25 22  1  6  0  0  0
 25 23  1  0  0  0  0
 27 28  1  0  0  0  0
 27 26  1  0  0  0  0
 29 28  1  0  0  0  0
 30 29  1  0  0  0  0
M  END
>  <MODEL>
8

>  <REMARK>
 VINA RESULT:      -6.5      3.149      6.762
  Name = 
  6 active torsions:
  status: ('A' for Active; 'I' for Inactive)
    1  A    between atoms: C_5  and  O_18
    2  A    between atoms: C_7  and  N_15
    3  A    between atoms: C_8  and  C_10
    4  A    between atoms: C_8  and  C_17
    5  A    between atoms: C_12  and  C_27
    6  A    between atoms: C_17  and  O_18
                            x       y       z     vdW  Elec       q    Type
                         _______ _______ _______ _____ _____    ______ ____

>  <TORSDO>
F 6

$$$$
=
 OpenBabel10222416403D

 30 34  0  0  1  0  0  0  0  0999 V2000
  185.7740  178.5310  140.4890 C   0  0  0  0  0  0  0  0  0  0  0  0
  182.3710  179.0080  142.6820 C   0  0  0  0  0  3  0  0  0  0  0  0
  183.5400  179.0010  143.3960 N   0  0  0  0  0  0  0  0  0  0  0  0
  187.2350  178.4530  140.7800 C   0  0  0  0  0  1  0  0  0  0  0  0
  183.5860  178.7070  140.7080 C   0  0  0  0  0  0  0  0  0  0  0  0
  183.8000  178.5500  139.3870 N   0  0  0  0  0  0  0  0  0  0  0  0
  184.7580  178.6980  141.4040 C   0  0  0  0  0  0  0  0  0  0  0  0
  182.3870  178.8590  141.3220 N   0  0  0  0  0  0  0  0  0  0  0  0
  185.1460  178.4460  139.2430 C   0  0  0  0  0  0  0  0  0  0  0  0
  184.7500  178.8480  142.7840 C   0  0  0  0  0  3  0  0  0  0  0  0
  179.6530  179.8560  137.7970 C   0  0  0  0  0  2  0  0  0  0  0  0
  182.8080  178.5040  138.3150 C   0  0  2  0  0  3  0  0  0  0  0  0
  180.0900  178.5400  137.3090 N   0  0  1  0  0  0  0  0  0  0  0  0
  179.5150  176.5080  138.5230 C   0  0  0  0  0  1  0  0  0  0  0  0
  180.9580  179.7440  137.1580 C   0  0  2  0  0  3  0  0  0  0  0  0
  182.0730  179.8390  138.2030 C   0  0  0  0  0  2  0  0  0  0  0  0
  181.8620  177.3120  138.5040 C   0  0  0  0  0  2  0  0  0  0  0  0
  180.3960  177.7410  138.4990 C   0  0  1  0  0  3  0  0  0  0  0  0
  187.8590  177.5350  136.0670 C   0  0  0  0  0  2  0  0  0  0  0  0
  187.4600  178.9360  136.5530 C   0  0  0  0  0  2  0  0  0  0  0  0
  187.3430  176.4220  136.9930 C   0  0  2  0  0  3  0  0  0  0  0  0
  184.8690  176.3360  136.6350 C   0  0  0  0  0  1  0  0  0  0  0  0
  185.8230  178.2500  137.9220 C   0  0  1  0  0  3  0  0  0  0  0  0
  187.0640  178.9110  137.9020 O   0  0  0  0  0  0  0  0  0  0  0  0
  185.9680  176.7530  137.5930 C   0  0  2  0  0  3  0  0  0  0  0  0
  188.2640  176.2130  138.0220 O   0  0  0  0  0  0  0  0  0  0  0  0
  189.4710  175.9370  137.3760 C   0  0  0  0  0  2  0  0  0  0  0  0
  190.6300  176.1230  138.3410 C   0  0  0  0  0  2  0  0  0  0  0  0
  190.4270  177.3770  139.1690 C   0  0  0  0  0  2  0  0  0  0  0  0
  190.7160  177.0740  140.6240 C   0  0  0  0  0  1  0  0  0  0  0  0
  1  4  1  0  0  0  0
  1  7  1  0  0  0  0
  2  3  1  0  0  0  0
  5  8  1  0  0  0  0
  5  7  2  0  0  0  0
  6  5  1  0  0  0  0
  7 10  1  0  0  0  0
  8  2  2  0  0  0  0
  9  6  1  0  0  0  0
  9  1  2  0  0  0  0
 10  3  2  0  0  0  0
 12 16  1  1  0  0  0
 12 17  1  0  0  0  0
 12  6  1  0  0  0  0
 13 11  1  1  0  0  0
 13 18  1  0  0  0  0
 15 13  1  0  0  0  0
 15 11  1  1  0  0  0
 15 16  1  0  0  0  0
 18 17  1  0  0  0  0
 18 14  1  6  0  0  0
 19 20  1  0  0  0  0
 19 21  1  0  0  0  0
 20 24  1  0  0  0  0
 21 25  1  0  0  0  0
 21 26  1  1  0  0  0
 23  9  1  1  0  0  0
 24 23  1  0  0  0  0
 25 22  1  6  0  0  0
 25 23  1  0  0  0  0
 27 26  1  0  0  0  0
 27 28  1  0  0  0  0
 28 29  1  0  0  0  0
 29 30  1  0  0  0  0
M  END
>  <MODEL>
9

>  <REMARK>
 VINA RESULT:      -6.0      3.897      7.218
  Name = 
  6 active torsions:
  status: ('A' for Active; 'I' for Inactive)
    1  A    between atoms: C_5  and  O_18
    2  A    between atoms: C_7  and  N_15
    3  A    between atoms: C_8  and  C_10
    4  A    between atoms: C_8  and  C_17
    5  A    between atoms: C_12  and  C_27
    6  A    between atoms: C_17  and  O_18
                            x       y       z     vdW  Elec       q    Type
                         _______ _______ _______ _____ _____    ______ ____

>  <TORSDO>
F 6

$$$$
