=
 OpenBabel10222421063D

 29 30  0  0  1  0  0  0  0  0999 V2000
  188.4610  177.2920  145.6130 C   0  0  2  0  0  3  0  0  0  0  0  0
  184.2220  178.7300  143.4240 C   0  0  0  0  0  0  0  0  0  0  0  0
  184.7880  178.4610  142.1740 C   0  0  0  0  0  3  0  0  0  0  0  0
  186.0910  177.9670  142.0810 C   0  0  0  0  0  3  0  0  0  0  0  0
  186.2920  178.0070  144.5040 C   0  0  0  0  0  0  0  0  0  0  0  0
  186.8390  177.7410  143.2380 C   0  0  0  0  0  3  0  0  0  0  0  0
  185.1520  178.5500  147.0130 C   0  0  0  0  0  3  0  0  0  0  0  0
  186.4580  178.0660  146.9280 C   0  0  0  0  0  3  0  0  0  0  0  0
  184.9660  178.5040  144.5950 C   0  0  0  0  0  0  0  0  0  0  0  0
  184.4090  178.7690  145.8520 C   0  0  0  0  0  3  0  0  0  0  0  0
  187.0410  177.7890  145.6800 C   0  0  0  0  0  0  0  0  0  0  0  0
  182.9220  179.2210  143.4890 O   0  0  0  0  0  1  0  0  0  0  0  0
  188.8670  176.6290  146.9230 C   0  0  0  0  0  2  0  0  0  0  0  0
  189.3170  178.4210  148.4210 O   0  0  0  0  0  0  0  0  0  0  0  0
  191.2090  177.3290  147.6410 N   0  0  0  0  0  2  0  0  0  0  0  0
  189.7940  177.5120  147.6960 C   0  0  0  0  0  0  0  0  0  0  0  0
  191.8360  176.3100  146.8110 C   0  0  0  0  0  2  0  0  0  0  0  0
  192.5280  175.2810  147.6880 C   0  0  0  0  0  2  0  0  0  0  0  0
  193.1220  175.9510  148.9130 C   0  0  0  0  0  1  0  0  0  0  0  0
  189.4280  178.4140  145.2420 C   0  0  0  0  0  2  0  0  0  0  0  0
  190.1460  178.1050  143.9390 C   0  0  0  0  0  2  0  0  0  0  0  0
  190.3470  176.6070  143.7920 C   0  0  0  0  0  2  0  0  0  0  0  0
  190.0650  176.1810  142.3630 C   0  0  0  0  0  2  0  0  0  0  0  0
  190.3180  177.3400  141.4200 C   0  0  0  0  0  2  0  0  0  0  0  0
  189.2150  177.4550  140.4830 N   0  0  0  0  0  2  0  0  0  0  0  0
  189.7930  177.8300  139.2040 C   0  0  0  0  0  2  0  0  0  0  0  0
  187.6290  177.7040  138.2200 O   0  0  0  0  0  0  0  0  0  0  0  0
  188.7240  178.3220  138.2950 C   0  0  0  0  0  0  0  0  0  0  0  0
  188.9300  179.5020  137.5250 N   0  0  0  0  0  1  0  0  0  0  0  0
  1 20  1  1  0  0  0
  1 11  1  0  0  0  0
  1 13  1  0  0  0  0
  2 12  1  0  0  0  0
  2  9  1  0  0  0  0
  3  2  2  0  0  0  0
  4  3  1  0  0  0  0
  4  6  2  0  0  0  0
  5  9  2  0  0  0  0
  5 11  1  0  0  0  0
  6  5  1  0  0  0  0
  8  7  1  0  0  0  0
  9 10  1  0  0  0  0
 10  7  2  0  0  0  0
 11  8  2  0  0  0  0
 13 16  1  0  0  0  0
 15 16  1  0  0  0  0
 16 14  2  0  0  0  0
 17 15  1  0  0  0  0
 17 18  1  0  0  0  0
 18 19  1  0  0  0  0
 21 20  1  0  0  0  0
 22 21  1  0  0  0  0
 23 22  1  0  0  0  0
 24 23  1  0  0  0  0
 25 24  1  0  0  0  0
 26 25  1  0  0  0  0
 27 28  2  0  0  0  0
 28 26  1  0  0  0  0
 29 28  1  0  0  0  0
M  END
>  <MODEL>
1

>  <REMARK>
 VINA RESULT:      -7.8      0.000      0.000
  Name = 
  13 active torsions:
  status: ('A' for Active; 'I' for Inactive)
    1  A    between atoms: C_1  and  C_14
    2  A    between atoms: C_1  and  C_18
    3  A    between atoms: C_5  and  C_22
    4  A    between atoms: C_6  and  C_24
    5  A    between atoms: C_6  and  C_26
    6  A    between atoms: C_10  and  N_19
    7  A    between atoms: C_10  and  C_27
    8  A    between atoms: N_11  and  C_22
    9  A    between atoms: C_14  and  C_27
   10  A    between atoms: C_15  and  C_25
   11  A    between atoms: C_18  and  C_24
   12  A    between atoms: N_19  and  C_25
   13  A    between atoms: C_21  and  C_24
                            x       y       z     vdW  Elec       q    Type
                         _______ _______ _______ _____ _____    ______ ____

>  <TORSDO>
F 13

$$$$
=
 OpenBabel10222421063D

 29 30  0  0  1  0  0  0  0  0999 V2000
  188.2210  177.0900  142.8210 C   0  0  2  0  0  3  0  0  0  0  0  0
  183.9310  178.8480  144.6480 C   0  0  0  0  0  0  0  0  0  0  0  0
  183.4030  178.8750  143.3550 C   0  0  0  0  0  3  0  0  0  0  0  0
  184.1720  178.4510  142.2690 C   0  0  0  0  0  3  0  0  0  0  0  0
  186.0310  177.9670  143.7600 C   0  0  0  0  0  0  0  0  0  0  0  0
  185.4790  177.9990  142.4690 C   0  0  0  0  0  3  0  0  0  0  0  0
  187.0900  177.9160  146.3620 C   0  0  0  0  0  3  0  0  0  0  0  0
  187.8690  177.5000  145.2800 C   0  0  0  0  0  3  0  0  0  0  0  0
  185.2440  178.3940  144.8610 C   0  0  0  0  0  0  0  0  0  0  0  0
  185.7840  178.3610  146.1530 C   0  0  0  0  0  3  0  0  0  0  0  0
  187.3520  177.5190  143.9750 C   0  0  0  0  0  0  0  0  0  0  0  0
  183.1440  179.2750  145.7120 O   0  0  0  0  0  1  0  0  0  0  0  0
  189.2310  176.0380  143.2640 C   0  0  0  0  0  2  0  0  0  0  0  0
  190.8370  175.9460  141.5130 O   0  0  0  0  0  0  0  0  0  0  0  0
  191.5690  177.0350  143.4260 N   0  0  0  0  0  2  0  0  0  0  0  0
  190.5790  176.3240  142.6840 C   0  0  0  0  0  0  0  0  0  0  0  0
  191.3490  177.4890  144.7920 C   0  0  0  0  0  2  0  0  0  0  0  0
  191.7370  176.3950  145.7710 C   0  0  0  0  0  2  0  0  0  0  0  0
  191.0290  176.6020  147.0970 C   0  0  0  0  0  1  0  0  0  0  0  0
  188.9200  178.2850  142.1750 C   0  0  0  0  0  2  0  0  0  0  0  0
  188.2800  178.6340  140.8420 C   0  0  0  0  0  2  0  0  0  0  0  0
  188.8170  177.7300  139.7480 C   0  0  0  0  0  2  0  0  0  0  0  0
  188.8070  178.4600  138.4170 C   0  0  0  0  0  2  0  0  0  0  0  0
  189.6680  177.7180  137.4150 C   0  0  0  0  0  2  0  0  0  0  0  0
  190.7120  176.9910  138.1150 N   0  0  0  0  0  2  0  0  0  0  0  0
  191.4720  176.2770  137.1030 C   0  0  0  0  0  2  0  0  0  0  0  0
  192.7090  174.3390  137.7250 O   0  0  0  0  0  0  0  0  0  0  0  0
  191.5800  174.8410  137.4760 C   0  0  0  0  0  0  0  0  0  0  0  0
  190.4070  174.0400  137.5720 N   0  0  0  0  0  1  0  0  0  0  0  0
  1 20  1  1  0  0  0
  1 13  1  0  0  0  0
  1 11  1  0  0  0  0
  2  9  1  0  0  0  0
  2 12  1  0  0  0  0
  3  2  2  0  0  0  0
  4  6  2  0  0  0  0
  4  3  1  0  0  0  0
  5 11  2  0  0  0  0
  5  9  1  0  0  0  0
  6  5  1  0  0  0  0
  8  7  2  0  0  0  0
  9 10  2  0  0  0  0
 10  7  1  0  0  0  0
 11  8  1  0  0  0  0
 14 16  2  0  0  0  0
 15 17  1  0  0  0  0
 16 13  1  0  0  0  0
 16 15  1  0  0  0  0
 17 18  1  0  0  0  0
 18 19  1  0  0  0  0
 21 20  1  0  0  0  0
 22 21  1  0  0  0  0
 23 22  1  0  0  0  0
 24 25  1  0  0  0  0
 24 23  1  0  0  0  0
 26 28  1  0  0  0  0
 26 25  1  0  0  0  0
 28 29  1  0  0  0  0
 28 27  2  0  0  0  0
M  END
>  <MODEL>
2

>  <REMARK>
 VINA RESULT:      -7.8      2.372      3.545
  Name = 
  13 active torsions:
  status: ('A' for Active; 'I' for Inactive)
    1  A    between atoms: C_1  and  C_14
    2  A    between atoms: C_1  and  C_18
    3  A    between atoms: C_5  and  C_22
    4  A    between atoms: C_6  and  C_24
    5  A    between atoms: C_6  and  C_26
    6  A    between atoms: C_10  and  N_19
    7  A    between atoms: C_10  and  C_27
    8  A    between atoms: N_11  and  C_22
    9  A    between atoms: C_14  and  C_27
   10  A    between atoms: C_15  and  C_25
   11  A    between atoms: C_18  and  C_24
   12  A    between atoms: N_19  and  C_25
   13  A    between atoms: C_21  and  C_24
                            x       y       z     vdW  Elec       q    Type
                         _______ _______ _______ _____ _____    ______ ____

>  <TORSDO>
F 13

$$$$
=
 OpenBabel10222421063D

 29 30  0  0  1  0  0  0  0  0999 V2000
  188.4170  177.3020  142.8980 C   0  0  2  0  0  3  0  0  0  0  0  0
  184.0020  178.8070  144.6510 C   0  0  0  0  0  0  0  0  0  0  0  0
  183.5140  178.8670  143.3430 C   0  0  0  0  0  3  0  0  0  0  0  0
  184.3340  178.5210  142.2670 C   0  0  0  0  0  3  0  0  0  0  0  0
  186.1640  178.0500  143.7980 C   0  0  0  0  0  0  0  0  0  0  0  0
  185.6520  178.1140  142.4920 C   0  0  0  0  0  3  0  0  0  0  0  0
  187.1410  177.9320  146.4300 C   0  0  0  0  0  3  0  0  0  0  0  0
  187.9710  177.5940  145.3590 C   0  0  0  0  0  3  0  0  0  0  0  0
  185.3260  178.3980  144.8890 C   0  0  0  0  0  0  0  0  0  0  0  0
  185.8250  178.3330  146.1960 C   0  0  0  0  0  3  0  0  0  0  0  0
  187.4950  177.6470  144.0390 C   0  0  0  0  0  0  0  0  0  0  0  0
  183.1640  179.1570  145.7050 O   0  0  0  0  0  1  0  0  0  0  0  0
  189.8710  177.5460  143.2820 C   0  0  0  0  0  2  0  0  0  0  0  0
  190.4400  175.3290  142.6380 O   0  0  0  0  0  0  0  0  0  0  0  0
  191.4580  176.0470  144.5950 N   0  0  0  0  0  2  0  0  0  0  0  0
  190.5890  176.2500  143.4800 C   0  0  0  0  0  0  0  0  0  0  0  0
  191.6680  177.0600  145.6190 C   0  0  0  0  0  2  0  0  0  0  0  0
  191.1790  176.5470  146.9630 C   0  0  0  0  0  2  0  0  0  0  0  0
  192.2880  175.7890  147.6700 C   0  0  0  0  0  1  0  0  0  0  0  0
  188.0480  178.0700  141.6310 C   0  0  0  0  0  2  0  0  0  0  0  0
  189.2440  178.1920  140.7010 C   0  0  0  0  0  2  0  0  0  0  0  0
  189.1510  177.1650  139.5870 C   0  0  0  0  0  2  0  0  0  0  0  0
  190.0960  177.5330  138.4580 C   0  0  0  0  0  2  0  0  0  0  0  0
  189.3140  177.7420  137.1780 C   0  0  0  0  0  2  0  0  0  0  0  0
  188.5650  178.9830  137.2620 N   0  0  0  0  0  2  0  0  0  0  0  0
  187.3210  178.7680  136.5420 C   0  0  0  0  0  2  0  0  0  0  0  0
  185.8260  177.0010  137.0990 O   0  0  0  0  0  0  0  0  0  0  0  0
  186.3330  178.1050  137.4330 C   0  0  0  0  0  0  0  0  0  0  0  0
  185.9760  178.7060  138.6730 N   0  0  0  0  0  1  0  0  0  0  0  0
  1 20  1  6  0  0  0
  1 13  1  0  0  0  0
  1 11  1  0  0  0  0
  2  9  1  0  0  0  0
  2 12  1  0  0  0  0
  3  2  2  0  0  0  0
  4  6  2  0  0  0  0
  4  3  1  0  0  0  0
  5 11  2  0  0  0  0
  5  9  1  0  0  0  0
  6  5  1  0  0  0  0
  8  7  2  0  0  0  0
  9 10  2  0  0  0  0
 10  7  1  0  0  0  0
 11  8  1  0  0  0  0
 13 16  1  0  0  0  0
 14 16  2  0  0  0  0
 15 17  1  0  0  0  0
 16 15  1  0  0  0  0
 17 18  1  0  0  0  0
 18 19  1  0  0  0  0
 21 20  1  0  0  0  0
 22 21  1  0  0  0  0
 23 22  1  0  0  0  0
 24 25  1  0  0  0  0
 24 23  1  0  0  0  0
 26 25  1  0  0  0  0
 26 28  1  0  0  0  0
 27 28  2  0  0  0  0
 28 29  1  0  0  0  0
M  END
>  <MODEL>
3

>  <REMARK>
 VINA RESULT:      -7.7      1.923      3.041
  Name = 
  13 active torsions:
  status: ('A' for Active; 'I' for Inactive)
    1  A    between atoms: C_1  and  C_14
    2  A    between atoms: C_1  and  C_18
    3  A    between atoms: C_5  and  C_22
    4  A    between atoms: C_6  and  C_24
    5  A    between atoms: C_6  and  C_26
    6  A    between atoms: C_10  and  N_19
    7  A    between atoms: C_10  and  C_27
    8  A    between atoms: N_11  and  C_22
    9  A    between atoms: C_14  and  C_27
   10  A    between atoms: C_15  and  C_25
   11  A    between atoms: C_18  and  C_24
   12  A    between atoms: N_19  and  C_25
   13  A    between atoms: C_21  and  C_24
                            x       y       z     vdW  Elec       q    Type
                         _______ _______ _______ _____ _____    ______ ____

>  <TORSDO>
F 13

$$$$
=
 OpenBabel10222421063D

 29 30  0  0  1  0  0  0  0  0999 V2000
  189.1390  176.8590  143.0160 C   0  0  2  0  0  3  0  0  0  0  0  0
  187.7830  177.9140  147.6930 C   0  0  0  0  0  0  0  0  0  0  0  0
  186.4870  178.1860  147.2450 C   0  0  0  0  0  3  0  0  0  0  0  0
  186.1650  178.0540  145.8930 C   0  0  0  0  0  3  0  0  0  0  0  0
  188.4490  177.3760  145.4030 C   0  0  0  0  0  0  0  0  0  0  0  0
  187.1400  177.6510  144.9770 C   0  0  0  0  0  3  0  0  0  0  0  0
  191.0530  176.8330  146.3070 C   0  0  0  0  0  3  0  0  0  0  0  0
  190.7410  176.7080  144.9520 C   0  0  0  0  0  3  0  0  0  0  0  0
  188.7710  177.5070  146.7790 C   0  0  0  0  0  0  0  0  0  0  0  0
  190.0730  177.2310  147.2160 C   0  0  0  0  0  3  0  0  0  0  0  0
  189.4440  176.9750  144.4860 C   0  0  0  0  0  0  0  0  0  0  0  0
  188.0780  178.0530  149.0460 O   0  0  0  0  0  1  0  0  0  0  0  0
  190.2870  176.1840  142.2750 C   0  0  0  0  0  2  0  0  0  0  0  0
  191.8900  177.9410  142.2740 O   0  0  0  0  0  0  0  0  0  0  0  0
  191.1380  177.3320  140.1660 N   0  0  0  0  0  2  0  0  0  0  0  0
  191.1410  177.2010  141.5870 C   0  0  0  0  0  0  0  0  0  0  0  0
  190.2860  176.5220  139.3060 C   0  0  0  0  0  2  0  0  0  0  0  0
  191.1340  175.7740  138.2920 C   0  0  0  0  0  2  0  0  0  0  0  0
  192.4730  176.4640  138.1170 C   0  0  0  0  0  1  0  0  0  0  0  0
  188.8150  178.2200  142.4040 C   0  0  0  0  0  2  0  0  0  0  0  0
  187.7080  178.1020  141.3690 C   0  0  0  0  0  2  0  0  0  0  0  0
  186.5810  179.0660  141.6920 C   0  0  0  0  0  2  0  0  0  0  0  0
  185.3100  178.2970  142.0020 C   0  0  0  0  0  2  0  0  0  0  0  0
  184.1830  178.7840  141.1140 C   0  0  0  0  0  2  0  0  0  0  0  0
  184.7250  179.6080  140.0490 N   0  0  0  0  0  2  0  0  0  0  0  0
  184.2170  179.0620  138.8020 C   0  0  0  0  0  2  0  0  0  0  0  0
  186.4640  178.6360  138.1390 O   0  0  0  0  0  0  0  0  0  0  0  0
  185.2680  178.2380  138.1490 C   0  0  0  0  0  0  0  0  0  0  0  0
  184.9280  176.9900  137.5540 N   0  0  0  0  0  1  0  0  0  0  0  0
  1 13  1  6  0  0  0
  1 11  1  0  0  0  0
  2 12  1  0  0  0  0
  3  2  1  0  0  0  0
  4  3  2  0  0  0  0
  5  9  1  0  0  0  0
  6  5  2  0  0  0  0
  6  4  1  0  0  0  0
  7 10  2  0  0  0  0
  8  7  1  0  0  0  0
  9 10  1  0  0  0  0
  9  2  2  0  0  0  0
 11  8  2  0  0  0  0
 11  5  1  0  0  0  0
 15 16  1  0  0  0  0
 16 14  2  0  0  0  0
 16 13  1  0  0  0  0
 17 15  1  0  0  0  0
 18 17  1  0  0  0  0
 19 18  1  0  0  0  0
 20  1  1  0  0  0  0
 21 22  1  0  0  0  0
 21 20  1  0  0  0  0
 22 23  1  0  0  0  0
 24 23  1  0  0  0  0
 25 24  1  0  0  0  0
 26 25  1  0  0  0  0
 27 28  2  0  0  0  0
 28 26  1  0  0  0  0
 29 28  1  0  0  0  0
M  END
>  <MODEL>
4

>  <REMARK>
 VINA RESULT:      -7.6      2.463      5.613
  Name = 
  13 active torsions:
  status: ('A' for Active; 'I' for Inactive)
    1  A    between atoms: C_1  and  C_14
    2  A    between atoms: C_1  and  C_18
    3  A    between atoms: C_5  and  C_22
    4  A    between atoms: C_6  and  C_24
    5  A    between atoms: C_6  and  C_26
    6  A    between atoms: C_10  and  N_19
    7  A    between atoms: C_10  and  C_27
    8  A    between atoms: N_11  and  C_22
    9  A    between atoms: C_14  and  C_27
   10  A    between atoms: C_15  and  C_25
   11  A    between atoms: C_18  and  C_24
   12  A    between atoms: N_19  and  C_25
   13  A    between atoms: C_21  and  C_24
                            x       y       z     vdW  Elec       q    Type
                         _______ _______ _______ _____ _____    ______ ____

>  <TORSDO>
F 13

$$$$
=
 OpenBabel10222421063D

 29 30  0  0  1  0  0  0  0  0999 V2000
  188.2890  177.0900  144.2970 C   0  0  2  0  0  3  0  0  0  0  0  0
  183.7860  179.2240  144.2530 C   0  0  0  0  0  0  0  0  0  0  0  0
  183.6420  178.9230  145.6100 C   0  0  0  0  0  3  0  0  0  0  0  0
  184.6630  178.2680  146.3010 C   0  0  0  0  0  3  0  0  0  0  0  0
  186.0040  178.1950  144.2740 C   0  0  0  0  0  0  0  0  0  0  0  0
  185.8380  177.9070  145.6380 C   0  0  0  0  0  3  0  0  0  0  0  0
  186.2900  178.8000  141.5440 C   0  0  0  0  0  3  0  0  0  0  0  0
  187.3120  178.1360  142.2260 C   0  0  0  0  0  3  0  0  0  0  0  0
  184.9650  178.8650  143.5760 C   0  0  0  0  0  0  0  0  0  0  0  0
  185.1210  179.1620  142.2160 C   0  0  0  0  0  3  0  0  0  0  0  0
  187.1830  177.8290  143.5900 C   0  0  0  0  0  0  0  0  0  0  0  0
  182.7530  179.8770  143.5890 O   0  0  0  0  0  1  0  0  0  0  0  0
  189.1990  178.0580  145.0420 C   0  0  0  0  0  2  0  0  0  0  0  0
  188.4270  177.9890  147.2900 O   0  0  0  0  0  0  0  0  0  0  0  0
  190.4460  176.9020  146.9390 N   0  0  0  0  0  2  0  0  0  0  0  0
  189.3290  177.6620  146.4780 C   0  0  0  0  0  0  0  0  0  0  0  0
  191.5370  176.5020  146.0620 C   0  0  0  0  0  2  0  0  0  0  0  0
  192.3880  175.4440  146.7420 C   0  0  0  0  0  2  0  0  0  0  0  0
  192.6450  175.8280  148.1880 C   0  0  0  0  0  1  0  0  0  0  0  0
  189.0880  176.2210  143.3280 C   0  0  0  0  0  2  0  0  0  0  0  0
  190.3110  176.9630  142.8140 C   0  0  0  0  0  2  0  0  0  0  0  0
  190.8090  176.3270  141.5280 C   0  0  0  0  0  2  0  0  0  0  0  0
  190.9810  177.3870  140.4560 C   0  0  0  0  0  2  0  0  0  0  0  0
  190.6610  176.8010  139.0960 C   0  0  0  0  0  2  0  0  0  0  0  0
  189.2210  176.7230  138.9260 N   0  0  0  0  0  2  0  0  0  0  0  0
  188.7280  178.0890  138.9160 C   0  0  0  0  0  2  0  0  0  0  0  0
  189.0190  179.7930  137.2790 O   0  0  0  0  0  0  0  0  0  0  0  0
  188.6930  178.6000  137.5200 C   0  0  0  0  0  0  0  0  0  0  0  0
  188.3120  177.7370  136.4540 N   0  0  0  0  0  1  0  0  0  0  0  0
  1 20  1  6  0  0  0
  1 13  1  0  0  0  0
  2  3  1  0  0  0  0
  3  4  2  0  0  0  0
  5  6  2  0  0  0  0
  6  4  1  0  0  0  0
  7 10  2  0  0  0  0
  7  8  1  0  0  0  0
  8 11  2  0  0  0  0
  9  2  2  0  0  0  0
  9  5  1  0  0  0  0
 10  9  1  0  0  0  0
 11  5  1  0  0  0  0
 11  1  1  0  0  0  0
 12  2  1  0  0  0  0
 13 16  1  0  0  0  0
 16 15  1  0  0  0  0
 16 14  2  0  0  0  0
 17 18  1  0  0  0  0
 17 15  1  0  0  0  0
 18 19  1  0  0  0  0
 21 20  1  0  0  0  0
 22 21  1  0  0  0  0
 23 22  1  0  0  0  0
 24 23  1  0  0  0  0
 25 24  1  0  0  0  0
 26 25  1  0  0  0  0
 27 28  2  0  0  0  0
 28 26  1  0  0  0  0
 29 28  1  0  0  0  0
M  END
>  <MODEL>
5

>  <REMARK>
 VINA RESULT:      -7.6      1.195      2.461
  Name = 
  13 active torsions:
  status: ('A' for Active; 'I' for Inactive)
    1  A    between atoms: C_1  and  C_14
    2  A    between atoms: C_1  and  C_18
    3  A    between atoms: C_5  and  C_22
    4  A    between atoms: C_6  and  C_24
    5  A    between atoms: C_6  and  C_26
    6  A    between atoms: C_10  and  N_19
    7  A    between atoms: C_10  and  C_27
    8  A    between atoms: N_11  and  C_22
    9  A    between atoms: C_14  and  C_27
   10  A    between atoms: C_15  and  C_25
   11  A    between atoms: C_18  and  C_24
   12  A    between atoms: N_19  and  C_25
   13  A    between atoms: C_21  and  C_24
                            x       y       z     vdW  Elec       q    Type
                         _______ _______ _______ _____ _____    ______ ____

>  <TORSDO>
F 13

$$$$
=
 OpenBabel10222421063D

 29 30  0  0  1  0  0  0  0  0999 V2000
  189.8430  177.4410  142.5290 C   0  0  2  0  0  3  0  0  0  0  0  0
  187.0440  178.2590  138.4880 C   0  0  0  0  0  0  0  0  0  0  0  0
  185.9770  178.6260  139.3140 C   0  0  0  0  0  3  0  0  0  0  0  0
  186.1260  178.6230  140.7030 C   0  0  0  0  0  3  0  0  0  0  0  0
  188.4270  177.8750  140.4670 C   0  0  0  0  0  0  0  0  0  0  0  0
  187.3440  178.2510  141.2770 C   0  0  0  0  0  3  0  0  0  0  0  0
  190.5690  177.1360  138.8040 C   0  0  0  0  0  3  0  0  0  0  0  0
  190.7220  177.1220  140.1920 C   0  0  0  0  0  3  0  0  0  0  0  0
  188.2740  177.8830  139.0560 C   0  0  0  0  0  0  0  0  0  0  0  0
  189.3500  177.5150  138.2390 C   0  0  0  0  0  3  0  0  0  0  0  0
  189.6610  177.4890  141.0340 C   0  0  0  0  0  0  0  0  0  0  0  0
  186.8700  178.2710  137.1090 O   0  0  0  0  0  1  0  0  0  0  0  0
  191.3080  177.6290  142.9040 C   0  0  0  0  0  2  0  0  0  0  0  0
  191.3770  179.7430  143.9920 O   0  0  0  0  0  0  0  0  0  0  0  0
  191.5990  177.9260  145.4170 N   0  0  0  0  0  2  0  0  0  0  0  0
  191.4350  178.4930  144.1170 C   0  0  0  0  0  0  0  0  0  0  0  0
  191.6910  176.4900  145.6400 C   0  0  0  0  0  2  0  0  0  0  0  0
  191.2750  176.1580  147.0620 C   0  0  0  0  0  2  0  0  0  0  0  0
  192.4630  175.6340  147.8480 C   0  0  0  0  0  1  0  0  0  0  0  0
  189.2880  176.1440  143.1160 C   0  0  0  0  0  2  0  0  0  0  0  0
  188.0600  176.4160  143.9690 C   0  0  0  0  0  2  0  0  0  0  0  0
  188.1920  177.7560  144.6700 C   0  0  0  0  0  2  0  0  0  0  0  0
  187.9210  177.5970  146.1550 C   0  0  0  0  0  2  0  0  0  0  0  0
  186.4270  177.5790  146.4070 C   0  0  0  0  0  2  0  0  0  0  0  0
  185.8460  178.8400  145.9820 N   0  0  0  0  0  2  0  0  0  0  0  0
  184.4130  178.6250  145.8790 C   0  0  0  0  0  2  0  0  0  0  0  0
  184.6980  179.7610  143.8070 O   0  0  0  0  0  0  0  0  0  0  0  0
  183.9220  179.1230  144.5670 C   0  0  0  0  0  0  0  0  0  0  0  0
  182.5830  178.8620  144.1610 N   0  0  0  0  0  1  0  0  0  0  0  0
  1 13  1  6  0  0  0
  1 20  1  0  0  0  0
  2  9  2  0  0  0  0
  2  3  1  0  0  0  0
  3  4  2  0  0  0  0
  4  6  1  0  0  0  0
  5 11  1  0  0  0  0
  5  6  2  0  0  0  0
  7  8  1  0  0  0  0
  8 11  2  0  0  0  0
  9  5  1  0  0  0  0
 10  7  2  0  0  0  0
 10  9  1  0  0  0  0
 11  1  1  0  0  0  0
 12  2  1  0  0  0  0
 13 16  1  0  0  0  0
 14 16  2  0  0  0  0
 15 17  1  0  0  0  0
 16 15  1  0  0  0  0
 17 18  1  0  0  0  0
 18 19  1  0  0  0  0
 20 21  1  0  0  0  0
 21 22  1  0  0  0  0
 22 23  1  0  0  0  0
 23 24  1  0  0  0  0
 25 24  1  0  0  0  0
 26 25  1  0  0  0  0
 27 28  2  0  0  0  0
 28 26  1  0  0  0  0
 29 28  1  0  0  0  0
M  END
>  <MODEL>
6

>  <REMARK>
 VINA RESULT:      -7.4      2.482      5.653
  Name = 
  13 active torsions:
  status: ('A' for Active; 'I' for Inactive)
    1  A    between atoms: C_1  and  C_14
    2  A    between atoms: C_1  and  C_18
    3  A    between atoms: C_5  and  C_22
    4  A    between atoms: C_6  and  C_24
    5  A    between atoms: C_6  and  C_26
    6  A    between atoms: C_10  and  N_19
    7  A    between atoms: C_10  and  C_27
    8  A    between atoms: N_11  and  C_22
    9  A    between atoms: C_14  and  C_27
   10  A    between atoms: C_15  and  C_25
   11  A    between atoms: C_18  and  C_24
   12  A    between atoms: N_19  and  C_25
   13  A    between atoms: C_21  and  C_24
                            x       y       z     vdW  Elec       q    Type
                         _______ _______ _______ _____ _____    ______ ____

>  <TORSDO>
F 13

$$$$
=
 OpenBabel10222421063D

 29 30  0  0  1  0  0  0  0  0999 V2000
  188.3380  177.0810  142.7820 C   0  0  2  0  0  3  0  0  0  0  0  0
  188.1570  177.9500  147.6850 C   0  0  0  0  0  0  0  0  0  0  0  0
  186.7990  178.2580  147.5700 C   0  0  0  0  0  3  0  0  0  0  0  0
  186.1610  178.1900  146.3290 C   0  0  0  0  0  3  0  0  0  0  0  0
  188.2470  177.5030  145.2830 C   0  0  0  0  0  0  0  0  0  0  0  0
  186.8800  177.8140  145.1920 C   0  0  0  0  0  3  0  0  0  0  0  0
  190.9780  176.8860  145.5180 C   0  0  0  0  0  3  0  0  0  0  0  0
  190.3500  176.8250  144.2730 C   0  0  0  0  0  3  0  0  0  0  0  0
  188.8890  177.5700  146.5470 C   0  0  0  0  0  0  0  0  0  0  0  0
  190.2510  177.2570  146.6500 C   0  0  0  0  0  3  0  0  0  0  0  0
  188.9860  177.1290  144.1410 C   0  0  0  0  0  0  0  0  0  0  0  0
  188.7670  178.0250  148.9330 O   0  0  0  0  0  1  0  0  0  0  0  0
  189.1020  177.9430  141.7850 C   0  0  0  0  0  2  0  0  0  0  0  0
  190.3180  176.0290  141.0710 O   0  0  0  0  0  0  0  0  0  0  0  0
  189.6920  177.4580  139.3550 N   0  0  0  0  0  2  0  0  0  0  0  0
  189.7420  177.0940  140.7340 C   0  0  0  0  0  0  0  0  0  0  0  0
  189.0570  178.6840  138.8900 C   0  0  0  0  0  2  0  0  0  0  0  0
  188.8150  178.6070  137.3930 C   0  0  0  0  0  2  0  0  0  0  0  0
  189.5710  177.4330  136.7990 C   0  0  0  0  0  1  0  0  0  0  0  0
  186.8680  177.4930  142.8500 C   0  0  0  0  0  2  0  0  0  0  0  0
  186.5370  178.5070  141.7680 C   0  0  0  0  0  2  0  0  0  0  0  0
  185.3750  179.3810  142.2050 C   0  0  0  0  0  2  0  0  0  0  0  0
  184.2530  178.5190  142.7530 C   0  0  0  0  0  2  0  0  0  0  0  0
  183.5360  179.2540  143.8680 C   0  0  0  0  0  2  0  0  0  0  0  0
  182.1840  178.7420  143.9970 N   0  0  0  0  0  2  0  0  0  0  0  0
  181.5160  179.0060  142.7340 C   0  0  0  0  0  2  0  0  0  0  0  0
  180.0480  180.8770  142.8330 O   0  0  0  0  0  0  0  0  0  0  0  0
  180.1930  179.6350  142.9860 C   0  0  0  0  0  0  0  0  0  0  0  0
  179.0850  178.8330  143.3800 N   0  0  0  0  0  1  0  0  0  0  0  0
  1 13  1  6  0  0  0
  1 20  1  0  0  0  0
  1 11  1  0  0  0  0
  2 12  1  0  0  0  0
  3  2  1  0  0  0  0
  4  3  2  0  0  0  0
  5  9  1  0  0  0  0
  6  5  2  0  0  0  0
  6  4  1  0  0  0  0
  7 10  2  0  0  0  0
  8  7  1  0  0  0  0
  9 10  1  0  0  0  0
  9  2  2  0  0  0  0
 11  8  2  0  0  0  0
 11  5  1  0  0  0  0
 15 16  1  0  0  0  0
 16 14  2  0  0  0  0
 16 13  1  0  0  0  0
 17 15  1  0  0  0  0
 18 17  1  0  0  0  0
 19 18  1  0  0  0  0
 21 22  1  0  0  0  0
 21 20  1  0  0  0  0
 22 23  1  0  0  0  0
 23 24  1  0  0  0  0
 24 25  1  0  0  0  0
 26 28  1  0  0  0  0
 26 25  1  0  0  0  0
 27 28  2  0  0  0  0
 28 29  1  0  0  0  0
M  END
>  <MODEL>
7

>  <REMARK>
 VINA RESULT:      -7.2      2.992      7.179
  Name = 
  13 active torsions:
  status: ('A' for Active; 'I' for Inactive)
    1  A    between atoms: C_1  and  C_14
    2  A    between atoms: C_1  and  C_18
    3  A    between atoms: C_5  and  C_22
    4  A    between atoms: C_6  and  C_24
    5  A    between atoms: C_6  and  C_26
    6  A    between atoms: C_10  and  N_19
    7  A    between atoms: C_10  and  C_27
    8  A    between atoms: N_11  and  C_22
    9  A    between atoms: C_14  and  C_27
   10  A    between atoms: C_15  and  C_25
   11  A    between atoms: C_18  and  C_24
   12  A    between atoms: N_19  and  C_25
   13  A    between atoms: C_21  and  C_24
                            x       y       z     vdW  Elec       q    Type
                         _______ _______ _______ _____ _____    ______ ____

>  <TORSDO>
F 13

$$$$
=
 OpenBabel10222421063D

 29 30  0  0  1  0  0  0  0  0999 V2000
  186.8790  178.4810  145.1700 C   0  0  2  0  0  3  0  0  0  0  0  0
  191.2710  176.7540  146.7690 C   0  0  0  0  0  0  0  0  0  0  0  0
  191.6800  176.5950  145.4420 C   0  0  0  0  0  3  0  0  0  0  0  0
  190.8270  176.9450  144.3930 C   0  0  0  0  0  3  0  0  0  0  0  0
  189.1220  177.6200  145.9900 C   0  0  0  0  0  0  0  0  0  0  0  0
  189.5560  177.4560  144.6650 C   0  0  0  0  0  3  0  0  0  0  0  0
  188.3030  177.9370  148.6590 C   0  0  0  0  0  3  0  0  0  0  0  0
  187.4400  178.2800  147.6160 C   0  0  0  0  0  3  0  0  0  0  0  0
  189.9940  177.2670  147.0530 C   0  0  0  0  0  0  0  0  0  0  0  0
  189.5730  177.4320  148.3790 C   0  0  0  0  0  3  0  0  0  0  0  0
  187.8370  178.1280  146.2780 C   0  0  0  0  0  0  0  0  0  0  0  0
  192.1400  176.3980  147.7950 O   0  0  0  0  0  1  0  0  0  0  0  0
  185.7720  179.3960  145.6800 C   0  0  0  0  0  2  0  0  0  0  0  0
  184.3630  177.9780  146.9680 O   0  0  0  0  0  0  0  0  0  0  0  0
  183.4620  178.6280  144.9310 N   0  0  0  0  0  2  0  0  0  0  0  0
  184.5110  178.6250  145.9000 C   0  0  0  0  0  0  0  0  0  0  0  0
  183.5670  179.3400  143.6650 C   0  0  0  0  0  2  0  0  0  0  0  0
  182.7500  178.6280  142.6010 C   0  0  0  0  0  2  0  0  0  0  0  0
  183.5500  178.5110  141.3170 C   0  0  0  0  0  1  0  0  0  0  0  0
  186.2980  177.2300  144.5140 C   0  0  0  0  0  2  0  0  0  0  0  0
  186.5970  177.2080  143.0240 C   0  0  0  0  0  2  0  0  0  0  0  0
  186.9850  178.5960  142.5460 C   0  0  0  0  0  2  0  0  0  0  0  0
  187.5260  178.5260  141.1300 C   0  0  0  0  0  2  0  0  0  0  0  0
  188.8380  177.7690  141.1160 C   0  0  0  0  0  2  0  0  0  0  0  0
  189.1310  177.3280  139.7640 N   0  0  0  0  0  2  0  0  0  0  0  0
  188.1170  177.9150  138.9050 C   0  0  0  0  0  2  0  0  0  0  0  0
  189.0560  179.7490  137.7120 O   0  0  0  0  0  0  0  0  0  0  0  0
  188.7610  178.5240  137.7120 C   0  0  0  0  0  0  0  0  0  0  0  0
  189.0620  177.7200  136.5760 N   0  0  0  0  0  1  0  0  0  0  0  0
  1 20  1  1  0  0  0
  1 13  1  0  0  0  0
  1 11  1  0  0  0  0
  2  9  1  0  0  0  0
  2 12  1  0  0  0  0
  3  2  2  0  0  0  0
  4  6  2  0  0  0  0
  4  3  1  0  0  0  0
  5 11  2  0  0  0  0
  5  9  1  0  0  0  0
  6  5  1  0  0  0  0
  8  7  2  0  0  0  0
  9 10  2  0  0  0  0
 10  7  1  0  0  0  0
 11  8  1  0  0  0  0
 13 16  1  0  0  0  0
 15 16  1  0  0  0  0
 16 14  2  0  0  0  0
 17 15  1  0  0  0  0
 18 17  1  0  0  0  0
 19 18  1  0  0  0  0
 21 20  1  0  0  0  0
 22 21  1  0  0  0  0
 23 22  1  0  0  0  0
 24 23  1  0  0  0  0
 25 24  1  0  0  0  0
 26 25  1  0  0  0  0
 28 27  2  0  0  0  0
 28 26  1  0  0  0  0
 29 28  1  0  0  0  0
M  END
>  <MODEL>
8

>  <REMARK>
 VINA RESULT:      -7.2      2.259      5.784
  Name = 
  13 active torsions:
  status: ('A' for Active; 'I' for Inactive)
    1  A    between atoms: C_1  and  C_14
    2  A    between atoms: C_1  and  C_18
    3  A    between atoms: C_5  and  C_22
    4  A    between atoms: C_6  and  C_24
    5  A    between atoms: C_6  and  C_26
    6  A    between atoms: C_10  and  N_19
    7  A    between atoms: C_10  and  C_27
    8  A    between atoms: N_11  and  C_22
    9  A    between atoms: C_14  and  C_27
   10  A    between atoms: C_15  and  C_25
   11  A    between atoms: C_18  and  C_24
   12  A    between atoms: N_19  and  C_25
   13  A    between atoms: C_21  and  C_24
                            x       y       z     vdW  Elec       q    Type
                         _______ _______ _______ _____ _____    ______ ____

>  <TORSDO>
F 13

$$$$
=
 OpenBabel10222421063D

 29 30  0  0  1  0  0  0  0  0999 V2000
  187.2330  177.7330  143.3830 C   0  0  2  0  0  3  0  0  0  0  0  0
  188.2600  177.9490  148.2550 C   0  0  0  0  0  0  0  0  0  0  0  0
  189.5640  177.5230  147.9880 C   0  0  0  0  0  3  0  0  0  0  0  0
  189.9700  177.2710  146.6760 C   0  0  0  0  0  3  0  0  0  0  0  0
  187.7560  177.8640  145.8640 C   0  0  0  0  0  0  0  0  0  0  0  0
  189.0720  177.4400  145.6190 C   0  0  0  0  0  3  0  0  0  0  0  0
  185.1350  178.7180  146.4040 C   0  0  0  0  0  3  0  0  0  0  0  0
  185.5300  178.4580  145.0900 C   0  0  0  0  0  3  0  0  0  0  0  0
  187.3490  178.1240  147.1980 C   0  0  0  0  0  0  0  0  0  0  0  0
  186.0400  178.5510  147.4530 C   0  0  0  0  0  3  0  0  0  0  0  0
  186.8370  178.0320  144.8060 C   0  0  0  0  0  0  0  0  0  0  0  0
  187.8810  178.1940  149.5700 O   0  0  0  0  0  1  0  0  0  0  0  0
  186.0290  177.8300  142.4540 C   0  0  0  0  0  2  0  0  0  0  0  0
  187.3890  179.3760  141.2630 O   0  0  0  0  0  0  0  0  0  0  0  0
  185.1580  179.3780  140.6280 N   0  0  0  0  0  2  0  0  0  0  0  0
  186.2370  178.9010  141.4310 C   0  0  0  0  0  0  0  0  0  0  0  0
  183.7940  178.8890  140.7760 C   0  0  0  0  0  2  0  0  0  0  0  0
  183.2210  178.5300  139.4160 C   0  0  0  0  0  2  0  0  0  0  0  0
  184.3410  178.2090  138.4440 C   0  0  0  0  0  1  0  0  0  0  0  0
  187.9070  176.3670  143.2670 C   0  0  0  0  0  2  0  0  0  0  0  0
  188.9840  176.3830  142.1950 C   0  0  0  0  0  2  0  0  0  0  0  0
  189.9200  177.5590  142.4070 C   0  0  0  0  0  2  0  0  0  0  0  0
  191.0830  177.4820  141.4350 C   0  0  0  0  0  2  0  0  0  0  0  0
  190.6430  176.7960  140.1580 C   0  0  0  0  0  2  0  0  0  0  0  0
  190.3690  177.7950  139.1400 N   0  0  0  0  0  2  0  0  0  0  0  0
  188.9400  177.7450  138.8820 C   0  0  0  0  0  2  0  0  0  0  0  0
  189.0520  179.7380  137.5850 O   0  0  0  0  0  0  0  0  0  0  0  0
  188.6170  178.5590  137.6800 C   0  0  0  0  0  0  0  0  0  0  0  0
  187.8360  178.0010  136.6290 N   0  0  0  0  0  1  0  0  0  0  0  0
  1 13  1  6  0  0  0
  1 11  1  0  0  0  0
  2 12  1  0  0  0  0
  3  2  1  0  0  0  0
  4  3  2  0  0  0  0
  5  9  1  0  0  0  0
  6  5  2  0  0  0  0
  6  4  1  0  0  0  0
  7 10  2  0  0  0  0
  8  7  1  0  0  0  0
  9 10  1  0  0  0  0
  9  2  2  0  0  0  0
 11  8  2  0  0  0  0
 11  5  1  0  0  0  0
 14 16  2  0  0  0  0
 15 17  1  0  0  0  0
 15 16  1  0  0  0  0
 16 13  1  0  0  0  0
 18 17  1  0  0  0  0
 19 18  1  0  0  0  0
 20  1  1  0  0  0  0
 21 22  1  0  0  0  0
 21 20  1  0  0  0  0
 23 22  1  0  0  0  0
 24 23  1  0  0  0  0
 25 24  1  0  0  0  0
 26 25  1  0  0  0  0
 27 28  2  0  0  0  0
 28 26  1  0  0  0  0
 29 28  1  0  0  0  0
M  END
>  <MODEL>
9

>  <REMARK>
 VINA RESULT:      -7.2      2.422      5.807
  Name = 
  13 active torsions:
  status: ('A' for Active; 'I' for Inactive)
    1  A    between atoms: C_1  and  C_14
    2  A    between atoms: C_1  and  C_18
    3  A    between atoms: C_5  and  C_22
    4  A    between atoms: C_6  and  C_24
    5  A    between atoms: C_6  and  C_26
    6  A    between atoms: C_10  and  N_19
    7  A    between atoms: C_10  and  C_27
    8  A    between atoms: N_11  and  C_22
    9  A    between atoms: C_14  and  C_27
   10  A    between atoms: C_15  and  C_25
   11  A    between atoms: C_18  and  C_24
   12  A    between atoms: N_19  and  C_25
   13  A    between atoms: C_21  and  C_24
                            x       y       z     vdW  Elec       q    Type
                         _______ _______ _______ _____ _____    ______ ____

>  <TORSDO>
F 13

$$$$
