=
 OpenBabel10222420183D

 27 31  0  0  1  0  0  0  0  0999 V2000
  190.6240  176.6800  140.8170 N   0  0  0  0  0  0  0  0  0  0  0  0
  191.0660  176.5110  143.3270 C   0  0  0  0  0  2  0  0  0  0  0  0
  190.3170  177.5160  144.1920 C   0  0  1  0  0  3  0  0  0  0  0  0
  188.6030  177.2910  139.8260 O   0  0  0  0  0  1  0  0  0  0  0  0
  189.3270  178.1770  143.2430 C   0  0  0  0  0  2  0  0  0  0  0  0
  189.0000  177.1560  142.1700 C   0  0  2  0  0  3  0  0  0  0  0  0
  190.1610  176.1870  142.1310 C   0  0  1  0  0  3  0  0  0  0  0  0
  189.5160  177.6310  140.8260 C   0  0  1  0  0  3  0  0  0  0  0  0
  186.7570  177.0100  144.6760 O   0  0  0  0  0  0  0  0  0  0  0  0
  190.0480  177.2300  147.6440 C   0  0  0  0  0  2  0  0  0  0  0  0
  187.2890  177.4640  145.7240 C   0  0  0  0  0  0  0  0  0  0  0  0
  186.5490  177.7140  146.9780 C   0  0  1  0  0  3  0  0  0  0  0  0
  190.5820  176.5950  146.3640 C   0  0  0  0  0  2  0  0  0  0  0  0
  188.6780  177.7110  145.8350 N   0  0  0  0  0  0  0  0  0  0  0  0
  188.9610  178.1570  147.1750 C   0  0  1  0  0  3  0  0  0  0  0  0
  187.6730  177.9600  147.9880 C   0  0  0  0  0  2  0  0  0  0  0  0
  189.6170  176.8250  145.2830 N   0  0  1  0  0  0  0  0  0  0  0  0
  185.9730  179.9690  147.4830 O   0  0  0  0  0  0  0  0  0  0  0  0
  184.5110  178.9020  146.0300 N   0  0  0  0  0  1  0  0  0  0  0  0
  185.6750  178.9220  146.8540 C   0  0  0  0  0  0  0  0  0  0  0  0
  191.8670  177.4530  140.8690 C   0  0  0  0  0  2  0  0  0  0  0  0
  192.5330  177.4970  139.4970 C   0  0  0  0  0  2  0  0  0  0  0  0
  192.0100  176.4240  138.5400 C   0  0  1  0  0  3  0  0  0  0  0  0
  191.1070  176.9730  137.6280 O   0  0  0  0  0  1  0  0  0  0  0  0
  193.1400  175.7190  137.8050 C   0  0  2  0  0  3  0  0  0  0  0  0
  192.7190  175.4150  136.4980 O   0  0  0  0  0  0  0  0  0  0  0  0
  192.7260  174.3540  137.4210 C   0  0  0  0  0  2  0  0  0  0  0  0
  1  8  1  0  0  0  0
  1 21  1  0  0  0  0
  1  7  1  0  0  0  0
  2  3  1  0  0  0  0
  3  5  1  6  0  0  0
  3 17  1  0  0  0  0
  6  5  1  1  0  0  0
  7  6  1  0  0  0  0
  7  2  1  1  0  0  0
  8  4  1  6  0  0  0
  8  6  1  0  0  0  0
  9 11  2  0  0  0  0
 11 14  1  0  0  0  0
 11 12  1  0  0  0  0
 12 20  1  6  0  0  0
 12 16  1  0  0  0  0
 13 10  1  0  0  0  0
 14 15  1  0  0  0  0
 15 10  1  1  0  0  0
 15 16  1  0  0  0  0
 17 14  1  0  0  0  0
 17 13  1  1  0  0  0
 19 20  1  0  0  0  0
 20 18  2  0  0  0  0
 22 21  1  0  0  0  0
 23 24  1  6  0  0  0
 23 22  1  0  0  0  0
 25 23  1  1  0  0  0
 26 27  1  0  0  0  0
 26 25  1  0  0  0  0
 27 25  1  0  0  0  0
M  END
>  <MODEL>
1

>  <REMARK>
 VINA RESULT:      -7.7      0.000      0.000
  Name = 
  6 active torsions:
  status: ('A' for Active; 'I' for Inactive)
    1  A    between atoms: C_1  and  C_12
    2  A    between atoms: C_2  and  C_12
    3  A    between atoms: C_2  and  C_18
    4  A    between atoms: C_7  and  C_27
    5  A    between atoms: N_8  and  C_18
    6  A    between atoms: C_11  and  N_24
                            x       y       z     vdW  Elec       q    Type
                         _______ _______ _______ _____ _____    ______ ____

>  <TORSDO>
F 6

$$$$
=
 OpenBabel10222420183D

 27 31  0  0  1  0  0  0  0  0999 V2000
  183.8890  179.3260  143.3000 N   0  0  0  0  0  0  0  0  0  0  0  0
  185.0260  178.7940  145.5230 C   0  0  0  0  0  2  0  0  0  0  0  0
  186.1830  177.8070  145.4460 C   0  0  1  0  0  3  0  0  0  0  0  0
  184.9410  179.4360  141.2210 O   0  0  0  0  0  1  0  0  0  0  0  0
  186.4370  177.6280  143.9570 C   0  0  0  0  0  2  0  0  0  0  0  0
  186.0170  178.9200  143.2820 C   0  0  2  0  0  3  0  0  0  0  0  0
  185.0240  179.5850  144.2090 C   0  0  1  0  0  3  0  0  0  0  0  0
  184.8200  178.6730  142.3840 C   0  0  1  0  0  3  0  0  0  0  0  0
  189.4940  178.4410  144.1050 O   0  0  0  0  0  0  0  0  0  0  0  0
  188.2070  177.5650  148.2600 C   0  0  0  0  0  2  0  0  0  0  0  0
  189.5670  177.7980  145.1860 C   0  0  0  0  0  0  0  0  0  0  0  0
  190.8400  177.4000  145.8200 C   0  0  1  0  0  3  0  0  0  0  0  0
  187.1080  178.3600  147.5620 C   0  0  0  0  0  2  0  0  0  0  0  0
  188.4290  177.4550  145.9540 N   0  0  0  0  0  0  0  0  0  0  0  0
  188.8660  176.7890  147.1540 C   0  0  1  0  0  3  0  0  0  0  0  0
  190.3940  176.9320  147.2080 C   0  0  0  0  0  2  0  0  0  0  0  0
  187.3670  178.3590  146.1180 N   0  0  1  0  0  0  0  0  0  0  0  0
  192.0800  175.3700  145.7010 O   0  0  0  0  0  0  0  0  0  0  0  0
  191.4390  176.2300  143.6430 N   0  0  0  0  0  1  0  0  0  0  0  0
  191.4880  176.2800  145.0670 C   0  0  0  0  0  0  0  0  0  0  0  0
  182.9560  178.3040  143.7790 C   0  0  0  0  0  2  0  0  0  0  0  0
  181.5540  178.8870  143.9400 C   0  0  0  0  0  2  0  0  0  0  0  0
  180.6110  178.5080  142.7970 C   0  0  1  0  0  3  0  0  0  0  0  0
  179.3380  178.2090  143.2850 O   0  0  0  0  0  1  0  0  0  0  0  0
  180.5280  179.6020  141.7430 C   0  0  2  0  0  3  0  0  0  0  0  0
  179.8160  179.1170  140.6310 O   0  0  0  0  0  0  0  0  0  0  0  0
  181.2160  179.1730  140.5070 C   0  0  0  0  0  2  0  0  0  0  0  0
  1 21  1  0  0  0  0
  1  7  1  0  0  0  0
  3  5  1  6  0  0  0
  3  2  1  0  0  0  0
  3 17  1  0  0  0  0
  6  5  1  1  0  0  0
  6  7  1  0  0  0  0
  7  2  1  1  0  0  0
  8  4  1  6  0  0  0
  8  6  1  0  0  0  0
  8  1  1  0  0  0  0
  9 11  2  0  0  0  0
 11 12  1  0  0  0  0
 11 14  1  0  0  0  0
 12 20  1  6  0  0  0
 12 16  1  0  0  0  0
 13 10  1  0  0  0  0
 14 17  1  0  0  0  0
 14 15  1  0  0  0  0
 15 16  1  1  0  0  0
 15 10  1  0  0  0  0
 17 13  1  1  0  0  0
 19 20  1  0  0  0  0
 20 18  2  0  0  0  0
 21 22  1  0  0  0  0
 23 24  1  1  0  0  0
 23 22  1  0  0  0  0
 25 23  1  1  0  0  0
 26 25  1  0  0  0  0
 27 26  1  0  0  0  0
 27 25  1  0  0  0  0
M  END
>  <MODEL>
2

>  <REMARK>
 VINA RESULT:      -7.7      4.177      7.657
  Name = 
  6 active torsions:
  status: ('A' for Active; 'I' for Inactive)
    1  A    between atoms: C_1  and  C_12
    2  A    between atoms: C_2  and  C_12
    3  A    between atoms: C_2  and  C_18
    4  A    between atoms: C_7  and  C_27
    5  A    between atoms: N_8  and  C_18
    6  A    between atoms: C_11  and  N_24
                            x       y       z     vdW  Elec       q    Type
                         _______ _______ _______ _____ _____    ______ ____

>  <TORSDO>
F 6

$$$$
=
 OpenBabel10222420183D

 27 31  0  0  1  0  0  0  0  0999 V2000
  184.7960  178.9850  141.4600 N   0  0  0  0  0  0  0  0  0  0  0  0
  185.1800  178.6980  143.9680 C   0  0  0  0  0  2  0  0  0  0  0  0
  186.2960  177.7360  144.3530 C   0  0  1  0  0  3  0  0  0  0  0  0
  186.4430  178.9170  139.8100 O   0  0  0  0  0  1  0  0  0  0  0  0
  187.0000  177.4190  143.0410 C   0  0  0  0  0  2  0  0  0  0  0  0
  186.8210  178.6300  142.1440 C   0  0  2  0  0  3  0  0  0  0  0  0
  185.5940  179.3580  142.6460 C   0  0  1  0  0  3  0  0  0  0  0  0
  185.9610  178.2680  140.9480 C   0  0  1  0  0  3  0  0  0  0  0  0
  189.8390  178.4310  143.9960 O   0  0  0  0  0  0  0  0  0  0  0  0
  187.4070  177.7550  147.6450 C   0  0  0  0  0  2  0  0  0  0  0  0
  189.6050  177.8590  145.0940 C   0  0  0  0  0  0  0  0  0  0  0  0
  190.6450  177.5560  146.0990 C   0  0  1  0  0  3  0  0  0  0  0  0
  186.5430  178.4570  146.6010 C   0  0  0  0  0  2  0  0  0  0  0  0
  188.3000  177.5140  145.5180 N   0  0  0  0  0  0  0  0  0  0  0  0
  188.3800  176.9420  146.8380 C   0  0  1  0  0  3  0  0  0  0  0  0
  189.8200  177.1550  147.3250 C   0  0  0  0  0  2  0  0  0  0  0  0
  187.2160  178.3800  145.3000 N   0  0  1  0  0  0  0  0  0  0  0  0
  191.6010  176.1580  144.4240 O   0  0  0  0  0  0  0  0  0  0  0  0
  192.2390  175.6390  146.5940 N   0  0  0  0  0  1  0  0  0  0  0  0
  191.5120  176.4220  145.6500 C   0  0  0  0  0  0  0  0  0  0  0  0
  183.7520  177.9920  141.7250 C   0  0  0  0  0  2  0  0  0  0  0  0
  182.4270  178.4220  141.1000 C   0  0  0  0  0  2  0  0  0  0  0  0
  181.3840  178.8480  142.1350 C   0  0  1  0  0  3  0  0  0  0  0  0
  182.0010  179.3700  143.2720 O   0  0  0  0  0  1  0  0  0  0  0  0
  180.3940  179.8510  141.5630 C   0  0  2  0  0  3  0  0  0  0  0  0
  179.9050  180.6590  142.6050 O   0  0  0  0  0  0  0  0  0  0  0  0
  179.0540  179.6370  142.1480 C   0  0  0  0  0  2  0  0  0  0  0  0
  1 21  1  0  0  0  0
  1  7  1  0  0  0  0
  2  3  1  0  0  0  0
  3  5  1  6  0  0  0
  3 17  1  0  0  0  0
  6  7  1  0  0  0  0
  6  5  1  1  0  0  0
  7  2  1  1  0  0  0
  8  4  1  6  0  0  0
  8  1  1  0  0  0  0
  8  6  1  0  0  0  0
  9 11  2  0  0  0  0
 11 14  1  0  0  0  0
 11 12  1  0  0  0  0
 12 20  1  6  0  0  0
 12 16  1  0  0  0  0
 13 10  1  0  0  0  0
 14 15  1  0  0  0  0
 15 16  1  1  0  0  0
 15 10  1  0  0  0  0
 17 14  1  0  0  0  0
 17 13  1  1  0  0  0
 18 20  2  0  0  0  0
 20 19  1  0  0  0  0
 22 21  1  0  0  0  0
 22 23  1  0  0  0  0
 23 24  1  1  0  0  0
 25 23  1  1  0  0  0
 25 27  1  0  0  0  0
 25 26  1  0  0  0  0
 27 26  1  0  0  0  0
M  END
>  <MODEL>
3

>  <REMARK>
 VINA RESULT:      -7.5      4.177      7.432
  Name = 
  6 active torsions:
  status: ('A' for Active; 'I' for Inactive)
    1  A    between atoms: C_1  and  C_12
    2  A    between atoms: C_2  and  C_12
    3  A    between atoms: C_2  and  C_18
    4  A    between atoms: C_7  and  C_27
    5  A    between atoms: N_8  and  C_18
    6  A    between atoms: C_11  and  N_24
                            x       y       z     vdW  Elec       q    Type
                         _______ _______ _______ _____ _____    ______ ____

>  <TORSDO>
F 6

$$$$
=
 OpenBabel10222420183D

 27 31  0  0  1  0  0  0  0  0999 V2000
  189.2620  177.1930  140.4480 N   0  0  0  0  0  0  0  0  0  0  0  0
  190.2190  176.4330  142.6910 C   0  0  0  0  0  2  0  0  0  0  0  0
  190.0710  177.4270  143.8350 C   0  0  1  0  0  3  0  0  0  0  0  0
  187.3740  178.5300  140.1530 O   0  0  0  0  0  1  0  0  0  0  0  0
  189.1520  178.5090  143.2880 C   0  0  0  0  0  2  0  0  0  0  0  0
  188.2600  177.8460  142.2560 C   0  0  2  0  0  3  0  0  0  0  0  0
  188.9960  176.6130  141.7810 C   0  0  1  0  0  3  0  0  0  0  0  0
  188.5610  178.4010  140.8760 C   0  0  1  0  0  3  0  0  0  0  0  0
  186.5680  176.9360  144.6430 O   0  0  0  0  0  0  0  0  0  0  0  0
  190.1040  177.2480  147.3050 C   0  0  0  0  0  2  0  0  0  0  0  0
  187.1880  177.4220  145.6260 C   0  0  0  0  0  0  0  0  0  0  0  0
  186.5600  177.7100  146.9310 C   0  0  1  0  0  3  0  0  0  0  0  0
  190.5270  176.5730  146.0030 C   0  0  0  0  0  2  0  0  0  0  0  0
  188.5810  177.6730  145.6080 N   0  0  0  0  0  0  0  0  0  0  0  0
  188.9780  178.1600  146.9040 C   0  0  1  0  0  3  0  0  0  0  0  0
  187.7670  177.9880  147.8310 C   0  0  0  0  0  2  0  0  0  0  0  0
  189.4710  176.7700  145.0040 N   0  0  1  0  0  0  0  0  0  0  0  0
  185.9800  179.9530  147.4860 O   0  0  0  0  0  0  0  0  0  0  0  0
  184.4920  178.8990  146.0510 N   0  0  0  0  0  1  0  0  0  0  0  0
  185.6740  178.9140  146.8470 C   0  0  0  0  0  0  0  0  0  0  0  0
  190.6620  177.5560  140.2190 C   0  0  0  0  0  2  0  0  0  0  0  0
  191.2780  176.6730  139.1370 C   0  0  0  0  0  2  0  0  0  0  0  0
  190.4720  176.6640  137.8370 C   0  0  1  0  0  3  0  0  0  0  0  0
  189.9540  177.9320  137.5680 O   0  0  0  0  0  1  0  0  0  0  0  0
  191.2990  176.1710  136.6600 C   0  0  2  0  0  3  0  0  0  0  0  0
  190.5920  176.4110  135.4680 O   0  0  0  0  0  0  0  0  0  0  0  0
  190.5830  175.0900  135.9500 C   0  0  0  0  0  2  0  0  0  0  0  0
  1  8  1  0  0  0  0
  1  7  1  0  0  0  0
  3  2  1  6  0  0  0
  3 17  1  0  0  0  0
  5  3  1  0  0  0  0
  6  5  1  1  0  0  0
  7  6  1  0  0  0  0
  7  2  1  1  0  0  0
  8  4  1  6  0  0  0
  8  6  1  0  0  0  0
  9 11  2  0  0  0  0
 11 12  1  0  0  0  0
 12 20  1  6  0  0  0
 12 16  1  0  0  0  0
 13 10  1  0  0  0  0
 14 11  1  0  0  0  0
 14 15  1  0  0  0  0
 15 10  1  1  0  0  0
 15 16  1  0  0  0  0
 17 14  1  0  0  0  0
 17 13  1  1  0  0  0
 19 20  1  0  0  0  0
 20 18  2  0  0  0  0
 21  1  1  0  0  0  0
 22 21  1  0  0  0  0
 23 24  1  6  0  0  0
 23 22  1  0  0  0  0
 25 23  1  1  0  0  0
 26 27  1  0  0  0  0
 26 25  1  0  0  0  0
 27 25  1  0  0  0  0
M  END
>  <MODEL>
4

>  <REMARK>
 VINA RESULT:      -7.2      1.133      1.215
  Name = 
  6 active torsions:
  status: ('A' for Active; 'I' for Inactive)
    1  A    between atoms: C_1  and  C_12
    2  A    between atoms: C_2  and  C_12
    3  A    between atoms: C_2  and  C_18
    4  A    between atoms: C_7  and  C_27
    5  A    between atoms: N_8  and  C_18
    6  A    between atoms: C_11  and  N_24
                            x       y       z     vdW  Elec       q    Type
                         _______ _______ _______ _____ _____    ______ ____

>  <TORSDO>
F 6

$$$$
=
 OpenBabel10222420183D

 27 31  0  0  1  0  0  0  0  0999 V2000
  189.9410  177.3830  138.6610 N   0  0  0  0  0  0  0  0  0  0  0  0
  188.4570  177.7960  140.6970 C   0  0  0  0  0  2  0  0  0  0  0  0
  188.8090  176.9860  141.9380 C   0  0  1  0  0  3  0  0  0  0  0  0
  192.2180  176.8820  138.7110 O   0  0  0  0  0  1  0  0  0  0  0  0
  190.1400  176.3290  141.6030 C   0  0  0  0  0  2  0  0  0  0  0  0
  190.8480  177.2470  140.6240 C   0  0  2  0  0  3  0  0  0  0  0  0
  189.7720  178.0740  139.9560 C   0  0  1  0  0  3  0  0  0  0  0  0
  190.9820  176.5650  139.2760 C   0  0  1  0  0  3  0  0  0  0  0  0
  191.7740  177.8530  143.8400 O   0  0  0  0  0  0  0  0  0  0  0  0
  187.5120  177.7450  145.0700 C   0  0  0  0  0  2  0  0  0  0  0  0
  190.8400  177.4970  144.6080 C   0  0  0  0  0  0  0  0  0  0  0  0
  190.9510  177.4780  146.0810 C   0  0  1  0  0  3  0  0  0  0  0  0
  187.5900  178.1590  143.6040 C   0  0  0  0  0  2  0  0  0  0  0  0
  189.5510  177.1490  144.1390 N   0  0  0  0  0  0  0  0  0  0  0  0
  188.7110  176.8600  145.2730 C   0  0  1  0  0  3  0  0  0  0  0  0
  189.5000  177.2710  146.5240 C   0  0  0  0  0  2  0  0  0  0  0  0
  188.9390  177.8720  143.1020 N   0  0  1  0  0  0  0  0  0  0  0  0
  192.0750  175.4050  145.7460 O   0  0  0  0  0  0  0  0  0  0  0  0
  192.3370  176.3140  147.8660 N   0  0  0  0  0  1  0  0  0  0  0  0
  191.8110  176.3430  146.5410 C   0  0  0  0  0  0  0  0  0  0  0  0
  188.8350  176.4920  138.3050 C   0  0  0  0  0  2  0  0  0  0  0  0
  188.0350  177.0640  137.1370 C   0  0  0  0  0  2  0  0  0  0  0  0
  186.6240  177.5040  137.5320 C   0  0  1  0  0  3  0  0  0  0  0  0
  186.5830  178.8790  137.7660 O   0  0  0  0  0  1  0  0  0  0  0  0
  185.5940  177.1160  136.4830 C   0  0  2  0  0  3  0  0  0  0  0  0
  184.3060  177.3460  136.9970 O   0  0  0  0  0  0  0  0  0  0  0  0
  184.7490  176.0110  136.9810 C   0  0  0  0  0  2  0  0  0  0  0  0
  1  8  1  0  0  0  0
  1  7  1  0  0  0  0
  3  2  1  6  0  0  0
  3 17  1  0  0  0  0
  5  3  1  0  0  0  0
  6  5  1  1  0  0  0
  7  6  1  0  0  0  0
  7  2  1  1  0  0  0
  8  4  1  6  0  0  0
  8  6  1  0  0  0  0
  9 11  2  0  0  0  0
 11 12  1  0  0  0  0
 12 16  1  0  0  0  0
 12 20  1  6  0  0  0
 13 10  1  0  0  0  0
 14 11  1  0  0  0  0
 14 15  1  0  0  0  0
 15 10  1  6  0  0  0
 15 16  1  0  0  0  0
 17 13  1  1  0  0  0
 17 14  1  0  0  0  0
 18 20  2  0  0  0  0
 20 19  1  0  0  0  0
 21  1  1  0  0  0  0
 22 23  1  0  0  0  0
 22 21  1  0  0  0  0
 23 24  1  6  0  0  0
 25 27  1  0  0  0  0
 25 26  1  0  0  0  0
 25 23  1  1  0  0  0
 27 26  1  0  0  0  0
M  END
>  <MODEL>
5

>  <REMARK>
 VINA RESULT:      -7.1      3.104      4.948
  Name = 
  6 active torsions:
  status: ('A' for Active; 'I' for Inactive)
    1  A    between atoms: C_1  and  C_12
    2  A    between atoms: C_2  and  C_12
    3  A    between atoms: C_2  and  C_18
    4  A    between atoms: C_7  and  C_27
    5  A    between atoms: N_8  and  C_18
    6  A    between atoms: C_11  and  N_24
                            x       y       z     vdW  Elec       q    Type
                         _______ _______ _______ _____ _____    ______ ____

>  <TORSDO>
F 6

$$$$
=
 OpenBabel10222420183D

 27 31  0  0  1  0  0  0  0  0999 V2000
  184.5910  179.0100  141.5160 N   0  0  0  0  0  0  0  0  0  0  0  0
  185.0520  178.6900  144.0080 C   0  0  0  0  0  2  0  0  0  0  0  0
  186.2150  177.7670  144.3440 C   0  0  1  0  0  3  0  0  0  0  0  0
  186.1950  179.0400  139.8250 O   0  0  0  0  0  1  0  0  0  0  0  0
  186.8960  177.5040  143.0090 C   0  0  0  0  0  2  0  0  0  0  0  0
  186.6450  178.7230  142.1420 C   0  0  2  0  0  3  0  0  0  0  0  0
  185.4040  179.3920  142.6890 C   0  0  1  0  0  3  0  0  0  0  0  0
  185.7690  178.3510  140.9610 C   0  0  1  0  0  3  0  0  0  0  0  0
  189.7580  178.4560  143.9800 O   0  0  0  0  0  0  0  0  0  0  0  0
  187.3210  177.8470  147.6370 C   0  0  0  0  0  2  0  0  0  0  0  0
  189.5230  177.9040  145.0880 C   0  0  0  0  0  0  0  0  0  0  0  0
  190.5610  177.6200  146.1000 C   0  0  1  0  0  3  0  0  0  0  0  0
  186.4590  178.5300  146.5790 C   0  0  0  0  0  2  0  0  0  0  0  0
  188.2170  177.5670  145.5160 N   0  0  0  0  0  0  0  0  0  0  0  0
  188.2950  177.0200  146.8460 C   0  0  1  0  0  3  0  0  0  0  0  0
  189.7350  177.2420  147.3320 C   0  0  0  0  0  2  0  0  0  0  0  0
  187.1340  178.4280  145.2800 N   0  0  1  0  0  0  0  0  0  0  0  0
  191.5220  176.1930  144.4520 O   0  0  0  0  0  0  0  0  0  0  0  0
  192.1530  175.7110  146.6330 N   0  0  0  0  0  1  0  0  0  0  0  0
  191.4290  176.4780  145.6740 C   0  0  0  0  0  0  0  0  0  0  0  0
  183.5940  177.9710  141.7880 C   0  0  0  0  0  2  0  0  0  0  0  0
  182.3720  178.1490  140.8910 C   0  0  0  0  0  2  0  0  0  0  0  0
  182.3250  177.1500  139.7340 C   0  0  1  0  0  3  0  0  0  0  0  0
  181.0370  176.6330  139.5800 O   0  0  0  0  0  1  0  0  0  0  0  0
  182.8050  177.7680  138.4300 C   0  0  2  0  0  3  0  0  0  0  0  0
  182.6440  176.8340  137.3910 O   0  0  0  0  0  0  0  0  0  0  0  0
  183.9470  177.0000  137.8920 C   0  0  0  0  0  2  0  0  0  0  0  0
  1 21  1  0  0  0  0
  1  7  1  0  0  0  0
  2  3  1  0  0  0  0
  3  5  1  6  0  0  0
  3 17  1  0  0  0  0
  6  7  1  0  0  0  0
  6  5  1  1  0  0  0
  7  2  1  1  0  0  0
  8  4  1  6  0  0  0
  8  1  1  0  0  0  0
  8  6  1  0  0  0  0
  9 11  2  0  0  0  0
 11 14  1  0  0  0  0
 11 12  1  0  0  0  0
 12 20  1  6  0  0  0
 12 16  1  0  0  0  0
 13 10  1  0  0  0  0
 14 15  1  0  0  0  0
 15 16  1  1  0  0  0
 15 10  1  0  0  0  0
 17 14  1  0  0  0  0
 17 13  1  1  0  0  0
 18 20  2  0  0  0  0
 20 19  1  0  0  0  0
 22 21  1  0  0  0  0
 23 24  1  6  0  0  0
 23 22  1  0  0  0  0
 25 23  1  1  0  0  0
 26 27  1  0  0  0  0
 26 25  1  0  0  0  0
 27 25  1  0  0  0  0
M  END
>  <MODEL>
6

>  <REMARK>
 VINA RESULT:      -7.1      4.235      6.355
  Name = 
  6 active torsions:
  status: ('A' for Active; 'I' for Inactive)
    1  A    between atoms: C_1  and  C_12
    2  A    between atoms: C_2  and  C_12
    3  A    between atoms: C_2  and  C_18
    4  A    between atoms: C_7  and  C_27
    5  A    between atoms: N_8  and  C_18
    6  A    between atoms: C_11  and  N_24
                            x       y       z     vdW  Elec       q    Type
                         _______ _______ _______ _____ _____    ______ ____

>  <TORSDO>
F 6

$$$$
=
 OpenBabel10222420183D

 27 31  0  0  1  0  0  0  0  0999 V2000
  190.7880  177.1050  138.5230 N   0  0  0  0  0  0  0  0  0  0  0  0
  188.8460  177.3850  140.1570 C   0  0  0  0  0  2  0  0  0  0  0  0
  189.0830  176.8300  141.5550 C   0  0  1  0  0  3  0  0  0  0  0  0
  193.0540  177.1680  139.0730 O   0  0  0  0  0  1  0  0  0  0  0  0
  190.5620  176.4730  141.5820 C   0  0  0  0  0  2  0  0  0  0  0  0
  191.2570  177.4140  140.6160 C   0  0  2  0  0  3  0  0  0  0  0  0
  190.2020  177.8790  139.6360 C   0  0  1  0  0  3  0  0  0  0  0  0
  191.8190  176.6330  139.4440 C   0  0  1  0  0  3  0  0  0  0  0  0
  191.1330  178.0620  144.2820 O   0  0  0  0  0  0  0  0  0  0  0  0
  186.7190  177.8750  143.8770 C   0  0  0  0  0  2  0  0  0  0  0  0
  189.9850  177.7480  144.6950 C   0  0  0  0  0  0  0  0  0  0  0  0
  189.5460  177.9040  146.0970 C   0  0  1  0  0  3  0  0  0  0  0  0
  187.3290  178.1220  142.5010 C   0  0  0  0  0  2  0  0  0  0  0  0
  188.9610  177.2820  143.8360 N   0  0  0  0  0  0  0  0  0  0  0  0
  187.7640  177.0830  144.6120 C   0  0  1  0  0  3  0  0  0  0  0  0
  188.0350  177.6750  146.0030 C   0  0  0  0  0  2  0  0  0  0  0  0
  188.7700  177.8490  142.5660 N   0  0  1  0  0  0  0  0  0  0  0  0
  189.4560  176.1150  147.6660 O   0  0  0  0  0  0  0  0  0  0  0  0
  191.6010  176.7460  147.0430 N   0  0  0  0  0  1  0  0  0  0  0  0
  190.1830  176.8760  146.9770 C   0  0  0  0  0  0  0  0  0  0  0  0
  189.9960  175.9410  138.1170 C   0  0  0  0  0  2  0  0  0  0  0  0
  189.8540  175.8890  136.5980 C   0  0  0  0  0  2  0  0  0  0  0  0
  189.2260  177.1520  136.0090 C   0  0  1  0  0  3  0  0  0  0  0  0
  189.4030  177.1930  134.6250 O   0  0  0  0  0  1  0  0  0  0  0  0
  187.7490  177.2670  136.3550 C   0  0  2  0  0  3  0  0  0  0  0  0
  187.1640  178.2610  135.5500 O   0  0  0  0  0  0  0  0  0  0  0  0
  187.4510  178.6170  136.8800 C   0  0  0  0  0  2  0  0  0  0  0  0
  1  8  1  0  0  0  0
  1  7  1  0  0  0  0
  3  2  1  6  0  0  0
  3  5  1  0  0  0  0
  3 17  1  0  0  0  0
  6  5  1  1  0  0  0
  7  2  1  1  0  0  0
  7  6  1  0  0  0  0
  8  4  1  6  0  0  0
  8  6  1  0  0  0  0
  9 11  2  0  0  0  0
 11 12  1  0  0  0  0
 12 20  1  1  0  0  0
 13 10  1  0  0  0  0
 14 15  1  0  0  0  0
 14 11  1  0  0  0  0
 15 10  1  6  0  0  0
 15 16  1  0  0  0  0
 16 12  1  0  0  0  0
 17 13  1  1  0  0  0
 17 14  1  0  0  0  0
 20 19  1  0  0  0  0
 20 18  2  0  0  0  0
 21  1  1  0  0  0  0
 22 21  1  0  0  0  0
 23 24  1  6  0  0  0
 23 22  1  0  0  0  0
 25 23  1  6  0  0  0
 25 27  1  0  0  0  0
 26 25  1  0  0  0  0
 26 27  1  0  0  0  0
M  END
>  <MODEL>
7

>  <REMARK>
 VINA RESULT:      -7.1      2.649      4.246
  Name = 
  6 active torsions:
  status: ('A' for Active; 'I' for Inactive)
    1  A    between atoms: C_1  and  C_12
    2  A    between atoms: C_2  and  C_12
    3  A    between atoms: C_2  and  C_18
    4  A    between atoms: C_7  and  C_27
    5  A    between atoms: N_8  and  C_18
    6  A    between atoms: C_11  and  N_24
                            x       y       z     vdW  Elec       q    Type
                         _______ _______ _______ _____ _____    ______ ____

>  <TORSDO>
F 6

$$$$
=
 OpenBabel10222420183D

 27 31  0  0  1  0  0  0  0  0999 V2000
  190.2710  177.4350  138.3570 N   0  0  0  0  0  0  0  0  0  0  0  0
  188.5140  177.8290  140.1680 C   0  0  0  0  0  2  0  0  0  0  0  0
  188.7110  177.0350  141.4530 C   0  0  1  0  0  3  0  0  0  0  0  0
  192.5290  176.9840  138.7220 O   0  0  0  0  0  1  0  0  0  0  0  0
  190.0880  176.4060  141.3090 C   0  0  0  0  0  2  0  0  0  0  0  0
  190.9040  177.3320  140.4270 C   0  0  2  0  0  3  0  0  0  0  0  0
  189.9110  178.1300  139.6110 C   0  0  1  0  0  3  0  0  0  0  0  0
  191.2350  176.6440  139.1170 C   0  0  1  0  0  3  0  0  0  0  0  0
  191.4270  178.2490  143.5300 O   0  0  0  0  0  0  0  0  0  0  0  0
  187.1390  177.6400  144.4920 C   0  0  0  0  0  2  0  0  0  0  0  0
  190.4960  177.7860  144.2400 C   0  0  0  0  0  0  0  0  0  0  0  0
  190.5150  177.7820  145.7180 C   0  0  1  0  0  3  0  0  0  0  0  0
  187.2600  178.0590  143.0300 C   0  0  0  0  0  2  0  0  0  0  0  0
  189.2880  177.2880  143.6950 N   0  0  0  0  0  0  0  0  0  0  0  0
  188.4180  176.9040  144.7770 C   0  0  1  0  0  3  0  0  0  0  0  0
  189.0730  177.4070  146.0710 C   0  0  0  0  0  2  0  0  0  0  0  0
  188.6620  177.9320  142.6160 N   0  0  1  0  0  0  0  0  0  0  0  0
  191.9360  175.8890  145.4590 O   0  0  0  0  0  0  0  0  0  0  0  0
  191.8650  176.7560  147.6110 N   0  0  0  0  0  1  0  0  0  0  0  0
  191.4720  176.7580  146.2400 C   0  0  0  0  0  0  0  0  0  0  0  0
  189.2420  176.5170  137.8630 C   0  0  0  0  0  2  0  0  0  0  0  0
  189.7850  175.6630  136.7200 C   0  0  0  0  0  2  0  0  0  0  0  0
  189.0790  174.3120  136.5900 C   0  0  1  0  0  3  0  0  0  0  0  0
  189.7040  173.3500  137.3850 O   0  0  0  0  0  1  0  0  0  0  0  0
  187.6020  174.4070  136.9400 C   0  0  2  0  0  3  0  0  0  0  0  0
  187.0170  173.1350  136.8120 O   0  0  0  0  0  0  0  0  0  0  0  0
  186.7760  174.0470  135.7690 C   0  0  0  0  0  2  0  0  0  0  0  0
  1  8  1  0  0  0  0
  1  7  1  0  0  0  0
  3  2  1  6  0  0  0
  3 17  1  0  0  0  0
  5  3  1  0  0  0  0
  6  5  1  1  0  0  0
  7  2  1  1  0  0  0
  7  6  1  0  0  0  0
  8  4  1  6  0  0  0
  8  6  1  0  0  0  0
  9 11  2  0  0  0  0
 11 12  1  0  0  0  0
 12 16  1  0  0  0  0
 12 20  1  6  0  0  0
 13 10  1  0  0  0  0
 14 11  1  0  0  0  0
 14 15  1  0  0  0  0
 15 10  1  6  0  0  0
 15 16  1  0  0  0  0
 17 13  1  1  0  0  0
 17 14  1  0  0  0  0
 18 20  2  0  0  0  0
 20 19  1  0  0  0  0
 21  1  1  0  0  0  0
 22 21  1  0  0  0  0
 23 22  1  0  0  0  0
 23 24  1  1  0  0  0
 25 23  1  6  0  0  0
 26 25  1  0  0  0  0
 27 26  1  0  0  0  0
 27 25  1  0  0  0  0
M  END
>  <MODEL>
8

>  <REMARK>
 VINA RESULT:      -6.9      2.989      4.478
  Name = 
  6 active torsions:
  status: ('A' for Active; 'I' for Inactive)
    1  A    between atoms: C_1  and  C_12
    2  A    between atoms: C_2  and  C_12
    3  A    between atoms: C_2  and  C_18
    4  A    between atoms: C_7  and  C_27
    5  A    between atoms: N_8  and  C_18
    6  A    between atoms: C_11  and  N_24
                            x       y       z     vdW  Elec       q    Type
                         _______ _______ _______ _____ _____    ______ ____

>  <TORSDO>
F 6

$$$$
=
 OpenBabel10222420183D

 27 31  0  0  1  0  0  0  0  0999 V2000
  191.1840  176.9640  138.6040 N   0  0  0  0  0  0  0  0  0  0  0  0
  189.1050  177.1680  140.0730 C   0  0  0  0  0  2  0  0  0  0  0  0
  189.2990  176.7920  141.5360 C   0  0  1  0  0  3  0  0  0  0  0  0
  193.3790  177.3610  139.2830 O   0  0  0  0  0  1  0  0  0  0  0  0
  190.8030  176.6250  141.6940 C   0  0  0  0  0  2  0  0  0  0  0  0
  191.4550  177.5410  140.6750 C   0  0  2  0  0  3  0  0  0  0  0  0
  190.4300  177.7700  139.5870 C   0  0  1  0  0  3  0  0  0  0  0  0
  192.1900  176.7190  139.6340 C   0  0  1  0  0  3  0  0  0  0  0  0
  190.7210  178.1190  144.5980 O   0  0  0  0  0  0  0  0  0  0  0  0
  186.5050  177.9830  143.2230 C   0  0  0  0  0  2  0  0  0  0  0  0
  189.5020  177.8440  144.7560 C   0  0  0  0  0  0  0  0  0  0  0  0
  188.7650  178.0730  146.0160 C   0  0  1  0  0  3  0  0  0  0  0  0
  187.4130  178.1540  142.0090 C   0  0  0  0  0  2  0  0  0  0  0  0
  188.6830  177.3540  143.7110 N   0  0  0  0  0  0  0  0  0  0  0  0
  187.3390  177.2100  144.2070 C   0  0  1  0  0  3  0  0  0  0  0  0
  187.3080  177.8630  145.5960 C   0  0  0  0  0  2  0  0  0  0  0  0
  188.7950  177.8620  142.4070 N   0  0  1  0  0  0  0  0  0  0  0  0
  188.3000  176.6480  147.8670 O   0  0  0  0  0  0  0  0  0  0  0  0
  190.5060  176.6080  147.1490 N   0  0  0  0  0  1  0  0  0  0  0  0
  189.1630  177.0780  147.0600 C   0  0  0  0  0  0  0  0  0  0  0  0
  190.5650  175.6760  138.2810 C   0  0  0  0  0  2  0  0  0  0  0  0
  191.0310  175.1810  136.9140 C   0  0  0  0  0  2  0  0  0  0  0  0
  192.0390  174.0340  137.0020 C   0  0  1  0  0  3  0  0  0  0  0  0
  191.6960  173.0080  136.1200 O   0  0  0  0  0  1  0  0  0  0  0  0
  193.4600  174.5050  136.7370 C   0  0  2  0  0  3  0  0  0  0  0  0
  194.3170  173.3900  136.7130 O   0  0  0  0  0  0  0  0  0  0  0  0
  194.3310  174.1700  137.8840 C   0  0  0  0  0  2  0  0  0  0  0  0
  1  7  1  0  0  0  0
  1  8  1  0  0  0  0
  3  2  1  6  0  0  0
  3  5  1  0  0  0  0
  3 17  1  0  0  0  0
  6  5  1  1  0  0  0
  7  2  1  1  0  0  0
  7  6  1  0  0  0  0
  8  4  1  6  0  0  0
  8  6  1  0  0  0  0
  9 11  2  0  0  0  0
 11 12  1  0  0  0  0
 12 20  1  1  0  0  0
 13 10  1  0  0  0  0
 14 15  1  0  0  0  0
 14 11  1  0  0  0  0
 15 10  1  6  0  0  0
 15 16  1  0  0  0  0
 16 12  1  0  0  0  0
 17 13  1  6  0  0  0
 17 14  1  0  0  0  0
 20 19  1  0  0  0  0
 20 18  2  0  0  0  0
 21  1  1  0  0  0  0
 22 23  1  0  0  0  0
 22 21  1  0  0  0  0
 23 24  1  6  0  0  0
 25 23  1  1  0  0  0
 25 27  1  0  0  0  0
 26 25  1  0  0  0  0
 26 27  1  0  0  0  0
M  END
>  <MODEL>
9

>  <REMARK>
 VINA RESULT:      -6.9      2.255      3.604
  Name = 
  6 active torsions:
  status: ('A' for Active; 'I' for Inactive)
    1  A    between atoms: C_1  and  C_12
    2  A    between atoms: C_2  and  C_12
    3  A    between atoms: C_2  and  C_18
    4  A    between atoms: C_7  and  C_27
    5  A    between atoms: N_8  and  C_18
    6  A    between atoms: C_11  and  N_24
                            x       y       z     vdW  Elec       q    Type
                         _______ _______ _______ _____ _____    ______ ____

>  <TORSDO>
F 6

$$$$
