=
 OpenBabel10222419183D

 35 39  0  0  1  0  0  0  0  0999 V2000
  186.0000  177.8010  145.8710 C   0  0  0  0  0  2  0  0  0  0  0  0
  187.6090  177.0240  144.2730 C   0  0  1  0  0  3  0  0  0  0  0  0
  186.1050  178.7240  137.5120 S   0  0  0  0  0  0  0  0  0  0  0  0
  188.0440  176.9550  141.8380 C   0  0  0  0  0  3  0  0  0  0  0  0
  189.7070  178.4580  141.6130 C   0  0  0  0  0  3  0  0  0  0  0  0
  189.6770  177.9480  138.6470 C   0  0  0  0  0  3  0  0  0  0  0  0
  184.1970  179.9170  143.3770 C   0  0  0  0  0  1  0  0  0  0  0  0
  185.1040  178.3740  138.9580 C   0  0  0  0  0  0  0  0  0  0  0  0
  188.1950  177.1490  135.4310 O   0  0  0  0  0  0  0  0  0  0  0  0
  183.5640  177.8430  141.2310 C   0  0  0  0  0  3  0  0  0  0  0  0
  189.3000  177.5450  147.6460 N   0  0  0  0  0  1  0  0  0  0  0  0
  187.0940  177.1800  137.5570 C   0  0  2  0  0  3  0  0  0  0  0  0
  185.5130  178.8430  140.2090 C   0  0  0  0  0  3  0  0  0  0  0  0
  188.5410  176.7480  145.4710 C   0  0  0  0  0  2  0  0  0  0  0  0
  187.5450  176.8960  138.9200 N   0  0  0  0  0  2  0  0  0  0  0  0
  189.5160  177.8340  137.2280 N   0  0  0  0  0  0  0  0  0  0  0  0
  186.5740  178.0390  144.5470 N   0  0  1  0  0  0  0  0  0  0  0  0
  188.8630  177.5950  140.9290 C   0  0  0  0  0  0  0  0  0  0  0  0
  185.2400  179.0350  142.7130 C   0  0  2  0  0  0  0  0  0  0  0  0
  183.1460  177.3830  139.9780 C   0  0  0  0  0  3  0  0  0  0  0  0
  188.7300  177.4860  139.4710 C   0  0  2  0  0  3  0  0  0  0  0  0
  188.4610  177.8650  146.5070 C   0  0  1  0  0  3  0  0  0  0  0  0
  189.3480  178.2930  142.9410 C   0  0  0  0  0  0  0  0  0  0  0  0
  184.7520  178.5820  141.3580 C   0  0  0  0  0  0  0  0  0  0  0  0
  188.3670  177.3750  143.0720 N   0  0  0  0  0  0  0  0  0  0  0  0
  185.4950  177.8090  143.5930 C   0  0  0  0  0  2  0  0  0  0  0  0
  186.4060  179.7770  142.5750 F   0  0  0  0  0  0  0  0  0  0  0  0
  188.2880  177.3570  136.6690 C   0  0  0  0  0  0  0  0  0  0  0  0
  183.9160  177.6480  138.8410 C   0  0  0  0  0  3  0  0  0  0  0  0
  187.0230  178.1000  146.9720 C   0  0  0  0  0  2  0  0  0  0  0  0
  189.8870  179.0020  144.0170 O   0  0  0  0  0  0  0  0  0  0  0  0
  191.2760  178.9700  144.3240 C   0  0  0  0  0  2  0  0  0  0  0  0
  191.9350  177.2370  145.8410 O   0  0  0  0  0  1  0  0  0  0  0  0
  191.8970  176.6630  143.6260 O   0  0  0  0  0  0  0  0  0  0  0  0
  191.7150  177.5810  144.6510 C   0  0  0  0  0  0  0  0  0  0  0  0
  1 30  1  0  0  0  0
  2 17  1  0  0  0  0
  2 14  1  1  0  0  0
  3 12  1  0  0  0  0
  3  8  1  0  0  0  0
  4 25  1  0  0  0  0
  5 23  2  0  0  0  0
  8 13  1  0  0  0  0
  9 28  2  0  0  0  0
 10 24  1  0  0  0  0
 12 28  1  6  0  0  0
 12 15  1  0  0  0  0
 13 24  2  0  0  0  0
 14 22  1  0  0  0  0
 15 21  1  0  0  0  0
 16  6  2  0  0  0  0
 17 26  1  6  0  0  0
 17  1  1  0  0  0  0
 18  5  1  0  0  0  0
 18  4  2  0  0  0  0
 19  7  1  1  0  0  0
 19 26  1  0  0  0  0
 20 10  2  0  0  0  0
 21  6  1  6  0  0  0
 21 18  1  0  0  0  0
 22 30  1  0  0  0  0
 22 11  1  1  0  0  0
 23 25  1  0  0  0  0
 23 31  1  0  0  0  0
 24 19  1  0  0  0  0
 25  2  1  0  0  0  0
 27 19  1  0  0  0  0
 28 16  1  0  0  0  0
 29  8  2  0  0  0  0
 29 20  1  0  0  0  0
 31 32  1  0  0  0  0
 32 35  1  0  0  0  0
 34 35  2  0  0  0  0
 35 33  1  0  0  0  0
M  END
>  <MODEL>
1

>  <REMARK>
 VINA RESULT:      -7.4      0.000      0.000
  Name = 
  3 active torsions:
  status: ('A' for Active; 'I' for Inactive)
    1  A    between atoms: C_1  and  C_15
    2  A    between atoms: C_1  and  O_34
    3  A    between atoms: C_27  and  O_34
                            x       y       z     vdW  Elec       q    Type
                         _______ _______ _______ _____ _____    ______ ____

>  <TORSDO>
F 3

$$$$
=
 OpenBabel10222419183D

 35 39  0  0  1  0  0  0  0  0999 V2000
  192.5670  176.6510  141.2650 C   0  0  0  0  0  2  0  0  0  0  0  0
  190.1850  176.5660  141.0140 C   0  0  1  0  0  3  0  0  0  0  0  0
  186.5410  179.1620  146.5690 S   0  0  0  0  0  0  0  0  0  0  0  0
  188.0890  177.0630  142.2320 C   0  0  0  0  0  3  0  0  0  0  0  0
  187.3520  178.9080  141.1700 C   0  0  0  0  0  3  0  0  0  0  0  0
  185.0140  178.9830  143.0640 C   0  0  0  0  0  3  0  0  0  0  0  0
  192.4030  178.7590  144.3430 C   0  0  0  0  0  1  0  0  0  0  0  0
  188.1210  178.3300  146.3970 C   0  0  0  0  0  0  0  0  0  0  0  0
  183.2810  178.5120  146.2190 O   0  0  0  0  0  0  0  0  0  0  0  0
  190.5890  177.0480  146.1020 C   0  0  0  0  0  3  0  0  0  0  0  0
  191.8300  176.7870  137.5850 N   0  0  0  0  0  1  0  0  0  0  0  0
  185.5370  177.8920  145.7070 C   0  0  2  0  0  3  0  0  0  0  0  0
  188.9420  178.6280  145.3060 C   0  0  0  0  0  3  0  0  0  0  0  0
  190.4370  176.2770  139.5200 C   0  0  0  0  0  2  0  0  0  0  0  0
  186.1990  177.4580  144.4770 N   0  0  0  0  0  2  0  0  0  0  0  0
  184.0210  179.1110  144.0880 N   0  0  0  0  0  2  0  0  0  0  0  0
  191.3040  177.2580  141.6820 N   0  0  1  0  0  0  0  0  0  0  0  0
  187.1030  178.0300  142.2140 C   0  0  0  0  0  0  0  0  0  0  0  0
  191.0270  178.2720  143.9250 C   0  0  2  0  0  0  0  0  0  0  0  0
  189.7750  176.7570  147.2020 C   0  0  0  0  0  3  0  0  0  0  0  0
  186.0650  178.1760  143.2430 C   0  0  0  0  0  0  0  0  0  0  0  0
  191.5780  177.1290  138.9720 C   0  0  1  0  0  3  0  0  0  0  0  0
  188.5110  178.4170  140.5900 C   0  0  0  0  0  0  0  0  0  0  0  0
  190.1810  177.9910  145.1440 C   0  0  0  0  0  0  0  0  0  0  0  0
  188.9340  177.2990  141.2150 N   0  0  0  0  0  0  0  0  0  0  0  0
  191.1770  176.9850  143.1090 C   0  0  0  0  0  2  0  0  0  0  0  0
  190.4350  179.2630  143.1530 F   0  0  0  0  0  0  0  0  0  0  0  0
  184.2070  178.4930  145.3660 C   0  0  0  0  0  0  0  0  0  0  0  0
  188.5400  177.3970  147.3500 C   0  0  0  0  0  3  0  0  0  0  0  0
  192.8580  176.9490  139.7910 C   0  0  0  0  0  2  0  0  0  0  0  0
  189.1910  179.0060  139.5220 O   0  0  0  0  0  0  0  0  0  0  0  0
  188.6700  179.0030  138.1980 C   0  0  0  0  0  2  0  0  0  0  0  0
  187.6430  176.8500  137.9690 O   0  0  0  0  0  0  0  0  0  0  0  0
  186.2100  178.6280  138.1260 O   0  0  0  0  0  1  0  0  0  0  0  0
  187.4900  178.0930  138.0950 C   0  0  0  0  0  0  0  0  0  0  0  0
  2 14  1  6  0  0  0
  2 25  1  0  0  0  0
  2 17  1  0  0  0  0
  5 18  1  0  0  0  0
  6 21  2  0  0  0  0
  6 16  1  0  0  0  0
  8  3  1  0  0  0  0
  8 29  1  0  0  0  0
 10 20  1  0  0  0  0
 12 15  1  6  0  0  0
 12  3  1  0  0  0  0
 13  8  2  0  0  0  0
 16 28  1  0  0  0  0
 17  1  1  6  0  0  0
 17 26  1  0  0  0  0
 18  4  2  0  0  0  0
 18 21  1  0  0  0  0
 19  7  1  1  0  0  0
 19 24  1  0  0  0  0
 20 29  2  0  0  0  0
 21 15  1  0  0  0  0
 22 11  1  6  0  0  0
 22 14  1  0  0  0  0
 22 30  1  0  0  0  0
 23  5  2  0  0  0  0
 23 25  1  0  0  0  0
 24 13  1  0  0  0  0
 24 10  2  0  0  0  0
 25  4  1  0  0  0  0
 26 19  1  0  0  0  0
 27 19  1  0  0  0  0
 28 12  1  0  0  0  0
 28  9  2  0  0  0  0
 30  1  1  0  0  0  0
 31 23  1  0  0  0  0
 32 31  1  0  0  0  0
 33 35  2  0  0  0  0
 35 34  1  0  0  0  0
 35 32  1  0  0  0  0
M  END
>  <MODEL>
2

>  <REMARK>
 VINA RESULT:      -6.7      3.050      7.249
  Name = 
  3 active torsions:
  status: ('A' for Active; 'I' for Inactive)
    1  A    between atoms: C_1  and  C_15
    2  A    between atoms: C_1  and  O_34
    3  A    between atoms: C_27  and  O_34
                            x       y       z     vdW  Elec       q    Type
                         _______ _______ _______ _____ _____    ______ ____

>  <TORSDO>
F 3

$$$$
=
 OpenBabel10222419183D

 35 39  0  0  1  0  0  0  0  0999 V2000
  190.9110  177.1050  146.5190 C   0  0  0  0  0  2  0  0  0  0  0  0
  189.2850  178.3430  145.2660 C   0  0  1  0  0  3  0  0  0  0  0  0
  189.1760  176.8500  138.2930 S   0  0  0  0  0  0  0  0  0  0  0  0
  188.4730  178.6890  142.9550 C   0  0  0  0  0  3  0  0  0  0  0  0
  186.4880  177.6220  142.9880 C   0  0  0  0  0  3  0  0  0  0  0  0
  186.1350  178.3300  140.0840 C   0  0  0  0  0  3  0  0  0  0  0  0
  191.7140  174.8250  143.6710 C   0  0  0  0  0  1  0  0  0  0  0  0
  190.4610  176.8560  139.5430 C   0  0  0  0  0  0  0  0  0  0  0  0
  187.1970  179.0070  136.6790 O   0  0  0  0  0  0  0  0  0  0  0  0
  192.4460  176.8540  141.5140 C   0  0  0  0  0  3  0  0  0  0  0  0
  188.1160  177.9710  148.8720 N   0  0  0  0  0  1  0  0  0  0  0  0
  188.6030  178.5700  138.5670 C   0  0  2  0  0  3  0  0  0  0  0  0
  190.1710  176.4010  140.8320 C   0  0  0  0  0  3  0  0  0  0  0  0
  188.6620  178.7330  146.6220 C   0  0  0  0  0  2  0  0  0  0  0  0
  188.4690  178.8480  139.9970 N   0  0  0  0  0  2  0  0  0  0  0  0
  186.0750  178.5090  138.6640 N   0  0  0  0  0  0  0  0  0  0  0  0
  190.0820  177.1020  145.3140 N   0  0  1  0  0  0  0  0  0  0  0  0
  187.3830  178.3190  142.1900 C   0  0  0  0  0  0  0  0  0  0  0  0
  190.8110  175.9670  143.2370 C   0  0  2  0  0  0  0  0  0  0  0  0
  192.7420  177.2990  140.2210 C   0  0  0  0  0  3  0  0  0  0  0  0
  187.2890  178.5030  140.7360 C   0  0  2  0  0  3  0  0  0  0  0  0
  188.6490  177.5540  147.5890 C   0  0  1  0  0  3  0  0  0  0  0  0
  187.0960  177.6030  144.2330 C   0  0  0  0  0  0  0  0  0  0  0  0
  191.1560  176.3970  141.8310 C   0  0  0  0  0  0  0  0  0  0  0  0
  188.2730  178.2620  144.2120 N   0  0  0  0  0  0  0  0  0  0  0  0
  191.0070  177.1510  144.1870 C   0  0  0  0  0  2  0  0  0  0  0  0
  189.4970  175.5210  143.2900 F   0  0  0  0  0  0  0  0  0  0  0  0
  187.2680  178.7350  137.9060 C   0  0  0  0  0  0  0  0  0  0  0  0
  191.7500  177.3000  139.2350 C   0  0  0  0  0  3  0  0  0  0  0  0
  190.0490  176.9650  147.7770 C   0  0  0  0  0  2  0  0  0  0  0  0
  186.5950  176.9580  145.3650 O   0  0  0  0  0  0  0  0  0  0  0  0
  185.2890  177.2160  145.8670 C   0  0  0  0  0  2  0  0  0  0  0  0
  185.4980  179.3380  146.9600 O   0  0  0  0  0  1  0  0  0  0  0  0
  184.3000  179.3330  145.0100 O   0  0  0  0  0  0  0  0  0  0  0  0
  185.0460  178.6840  145.9840 C   0  0  0  0  0  0  0  0  0  0  0  0
  1 30  1  0  0  0  0
  2 17  1  0  0  0  0
  2 14  1  1  0  0  0
  3 12  1  0  0  0  0
  3  8  1  0  0  0  0
  4 25  1  0  0  0  0
  5 23  2  0  0  0  0
  8 13  1  0  0  0  0
  9 28  2  0  0  0  0
 10 24  1  0  0  0  0
 12 28  1  6  0  0  0
 12 15  1  0  0  0  0
 13 24  2  0  0  0  0
 14 22  1  0  0  0  0
 15 21  1  0  0  0  0
 16  6  2  0  0  0  0
 17 26  1  6  0  0  0
 17  1  1  0  0  0  0
 18  4  2  0  0  0  0
 18  5  1  0  0  0  0
 19 27  1  0  0  0  0
 19  7  1  1  0  0  0
 19 26  1  0  0  0  0
 20 10  2  0  0  0  0
 21  6  1  6  0  0  0
 21 18  1  0  0  0  0
 22 30  1  0  0  0  0
 22 11  1  1  0  0  0
 23 31  1  0  0  0  0
 24 19  1  0  0  0  0
 25 23  1  0  0  0  0
 25  2  1  0  0  0  0
 28 16  1  0  0  0  0
 29  8  2  0  0  0  0
 29 20  1  0  0  0  0
 31 32  1  0  0  0  0
 32 35  1  0  0  0  0
 34 35  2  0  0  0  0
 35 33  1  0  0  0  0
M  END
>  <MODEL>
3

>  <REMARK>
 VINA RESULT:      -6.6      2.571      5.088
  Name = 
  3 active torsions:
  status: ('A' for Active; 'I' for Inactive)
    1  A    between atoms: C_1  and  C_15
    2  A    between atoms: C_1  and  O_34
    3  A    between atoms: C_27  and  O_34
                            x       y       z     vdW  Elec       q    Type
                         _______ _______ _______ _____ _____    ______ ____

>  <TORSDO>
F 3

$$$$
=
 OpenBabel10222419183D

 35 39  0  0  1  0  0  0  0  0999 V2000
  191.7940  177.5760  142.1460 C   0  0  0  0  0  2  0  0  0  0  0  0
  189.6760  178.5590  142.6860 C   0  0  1  0  0  3  0  0  0  0  0  0
  184.7280  177.8780  137.5940 S   0  0  0  0  0  0  0  0  0  0  0  0
  187.4330  178.9770  141.7270 C   0  0  0  0  0  3  0  0  0  0  0  0
  186.1560  177.5030  142.8560 C   0  0  0  0  0  3  0  0  0  0  0  0
  183.7820  178.4390  141.2600 C   0  0  0  0  0  3  0  0  0  0  0  0
  190.4880  175.8660  139.0940 C   0  0  0  0  0  1  0  0  0  0  0  0
  186.5150  178.0250  137.5790 C   0  0  0  0  0  0  0  0  0  0  0  0
  182.0370  179.7140  138.3420 O   0  0  0  0  0  0  0  0  0  0  0  0
  189.3040  178.2370  137.5820 C   0  0  0  0  0  3  0  0  0  0  0  0
  191.4670  177.5340  145.8870 N   0  0  0  0  0  1  0  0  0  0  0  0
  184.3970  179.3870  138.5810 C   0  0  2  0  0  3  0  0  0  0  0  0
  187.2690  177.3750  138.5600 C   0  0  0  0  0  3  0  0  0  0  0  0
  190.1810  178.6470  144.1400 C   0  0  0  0  0  2  0  0  0  0  0  0
  185.3060  179.4650  139.7250 N   0  0  0  0  0  2  0  0  0  0  0  0
  182.7130  178.7600  140.3620 N   0  0  0  0  0  0  0  0  0  0  0  0
  190.3560  177.5270  141.8810 N   0  0  1  0  0  0  0  0  0  0  0  0
  186.1560  178.4660  141.8570 C   0  0  0  0  0  0  0  0  0  0  0  0
  189.4640  176.8230  139.6800 C   0  0  2  0  0  0  0  0  0  0  0  0
  188.5530  178.8800  136.5920 C   0  0  0  0  0  3  0  0  0  0  0  0
  185.0380  178.7870  140.9610 C   0  0  2  0  0  3  0  0  0  0  0  0
  190.9520  177.3920  144.5380 C   0  0  1  0  0  3  0  0  0  0  0  0
  187.4700  177.4770  143.2950 C   0  0  0  0  0  0  0  0  0  0  0  0
  188.6670  177.4750  138.5760 C   0  0  0  0  0  0  0  0  0  0  0  0
  188.2240  178.3780  142.6320 N   0  0  0  0  0  0  0  0  0  0  0  0
  190.1910  177.9060  140.4820 C   0  0  0  0  0  2  0  0  0  0  0  0
  188.6210  176.0960  140.5100 F   0  0  0  0  0  0  0  0  0  0  0  0
  182.9840  179.3280  139.0760 C   0  0  0  0  0  0  0  0  0  0  0  0
  187.1580  178.7750  136.5900 C   0  0  0  0  0  3  0  0  0  0  0  0
  192.1040  177.1090  143.5720 C   0  0  0  0  0  2  0  0  0  0  0  0
  187.9780  176.6140  144.2670 O   0  0  0  0  0  0  0  0  0  0  0  0
  187.3450  176.4370  145.5290 C   0  0  0  0  0  2  0  0  0  0  0  0
  188.4020  177.8780  147.1240 O   0  0  0  0  0  1  0  0  0  0  0  0
  186.4260  178.6340  146.2530 O   0  0  0  0  0  0  0  0  0  0  0  0
  187.4330  177.6840  146.3450 C   0  0  0  0  0  0  0  0  0  0  0  0
  1 30  1  0  0  0  0
  2 14  1  1  0  0  0
  4 18  2  0  0  0  0
  4 25  1  0  0  0  0
  5 23  2  0  0  0  0
  8  3  1  0  0  0  0
  8 13  1  0  0  0  0
  9 28  2  0  0  0  0
 10 24  1  0  0  0  0
 12  3  1  1  0  0  0
 12 28  1  0  0  0  0
 12 15  1  0  0  0  0
 13 24  2  0  0  0  0
 14 22  1  0  0  0  0
 15 21  1  0  0  0  0
 16  6  2  0  0  0  0
 17 26  1  6  0  0  0
 17  1  1  0  0  0  0
 17  2  1  0  0  0  0
 18  5  1  0  0  0  0
 19  7  1  6  0  0  0
 19 26  1  0  0  0  0
 19 27  1  0  0  0  0
 20 10  2  0  0  0  0
 21  6  1  6  0  0  0
 21 18  1  0  0  0  0
 22 11  1  1  0  0  0
 23 31  1  0  0  0  0
 24 19  1  0  0  0  0
 25  2  1  0  0  0  0
 25 23  1  0  0  0  0
 28 16  1  0  0  0  0
 29 20  1  0  0  0  0
 29  8  2  0  0  0  0
 30 22  1  0  0  0  0
 31 32  1  0  0  0  0
 32 35  1  0  0  0  0
 34 35  2  0  0  0  0
 35 33  1  0  0  0  0
M  END
>  <MODEL>
4

>  <REMARK>
 VINA RESULT:      -6.5      2.494      4.853
  Name = 
  3 active torsions:
  status: ('A' for Active; 'I' for Inactive)
    1  A    between atoms: C_1  and  C_15
    2  A    between atoms: C_1  and  O_34
    3  A    between atoms: C_27  and  O_34
                            x       y       z     vdW  Elec       q    Type
                         _______ _______ _______ _____ _____    ______ ____

>  <TORSDO>
F 3

$$$$
=
 OpenBabel10222419183D

 35 39  0  0  1  0  0  0  0  0999 V2000
  185.8930  177.8740  144.4180 C   0  0  0  0  0  2  0  0  0  0  0  0
  187.8380  176.7660  143.5630 C   0  0  1  0  0  3  0  0  0  0  0  0
  189.0170  177.8240  136.6080 S   0  0  0  0  0  0  0  0  0  0  0  0
  189.0800  176.3770  141.4580 C   0  0  0  0  0  3  0  0  0  0  0  0
  190.9000  177.6750  141.7370 C   0  0  0  0  0  3  0  0  0  0  0  0
  191.8360  176.8360  139.0020 C   0  0  0  0  0  3  0  0  0  0  0  0
  185.3650  179.8590  141.2980 C   0  0  0  0  0  1  0  0  0  0  0  0
  187.5390  177.7420  137.6200 C   0  0  0  0  0  0  0  0  0  0  0  0
  191.4710  175.8250  135.5340 O   0  0  0  0  0  0  0  0  0  0  0  0
  185.2490  177.6260  139.2220 C   0  0  0  0  0  3  0  0  0  0  0  0
  188.3050  177.4990  147.2710 N   0  0  0  0  0  1  0  0  0  0  0  0
  189.7150  176.2060  137.1160 C   0  0  2  0  0  3  0  0  0  0  0  0
  187.5460  178.3070  138.8980 C   0  0  0  0  0  3  0  0  0  0  0  0
  188.2510  176.5380  145.0310 C   0  0  0  0  0  2  0  0  0  0  0  0
  189.6230  176.0360  138.5660 N   0  0  0  0  0  2  0  0  0  0  0  0
  192.1640  176.5770  137.6320 N   0  0  0  0  0  0  0  0  0  0  0  0
  186.9170  177.9020  143.3730 N   0  0  1  0  0  0  0  0  0  0  0  0
  190.2410  176.8270  140.8590 C   0  0  0  0  0  0  0  0  0  0  0  0
  186.4480  178.8090  141.1170 C   0  0  2  0  0  0  0  0  0  0  0  0
  185.2360  177.0700  137.9390 C   0  0  0  0  0  3  0  0  0  0  0  0
  190.6090  176.5660  139.4620 C   0  0  2  0  0  3  0  0  0  0  0  0
  187.9650  177.7680  145.8870 C   0  0  1  0  0  3  0  0  0  0  0  0
  190.0830  177.6980  142.8560 C   0  0  0  0  0  0  0  0  0  0  0  0
  186.4060  178.2540  139.7130 C   0  0  0  0  0  0  0  0  0  0  0  0
  189.0070  176.9020  142.6910 N   0  0  0  0  0  0  0  0  0  0  0  0
  186.2160  177.6720  142.1150 C   0  0  0  0  0  2  0  0  0  0  0  0
  187.6760  179.4130  141.3540 F   0  0  0  0  0  0  0  0  0  0  0  0
  191.1550  176.1620  136.7050 C   0  0  0  0  0  0  0  0  0  0  0  0
  186.3810  177.1260  137.1370 C   0  0  0  0  0  3  0  0  0  0  0  0
  186.4990  178.1940  145.7870 C   0  0  0  0  0  2  0  0  0  0  0  0
  190.3040  178.4680  143.9990 O   0  0  0  0  0  0  0  0  0  0  0  0
  191.5340  178.4280  144.7140 C   0  0  0  0  0  2  0  0  0  0  0  0
  191.7910  176.0470  144.8170 O   0  0  0  0  0  0  0  0  0  0  0  0
  191.6810  177.1280  146.8310 O   0  0  0  0  0  1  0  0  0  0  0  0
  191.6800  177.1330  145.4440 C   0  0  0  0  0  0  0  0  0  0  0  0
  1 30  1  0  0  0  0
  2 14  1  1  0  0  0
  3  8  1  0  0  0  0
  4 25  1  0  0  0  0
  5 23  2  0  0  0  0
  8 13  1  0  0  0  0
  9 28  2  0  0  0  0
 10 24  1  0  0  0  0
 12  3  1  1  0  0  0
 12 15  1  0  0  0  0
 13 24  2  0  0  0  0
 14 22  1  0  0  0  0
 15 21  1  0  0  0  0
 16  6  2  0  0  0  0
 17 26  1  6  0  0  0
 17  2  1  0  0  0  0
 17  1  1  0  0  0  0
 18  4  2  0  0  0  0
 18  5  1  0  0  0  0
 19  7  1  1  0  0  0
 19 27  1  0  0  0  0
 19 26  1  0  0  0  0
 20 10  2  0  0  0  0
 21  6  1  6  0  0  0
 21 18  1  0  0  0  0
 22 11  1  1  0  0  0
 23 31  1  0  0  0  0
 24 19  1  0  0  0  0
 25 23  1  0  0  0  0
 25  2  1  0  0  0  0
 28 12  1  0  0  0  0
 28 16  1  0  0  0  0
 29  8  2  0  0  0  0
 29 20  1  0  0  0  0
 30 22  1  0  0  0  0
 31 32  1  0  0  0  0
 32 35  1  0  0  0  0
 33 35  2  0  0  0  0
 35 34  1  0  0  0  0
M  END
>  <MODEL>
5

>  <REMARK>
 VINA RESULT:      -6.3      1.644      2.108
  Name = 
  3 active torsions:
  status: ('A' for Active; 'I' for Inactive)
    1  A    between atoms: C_1  and  C_15
    2  A    between atoms: C_1  and  O_34
    3  A    between atoms: C_27  and  O_34
                            x       y       z     vdW  Elec       q    Type
                         _______ _______ _______ _____ _____    ______ ____

>  <TORSDO>
F 3

$$$$
=
 OpenBabel10222419183D

 35 39  0  0  1  0  0  0  0  0999 V2000
  179.4840  179.7910  139.0670 C   0  0  0  0  0  2  0  0  0  0  0  0
  181.7670  180.0050  138.3680 C   0  0  1  0  0  3  0  0  0  0  0  0
  186.5290  177.5010  143.0500 S   0  0  0  0  0  0  0  0  0  0  0  0
  184.0790  179.5960  139.1490 C   0  0  0  0  0  3  0  0  0  0  0  0
  184.6850  177.8120  137.9150 C   0  0  0  0  0  3  0  0  0  0  0  0
  187.3440  177.8240  139.3250 C   0  0  0  0  0  3  0  0  0  0  0  0
  180.3370  177.6380  141.9970 C   0  0  0  0  0  1  0  0  0  0  0  0
  184.9080  178.2520  143.2070 C   0  0  0  0  0  0  0  0  0  0  0  0
  189.6270  178.3270  142.1030 O   0  0  0  0  0  0  0  0  0  0  0  0
  182.3710  179.4090  143.4250 C   0  0  0  0  0  3  0  0  0  0  0  0
  179.5070  179.7620  135.3120 N   0  0  0  0  0  1  0  0  0  0  0  0
  187.2880  178.8370  142.0490 C   0  0  2  0  0  3  0  0  0  0  0  0
  183.9080  177.9320  142.2840 C   0  0  0  0  0  3  0  0  0  0  0  0
  181.2190  180.3090  136.9590 C   0  0  0  0  0  2  0  0  0  0  0  0
  186.3820  179.2590  140.9810 N   0  0  0  0  0  2  0  0  0  0  0  0
  188.5210  177.7290  140.1370 N   0  0  0  0  0  2  0  0  0  0  0  0
  180.8320  179.2430  139.2180 N   0  0  1  0  0  0  0  0  0  0  0  0
  185.0880  178.6830  138.9160 C   0  0  0  0  0  0  0  0  0  0  0  0
  181.5820  178.2050  141.3370 C   0  0  2  0  0  0  0  0  0  0  0  0
  183.3660  179.7210  144.3560 C   0  0  0  0  0  3  0  0  0  0  0  0
  186.3100  178.5720  139.7240 C   0  0  0  0  0  0  0  0  0  0  0  0
  180.0370  179.4090  136.6150 C   0  0  1  0  0  3  0  0  0  0  0  0
  183.4150  178.2530  137.5810 C   0  0  0  0  0  0  0  0  0  0  0  0
  182.6320  178.5060  142.3800 C   0  0  0  0  0  0  0  0  0  0  0  0
  183.0660  179.3350  138.3070 N   0  0  0  0  0  0  0  0  0  0  0  0
  181.2170  179.4970  140.6020 C   0  0  0  0  0  2  0  0  0  0  0  0
  182.0610  177.2600  140.4390 F   0  0  0  0  0  0  0  0  0  0  0  0
  188.5540  178.3130  141.4430 C   0  0  0  0  0  0  0  0  0  0  0  0
  184.6360  179.1440  144.2480 C   0  0  0  0  0  3  0  0  0  0  0  0
  178.9310  179.5060  137.6680 C   0  0  0  0  0  2  0  0  0  0  0  0
  182.5710  177.6480  136.6460 O   0  0  0  0  0  0  0  0  0  0  0  0
  182.5600  176.2410  136.4360 C   0  0  0  0  0  2  0  0  0  0  0  0
  182.0160  174.4370  137.9150 O   0  0  0  0  0  1  0  0  0  0  0  0
  180.5230  176.1710  137.8640 O   0  0  0  0  0  0  0  0  0  0  0  0
  181.6980  175.5610  137.4470 C   0  0  0  0  0  0  0  0  0  0  0  0
  2 14  1  6  0  0  0
  2 17  1  0  0  0  0
  3  8  1  0  0  0  0
  5 18  1  0  0  0  0
  6 21  2  0  0  0  0
  6 16  1  0  0  0  0
  8 29  1  0  0  0  0
 10 20  1  0  0  0  0
 12 15  1  6  0  0  0
 12  3  1  0  0  0  0
 13 24  1  0  0  0  0
 13  8  2  0  0  0  0
 16 28  1  0  0  0  0
 17  1  1  1  0  0  0
 17 26  1  0  0  0  0
 18  4  2  0  0  0  0
 18 21  1  0  0  0  0
 19  7  1  1  0  0  0
 19 24  1  0  0  0  0
 21 15  1  0  0  0  0
 22 11  1  6  0  0  0
 22 14  1  0  0  0  0
 22 30  1  0  0  0  0
 23  5  2  0  0  0  0
 23 25  1  0  0  0  0
 24 10  2  0  0  0  0
 25  2  1  0  0  0  0
 25  4  1  0  0  0  0
 26 19  1  0  0  0  0
 27 19  1  0  0  0  0
 28 12  1  0  0  0  0
 28  9  2  0  0  0  0
 29 20  2  0  0  0  0
 30  1  1  0  0  0  0
 31 23  1  0  0  0  0
 32 31  1  0  0  0  0
 32 35  1  0  0  0  0
 35 34  2  0  0  0  0
 35 33  1  0  0  0  0
M  END
>  <MODEL>
6

>  <REMARK>
 VINA RESULT:      -6.3      4.013      8.029
  Name = 
  3 active torsions:
  status: ('A' for Active; 'I' for Inactive)
    1  A    between atoms: C_1  and  C_15
    2  A    between atoms: C_1  and  O_34
    3  A    between atoms: C_27  and  O_34
                            x       y       z     vdW  Elec       q    Type
                         _______ _______ _______ _____ _____    ______ ____

>  <TORSDO>
F 3

$$$$
=
 OpenBabel10222419183D

 35 39  0  0  1  0  0  0  0  0999 V2000
  186.1800  179.0830  139.6540 C   0  0  0  0  0  2  0  0  0  0  0  0
  188.4010  178.9000  140.5350 C   0  0  1  0  0  3  0  0  0  0  0  0
  188.7120  176.7530  147.3290 S   0  0  0  0  0  0  0  0  0  0  0  0
  189.6220  178.3740  142.6220 C   0  0  0  0  0  3  0  0  0  0  0  0
  190.4710  176.3360  142.1720 C   0  0  0  0  0  3  0  0  0  0  0  0
  191.6630  176.2960  144.9350 C   0  0  0  0  0  3  0  0  0  0  0  0
  184.6190  177.4140  142.6090 C   0  0  0  0  0  1  0  0  0  0  0  0
  187.5250  177.7020  146.3790 C   0  0  0  0  0  0  0  0  0  0  0  0
  191.8360  177.0270  148.4870 O   0  0  0  0  0  0  0  0  0  0  0  0
  185.6790  179.1660  144.8710 C   0  0  0  0  0  3  0  0  0  0  0  0
  188.4670  178.3690  136.7630 N   0  0  0  0  0  1  0  0  0  0  0  0
  190.1750  177.7870  146.9390 C   0  0  2  0  0  3  0  0  0  0  0  0
  187.2500  177.3390  145.0580 C   0  0  0  0  0  3  0  0  0  0  0  0
  188.8970  179.0030  139.0780 C   0  0  0  0  0  2  0  0  0  0  0  0
  190.2130  178.1100  145.5120 N   0  0  0  0  0  2  0  0  0  0  0  0
  192.0550  176.2140  146.3100 N   0  0  0  0  0  2  0  0  0  0  0  0
  187.0120  178.4190  140.6580 N   0  0  1  0  0  0  0  0  0  0  0  0
  190.3520  177.3220  143.1400 C   0  0  0  0  0  0  0  0  0  0  0  0
  186.0920  177.7030  142.8420 C   0  0  2  0  0  0  0  0  0  0  0  0
  185.9430  179.5260  146.1970 C   0  0  0  0  0  3  0  0  0  0  0  0
  190.7790  177.2190  144.5420 C   0  0  0  0  0  0  0  0  0  0  0  0
  188.0120  178.1990  138.1300 C   0  0  1  0  0  3  0  0  0  0  0  0
  189.7880  176.8540  141.0830 C   0  0  0  0  0  0  0  0  0  0  0  0
  186.3290  178.0650  144.2890 C   0  0  0  0  0  0  0  0  0  0  0  0
  189.3010  178.0830  141.3510 N   0  0  0  0  0  0  0  0  0  0  0  0
  186.5210  178.8730  141.9540 C   0  0  0  0  0  2  0  0  0  0  0  0
  186.8120  176.5610  142.5140 F   0  0  0  0  0  0  0  0  0  0  0  0
  191.4090  177.0180  147.3030 C   0  0  0  0  0  0  0  0  0  0  0  0
  186.8660  178.7950  146.9520 C   0  0  0  0  0  3  0  0  0  0  0  0
  186.5440  178.6140  138.2430 C   0  0  0  0  0  2  0  0  0  0  0  0
  189.5820  176.1920  139.8710 O   0  0  0  0  0  0  0  0  0  0  0  0
  190.6000  176.0880  138.8830 C   0  0  0  0  0  2  0  0  0  0  0  0
  191.0860  174.1280  137.5930 O   0  0  0  0  0  1  0  0  0  0  0  0
  189.0270  175.0640  137.2490 O   0  0  0  0  0  0  0  0  0  0  0  0
  190.2620  175.0340  137.8810 C   0  0  0  0  0  0  0  0  0  0  0  0
  2 14  1  6  0  0  0
  2 17  1  0  0  0  0
  2 25  1  0  0  0  0
  4 18  2  0  0  0  0
  5 18  1  0  0  0  0
  6 16  1  0  0  0  0
  8 29  1  0  0  0  0
  8  3  1  0  0  0  0
 10 20  1  0  0  0  0
 12 15  1  6  0  0  0
 12 28  1  0  0  0  0
 12  3  1  0  0  0  0
 13  8  2  0  0  0  0
 16 28  1  0  0  0  0
 17  1  1  6  0  0  0
 17 26  1  0  0  0  0
 18 21  1  0  0  0  0
 19  7  1  6  0  0  0
 19 24  1  0  0  0  0
 20 29  2  0  0  0  0
 21  6  2  0  0  0  0
 21 15  1  0  0  0  0
 22 11  1  6  0  0  0
 22 30  1  0  0  0  0
 22 14  1  0  0  0  0
 23 25  1  0  0  0  0
 23  5  2  0  0  0  0
 24 10  2  0  0  0  0
 24 13  1  0  0  0  0
 25  4  1  0  0  0  0
 26 19  1  0  0  0  0
 27 19  1  0  0  0  0
 28  9  2  0  0  0  0
 30  1  1  0  0  0  0
 31 23  1  0  0  0  0
 32 31  1  0  0  0  0
 33 35  1  0  0  0  0
 34 35  2  0  0  0  0
 35 32  1  0  0  0  0
M  END
>  <MODEL>
7

>  <REMARK>
 VINA RESULT:      -6.2      2.780      6.901
  Name = 
  3 active torsions:
  status: ('A' for Active; 'I' for Inactive)
    1  A    between atoms: C_1  and  C_15
    2  A    between atoms: C_1  and  O_34
    3  A    between atoms: C_27  and  O_34
                            x       y       z     vdW  Elec       q    Type
                         _______ _______ _______ _____ _____    ______ ____

>  <TORSDO>
F 3

$$$$
=
 OpenBabel10222419183D

 35 39  0  0  1  0  0  0  0  0999 V2000
  192.1150  176.0980  137.1640 C   0  0  0  0  0  2  0  0  0  0  0  0
  190.9300  177.6220  138.5830 C   0  0  1  0  0  3  0  0  0  0  0  0
  183.8290  177.2500  138.0310 S   0  0  0  0  0  0  0  0  0  0  0  0
  188.6380  178.3790  139.1290 C   0  0  0  0  0  3  0  0  0  0  0  0
  188.3060  177.4560  141.1580 C   0  0  0  0  0  3  0  0  0  0  0  0
  185.5360  178.6310  141.1660 C   0  0  0  0  0  3  0  0  0  0  0  0
  189.0260  174.2430  136.1810 C   0  0  0  0  0  1  0  0  0  0  0  0
  185.1810  176.9740  136.8870 C   0  0  0  0  0  0  0  0  0  0  0  0
  182.4040  179.7600  139.7170 O   0  0  0  0  0  0  0  0  0  0  0  0
  187.3070  176.5310  135.1230 C   0  0  0  0  0  3  0  0  0  0  0  0
  194.2980  176.7700  140.1440 N   0  0  0  0  0  1  0  0  0  0  0  0
  184.3220  178.9400  138.5420 C   0  0  2  0  0  3  0  0  0  0  0  0
  186.3450  176.3430  137.3330 C   0  0  0  0  0  3  0  0  0  0  0  0
  192.2650  177.8370  139.3260 C   0  0  0  0  0  2  0  0  0  0  0  0
  185.7590  178.9990  138.8120 N   0  0  0  0  0  2  0  0  0  0  0  0
  184.1650  179.0340  141.0660 N   0  0  0  0  0  2  0  0  0  0  0  0
  190.8510  176.3390  137.8600 N   0  0  1  0  0  0  0  0  0  0  0  0
  187.7220  178.2080  140.1490 C   0  0  0  0  0  0  0  0  0  0  0  0
  188.6980  175.4970  136.9740 C   0  0  2  0  0  0  0  0  0  0  0  0
  186.1380  177.1520  134.6700 C   0  0  0  0  0  3  0  0  0  0  0  0
  186.3150  178.6220  140.0790 C   0  0  0  0  0  0  0  0  0  0  0  0
  193.0220  176.5240  139.5000 C   0  0  1  0  0  3  0  0  0  0  0  0
  189.5850  177.2010  140.6860 C   0  0  0  0  0  0  0  0  0  0  0  0
  187.4200  176.1180  136.4610 C   0  0  0  0  0  0  0  0  0  0  0  0
  189.7840  177.7760  139.4820 N   0  0  0  0  0  0  0  0  0  0  0  0
  189.8420  176.5020  136.8200 C   0  0  0  0  0  2  0  0  0  0  0  0
  188.5510  175.1370  138.3070 F   0  0  0  0  0  0  0  0  0  0  0  0
  183.5720  179.2950  139.7900 C   0  0  0  0  0  0  0  0  0  0  0  0
  185.0740  177.3740  135.5510 C   0  0  0  0  0  3  0  0  0  0  0  0
  193.2450  175.8210  138.1600 C   0  0  0  0  0  2  0  0  0  0  0  0
  190.5430  176.4220  141.3360 O   0  0  0  0  0  0  0  0  0  0  0  0
  190.3960  176.0150  142.6920 C   0  0  0  0  0  2  0  0  0  0  0  0
  192.0550  177.6630  143.2160 O   0  0  0  0  0  0  0  0  0  0  0  0
  190.6350  177.0990  144.9190 O   0  0  0  0  0  1  0  0  0  0  0  0
  191.0780  176.9750  143.6100 C   0  0  0  0  0  0  0  0  0  0  0  0
  1 17  1  0  0  0  0
  1 30  1  0  0  0  0
  2 14  1  1  0  0  0
  2 25  1  0  0  0  0
  4 25  1  0  0  0  0
  4 18  2  0  0  0  0
  8 13  1  0  0  0  0
  8  3  1  0  0  0  0
  9 28  2  0  0  0  0
 10 24  1  0  0  0  0
 12  3  1  1  0  0  0
 12 15  1  0  0  0  0
 12 28  1  0  0  0  0
 14 22  1  0  0  0  0
 15 21  1  0  0  0  0
 16  6  1  0  0  0  0
 17 26  1  6  0  0  0
 17  2  1  0  0  0  0
 18  5  1  0  0  0  0
 19  7  1  6  0  0  0
 19 27  1  0  0  0  0
 20 10  2  0  0  0  0
 20 29  1  0  0  0  0
 21 18  1  0  0  0  0
 21  6  2  0  0  0  0
 22 11  1  6  0  0  0
 23  5  2  0  0  0  0
 23 31  1  0  0  0  0
 24 19  1  0  0  0  0
 24 13  2  0  0  0  0
 25 23  1  0  0  0  0
 26 19  1  0  0  0  0
 28 16  1  0  0  0  0
 29  8  2  0  0  0  0
 30 22  1  0  0  0  0
 31 32  1  0  0  0  0
 32 35  1  0  0  0  0
 33 35  2  0  0  0  0
 35 34  1  0  0  0  0
M  END
>  <MODEL>
8

>  <REMARK>
 VINA RESULT:      -5.9      3.174      6.008
  Name = 
  3 active torsions:
  status: ('A' for Active; 'I' for Inactive)
    1  A    between atoms: C_1  and  C_15
    2  A    between atoms: C_1  and  O_34
    3  A    between atoms: C_27  and  O_34
                            x       y       z     vdW  Elec       q    Type
                         _______ _______ _______ _____ _____    ______ ____

>  <TORSDO>
F 3

$$$$
=
 OpenBabel10222419183D

 35 39  0  0  1  0  0  0  0  0999 V2000
  179.3970  177.3370  140.6180 C   0  0  0  0  0  2  0  0  0  0  0  0
  181.7440  177.8240  140.5990 C   0  0  1  0  0  3  0  0  0  0  0  0
  185.2330  175.2970  134.9150 S   0  0  0  0  0  0  0  0  0  0  0  0
  183.7990  177.4100  139.2840 C   0  0  0  0  0  3  0  0  0  0  0  0
  184.1680  179.4220  138.3390 C   0  0  0  0  0  3  0  0  0  0  0  0
  186.5670  178.2530  136.9480 C   0  0  0  0  0  3  0  0  0  0  0  0
  179.3960  176.0580  137.1090 C   0  0  0  0  0  1  0  0  0  0  0  0
  183.8010  174.7450  135.8410 C   0  0  0  0  0  0  0  0  0  0  0  0
  188.5300  175.6670  135.3230 O   0  0  0  0  0  0  0  0  0  0  0  0
  181.5570  173.9130  137.2900 C   0  0  0  0  0  3  0  0  0  0  0  0
  179.8930  180.5030  142.5760 N   0  0  0  0  0  1  0  0  0  0  0  0
  186.3780  175.4160  136.3420 C   0  0  2  0  0  3  0  0  0  0  0  0
  182.8820  175.6850  136.3160 C   0  0  0  0  0  3  0  0  0  0  0  0
  181.4580  178.8380  141.7270 C   0  0  0  0  0  2  0  0  0  0  0  0
  185.7260  176.0750  137.4740 N   0  0  0  0  0  2  0  0  0  0  0  0
  187.5830  177.6330  136.1510 N   0  0  0  0  0  0  0  0  0  0  0  0
  180.5690  177.5190  139.7610 N   0  0  1  0  0  0  0  0  0  0  0  0
  184.6140  178.1110  138.4170 C   0  0  0  0  0  0  0  0  0  0  0  0
  180.8060  176.3130  137.6110 C   0  0  2  0  0  0  0  0  0  0  0  0
  182.4690  172.9680  136.8060 C   0  0  0  0  0  3  0  0  0  0  0  0
  185.6720  177.5030  137.5980 C   0  0  2  0  0  3  0  0  0  0  0  0
  180.1660  179.6060  141.4690 C   0  0  1  0  0  3  0  0  0  0  0  0
  183.0720  179.4520  139.1870 C   0  0  0  0  0  0  0  0  0  0  0  0
  181.7540  175.2820  137.0460 C   0  0  0  0  0  0  0  0  0  0  0  0
  182.8700  178.2510  139.7670 N   0  0  0  0  0  0  0  0  0  0  0  0
  180.8190  176.2240  139.1400 C   0  0  0  0  0  2  0  0  0  0  0  0
  181.1860  177.5840  137.2020 F   0  0  0  0  0  0  0  0  0  0  0  0
  187.5720  176.2190  135.9250 C   0  0  0  0  0  0  0  0  0  0  0  0
  183.5910  173.3840  136.0810 C   0  0  0  0  0  3  0  0  0  0  0  0
  178.9800  178.6620  141.2630 C   0  0  0  0  0  2  0  0  0  0  0  0
  182.2470  180.5580  139.3980 O   0  0  0  0  0  0  0  0  0  0  0  0
  181.8730  181.4360  138.3430 C   0  0  0  0  0  2  0  0  0  0  0  0
  179.7370  180.3700  138.1290 O   0  0  0  0  0  1  0  0  0  0  0  0
  180.8060  180.8670  136.1680 O   0  0  0  0  0  0  0  0  0  0  0  0
  180.7410  180.8640  137.5540 C   0  0  0  0  0  0  0  0  0  0  0  0
  1 30  1  0  0  0  0
  2 14  1  1  0  0  0
  3  8  1  0  0  0  0
  4 25  1  0  0  0  0
  5 18  1  0  0  0  0
  5 23  2  0  0  0  0
  8 29  2  0  0  0  0
  8 13  1  0  0  0  0
  9 28  2  0  0  0  0
 12  3  1  6  0  0  0
 12 15  1  0  0  0  0
 13 24  2  0  0  0  0
 15 21  1  0  0  0  0
 16  6  2  0  0  0  0
 17 26  1  1  0  0  0
 17  2  1  0  0  0  0
 17  1  1  0  0  0  0
 18  4  2  0  0  0  0
 19  7  1  6  0  0  0
 19 26  1  0  0  0  0
 20 10  2  0  0  0  0
 21  6  1  6  0  0  0
 21 18  1  0  0  0  0
 22 14  1  0  0  0  0
 22 11  1  1  0  0  0
 23 31  1  0  0  0  0
 23 25  1  0  0  0  0
 24 10  1  0  0  0  0
 24 19  1  0  0  0  0
 25  2  1  0  0  0  0
 27 19  1  0  0  0  0
 28 16  1  0  0  0  0
 28 12  1  0  0  0  0
 29 20  1  0  0  0  0
 30 22  1  0  0  0  0
 32 31  1  0  0  0  0
 34 35  2  0  0  0  0
 35 33  1  0  0  0  0
 35 32  1  0  0  0  0
M  END
>  <MODEL>
9

>  <REMARK>
 VINA RESULT:      -5.3      5.878      7.652
  Name = 
  3 active torsions:
  status: ('A' for Active; 'I' for Inactive)
    1  A    between atoms: C_1  and  C_15
    2  A    between atoms: C_1  and  O_34
    3  A    between atoms: C_27  and  O_34
                            x       y       z     vdW  Elec       q    Type
                         _______ _______ _______ _____ _____    ______ ____

>  <TORSDO>
F 3

$$$$
