=
 OpenBabel10222417583D

 33 35  0  0  1  0  0  0  0  0999 V2000
  186.3380  178.0460  144.9190 C   0  0  0  0  0  0  0  0  0  0  0  0
  190.4430  176.7980  140.9940 C   0  0  0  0  0  1  0  0  0  0  0  0
  189.5670  177.0830  142.1600 C   0  0  0  0  0  0  0  0  0  0  0  0
  185.3140  178.1620  144.0900 C   0  0  0  0  0  0  0  0  0  0  0  0
  188.1840  177.3840  141.9420 N   0  0  0  0  0  2  0  0  0  0  0  0
  185.7900  177.9750  142.6820 C   0  0  2  0  0  3  0  0  0  0  0  0
  187.2320  177.6890  142.9670 C   0  0  0  0  0  0  0  0  0  0  0  0
  187.5350  177.7370  144.2240 N   0  0  0  0  0  0  0  0  0  0  0  0
  190.0520  177.0560  143.3210 O   0  0  0  0  0  0  0  0  0  0  0  0
  184.0010  178.3890  144.5070 O   0  0  0  0  0  0  0  0  0  0  0  0
  183.3120  179.5940  144.2120 C   0  0  0  0  0  1  0  0  0  0  0  0
  185.6830  179.2810  141.9110 C   0  0  0  0  0  2  0  0  0  0  0  0
  184.8250  179.0940  140.7100 C   0  0  0  0  0  3  0  0  0  0  0  0
  183.8270  178.2150  140.7330 C   0  0  0  0  0  3  0  0  0  0  0  0
  184.5560  176.1100  136.9900 C   0  0  0  0  0  0  0  0  0  0  0  0
  183.7680  177.7310  138.4130 C   0  0  0  0  0  0  0  0  0  0  0  0
  183.0440  176.6890  139.1090 C   0  0  0  0  0  0  0  0  0  0  0  0
  182.9680  178.0220  139.5300 C   0  0  1  0  0  3  0  0  0  0  0  0
  183.8060  173.6570  137.3290 C   0  0  0  0  0  1  0  0  0  0  0  0
  184.5580  177.5220  137.3330 C   0  0  0  0  0  3  0  0  0  0  0  0
  182.9930  175.3880  138.8690 N   0  0  0  0  0  0  0  0  0  0  0  0
  183.7830  175.0850  137.7610 C   0  0  0  0  0  0  0  0  0  0  0  0
  186.7460  175.2450  136.0200 N   0  0  0  0  0  2  0  0  0  0  0  0
  185.4000  175.7010  135.8440 C   0  0  0  0  0  0  0  0  0  0  0  0
  184.9250  175.7320  134.6770 O   0  0  0  0  0  0  0  0  0  0  0  0
  187.4120  175.3340  137.2500 N   0  0  0  0  0  1  0  0  0  0  0  0
  186.2480  178.1090  146.4080 C   0  0  0  0  0  2  0  0  0  0  0  0
  187.4650  177.4600  147.0470 C   0  0  0  0  0  2  0  0  0  0  0  0
  187.8590  178.1990  148.2340 N   0  0  0  0  0  2  0  0  0  0  0  0
  189.2960  178.0540  148.3600 C   0  0  0  0  0  2  0  0  0  0  0  0
  189.8350  177.3030  147.1580 C   0  0  0  0  0  2  0  0  0  0  0  0
  191.8780  176.4520  146.2680 O   0  0  0  0  0  1  0  0  0  0  0  0
  191.2160  176.7510  147.4580 C   0  0  0  0  0  2  0  0  0  0  0  0
  1 27  1  0  0  0  0
  2  3  1  0  0  0  0
  3  9  2  0  0  0  0
  4 10  1  0  0  0  0
  4  1  2  0  0  0  0
  5  3  1  0  0  0  0
  5  7  1  0  0  0  0
  6 12  1  6  0  0  0
  6  7  1  0  0  0  0
  6  4  1  0  0  0  0
  7  8  2  0  0  0  0
  8  1  1  0  0  0  0
 11 10  1  0  0  0  0
 13 14  2  0  0  0  0
 13 12  1  0  0  0  0
 15 20  2  0  0  0  0
 15 22  1  0  0  0  0
 16 17  2  0  0  0  0
 16 18  1  0  0  0  0
 17 18  1  0  0  0  0
 18 14  1  1  0  0  0
 19 22  1  0  0  0  0
 20 16  1  0  0  0  0
 21 17  1  0  0  0  0
 22 21  2  0  0  0  0
 23 26  1  0  0  0  0
 24 23  1  0  0  0  0
 24 15  1  0  0  0  0
 25 24  2  0  0  0  0
 27 28  1  0  0  0  0
 28 29  1  0  0  0  0
 29 30  1  0  0  0  0
 31 33  1  0  0  0  0
 31 30  1  0  0  0  0
 32 33  1  0  0  0  0
M  END
>  <MODEL>
1

>  <REMARK>
 VINA RESULT:      -7.0      0.000      0.000
  Name = 
  11 active torsions:
  status: ('A' for Active; 'I' for Inactive)
    1  A    between atoms: O_1  and  C_16
    2  A    between atoms: C_3  and  C_6
    3  A    between atoms: C_5  and  N_12
    4  A    between atoms: C_5  and  C_19
    5  A    between atoms: C_7  and  C_21
    6  A    between atoms: C_11  and  C_15
    7  A    between atoms: N_12  and  C_33
    8  A    between atoms: C_13  and  C_14
    9  A    between atoms: C_15  and  C_20
   10  A    between atoms: C_19  and  C_32
   11  A    between atoms: C_21  and  C_33
                            x       y       z     vdW  Elec       q    Type
                         _______ _______ _______ _____ _____    ______ ____

>  <TORSDO>
F 11

$$$$
=
 OpenBabel10222417583D

 33 35  0  0  1  0  0  0  0  0999 V2000
  187.3980  177.6000  143.9300 C   0  0  0  0  0  0  0  0  0  0  0  0
  184.5830  179.2530  139.1190 C   0  0  0  0  0  1  0  0  0  0  0  0
  185.4940  178.8120  140.2060 C   0  0  0  0  0  0  0  0  0  0  0  0
  186.3670  177.5920  144.7590 C   0  0  0  0  0  0  0  0  0  0  0  0
  184.9760  178.6410  141.5300 N   0  0  0  0  0  2  0  0  0  0  0  0
  185.1410  178.0490  144.0310 C   0  0  2  0  0  3  0  0  0  0  0  0
  185.7410  178.2340  142.6710 C   0  0  0  0  0  0  0  0  0  0  0  0
  187.0100  177.9870  142.6220 N   0  0  0  0  0  0  0  0  0  0  0  0
  186.7070  178.5960  139.9490 O   0  0  0  0  0  0  0  0  0  0  0  0
  186.4450  177.1790  146.0910 O   0  0  0  0  0  0  0  0  0  0  0  0
  186.8990  178.0400  147.1230 C   0  0  0  0  0  1  0  0  0  0  0  0
  184.6840  179.4000  144.5620 C   0  0  0  0  0  2  0  0  0  0  0  0
  183.4220  179.8110  143.8890 C   0  0  0  0  0  3  0  0  0  0  0  0
  182.3410  179.0400  143.9700 C   0  0  0  0  0  3  0  0  0  0  0  0
  180.5780  177.7970  140.1860 C   0  0  0  0  0  0  0  0  0  0  0  0
  181.1660  179.1870  141.9160 C   0  0  0  0  0  0  0  0  0  0  0  0
  180.4240  178.3120  142.7980 C   0  0  0  0  0  0  0  0  0  0  0  0
  181.0760  179.4470  143.2940 C   0  0  1  0  0  3  0  0  0  0  0  0
  179.0930  175.7330  140.6710 C   0  0  0  0  0  1  0  0  0  0  0  0
  181.2960  178.9960  140.5820 C   0  0  0  0  0  3  0  0  0  0  0  0
  179.7520  177.2040  142.5230 N   0  0  0  0  0  0  0  0  0  0  0  0
  179.8320  176.9340  141.1580 C   0  0  0  0  0  0  0  0  0  0  0  0
  181.6350  176.5180  138.2540 N   0  0  0  0  0  2  0  0  0  0  0  0
  180.6430  177.4220  138.7540 C   0  0  0  0  0  0  0  0  0  0  0  0
  179.7950  177.8890  137.9480 O   0  0  0  0  0  0  0  0  0  0  0  0
  182.7130  176.0810  139.0350 N   0  0  0  0  0  1  0  0  0  0  0  0
  188.7790  177.1490  144.2750 C   0  0  0  0  0  2  0  0  0  0  0  0
  189.6700  178.3400  144.5870 C   0  0  0  0  0  2  0  0  0  0  0  0
  190.5280  178.6310  143.4520 N   0  0  0  0  0  2  0  0  0  0  0  0
  191.1750  177.3850  143.0860 C   0  0  0  0  0  2  0  0  0  0  0  0
  191.4240  177.3680  141.5900 C   0  0  0  0  0  2  0  0  0  0  0  0
  190.6360  176.1820  139.6760 O   0  0  0  0  0  1  0  0  0  0  0  0
  190.2260  176.7880  140.8640 C   0  0  0  0  0  2  0  0  0  0  0  0
  1 27  1  0  0  0  0
  1  4  2  0  0  0  0
  2  3  1  0  0  0  0
  3  5  1  0  0  0  0
  4 10  1  0  0  0  0
  5  7  1  0  0  0  0
  6 12  1  1  0  0  0
  6  4  1  0  0  0  0
  7  6  1  0  0  0  0
  8  7  2  0  0  0  0
  8  1  1  0  0  0  0
  9  3  2  0  0  0  0
 10 11  1  0  0  0  0
 13 14  2  0  0  0  0
 13 12  1  0  0  0  0
 15 20  2  0  0  0  0
 15 22  1  0  0  0  0
 16 17  2  0  0  0  0
 16 18  1  0  0  0  0
 17 18  1  0  0  0  0
 18 14  1  1  0  0  0
 19 22  1  0  0  0  0
 20 16  1  0  0  0  0
 21 17  1  0  0  0  0
 22 21  2  0  0  0  0
 23 24  1  0  0  0  0
 23 26  1  0  0  0  0
 24 15  1  0  0  0  0
 25 24  2  0  0  0  0
 27 28  1  0  0  0  0
 29 28  1  0  0  0  0
 30 29  1  0  0  0  0
 31 30  1  0  0  0  0
 32 33  1  0  0  0  0
 33 31  1  0  0  0  0
M  END
>  <MODEL>
2

>  <REMARK>
 VINA RESULT:      -6.9      3.124      4.731
  Name = 
  11 active torsions:
  status: ('A' for Active; 'I' for Inactive)
    1  A    between atoms: O_1  and  C_16
    2  A    between atoms: C_3  and  C_6
    3  A    between atoms: C_5  and  N_12
    4  A    between atoms: C_5  and  C_19
    5  A    between atoms: C_7  and  C_21
    6  A    between atoms: C_11  and  C_15
    7  A    between atoms: N_12  and  C_33
    8  A    between atoms: C_13  and  C_14
    9  A    between atoms: C_15  and  C_20
   10  A    between atoms: C_19  and  C_32
   11  A    between atoms: C_21  and  C_33
                            x       y       z     vdW  Elec       q    Type
                         _______ _______ _______ _____ _____    ______ ____

>  <TORSDO>
F 11

$$$$
=
 OpenBabel10222417583D

 33 35  0  0  1  0  0  0  0  0999 V2000
  190.9090  177.6950  142.4940 C   0  0  0  0  0  0  0  0  0  0  0  0
  193.2010  176.3930  137.3120 C   0  0  0  0  0  1  0  0  0  0  0  0
  192.8430  176.7380  138.7120 C   0  0  0  0  0  0  0  0  0  0  0  0
  189.6330  177.5610  142.1750 C   0  0  0  0  0  0  0  0  0  0  0  0
  191.4620  176.8320  139.0800 N   0  0  0  0  0  2  0  0  0  0  0  0
  189.5170  177.2270  140.7200 C   0  0  2  0  0  3  0  0  0  0  0  0
  190.9750  177.1660  140.3850 C   0  0  0  0  0  0  0  0  0  0  0  0
  191.7520  177.4360  141.3830 N   0  0  0  0  0  0  0  0  0  0  0  0
  193.7570  176.9420  139.5530 O   0  0  0  0  0  0  0  0  0  0  0  0
  188.5870  177.6850  143.0920 O   0  0  0  0  0  0  0  0  0  0  0  0
  187.8440  176.5650  143.5460 C   0  0  0  0  0  1  0  0  0  0  0  0
  188.8800  178.3830  139.9620 C   0  0  0  0  0  2  0  0  0  0  0  0
  188.2050  177.8760  138.7370 C   0  0  0  0  0  3  0  0  0  0  0  0
  188.5570  178.3400  137.5410 C   0  0  0  0  0  3  0  0  0  0  0  0
  186.0320  174.8540  136.8720 C   0  0  0  0  0  0  0  0  0  0  0  0
  187.6100  176.4650  136.4410 C   0  0  0  0  0  0  0  0  0  0  0  0
  186.5690  177.4530  136.6220 C   0  0  0  0  0  0  0  0  0  0  0  0
  187.8800  177.8370  136.3110 C   0  0  1  0  0  3  0  0  0  0  0  0
  183.5910  175.5710  137.3460 C   0  0  0  0  0  1  0  0  0  0  0  0
  187.4220  175.1280  136.5530 C   0  0  0  0  0  3  0  0  0  0  0  0
  185.2890  177.2910  136.9180 N   0  0  0  0  0  0  0  0  0  0  0  0
  185.0070  175.9320  137.0490 C   0  0  0  0  0  0  0  0  0  0  0  0
  185.2460  172.6070  135.9670 N   0  0  0  0  0  2  0  0  0  0  0  0
  185.6590  173.4330  137.0620 C   0  0  0  0  0  0  0  0  0  0  0  0
  185.7210  172.9200  138.2110 O   0  0  0  0  0  0  0  0  0  0  0  0
  184.9860  173.1260  134.6920 N   0  0  0  0  0  1  0  0  0  0  0  0
  191.4260  177.9670  143.8690 C   0  0  0  0  0  2  0  0  0  0  0  0
  191.4170  176.6970  144.7050 C   0  0  0  0  0  2  0  0  0  0  0  0
  191.7410  177.0080  146.0860 N   0  0  0  0  0  2  0  0  0  0  0  0
  190.6070  176.5910  146.8880 C   0  0  0  0  0  2  0  0  0  0  0  0
  189.5170  177.6410  146.8030 C   0  0  0  0  0  2  0  0  0  0  0  0
  187.1350  177.5560  146.9100 O   0  0  0  0  0  1  0  0  0  0  0  0
  188.2980  177.1980  147.5910 C   0  0  0  0  0  2  0  0  0  0  0  0
  1 27  1  0  0  0  0
  2  3  1  0  0  0  0
  3  5  1  0  0  0  0
  3  9  2  0  0  0  0
  4  1  2  0  0  0  0
  4 10  1  0  0  0  0
  5  7  1  0  0  0  0
  6 12  1  6  0  0  0
  6  4  1  0  0  0  0
  7  6  1  0  0  0  0
  7  8  2  0  0  0  0
  8  1  1  0  0  0  0
 10 11  1  0  0  0  0
 13 12  1  0  0  0  0
 14 13  2  0  0  0  0
 15 22  1  0  0  0  0
 15 24  1  0  0  0  0
 16 20  1  0  0  0  0
 16 17  2  0  0  0  0
 17 21  1  0  0  0  0
 18 16  1  0  0  0  0
 18 17  1  0  0  0  0
 18 14  1  1  0  0  0
 20 15  2  0  0  0  0
 21 22  2  0  0  0  0
 22 19  1  0  0  0  0
 23 24  1  0  0  0  0
 24 25  2  0  0  0  0
 26 23  1  0  0  0  0
 27 28  1  0  0  0  0
 28 29  1  0  0  0  0
 29 30  1  0  0  0  0
 31 30  1  0  0  0  0
 31 33  1  0  0  0  0
 32 33  1  0  0  0  0
M  END
>  <MODEL>
3

>  <REMARK>
 VINA RESULT:      -6.9      2.982      4.281
  Name = 
  11 active torsions:
  status: ('A' for Active; 'I' for Inactive)
    1  A    between atoms: O_1  and  C_16
    2  A    between atoms: C_3  and  C_6
    3  A    between atoms: C_5  and  N_12
    4  A    between atoms: C_5  and  C_19
    5  A    between atoms: C_7  and  C_21
    6  A    between atoms: C_11  and  C_15
    7  A    between atoms: N_12  and  C_33
    8  A    between atoms: C_13  and  C_14
    9  A    between atoms: C_15  and  C_20
   10  A    between atoms: C_19  and  C_32
   11  A    between atoms: C_21  and  C_33
                            x       y       z     vdW  Elec       q    Type
                         _______ _______ _______ _____ _____    ______ ____

>  <TORSDO>
F 11

$$$$
=
 OpenBabel10222417583D

 33 35  0  0  1  0  0  0  0  0999 V2000
  187.7610  177.8210  143.2110 C   0  0  0  0  0  0  0  0  0  0  0  0
  184.0280  179.5210  139.0900 C   0  0  0  0  0  1  0  0  0  0  0  0
  184.7940  179.0970  140.2910 C   0  0  0  0  0  0  0  0  0  0  0  0
  188.8640  177.8290  142.4820 C   0  0  0  0  0  0  0  0  0  0  0  0
  186.1980  178.8450  140.1750 N   0  0  0  0  0  2  0  0  0  0  0  0
  188.5230  178.1940  141.0700 C   0  0  2  0  0  3  0  0  0  0  0  0
  187.0530  178.4210  141.2430 C   0  0  0  0  0  0  0  0  0  0  0  0
  186.6300  178.2030  142.4460 N   0  0  0  0  0  0  0  0  0  0  0  0
  184.1970  178.9650  141.3910 O   0  0  0  0  0  0  0  0  0  0  0  0
  190.1360  177.5660  142.9950 O   0  0  0  0  0  0  0  0  0  0  0  0
  190.6750  176.2550  143.0440 C   0  0  0  0  0  1  0  0  0  0  0  0
  188.7390  177.0020  140.1500 C   0  0  0  0  0  2  0  0  0  0  0  0
  189.7960  177.3160  139.1500 C   0  0  0  0  0  3  0  0  0  0  0  0
  190.1450  176.4090  138.2410 C   0  0  0  0  0  3  0  0  0  0  0  0
  194.1620  174.8060  137.7220 C   0  0  0  0  0  0  0  0  0  0  0  0
  192.4630  176.3500  137.7480 C   0  0  0  0  0  0  0  0  0  0  0  0
  191.7750  175.5270  136.7770 C   0  0  0  0  0  0  0  0  0  0  0  0
  191.2060  176.7190  137.2410 C   0  0  1  0  0  3  0  0  0  0  0  0
  193.9710  172.7430  136.1710 C   0  0  0  0  0  1  0  0  0  0  0  0
  193.6730  176.0550  138.2790 C   0  0  0  0  0  3  0  0  0  0  0  0
  192.1430  174.3800  136.2270 N   0  0  0  0  0  0  0  0  0  0  0  0
  193.3900  174.0020  136.7210 C   0  0  0  0  0  0  0  0  0  0  0  0
  196.7070  174.7570  137.6560 N   0  0  0  0  0  2  0  0  0  0  0  0
  195.4680  174.3180  138.2230 C   0  0  0  0  0  0  0  0  0  0  0  0
  195.5030  173.5070  139.1870 O   0  0  0  0  0  0  0  0  0  0  0  0
  196.7660  175.5210  136.4820 N   0  0  0  0  0  1  0  0  0  0  0  0
  187.7070  177.5640  144.6810 C   0  0  0  0  0  2  0  0  0  0  0  0
  186.4040  178.0820  145.2690 C   0  0  0  0  0  2  0  0  0  0  0  0
  186.5780  178.3820  146.6790 N   0  0  0  0  0  2  0  0  0  0  0  0
  187.4190  177.3370  147.2300 C   0  0  0  0  0  2  0  0  0  0  0  0
  187.9880  177.7950  148.5580 C   0  0  0  0  0  2  0  0  0  0  0  0
  190.1870  177.3030  147.7740 O   0  0  0  0  0  1  0  0  0  0  0  0
  189.4100  178.2920  148.3770 C   0  0  0  0  0  2  0  0  0  0  0  0
  1 27  1  0  0  0  0
  2  3  1  0  0  0  0
  3  9  2  0  0  0  0
  4 10  1  0  0  0  0
  4  1  2  0  0  0  0
  5  3  1  0  0  0  0
  5  7  1  0  0  0  0
  6 12  1  6  0  0  0
  6  7  1  0  0  0  0
  6  4  1  0  0  0  0
  7  8  2  0  0  0  0
  8  1  1  0  0  0  0
 10 11  1  0  0  0  0
 13 12  1  0  0  0  0
 14 13  2  0  0  0  0
 15 24  1  0  0  0  0
 15 20  1  0  0  0  0
 16 20  2  0  0  0  0
 17 18  1  0  0  0  0
 17 16  1  0  0  0  0
 18 16  1  0  0  0  0
 18 14  1  1  0  0  0
 19 22  1  0  0  0  0
 21 22  1  0  0  0  0
 21 17  2  0  0  0  0
 22 15  2  0  0  0  0
 23 24  1  0  0  0  0
 24 25  2  0  0  0  0
 26 23  1  0  0  0  0
 27 28  1  0  0  0  0
 28 29  1  0  0  0  0
 29 30  1  0  0  0  0
 30 31  1  0  0  0  0
 32 33  1  0  0  0  0
 33 31  1  0  0  0  0
M  END
>  <MODEL>
4

>  <REMARK>
 VINA RESULT:      -6.9      4.080      6.871
  Name = 
  11 active torsions:
  status: ('A' for Active; 'I' for Inactive)
    1  A    between atoms: O_1  and  C_16
    2  A    between atoms: C_3  and  C_6
    3  A    between atoms: C_5  and  N_12
    4  A    between atoms: C_5  and  C_19
    5  A    between atoms: C_7  and  C_21
    6  A    between atoms: C_11  and  C_15
    7  A    between atoms: N_12  and  C_33
    8  A    between atoms: C_13  and  C_14
    9  A    between atoms: C_15  and  C_20
   10  A    between atoms: C_19  and  C_32
   11  A    between atoms: C_21  and  C_33
                            x       y       z     vdW  Elec       q    Type
                         _______ _______ _______ _____ _____    ______ ____

>  <TORSDO>
F 11

$$$$
=
 OpenBabel10222417583D

 33 35  0  0  1  0  0  0  0  0999 V2000
  188.7660  177.1950  142.0390 C   0  0  0  0  0  0  0  0  0  0  0  0
  184.1560  179.6160  139.4510 C   0  0  0  0  0  1  0  0  0  0  0  0
  185.1990  179.0000  140.3110 C   0  0  0  0  0  0  0  0  0  0  0  0
  189.5990  177.2310  141.0130 C   0  0  0  0  0  0  0  0  0  0  0  0
  186.4770  178.6840  139.7470 N   0  0  0  0  0  2  0  0  0  0  0  0
  188.8910  177.7910  139.8170 C   0  0  2  0  0  3  0  0  0  0  0  0
  187.5660  178.0790  140.4530 C   0  0  0  0  0  0  0  0  0  0  0  0
  187.5000  177.7360  141.6990 N   0  0  0  0  0  0  0  0  0  0  0  0
  184.9460  178.7640  141.5210 O   0  0  0  0  0  0  0  0  0  0  0  0
  190.9350  176.8320  141.0840 O   0  0  0  0  0  0  0  0  0  0  0  0
  191.9820  177.5880  140.4960 C   0  0  0  0  0  1  0  0  0  0  0  0
  188.7120  176.7140  138.7580 C   0  0  0  0  0  2  0  0  0  0  0  0
  189.8030  176.8070  137.7500 C   0  0  0  0  0  3  0  0  0  0  0  0
  190.5260  175.7310  137.4480 C   0  0  0  0  0  3  0  0  0  0  0  0
  194.7110  174.5390  137.6420 C   0  0  0  0  0  0  0  0  0  0  0  0
  192.8680  175.7920  137.0880 C   0  0  0  0  0  0  0  0  0  0  0  0
  192.3410  174.6200  136.4230 C   0  0  0  0  0  0  0  0  0  0  0  0
  191.6220  175.8220  136.4420 C   0  0  1  0  0  3  0  0  0  0  0  0
  194.8450  172.0750  136.8610 C   0  0  0  0  0  1  0  0  0  0  0  0
  194.0590  175.8340  137.7320 C   0  0  0  0  0  3  0  0  0  0  0  0
  192.8620  173.4100  136.3000 N   0  0  0  0  0  0  0  0  0  0  0  0
  194.1010  173.3660  136.9380 C   0  0  0  0  0  0  0  0  0  0  0  0
  197.2140  174.9840  137.7940 N   0  0  0  0  0  2  0  0  0  0  0  0
  196.0180  174.4010  138.3250 C   0  0  0  0  0  0  0  0  0  0  0  0
  196.0890  173.7720  139.4140 O   0  0  0  0  0  0  0  0  0  0  0  0
  197.2660  175.5530  136.5150 N   0  0  0  0  0  1  0  0  0  0  0  0
  189.1250  176.7570  143.4210 C   0  0  0  0  0  2  0  0  0  0  0  0
  188.1440  177.3240  144.4350 C   0  0  0  0  0  2  0  0  0  0  0  0
  188.7490  177.3430  145.7550 N   0  0  0  0  0  2  0  0  0  0  0  0
  187.6740  177.5550  146.7060 C   0  0  0  0  0  2  0  0  0  0  0  0
  186.3600  177.6800  145.9610 C   0  0  0  0  0  2  0  0  0  0  0  0
  184.3030  178.7580  146.5090 O   0  0  0  0  0  1  0  0  0  0  0  0
  185.6690  178.9790  146.3290 C   0  0  0  0  0  2  0  0  0  0  0  0
  1 27  1  0  0  0  0
  2  3  1  0  0  0  0
  3  9  2  0  0  0  0
  4 10  1  0  0  0  0
  4  1  2  0  0  0  0
  5  3  1  0  0  0  0
  5  7  1  0  0  0  0
  6 12  1  6  0  0  0
  6  7  1  0  0  0  0
  6  4  1  0  0  0  0
  7  8  2  0  0  0  0
  8  1  1  0  0  0  0
 11 10  1  0  0  0  0
 13 12  1  0  0  0  0
 14 13  2  0  0  0  0
 15 20  1  0  0  0  0
 15 24  1  0  0  0  0
 16 20  2  0  0  0  0
 17 18  1  0  0  0  0
 17 16  1  0  0  0  0
 18 16  1  0  0  0  0
 18 14  1  1  0  0  0
 19 22  1  0  0  0  0
 21 17  2  0  0  0  0
 21 22  1  0  0  0  0
 22 15  2  0  0  0  0
 23 24  1  0  0  0  0
 24 25  2  0  0  0  0
 26 23  1  0  0  0  0
 27 28  1  0  0  0  0
 28 29  1  0  0  0  0
 29 30  1  0  0  0  0
 31 33  1  0  0  0  0
 31 30  1  0  0  0  0
 33 32  1  0  0  0  0
M  END
>  <MODEL>
5

>  <REMARK>
 VINA RESULT:      -6.8      4.476      7.640
  Name = 
  11 active torsions:
  status: ('A' for Active; 'I' for Inactive)
    1  A    between atoms: O_1  and  C_16
    2  A    between atoms: C_3  and  C_6
    3  A    between atoms: C_5  and  N_12
    4  A    between atoms: C_5  and  C_19
    5  A    between atoms: C_7  and  C_21
    6  A    between atoms: C_11  and  C_15
    7  A    between atoms: N_12  and  C_33
    8  A    between atoms: C_13  and  C_14
    9  A    between atoms: C_15  and  C_20
   10  A    between atoms: C_19  and  C_32
   11  A    between atoms: C_21  and  C_33
                            x       y       z     vdW  Elec       q    Type
                         _______ _______ _______ _____ _____    ______ ____

>  <TORSDO>
F 11

$$$$
=
 OpenBabel10222417583D

 33 35  0  0  1  0  0  0  0  0999 V2000
  186.9010  178.5140  141.4450 C   0  0  0  0  0  0  0  0  0  0  0  0
  191.5400  175.7770  143.6350 C   0  0  0  0  0  1  0  0  0  0  0  0
  190.2920  176.5120  143.3040 C   0  0  0  0  0  0  0  0  0  0  0  0
  187.1310  178.2800  140.1640 C   0  0  0  0  0  0  0  0  0  0  0  0
  189.9290  176.6960  141.9310 N   0  0  0  0  0  2  0  0  0  0  0  0
  188.4220  177.5350  140.0190 C   0  0  2  0  0  3  0  0  0  0  0  0
  188.7650  177.3920  141.4700 C   0  0  0  0  0  0  0  0  0  0  0  0
  187.9110  177.9500  142.2650 N   0  0  0  0  0  0  0  0  0  0  0  0
  189.5720  176.9620  144.2340 O   0  0  0  0  0  0  0  0  0  0  0  0
  186.2620  178.6560  139.1380 O   0  0  0  0  0  0  0  0  0  0  0  0
  186.1920  177.9500  137.9100 C   0  0  0  0  0  1  0  0  0  0  0  0
  189.4650  178.4120  139.3440 C   0  0  0  0  0  2  0  0  0  0  0  0
  189.8710  177.8120  138.0440 C   0  0  0  0  0  3  0  0  0  0  0  0
  190.7170  176.7850  138.0180 C   0  0  0  0  0  3  0  0  0  0  0  0
  194.4580  174.9460  136.7570 C   0  0  0  0  0  0  0  0  0  0  0  0
  192.5280  176.1810  136.6130 C   0  0  0  0  0  0  0  0  0  0  0  0
  191.7990  174.9780  136.9500 C   0  0  0  0  0  0  0  0  0  0  0  0
  191.1280  176.1840  136.7170 C   0  0  1  0  0  3  0  0  0  0  0  0
  194.3070  172.4270  137.3280 C   0  0  0  0  0  1  0  0  0  0  0  0
  193.8760  176.2520  136.4980 C   0  0  0  0  0  3  0  0  0  0  0  0
  192.2480  173.7590  137.2060 N   0  0  0  0  0  0  0  0  0  0  0  0
  193.6390  173.7420  137.1050 C   0  0  0  0  0  0  0  0  0  0  0  0
  196.7300  174.7380  137.8890 N   0  0  0  0  0  2  0  0  0  0  0  0
  195.9360  174.8520  136.7030 C   0  0  0  0  0  0  0  0  0  0  0  0
  196.5200  174.8530  135.5870 O   0  0  0  0  0  0  0  0  0  0  0  0
  196.1890  174.8960  139.1720 N   0  0  0  0  0  1  0  0  0  0  0  0
  185.6800  179.1800  141.9890 C   0  0  0  0  0  2  0  0  0  0  0  0
  184.6180  178.1490  142.3380 C   0  0  0  0  0  2  0  0  0  0  0  0
  183.5280  178.7820  143.0600 N   0  0  0  0  0  2  0  0  0  0  0  0
  184.1310  179.6190  144.0810 C   0  0  0  0  0  2  0  0  0  0  0  0
  184.3230  178.8080  145.3480 C   0  0  0  0  0  2  0  0  0  0  0  0
  185.6950  179.4110  147.2040 O   0  0  0  0  0  1  0  0  0  0  0  0
  185.7340  178.9850  145.8770 C   0  0  0  0  0  2  0  0  0  0  0  0
  1 27  1  0  0  0  0
  1  8  1  0  0  0  0
  3  2  1  0  0  0  0
  3  9  2  0  0  0  0
  4  1  2  0  0  0  0
  5  3  1  0  0  0  0
  6 12  1  6  0  0  0
  6  4  1  0  0  0  0
  6  7  1  0  0  0  0
  7  5  1  0  0  0  0
  7  8  2  0  0  0  0
 10  4  1  0  0  0  0
 11 10  1  0  0  0  0
 13 12  1  0  0  0  0
 14 13  2  0  0  0  0
 15 22  1  0  0  0  0
 16 18  1  0  0  0  0
 16 17  2  0  0  0  0
 17 21  1  0  0  0  0
 18 17  1  0  0  0  0
 18 14  1  1  0  0  0
 20 16  1  0  0  0  0
 20 15  2  0  0  0  0
 22 21  2  0  0  0  0
 22 19  1  0  0  0  0
 23 26  1  0  0  0  0
 24 15  1  0  0  0  0
 24 23  1  0  0  0  0
 25 24  2  0  0  0  0
 27 28  1  0  0  0  0
 28 29  1  0  0  0  0
 29 30  1  0  0  0  0
 30 31  1  0  0  0  0
 31 33  1  0  0  0  0
 33 32  1  0  0  0  0
M  END
>  <MODEL>
6

>  <REMARK>
 VINA RESULT:      -6.7      4.579      7.182
  Name = 
  11 active torsions:
  status: ('A' for Active; 'I' for Inactive)
    1  A    between atoms: O_1  and  C_16
    2  A    between atoms: C_3  and  C_6
    3  A    between atoms: C_5  and  N_12
    4  A    between atoms: C_5  and  C_19
    5  A    between atoms: C_7  and  C_21
    6  A    between atoms: C_11  and  C_15
    7  A    between atoms: N_12  and  C_33
    8  A    between atoms: C_13  and  C_14
    9  A    between atoms: C_15  and  C_20
   10  A    between atoms: C_19  and  C_32
   11  A    between atoms: C_21  and  C_33
                            x       y       z     vdW  Elec       q    Type
                         _______ _______ _______ _____ _____    ______ ____

>  <TORSDO>
F 11

$$$$
=
 OpenBabel10222417583D

 33 35  0  0  1  0  0  0  0  0999 V2000
  188.2720  177.8900  145.9740 C   0  0  0  0  0  0  0  0  0  0  0  0
  182.8530  178.9360  144.1460 C   0  0  0  0  0  1  0  0  0  0  0  0
  184.1440  178.6790  144.8330 C   0  0  0  0  0  0  0  0  0  0  0  0
  188.8760  177.9090  144.7970 C   0  0  0  0  0  0  0  0  0  0  0  0
  185.3350  178.5180  144.0540 N   0  0  0  0  0  2  0  0  0  0  0  0
  187.8560  178.1180  143.7200 C   0  0  2  0  0  3  0  0  0  0  0  0
  186.6400  178.2550  144.5820 C   0  0  0  0  0  0  0  0  0  0  0  0
  186.8780  178.1190  145.8460 N   0  0  0  0  0  0  0  0  0  0  0  0
  184.1740  178.6050  146.0900 O   0  0  0  0  0  0  0  0  0  0  0  0
  190.2560  177.7850  144.6310 O   0  0  0  0  0  0  0  0  0  0  0  0
  191.0750  178.8850  144.2650 C   0  0  0  0  0  1  0  0  0  0  0  0
  187.7250  176.8650  142.8670 C   0  0  0  0  0  2  0  0  0  0  0  0
  188.6580  176.9380  141.7100 C   0  0  0  0  0  3  0  0  0  0  0  0
  188.6730  178.0180  140.9320 C   0  0  0  0  0  3  0  0  0  0  0  0
  188.3430  176.4490  136.8810 C   0  0  0  0  0  0  0  0  0  0  0  0
  189.3250  177.0520  138.8670 C   0  0  0  0  0  0  0  0  0  0  0  0
  188.8820  178.4050  138.6110 C   0  0  0  0  0  0  0  0  0  0  0  0
  189.6030  178.0920  139.7690 C   0  0  1  0  0  3  0  0  0  0  0  0
  187.1720  178.2590  135.4500 C   0  0  0  0  0  1  0  0  0  0  0  0
  189.0910  176.0030  138.0430 C   0  0  0  0  0  3  0  0  0  0  0  0
  188.1950  178.8930  137.5890 N   0  0  0  0  0  0  0  0  0  0  0  0
  187.9120  177.8710  136.6850 C   0  0  0  0  0  0  0  0  0  0  0  0
  186.7060  174.7480  135.9260 N   0  0  0  0  0  2  0  0  0  0  0  0
  187.9730  175.4140  135.8880 C   0  0  0  0  0  0  0  0  0  0  0  0
  188.7800  175.1170  134.9670 O   0  0  0  0  0  0  0  0  0  0  0  0
  185.8170  174.8880  137.0000 N   0  0  0  0  0  1  0  0  0  0  0  0
  188.9650  177.7640  147.2910 C   0  0  0  0  0  2  0  0  0  0  0  0
  189.8000  176.4940  147.3390 C   0  0  0  0  0  2  0  0  0  0  0  0
  191.1840  176.8190  147.6330 N   0  0  0  0  0  2  0  0  0  0  0  0
  191.9250  175.5730  147.5980 C   0  0  0  0  0  2  0  0  0  0  0  0
  193.1660  175.7000  148.4580 C   0  0  0  0  0  2  0  0  0  0  0  0
  194.2900  177.1210  150.0110 O   0  0  0  0  0  1  0  0  0  0  0  0
  193.1450  177.0100  149.2220 C   0  0  0  0  0  2  0  0  0  0  0  0
  1 27  1  0  0  0  0
  2  3  1  0  0  0  0
  3  9  2  0  0  0  0
  4  1  2  0  0  0  0
  5  7  1  0  0  0  0
  5  3  1  0  0  0  0
  6 12  1  6  0  0  0
  6  7  1  0  0  0  0
  6  4  1  0  0  0  0
  7  8  2  0  0  0  0
  8  1  1  0  0  0  0
 10  4  1  0  0  0  0
 11 10  1  0  0  0  0
 13 12  1  0  0  0  0
 14 13  2  0  0  0  0
 15 20  1  0  0  0  0
 16 18  1  0  0  0  0
 17 16  1  0  0  0  0
 17 18  1  0  0  0  0
 18 14  1  1  0  0  0
 19 22  1  0  0  0  0
 20 16  2  0  0  0  0
 21 17  2  0  0  0  0
 22 15  2  0  0  0  0
 22 21  1  0  0  0  0
 23 26  1  0  0  0  0
 24 23  1  0  0  0  0
 24 15  1  0  0  0  0
 25 24  2  0  0  0  0
 27 28  1  0  0  0  0
 28 29  1  0  0  0  0
 30 29  1  0  0  0  0
 30 31  1  0  0  0  0
 31 33  1  0  0  0  0
 33 32  1  0  0  0  0
M  END
>  <MODEL>
7

>  <REMARK>
 VINA RESULT:      -6.7      2.879      4.664
  Name = 
  11 active torsions:
  status: ('A' for Active; 'I' for Inactive)
    1  A    between atoms: O_1  and  C_16
    2  A    between atoms: C_3  and  C_6
    3  A    between atoms: C_5  and  N_12
    4  A    between atoms: C_5  and  C_19
    5  A    between atoms: C_7  and  C_21
    6  A    between atoms: C_11  and  C_15
    7  A    between atoms: N_12  and  C_33
    8  A    between atoms: C_13  and  C_14
    9  A    between atoms: C_15  and  C_20
   10  A    between atoms: C_19  and  C_32
   11  A    between atoms: C_21  and  C_33
                            x       y       z     vdW  Elec       q    Type
                         _______ _______ _______ _____ _____    ______ ____

>  <TORSDO>
F 11

$$$$
=
 OpenBabel10222417583D

 33 35  0  0  1  0  0  0  0  0999 V2000
  187.8000  177.6560  145.1750 C   0  0  0  0  0  0  0  0  0  0  0  0
  189.1330  177.8850  139.5200 C   0  0  0  0  0  1  0  0  0  0  0  0
  189.0300  177.8190  141.0010 C   0  0  0  0  0  0  0  0  0  0  0  0
  186.4840  177.6010  145.0570 C   0  0  0  0  0  0  0  0  0  0  0  0
  187.7360  177.7900  141.6130 N   0  0  0  0  0  2  0  0  0  0  0  0
  186.1110  177.6860  143.6080 C   0  0  2  0  0  3  0  0  0  0  0  0
  187.4890  177.7390  143.0230 C   0  0  0  0  0  0  0  0  0  0  0  0
  188.4330  177.7290  143.9080 N   0  0  0  0  0  0  0  0  0  0  0  0
  190.0790  177.7920  141.6950 O   0  0  0  0  0  0  0  0  0  0  0  0
  185.6140  177.4500  146.1380 O   0  0  0  0  0  0  0  0  0  0  0  0
  185.1050  178.5600  146.8590 C   0  0  0  0  0  1  0  0  0  0  0  0
  185.3980  178.9990  143.3240 C   0  0  0  0  0  2  0  0  0  0  0  0
  184.0660  178.7320  142.7150 C   0  0  0  0  0  3  0  0  0  0  0  0
  183.9520  178.5850  141.3980 C   0  0  0  0  0  3  0  0  0  0  0  0
  182.8380  177.2500  137.4040 C   0  0  0  0  0  0  0  0  0  0  0  0
  182.7120  178.4020  139.3860 C   0  0  0  0  0  0  0  0  0  0  0  0
  182.6640  177.1230  140.0620 C   0  0  0  0  0  0  0  0  0  0  0  0
  182.6190  178.3210  140.7850 C   0  0  1  0  0  3  0  0  0  0  0  0
  182.8000  174.6630  137.4410 C   0  0  0  0  0  1  0  0  0  0  0  0
  182.8030  178.5540  138.0430 C   0  0  0  0  0  3  0  0  0  0  0  0
  182.6980  175.8990  139.5600 N   0  0  0  0  0  0  0  0  0  0  0  0
  182.7890  175.9640  138.1710 C   0  0  0  0  0  0  0  0  0  0  0  0
  184.2430  177.1170  135.2840 N   0  0  0  0  0  2  0  0  0  0  0  0
  182.9700  177.2330  135.9290 C   0  0  0  0  0  0  0  0  0  0  0  0
  181.9370  177.3040  135.2100 O   0  0  0  0  0  0  0  0  0  0  0  0
  185.4510  177.2010  135.9890 N   0  0  0  0  0  1  0  0  0  0  0  0
  188.5520  177.5380  146.4600 C   0  0  0  0  0  2  0  0  0  0  0  0
  190.0410  177.7380  146.2310 C   0  0  0  0  0  2  0  0  0  0  0  0
  190.8020  176.8910  147.1320 N   0  0  0  0  0  2  0  0  0  0  0  0
  191.7960  176.2070  146.3270 C   0  0  0  0  0  2  0  0  0  0  0  0
  191.7460  176.7380  144.9080 C   0  0  0  0  0  2  0  0  0  0  0  0
  192.3680  174.4930  144.3900 O   0  0  0  0  0  1  0  0  0  0  0  0
  191.6460  175.5900  143.9200 C   0  0  0  0  0  2  0  0  0  0  0  0
  1 27  1  0  0  0  0
  2  3  1  0  0  0  0
  3  5  1  0  0  0  0
  3  9  2  0  0  0  0
  4  1  2  0  0  0  0
  4 10  1  0  0  0  0
  5  7  1  0  0  0  0
  6 12  1  1  0  0  0
  6  4  1  0  0  0  0
  7  6  1  0  0  0  0
  7  8  2  0  0  0  0
  8  1  1  0  0  0  0
 10 11  1  0  0  0  0
 13 12  1  0  0  0  0
 14 13  2  0  0  0  0
 15 20  2  0  0  0  0
 15 22  1  0  0  0  0
 16 17  2  0  0  0  0
 16 18  1  0  0  0  0
 17 18  1  0  0  0  0
 18 14  1  1  0  0  0
 19 22  1  0  0  0  0
 20 16  1  0  0  0  0
 21 17  1  0  0  0  0
 22 21  2  0  0  0  0
 23 24  1  0  0  0  0
 23 26  1  0  0  0  0
 24 15  1  0  0  0  0
 25 24  2  0  0  0  0
 28 27  1  0  0  0  0
 28 29  1  0  0  0  0
 30 29  1  0  0  0  0
 31 30  1  0  0  0  0
 33 32  1  0  0  0  0
 33 31  1  0  0  0  0
M  END
>  <MODEL>
8

>  <REMARK>
 VINA RESULT:      -6.7      1.837      2.273
  Name = 
  11 active torsions:
  status: ('A' for Active; 'I' for Inactive)
    1  A    between atoms: O_1  and  C_16
    2  A    between atoms: C_3  and  C_6
    3  A    between atoms: C_5  and  N_12
    4  A    between atoms: C_5  and  C_19
    5  A    between atoms: C_7  and  C_21
    6  A    between atoms: C_11  and  C_15
    7  A    between atoms: N_12  and  C_33
    8  A    between atoms: C_13  and  C_14
    9  A    between atoms: C_15  and  C_20
   10  A    between atoms: C_19  and  C_32
   11  A    between atoms: C_21  and  C_33
                            x       y       z     vdW  Elec       q    Type
                         _______ _______ _______ _____ _____    ______ ____

>  <TORSDO>
F 11

$$$$
=
 OpenBabel10222417583D

 33 35  0  0  1  0  0  0  0  0999 V2000
  190.4240  176.8750  143.2000 C   0  0  0  0  0  0  0  0  0  0  0  0
  184.8220  178.3860  142.8260 C   0  0  0  0  0  1  0  0  0  0  0  0
  186.2000  177.9300  143.1440 C   0  0  0  0  0  0  0  0  0  0  0  0
  190.8190  177.3180  142.0180 C   0  0  0  0  0  0  0  0  0  0  0  0
  187.2320  178.0770  142.1630 N   0  0  0  0  0  2  0  0  0  0  0  0
  189.6410  177.8710  141.2760 C   0  0  2  0  0  3  0  0  0  0  0  0
  188.5960  177.6720  142.3300 C   0  0  0  0  0  0  0  0  0  0  0  0
  189.0400  177.1060  143.4050 N   0  0  0  0  0  0  0  0  0  0  0  0
  186.4400  177.4220  144.2710 O   0  0  0  0  0  0  0  0  0  0  0  0
  192.1450  177.2880  141.5810 O   0  0  0  0  0  0  0  0  0  0  0  0
  192.4980  177.5030  140.2240 C   0  0  0  0  0  1  0  0  0  0  0  0
  189.3130  176.9940  140.0770 C   0  0  0  0  0  2  0  0  0  0  0  0
  188.3210  177.6770  139.2040 C   0  0  0  0  0  3  0  0  0  0  0  0
  187.9500  177.1220  138.0530 C   0  0  0  0  0  3  0  0  0  0  0  0
  183.5950  177.1130  138.0800 C   0  0  0  0  0  0  0  0  0  0  0  0
  185.7270  177.1350  137.2300 C   0  0  0  0  0  0  0  0  0  0  0  0
  185.9450  178.3660  137.9590 C   0  0  0  0  0  0  0  0  0  0  0  0
  186.9600  177.8060  137.1740 C   0  0  1  0  0  3  0  0  0  0  0  0
  182.8310  179.0380  139.6310 C   0  0  0  0  0  1  0  0  0  0  0  0
  184.5670  176.4360  137.2400 C   0  0  0  0  0  3  0  0  0  0  0  0
  185.1210  179.0410  138.7460 N   0  0  0  0  0  0  0  0  0  0  0  0
  183.8930  178.3860  138.8100 C   0  0  0  0  0  0  0  0  0  0  0  0
  181.1900  176.7330  137.3300 N   0  0  0  0  0  2  0  0  0  0  0  0
  182.2720  176.4610  138.2270 C   0  0  0  0  0  0  0  0  0  0  0  0
  182.0880  175.6270  139.1540 O   0  0  0  0  0  0  0  0  0  0  0  0
  181.2450  177.7610  136.3800 N   0  0  0  0  0  1  0  0  0  0  0  0
  191.3250  176.3100  144.2480 C   0  0  0  0  0  2  0  0  0  0  0  0
  191.5170  177.3040  145.3830 C   0  0  0  0  0  2  0  0  0  0  0  0
  191.7030  176.5970  146.6380 N   0  0  0  0  0  2  0  0  0  0  0  0
  190.7220  177.1240  147.5660 C   0  0  0  0  0  2  0  0  0  0  0  0
  189.3280  176.8230  147.0510 C   0  0  0  0  0  2  0  0  0  0  0  0
  187.9380  177.5550  148.8480 O   0  0  0  0  0  1  0  0  0  0  0  0
  188.3460  177.8660  147.5500 C   0  0  0  0  0  2  0  0  0  0  0  0
  1  8  1  0  0  0  0
  1 27  1  0  0  0  0
  2  3  1  0  0  0  0
  3  9  2  0  0  0  0
  4  1  2  0  0  0  0
  5  7  1  0  0  0  0
  5  3  1  0  0  0  0
  6 12  1  6  0  0  0
  6  4  1  0  0  0  0
  6  7  1  0  0  0  0
  7  8  2  0  0  0  0
 10  4  1  0  0  0  0
 11 10  1  0  0  0  0
 13 12  1  0  0  0  0
 14 13  2  0  0  0  0
 15 24  1  0  0  0  0
 15 22  1  0  0  0  0
 16 20  1  0  0  0  0
 16 17  2  0  0  0  0
 17 21  1  0  0  0  0
 18 16  1  0  0  0  0
 18 17  1  0  0  0  0
 18 14  1  1  0  0  0
 20 15  2  0  0  0  0
 21 22  2  0  0  0  0
 22 19  1  0  0  0  0
 23 24  1  0  0  0  0
 24 25  2  0  0  0  0
 26 23  1  0  0  0  0
 27 28  1  0  0  0  0
 28 29  1  0  0  0  0
 29 30  1  0  0  0  0
 31 33  1  0  0  0  0
 31 30  1  0  0  0  0
 33 32  1  0  0  0  0
M  END
>  <MODEL>
9

>  <REMARK>
 VINA RESULT:      -6.5      2.438      4.708
  Name = 
  11 active torsions:
  status: ('A' for Active; 'I' for Inactive)
    1  A    between atoms: O_1  and  C_16
    2  A    between atoms: C_3  and  C_6
    3  A    between atoms: C_5  and  N_12
    4  A    between atoms: C_5  and  C_19
    5  A    between atoms: C_7  and  C_21
    6  A    between atoms: C_11  and  C_15
    7  A    between atoms: N_12  and  C_33
    8  A    between atoms: C_13  and  C_14
    9  A    between atoms: C_15  and  C_20
   10  A    between atoms: C_19  and  C_32
   11  A    between atoms: C_21  and  C_33
                            x       y       z     vdW  Elec       q    Type
                         _______ _______ _______ _____ _____    ______ ____

>  <TORSDO>
F 11

$$$$
