=
 OpenBabel10222419583D

 36 40  0  0  1  0  0  0  0  0999 V2000
  185.9690  178.3760  147.2790 C   0  0  0  0  0  2  0  0  0  0  0  0
  189.5980  177.7400  146.6630 C   0  0  0  0  0  0  0  0  0  0  0  0
  187.4210  178.1570  145.4010 C   0  0  2  0  0  3  0  0  0  0  0  0
  187.6320  177.2740  144.1720 C   0  0  0  0  0  2  0  0  0  0  0  0
  185.6210  178.7230  143.4140 C   0  0  1  0  0  3  0  0  0  0  0  0
  187.3200  177.8500  147.7670 C   0  0  0  0  0  2  0  0  0  0  0  0
  188.1650  177.7670  146.5820 N   0  0  0  0  0  0  0  0  0  0  0  0
  190.1610  177.4540  147.7520 O   0  0  0  0  0  0  0  0  0  0  0  0
  185.9830  178.0230  145.8110 C   0  0  2  0  0  3  0  0  0  0  0  0
  185.1000  178.8350  144.8700 C   0  0  0  0  0  2  0  0  0  0  0  0
  186.4910  177.4670  143.1440 C   0  0  0  0  0  2  0  0  0  0  0  0
  180.1420  178.7780  140.9550 N   0  0  0  0  0  1  0  0  0  0  0  0
  183.2050  178.8280  142.6760 C   0  0  0  0  0  0  0  0  0  0  0  0
  184.6120  178.8120  141.0930 C   0  0  0  0  0  0  0  0  0  0  0  0
  181.1250  178.7890  143.2800 C   0  0  0  0  0  0  0  0  0  0  0  0
  184.5270  178.8160  142.4540 N   0  0  0  0  0  0  0  0  0  0  0  0
  183.3330  178.8180  140.5110 C   0  0  0  0  0  3  0  0  0  0  0  0
  182.5070  178.8370  141.5700 N   0  0  0  0  0  0  0  0  0  0  0  0
  182.4260  178.7920  143.8230 C   0  0  0  0  0  3  0  0  0  0  0  0
  181.2160  178.8150  141.8900 C   0  0  0  0  0  0  0  0  0  0  0  0
  178.9310  178.7050  144.6610 N   0  0  0  0  0  0  0  0  0  0  0  0
  179.9100  178.7430  144.0440 C   0  0  0  0  0  0  0  0  0  0  0  0
  185.8920  178.7370  140.3310 C   0  0  0  0  0  2  0  0  0  0  0  0
  185.6190  178.2910  138.9060 C   0  0  0  0  0  2  0  0  0  0  0  0
  186.6870  178.7490  138.0340 N   0  0  0  0  0  2  0  0  0  0  0  0
  187.6220  177.6450  137.8880 C   0  0  0  0  0  2  0  0  0  0  0  0
  189.0470  178.1540  137.9980 C   0  0  1  0  0  3  0  0  0  0  0  0
  189.0640  179.5310  137.7870 O   0  0  0  0  0  1  0  0  0  0  0  0
  189.6040  177.8520  139.3770 C   0  0  0  0  0  1  0  0  0  0  0  0
  190.4450  178.0850  145.4790 C   0  0  0  0  0  2  0  0  0  0  0  0
  191.3990  177.0170  145.2110 N   0  0  0  0  0  0  0  0  0  0  0  0
  191.0910  177.0650  142.6780 C   0  0  0  0  0  1  0  0  0  0  0  0
  192.2210  174.6270  145.2540 C   0  0  0  0  0  2  0  0  0  0  0  0
  191.9130  175.1710  143.9400 N   0  0  0  0  0  0  0  0  0  0  0  0
  191.4800  176.3840  143.9450 C   0  0  0  0  0  0  0  0  0  0  0  0
  191.9860  175.9560  146.4900 S   0  0  0  0  0  0  0  0  0  0  0  0
  1  6  1  0  0  0  0
  2  8  2  0  0  0  0
  3  4  1  6  0  0  0
  3  9  1  0  0  0  0
  3  7  1  0  0  0  0
  5 16  1  6  0  0  0
  5 10  1  0  0  0  0
  7  2  1  0  0  0  0
  7  6  1  0  0  0  0
  9 10  1  6  0  0  0
  9  1  1  0  0  0  0
 11  5  1  0  0  0  0
 11  4  1  0  0  0  0
 12 20  1  0  0  0  0
 13 19  2  0  0  0  0
 14 16  1  0  0  0  0
 15 19  1  0  0  0  0
 15 22  1  0  0  0  0
 16 13  1  0  0  0  0
 17 14  2  0  0  0  0
 17 18  1  0  0  0  0
 18 20  1  0  0  0  0
 18 13  1  0  0  0  0
 20 15  2  0  0  0  0
 22 21  3  0  0  0  0
 23 14  1  0  0  0  0
 24 23  1  0  0  0  0
 25 24  1  0  0  0  0
 26 27  1  0  0  0  0
 26 25  1  0  0  0  0
 27 29  1  1  0  0  0
 28 27  1  0  0  0  0
 30  2  1  0  0  0  0
 31 30  1  0  0  0  0
 31 36  1  0  0  0  0
 32 35  1  0  0  0  0
 33 36  1  0  0  0  0
 34 35  2  0  0  0  0
 34 33  1  0  0  0  0
 35 31  1  0  0  0  0
M  END
>  <MODEL>
1

>  <REMARK>
 VINA RESULT:      -9.0      0.000      0.000
  Name = 
  9 active torsions:
  status: ('A' for Active; 'I' for Inactive)
    1  A    between atoms: N_1  and  C_4
    2  A    between atoms: N_1  and  C_25
    3  A    between atoms: N_2  and  C_5
    4  A    between atoms: C_4  and  C_28
    5  A    between atoms: C_5  and  C_6
    6  A    between atoms: C_10  and  C_14
    7  A    between atoms: C_10  and  C_25
    8  A    between atoms: C_15  and  N_18
    9  A    between atoms: C_16  and  C_34
                            x       y       z     vdW  Elec       q    Type
                         _______ _______ _______ _____ _____    ______ ____

>  <TORSDO>
F 9

$$$$
=
 OpenBabel10222419583D

 36 40  0  0  1  0  0  0  0  0999 V2000
  183.7950  178.3420  143.6310 C   0  0  0  0  0  2  0  0  0  0  0  0
  183.1950  179.0040  140.0050 C   0  0  0  0  0  0  0  0  0  0  0  0
  185.0520  178.3030  141.6070 C   0  0  2  0  0  3  0  0  0  0  0  0
  186.2570  178.9780  140.9550 C   0  0  0  0  0  2  0  0  0  0  0  0
  187.4190  177.3510  142.6040 C   0  0  1  0  0  3  0  0  0  0  0  0
  182.9590  178.9920  142.5280 C   0  0  0  0  0  2  0  0  0  0  0  0
  183.7680  178.9100  141.3170 N   0  0  0  0  0  0  0  0  0  0  0  0
  182.0410  179.4860  139.8540 O   0  0  0  0  0  0  0  0  0  0  0  0
  185.2020  178.4490  143.0930 C   0  0  2  0  0  3  0  0  0  0  0  0
  186.2420  177.4610  143.6060 C   0  0  0  0  0  2  0  0  0  0  0  0
  187.5740  178.5760  141.6650 C   0  0  0  0  0  2  0  0  0  0  0  0
  191.7090  176.9840  146.7910 N   0  0  0  0  0  1  0  0  0  0  0  0
  188.9830  177.2150  144.5850 C   0  0  0  0  0  0  0  0  0  0  0  0
  189.8500  176.6520  142.7370 C   0  0  0  0  0  0  0  0  0  0  0  0
  189.2600  177.5900  146.7010 C   0  0  0  0  0  0  0  0  0  0  0  0
  188.6730  177.0590  143.2900 N   0  0  0  0  0  0  0  0  0  0  0  0
  190.8600  176.5700  143.7110 C   0  0  0  0  0  3  0  0  0  0  0  0
  190.2340  176.9310  144.8430 N   0  0  0  0  0  0  0  0  0  0  0  0
  188.2740  177.6500  145.6950 C   0  0  0  0  0  3  0  0  0  0  0  0
  190.4540  177.1440  146.1370 C   0  0  0  0  0  0  0  0  0  0  0  0
  188.9020  178.2480  149.1850 N   0  0  0  0  0  0  0  0  0  0  0  0
  189.0620  177.9540  148.0760 C   0  0  0  0  0  0  0  0  0  0  0  0
  190.0510  176.3990  141.2810 C   0  0  0  0  0  2  0  0  0  0  0  0
  191.1500  177.2990  140.7470 C   0  0  0  0  0  2  0  0  0  0  0  0
  190.8920  177.6180  139.3540 N   0  0  0  0  0  2  0  0  0  0  0  0
  189.6410  176.9710  138.9920 C   0  0  0  0  0  2  0  0  0  0  0  0
  188.7880  177.9140  138.1640 C   0  0  1  0  0  3  0  0  0  0  0  0
  189.0330  179.2270  138.5610 O   0  0  0  0  0  1  0  0  0  0  0  0
  189.1250  177.7650  136.6920 C   0  0  0  0  0  1  0  0  0  0  0  0
  183.9300  178.5000  138.8030 C   0  0  0  0  0  2  0  0  0  0  0  0
  183.7220  177.0660  138.6460 N   0  0  0  0  0  0  0  0  0  0  0  0
  185.3680  176.8030  136.7150 C   0  0  0  0  0  1  0  0  0  0  0  0
  182.3890  175.0060  138.0370 C   0  0  0  0  0  2  0  0  0  0  0  0
  183.5370  175.2970  137.1900 N   0  0  0  0  0  0  0  0  0  0  0  0
  184.1900  176.3590  137.5100 C   0  0  0  0  0  0  0  0  0  0  0  0
  182.3490  176.2440  139.3850 S   0  0  0  0  0  0  0  0  0  0  0  0
  2  7  1  0  0  0  0
  3  4  1  6  0  0  0
  3  9  1  0  0  0  0
  4 11  1  0  0  0  0
  5 11  1  1  0  0  0
  5 16  1  0  0  0  0
  5 10  1  0  0  0  0
  6  1  1  0  0  0  0
  7  3  1  0  0  0  0
  7  6  1  0  0  0  0
  8  2  2  0  0  0  0
  9 10  1  1  0  0  0
  9  1  1  0  0  0  0
 13 18  1  0  0  0  0
 13 19  2  0  0  0  0
 14 16  1  0  0  0  0
 14 17  2  0  0  0  0
 15 22  1  0  0  0  0
 16 13  1  0  0  0  0
 17 18  1  0  0  0  0
 18 20  1  0  0  0  0
 19 15  1  0  0  0  0
 20 15  2  0  0  0  0
 20 12  1  0  0  0  0
 22 21  3  0  0  0  0
 23 14  1  0  0  0  0
 24 23  1  0  0  0  0
 25 24  1  0  0  0  0
 26 25  1  0  0  0  0
 27 29  1  6  0  0  0
 27 28  1  0  0  0  0
 27 26  1  0  0  0  0
 30  2  1  0  0  0  0
 31 30  1  0  0  0  0
 31 36  1  0  0  0  0
 32 35  1  0  0  0  0
 33 36  1  0  0  0  0
 34 35  2  0  0  0  0
 34 33  1  0  0  0  0
 35 31  1  0  0  0  0
M  END
>  <MODEL>
2

>  <REMARK>
 VINA RESULT:      -8.7      3.230      7.644
  Name = 
  9 active torsions:
  status: ('A' for Active; 'I' for Inactive)
    1  A    between atoms: N_1  and  C_4
    2  A    between atoms: N_1  and  C_25
    3  A    between atoms: N_2  and  C_5
    4  A    between atoms: C_4  and  C_28
    5  A    between atoms: C_5  and  C_6
    6  A    between atoms: C_10  and  C_14
    7  A    between atoms: C_10  and  C_25
    8  A    between atoms: C_15  and  N_18
    9  A    between atoms: C_16  and  C_34
                            x       y       z     vdW  Elec       q    Type
                         _______ _______ _______ _____ _____    ______ ____

>  <TORSDO>
F 9

$$$$
=
 OpenBabel10222419583D

 36 40  0  0  1  0  0  0  0  0999 V2000
  184.7550  178.5000  145.2100 C   0  0  0  0  0  2  0  0  0  0  0  0
  182.0170  178.8480  142.6940 C   0  0  0  0  0  0  0  0  0  0  0  0
  184.5340  178.4580  142.8370 C   0  0  2  0  0  3  0  0  0  0  0  0
  185.0080  179.2120  141.5960 C   0  0  0  0  0  2  0  0  0  0  0  0
  187.1210  177.8320  142.1880 C   0  0  1  0  0  3  0  0  0  0  0  0
  183.3510  178.9820  144.8450 C   0  0  0  0  0  2  0  0  0  0  0  0
  183.2710  178.9050  143.3910 N   0  0  0  0  0  0  0  0  0  0  0  0
  180.9560  179.1930  143.2780 O   0  0  0  0  0  0  0  0  0  0  0  0
  185.5280  178.7190  143.9310 C   0  0  2  0  0  3  0  0  0  0  0  0
  186.7820  177.8840  143.6990 C   0  0  0  0  0  2  0  0  0  0  0  0
  186.5240  179.0010  141.3600 C   0  0  0  0  0  2  0  0  0  0  0  0
  192.4810  176.9130  139.6410 N   0  0  0  0  0  1  0  0  0  0  0  0
  189.2300  177.5120  140.8310 C   0  0  0  0  0  0  0  0  0  0  0  0
  189.5440  177.7130  142.9160 C   0  0  0  0  0  0  0  0  0  0  0  0
  190.0840  177.1260  138.8790 C   0  0  0  0  0  0  0  0  0  0  0  0
  188.5590  177.7230  141.9730 N   0  0  0  0  0  0  0  0  0  0  0  0
  190.8000  177.4920  142.3270 C   0  0  0  0  0  3  0  0  0  0  0  0
  190.5190  177.3840  141.0190 N   0  0  0  0  0  0  0  0  0  0  0  0
  188.8450  177.3590  139.5080 C   0  0  0  0  0  3  0  0  0  0  0  0
  191.0910  177.1470  139.8420 C   0  0  0  0  0  0  0  0  0  0  0  0
  190.4130  176.6880  136.3430 N   0  0  0  0  0  0  0  0  0  0  0  0
  190.2670  176.8830  137.4740 C   0  0  0  0  0  0  0  0  0  0  0  0
  189.3040  177.8480  144.3820 C   0  0  0  0  0  2  0  0  0  0  0  0
  190.6140  177.6970  145.1350 C   0  0  0  0  0  2  0  0  0  0  0  0
  190.3620  177.1330  146.4500 N   0  0  0  0  0  2  0  0  0  0  0  0
  188.9210  177.0110  146.5940 C   0  0  0  0  0  2  0  0  0  0  0  0
  188.4960  177.4710  147.9770 C   0  0  1  0  0  3  0  0  0  0  0  0
  189.5250  178.2140  148.5530 O   0  0  0  0  0  1  0  0  0  0  0  0
  187.2500  178.3320  147.8810 C   0  0  0  0  0  1  0  0  0  0  0  0
  181.9370  178.3450  141.2870 C   0  0  0  0  0  2  0  0  0  0  0  0
  180.6940  178.7790  140.6640 N   0  0  0  0  0  0  0  0  0  0  0  0
  179.5070  176.5360  140.9280 C   0  0  0  0  0  1  0  0  0  0  0  0
  179.2510  179.5270  138.7280 C   0  0  0  0  0  2  0  0  0  0  0  0
  178.9320  178.2250  139.2950 N   0  0  0  0  0  0  0  0  0  0  0  0
  179.6900  177.8590  140.2690 C   0  0  0  0  0  0  0  0  0  0  0  0
  180.6020  180.2640  139.7190 S   0  0  0  0  0  0  0  0  0  0  0  0
  2  8  2  0  0  0  0
  2  7  1  0  0  0  0
  3  4  1  6  0  0  0
  3  7  1  0  0  0  0
  3  9  1  0  0  0  0
  5 11  1  6  0  0  0
  5 10  1  0  0  0  0
  6  1  1  0  0  0  0
  7  6  1  0  0  0  0
  9 10  1  6  0  0  0
  9  1  1  0  0  0  0
 11  4  1  0  0  0  0
 12 20  1  0  0  0  0
 13 18  1  0  0  0  0
 13 16  1  0  0  0  0
 14 23  1  0  0  0  0
 15 19  1  0  0  0  0
 15 20  2  0  0  0  0
 16  5  1  0  0  0  0
 16 14  1  0  0  0  0
 17 14  2  0  0  0  0
 18 17  1  0  0  0  0
 19 13  2  0  0  0  0
 20 18  1  0  0  0  0
 21 22  3  0  0  0  0
 22 15  1  0  0  0  0
 23 24  1  0  0  0  0
 24 25  1  0  0  0  0
 25 26  1  0  0  0  0
 26 27  1  0  0  0  0
 27 29  1  6  0  0  0
 27 28  1  0  0  0  0
 30  2  1  0  0  0  0
 31 30  1  0  0  0  0
 33 34  1  0  0  0  0
 33 36  1  0  0  0  0
 34 35  2  0  0  0  0
 35 31  1  0  0  0  0
 35 32  1  0  0  0  0
 36 31  1  0  0  0  0
M  END
>  <MODEL>
3

>  <REMARK>
 VINA RESULT:      -8.7      3.483      9.135
  Name = 
  9 active torsions:
  status: ('A' for Active; 'I' for Inactive)
    1  A    between atoms: N_1  and  C_4
    2  A    between atoms: N_1  and  C_25
    3  A    between atoms: N_2  and  C_5
    4  A    between atoms: C_4  and  C_28
    5  A    between atoms: C_5  and  C_6
    6  A    between atoms: C_10  and  C_14
    7  A    between atoms: C_10  and  C_25
    8  A    between atoms: C_15  and  N_18
    9  A    between atoms: C_16  and  C_34
                            x       y       z     vdW  Elec       q    Type
                         _______ _______ _______ _____ _____    ______ ____

>  <TORSDO>
F 9

$$$$
=
 OpenBabel10222419583D

 36 40  0  0  1  0  0  0  0  0999 V2000
  188.2600  178.5880  138.4350 C   0  0  0  0  0  2  0  0  0  0  0  0
  191.0290  176.3510  137.3050 C   0  0  0  0  0  0  0  0  0  0  0  0
  189.7700  177.0260  139.4180 C   0  0  2  0  0  3  0  0  0  0  0  0
  190.8940  176.9630  140.4500 C   0  0  0  0  0  2  0  0  0  0  0  0
  188.8060  177.0710  141.9820 C   0  0  1  0  0  3  0  0  0  0  0  0
  189.3250  178.2230  137.3990 C   0  0  0  0  0  2  0  0  0  0  0  0
  190.1940  177.2490  138.0490 N   0  0  0  0  0  0  0  0  0  0  0  0
  191.2920  176.5900  136.0970 O   0  0  0  0  0  0  0  0  0  0  0  0
  188.9260  178.2240  139.7410 C   0  0  2  0  0  3  0  0  0  0  0  0
  188.0340  177.9190  140.9390 C   0  0  0  0  0  2  0  0  0  0  0  0
  190.3490  177.1900  141.8820 C   0  0  0  0  0  2  0  0  0  0  0  0
  188.5310  177.5060  147.9650 N   0  0  0  0  0  1  0  0  0  0  0  0
  189.0170  177.2540  144.4940 C   0  0  0  0  0  0  0  0  0  0  0  0
  187.0900  177.6980  143.7360 C   0  0  0  0  0  0  0  0  0  0  0  0
  190.2840  176.9740  146.2290 C   0  0  0  0  0  0  0  0  0  0  0  0
  188.3480  177.3560  143.3370 N   0  0  0  0  0  0  0  0  0  0  0  0
  187.0180  177.7950  145.1360 C   0  0  0  0  0  3  0  0  0  0  0  0
  188.2680  177.5100  145.5360 N   0  0  0  0  0  0  0  0  0  0  0  0
  190.3170  176.8960  144.8220 C   0  0  0  0  0  3  0  0  0  0  0  0
  189.0050  177.3530  146.6310 C   0  0  0  0  0  0  0  0  0  0  0  0
  192.2810  176.4500  147.8000 N   0  0  0  0  0  0  0  0  0  0  0  0
  191.3900  176.6830  147.0990 C   0  0  0  0  0  0  0  0  0  0  0  0
  185.9340  177.8740  142.8110 C   0  0  0  0  0  2  0  0  0  0  0  0
  184.8030  178.5890  143.5280 C   0  0  0  0  0  2  0  0  0  0  0  0
  183.7370  178.8910  142.5880 N   0  0  0  0  0  2  0  0  0  0  0  0
  183.9700  178.0800  141.4040 C   0  0  0  0  0  2  0  0  0  0  0  0
  183.7430  178.9100  140.1530 C   0  0  1  0  0  3  0  0  0  0  0  0
  184.8310  179.7580  139.9580 O   0  0  0  0  0  1  0  0  0  0  0  0
  183.5920  178.0040  138.9460 C   0  0  0  0  0  1  0  0  0  0  0  0
  191.5690  175.1020  137.9280 C   0  0  0  0  0  2  0  0  0  0  0  0
  191.0970  173.9290  137.2040 N   0  0  0  0  0  0  0  0  0  0  0  0
  193.4020  173.2360  136.3590 C   0  0  0  0  0  1  0  0  0  0  0  0
  189.8530  172.7370  135.3540 C   0  0  0  0  0  2  0  0  0  0  0  0
  191.3030  172.6130  135.3310 N   0  0  0  0  0  0  0  0  0  0  0  0
  191.9150  173.2420  136.2720 C   0  0  0  0  0  0  0  0  0  0  0  0
  189.3880  173.6880  136.8480 S   0  0  0  0  0  0  0  0  0  0  0  0
  2 30  1  0  0  0  0
  2  7  1  0  0  0  0
  3  9  1  0  0  0  0
  3  4  1  1  0  0  0
  4 11  1  0  0  0  0
  5 10  1  6  0  0  0
  5 16  1  0  0  0  0
  6  7  1  0  0  0  0
  6  1  1  0  0  0  0
  7  3  1  0  0  0  0
  8  2  2  0  0  0  0
  9  1  1  6  0  0  0
  9 10  1  0  0  0  0
 11  5  1  0  0  0  0
 13 19  2  0  0  0  0
 13 18  1  0  0  0  0
 14 17  2  0  0  0  0
 15 20  2  0  0  0  0
 15 22  1  0  0  0  0
 16 14  1  0  0  0  0
 16 13  1  0  0  0  0
 17 18  1  0  0  0  0
 18 20  1  0  0  0  0
 19 15  1  0  0  0  0
 20 12  1  0  0  0  0
 22 21  3  0  0  0  0
 23 24  1  0  0  0  0
 23 14  1  0  0  0  0
 25 24  1  0  0  0  0
 26 25  1  0  0  0  0
 27 29  1  6  0  0  0
 27 26  1  0  0  0  0
 28 27  1  0  0  0  0
 31 30  1  0  0  0  0
 33 36  1  0  0  0  0
 34 33  1  0  0  0  0
 34 35  2  0  0  0  0
 35 32  1  0  0  0  0
 35 31  1  0  0  0  0
 36 31  1  0  0  0  0
M  END
>  <MODEL>
4

>  <REMARK>
 VINA RESULT:      -8.6      3.585      7.952
  Name = 
  9 active torsions:
  status: ('A' for Active; 'I' for Inactive)
    1  A    between atoms: N_1  and  C_4
    2  A    between atoms: N_1  and  C_25
    3  A    between atoms: N_2  and  C_5
    4  A    between atoms: C_4  and  C_28
    5  A    between atoms: C_5  and  C_6
    6  A    between atoms: C_10  and  C_14
    7  A    between atoms: C_10  and  C_25
    8  A    between atoms: C_15  and  N_18
    9  A    between atoms: C_16  and  C_34
                            x       y       z     vdW  Elec       q    Type
                         _______ _______ _______ _____ _____    ______ ____

>  <TORSDO>
F 9

$$$$
=
 OpenBabel10222419583D

 36 40  0  0  1  0  0  0  0  0999 V2000
  188.2780  178.6220  138.5830 C   0  0  0  0  0  2  0  0  0  0  0  0
  190.8930  176.2580  137.3460 C   0  0  0  0  0  0  0  0  0  0  0  0
  189.7530  176.9910  139.5070 C   0  0  2  0  0  3  0  0  0  0  0  0
  190.9130  176.8760  140.4930 C   0  0  0  0  0  2  0  0  0  0  0  0
  188.8970  177.0800  142.1080 C   0  0  1  0  0  3  0  0  0  0  0  0
  189.2820  178.2080  137.5060 C   0  0  0  0  0  2  0  0  0  0  0  0
  190.1310  177.1950  138.1220 N   0  0  0  0  0  0  0  0  0  0  0  0
  191.1170  176.4860  136.1280 O   0  0  0  0  0  0  0  0  0  0  0  0
  188.9790  178.2270  139.8620 C   0  0  2  0  0  3  0  0  0  0  0  0
  188.1230  177.9630  141.0950 C   0  0  0  0  0  2  0  0  0  0  0  0
  190.4380  177.1270  141.9450 C   0  0  0  0  0  2  0  0  0  0  0  0
  188.8630  177.4860  148.0990 N   0  0  0  0  0  1  0  0  0  0  0  0
  189.2080  177.2290  144.6120 C   0  0  0  0  0  0  0  0  0  0  0  0
  187.2910  177.8110  143.9250 C   0  0  0  0  0  0  0  0  0  0  0  0
  190.5130  176.8480  146.2990 C   0  0  0  0  0  0  0  0  0  0  0  0
  188.5080  177.3860  143.4800 N   0  0  0  0  0  0  0  0  0  0  0  0
  187.2750  177.9020  145.3280 C   0  0  0  0  0  3  0  0  0  0  0  0
  188.5150  177.5280  145.6800 N   0  0  0  0  0  0  0  0  0  0  0  0
  190.4900  176.7790  144.8910 C   0  0  0  0  0  3  0  0  0  0  0  0
  189.2780  177.3120  146.7480 C   0  0  0  0  0  0  0  0  0  0  0  0
  192.5220  176.1740  147.7960 N   0  0  0  0  0  0  0  0  0  0  0  0
  191.6250  176.4750  147.1270 C   0  0  0  0  0  0  0  0  0  0  0  0
  186.1180  178.0730  143.0430 C   0  0  0  0  0  2  0  0  0  0  0  0
  184.8780  178.3030  143.8880 C   0  0  0  0  0  2  0  0  0  0  0  0
  183.7570  178.6510  143.0310 N   0  0  0  0  0  2  0  0  0  0  0  0
  182.6290  178.9430  143.9020 C   0  0  0  0  0  2  0  0  0  0  0  0
  181.3760  179.1580  143.0730 C   0  0  1  0  0  3  0  0  0  0  0  0
  181.5360  178.5530  141.8280 O   0  0  0  0  0  1  0  0  0  0  0  0
  180.1760  178.5490  143.7750 C   0  0  0  0  0  1  0  0  0  0  0  0
  191.4000  174.9860  137.9490 C   0  0  0  0  0  2  0  0  0  0  0  0
  192.5930  174.5330  137.2460 N   0  0  0  0  0  0  0  0  0  0  0  0
  191.3610  172.8760  135.7460 C   0  0  0  0  0  1  0  0  0  0  0  0
  194.8140  173.3420  137.0540 C   0  0  0  0  0  2  0  0  0  0  0  0
  193.7120  172.7600  136.3020 N   0  0  0  0  0  0  0  0  0  0  0  0
  192.5880  173.3740  136.4290 C   0  0  0  0  0  0  0  0  0  0  0  0
  194.2110  174.8740  137.8540 S   0  0  0  0  0  0  0  0  0  0  0  0
  2 30  1  0  0  0  0
  2  7  1  0  0  0  0
  3  9  1  0  0  0  0
  3  4  1  1  0  0  0
  4 11  1  0  0  0  0
  5 10  1  6  0  0  0
  5 16  1  0  0  0  0
  6  7  1  0  0  0  0
  6  1  1  0  0  0  0
  7  3  1  0  0  0  0
  8  2  2  0  0  0  0
  9  1  1  6  0  0  0
  9 10  1  0  0  0  0
 11  5  1  0  0  0  0
 13 19  2  0  0  0  0
 13 18  1  0  0  0  0
 14 17  2  0  0  0  0
 15 20  2  0  0  0  0
 15 22  1  0  0  0  0
 16 14  1  0  0  0  0
 16 13  1  0  0  0  0
 17 18  1  0  0  0  0
 18 20  1  0  0  0  0
 19 15  1  0  0  0  0
 20 12  1  0  0  0  0
 22 21  3  0  0  0  0
 23 24  1  0  0  0  0
 23 14  1  0  0  0  0
 25 24  1  0  0  0  0
 25 26  1  0  0  0  0
 27 29  1  1  0  0  0
 27 26  1  0  0  0  0
 28 27  1  0  0  0  0
 31 36  1  0  0  0  0
 31 30  1  0  0  0  0
 32 35  1  0  0  0  0
 33 36  1  0  0  0  0
 34 35  2  0  0  0  0
 34 33  1  0  0  0  0
 35 31  1  0  0  0  0
M  END
>  <MODEL>
5

>  <REMARK>
 VINA RESULT:      -8.4      3.744      8.280
  Name = 
  9 active torsions:
  status: ('A' for Active; 'I' for Inactive)
    1  A    between atoms: N_1  and  C_4
    2  A    between atoms: N_1  and  C_25
    3  A    between atoms: N_2  and  C_5
    4  A    between atoms: C_4  and  C_28
    5  A    between atoms: C_5  and  C_6
    6  A    between atoms: C_10  and  C_14
    7  A    between atoms: C_10  and  C_25
    8  A    between atoms: C_15  and  N_18
    9  A    between atoms: C_16  and  C_34
                            x       y       z     vdW  Elec       q    Type
                         _______ _______ _______ _____ _____    ______ ____

>  <TORSDO>
F 9

$$$$
=
 OpenBabel10222419583D

 36 40  0  0  1  0  0  0  0  0999 V2000
  183.3180  178.7270  144.4350 C   0  0  0  0  0  2  0  0  0  0  0  0
  181.9220  178.8930  140.9750 C   0  0  0  0  0  0  0  0  0  0  0  0
  184.1040  178.4170  142.2060 C   0  0  2  0  0  3  0  0  0  0  0  0
  185.1170  179.0000  141.2220 C   0  0  0  0  0  2  0  0  0  0  0  0
  186.6600  177.6110  142.7740 C   0  0  1  0  0  3  0  0  0  0  0  0
  182.2420  179.2210  143.4670 C   0  0  0  0  0  2  0  0  0  0  0  0
  182.7700  178.9780  142.1290 N   0  0  0  0  0  0  0  0  0  0  0  0
  180.7490  179.3490  141.0200 O   0  0  0  0  0  0  0  0  0  0  0  0
  184.5690  178.7620  143.5910 C   0  0  2  0  0  3  0  0  0  0  0  0
  185.7270  177.8540  143.9880 C   0  0  0  0  0  2  0  0  0  0  0  0
  186.5680  178.6980  141.6720 C   0  0  0  0  0  2  0  0  0  0  0  0
  191.6610  177.4250  146.0950 N   0  0  0  0  0  1  0  0  0  0  0  0
  188.5670  177.5050  144.4310 C   0  0  0  0  0  0  0  0  0  0  0  0
  189.1330  177.1960  142.4130 C   0  0  0  0  0  0  0  0  0  0  0  0
  189.1880  177.7430  146.4920 C   0  0  0  0  0  0  0  0  0  0  0  0
  188.0410  177.4170  143.2010 N   0  0  0  0  0  0  0  0  0  0  0  0
  190.3070  177.1580  143.1840 C   0  0  0  0  0  3  0  0  0  0  0  0
  189.8660  177.3520  144.4370 N   0  0  0  0  0  0  0  0  0  0  0  0
  188.0330  177.7650  145.6850 C   0  0  0  0  0  3  0  0  0  0  0  0
  190.2970  177.4870  145.6890 C   0  0  0  0  0  0  0  0  0  0  0  0
  189.2280  178.1560  149.0530 N   0  0  0  0  0  0  0  0  0  0  0  0
  189.2100  177.9720  147.9100 C   0  0  0  0  0  0  0  0  0  0  0  0
  189.0870  177.0830  140.9270 C   0  0  0  0  0  2  0  0  0  0  0  0
  190.4200  177.5060  140.3370 C   0  0  0  0  0  2  0  0  0  0  0  0
  191.0760  176.3590  139.7330 N   0  0  0  0  0  2  0  0  0  0  0  0
  191.5150  176.7660  138.4080 C   0  0  0  0  0  2  0  0  0  0  0  0
  190.8760  175.8810  137.3540 C   0  0  1  0  0  3  0  0  0  0  0  0
  190.2770  174.7850  137.9720 O   0  0  0  0  0  1  0  0  0  0  0  0
  189.8250  176.6600  136.5860 C   0  0  0  0  0  1  0  0  0  0  0  0
  182.3930  178.2320  139.7170 C   0  0  0  0  0  2  0  0  0  0  0  0
  181.2630  177.9450  138.8430 N   0  0  0  0  0  0  0  0  0  0  0  0
  180.8060  175.6290  139.8100 C   0  0  0  0  0  1  0  0  0  0  0  0
  180.1670  177.4390  136.6220 C   0  0  0  0  0  2  0  0  0  0  0  0
  180.1420  176.3650  137.6040 N   0  0  0  0  0  0  0  0  0  0  0  0
  180.7210  176.6410  138.7210 C   0  0  0  0  0  0  0  0  0  0  0  0
  180.9420  178.9030  137.3990 S   0  0  0  0  0  0  0  0  0  0  0  0
  2  8  2  0  0  0  0
  2  7  1  0  0  0  0
  3  4  1  6  0  0  0
  3  9  1  0  0  0  0
  4 11  1  0  0  0  0
  5 11  1  6  0  0  0
  5 16  1  0  0  0  0
  5 10  1  0  0  0  0
  6  1  1  0  0  0  0
  7  3  1  0  0  0  0
  7  6  1  0  0  0  0
  9 10  1  1  0  0  0
  9  1  1  0  0  0  0
 13 18  1  0  0  0  0
 13 19  2  0  0  0  0
 14 17  2  0  0  0  0
 14 16  1  0  0  0  0
 15 22  1  0  0  0  0
 16 13  1  0  0  0  0
 17 18  1  0  0  0  0
 18 20  1  0  0  0  0
 19 15  1  0  0  0  0
 20 12  1  0  0  0  0
 20 15  2  0  0  0  0
 22 21  3  0  0  0  0
 23 14  1  0  0  0  0
 24 23  1  0  0  0  0
 25 24  1  0  0  0  0
 26 25  1  0  0  0  0
 27 29  1  1  0  0  0
 27 28  1  0  0  0  0
 27 26  1  0  0  0  0
 30  2  1  0  0  0  0
 31 30  1  0  0  0  0
 33 36  1  0  0  0  0
 33 34  1  0  0  0  0
 34 35  2  0  0  0  0
 35 31  1  0  0  0  0
 35 32  1  0  0  0  0
 36 31  1  0  0  0  0
M  END
>  <MODEL>
6

>  <REMARK>
 VINA RESULT:      -8.2      3.675      8.235
  Name = 
  9 active torsions:
  status: ('A' for Active; 'I' for Inactive)
    1  A    between atoms: N_1  and  C_4
    2  A    between atoms: N_1  and  C_25
    3  A    between atoms: N_2  and  C_5
    4  A    between atoms: C_4  and  C_28
    5  A    between atoms: C_5  and  C_6
    6  A    between atoms: C_10  and  C_14
    7  A    between atoms: C_10  and  C_25
    8  A    between atoms: C_15  and  N_18
    9  A    between atoms: C_16  and  C_34
                            x       y       z     vdW  Elec       q    Type
                         _______ _______ _______ _____ _____    ______ ____

>  <TORSDO>
F 9

$$$$
=
 OpenBabel10222419583D

 36 40  0  0  1  0  0  0  0  0999 V2000
  191.7760  177.5080  143.1000 C   0  0  0  0  0  2  0  0  0  0  0  0
  188.5650  177.7990  144.9850 C   0  0  0  0  0  0  0  0  0  0  0  0
  189.4440  177.3500  142.6330 C   0  0  2  0  0  3  0  0  0  0  0  0
  188.3620  178.0250  141.7930 C   0  0  0  0  0  2  0  0  0  0  0  0
  189.5950  176.6210  139.9970 C   0  0  1  0  0  3  0  0  0  0  0  0
  191.0010  178.0080  144.3200 C   0  0  0  0  0  2  0  0  0  0  0  0
  189.5900  177.8580  143.9830 N   0  0  0  0  0  0  0  0  0  0  0  0
  188.8030  178.2030  146.1540 O   0  0  0  0  0  0  0  0  0  0  0  0
  190.7660  177.6400  141.9850 C   0  0  2  0  0  3  0  0  0  0  0  0
  190.9410  176.7610  140.7530 C   0  0  0  0  0  2  0  0  0  0  0  0
  188.5830  177.7610  140.2830 C   0  0  0  0  0  2  0  0  0  0  0  0
  192.2100  175.9750  134.6290 N   0  0  0  0  0  1  0  0  0  0  0  0
  190.9490  176.2190  137.8990 C   0  0  0  0  0  0  0  0  0  0  0  0
  188.8970  176.6260  137.5620 C   0  0  0  0  0  0  0  0  0  0  0  0
  192.9100  175.8680  137.0520 C   0  0  0  0  0  0  0  0  0  0  0  0
  189.8090  176.4620  138.5630 N   0  0  0  0  0  0  0  0  0  0  0  0
  189.5050  176.4820  136.3030 C   0  0  0  0  0  3  0  0  0  0  0  0
  190.7880  176.2210  136.6010 N   0  0  0  0  0  0  0  0  0  0  0  0
  192.2610  176.0100  138.2950 C   0  0  0  0  0  3  0  0  0  0  0  0
  191.9710  176.0050  136.0330 C   0  0  0  0  0  0  0  0  0  0  0  0
  195.4520  175.4570  136.7320 N   0  0  0  0  0  0  0  0  0  0  0  0
  194.3180  175.6400  136.8750 C   0  0  0  0  0  0  0  0  0  0  0  0
  187.4650  176.9810  137.7790 C   0  0  0  0  0  2  0  0  0  0  0  0
  187.0880  178.1620  136.9030 C   0  0  0  0  0  2  0  0  0  0  0  0
  186.1330  179.0070  137.6000 N   0  0  0  0  0  2  0  0  0  0  0  0
  185.1700  178.1250  138.2380 C   0  0  0  0  0  2  0  0  0  0  0  0
  184.7390  178.7050  139.5730 C   0  0  1  0  0  3  0  0  0  0  0  0
  184.5430  180.0780  139.4380 O   0  0  0  0  0  1  0  0  0  0  0  0
  183.4470  178.0570  140.0320 C   0  0  0  0  0  1  0  0  0  0  0  0
  187.2170  177.2260  144.6790 C   0  0  0  0  0  2  0  0  0  0  0  0
  186.1960  178.2620  144.7620 N   0  0  0  0  0  0  0  0  0  0  0  0
  186.0010  178.1890  147.3050 C   0  0  0  0  0  1  0  0  0  0  0  0
  183.8790  179.2150  144.4250 C   0  0  0  0  0  2  0  0  0  0  0  0
  184.2840  178.9990  145.8060 N   0  0  0  0  0  0  0  0  0  0  0  0
  185.4610  178.4980  145.9520 C   0  0  0  0  0  0  0  0  0  0  0  0
  185.2920  178.7870  143.3440 S   0  0  0  0  0  0  0  0  0  0  0  0
  1  6  1  0  0  0  0
  2  8  2  0  0  0  0
  3  4  1  6  0  0  0
  3  7  1  0  0  0  0
  5 16  1  6  0  0  0
  5 11  1  0  0  0  0
  5 10  1  0  0  0  0
  7  6  1  0  0  0  0
  7  2  1  0  0  0  0
  9 10  1  6  0  0  0
  9  3  1  0  0  0  0
  9  1  1  0  0  0  0
 11  4  1  0  0  0  0
 12 20  1  0  0  0  0
 13 19  2  0  0  0  0
 13 16  1  0  0  0  0
 14 23  1  0  0  0  0
 14 16  1  0  0  0  0
 15 19  1  0  0  0  0
 17 18  1  0  0  0  0
 17 14  2  0  0  0  0
 18 13  1  0  0  0  0
 20 18  1  0  0  0  0
 20 15  2  0  0  0  0
 21 22  3  0  0  0  0
 22 15  1  0  0  0  0
 24 25  1  0  0  0  0
 24 23  1  0  0  0  0
 25 26  1  0  0  0  0
 26 27  1  0  0  0  0
 27 29  1  6  0  0  0
 28 27  1  0  0  0  0
 30 31  1  0  0  0  0
 30  2  1  0  0  0  0
 31 35  1  0  0  0  0
 33 34  1  0  0  0  0
 34 35  2  0  0  0  0
 35 32  1  0  0  0  0
 36 33  1  0  0  0  0
 36 31  1  0  0  0  0
M  END
>  <MODEL>
7

>  <REMARK>
 VINA RESULT:      -7.9      3.321      8.075
  Name = 
  9 active torsions:
  status: ('A' for Active; 'I' for Inactive)
    1  A    between atoms: N_1  and  C_4
    2  A    between atoms: N_1  and  C_25
    3  A    between atoms: N_2  and  C_5
    4  A    between atoms: C_4  and  C_28
    5  A    between atoms: C_5  and  C_6
    6  A    between atoms: C_10  and  C_14
    7  A    between atoms: C_10  and  C_25
    8  A    between atoms: C_15  and  N_18
    9  A    between atoms: C_16  and  C_34
                            x       y       z     vdW  Elec       q    Type
                         _______ _______ _______ _____ _____    ______ ____

>  <TORSDO>
F 9

$$$$
=
 OpenBabel10222419583D

 36 40  0  0  1  0  0  0  0  0999 V2000
  186.2100  178.0720  144.4280 C   0  0  0  0  0  2  0  0  0  0  0  0
  183.2710  178.2960  142.1340 C   0  0  0  0  0  0  0  0  0  0  0  0
  185.8070  178.0290  142.0790 C   0  0  2  0  0  3  0  0  0  0  0  0
  186.1460  178.8090  140.8100 C   0  0  0  0  0  2  0  0  0  0  0  0
  188.3630  177.5310  141.2260 C   0  0  1  0  0  3  0  0  0  0  0  0
  184.7600  178.4860  144.1760 C   0  0  0  0  0  2  0  0  0  0  0  0
  184.5710  178.4110  142.7320 N   0  0  0  0  0  0  0  0  0  0  0  0
  182.2430  178.5870  142.8010 O   0  0  0  0  0  0  0  0  0  0  0  0
  186.8690  178.3330  143.0940 C   0  0  2  0  0  3  0  0  0  0  0  0
  188.1400  177.5610  142.7600 C   0  0  0  0  0  2  0  0  0  0  0  0
  187.6480  178.6720  140.4560 C   0  0  0  0  0  2  0  0  0  0  0  0
  193.5690  176.5340  138.4040 N   0  0  0  0  0  1  0  0  0  0  0  0
  190.3800  177.1070  139.7620 C   0  0  0  0  0  0  0  0  0  0  0  0
  190.8360  177.7510  141.7270 C   0  0  0  0  0  0  0  0  0  0  0  0
  191.1110  176.4020  137.8490 C   0  0  0  0  0  0  0  0  0  0  0  0
  189.7840  177.4930  140.8990 N   0  0  0  0  0  0  0  0  0  0  0  0
  192.0570  177.5130  141.0750 C   0  0  0  0  0  3  0  0  0  0  0  0
  191.6850  177.1210  139.8460 N   0  0  0  0  0  0  0  0  0  0  0  0
  189.9080  176.6610  138.5360 C   0  0  0  0  0  3  0  0  0  0  0  0
  192.1830  176.6960  138.6880 C   0  0  0  0  0  0  0  0  0  0  0  0
  191.2800  175.4860  135.4270 N   0  0  0  0  0  0  0  0  0  0  0  0
  191.2040  175.8950  136.5080 C   0  0  0  0  0  0  0  0  0  0  0  0
  190.7000  178.1600  143.1550 C   0  0  0  0  0  2  0  0  0  0  0  0
  191.5190  177.2350  144.0370 C   0  0  0  0  0  2  0  0  0  0  0  0
  191.2480  177.5210  145.4350 N   0  0  0  0  0  2  0  0  0  0  0  0
  190.0660  176.7610  145.8050 C   0  0  0  0  0  2  0  0  0  0  0  0
  189.8720  176.8000  147.3100 C   0  0  1  0  0  3  0  0  0  0  0  0
  191.0810  177.1220  147.9230 O   0  0  0  0  0  1  0  0  0  0  0  0
  188.8320  177.8430  147.6750 C   0  0  0  0  0  1  0  0  0  0  0  0
  183.1060  177.7940  140.7340 C   0  0  0  0  0  2  0  0  0  0  0  0
  182.1670  178.6360  140.0020 N   0  0  0  0  0  0  0  0  0  0  0  0
  180.1660  177.0870  140.3300 C   0  0  0  0  0  1  0  0  0  0  0  0
  181.2200  179.7300  137.9300 C   0  0  0  0  0  2  0  0  0  0  0  0
  180.3810  178.7180  138.5570 N   0  0  0  0  0  0  0  0  0  0  0  0
  180.8920  178.1640  139.6010 C   0  0  0  0  0  0  0  0  0  0  0  0
  182.7170  179.9460  138.9600 S   0  0  0  0  0  0  0  0  0  0  0  0
  2  7  1  0  0  0  0
  2  8  2  0  0  0  0
  3  4  1  6  0  0  0
  3  7  1  0  0  0  0
  3  9  1  0  0  0  0
  5 11  1  6  0  0  0
  5 10  1  0  0  0  0
  6  1  1  0  0  0  0
  7  6  1  0  0  0  0
  9 10  1  6  0  0  0
  9  1  1  0  0  0  0
 11  4  1  0  0  0  0
 12 20  1  0  0  0  0
 13 18  1  0  0  0  0
 13 16  1  0  0  0  0
 14 23  1  0  0  0  0
 15 19  1  0  0  0  0
 15 20  2  0  0  0  0
 16  5  1  0  0  0  0
 16 14  1  0  0  0  0
 17 14  2  0  0  0  0
 18 17  1  0  0  0  0
 19 13  2  0  0  0  0
 20 18  1  0  0  0  0
 21 22  3  0  0  0  0
 22 15  1  0  0  0  0
 23 24  1  0  0  0  0
 24 25  1  0  0  0  0
 25 26  1  0  0  0  0
 26 27  1  0  0  0  0
 27 29  1  6  0  0  0
 27 28  1  0  0  0  0
 30  2  1  0  0  0  0
 31 30  1  0  0  0  0
 33 34  1  0  0  0  0
 33 36  1  0  0  0  0
 34 35  2  0  0  0  0
 35 31  1  0  0  0  0
 35 32  1  0  0  0  0
 36 31  1  0  0  0  0
M  END
>  <MODEL>
8

>  <REMARK>
 VINA RESULT:      -7.7      3.495      9.238
  Name = 
  9 active torsions:
  status: ('A' for Active; 'I' for Inactive)
    1  A    between atoms: N_1  and  C_4
    2  A    between atoms: N_1  and  C_25
    3  A    between atoms: N_2  and  C_5
    4  A    between atoms: C_4  and  C_28
    5  A    between atoms: C_5  and  C_6
    6  A    between atoms: C_10  and  C_14
    7  A    between atoms: C_10  and  C_25
    8  A    between atoms: C_15  and  N_18
    9  A    between atoms: C_16  and  C_34
                            x       y       z     vdW  Elec       q    Type
                         _______ _______ _______ _____ _____    ______ ____

>  <TORSDO>
F 9

$$$$
=
 OpenBabel10222419583D

 36 40  0  0  1  0  0  0  0  0999 V2000
  191.4040  177.5350  143.0840 C   0  0  0  0  0  2  0  0  0  0  0  0
  188.1580  177.8620  144.9030 C   0  0  0  0  0  0  0  0  0  0  0  0
  189.0800  177.4400  142.5620 C   0  0  2  0  0  3  0  0  0  0  0  0
  188.0330  178.1570  141.7120 C   0  0  0  0  0  2  0  0  0  0  0  0
  189.2740  176.7620  139.9150 C   0  0  1  0  0  3  0  0  0  0  0  0
  190.6130  178.0280  144.2970 C   0  0  0  0  0  2  0  0  0  0  0  0
  189.2070  177.9180  143.9250 N   0  0  0  0  0  0  0  0  0  0  0  0
  188.3790  178.2370  146.0850 O   0  0  0  0  0  0  0  0  0  0  0  0
  190.4230  177.7130  141.9500 C   0  0  2  0  0  3  0  0  0  0  0  0
  190.6050  176.8550  140.7030 C   0  0  0  0  0  2  0  0  0  0  0  0
  188.2820  177.9190  140.2020 C   0  0  0  0  0  2  0  0  0  0  0  0
  191.9940  176.1460  134.5960 N   0  0  0  0  0  1  0  0  0  0  0  0
  190.6630  176.3610  137.8410 C   0  0  0  0  0  0  0  0  0  0  0  0
  188.6350  176.8420  137.4650 C   0  0  0  0  0  0  0  0  0  0  0  0
  192.6320  175.9630  137.0310 C   0  0  0  0  0  0  0  0  0  0  0  0
  189.5170  176.6270  138.4830 N   0  0  0  0  0  0  0  0  0  0  0  0
  189.2670  176.7060  136.2180 C   0  0  0  0  0  3  0  0  0  0  0  0
  190.5330  176.3960  136.5400 N   0  0  0  0  0  0  0  0  0  0  0  0
  191.9590  176.1000  138.2620 C   0  0  0  0  0  3  0  0  0  0  0  0
  191.7220  176.1540  135.9940 C   0  0  0  0  0  0  0  0  0  0  0  0
  195.1660  175.4760  136.7620 N   0  0  0  0  0  0  0  0  0  0  0  0
  194.0360  175.6940  136.8820 C   0  0  0  0  0  0  0  0  0  0  0  0
  187.2110  177.2400  137.6580 C   0  0  0  0  0  2  0  0  0  0  0  0
  186.3670  176.7030  136.5160 C   0  0  0  0  0  2  0  0  0  0  0  0
  185.5770  175.5730  136.9780 N   0  0  0  0  0  2  0  0  0  0  0  0
  186.0560  174.3990  136.2660 C   0  0  0  0  0  2  0  0  0  0  0  0
  186.6400  173.3990  137.2470 C   0  0  1  0  0  3  0  0  0  0  0  0
  185.6260  172.9090  138.0670 O   0  0  0  0  0  1  0  0  0  0  0  0
  187.2800  172.2460  136.4980 C   0  0  0  0  0  1  0  0  0  0  0  0
  186.8050  177.3260  144.5550 C   0  0  0  0  0  2  0  0  0  0  0  0
  185.8150  178.3960  144.5810 N   0  0  0  0  0  0  0  0  0  0  0  0
  185.3950  178.2590  147.0940 C   0  0  0  0  0  1  0  0  0  0  0  0
  183.5700  179.4410  144.0730 C   0  0  0  0  0  2  0  0  0  0  0  0
  183.8450  179.1720  145.4770 N   0  0  0  0  0  0  0  0  0  0  0  0
  184.9870  178.6250  145.7090 C   0  0  0  0  0  0  0  0  0  0  0  0
  185.0590  178.9940  143.1060 S   0  0  0  0  0  0  0  0  0  0  0  0
  1  6  1  0  0  0  0
  2  8  2  0  0  0  0
  3  4  1  6  0  0  0
  3  7  1  0  0  0  0
  5 16  1  6  0  0  0
  5 11  1  0  0  0  0
  5 10  1  0  0  0  0
  7  6  1  0  0  0  0
  7  2  1  0  0  0  0
  9 10  1  6  0  0  0
  9  3  1  0  0  0  0
  9  1  1  0  0  0  0
 11  4  1  0  0  0  0
 12 20  1  0  0  0  0
 13 19  2  0  0  0  0
 13 16  1  0  0  0  0
 14 23  1  0  0  0  0
 14 16  1  0  0  0  0
 15 19  1  0  0  0  0
 17 18  1  0  0  0  0
 17 14  2  0  0  0  0
 18 13  1  0  0  0  0
 20 18  1  0  0  0  0
 20 15  2  0  0  0  0
 21 22  3  0  0  0  0
 22 15  1  0  0  0  0
 24 25  1  0  0  0  0
 24 23  1  0  0  0  0
 26 25  1  0  0  0  0
 26 27  1  0  0  0  0
 27 29  1  6  0  0  0
 27 28  1  0  0  0  0
 30 31  1  0  0  0  0
 30  2  1  0  0  0  0
 31 35  1  0  0  0  0
 33 34  1  0  0  0  0
 34 35  2  0  0  0  0
 35 32  1  0  0  0  0
 36 33  1  0  0  0  0
 36 31  1  0  0  0  0
M  END
>  <MODEL>
9

>  <REMARK>
 VINA RESULT:      -7.5      3.702      8.132
  Name = 
  9 active torsions:
  status: ('A' for Active; 'I' for Inactive)
    1  A    between atoms: N_1  and  C_4
    2  A    between atoms: N_1  and  C_25
    3  A    between atoms: N_2  and  C_5
    4  A    between atoms: C_4  and  C_28
    5  A    between atoms: C_5  and  C_6
    6  A    between atoms: C_10  and  C_14
    7  A    between atoms: C_10  and  C_25
    8  A    between atoms: C_15  and  N_18
    9  A    between atoms: C_16  and  C_34
                            x       y       z     vdW  Elec       q    Type
                         _______ _______ _______ _____ _____    ______ ____

>  <TORSDO>
F 9

$$$$
