=
 OpenBabel10222420443D

 39 42  0  0  1  0  0  0  0  0999 V2000
  185.7590  178.7510  141.9100 C   0  0  2  0  0  3  0  0  0  0  0  0
  185.8490  178.5450  144.5160 C   0  0  0  0  0  0  0  0  0  0  0  0
  183.7360  179.3170  144.9440 N   0  0  0  0  0  0  0  0  0  0  0  0
  187.7580  177.7730  145.8790 C   0  0  0  0  0  3  0  0  0  0  0  0
  185.2210  178.8420  143.3160 C   0  0  0  0  0  0  0  0  0  0  0  0
  187.1350  178.0680  144.6790 C   0  0  0  0  0  3  0  0  0  0  0  0
  184.8610  178.8610  145.5260 C   0  0  0  0  0  0  0  0  0  0  0  0
  183.9490  179.3080  143.6100 C   0  0  0  0  0  3  0  0  0  0  0  0
  184.9730  178.7370  146.8640 N   0  0  0  0  0  0  0  0  0  0  0  0
  188.2200  177.4590  148.2550 C   0  0  0  0  0  1  0  0  0  0  0  0
  187.2780  177.8730  147.1830 C   0  0  0  0  0  0  0  0  0  0  0  0
  186.0220  178.3090  147.6080 C   0  0  0  0  0  3  0  0  0  0  0  0
  183.7890  177.7830  140.6670 N   0  0  0  0  0  2  0  0  0  0  0  0
  184.7650  178.8170  140.7850 C   0  0  0  0  0  0  0  0  0  0  0  0
  184.7610  179.7840  139.9780 O   0  0  0  0  0  0  0  0  0  0  0  0
  182.7980  177.7730  139.6010 C   0  0  0  0  0  2  0  0  0  0  0  0
  179.2950  177.9870  139.2270 C   0  0  0  0  0  3  0  0  0  0  0  0
  181.6980  179.0710  141.2910 F   0  0  0  0  0  0  0  0  0  0  0  0
  181.0440  179.4410  139.0510 C   0  0  0  0  0  0  0  0  0  0  0  0
  181.5150  178.4550  140.0630 C   0  0  1  0  0  0  0  0  0  0  0  0
  179.7030  179.0930  138.6400 C   0  0  0  0  0  0  0  0  0  0  0  0
  180.3560  177.4470  140.1390 C   0  0  0  0  0  2  0  0  0  0  0  0
  178.9310  179.8220  137.7440 O   0  0  0  0  0  1  0  0  0  0  0  0
  181.6470  180.5860  138.7570 C   0  0  0  0  0  2  0  0  0  0  0  0
  186.8000  177.7350  141.7320 N   0  0  0  0  0  2  0  0  0  0  0  0
  187.9100  178.4140  139.6740 C   0  0  0  0  0  2  0  0  0  0  0  0
  189.2190  177.4270  141.4660 C   0  0  2  0  0  3  0  0  0  0  0  0
  189.9520  177.2180  140.1370 C   0  0  1  0  0  3  0  0  0  0  0  0
  188.0160  178.3240  141.1840 C   0  0  2  0  0  3  0  0  0  0  0  0
  189.3150  178.1790  139.1510 C   0  0  1  0  0  3  0  0  0  0  0  0
  191.3210  177.4640  140.2300 O   0  0  0  0  0  1  0  0  0  0  0  0
  189.3060  177.6360  137.7480 C   0  0  0  0  0  0  0  0  0  0  0  0
  189.3050  178.4200  136.7620 O   0  0  0  0  0  0  0  0  0  0  0  0
  189.2180  176.2320  137.5230 N   0  0  0  0  0  1  0  0  0  0  0  0
  190.0740  177.9380  142.5490 N   0  0  0  0  0  2  0  0  0  0  0  0
  190.3700  176.8930  143.5280 C   0  0  0  0  0  2  0  0  0  0  0  0
  191.6330  177.1800  144.1950 N   0  0  0  0  0  0  0  0  0  0  0  0
  191.4950  176.7660  145.5830 C   0  0  0  0  0  1  0  0  0  0  0  0
  191.7700  178.6250  144.2050 C   0  0  0  0  0  1  0  0  0  0  0  0
  1 14  1  6  0  0  0
  1  5  1  0  0  0  0
  2  6  2  0  0  0  0
  2  7  1  0  0  0  0
  3  7  2  0  0  0  0
  4 11  2  0  0  0  0
  5  8  2  0  0  0  0
  5  2  1  0  0  0  0
  6  4  1  0  0  0  0
  7  9  1  0  0  0  0
  8  3  1  0  0  0  0
  9 12  2  0  0  0  0
 11 12  1  0  0  0  0
 11 10  1  0  0  0  0
 13 14  1  0  0  0  0
 15 14  2  0  0  0  0
 16 20  1  0  0  0  0
 16 13  1  0  0  0  0
 17 22  1  0  0  0  0
 19 20  1  0  0  0  0
 20 22  1  0  0  0  0
 20 18  1  1  0  0  0
 21 19  1  0  0  0  0
 21 17  2  0  0  0  0
 23 21  1  0  0  0  0
 24 19  2  0  0  0  0
 25  1  1  0  0  0  0
 26 29  1  0  0  0  0
 27 35  1  1  0  0  0
 28 31  1  1  0  0  0
 28 27  1  0  0  0  0
 29 27  1  0  0  0  0
 29 25  1  6  0  0  0
 30 32  1  6  0  0  0
 30 26  1  0  0  0  0
 30 28  1  0  0  0  0
 33 32  2  0  0  0  0
 34 32  1  0  0  0  0
 35 36  1  0  0  0  0
 36 37  1  0  0  0  0
 37 39  1  0  0  0  0
 37 38  1  0  0  0  0
M  END
>  <MODEL>
1

>  <REMARK>
 VINA RESULT:      -8.8      0.000      0.000
  Name = 
  10 active torsions:
  status: ('A' for Active; 'I' for Inactive)
    1  A    between atoms: C_4  and  N_9
    2  A    between atoms: C_4  and  N_18
    3  A    between atoms: C_7  and  N_18
    4  A    between atoms: N_8  and  C_37
    5  A    between atoms: C_10  and  C_37
    6  A    between atoms: C_12  and  C_16
    7  A    between atoms: C_16  and  C_19
    8  A    between atoms: C_16  and  N_27
    9  A    between atoms: C_23  and  C_34
   10  A    between atoms: N_27  and  C_32
                            x       y       z     vdW  Elec       q    Type
                         _______ _______ _______ _____ _____    ______ ____

>  <TORSDO>
F 10

$$$$
=
 OpenBabel10222420443D

 39 42  0  0  1  0  0  0  0  0999 V2000
  185.7060  178.7620  141.9140 C   0  0  2  0  0  3  0  0  0  0  0  0
  185.8340  178.5490  144.5190 C   0  0  0  0  0  0  0  0  0  0  0  0
  183.7210  179.3020  144.9790 N   0  0  0  0  0  0  0  0  0  0  0  0
  187.7680  177.7890  145.8530 C   0  0  0  0  0  3  0  0  0  0  0  0
  185.1870  178.8440  143.3290 C   0  0  0  0  0  0  0  0  0  0  0  0
  187.1260  178.0820  144.6620 C   0  0  0  0  0  3  0  0  0  0  0  0
  184.8580  178.8540  145.5430 C   0  0  0  0  0  0  0  0  0  0  0  0
  183.9160  179.2990  143.6420 C   0  0  0  0  0  3  0  0  0  0  0  0
  184.9890  178.7270  146.8800 N   0  0  0  0  0  0  0  0  0  0  0  0
  188.2660  177.4730  148.2210 C   0  0  0  0  0  1  0  0  0  0  0  0
  187.3060  177.8810  147.1640 C   0  0  0  0  0  0  0  0  0  0  0  0
  186.0520  178.3060  147.6070 C   0  0  0  0  0  3  0  0  0  0  0  0
  183.6910  177.8520  140.6990 N   0  0  0  0  0  2  0  0  0  0  0  0
  184.6990  178.8560  140.8030 C   0  0  0  0  0  0  0  0  0  0  0  0
  184.7130  179.8230  139.9960 O   0  0  0  0  0  0  0  0  0  0  0  0
  182.6860  177.8710  139.6470 C   0  0  0  0  0  2  0  0  0  0  0  0
  183.5840  176.8610  136.3870 C   0  0  0  0  0  3  0  0  0  0  0  0
  183.0360  175.5120  139.4010 F   0  0  0  0  0  0  0  0  0  0  0  0
  181.7600  176.5920  137.7310 C   0  0  0  0  0  0  0  0  0  0  0  0
  182.8900  176.6960  138.6970 C   0  0  1  0  0  0  0  0  0  0  0  0
  182.2800  176.6700  136.3860 C   0  0  0  0  0  0  0  0  0  0  0  0
  184.1090  176.9320  137.7900 C   0  0  0  0  0  2  0  0  0  0  0  0
  181.5170  176.5590  135.2300 O   0  0  0  0  0  1  0  0  0  0  0  0
  180.5200  176.2380  138.0390 C   0  0  0  0  0  2  0  0  0  0  0  0
  186.7280  177.7320  141.7120 N   0  0  0  0  0  2  0  0  0  0  0  0
  187.8940  178.3710  139.6720 C   0  0  0  0  0  2  0  0  0  0  0  0
  189.1550  177.4260  141.5210 C   0  0  2  0  0  3  0  0  0  0  0  0
  189.9260  177.1920  140.2180 C   0  0  1  0  0  3  0  0  0  0  0  0
  187.9580  178.3130  141.1860 C   0  0  2  0  0  3  0  0  0  0  0  0
  189.3140  178.1300  139.1940 C   0  0  1  0  0  3  0  0  0  0  0  0
  191.2910  177.4440  140.3430 O   0  0  0  0  0  1  0  0  0  0  0  0
  189.3460  177.5570  137.8030 C   0  0  0  0  0  0  0  0  0  0  0  0
  189.1780  178.3050  136.8020 O   0  0  0  0  0  0  0  0  0  0  0  0
  189.4860  176.1530  137.6080 N   0  0  0  0  0  1  0  0  0  0  0  0
  189.9780  177.9620  142.6160 N   0  0  0  0  0  2  0  0  0  0  0  0
  190.4520  176.8940  143.4950 C   0  0  0  0  0  2  0  0  0  0  0  0
  191.6370  177.3340  144.2180 N   0  0  0  0  0  0  0  0  0  0  0  0
  191.4330  177.0150  145.6230 C   0  0  0  0  0  1  0  0  0  0  0  0
  191.6610  178.7820  144.1200 C   0  0  0  0  0  1  0  0  0  0  0  0
  1 14  1  6  0  0  0
  1  5  1  0  0  0  0
  2  6  2  0  0  0  0
  2  7  1  0  0  0  0
  3  7  2  0  0  0  0
  4 11  2  0  0  0  0
  5  8  2  0  0  0  0
  5  2  1  0  0  0  0
  6  4  1  0  0  0  0
  7  9  1  0  0  0  0
  8  3  1  0  0  0  0
  9 12  2  0  0  0  0
 11 12  1  0  0  0  0
 11 10  1  0  0  0  0
 13 14  1  0  0  0  0
 15 14  2  0  0  0  0
 16 13  1  0  0  0  0
 17 22  1  0  0  0  0
 19 24  2  0  0  0  0
 19 20  1  0  0  0  0
 20 18  1  1  0  0  0
 20 16  1  0  0  0  0
 21 17  2  0  0  0  0
 21 19  1  0  0  0  0
 22 20  1  0  0  0  0
 23 21  1  0  0  0  0
 25  1  1  0  0  0  0
 26 29  1  0  0  0  0
 27 35  1  1  0  0  0
 28 31  1  1  0  0  0
 28 27  1  0  0  0  0
 29 27  1  0  0  0  0
 29 25  1  6  0  0  0
 30 32  1  6  0  0  0
 30 26  1  0  0  0  0
 30 28  1  0  0  0  0
 33 32  2  0  0  0  0
 34 32  1  0  0  0  0
 35 36  1  0  0  0  0
 36 37  1  0  0  0  0
 37 38  1  0  0  0  0
 39 37  1  0  0  0  0
M  END
>  <MODEL>
2

>  <REMARK>
 VINA RESULT:      -8.8      1.478      1.929
  Name = 
  10 active torsions:
  status: ('A' for Active; 'I' for Inactive)
    1  A    between atoms: C_4  and  N_9
    2  A    between atoms: C_4  and  N_18
    3  A    between atoms: C_7  and  N_18
    4  A    between atoms: N_8  and  C_37
    5  A    between atoms: C_10  and  C_37
    6  A    between atoms: C_12  and  C_16
    7  A    between atoms: C_16  and  C_19
    8  A    between atoms: C_16  and  N_27
    9  A    between atoms: C_23  and  C_34
   10  A    between atoms: N_27  and  C_32
                            x       y       z     vdW  Elec       q    Type
                         _______ _______ _______ _____ _____    ______ ____

>  <TORSDO>
F 10

$$$$
=
 OpenBabel10222420443D

 39 42  0  0  1  0  0  0  0  0999 V2000
  184.5190  178.3240  142.0350 C   0  0  2  0  0  3  0  0  0  0  0  0
  185.3560  178.2980  144.5140 C   0  0  0  0  0  0  0  0  0  0  0  0
  183.5200  179.2890  145.4540 N   0  0  0  0  0  0  0  0  0  0  0  0
  187.5250  177.4520  145.3390 C   0  0  0  0  0  3  0  0  0  0  0  0
  184.4250  178.5640  143.5210 C   0  0  0  0  0  0  0  0  0  0  0  0
  186.5980  177.7160  144.3450 C   0  0  0  0  0  3  0  0  0  0  0  0
  184.7330  178.7750  145.7290 C   0  0  0  0  0  0  0  0  0  0  0  0
  183.3310  179.1650  144.1220 C   0  0  0  0  0  3  0  0  0  0  0  0
  185.2230  178.7370  146.9850 N   0  0  0  0  0  0  0  0  0  0  0  0
  188.6420  177.2690  147.5010 C   0  0  0  0  0  1  0  0  0  0  0  0
  187.4570  177.6890  146.7100 C   0  0  0  0  0  0  0  0  0  0  0  0
  186.4130  178.2690  147.4340 C   0  0  0  0  0  3  0  0  0  0  0  0
  187.0060  178.0520  141.7120 N   0  0  0  0  0  2  0  0  0  0  0  0
  185.7970  178.7180  141.3510 C   0  0  0  0  0  0  0  0  0  0  0  0
  185.8050  179.5940  140.4450 O   0  0  0  0  0  0  0  0  0  0  0  0
  188.2840  178.3830  141.0990 C   0  0  0  0  0  2  0  0  0  0  0  0
  191.5940  177.9340  142.2380 C   0  0  0  0  0  3  0  0  0  0  0  0
  188.7800  176.1610  141.8510 F   0  0  0  0  0  0  0  0  0  0  0  0
  190.3730  177.2070  140.4530 C   0  0  0  0  0  0  0  0  0  0  0  0
  189.3510  177.3800  141.5240 C   0  0  1  0  0  0  0  0  0  0  0  0
  191.6760  177.5300  140.9860 C   0  0  0  0  0  0  0  0  0  0  0  0
  190.1700  177.9220  142.7080 C   0  0  0  0  0  2  0  0  0  0  0  0
  192.8700  177.4340  140.2830 O   0  0  0  0  0  1  0  0  0  0  0  0
  190.1640  176.6170  139.2830 C   0  0  0  0  0  2  0  0  0  0  0  0
  183.3070  178.6820  141.2940 N   0  0  0  0  0  2  0  0  0  0  0  0
  183.3410  177.0190  139.5150 C   0  0  0  0  0  2  0  0  0  0  0  0
  181.2080  177.8180  140.3600 C   0  0  2  0  0  3  0  0  0  0  0  0
  181.0160  177.2890  138.9350 C   0  0  1  0  0  3  0  0  0  0  0  0
  182.6420  177.4920  140.7750 C   0  0  2  0  0  3  0  0  0  0  0  0
  182.2470  176.4570  138.6270 C   0  0  1  0  0  3  0  0  0  0  0  0
  179.8660  176.5130  138.7970 O   0  0  0  0  0  1  0  0  0  0  0  0
  182.6240  176.5130  137.1720 C   0  0  0  0  0  0  0  0  0  0  0  0
  182.1220  175.6980  136.3510 O   0  0  0  0  0  0  0  0  0  0  0  0
  183.6130  177.4350  136.7210 N   0  0  0  0  0  1  0  0  0  0  0  0
  180.2080  177.3300  141.3220 N   0  0  0  0  0  2  0  0  0  0  0  0
  179.3470  178.4160  141.7880 C   0  0  0  0  0  2  0  0  0  0  0  0
  180.0400  179.2000  142.8010 N   0  0  0  0  0  0  0  0  0  0  0  0
  179.6250  178.6950  144.1010 C   0  0  0  0  0  1  0  0  0  0  0  0
  179.5230  180.5520  142.6970 C   0  0  0  0  0  1  0  0  0  0  0  0
  1 25  1  6  0  0  0
  1  5  1  0  0  0  0
  2  7  1  0  0  0  0
  3  7  2  0  0  0  0
  4 11  2  0  0  0  0
  5  8  2  0  0  0  0
  5  2  1  0  0  0  0
  6  2  2  0  0  0  0
  6  4  1  0  0  0  0
  7  9  1  0  0  0  0
  8  3  1  0  0  0  0
  9 12  2  0  0  0  0
 11 12  1  0  0  0  0
 11 10  1  0  0  0  0
 14 13  1  0  0  0  0
 14  1  1  0  0  0  0
 15 14  2  0  0  0  0
 16 20  1  0  0  0  0
 16 13  1  0  0  0  0
 17 22  1  0  0  0  0
 19 21  1  0  0  0  0
 19 20  1  0  0  0  0
 20 18  1  1  0  0  0
 20 22  1  0  0  0  0
 21 17  2  0  0  0  0
 23 21  1  0  0  0  0
 24 19  2  0  0  0  0
 26 29  1  0  0  0  0
 27 29  1  0  0  0  0
 27 35  1  1  0  0  0
 28 31  1  1  0  0  0
 28 27  1  0  0  0  0
 29 25  1  6  0  0  0
 30 32  1  6  0  0  0
 30 28  1  0  0  0  0
 30 26  1  0  0  0  0
 33 32  2  0  0  0  0
 34 32  1  0  0  0  0
 35 36  1  0  0  0  0
 36 37  1  0  0  0  0
 37 38  1  0  0  0  0
 39 37  1  0  0  0  0
M  END
>  <MODEL>
3

>  <REMARK>
 VINA RESULT:      -8.5      2.411      7.492
  Name = 
  10 active torsions:
  status: ('A' for Active; 'I' for Inactive)
    1  A    between atoms: C_4  and  N_9
    2  A    between atoms: C_4  and  N_18
    3  A    between atoms: C_7  and  N_18
    4  A    between atoms: N_8  and  C_37
    5  A    between atoms: C_10  and  C_37
    6  A    between atoms: C_12  and  C_16
    7  A    between atoms: C_16  and  C_19
    8  A    between atoms: C_16  and  N_27
    9  A    between atoms: C_23  and  C_34
   10  A    between atoms: N_27  and  C_32
                            x       y       z     vdW  Elec       q    Type
                         _______ _______ _______ _____ _____    ______ ____

>  <TORSDO>
F 10

$$$$
=
 OpenBabel10222420443D

 39 42  0  0  1  0  0  0  0  0999 V2000
  185.6500  178.5160  143.2210 C   0  0  2  0  0  3  0  0  0  0  0  0
  186.8380  178.1650  145.5250 C   0  0  0  0  0  0  0  0  0  0  0  0
  185.0590  178.7090  146.8590 N   0  0  0  0  0  0  0  0  0  0  0  0
  189.1860  177.4940  145.8970 C   0  0  0  0  0  3  0  0  0  0  0  0
  185.7480  178.4720  144.7260 C   0  0  0  0  0  0  0  0  0  0  0  0
  188.1000  177.8000  145.0950 C   0  0  0  0  0  3  0  0  0  0  0  0
  186.3490  178.3270  146.8770 C   0  0  0  0  0  0  0  0  0  0  0  0
  184.6920  178.8000  145.5620 C   0  0  0  0  0  3  0  0  0  0  0  0
  187.0200  178.1340  148.0320 N   0  0  0  0  0  0  0  0  0  0  0  0
  190.6210  177.0850  147.8290 C   0  0  0  0  0  1  0  0  0  0  0  0
  189.2930  177.4710  147.2860 C   0  0  0  0  0  0  0  0  0  0  0  0
  188.3080  177.7620  148.2310 C   0  0  0  0  0  3  0  0  0  0  0  0
  183.9340  177.8580  141.4940 N   0  0  0  0  0  2  0  0  0  0  0  0
  184.2790  178.6590  142.6220 C   0  0  0  0  0  0  0  0  0  0  0  0
  183.4300  179.4410  143.1260 O   0  0  0  0  0  0  0  0  0  0  0  0
  182.6290  177.9440  140.8550 C   0  0  0  0  0  2  0  0  0  0  0  0
  182.1250  180.3970  138.3670 C   0  0  0  0  0  3  0  0  0  0  0  0
  183.7050  177.4730  138.7650 F   0  0  0  0  0  0  0  0  0  0  0  0
  181.4700  178.2340  138.6780 C   0  0  0  0  0  0  0  0  0  0  0  0
  182.7820  178.3020  139.3800 C   0  0  1  0  0  0  0  0  0  0  0  0
  181.1850  179.5190  138.0840 C   0  0  0  0  0  0  0  0  0  0  0  0
  183.1940  179.7750  139.2150 C   0  0  0  0  0  2  0  0  0  0  0  0
  180.0680  179.8080  137.3090 O   0  0  0  0  0  1  0  0  0  0  0  0
  180.7940  177.1210  138.4250 C   0  0  0  0  0  2  0  0  0  0  0  0
  186.5040  177.5410  142.5380 N   0  0  0  0  0  2  0  0  0  0  0  0
  186.8760  178.5960  140.3750 C   0  0  0  0  0  2  0  0  0  0  0  0
  188.6440  177.2600  141.3690 C   0  0  2  0  0  3  0  0  0  0  0  0
  188.8450  177.3060  139.8510 C   0  0  1  0  0  3  0  0  0  0  0  0
  187.4960  178.2100  141.7030 C   0  0  2  0  0  3  0  0  0  0  0  0
  187.9840  178.4500  139.3490 C   0  0  1  0  0  3  0  0  0  0  0  0
  190.1750  177.5110  139.4880 O   0  0  0  0  0  1  0  0  0  0  0  0
  187.4400  178.1930  137.9700 C   0  0  0  0  0  0  0  0  0  0  0  0
  186.8490  177.1110  137.7100 O   0  0  0  0  0  0  0  0  0  0  0  0
  187.6580  179.1360  136.9250 N   0  0  0  0  0  1  0  0  0  0  0  0
  189.8620  177.5360  142.1450 N   0  0  0  0  0  2  0  0  0  0  0  0
  190.4880  176.2990  142.6100 C   0  0  0  0  0  2  0  0  0  0  0  0
  191.7770  176.5920  143.2190 N   0  0  0  0  0  0  0  0  0  0  0  0
  191.8560  175.8310  144.4570 C   0  0  0  0  0  1  0  0  0  0  0  0
  191.7420  177.9930  143.5960 C   0  0  0  0  0  1  0  0  0  0  0  0
  1 25  1  6  0  0  0
  1  5  1  0  0  0  0
  2  7  1  0  0  0  0
  3  7  2  0  0  0  0
  4 11  2  0  0  0  0
  5  2  1  0  0  0  0
  5  8  2  0  0  0  0
  6  2  2  0  0  0  0
  6  4  1  0  0  0  0
  7  9  1  0  0  0  0
  8  3  1  0  0  0  0
  9 12  2  0  0  0  0
 11 10  1  0  0  0  0
 11 12  1  0  0  0  0
 13 14  1  0  0  0  0
 14 15  2  0  0  0  0
 14  1  1  0  0  0  0
 16 13  1  0  0  0  0
 17 22  1  0  0  0  0
 19 20  1  0  0  0  0
 20 18  1  6  0  0  0
 20 16  1  0  0  0  0
 21 17  2  0  0  0  0
 21 19  1  0  0  0  0
 22 20  1  0  0  0  0
 23 21  1  0  0  0  0
 24 19  2  0  0  0  0
 26 29  1  0  0  0  0
 27 29  1  0  0  0  0
 27 35  1  1  0  0  0
 28 31  1  1  0  0  0
 28 27  1  0  0  0  0
 29 25  1  1  0  0  0
 30 32  1  6  0  0  0
 30 28  1  0  0  0  0
 30 26  1  0  0  0  0
 33 32  2  0  0  0  0
 34 32  1  0  0  0  0
 35 36  1  0  0  0  0
 36 37  1  0  0  0  0
 37 39  1  0  0  0  0
 37 38  1  0  0  0  0
M  END
>  <MODEL>
4

>  <REMARK>
 VINA RESULT:      -8.3      1.555      2.057
  Name = 
  10 active torsions:
  status: ('A' for Active; 'I' for Inactive)
    1  A    between atoms: C_4  and  N_9
    2  A    between atoms: C_4  and  N_18
    3  A    between atoms: C_7  and  N_18
    4  A    between atoms: N_8  and  C_37
    5  A    between atoms: C_10  and  C_37
    6  A    between atoms: C_12  and  C_16
    7  A    between atoms: C_16  and  C_19
    8  A    between atoms: C_16  and  N_27
    9  A    between atoms: C_23  and  C_34
   10  A    between atoms: N_27  and  C_32
                            x       y       z     vdW  Elec       q    Type
                         _______ _______ _______ _____ _____    ______ ____

>  <TORSDO>
F 10

$$$$
=
 OpenBabel10222420443D

 39 42  0  0  1  0  0  0  0  0999 V2000
  189.0970  177.7590  140.6090 C   0  0  2  0  0  3  0  0  0  0  0  0
  191.0010  176.7440  139.1290 C   0  0  0  0  0  0  0  0  0  0  0  0
  192.7630  177.3630  140.4520 N   0  0  0  0  0  0  0  0  0  0  0  0
  190.7370  175.5640  136.9750 C   0  0  0  0  0  3  0  0  0  0  0  0
  190.5190  177.4090  140.2460 C   0  0  0  0  0  0  0  0  0  0  0  0
  190.2520  176.2260  138.0900 C   0  0  0  0  0  3  0  0  0  0  0  0
  192.4370  176.7370  139.3060 C   0  0  0  0  0  0  0  0  0  0  0  0
  191.6090  177.7710  141.0220 C   0  0  0  0  0  3  0  0  0  0  0  0
  193.3720  176.1970  138.4970 N   0  0  0  0  0  0  0  0  0  0  0  0
  192.2180  174.5150  135.3430 C   0  0  0  0  0  1  0  0  0  0  0  0
  192.0480  175.2540  136.6200 C   0  0  0  0  0  0  0  0  0  0  0  0
  193.2220  175.5470  137.3180 C   0  0  0  0  0  3  0  0  0  0  0  0
  186.8510  177.9400  139.4770 N   0  0  0  0  0  2  0  0  0  0  0  0
  188.2250  178.3190  139.5220 C   0  0  0  0  0  0  0  0  0  0  0  0
  188.6810  179.1410  138.6830 O   0  0  0  0  0  0  0  0  0  0  0  0
  185.9450  178.4350  138.4520 C   0  0  0  0  0  2  0  0  0  0  0  0
  183.5420  177.7220  140.9360 C   0  0  0  0  0  3  0  0  0  0  0  0
  184.2670  180.1270  138.7220 F   0  0  0  0  0  0  0  0  0  0  0  0
  183.5330  177.8810  138.6610 C   0  0  0  0  0  0  0  0  0  0  0  0
  184.6080  178.8290  139.0700 C   0  0  1  0  0  0  0  0  0  0  0  0
  182.9420  177.2990  139.8430 C   0  0  0  0  0  0  0  0  0  0  0  0
  184.6470  178.6790  140.6000 C   0  0  0  0  0  2  0  0  0  0  0  0
  181.8760  176.4080  139.8430 O   0  0  0  0  0  1  0  0  0  0  0  0
  183.0330  177.7730  137.4370 C   0  0  0  0  0  2  0  0  0  0  0  0
  188.9610  178.4400  141.8990 N   0  0  0  0  0  2  0  0  0  0  0  0
  186.9230  177.7720  143.0520 C   0  0  0  0  0  2  0  0  0  0  0  0
  189.0180  177.8440  144.2790 C   0  0  2  0  0  3  0  0  0  0  0  0
  187.8550  177.9930  145.2650 C   0  0  1  0  0  3  0  0  0  0  0  0
  188.4140  177.5410  142.9090 C   0  0  2  0  0  3  0  0  0  0  0  0
  186.6120  177.5430  144.5200 C   0  0  1  0  0  3  0  0  0  0  0  0
  188.0230  177.2310  146.4200 O   0  0  0  0  0  1  0  0  0  0  0  0
  185.3820  178.2910  144.9550 C   0  0  0  0  0  0  0  0  0  0  0  0
  184.3820  178.3710  144.1920 O   0  0  0  0  0  0  0  0  0  0  0  0
  185.3660  178.9840  146.1990 N   0  0  0  0  0  1  0  0  0  0  0  0
  190.0310  176.8600  144.6900 N   0  0  0  0  0  2  0  0  0  0  0  0
  191.2710  177.5160  145.1030 C   0  0  0  0  0  2  0  0  0  0  0  0
  191.9640  176.6960  146.0860 N   0  0  0  0  0  0  0  0  0  0  0  0
  191.9450  175.3240  145.5990 C   0  0  0  0  0  1  0  0  0  0  0  0
  191.1490  176.7200  147.2870 C   0  0  0  0  0  1  0  0  0  0  0  0
  1 14  1  6  0  0  0
  1 25  1  0  0  0  0
  2  7  1  0  0  0  0
  2  5  1  0  0  0  0
  3  8  1  0  0  0  0
  4  6  1  0  0  0  0
  5  1  1  0  0  0  0
  5  8  2  0  0  0  0
  6  2  2  0  0  0  0
  7  3  2  0  0  0  0
  9  7  1  0  0  0  0
 10 11  1  0  0  0  0
 11  4  2  0  0  0  0
 11 12  1  0  0  0  0
 12  9  2  0  0  0  0
 13 14  1  0  0  0  0
 15 14  2  0  0  0  0
 16 20  1  0  0  0  0
 16 13  1  0  0  0  0
 19 20  1  0  0  0  0
 19 21  1  0  0  0  0
 20 18  1  6  0  0  0
 20 22  1  0  0  0  0
 21 23  1  0  0  0  0
 21 17  2  0  0  0  0
 22 17  1  0  0  0  0
 24 19  2  0  0  0  0
 26 30  1  0  0  0  0
 27 35  1  1  0  0  0
 27 28  1  0  0  0  0
 28 31  1  1  0  0  0
 29 25  1  6  0  0  0
 29 26  1  0  0  0  0
 29 27  1  0  0  0  0
 30 32  1  1  0  0  0
 30 28  1  0  0  0  0
 32 34  1  0  0  0  0
 33 32  2  0  0  0  0
 35 36  1  0  0  0  0
 36 37  1  0  0  0  0
 37 39  1  0  0  0  0
 38 37  1  0  0  0  0
M  END
>  <MODEL>
5

>  <REMARK>
 VINA RESULT:      -8.3      2.627      6.759
  Name = 
  10 active torsions:
  status: ('A' for Active; 'I' for Inactive)
    1  A    between atoms: C_4  and  N_9
    2  A    between atoms: C_4  and  N_18
    3  A    between atoms: C_7  and  N_18
    4  A    between atoms: N_8  and  C_37
    5  A    between atoms: C_10  and  C_37
    6  A    between atoms: C_12  and  C_16
    7  A    between atoms: C_16  and  C_19
    8  A    between atoms: C_16  and  N_27
    9  A    between atoms: C_23  and  C_34
   10  A    between atoms: N_27  and  C_32
                            x       y       z     vdW  Elec       q    Type
                         _______ _______ _______ _____ _____    ______ ____

>  <TORSDO>
F 10

$$$$
=
 OpenBabel10222420443D

 39 42  0  0  1  0  0  0  0  0999 V2000
  188.7460  177.8230  140.0270 C   0  0  2  0  0  3  0  0  0  0  0  0
  186.2040  178.3010  139.6340 C   0  0  0  0  0  0  0  0  0  0  0  0
  185.7950  179.3650  141.6200 N   0  0  0  0  0  0  0  0  0  0  0  0
  184.8610  177.6610  137.6630 C   0  0  0  0  0  3  0  0  0  0  0  0
  187.3790  178.3660  140.3660 C   0  0  0  0  0  0  0  0  0  0  0  0
  186.0370  177.7250  138.3900 C   0  0  0  0  0  3  0  0  0  0  0  0
  185.2220  178.9540  140.4740 C   0  0  0  0  0  0  0  0  0  0  0  0
  187.0970  179.0110  141.5600 C   0  0  0  0  0  3  0  0  0  0  0  0
  183.9150  179.1650  140.2140 N   0  0  0  0  0  0  0  0  0  0  0  0
  182.5390  177.9090  136.9520 C   0  0  0  0  0  1  0  0  0  0  0  0
  183.5900  178.1410  137.9750 C   0  0  0  0  0  0  0  0  0  0  0  0
  183.1830  178.8150  139.1280 C   0  0  0  0  0  3  0  0  0  0  0  0
  189.0380  176.7630  142.2970 N   0  0  0  0  0  2  0  0  0  0  0  0
  189.6280  177.4110  141.1710 C   0  0  0  0  0  0  0  0  0  0  0  0
  190.8730  177.5950  141.1290 O   0  0  0  0  0  0  0  0  0  0  0  0
  189.8250  176.3400  143.4460 C   0  0  0  0  0  2  0  0  0  0  0  0
  190.4060  177.0930  146.8440 C   0  0  0  0  0  3  0  0  0  0  0  0
  189.8310  178.6830  143.9540 F   0  0  0  0  0  0  0  0  0  0  0  0
  188.6340  177.2650  145.4180 C   0  0  0  0  0  0  0  0  0  0  0  0
  189.8150  177.4190  144.5230 C   0  0  1  0  0  0  0  0  0  0  0  0
  189.0900  177.1090  146.7790 C   0  0  0  0  0  0  0  0  0  0  0  0
  191.0070  177.2480  145.4790 C   0  0  0  0  0  2  0  0  0  0  0  0
  188.2610  176.9890  147.8870 O   0  0  0  0  0  1  0  0  0  0  0  0
  187.3730  177.4840  145.0670 C   0  0  0  0  0  2  0  0  0  0  0  0
  189.4400  178.5670  138.9720 N   0  0  0  0  0  2  0  0  0  0  0  0
  188.8740  177.9970  136.6740 C   0  0  0  0  0  2  0  0  0  0  0  0
  189.5150  176.2340  138.2170 C   0  0  2  0  0  3  0  0  0  0  0  0
  188.6660  175.6310  137.0930 C   0  0  1  0  0  3  0  0  0  0  0  0
  189.7760  177.6940  137.8540 C   0  0  2  0  0  3  0  0  0  0  0  0
  188.6440  176.6650  135.9830 C   0  0  1  0  0  3  0  0  0  0  0  0
  189.1780  174.4260  136.6160 O   0  0  0  0  0  1  0  0  0  0  0  0
  187.3520  176.6500  135.2130 C   0  0  0  0  0  0  0  0  0  0  0  0
  186.7200  175.5710  135.0500 O   0  0  0  0  0  0  0  0  0  0  0  0
  186.8710  177.8390  134.5940 N   0  0  0  0  0  1  0  0  0  0  0  0
  190.7480  175.4850  138.5060 N   0  0  0  0  0  2  0  0  0  0  0  0
  191.9310  176.2140  138.0500 C   0  0  0  0  0  2  0  0  0  0  0  0
  192.5860  175.4770  136.9780 N   0  0  0  0  0  0  0  0  0  0  0  0
  192.4240  174.0590  137.2630 C   0  0  0  0  0  1  0  0  0  0  0  0
  194.0040  175.7630  137.0920 C   0  0  0  0  0  1  0  0  0  0  0  0
  1 25  1  1  0  0  0
  1  5  1  0  0  0  0
  1 14  1  0  0  0  0
  2  5  1  0  0  0  0
  2  7  1  0  0  0  0
  4 11  2  0  0  0  0
  4  6  1  0  0  0  0
  5  8  2  0  0  0  0
  6  2  2  0  0  0  0
  7  3  2  0  0  0  0
  8  3  1  0  0  0  0
  9  7  1  0  0  0  0
 10 11  1  0  0  0  0
 11 12  1  0  0  0  0
 12  9  2  0  0  0  0
 13 16  1  0  0  0  0
 14 13  1  0  0  0  0
 15 14  2  0  0  0  0
 16 20  1  0  0  0  0
 19 21  1  0  0  0  0
 20 18  1  6  0  0  0
 20 19  1  0  0  0  0
 20 22  1  0  0  0  0
 21 17  2  0  0  0  0
 21 23  1  0  0  0  0
 22 17  1  0  0  0  0
 24 19  2  0  0  0  0
 26 29  1  0  0  0  0
 27 35  1  6  0  0  0
 28 31  1  6  0  0  0
 28 27  1  0  0  0  0
 29 27  1  0  0  0  0
 29 25  1  1  0  0  0
 30 32  1  1  0  0  0
 30 26  1  0  0  0  0
 30 28  1  0  0  0  0
 33 32  2  0  0  0  0
 34 32  1  0  0  0  0
 36 35  1  0  0  0  0
 37 39  1  0  0  0  0
 37 38  1  0  0  0  0
 37 36  1  0  0  0  0
M  END
>  <MODEL>
6

>  <REMARK>
 VINA RESULT:      -8.2      3.208      7.522
  Name = 
  10 active torsions:
  status: ('A' for Active; 'I' for Inactive)
    1  A    between atoms: C_4  and  N_9
    2  A    between atoms: C_4  and  N_18
    3  A    between atoms: C_7  and  N_18
    4  A    between atoms: N_8  and  C_37
    5  A    between atoms: C_10  and  C_37
    6  A    between atoms: C_12  and  C_16
    7  A    between atoms: C_16  and  C_19
    8  A    between atoms: C_16  and  N_27
    9  A    between atoms: C_23  and  C_34
   10  A    between atoms: N_27  and  C_32
                            x       y       z     vdW  Elec       q    Type
                         _______ _______ _______ _____ _____    ______ ____

>  <TORSDO>
F 10

$$$$
=
 OpenBabel10222420443D

 39 42  0  0  1  0  0  0  0  0999 V2000
  184.1800  178.3160  141.6410 C   0  0  2  0  0  3  0  0  0  0  0  0
  185.0560  178.3260  144.1070 C   0  0  0  0  0  0  0  0  0  0  0  0
  183.2310  179.3240  145.0620 N   0  0  0  0  0  0  0  0  0  0  0  0
  187.2400  177.4980  144.9090 C   0  0  0  0  0  3  0  0  0  0  0  0
  184.1090  178.5760  143.1260 C   0  0  0  0  0  0  0  0  0  0  0  0
  186.2970  177.7460  143.9270 C   0  0  0  0  0  3  0  0  0  0  0  0
  184.4490  178.8170  145.3250 C   0  0  0  0  0  0  0  0  0  0  0  0
  183.0210  179.1820  143.7350 C   0  0  0  0  0  3  0  0  0  0  0  0
  184.9590  178.7980  146.5740 N   0  0  0  0  0  0  0  0  0  0  0  0
  188.3900  177.3470  147.0570 C   0  0  0  0  0  1  0  0  0  0  0  0
  187.1920  177.7530  146.2780 C   0  0  0  0  0  0  0  0  0  0  0  0
  186.1570  178.3390  147.0100 C   0  0  0  0  0  3  0  0  0  0  0  0
  185.8200  178.1030  139.7370 N   0  0  0  0  0  2  0  0  0  0  0  0
  185.4060  178.7930  140.9150 C   0  0  0  0  0  0  0  0  0  0  0  0
  186.0410  179.8070  141.3100 O   0  0  0  0  0  0  0  0  0  0  0  0
  187.0000  178.5010  138.9830 C   0  0  0  0  0  2  0  0  0  0  0  0
  185.6890  175.9580  136.9160 C   0  0  0  0  0  3  0  0  0  0  0  0
  187.3890  178.8300  136.6400 F   0  0  0  0  0  0  0  0  0  0  0  0
  187.7770  176.6650  137.5030 C   0  0  0  0  0  0  0  0  0  0  0  0
  186.9580  177.9070  137.5790 C   0  0  1  0  0  0  0  0  0  0  0  0
  186.9390  175.5710  137.0700 C   0  0  0  0  0  0  0  0  0  0  0  0
  185.5410  177.4160  137.2360 C   0  0  0  0  0  2  0  0  0  0  0  0
  187.3790  174.2730  136.8420 O   0  0  0  0  0  1  0  0  0  0  0  0
  189.1010  176.6150  137.5770 C   0  0  0  0  0  2  0  0  0  0  0  0
  182.9240  178.5690  140.9290 N   0  0  0  0  0  2  0  0  0  0  0  0
  182.7960  176.4870  139.6730 C   0  0  0  0  0  2  0  0  0  0  0  0
  180.7470  177.6430  140.2790 C   0  0  2  0  0  3  0  0  0  0  0  0
  180.4810  176.7620  139.0540 C   0  0  1  0  0  3  0  0  0  0  0  0
  182.1640  177.3360  140.7590 C   0  0  2  0  0  3  0  0  0  0  0  0
  181.6420  175.7880  138.9780 C   0  0  1  0  0  3  0  0  0  0  0  0
  179.2760  176.0670  139.1390 O   0  0  0  0  0  1  0  0  0  0  0  0
  181.9840  175.4170  137.5610 C   0  0  0  0  0  0  0  0  0  0  0  0
  182.2760  174.2270  137.2670 O   0  0  0  0  0  0  0  0  0  0  0  0
  182.0610  176.4220  136.5540 N   0  0  0  0  0  1  0  0  0  0  0  0
  179.7400  177.5120  141.3430 N   0  0  0  0  0  2  0  0  0  0  0  0
  178.9310  178.7250  141.4590 C   0  0  0  0  0  2  0  0  0  0  0  0
  179.7450  179.8170  141.9750 N   0  0  0  0  0  0  0  0  0  0  0  0
  179.3770  180.0130  143.3690 C   0  0  0  0  0  1  0  0  0  0  0  0
  179.3250  181.0110  141.2640 C   0  0  0  0  0  1  0  0  0  0  0  0
  1 14  1  6  0  0  0
  1  5  1  0  0  0  0
  2  7  1  0  0  0  0
  3  7  2  0  0  0  0
  4 11  2  0  0  0  0
  5  8  2  0  0  0  0
  5  2  1  0  0  0  0
  6  2  2  0  0  0  0
  6  4  1  0  0  0  0
  7  9  1  0  0  0  0
  8  3  1  0  0  0  0
  9 12  2  0  0  0  0
 11 12  1  0  0  0  0
 11 10  1  0  0  0  0
 13 14  1  0  0  0  0
 14 15  2  0  0  0  0
 16 13  1  0  0  0  0
 17 21  2  0  0  0  0
 17 22  1  0  0  0  0
 19 24  2  0  0  0  0
 19 20  1  0  0  0  0
 20 18  1  6  0  0  0
 20 16  1  0  0  0  0
 21 19  1  0  0  0  0
 22 20  1  0  0  0  0
 23 21  1  0  0  0  0
 25  1  1  0  0  0  0
 26 29  1  0  0  0  0
 27 29  1  0  0  0  0
 27 35  1  1  0  0  0
 28 31  1  1  0  0  0
 28 27  1  0  0  0  0
 29 25  1  6  0  0  0
 30 32  1  6  0  0  0
 30 28  1  0  0  0  0
 30 26  1  0  0  0  0
 33 32  2  0  0  0  0
 34 32  1  0  0  0  0
 35 36  1  0  0  0  0
 36 37  1  0  0  0  0
 37 38  1  0  0  0  0
 39 37  1  0  0  0  0
M  END
>  <MODEL>
7

>  <REMARK>
 VINA RESULT:      -8.2      2.995      6.946
  Name = 
  10 active torsions:
  status: ('A' for Active; 'I' for Inactive)
    1  A    between atoms: C_4  and  N_9
    2  A    between atoms: C_4  and  N_18
    3  A    between atoms: C_7  and  N_18
    4  A    between atoms: N_8  and  C_37
    5  A    between atoms: C_10  and  C_37
    6  A    between atoms: C_12  and  C_16
    7  A    between atoms: C_16  and  C_19
    8  A    between atoms: C_16  and  N_27
    9  A    between atoms: C_23  and  C_34
   10  A    between atoms: N_27  and  C_32
                            x       y       z     vdW  Elec       q    Type
                         _______ _______ _______ _____ _____    ______ ____

>  <TORSDO>
F 10

$$$$
=
 OpenBabel10222420443D

 39 42  0  0  1  0  0  0  0  0999 V2000
  185.4060  178.7090  140.1960 C   0  0  2  0  0  3  0  0  0  0  0  0
  187.9380  178.0530  140.2670 C   0  0  0  0  0  0  0  0  0  0  0  0
  188.2340  177.7810  138.0130 N   0  0  0  0  0  0  0  0  0  0  0  0
  189.3540  177.8180  142.2770 C   0  0  0  0  0  3  0  0  0  0  0  0
  186.7460  178.3280  139.6150 C   0  0  0  0  0  0  0  0  0  0  0  0
  188.1620  178.0930  141.6300 C   0  0  0  0  0  3  0  0  0  0  0  0
  188.8590  177.7130  139.2040 C   0  0  0  0  0  0  0  0  0  0  0  0
  186.9580  178.1510  138.2570 C   0  0  0  0  0  3  0  0  0  0  0  0
  190.1610  177.3760  139.3080 N   0  0  0  0  0  0  0  0  0  0  0  0
  191.6780  177.2340  142.7410 C   0  0  0  0  0  1  0  0  0  0  0  0
  190.5900  177.4460  141.7520 C   0  0  0  0  0  0  0  0  0  0  0  0
  190.9350  177.2510  140.4130 C   0  0  0  0  0  3  0  0  0  0  0  0
  183.4620  178.2490  138.6560 N   0  0  0  0  0  2  0  0  0  0  0  0
  184.3540  179.1970  139.2410 C   0  0  0  0  0  0  0  0  0  0  0  0
  184.2280  180.4240  138.9860 O   0  0  0  0  0  0  0  0  0  0  0  0
  182.4220  178.6440  137.7180 C   0  0  0  0  0  2  0  0  0  0  0  0
  180.6020  177.1600  140.3530 C   0  0  0  0  0  3  0  0  0  0  0  0
  180.0430  178.6790  137.4210 F   0  0  0  0  0  0  0  0  0  0  0  0
  181.0060  176.6540  138.1650 C   0  0  0  0  0  0  0  0  0  0  0  0
  181.0620  178.1420  138.1910 C   0  0  1  0  0  0  0  0  0  0  0  0
  180.6960  176.1690  139.4900 C   0  0  0  0  0  0  0  0  0  0  0  0
  180.8430  178.4770  139.6760 C   0  0  0  0  0  2  0  0  0  0  0  0
  180.5170  174.8330  139.8270 O   0  0  0  0  0  1  0  0  0  0  0  0
  180.9950  175.9070  137.0690 C   0  0  0  0  0  2  0  0  0  0  0  0
  185.4910  179.4780  141.4400 N   0  0  0  0  0  2  0  0  0  0  0  0
  183.3900  178.5430  142.2390 C   0  0  0  0  0  2  0  0  0  0  0  0
  184.9050  179.5950  143.8200 C   0  0  2  0  0  3  0  0  0  0  0  0
  183.4830  179.6330  144.3890 C   0  0  1  0  0  3  0  0  0  0  0  0
  184.8590  178.7600  142.5410 C   0  0  2  0  0  3  0  0  0  0  0  0
  182.6800  178.6330  143.5780 C   0  0  1  0  0  3  0  0  0  0  0  0
  183.4330  179.3030  145.7420 O   0  0  0  0  0  1  0  0  0  0  0  0
  181.2420  179.0470  143.4210 C   0  0  0  0  0  0  0  0  0  0  0  0
  180.9510  180.1370  142.8600 O   0  0  0  0  0  0  0  0  0  0  0  0
  180.2010  178.2500  143.9780 N   0  0  0  0  0  1  0  0  0  0  0  0
  185.9210  179.1270  144.7750 N   0  0  0  0  0  2  0  0  0  0  0  0
  186.1800  177.6960  144.6160 C   0  0  0  0  0  2  0  0  0  0  0  0
  186.8020  177.1670  145.8210 N   0  0  0  0  0  0  0  0  0  0  0  0
  186.5590  178.1220  146.8910 C   0  0  0  0  0  1  0  0  0  0  0  0
  188.2330  177.1720  145.5780 C   0  0  0  0  0  1  0  0  0  0  0  0
  1 14  1  6  0  0  0
  1 25  1  0  0  0  0
  2  6  2  0  0  0  0
  3  8  1  0  0  0  0
  3  7  2  0  0  0  0
  5  1  1  0  0  0  0
  5  2  1  0  0  0  0
  6  4  1  0  0  0  0
  7  9  1  0  0  0  0
  7  2  1  0  0  0  0
  8  5  2  0  0  0  0
  9 12  2  0  0  0  0
 11  4  2  0  0  0  0
 11 10  1  0  0  0  0
 12 11  1  0  0  0  0
 13 14  1  0  0  0  0
 15 14  2  0  0  0  0
 16 20  1  0  0  0  0
 16 13  1  0  0  0  0
 19 20  1  0  0  0  0
 19 21  1  0  0  0  0
 20 18  1  6  0  0  0
 20 22  1  0  0  0  0
 21 23  1  0  0  0  0
 21 17  2  0  0  0  0
 22 17  1  0  0  0  0
 24 19  2  0  0  0  0
 26 29  1  0  0  0  0
 26 30  1  0  0  0  0
 27 28  1  0  0  0  0
 27 35  1  1  0  0  0
 28 31  1  1  0  0  0
 29 25  1  6  0  0  0
 29 27  1  0  0  0  0
 30 32  1  6  0  0  0
 30 28  1  0  0  0  0
 32 34  1  0  0  0  0
 33 32  2  0  0  0  0
 36 35  1  0  0  0  0
 36 37  1  0  0  0  0
 37 38  1  0  0  0  0
 39 37  1  0  0  0  0
M  END
>  <MODEL>
8

>  <REMARK>
 VINA RESULT:      -8.1      2.576      5.871
  Name = 
  10 active torsions:
  status: ('A' for Active; 'I' for Inactive)
    1  A    between atoms: C_4  and  N_9
    2  A    between atoms: C_4  and  N_18
    3  A    between atoms: C_7  and  N_18
    4  A    between atoms: N_8  and  C_37
    5  A    between atoms: C_10  and  C_37
    6  A    between atoms: C_12  and  C_16
    7  A    between atoms: C_16  and  C_19
    8  A    between atoms: C_16  and  N_27
    9  A    between atoms: C_23  and  C_34
   10  A    between atoms: N_27  and  C_32
                            x       y       z     vdW  Elec       q    Type
                         _______ _______ _______ _____ _____    ______ ____

>  <TORSDO>
F 10

$$$$
=
 OpenBabel10222420443D

 39 42  0  0  1  0  0  0  0  0999 V2000
  189.5200  177.1640  142.7110 C   0  0  2  0  0  3  0  0  0  0  0  0
  189.8340  177.3920  145.2980 C   0  0  0  0  0  0  0  0  0  0  0  0
  192.0890  177.0030  145.3550 N   0  0  0  0  0  0  0  0  0  0  0  0
  188.0760  177.8440  146.9730 C   0  0  0  0  0  3  0  0  0  0  0  0
  190.2940  177.1890  144.0060 C   0  0  0  0  0  0  0  0  0  0  0  0
  188.5310  177.6430  145.6810 C   0  0  0  0  0  3  0  0  0  0  0  0
  191.0160  177.2660  146.1230 C   0  0  0  0  0  0  0  0  0  0  0  0
  191.6580  176.9540  144.0760 C   0  0  0  0  0  3  0  0  0  0  0  0
  191.1110  177.3910  147.4630 N   0  0  0  0  0  0  0  0  0  0  0  0
  187.9720  178.1100  149.3970 C   0  0  0  0  0  1  0  0  0  0  0  0
  188.7780  177.8490  148.1760 C   0  0  0  0  0  0  0  0  0  0  0  0
  190.1440  177.6420  148.3780 C   0  0  0  0  0  3  0  0  0  0  0  0
  187.1030  177.8440  142.4730 N   0  0  0  0  0  2  0  0  0  0  0  0
  188.0570  176.8310  142.7870 C   0  0  0  0  0  0  0  0  0  0  0  0
  187.6700  175.6700  143.0830 O   0  0  0  0  0  0  0  0  0  0  0  0
  185.6690  177.6010  142.5310 C   0  0  0  0  0  2  0  0  0  0  0  0
  183.6260  179.0050  145.0430 C   0  0  0  0  0  3  0  0  0  0  0  0
  185.4370  179.9840  142.4020 F   0  0  0  0  0  0  0  0  0  0  0  0
  183.4720  178.7280  142.7840 C   0  0  0  0  0  0  0  0  0  0  0  0
  184.9380  178.8470  143.0180 C   0  0  1  0  0  0  0  0  0  0  0  0
  182.7790  178.8670  144.0440 C   0  0  0  0  0  0  0  0  0  0  0  0
  185.0410  178.9790  144.5460 C   0  0  0  0  0  2  0  0  0  0  0  0
  181.3980  178.8580  144.1980 O   0  0  0  0  0  1  0  0  0  0  0  0
  182.8820  178.7430  141.5950 C   0  0  0  0  0  2  0  0  0  0  0  0
  190.2270  176.5120  141.6050 N   0  0  0  0  0  2  0  0  0  0  0  0
  188.9300  177.9880  140.1660 C   0  0  0  0  0  2  0  0  0  0  0  0
  190.6600  176.5890  139.1910 C   0  0  2  0  0  3  0  0  0  0  0  0
  189.6330  176.9410  138.1100 C   0  0  1  0  0  3  0  0  0  0  0  0
  190.2950  177.3880  140.4410 C   0  0  2  0  0  3  0  0  0  0  0  0
  188.8330  178.1090  138.6570 C   0  0  1  0  0  3  0  0  0  0  0  0
  190.2230  177.2900  136.8970 O   0  0  0  0  0  1  0  0  0  0  0  0
  187.4050  178.0940  138.1850 C   0  0  0  0  0  0  0  0  0  0  0  0
  187.1270  177.7420  137.0070 O   0  0  0  0  0  0  0  0  0  0  0  0
  186.3620  178.5550  139.0390 N   0  0  0  0  0  1  0  0  0  0  0  0
  192.0580  176.7790  138.7760 N   0  0  0  0  0  2  0  0  0  0  0  0
  192.6080  175.5580  138.1870 C   0  0  0  0  0  2  0  0  0  0  0  0
  193.9840  175.7850  137.7680 N   0  0  0  0  0  0  0  0  0  0  0  0
  193.9520  176.1840  136.3690 C   0  0  0  0  0  1  0  0  0  0  0  0
  194.6440  174.4930  137.8160 C   0  0  0  0  0  1  0  0  0  0  0  0
  1 25  1  6  0  0  0
  1 14  1  0  0  0  0
  1  5  1  0  0  0  0
  2  6  2  0  0  0  0
  2  7  1  0  0  0  0
  3  7  2  0  0  0  0
  4 11  2  0  0  0  0
  5  8  2  0  0  0  0
  5  2  1  0  0  0  0
  6  4  1  0  0  0  0
  7  9  1  0  0  0  0
  8  3  1  0  0  0  0
  9 12  2  0  0  0  0
 11 12  1  0  0  0  0
 11 10  1  0  0  0  0
 13 16  1  0  0  0  0
 13 14  1  0  0  0  0
 14 15  2  0  0  0  0
 16 20  1  0  0  0  0
 19 20  1  0  0  0  0
 19 21  1  0  0  0  0
 20 18  1  6  0  0  0
 20 22  1  0  0  0  0
 21 23  1  0  0  0  0
 21 17  2  0  0  0  0
 22 17  1  0  0  0  0
 24 19  2  0  0  0  0
 26 29  1  0  0  0  0
 27 35  1  6  0  0  0
 27 29  1  0  0  0  0
 28 31  1  6  0  0  0
 28 30  1  0  0  0  0
 28 27  1  0  0  0  0
 29 25  1  1  0  0  0
 30 32  1  1  0  0  0
 30 26  1  0  0  0  0
 32 34  1  0  0  0  0
 33 32  2  0  0  0  0
 36 35  1  0  0  0  0
 37 39  1  0  0  0  0
 37 36  1  0  0  0  0
 38 37  1  0  0  0  0
M  END
>  <MODEL>
9

>  <REMARK>
 VINA RESULT:      -8.0      2.666      5.025
  Name = 
  10 active torsions:
  status: ('A' for Active; 'I' for Inactive)
    1  A    between atoms: C_4  and  N_9
    2  A    between atoms: C_4  and  N_18
    3  A    between atoms: C_7  and  N_18
    4  A    between atoms: N_8  and  C_37
    5  A    between atoms: C_10  and  C_37
    6  A    between atoms: C_12  and  C_16
    7  A    between atoms: C_16  and  C_19
    8  A    between atoms: C_16  and  N_27
    9  A    between atoms: C_23  and  C_34
   10  A    between atoms: N_27  and  C_32
                            x       y       z     vdW  Elec       q    Type
                         _______ _______ _______ _____ _____    ______ ____

>  <TORSDO>
F 10

$$$$
