=
 OpenBabel10222417023D

 55 58  0  0  1  0  0  0  0  0999 V2000
  186.0420  178.2790  141.0550 C   0  0  0  0  0  2  0  0  0  0  0  0
  184.9400  179.3460  141.1790 C   0  0  2  0  0  3  0  0  0  0  0  0
  184.3600  178.7240  138.8990 O   0  0  0  0  0  1  0  0  0  0  0  0
  182.8380  178.5440  142.2100 C   0  0  2  0  0  3  0  0  0  0  0  0
  184.1850  179.2090  142.5030 C   0  0  0  0  0  2  0  0  0  0  0  0
  182.9400  178.1150  140.7500 C   0  0  2  0  0  3  0  0  0  0  0  0
  183.8580  179.1510  140.1290 C   0  0  1  0  0  3  0  0  0  0  0  0
  180.3550  178.1360  143.8820 O   0  0  0  0  0  1  0  0  0  0  0  0
  180.5570  179.3080  143.1530 C   0  0  0  0  0  0  0  0  0  0  0  0
  181.7440  179.5030  142.3770 N   0  0  0  0  0  2  0  0  0  0  0  0
  179.6950  180.2240  143.2050 O   0  0  0  0  0  0  0  0  0  0  0  0
  181.5670  177.9200  140.0580 C   0  0  1  0  0  3  0  0  0  0  0  0
  181.2040  178.8500  138.9360 C   0  0  0  0  0  0  0  0  0  0  0  0
  180.7440  180.1280  139.2220 O   0  0  0  0  0  1  0  0  0  0  0  0
  181.3260  178.4880  137.7350 O   0  0  0  0  0  0  0  0  0  0  0  0
  181.2200  176.5730  139.8160 O   0  0  0  0  0  0  0  0  0  0  0  0
  182.3540  175.8970  139.3370 C   0  0  0  0  0  2  0  0  0  0  0  0
  181.9450  174.8800  138.3840 N   0  0  0  0  0  2  0  0  0  0  0  0
  184.7040  175.0560  136.3990 C   0  0  2  0  0  0  0  0  0  0  0  0
  182.6030  175.1840  137.1250 C   0  0  2  0  0  3  0  0  0  0  0  0
  185.8110  174.2600  137.0500 C   0  0  0  0  0  2  0  0  0  0  0  0
  185.4230  176.0890  135.5440 C   0  0  2  0  0  3  0  0  0  0  0  0
  182.6320  174.0360  136.3150 O   0  0  0  0  0  0  0  0  0  0  0  0
  186.7010  176.4170  136.2920 C   0  0  0  0  0  2  0  0  0  0  0  0
  183.9070  175.6490  137.3800 O   0  0  0  0  0  0  0  0  0  0  0  0
  183.8110  174.1740  135.5870 C   0  0  0  0  0  2  0  0  0  0  0  0
  186.9710  175.2380  137.2220 C   0  0  0  0  0  2  0  0  0  0  0  0
  184.6530  177.2390  135.3650 O   0  0  0  0  0  1  0  0  0  0  0  0
  187.1610  178.4440  142.0810 C   0  0  0  0  0  2  0  0  0  0  0  0
  188.5360  178.1910  141.4830 C   0  0  1  0  0  3  0  0  0  0  0  0
  188.9630  176.7670  141.8140 C   0  0  0  0  0  2  0  0  0  0  0  0
  191.7530  177.9440  141.8860 O   0  0  0  0  0  0  0  0  0  0  0  0
  192.0980  178.9220  144.6440 N   0  0  0  0  0  1  0  0  0  0  0  0
  190.9420  177.8830  142.8010 C   0  0  0  0  0  0  0  0  0  0  0  0
  190.8480  178.8760  143.9050 C   0  0  1  0  0  3  0  0  0  0  0  0
  189.9600  176.7870  142.9690 C   0  0  1  0  0  3  0  0  0  0  0  0
  189.8060  178.3130  144.7480 N   0  0  0  0  0  0  0  0  0  0  0  0
  189.2980  177.2350  144.2280 C   0  0  0  0  0  0  0  0  0  0  0  0
  188.3440  176.4140  144.9230 N   0  0  0  0  0  0  0  0  0  0  0  0
  187.3230  176.8270  145.6160 C   0  0  0  0  0  3  0  0  0  0  0  0
  186.9650  178.2690  145.7840 C   0  0  0  0  0  2  0  0  0  0  0  0
  185.8150  179.7640  147.2430 O   0  0  0  0  0  1  0  0  0  0  0  0
  186.4740  178.5340  147.1940 C   0  0  2  0  0  3  0  0  0  0  0  0
  187.6530  178.5540  148.1320 C   0  0  0  0  0  1  0  0  0  0  0  0
  188.4920  178.3820  139.9810 C   0  0  0  0  0  2  0  0  0  0  0  0
  189.2580  177.2700  139.2910 C   0  0  0  0  0  2  0  0  0  0  0  0
  189.7310  177.7440  137.9350 C   0  0  0  0  0  2  0  0  0  0  0  0
  190.7810  176.8000  137.3680 C   0  0  0  0  0  2  0  0  0  0  0  0
  191.6680  176.3590  138.4350 N   0  0  0  0  0  2  0  0  0  0  0  0
  192.9940  176.2500  137.8570 C   0  0  0  0  0  2  0  0  0  0  0  0
  193.3590  174.7910  137.6740 C   0  0  0  0  0  2  0  0  0  0  0  0
  195.0620  174.5130  138.1190 S   0  0  0  0  0  0  0  0  0  0  0  0
  195.3580  172.7680  138.2730 C   0  0  0  0  0  1  0  0  0  0  0  0
  195.3360  175.1810  139.4370 O   0  0  0  0  0  0  0  0  0  0  0  0
  195.9800  175.0860  137.0760 O   0  0  0  0  0  0  0  0  0  0  0  0
  1 29  1  0  0  0  0
  2  1  1  6  0  0  0
  2  5  1  0  0  0  0
  4 10  1  6  0  0  0
  4  5  1  0  0  0  0
  6 12  1  6  0  0  0
  6  4  1  0  0  0  0
  7  3  1  6  0  0  0
  7  6  1  0  0  0  0
  7  2  1  0  0  0  0
  9 11  2  0  0  0  0
  9  8  1  0  0  0  0
 10  9  1  0  0  0  0
 12 13  1  6  0  0  0
 13 14  1  0  0  0  0
 15 13  2  0  0  0  0
 16 12  1  0  0  0  0
 17 16  1  0  0  0  0
 18 17  1  0  0  0  0
 19 26  1  6  0  0  0
 19 21  1  0  0  0  0
 19 25  1  0  0  0  0
 20 25  1  0  0  0  0
 20 18  1  1  0  0  0
 21 27  1  0  0  0  0
 22 28  1  1  0  0  0
 22 24  1  0  0  0  0
 22 19  1  0  0  0  0
 23 20  1  0  0  0  0
 24 27  1  0  0  0  0
 26 23  1  0  0  0  0
 30 45  1  6  0  0  0
 30 31  1  0  0  0  0
 30 29  1  0  0  0  0
 32 34  2  0  0  0  0
 34 36  1  0  0  0  0
 34 35  1  0  0  0  0
 35 33  1  1  0  0  0
 35 37  1  0  0  0  0
 36 31  1  6  0  0  0
 36 38  1  0  0  0  0
 38 37  2  0  0  0  0
 38 39  1  0  0  0  0
 39 40  2  0  0  0  0
 40 41  1  0  0  0  0
 41 43  1  0  0  0  0
 43 42  1  0  0  0  0
 43 44  1  1  0  0  0
 46 45  1  0  0  0  0
 47 46  1  0  0  0  0
 48 47  1  0  0  0  0
 48 49  1  0  0  0  0
 50 49  1  0  0  0  0
 51 50  1  0  0  0  0
 51 52  1  0  0  0  0
 52 53  1  0  0  0  0
 52 54  2  0  0  0  0
 55 52  2  0  0  0  0
M  END
>  <MODEL>
1

>  <REMARK>
 VINA RESULT:      -6.2      0.000      0.000
  Name = 
  23 active torsions:
  status: ('A' for Active; 'I' for Inactive)
    1  A    between atoms: C_1  and  C_23
    2  A    between atoms: C_1  and  C_47
    3  A    between atoms: C_2  and  C_29
    4  A    between atoms: S_5  and  C_31
    5  A    between atoms: C_7  and  C_20
    6  A    between atoms: C_8  and  N_45
    7  A    between atoms: N_9  and  C_26
    8  A    between atoms: N_9  and  C_47
    9  A    between atoms: N_12  and  C_49
   10  A    between atoms: C_15  and  C_16
   11  A    between atoms: C_15  and  C_23
   12  A    between atoms: C_16  and  C_40
   13  A    between atoms: C_16  and  C_55
   14  A    between atoms: C_19  and  C_43
   15  A    between atoms: C_20  and  O_38
   16  A    between atoms: C_20  and  C_46
   17  A    between atoms: C_21  and  O_38
   18  A    between atoms: C_21  and  N_45
   19  A    between atoms: C_25  and  C_40
   20  A    between atoms: C_26  and  C_31
   21  A    between atoms: C_29  and  C_55
   22  A    between atoms: C_30  and  N_42
   23  A    between atoms: C_41  and  C_43
                            x       y       z     vdW  Elec       q    Type
                         _______ _______ _______ _____ _____    ______ ____

>  <TORSDO>
F 23

$$$$
=
 OpenBabel10222417023D

 55 58  0  0  1  0  0  0  0  0999 V2000
  186.7760  178.3310  141.6160 C   0  0  0  0  0  2  0  0  0  0  0  0
  185.6100  179.3220  141.4490 C   0  0  2  0  0  3  0  0  0  0  0  0
  185.5590  178.5640  139.1370 O   0  0  0  0  0  1  0  0  0  0  0  0
  183.3910  178.4180  142.0670 C   0  0  2  0  0  3  0  0  0  0  0  0
  184.6040  179.1880  142.5950 C   0  0  0  0  0  2  0  0  0  0  0  0
  183.8220  177.9360  140.6870 C   0  0  2  0  0  3  0  0  0  0  0  0
  184.7860  179.0060  140.2110 C   0  0  1  0  0  3  0  0  0  0  0  0
  181.1120  178.6350  144.0410 O   0  0  0  0  0  1  0  0  0  0  0  0
  181.1390  179.3980  142.8730 C   0  0  0  0  0  0  0  0  0  0  0  0
  182.2300  179.3040  141.9510 N   0  0  0  0  0  2  0  0  0  0  0  0
  180.2030  180.2060  142.6420 O   0  0  0  0  0  0  0  0  0  0  0  0
  182.6390  177.6150  139.7380 C   0  0  1  0  0  3  0  0  0  0  0  0
  182.5260  178.3980  138.4620 C   0  0  0  0  0  0  0  0  0  0  0  0
  183.0670  177.8870  137.2900 O   0  0  0  0  0  0  0  0  0  0  0  0
  181.9330  179.5090  138.4390 O   0  0  0  0  0  1  0  0  0  0  0  0
  182.3670  176.2370  139.5880 O   0  0  0  0  0  0  0  0  0  0  0  0
  181.1710  176.0940  138.8670 C   0  0  0  0  0  2  0  0  0  0  0  0
  181.0310  174.7150  138.4310 N   0  0  0  0  0  2  0  0  0  0  0  0
  183.6450  173.5480  136.5900 C   0  0  2  0  0  0  0  0  0  0  0  0
  181.7660  174.5830  137.1850 C   0  0  2  0  0  3  0  0  0  0  0  0
  184.3360  172.4600  137.3790 C   0  0  0  0  0  2  0  0  0  0  0  0
  184.7240  174.1040  135.6730 C   0  0  2  0  0  3  0  0  0  0  0  0
  181.3380  173.4320  136.5010 O   0  0  0  0  0  0  0  0  0  0  0  0
  186.0210  173.9820  136.4500 C   0  0  0  0  0  2  0  0  0  0  0  0
  183.1440  174.5190  137.4600 O   0  0  0  0  0  0  0  0  0  0  0  0
  182.4800  173.0050  135.8270 C   0  0  0  0  0  2  0  0  0  0  0  0
  185.7880  172.9100  137.5110 C   0  0  0  0  0  2  0  0  0  0  0  0
  184.4810  175.4350  135.3330 O   0  0  0  0  0  1  0  0  0  0  0  0
  187.9390  178.6000  140.6650 C   0  0  0  0  0  2  0  0  0  0  0  0
  189.2860  178.2750  141.2910 C   0  0  1  0  0  3  0  0  0  0  0  0
  189.1880  178.4720  142.7990 C   0  0  0  0  0  2  0  0  0  0  0  0
  192.0370  177.6510  143.4200 O   0  0  0  0  0  0  0  0  0  0  0  0
  191.8760  176.2180  145.9890 N   0  0  0  0  0  1  0  0  0  0  0  0
  191.0330  177.4350  144.0870 C   0  0  0  0  0  0  0  0  0  0  0  0
  191.0220  177.3150  145.5690 C   0  0  1  0  0  3  0  0  0  0  0  0
  189.6850  177.2170  143.5120 C   0  0  1  0  0  3  0  0  0  0  0  0
  189.6340  176.9850  145.8490 N   0  0  0  0  0  0  0  0  0  0  0  0
  188.9130  176.9850  144.7670 C   0  0  0  0  0  0  0  0  0  0  0  0
  187.5390  176.5620  144.7500 N   0  0  0  0  0  0  0  0  0  0  0  0
  186.5010  177.2840  145.0550 C   0  0  0  0  0  3  0  0  0  0  0  0
  186.5830  178.7210  145.4650 C   0  0  0  0  0  2  0  0  0  0  0  0
  187.0210  178.4270  147.7910 O   0  0  0  0  0  1  0  0  0  0  0  0
  186.0720  178.8990  146.8820 C   0  0  2  0  0  3  0  0  0  0  0  0
  184.7880  178.1270  147.0450 C   0  0  0  0  0  1  0  0  0  0  0  0
  189.6710  176.8450  140.9800 C   0  0  0  0  0  2  0  0  0  0  0  0
  190.0200  176.7060  139.5110 C   0  0  0  0  0  2  0  0  0  0  0  0
  191.4820  177.0320  139.3030 C   0  0  0  0  0  2  0  0  0  0  0  0
  192.1000  176.1100  138.2620 C   0  0  0  0  0  2  0  0  0  0  0  0
  191.5890  176.4520  136.9430 N   0  0  0  0  0  2  0  0  0  0  0  0
  192.0480  175.4160  136.0370 C   0  0  0  0  0  2  0  0  0  0  0  0
  190.9410  175.0490  135.0680 C   0  0  0  0  0  2  0  0  0  0  0  0
  190.2080  173.4890  135.5210 S   0  0  0  0  0  0  0  0  0  0  0  0
  191.3270  172.1690  135.1190 C   0  0  0  0  0  1  0  0  0  0  0  0
  188.9310  173.3090  134.7500 O   0  0  0  0  0  0  0  0  0  0  0  0
  189.9050  173.4570  136.9930 O   0  0  0  0  0  0  0  0  0  0  0  0
  2  1  1  1  0  0  0
  2  5  1  0  0  0  0
  4 10  1  6  0  0  0
  4  5  1  0  0  0  0
  6 12  1  6  0  0  0
  6  4  1  0  0  0  0
  7  3  1  6  0  0  0
  7  6  1  0  0  0  0
  7  2  1  0  0  0  0
  9  8  1  0  0  0  0
 10  9  1  0  0  0  0
 11  9  2  0  0  0  0
 12 13  1  6  0  0  0
 14 13  2  0  0  0  0
 15 13  1  0  0  0  0
 16 12  1  0  0  0  0
 17 16  1  0  0  0  0
 18 17  1  0  0  0  0
 19 26  1  6  0  0  0
 19 21  1  0  0  0  0
 19 25  1  0  0  0  0
 20 25  1  0  0  0  0
 20 18  1  1  0  0  0
 21 27  1  0  0  0  0
 22 28  1  1  0  0  0
 22 24  1  0  0  0  0
 22 19  1  0  0  0  0
 23 20  1  0  0  0  0
 24 27  1  0  0  0  0
 26 23  1  0  0  0  0
 29  1  1  0  0  0  0
 30 29  1  6  0  0  0
 30 31  1  0  0  0  0
 32 34  2  0  0  0  0
 34 35  1  0  0  0  0
 35 37  1  0  0  0  0
 35 33  1  6  0  0  0
 36 31  1  1  0  0  0
 36 34  1  0  0  0  0
 36 38  1  0  0  0  0
 38 37  2  0  0  0  0
 39 38  1  0  0  0  0
 39 40  2  0  0  0  0
 40 41  1  0  0  0  0
 41 43  1  0  0  0  0
 43 44  1  6  0  0  0
 43 42  1  0  0  0  0
 45 30  1  0  0  0  0
 46 45  1  0  0  0  0
 47 46  1  0  0  0  0
 48 47  1  0  0  0  0
 49 48  1  0  0  0  0
 50 49  1  0  0  0  0
 51 52  1  0  0  0  0
 51 50  1  0  0  0  0
 52 55  2  0  0  0  0
 53 52  1  0  0  0  0
 54 52  2  0  0  0  0
M  END
>  <MODEL>
2

>  <REMARK>
 VINA RESULT:      -6.1      2.006      2.386
  Name = 
  23 active torsions:
  status: ('A' for Active; 'I' for Inactive)
    1  A    between atoms: C_1  and  C_23
    2  A    between atoms: C_1  and  C_47
    3  A    between atoms: C_2  and  C_29
    4  A    between atoms: S_5  and  C_31
    5  A    between atoms: C_7  and  C_20
    6  A    between atoms: C_8  and  N_45
    7  A    between atoms: N_9  and  C_26
    8  A    between atoms: N_9  and  C_47
    9  A    between atoms: N_12  and  C_49
   10  A    between atoms: C_15  and  C_16
   11  A    between atoms: C_15  and  C_23
   12  A    between atoms: C_16  and  C_40
   13  A    between atoms: C_16  and  C_55
   14  A    between atoms: C_19  and  C_43
   15  A    between atoms: C_20  and  O_38
   16  A    between atoms: C_20  and  C_46
   17  A    between atoms: C_21  and  O_38
   18  A    between atoms: C_21  and  N_45
   19  A    between atoms: C_25  and  C_40
   20  A    between atoms: C_26  and  C_31
   21  A    between atoms: C_29  and  C_55
   22  A    between atoms: C_30  and  N_42
   23  A    between atoms: C_41  and  C_43
                            x       y       z     vdW  Elec       q    Type
                         _______ _______ _______ _____ _____    ______ ____

>  <TORSDO>
F 23

$$$$
=
 OpenBabel10222417023D

 55 58  0  0  1  0  0  0  0  0999 V2000
  186.6610  178.1950  140.9340 C   0  0  0  0  0  2  0  0  0  0  0  0
  185.4640  179.1580  140.8630 C   0  0  2  0  0  3  0  0  0  0  0  0
  185.4170  178.6090  138.4930 O   0  0  0  0  0  1  0  0  0  0  0  0
  183.2790  178.1310  141.4100 C   0  0  2  0  0  3  0  0  0  0  0  0
  184.4720  178.8900  141.9970 C   0  0  0  0  0  2  0  0  0  0  0  0
  183.7140  177.7880  139.9890 C   0  0  2  0  0  3  0  0  0  0  0  0
  184.6390  178.9280  139.6060 C   0  0  1  0  0  3  0  0  0  0  0  0
  181.5310  178.8330  143.7730 O   0  0  0  0  0  1  0  0  0  0  0  0
  181.2480  179.3060  142.4920 C   0  0  0  0  0  0  0  0  0  0  0  0
  182.0900  178.9860  141.3800 N   0  0  0  0  0  2  0  0  0  0  0  0
  180.2520  180.0550  142.3170 O   0  0  0  0  0  0  0  0  0  0  0  0
  182.5340  177.5150  139.0220 C   0  0  1  0  0  3  0  0  0  0  0  0
  181.3530  176.7510  139.5490 C   0  0  0  0  0  0  0  0  0  0  0  0
  181.5160  175.4440  139.9860 O   0  0  0  0  0  1  0  0  0  0  0  0
  180.2150  177.2890  139.6120 O   0  0  0  0  0  0  0  0  0  0  0  0
  182.1850  178.6090  138.2010 O   0  0  0  0  0  0  0  0  0  0  0  0
  181.5720  178.1180  137.0370 C   0  0  0  0  0  2  0  0  0  0  0  0
  181.1220  179.2310  136.2200 N   0  0  0  0  0  2  0  0  0  0  0  0
  180.2390  182.4620  136.8300 C   0  0  2  0  0  0  0  0  0  0  0  0
  180.9570  180.3720  137.1050 C   0  0  2  0  0  3  0  0  0  0  0  0
  179.4380  182.9670  135.6530 C   0  0  0  0  0  2  0  0  0  0  0  0
  180.8570  183.7100  137.4410 C   0  0  2  0  0  3  0  0  0  0  0  0
  179.6560  180.3760  137.6370 O   0  0  0  0  0  0  0  0  0  0  0  0
  181.1110  184.6500  136.2770 C   0  0  0  0  0  2  0  0  0  0  0  0
  181.2090  181.5580  136.3900 O   0  0  0  0  0  0  0  0  0  0  0  0
  179.3690  181.7290  137.8000 C   0  0  0  0  0  2  0  0  0  0  0  0
  180.1820  184.2030  135.1520 C   0  0  0  0  0  2  0  0  0  0  0  0
  182.0490  183.4260  138.1080 O   0  0  0  0  0  1  0  0  0  0  0  0
  187.8730  178.6770  140.1390 C   0  0  0  0  0  2  0  0  0  0  0  0
  189.1870  178.2760  140.7880 C   0  0  1  0  0  3  0  0  0  0  0  0
  189.0960  178.5360  142.2860 C   0  0  0  0  0  2  0  0  0  0  0  0
  191.9350  177.7580  143.0040 O   0  0  0  0  0  0  0  0  0  0  0  0
  191.7180  176.4030  145.6110 N   0  0  0  0  0  1  0  0  0  0  0  0
  190.9150  177.5540  143.6510 C   0  0  0  0  0  0  0  0  0  0  0  0
  190.8670  177.4800  145.1360 C   0  0  1  0  0  3  0  0  0  0  0  0
  189.5840  177.3080  143.0490 C   0  0  1  0  0  3  0  0  0  0  0  0
  189.4750  177.1470  145.3900 N   0  0  0  0  0  0  0  0  0  0  0  0
  188.7820  177.1070  144.2910 C   0  0  0  0  0  0  0  0  0  0  0  0
  187.4120  176.6730  144.2520 N   0  0  0  0  0  0  0  0  0  0  0  0
  186.4730  176.9920  145.0940 C   0  0  0  0  0  3  0  0  0  0  0  0
  186.6810  177.9060  146.2600 C   0  0  0  0  0  2  0  0  0  0  0  0
  185.7910  179.8450  147.3250 O   0  0  0  0  0  1  0  0  0  0  0  0
  185.8340  179.1560  146.1120 C   0  0  2  0  0  3  0  0  0  0  0  0
  184.4380  178.7610  145.7050 C   0  0  0  0  0  1  0  0  0  0  0  0
  189.4660  176.8100  140.5340 C   0  0  0  0  0  2  0  0  0  0  0  0
  190.7180  176.6540  139.6920 C   0  0  0  0  0  2  0  0  0  0  0  0
  190.3350  176.4920  138.2370 C   0  0  0  0  0  2  0  0  0  0  0  0
  191.0990  175.3400  137.6020 C   0  0  0  0  0  2  0  0  0  0  0  0
  192.5140  175.4560  137.9250 N   0  0  0  0  0  2  0  0  0  0  0  0
  193.1850  175.8780  136.7110 C   0  0  0  0  0  2  0  0  0  0  0  0
  193.8080  174.6800  136.0210 C   0  0  0  0  0  2  0  0  0  0  0  0
  195.3910  174.2980  136.7430 S   0  0  0  0  0  0  0  0  0  0  0  0
  196.6800  174.6780  135.5810 C   0  0  0  0  0  1  0  0  0  0  0  0
  195.4360  172.8320  137.0710 O   0  0  0  0  0  0  0  0  0  0  0  0
  195.6020  175.0920  138.0010 O   0  0  0  0  0  0  0  0  0  0  0  0
  2  1  1  1  0  0  0
  2  5  1  0  0  0  0
  4 10  1  6  0  0  0
  4  5  1  0  0  0  0
  6 12  1  6  0  0  0
  6  4  1  0  0  0  0
  7  3  1  6  0  0  0
  7  6  1  0  0  0  0
  7  2  1  0  0  0  0
  9  8  1  0  0  0  0
 10  9  1  0  0  0  0
 11  9  2  0  0  0  0
 12 16  1  1  0  0  0
 12 13  1  0  0  0  0
 13 15  2  0  0  0  0
 13 14  1  0  0  0  0
 17 16  1  0  0  0  0
 18 17  1  0  0  0  0
 19 21  1  6  0  0  0
 19 22  1  0  0  0  0
 19 26  1  0  0  0  0
 20 18  1  6  0  0  0
 20 23  1  0  0  0  0
 22 28  1  6  0  0  0
 23 26  1  0  0  0  0
 24 22  1  0  0  0  0
 25 19  1  0  0  0  0
 25 20  1  0  0  0  0
 27 21  1  0  0  0  0
 27 24  1  0  0  0  0
 29  1  1  0  0  0  0
 30 29  1  6  0  0  0
 30 31  1  0  0  0  0
 32 34  2  0  0  0  0
 34 35  1  0  0  0  0
 35 37  1  0  0  0  0
 35 33  1  6  0  0  0
 36 31  1  1  0  0  0
 36 34  1  0  0  0  0
 36 38  1  0  0  0  0
 38 37  2  0  0  0  0
 39 38  1  0  0  0  0
 39 40  2  0  0  0  0
 40 41  1  0  0  0  0
 43 44  1  1  0  0  0
 43 41  1  0  0  0  0
 43 42  1  0  0  0  0
 45 30  1  0  0  0  0
 46 45  1  0  0  0  0
 47 46  1  0  0  0  0
 48 49  1  0  0  0  0
 48 47  1  0  0  0  0
 50 49  1  0  0  0  0
 51 50  1  0  0  0  0
 51 52  1  0  0  0  0
 52 54  2  0  0  0  0
 52 55  2  0  0  0  0
 53 52  1  0  0  0  0
M  END
>  <MODEL>
3

>  <REMARK>
 VINA RESULT:      -5.9      2.404      4.140
  Name = 
  23 active torsions:
  status: ('A' for Active; 'I' for Inactive)
    1  A    between atoms: C_1  and  C_23
    2  A    between atoms: C_1  and  C_47
    3  A    between atoms: C_2  and  C_29
    4  A    between atoms: S_5  and  C_31
    5  A    between atoms: C_7  and  C_20
    6  A    between atoms: C_8  and  N_45
    7  A    between atoms: N_9  and  C_26
    8  A    between atoms: N_9  and  C_47
    9  A    between atoms: N_12  and  C_49
   10  A    between atoms: C_15  and  C_16
   11  A    between atoms: C_15  and  C_23
   12  A    between atoms: C_16  and  C_40
   13  A    between atoms: C_16  and  C_55
   14  A    between atoms: C_19  and  C_43
   15  A    between atoms: C_20  and  O_38
   16  A    between atoms: C_20  and  C_46
   17  A    between atoms: C_21  and  O_38
   18  A    between atoms: C_21  and  N_45
   19  A    between atoms: C_25  and  C_40
   20  A    between atoms: C_26  and  C_31
   21  A    between atoms: C_29  and  C_55
   22  A    between atoms: C_30  and  N_42
   23  A    between atoms: C_41  and  C_43
                            x       y       z     vdW  Elec       q    Type
                         _______ _______ _______ _____ _____    ______ ____

>  <TORSDO>
F 23

$$$$
=
 OpenBabel10222417023D

 55 58  0  0  1  0  0  0  0  0999 V2000
  185.3650  178.2780  141.0820 C   0  0  0  0  0  2  0  0  0  0  0  0
  184.1230  179.1820  140.9960 C   0  0  2  0  0  3  0  0  0  0  0  0
  184.1860  178.7030  138.6110 O   0  0  0  0  0  1  0  0  0  0  0  0
  181.9760  178.0310  141.4350 C   0  0  2  0  0  3  0  0  0  0  0  0
  183.1080  178.8300  142.0860 C   0  0  0  0  0  2  0  0  0  0  0  0
  182.4760  177.7540  140.0210 C   0  0  2  0  0  3  0  0  0  0  0  0
  183.3540  178.9490  139.7040 C   0  0  1  0  0  3  0  0  0  0  0  0
  180.4260  179.0590  143.8170 O   0  0  0  0  0  1  0  0  0  0  0  0
  179.9990  179.2990  142.5110 C   0  0  0  0  0  0  0  0  0  0  0  0
  180.7460  178.8260  141.3870 N   0  0  0  0  0  2  0  0  0  0  0  0
  178.9530  179.9730  142.3190 O   0  0  0  0  0  0  0  0  0  0  0  0
  181.3450  177.4510  139.0060 C   0  0  1  0  0  3  0  0  0  0  0  0
  181.1400  178.4140  137.8710 C   0  0  0  0  0  0  0  0  0  0  0  0
  180.4850  179.6160  138.0970 O   0  0  0  0  0  1  0  0  0  0  0  0
  181.5700  178.1480  136.7160 O   0  0  0  0  0  0  0  0  0  0  0  0
  181.2460  176.0950  138.6270 O   0  0  0  0  0  0  0  0  0  0  0  0
  182.5310  175.5300  138.6440 C   0  0  0  0  0  2  0  0  0  0  0  0
  182.6320  174.5260  137.5990 N   0  0  0  0  0  2  0  0  0  0  0  0
  185.6020  175.1100  136.0420 C   0  0  2  0  0  0  0  0  0  0  0  0
  183.4290  175.1010  136.5290 C   0  0  2  0  0  3  0  0  0  0  0  0
  186.6340  174.1670  136.6160 C   0  0  0  0  0  2  0  0  0  0  0  0
  186.4040  176.3000  135.5370 C   0  0  2  0  0  3  0  0  0  0  0  0
  183.5650  174.1700  135.4850 O   0  0  0  0  0  0  0  0  0  0  0  0
  187.5830  176.4270  136.4840 C   0  0  0  0  0  2  0  0  0  0  0  0
  184.6890  175.4740  137.0340 O   0  0  0  0  0  0  0  0  0  0  0  0
  184.8200  174.4520  134.9500 C   0  0  0  0  0  2  0  0  0  0  0  0
  187.7550  175.0610  137.1420 C   0  0  0  0  0  2  0  0  0  0  0  0
  185.6480  177.4720  135.5390 O   0  0  0  0  0  1  0  0  0  0  0  0
  185.7310  177.8880  142.5120 C   0  0  0  0  0  2  0  0  0  0  0  0
  187.0530  178.4910  142.9560 C   0  0  1  0  0  3  0  0  0  0  0  0
  187.7240  177.5390  143.9380 C   0  0  0  0  0  2  0  0  0  0  0  0
  185.9300  177.5670  146.3790 O   0  0  0  0  0  0  0  0  0  0  0  0
  187.7700  177.6900  148.6780 N   0  0  0  0  0  1  0  0  0  0  0  0
  187.1540  177.6020  146.3480 C   0  0  0  0  0  0  0  0  0  0  0  0
  188.0350  177.0380  147.4070 C   0  0  1  0  0  3  0  0  0  0  0  0
  187.9400  178.2490  145.2720 C   0  0  1  0  0  3  0  0  0  0  0  0
  189.3620  177.4040  146.9400 N   0  0  0  0  0  0  0  0  0  0  0  0
  189.3180  177.9980  145.7850 C   0  0  0  0  0  0  0  0  0  0  0  0
  190.4790  178.5770  145.1650 N   0  0  0  0  0  0  0  0  0  0  0  0
  191.5440  177.9440  144.7670 C   0  0  0  0  0  3  0  0  0  0  0  0
  191.7180  176.4630  144.8820 C   0  0  0  0  0  2  0  0  0  0  0  0
  191.9680  176.7950  142.5340 O   0  0  0  0  0  1  0  0  0  0  0  0
  191.7360  175.8220  143.5080 C   0  0  2  0  0  3  0  0  0  0  0  0
  190.4070  175.1590  143.2540 C   0  0  0  0  0  1  0  0  0  0  0  0
  187.9510  178.7130  141.7570 C   0  0  0  0  0  2  0  0  0  0  0  0
  188.7030  177.4380  141.4250 C   0  0  0  0  0  2  0  0  0  0  0  0
  188.8780  177.3260  139.9270 C   0  0  0  0  0  2  0  0  0  0  0  0
  190.1450  176.5540  139.5860 C   0  0  0  0  0  2  0  0  0  0  0  0
  191.2370  177.4870  139.3540 N   0  0  0  0  0  2  0  0  0  0  0  0
  192.3860  176.6940  138.9600 C   0  0  0  0  0  2  0  0  0  0  0  0
  192.1200  176.0280  137.6240 C   0  0  0  0  0  2  0  0  0  0  0  0
  193.6540  175.6320  136.8090 S   0  0  0  0  0  0  0  0  0  0  0  0
  194.6740  174.6700  137.9000 C   0  0  0  0  0  1  0  0  0  0  0  0
  194.3660  176.9080  136.4610 O   0  0  0  0  0  0  0  0  0  0  0  0
  193.3950  174.8520  135.5500 O   0  0  0  0  0  0  0  0  0  0  0  0
  1 29  1  0  0  0  0
  2  1  1  6  0  0  0
  2  5  1  0  0  0  0
  4 10  1  6  0  0  0
  4  5  1  0  0  0  0
  6 12  1  6  0  0  0
  6  4  1  0  0  0  0
  7  3  1  6  0  0  0
  7  6  1  0  0  0  0
  7  2  1  0  0  0  0
  9  8  1  0  0  0  0
 10  9  1  0  0  0  0
 11  9  2  0  0  0  0
 12 13  1  6  0  0  0
 13 14  1  0  0  0  0
 15 13  2  0  0  0  0
 16 17  1  0  0  0  0
 16 12  1  0  0  0  0
 18 17  1  0  0  0  0
 19 26  1  6  0  0  0
 19 21  1  0  0  0  0
 19 25  1  0  0  0  0
 20 25  1  0  0  0  0
 20 18  1  1  0  0  0
 21 27  1  0  0  0  0
 22 28  1  1  0  0  0
 22 19  1  0  0  0  0
 22 24  1  0  0  0  0
 23 20  1  0  0  0  0
 24 27  1  0  0  0  0
 26 23  1  0  0  0  0
 29 30  1  0  0  0  0
 30 45  1  6  0  0  0
 30 31  1  0  0  0  0
 34 32  2  0  0  0  0
 34 35  1  0  0  0  0
 35 33  1  1  0  0  0
 36 31  1  6  0  0  0
 36 38  1  0  0  0  0
 36 34  1  0  0  0  0
 37 35  1  0  0  0  0
 38 37  2  0  0  0  0
 39 38  1  0  0  0  0
 40 41  1  0  0  0  0
 40 39  2  0  0  0  0
 42 43  1  0  0  0  0
 43 44  1  6  0  0  0
 43 41  1  0  0  0  0
 46 45  1  0  0  0  0
 47 46  1  0  0  0  0
 48 47  1  0  0  0  0
 49 48  1  0  0  0  0
 50 49  1  0  0  0  0
 51 50  1  0  0  0  0
 52 51  1  0  0  0  0
 52 53  1  0  0  0  0
 54 52  2  0  0  0  0
 55 52  2  0  0  0  0
M  END
>  <MODEL>
4

>  <REMARK>
 VINA RESULT:      -5.8      1.470      2.950
  Name = 
  23 active torsions:
  status: ('A' for Active; 'I' for Inactive)
    1  A    between atoms: C_1  and  C_23
    2  A    between atoms: C_1  and  C_47
    3  A    between atoms: C_2  and  C_29
    4  A    between atoms: S_5  and  C_31
    5  A    between atoms: C_7  and  C_20
    6  A    between atoms: C_8  and  N_45
    7  A    between atoms: N_9  and  C_26
    8  A    between atoms: N_9  and  C_47
    9  A    between atoms: N_12  and  C_49
   10  A    between atoms: C_15  and  C_16
   11  A    between atoms: C_15  and  C_23
   12  A    between atoms: C_16  and  C_40
   13  A    between atoms: C_16  and  C_55
   14  A    between atoms: C_19  and  C_43
   15  A    between atoms: C_20  and  O_38
   16  A    between atoms: C_20  and  C_46
   17  A    between atoms: C_21  and  O_38
   18  A    between atoms: C_21  and  N_45
   19  A    between atoms: C_25  and  C_40
   20  A    between atoms: C_26  and  C_31
   21  A    between atoms: C_29  and  C_55
   22  A    between atoms: C_30  and  N_42
   23  A    between atoms: C_41  and  C_43
                            x       y       z     vdW  Elec       q    Type
                         _______ _______ _______ _____ _____    ______ ____

>  <TORSDO>
F 23

$$$$
=
 OpenBabel10222417023D

 55 58  0  0  1  0  0  0  0  0999 V2000
  186.0000  178.4710  143.1800 C   0  0  0  0  0  2  0  0  0  0  0  0
  186.7210  177.2820  143.8380 C   0  0  2  0  0  3  0  0  0  0  0  0
  187.9100  177.0890  141.7230 O   0  0  0  0  0  1  0  0  0  0  0  0
  188.7000  177.8960  145.1920 C   0  0  2  0  0  3  0  0  0  0  0  0
  187.1930  177.6350  145.2510 C   0  0  0  0  0  2  0  0  0  0  0  0
  189.0240  177.8990  143.7020 C   0  0  2  0  0  3  0  0  0  0  0  0
  188.0110  176.9400  143.1070 C   0  0  1  0  0  3  0  0  0  0  0  0
  189.7460  177.9590  148.0270 O   0  0  0  0  0  1  0  0  0  0  0  0
  189.9480  176.8530  147.2000 C   0  0  0  0  0  0  0  0  0  0  0  0
  189.4350  176.8220  145.8650 N   0  0  0  0  0  2  0  0  0  0  0  0
  190.5650  175.8520  147.6490 O   0  0  0  0  0  0  0  0  0  0  0  0
  190.5110  177.6000  143.3850 C   0  0  1  0  0  3  0  0  0  0  0  0
  190.9800  176.1760  143.4760 C   0  0  0  0  0  0  0  0  0  0  0  0
  190.3160  175.1860  142.7660 O   0  0  0  0  0  0  0  0  0  0  0  0
  191.9800  175.8710  144.1800 O   0  0  0  0  0  1  0  0  0  0  0  0
  191.0230  178.2980  142.2690 O   0  0  0  0  0  0  0  0  0  0  0  0
  191.4780  177.3630  141.3260 C   0  0  0  0  0  2  0  0  0  0  0  0
  190.7800  177.5640  140.0680 N   0  0  0  0  0  2  0  0  0  0  0  0
  190.6950  175.9430  137.0770 C   0  0  2  0  0  0  0  0  0  0  0  0
  191.1640  176.4750  139.1870 C   0  0  2  0  0  3  0  0  0  0  0  0
  190.1170  176.8810  136.0430 C   0  0  0  0  0  2  0  0  0  0  0  0
  190.3870  174.5500  136.5500 C   0  0  2  0  0  3  0  0  0  0  0  0
  192.3150  176.8330  138.4640 O   0  0  0  0  0  0  0  0  0  0  0  0
  189.0650  174.6760  135.8160 C   0  0  0  0  0  2  0  0  0  0  0  0
  190.0990  176.1790  138.3170 O   0  0  0  0  0  0  0  0  0  0  0  0
  192.1630  176.1700  137.2490 C   0  0  0  0  0  2  0  0  0  0  0  0
  188.9090  176.1510  135.4590 C   0  0  0  0  0  2  0  0  0  0  0  0
  190.2860  173.6160  137.5810 O   0  0  0  0  0  1  0  0  0  0  0  0
  186.1360  178.4940  141.6600 C   0  0  0  0  0  2  0  0  0  0  0  0
  184.7910  178.4020  140.9570 C   0  0  1  0  0  3  0  0  0  0  0  0
  183.7690  179.2150  141.7410 C   0  0  0  0  0  2  0  0  0  0  0  0
  182.5640  178.7320  144.4780 O   0  0  0  0  0  0  0  0  0  0  0  0
  179.6830  178.3580  143.9890 N   0  0  0  0  0  1  0  0  0  0  0  0
  181.9850  178.7640  143.3990 C   0  0  0  0  0  0  0  0  0  0  0  0
  180.5760  179.2060  143.2180 C   0  0  1  0  0  3  0  0  0  0  0  0
  182.5880  178.3250  142.1190 C   0  0  1  0  0  3  0  0  0  0  0  0
  180.3550  178.9810  141.7990 N   0  0  0  0  0  0  0  0  0  0  0  0
  181.4340  178.5650  141.2050 C   0  0  0  0  0  0  0  0  0  0  0  0
  181.4500  178.1440  139.8300 N   0  0  0  0  0  0  0  0  0  0  0  0
  181.4970  178.9150  138.7830 C   0  0  0  0  0  3  0  0  0  0  0  0
  181.5630  180.4070  138.8560 C   0  0  0  0  0  2  0  0  0  0  0  0
  180.8940  180.4030  136.5670 O   0  0  0  0  0  1  0  0  0  0  0  0
  180.6750  181.0300  137.7950 C   0  0  2  0  0  3  0  0  0  0  0  0
  180.9990  182.4970  137.6780 C   0  0  0  0  0  1  0  0  0  0  0  0
  184.9050  178.9370  139.5450 C   0  0  0  0  0  2  0  0  0  0  0  0
  185.9830  178.1850  138.7880 C   0  0  0  0  0  2  0  0  0  0  0  0
  185.3480  177.1150  137.9290 C   0  0  0  0  0  2  0  0  0  0  0  0
  185.2590  177.5660  136.4790 C   0  0  0  0  0  2  0  0  0  0  0  0
  185.3320  176.4070  135.6010 N   0  0  0  0  0  2  0  0  0  0  0  0
  185.2920  175.2350  136.4560 C   0  0  0  0  0  2  0  0  0  0  0  0
  184.2670  174.2490  135.9320 C   0  0  0  0  0  2  0  0  0  0  0  0
  184.5190  172.6420  136.6600 S   0  0  0  0  0  0  0  0  0  0  0  0
  182.9460  171.8650  136.9420 C   0  0  0  0  0  1  0  0  0  0  0  0
  185.2330  172.8070  137.9720 O   0  0  0  0  0  0  0  0  0  0  0  0
  185.3470  171.7770  135.7520 O   0  0  0  0  0  0  0  0  0  0  0  0
  2  1  1  6  0  0  0
  2  5  1  0  0  0  0
  4  5  1  0  0  0  0
  4 10  1  1  0  0  0
  6 12  1  1  0  0  0
  6  4  1  0  0  0  0
  7  3  1  6  0  0  0
  7  6  1  0  0  0  0
  7  2  1  0  0  0  0
  9 11  2  0  0  0  0
  9  8  1  0  0  0  0
 10  9  1  0  0  0  0
 12 16  1  6  0  0  0
 12 13  1  0  0  0  0
 13 15  1  0  0  0  0
 14 13  2  0  0  0  0
 17 16  1  0  0  0  0
 18 17  1  0  0  0  0
 19 21  1  6  0  0  0
 19 26  1  0  0  0  0
 19 25  1  0  0  0  0
 20 18  1  1  0  0  0
 22 19  1  0  0  0  0
 22 28  1  1  0  0  0
 23 20  1  0  0  0  0
 24 22  1  0  0  0  0
 25 20  1  0  0  0  0
 26 23  1  0  0  0  0
 27 24  1  0  0  0  0
 27 21  1  0  0  0  0
 29  1  1  0  0  0  0
 30 45  1  6  0  0  0
 30 29  1  0  0  0  0
 30 31  1  0  0  0  0
 34 32  2  0  0  0  0
 35 34  1  0  0  0  0
 35 33  1  1  0  0  0
 36 31  1  6  0  0  0
 36 34  1  0  0  0  0
 37 35  1  0  0  0  0
 38 37  2  0  0  0  0
 38 36  1  0  0  0  0
 39 38  1  0  0  0  0
 40 41  1  0  0  0  0
 40 39  2  0  0  0  0
 42 43  1  0  0  0  0
 43 44  1  6  0  0  0
 43 41  1  0  0  0  0
 46 45  1  0  0  0  0
 47 46  1  0  0  0  0
 48 47  1  0  0  0  0
 49 50  1  0  0  0  0
 49 48  1  0  0  0  0
 51 50  1  0  0  0  0
 51 52  1  0  0  0  0
 52 53  1  0  0  0  0
 52 54  2  0  0  0  0
 55 52  2  0  0  0  0
M  END
>  <MODEL>
5

>  <REMARK>
 VINA RESULT:      -5.6      2.894      8.584
  Name = 
  23 active torsions:
  status: ('A' for Active; 'I' for Inactive)
    1  A    between atoms: C_1  and  C_23
    2  A    between atoms: C_1  and  C_47
    3  A    between atoms: C_2  and  C_29
    4  A    between atoms: S_5  and  C_31
    5  A    between atoms: C_7  and  C_20
    6  A    between atoms: C_8  and  N_45
    7  A    between atoms: N_9  and  C_26
    8  A    between atoms: N_9  and  C_47
    9  A    between atoms: N_12  and  C_49
   10  A    between atoms: C_15  and  C_16
   11  A    between atoms: C_15  and  C_23
   12  A    between atoms: C_16  and  C_40
   13  A    between atoms: C_16  and  C_55
   14  A    between atoms: C_19  and  C_43
   15  A    between atoms: C_20  and  O_38
   16  A    between atoms: C_20  and  C_46
   17  A    between atoms: C_21  and  O_38
   18  A    between atoms: C_21  and  N_45
   19  A    between atoms: C_25  and  C_40
   20  A    between atoms: C_26  and  C_31
   21  A    between atoms: C_29  and  C_55
   22  A    between atoms: C_30  and  N_42
   23  A    between atoms: C_41  and  C_43
                            x       y       z     vdW  Elec       q    Type
                         _______ _______ _______ _____ _____    ______ ____

>  <TORSDO>
F 23

$$$$
=
 OpenBabel10222417023D

 55 58  0  0  1  0  0  0  0  0999 V2000
  185.8640  178.3350  137.9600 C   0  0  0  0  0  2  0  0  0  0  0  0
  186.0520  177.4710  136.7010 C   0  0  2  0  0  3  0  0  0  0  0  0
  188.2800  178.4460  136.6090 O   0  0  0  0  0  1  0  0  0  0  0  0
  186.8020  175.1540  137.1420 C   0  0  2  0  0  3  0  0  0  0  0  0
  185.5690  176.0380  136.9380 C   0  0  0  0  0  2  0  0  0  0  0  0
  187.9610  176.1390  137.2350 C   0  0  2  0  0  3  0  0  0  0  0  0
  187.5250  177.2990  136.3610 C   0  0  1  0  0  3  0  0  0  0  0  0
  185.5220  172.4420  136.7680 O   0  0  0  0  0  1  0  0  0  0  0  0
  186.4020  172.9690  135.8220 C   0  0  0  0  0  0  0  0  0  0  0  0
  186.9900  174.2610  135.9960 N   0  0  0  0  0  2  0  0  0  0  0  0
  186.6570  172.3080  134.7820 O   0  0  0  0  0  0  0  0  0  0  0  0
  189.3400  175.5170  136.9010 C   0  0  1  0  0  3  0  0  0  0  0  0
  189.7220  175.3820  135.4540 C   0  0  0  0  0  0  0  0  0  0  0  0
  190.1190  174.1490  134.9590 O   0  0  0  0  0  1  0  0  0  0  0  0
  189.6720  176.3760  134.6810 O   0  0  0  0  0  0  0  0  0  0  0  0
  190.3960  175.9540  137.7300 O   0  0  0  0  0  0  0  0  0  0  0  0
  191.4480  176.4020  136.9170 C   0  0  0  0  0  2  0  0  0  0  0  0
  192.6620  176.5100  137.7090 N   0  0  0  0  0  2  0  0  0  0  0  0
  195.2280  174.5830  136.5760 C   0  0  2  0  0  0  0  0  0  0  0  0
  193.7790  176.2560  136.8160 C   0  0  2  0  0  3  0  0  0  0  0  0
  195.0600  173.1890  137.1360 C   0  0  0  0  0  2  0  0  0  0  0  0
  196.7220  174.7180  136.3200 C   0  0  2  0  0  3  0  0  0  0  0  0
  193.3320  175.5550  135.6830 O   0  0  0  0  0  0  0  0  0  0  0  0
  197.3960  173.8920  137.3990 C   0  0  0  0  0  2  0  0  0  0  0  0
  194.7670  175.5230  137.5000 O   0  0  0  0  0  0  0  0  0  0  0  0
  194.4220  174.7640  135.3300 C   0  0  0  0  0  2  0  0  0  0  0  0
  196.3530  172.8940  137.8920 C   0  0  0  0  0  2  0  0  0  0  0  0
  197.1410  176.0470  136.3890 O   0  0  0  0  0  1  0  0  0  0  0  0
  184.6820  177.8990  138.8220 C   0  0  0  0  0  2  0  0  0  0  0  0
  184.2840  178.9570  139.8380 C   0  0  1  0  0  3  0  0  0  0  0  0
  182.7790  179.1780  139.7550 C   0  0  0  0  0  2  0  0  0  0  0  0
  181.6360  179.4440  142.5470 O   0  0  0  0  0  0  0  0  0  0  0  0
  179.2520  177.7130  142.5650 N   0  0  0  0  0  1  0  0  0  0  0  0
  181.2060  178.7650  141.6240 C   0  0  0  0  0  0  0  0  0  0  0  0
  179.7680  178.4420  141.4190 C   0  0  1  0  0  3  0  0  0  0  0  0
  182.0600  178.1260  140.5950 C   0  0  1  0  0  3  0  0  0  0  0  0
  179.8040  177.5640  140.2610 N   0  0  0  0  0  0  0  0  0  0  0  0
  181.0090  177.4380  139.7910 C   0  0  0  0  0  0  0  0  0  0  0  0
  181.3360  176.5230  138.7310 N   0  0  0  0  0  0  0  0  0  0  0  0
  181.1310  176.7040  137.4590 C   0  0  0  0  0  3  0  0  0  0  0  0
  180.5180  177.9430  136.8860 C   0  0  0  0  0  2  0  0  0  0  0  0
  180.8370  179.3100  134.9590 O   0  0  0  0  0  1  0  0  0  0  0  0
  181.5120  178.6650  135.9960 C   0  0  2  0  0  3  0  0  0  0  0  0
  182.4810  177.6630  135.4240 C   0  0  0  0  0  1  0  0  0  0  0  0
  184.6640  178.5070  141.2330 C   0  0  0  0  0  2  0  0  0  0  0  0
  186.0090  179.0900  141.6210 C   0  0  0  0  0  2  0  0  0  0  0  0
  186.7520  178.1120  142.5040 C   0  0  0  0  0  2  0  0  0  0  0  0
  188.2530  178.2050  142.2720 C   0  0  0  0  0  2  0  0  0  0  0  0
  188.6550  177.2150  141.2830 N   0  0  0  0  0  2  0  0  0  0  0  0
  189.8420  176.5640  141.8040 C   0  0  0  0  0  2  0  0  0  0  0  0
  189.6820  176.3100  143.2900 C   0  0  0  0  0  2  0  0  0  0  0  0
  191.2430  176.5050  144.1270 S   0  0  0  0  0  0  0  0  0  0  0  0
  190.9540  176.9220  145.8300 C   0  0  0  0  0  1  0  0  0  0  0  0
  192.0140  177.6140  143.4690 O   0  0  0  0  0  0  0  0  0  0  0  0
  192.0430  175.2350  144.0530 O   0  0  0  0  0  0  0  0  0  0  0  0
  1 29  1  0  0  0  0
  2  5  1  0  0  0  0
  2  1  1  1  0  0  0
  4 10  1  6  0  0  0
  4  6  1  0  0  0  0
  5  4  1  0  0  0  0
  6 12  1  6  0  0  0
  7  3  1  1  0  0  0
  7  2  1  0  0  0  0
  7  6  1  0  0  0  0
  9 10  1  0  0  0  0
  9  8  1  0  0  0  0
 11  9  2  0  0  0  0
 12 13  1  6  0  0  0
 12 16  1  0  0  0  0
 14 13  1  0  0  0  0
 15 13  2  0  0  0  0
 17 18  1  0  0  0  0
 17 16  1  0  0  0  0
 19 26  1  6  0  0  0
 19 21  1  0  0  0  0
 19 25  1  0  0  0  0
 20 25  1  0  0  0  0
 20 18  1  1  0  0  0
 21 27  1  0  0  0  0
 22 28  1  1  0  0  0
 22 19  1  0  0  0  0
 22 24  1  0  0  0  0
 23 20  1  0  0  0  0
 24 27  1  0  0  0  0
 26 23  1  0  0  0  0
 30 29  1  6  0  0  0
 30 45  1  0  0  0  0
 31 30  1  0  0  0  0
 34 32  2  0  0  0  0
 35 34  1  0  0  0  0
 35 33  1  1  0  0  0
 36 31  1  6  0  0  0
 36 34  1  0  0  0  0
 37 35  1  0  0  0  0
 38 37  2  0  0  0  0
 38 36  1  0  0  0  0
 39 38  1  0  0  0  0
 40 39  2  0  0  0  0
 41 40  1  0  0  0  0
 42 43  1  0  0  0  0
 43 44  1  6  0  0  0
 43 41  1  0  0  0  0
 45 46  1  0  0  0  0
 46 47  1  0  0  0  0
 48 47  1  0  0  0  0
 49 50  1  0  0  0  0
 49 48  1  0  0  0  0
 50 51  1  0  0  0  0
 51 52  1  0  0  0  0
 52 53  1  0  0  0  0
 54 52  2  0  0  0  0
 55 52  2  0  0  0  0
M  END
>  <MODEL>
6

>  <REMARK>
 VINA RESULT:      -5.5      2.773      9.283
  Name = 
  23 active torsions:
  status: ('A' for Active; 'I' for Inactive)
    1  A    between atoms: C_1  and  C_23
    2  A    between atoms: C_1  and  C_47
    3  A    between atoms: C_2  and  C_29
    4  A    between atoms: S_5  and  C_31
    5  A    between atoms: C_7  and  C_20
    6  A    between atoms: C_8  and  N_45
    7  A    between atoms: N_9  and  C_26
    8  A    between atoms: N_9  and  C_47
    9  A    between atoms: N_12  and  C_49
   10  A    between atoms: C_15  and  C_16
   11  A    between atoms: C_15  and  C_23
   12  A    between atoms: C_16  and  C_40
   13  A    between atoms: C_16  and  C_55
   14  A    between atoms: C_19  and  C_43
   15  A    between atoms: C_20  and  O_38
   16  A    between atoms: C_20  and  C_46
   17  A    between atoms: C_21  and  O_38
   18  A    between atoms: C_21  and  N_45
   19  A    between atoms: C_25  and  C_40
   20  A    between atoms: C_26  and  C_31
   21  A    between atoms: C_29  and  C_55
   22  A    between atoms: C_30  and  N_42
   23  A    between atoms: C_41  and  C_43
                            x       y       z     vdW  Elec       q    Type
                         _______ _______ _______ _____ _____    ______ ____

>  <TORSDO>
F 23

$$$$
=
 OpenBabel10222417023D

 55 58  0  0  1  0  0  0  0  0999 V2000
  187.5290  178.0810  139.9740 C   0  0  0  0  0  2  0  0  0  0  0  0
  187.7420  178.7320  141.3520 C   0  0  2  0  0  3  0  0  0  0  0  0
  185.5630  179.7510  140.9850 O   0  0  0  0  0  1  0  0  0  0  0  0
  187.0530  177.3310  143.2720 C   0  0  2  0  0  3  0  0  0  0  0  0
  188.2350  177.7070  142.3760 C   0  0  0  0  0  2  0  0  0  0  0  0
  185.8500  177.9880  142.6040 C   0  0  2  0  0  3  0  0  0  0  0  0
  186.4300  179.2230  141.9420 C   0  0  1  0  0  3  0  0  0  0  0  0
  189.3720  176.7530  145.1220 O   0  0  0  0  0  0  0  0  0  0  0  0
  188.3230  177.5880  145.5080 C   0  0  0  0  0  0  0  0  0  0  0  0
  187.2370  177.8730  144.6210 N   0  0  0  0  0  2  0  0  0  0  0  0
  188.3500  178.1270  146.6450 O   0  0  0  0  0  1  0  0  0  0  0  0
  184.6540  178.2250  143.5610 C   0  0  1  0  0  3  0  0  0  0  0  0
  184.7810  179.3090  144.5930 C   0  0  0  0  0  0  0  0  0  0  0  0
  184.5880  179.0090  145.9340 O   0  0  0  0  0  1  0  0  0  0  0  0
  185.0760  180.4870  144.2560 O   0  0  0  0  0  0  0  0  0  0  0  0
  183.3880  178.1770  142.9380 O   0  0  0  0  0  0  0  0  0  0  0  0
  182.5840  179.1920  143.4800 C   0  0  0  0  0  2  0  0  0  0  0  0
  181.3240  178.6240  143.9280 N   0  0  0  0  0  2  0  0  0  0  0  0
  180.3340  179.4100  140.7670 C   0  0  2  0  0  0  0  0  0  0  0  0
  180.3130  179.0080  142.9570 C   0  0  2  0  0  3  0  0  0  0  0  0
  181.4260  178.9950  139.8090 C   0  0  0  0  0  2  0  0  0  0  0  0
  179.6030  180.5370  140.0550 C   0  0  2  0  0  3  0  0  0  0  0  0
  179.7510  177.8580  142.3780 O   0  0  0  0  0  0  0  0  0  0  0  0
  180.6600  181.2540  139.2360 C   0  0  0  0  0  2  0  0  0  0  0  0
  180.8970  179.8290  141.9740 O   0  0  0  0  0  0  0  0  0  0  0  0
  179.4300  178.2620  141.0840 C   0  0  0  0  0  2  0  0  0  0  0  0
  181.8040  180.2630  139.0470 C   0  0  0  0  0  2  0  0  0  0  0  0
  179.0030  181.4170  140.9560 O   0  0  0  0  0  1  0  0  0  0  0  0
  188.8340  177.7620  139.2470 C   0  0  0  0  0  2  0  0  0  0  0  0
  188.6430  176.7450  138.1340 C   0  0  1  0  0  3  0  0  0  0  0  0
  188.3850  177.4870  136.8290 C   0  0  0  0  0  2  0  0  0  0  0  0
  188.9000  175.3750  134.7180 O   0  0  0  0  0  0  0  0  0  0  0  0
  186.6400  173.4980  134.9490 N   0  0  0  0  0  1  0  0  0  0  0  0
  187.9580  175.4410  135.4990 C   0  0  0  0  0  0  0  0  0  0  0  0
  187.2320  174.2590  136.0360 C   0  0  1  0  0  3  0  0  0  0  0  0
  187.3730  176.7100  135.9900 C   0  0  1  0  0  3  0  0  0  0  0  0
  186.1790  174.8700  136.8310 N   0  0  0  0  0  0  0  0  0  0  0  0
  186.2830  176.1660  136.8510 C   0  0  0  0  0  0  0  0  0  0  0  0
  185.2930  177.0150  137.4550 N   0  0  0  0  0  0  0  0  0  0  0  0
  184.1640  177.3870  136.9270 C   0  0  0  0  0  3  0  0  0  0  0  0
  183.7020  176.9580  135.5700 C   0  0  0  0  0  2  0  0  0  0  0  0
  182.5540  175.4560  137.0230 O   0  0  0  0  0  1  0  0  0  0  0  0
  182.7570  175.7770  135.6790 C   0  0  2  0  0  3  0  0  0  0  0  0
  183.3560  174.5960  134.9610 C   0  0  0  0  0  1  0  0  0  0  0  0
  189.8800  175.8820  138.0020 C   0  0  0  0  0  2  0  0  0  0  0  0
  191.1240  176.7080  138.2680 C   0  0  0  0  0  2  0  0  0  0  0  0
  192.1820  176.3790  137.2380 C   0  0  0  0  0  2  0  0  0  0  0  0
  193.3350  175.6150  137.8720 C   0  0  0  0  0  2  0  0  0  0  0  0
  193.1940  174.1950  137.5860 N   0  0  0  0  0  2  0  0  0  0  0  0
  194.5070  173.7160  137.1980 C   0  0  0  0  0  2  0  0  0  0  0  0
  195.1410  174.6830  136.2180 C   0  0  0  0  0  2  0  0  0  0  0  0
  196.8650  174.9210  136.6030 S   0  0  0  0  0  0  0  0  0  0  0  0
  197.8230  173.6250  135.8570 C   0  0  0  0  0  1  0  0  0  0  0  0
  197.0420  174.8760  138.0940 O   0  0  0  0  0  0  0  0  0  0  0  0
  197.3400  176.2520  136.0900 O   0  0  0  0  0  0  0  0  0  0  0  0
  2  1  1  6  0  0  0
  2  7  1  0  0  0  0
  2  5  1  0  0  0  0
  4 10  1  1  0  0  0
  5  4  1  0  0  0  0
  6  4  1  0  0  0  0
  6 12  1  1  0  0  0
  7  3  1  6  0  0  0
  7  6  1  0  0  0  0
  8  9  2  0  0  0  0
  9 11  1  0  0  0  0
 10  9  1  0  0  0  0
 12 16  1  6  0  0  0
 12 13  1  0  0  0  0
 13 14  1  0  0  0  0
 15 13  2  0  0  0  0
 16 17  1  0  0  0  0
 17 18  1  0  0  0  0
 19 21  1  6  0  0  0
 19 26  1  0  0  0  0
 19 25  1  0  0  0  0
 20 18  1  1  0  0  0
 22 19  1  0  0  0  0
 22 28  1  1  0  0  0
 23 20  1  0  0  0  0
 24 22  1  0  0  0  0
 25 20  1  0  0  0  0
 26 23  1  0  0  0  0
 27 24  1  0  0  0  0
 27 21  1  0  0  0  0
 29  1  1  0  0  0  0
 30 31  1  6  0  0  0
 30 29  1  0  0  0  0
 32 34  2  0  0  0  0
 34 36  1  0  0  0  0
 34 35  1  0  0  0  0
 35 33  1  6  0  0  0
 35 37  1  0  0  0  0
 36 31  1  1  0  0  0
 36 38  1  0  0  0  0
 37 38  2  0  0  0  0
 38 39  1  0  0  0  0
 40 39  2  0  0  0  0
 41 43  1  0  0  0  0
 41 40  1  0  0  0  0
 43 44  1  6  0  0  0
 43 42  1  0  0  0  0
 45 30  1  0  0  0  0
 45 46  1  0  0  0  0
 47 48  1  0  0  0  0
 47 46  1  0  0  0  0
 49 48  1  0  0  0  0
 50 49  1  0  0  0  0
 51 52  1  0  0  0  0
 51 50  1  0  0  0  0
 52 54  2  0  0  0  0
 53 52  1  0  0  0  0
 55 52  2  0  0  0  0
M  END
>  <MODEL>
7

>  <REMARK>
 VINA RESULT:      -5.4      2.294      7.059
  Name = 
  23 active torsions:
  status: ('A' for Active; 'I' for Inactive)
    1  A    between atoms: C_1  and  C_23
    2  A    between atoms: C_1  and  C_47
    3  A    between atoms: C_2  and  C_29
    4  A    between atoms: S_5  and  C_31
    5  A    between atoms: C_7  and  C_20
    6  A    between atoms: C_8  and  N_45
    7  A    between atoms: N_9  and  C_26
    8  A    between atoms: N_9  and  C_47
    9  A    between atoms: N_12  and  C_49
   10  A    between atoms: C_15  and  C_16
   11  A    between atoms: C_15  and  C_23
   12  A    between atoms: C_16  and  C_40
   13  A    between atoms: C_16  and  C_55
   14  A    between atoms: C_19  and  C_43
   15  A    between atoms: C_20  and  O_38
   16  A    between atoms: C_20  and  C_46
   17  A    between atoms: C_21  and  O_38
   18  A    between atoms: C_21  and  N_45
   19  A    between atoms: C_25  and  C_40
   20  A    between atoms: C_26  and  C_31
   21  A    between atoms: C_29  and  C_55
   22  A    between atoms: C_30  and  N_42
   23  A    between atoms: C_41  and  C_43
                            x       y       z     vdW  Elec       q    Type
                         _______ _______ _______ _____ _____    ______ ____

>  <TORSDO>
F 23

$$$$
=
 OpenBabel10222417023D

 55 58  0  0  1  0  0  0  0  0999 V2000
  189.2390  177.2360  139.8390 C   0  0  0  0  0  2  0  0  0  0  0  0
  189.9800  177.6700  141.1160 C   0  0  2  0  0  3  0  0  0  0  0  0
  187.8950  178.7720  141.7130 O   0  0  0  0  0  1  0  0  0  0  0  0
  189.9310  176.0110  142.9520 C   0  0  2  0  0  3  0  0  0  0  0  0
  190.7340  176.4940  141.7430 C   0  0  0  0  0  2  0  0  0  0  0  0
  188.6180  176.7820  142.8650 C   0  0  2  0  0  3  0  0  0  0  0  0
  189.0080  178.0910  142.2070 C   0  0  1  0  0  3  0  0  0  0  0  0
  192.1660  174.4190  144.2190 O   0  0  0  0  0  0  0  0  0  0  0  0
  191.6730  175.5820  144.8120 C   0  0  0  0  0  0  0  0  0  0  0  0
  190.6270  176.3410  144.1980 N   0  0  0  0  0  2  0  0  0  0  0  0
  192.1800  175.9880  145.8900 O   0  0  0  0  0  1  0  0  0  0  0  0
  187.8680  176.8950  144.2160 C   0  0  1  0  0  3  0  0  0  0  0  0
  188.3260  177.9420  145.1910 C   0  0  0  0  0  0  0  0  0  0  0  0
  189.5380  178.5880  144.9900 O   0  0  0  0  0  0  0  0  0  0  0  0
  187.6160  178.2500  146.1860 O   0  0  0  0  0  1  0  0  0  0  0  0
  186.4640  176.7850  144.1170 O   0  0  0  0  0  0  0  0  0  0  0  0
  185.9300  178.0620  143.8840 C   0  0  0  0  0  2  0  0  0  0  0  0
  184.4790  177.9860  143.8800 N   0  0  0  0  0  2  0  0  0  0  0  0
  183.2180  178.3470  140.7390 C   0  0  2  0  0  0  0  0  0  0  0  0
  184.0120  178.7990  142.7690 C   0  0  2  0  0  3  0  0  0  0  0  0
  182.6900  177.0070  140.2810 C   0  0  0  0  0  2  0  0  0  0  0  0
  183.5660  179.0840  139.4540 C   0  0  2  0  0  3  0  0  0  0  0  0
  182.6250  178.9970  142.8760 O   0  0  0  0  0  0  0  0  0  0  0  0
  184.0190  178.0130  138.4800 C   0  0  0  0  0  2  0  0  0  0  0  0
  184.3350  178.1610  141.5560 O   0  0  0  0  0  0  0  0  0  0  0  0
  182.1990  179.0790  141.5520 C   0  0  0  0  0  2  0  0  0  0  0  0
  183.4310  176.6980  138.9830 C   0  0  0  0  0  2  0  0  0  0  0  0
  184.5780  180.0230  139.6530 O   0  0  0  0  0  1  0  0  0  0  0  0
  190.1720  176.9600  138.6630 C   0  0  0  0  0  2  0  0  0  0  0  0
  189.7650  175.7230  137.8790 C   0  0  1  0  0  3  0  0  0  0  0  0
  189.1370  176.1590  136.5620 C   0  0  0  0  0  2  0  0  0  0  0  0
  187.3430  178.5490  136.0620 O   0  0  0  0  0  0  0  0  0  0  0  0
  184.8090  177.4100  135.0810 N   0  0  0  0  0  1  0  0  0  0  0  0
  187.0770  177.3650  135.8960 C   0  0  0  0  0  0  0  0  0  0  0  0
  186.1340  176.8540  134.8650 C   0  0  1  0  0  3  0  0  0  0  0  0
  187.6230  176.2670  136.7270 C   0  0  1  0  0  3  0  0  0  0  0  0
  186.1120  175.4270  135.1370 N   0  0  0  0  0  0  0  0  0  0  0  0
  186.9400  175.1060  136.0870 C   0  0  0  0  0  0  0  0  0  0  0  0
  187.0140  173.7790  136.6360 N   0  0  0  0  0  0  0  0  0  0  0  0
  186.0290  173.0870  137.1290 C   0  0  0  0  0  3  0  0  0  0  0  0
  184.6170  173.5790  137.1830 C   0  0  0  0  0  2  0  0  0  0  0  0
  182.4660  173.3580  136.1780 O   0  0  0  0  0  1  0  0  0  0  0  0
  183.7470  172.8040  136.2120 C   0  0  2  0  0  3  0  0  0  0  0  0
  183.6650  171.3680  136.6590 C   0  0  0  0  0  1  0  0  0  0  0  0
  190.9770  174.8560  137.6110 C   0  0  0  0  0  2  0  0  0  0  0  0
  190.6850  173.8830  136.4850 C   0  0  0  0  0  2  0  0  0  0  0  0
  191.9580  173.1730  136.0830 C   0  0  0  0  0  2  0  0  0  0  0  0
  193.1720  174.0570  136.3300 C   0  0  0  0  0  2  0  0  0  0  0  0
  194.3190  173.2270  136.6660 N   0  0  0  0  0  2  0  0  0  0  0  0
  194.8310  173.7170  137.9320 C   0  0  0  0  0  2  0  0  0  0  0  0
  195.5620  175.0280  137.7220 C   0  0  0  0  0  2  0  0  0  0  0  0
  197.3170  174.7490  137.5880 S   0  0  0  0  0  0  0  0  0  0  0  0
  197.6390  173.0020  137.5650 C   0  0  0  0  0  1  0  0  0  0  0  0
  198.0010  175.3650  138.7760 O   0  0  0  0  0  0  0  0  0  0  0  0
  197.8550  175.3730  136.3310 O   0  0  0  0  0  0  0  0  0  0  0  0
  2  1  1  6  0  0  0
  2  5  1  0  0  0  0
  2  7  1  0  0  0  0
  4 10  1  1  0  0  0
  5  4  1  0  0  0  0
  6  4  1  0  0  0  0
  6 12  1  1  0  0  0
  7  3  1  6  0  0  0
  7  6  1  0  0  0  0
  8  9  2  0  0  0  0
  9 11  1  0  0  0  0
 10  9  1  0  0  0  0
 12 16  1  6  0  0  0
 12 13  1  0  0  0  0
 13 15  1  0  0  0  0
 14 13  2  0  0  0  0
 17 16  1  0  0  0  0
 18 17  1  0  0  0  0
 19 21  1  6  0  0  0
 19 26  1  0  0  0  0
 19 25  1  0  0  0  0
 20 23  1  0  0  0  0
 20 18  1  1  0  0  0
 22 28  1  1  0  0  0
 22 19  1  0  0  0  0
 24 27  1  0  0  0  0
 24 22  1  0  0  0  0
 25 20  1  0  0  0  0
 26 23  1  0  0  0  0
 27 21  1  0  0  0  0
 29  1  1  0  0  0  0
 30 31  1  6  0  0  0
 30 29  1  0  0  0  0
 34 32  2  0  0  0  0
 34 36  1  0  0  0  0
 35 33  1  1  0  0  0
 35 37  1  0  0  0  0
 35 34  1  0  0  0  0
 36 31  1  6  0  0  0
 37 38  2  0  0  0  0
 38 39  1  0  0  0  0
 38 36  1  0  0  0  0
 39 40  2  0  0  0  0
 40 41  1  0  0  0  0
 42 43  1  0  0  0  0
 43 44  1  1  0  0  0
 43 41  1  0  0  0  0
 45 30  1  0  0  0  0
 46 45  1  0  0  0  0
 47 48  1  0  0  0  0
 47 46  1  0  0  0  0
 48 49  1  0  0  0  0
 49 50  1  0  0  0  0
 51 50  1  0  0  0  0
 52 51  1  0  0  0  0
 52 54  2  0  0  0  0
 53 52  1  0  0  0  0
 55 52  2  0  0  0  0
M  END
>  <MODEL>
8

>  <REMARK>
 VINA RESULT:      -5.3      2.537      7.726
  Name = 
  23 active torsions:
  status: ('A' for Active; 'I' for Inactive)
    1  A    between atoms: C_1  and  C_23
    2  A    between atoms: C_1  and  C_47
    3  A    between atoms: C_2  and  C_29
    4  A    between atoms: S_5  and  C_31
    5  A    between atoms: C_7  and  C_20
    6  A    between atoms: C_8  and  N_45
    7  A    between atoms: N_9  and  C_26
    8  A    between atoms: N_9  and  C_47
    9  A    between atoms: N_12  and  C_49
   10  A    between atoms: C_15  and  C_16
   11  A    between atoms: C_15  and  C_23
   12  A    between atoms: C_16  and  C_40
   13  A    between atoms: C_16  and  C_55
   14  A    between atoms: C_19  and  C_43
   15  A    between atoms: C_20  and  O_38
   16  A    between atoms: C_20  and  C_46
   17  A    between atoms: C_21  and  O_38
   18  A    between atoms: C_21  and  N_45
   19  A    between atoms: C_25  and  C_40
   20  A    between atoms: C_26  and  C_31
   21  A    between atoms: C_29  and  C_55
   22  A    between atoms: C_30  and  N_42
   23  A    between atoms: C_41  and  C_43
                            x       y       z     vdW  Elec       q    Type
                         _______ _______ _______ _____ _____    ______ ____

>  <TORSDO>
F 23

$$$$
=
 OpenBabel10222417023D

 55 58  0  0  1  0  0  0  0  0999 V2000
  186.7170  178.2570  141.5800 C   0  0  0  0  0  2  0  0  0  0  0  0
  185.6390  179.3530  141.6290 C   0  0  2  0  0  3  0  0  0  0  0  0
  185.1480  178.6930  139.3390 O   0  0  0  0  0  1  0  0  0  0  0  0
  183.4720  178.6270  142.5780 C   0  0  2  0  0  3  0  0  0  0  0  0
  184.8200  179.2640  142.9190 C   0  0  0  0  0  2  0  0  0  0  0  0
  183.6290  178.1620  141.1350 C   0  0  2  0  0  3  0  0  0  0  0  0
  184.6000  179.1600  140.5340 C   0  0  1  0  0  3  0  0  0  0  0  0
  180.7300  178.1660  143.7630 O   0  0  0  0  0  1  0  0  0  0  0  0
  181.0900  179.3980  143.2180 C   0  0  0  0  0  0  0  0  0  0  0  0
  182.3950  179.6160  142.6740 N   0  0  0  0  0  2  0  0  0  0  0  0
  180.2610  180.3450  143.2330 O   0  0  0  0  0  0  0  0  0  0  0  0
  182.2850  177.9850  140.3840 C   0  0  1  0  0  3  0  0  0  0  0  0
  182.0530  178.8080  139.1490 C   0  0  0  0  0  0  0  0  0  0  0  0
  182.3830  178.2900  137.9040 O   0  0  0  0  0  0  0  0  0  0  0  0
  181.5480  179.9600  139.2290 O   0  0  0  0  0  1  0  0  0  0  0  0
  181.8520  176.6460  140.2660 O   0  0  0  0  0  0  0  0  0  0  0  0
  180.7420  176.6080  139.4090 C   0  0  0  0  0  2  0  0  0  0  0  0
  180.3070  175.2320  139.2390 N   0  0  0  0  0  2  0  0  0  0  0  0
  180.3270  173.1260  136.5650 C   0  0  2  0  0  0  0  0  0  0  0  0
  180.8560  174.7640  137.9770 C   0  0  2  0  0  3  0  0  0  0  0  0
  179.0080  172.3890  136.5290 C   0  0  0  0  0  2  0  0  0  0  0  0
  181.3050  172.2020  135.8560 C   0  0  2  0  0  3  0  0  0  0  0  0
  180.2080  175.4090  136.9090 O   0  0  0  0  0  0  0  0  0  0  0  0
  180.8380  170.7940  136.1750 C   0  0  0  0  0  2  0  0  0  0  0  0
  180.6990  173.3680  137.8890 O   0  0  0  0  0  0  0  0  0  0  0  0
  180.2190  174.4570  135.8920 C   0  0  0  0  0  2  0  0  0  0  0  0
  179.3680  170.9060  136.5660 C   0  0  0  0  0  2  0  0  0  0  0  0
  182.6140  172.3950  136.2980 O   0  0  0  0  0  1  0  0  0  0  0  0
  187.6600  178.3890  140.3870 C   0  0  0  0  0  2  0  0  0  0  0  0
  189.1230  178.3800  140.8010 C   0  0  1  0  0  3  0  0  0  0  0  0
  189.2060  178.5210  142.3150 C   0  0  0  0  0  2  0  0  0  0  0  0
  192.0460  177.5240  142.6610 O   0  0  0  0  0  0  0  0  0  0  0  0
  192.0110  175.9730  145.1660 N   0  0  0  0  0  1  0  0  0  0  0  0
  191.0880  177.3260  143.3970 C   0  0  0  0  0  0  0  0  0  0  0  0
  191.1880  177.1320  144.8690 C   0  0  1  0  0  3  0  0  0  0  0  0
  189.6890  177.2080  142.9260 C   0  0  1  0  0  3  0  0  0  0  0  0
  189.8110  176.8600  145.2460 N   0  0  0  0  0  0  0  0  0  0  0  0
  189.0080  176.9520  144.2280 C   0  0  0  0  0  0  0  0  0  0  0  0
  187.6150  176.6010  144.3050 N   0  0  0  0  0  0  0  0  0  0  0  0
  186.7160  177.1580  145.0620 C   0  0  0  0  0  3  0  0  0  0  0  0
  187.0020  178.3000  145.9860 C   0  0  0  0  0  2  0  0  0  0  0  0
  185.9610  179.8930  147.4230 O   0  0  0  0  0  1  0  0  0  0  0  0
  185.7150  179.0020  146.3770 C   0  0  2  0  0  3  0  0  0  0  0  0
  184.7050  177.9740  146.8150 C   0  0  0  0  0  1  0  0  0  0  0  0
  189.7770  177.0860  140.3650 C   0  0  0  0  0  2  0  0  0  0  0  0
  190.1090  177.1410  138.8860 C   0  0  0  0  0  2  0  0  0  0  0  0
  191.5390  176.6970  138.6690 C   0  0  0  0  0  2  0  0  0  0  0  0
  191.6740  175.9270  137.3640 C   0  0  0  0  0  2  0  0  0  0  0  0
  192.5170  174.7590  137.5720 N   0  0  0  0  0  2  0  0  0  0  0  0
  193.1520  174.4710  136.3000 C   0  0  0  0  0  2  0  0  0  0  0  0
  194.3240  173.5320  136.5080 C   0  0  0  0  0  2  0  0  0  0  0  0
  195.8630  174.3800  136.2090 S   0  0  0  0  0  0  0  0  0  0  0  0
  195.7370  175.3270  134.7110 C   0  0  0  0  0  1  0  0  0  0  0  0
  196.9590  173.3630  136.0630 O   0  0  0  0  0  0  0  0  0  0  0  0
  196.1900  175.2970  137.3540 O   0  0  0  0  0  0  0  0  0  0  0  0
  2  1  1  1  0  0  0
  2  5  1  0  0  0  0
  4 10  1  6  0  0  0
  4  5  1  0  0  0  0
  6 12  1  6  0  0  0
  6  4  1  0  0  0  0
  7  3  1  6  0  0  0
  7  6  1  0  0  0  0
  7  2  1  0  0  0  0
  9 11  2  0  0  0  0
  9  8  1  0  0  0  0
 10  9  1  0  0  0  0
 12 13  1  6  0  0  0
 13 15  1  0  0  0  0
 14 13  2  0  0  0  0
 16 12  1  0  0  0  0
 17 16  1  0  0  0  0
 18 17  1  0  0  0  0
 19 26  1  6  0  0  0
 19 25  1  0  0  0  0
 20 18  1  1  0  0  0
 21 19  1  0  0  0  0
 21 27  1  0  0  0  0
 22 24  1  0  0  0  0
 22 28  1  1  0  0  0
 22 19  1  0  0  0  0
 23 20  1  0  0  0  0
 24 27  1  0  0  0  0
 25 20  1  0  0  0  0
 26 23  1  0  0  0  0
 29 30  1  0  0  0  0
 29  1  1  0  0  0  0
 30 45  1  1  0  0  0
 30 31  1  0  0  0  0
 32 34  2  0  0  0  0
 34 35  1  0  0  0  0
 35 33  1  6  0  0  0
 35 37  1  0  0  0  0
 36 31  1  1  0  0  0
 36 34  1  0  0  0  0
 36 38  1  0  0  0  0
 38 39  1  0  0  0  0
 38 37  2  0  0  0  0
 39 40  2  0  0  0  0
 40 41  1  0  0  0  0
 41 43  1  0  0  0  0
 43 44  1  1  0  0  0
 43 42  1  0  0  0  0
 46 45  1  0  0  0  0
 47 46  1  0  0  0  0
 48 49  1  0  0  0  0
 48 47  1  0  0  0  0
 50 51  1  0  0  0  0
 50 49  1  0  0  0  0
 52 51  1  0  0  0  0
 52 55  2  0  0  0  0
 53 52  1  0  0  0  0
 54 52  2  0  0  0  0
M  END
>  <MODEL>
9

>  <REMARK>
 VINA RESULT:      -5.2      1.987      2.856
  Name = 
  23 active torsions:
  status: ('A' for Active; 'I' for Inactive)
    1  A    between atoms: C_1  and  C_23
    2  A    between atoms: C_1  and  C_47
    3  A    between atoms: C_2  and  C_29
    4  A    between atoms: S_5  and  C_31
    5  A    between atoms: C_7  and  C_20
    6  A    between atoms: C_8  and  N_45
    7  A    between atoms: N_9  and  C_26
    8  A    between atoms: N_9  and  C_47
    9  A    between atoms: N_12  and  C_49
   10  A    between atoms: C_15  and  C_16
   11  A    between atoms: C_15  and  C_23
   12  A    between atoms: C_16  and  C_40
   13  A    between atoms: C_16  and  C_55
   14  A    between atoms: C_19  and  C_43
   15  A    between atoms: C_20  and  O_38
   16  A    between atoms: C_20  and  C_46
   17  A    between atoms: C_21  and  O_38
   18  A    between atoms: C_21  and  N_45
   19  A    between atoms: C_25  and  C_40
   20  A    between atoms: C_26  and  C_31
   21  A    between atoms: C_29  and  C_55
   22  A    between atoms: C_30  and  N_42
   23  A    between atoms: C_41  and  C_43
                            x       y       z     vdW  Elec       q    Type
                         _______ _______ _______ _____ _____    ______ ____

>  <TORSDO>
F 23

$$$$
