=
 OpenBabel10222415313D

 31 34  0  0  1  0  0  0  0  0999 V2000
  189.9480  178.3740  141.3990 N   0  0  0  0  0  0  0  0  0  0  0  0
  189.9240  178.5680  142.7410 O   0  0  0  0  0  0  0  0  0  0  0  0
  193.4650  174.1700  137.5790 C   0  0  0  0  0  2  0  0  0  0  0  0
  191.2370  177.9280  140.9010 C   0  0  1  0  0  3  0  0  0  0  0  0
  192.4600  175.2240  138.0320 C   0  0  0  0  0  2  0  0  0  0  0  0
  189.9350  175.6050  138.2420 N   0  0  0  0  0  2  0  0  0  0  0  0
  189.9890  176.6140  139.2590 C   0  0  0  0  0  0  0  0  0  0  0  0
  193.1440  173.7430  136.1580 C   0  0  0  0  0  2  0  0  0  0  0  0
  188.7350  178.1250  140.6770 C   0  0  0  0  0  0  0  0  0  0  0  0
  190.7690  173.9520  136.7980 N   0  0  0  0  0  0  0  0  0  0  0  0
  191.8870  177.3660  142.1310 C   0  0  0  0  0  2  0  0  0  0  0  0
  188.7420  177.2840  139.6470 C   0  0  0  0  0  3  0  0  0  0  0  0
  190.8570  177.6320  143.2330 C   0  0  2  0  0  3  0  0  0  0  0  0
  191.0320  174.8590  137.6950 C   0  0  0  0  0  0  0  0  0  0  0  0
  191.7700  173.0900  136.1640 C   0  0  0  0  0  2  0  0  0  0  0  0
  191.1010  176.8840  139.8800 N   0  0  0  0  0  0  0  0  0  0  0  0
  190.1470  176.3380  143.6410 C   0  0  2  0  0  3  0  0  0  0  0  0
  190.2590  175.3800  142.6300 O   0  0  0  0  0  1  0  0  0  0  0  0
  188.6750  176.5600  143.9980 C   0  0  0  0  0  2  0  0  0  0  0  0
  188.4910  177.4120  145.2480 C   0  0  2  0  0  3  0  0  0  0  0  0
  189.2490  176.8290  146.4100 C   0  0  0  0  0  3  0  0  0  0  0  0
  189.0010  177.2850  147.6400 C   0  0  0  0  0  3  0  0  0  0  0  0
  186.9990  177.5190  145.5880 C   0  0  0  0  0  2  0  0  0  0  0  0
  186.7150  178.0630  147.0060 C   0  0  0  0  0  2  0  0  0  0  0  0
  187.9770  178.3690  147.8250 C   0  0  0  0  0  2  0  0  0  0  0  0
  187.4460  178.7110  141.1410 C   0  0  0  0  0  2  0  0  0  0  0  0
  185.0920  178.9790  140.2810 C   0  0  0  0  0  0  0  0  0  0  0  0
  184.7030  179.4270  141.3920 O   0  0  0  0  0  0  0  0  0  0  0  0
  186.4550  178.6100  140.0820 N   0  0  0  0  0  2  0  0  0  0  0  0
  183.3980  178.7220  138.3350 N   0  0  0  0  0  0  0  0  0  0  0  0
  184.1550  178.8360  139.2030 C   0  0  0  0  0  0  0  0  0  0  0  0
  1  2  1  0  0  0  0
  2 13  1  0  0  0  0
  3  5  1  0  0  0  0
  4  1  1  0  0  0  0
  4 11  1  1  0  0  0
  6  7  1  0  0  0  0
  7 12  1  0  0  0  0
  7 16  2  0  0  0  0
  8 15  1  0  0  0  0
  8  3  1  0  0  0  0
  9 26  1  0  0  0  0
  9  1  1  0  0  0  0
 10 14  2  0  0  0  0
 11 13  1  0  0  0  0
 12  9  2  0  0  0  0
 13 17  1  6  0  0  0
 14  5  1  0  0  0  0
 14  6  1  0  0  0  0
 15 10  1  0  0  0  0
 16  4  1  0  0  0  0
 17 18  1  6  0  0  0
 17 19  1  0  0  0  0
 20 19  1  6  0  0  0
 20 23  1  0  0  0  0
 20 21  1  0  0  0  0
 21 22  2  0  0  0  0
 22 25  1  0  0  0  0
 23 24  1  0  0  0  0
 24 25  1  0  0  0  0
 27 28  2  0  0  0  0
 29 27  1  0  0  0  0
 29 26  1  0  0  0  0
 30 31  3  0  0  0  0
 31 27  1  0  0  0  0
M  END
>  <MODEL>
1

>  <REMARK>
 VINA RESULT:      -8.2      0.000      0.000
  Name = 
  6 active torsions:
  status: ('A' for Active; 'I' for Inactive)
    1  A    between atoms: C_2  and  C_15
    2  A    between atoms: C_2  and  N_28
    3  A    between atoms: C_3  and  C_26
    4  A    between atoms: C_5  and  C_16
    5  A    between atoms: C_5  and  C_23
    6  A    between atoms: C_8  and  C_16
                            x       y       z     vdW  Elec       q    Type
                         _______ _______ _______ _____ _____    ______ ____

>  <TORSDO>
F 6

$$$$
=
 OpenBabel10222415313D

 31 34  0  0  1  0  0  0  0  0999 V2000
  190.1630  176.7430  137.3480 N   0  0  0  0  0  0  0  0  0  0  0  0
  189.8530  176.0190  136.2440 O   0  0  0  0  0  0  0  0  0  0  0  0
  187.1500  177.3090  143.2840 C   0  0  0  0  0  2  0  0  0  0  0  0
  189.0030  177.1490  138.1190 C   0  0  1  0  0  3  0  0  0  0  0  0
  188.1590  177.4510  142.1490 C   0  0  0  0  0  2  0  0  0  0  0  0
  190.5570  176.7970  141.5280 N   0  0  0  0  0  2  0  0  0  0  0  0
  190.4030  176.8780  140.1050 C   0  0  0  0  0  0  0  0  0  0  0  0
  187.7660  177.8120  144.5760 C   0  0  0  0  0  2  0  0  0  0  0  0
  191.4660  176.6490  137.9400 C   0  0  0  0  0  0  0  0  0  0  0  0
  189.8760  176.8100  143.7750 N   0  0  0  0  0  0  0  0  0  0  0  0
  187.9540  176.1730  137.6720 C   0  0  0  0  0  2  0  0  0  0  0  0
  191.5940  176.7130  139.2610 C   0  0  0  0  0  3  0  0  0  0  0  0
  188.6740  175.3370  136.6090 C   0  0  2  0  0  3  0  0  0  0  0  0
  189.5390  176.9610  142.5260 C   0  0  0  0  0  0  0  0  0  0  0  0
  188.9530  176.9190  144.9080 C   0  0  0  0  0  2  0  0  0  0  0  0
  189.2290  177.0200  139.5620 N   0  0  0  0  0  0  0  0  0  0  0  0
  189.0110  173.9430  137.1470 C   0  0  2  0  0  3  0  0  0  0  0  0
  190.3960  173.7650  137.2100 O   0  0  0  0  0  1  0  0  0  0  0  0
  188.3710  172.8220  136.3240 C   0  0  0  0  0  2  0  0  0  0  0  0
  186.8550  172.9510  136.2270 C   0  0  2  0  0  3  0  0  0  0  0  0
  186.2280  172.9320  137.5950 C   0  0  0  0  0  3  0  0  0  0  0  0
  184.9060  172.7730  137.6990 C   0  0  0  0  0  3  0  0  0  0  0  0
  186.2920  171.8110  135.3690 C   0  0  0  0  0  2  0  0  0  0  0  0
  184.7610  171.6400  135.4790 C   0  0  0  0  0  2  0  0  0  0  0  0
  184.0870  172.6220  136.4490 C   0  0  0  0  0  2  0  0  0  0  0  0
  192.6600  176.3630  137.0970 C   0  0  0  0  0  2  0  0  0  0  0  0
  194.3560  174.6810  137.9000 C   0  0  0  0  0  0  0  0  0  0  0  0
  193.9230  173.8130  137.0980 O   0  0  0  0  0  0  0  0  0  0  0  0
  193.7770  175.9840  137.9460 N   0  0  0  0  0  2  0  0  0  0  0  0
  196.3200  174.0980  139.4890 N   0  0  0  0  0  0  0  0  0  0  0  0
  195.4440  174.3590  138.7790 C   0  0  0  0  0  0  0  0  0  0  0  0
  1  9  1  0  0  0  0
  1  4  1  0  0  0  0
  2 13  1  0  0  0  0
  2  1  1  0  0  0  0
  3  8  1  0  0  0  0
  4 11  1  6  0  0  0
  4 16  1  0  0  0  0
  5 14  1  0  0  0  0
  5  3  1  0  0  0  0
  6 14  1  0  0  0  0
  7  6  1  0  0  0  0
  8 15  1  0  0  0  0
  9 12  2  0  0  0  0
 10 15  1  0  0  0  0
 12  7  1  0  0  0  0
 13 17  1  1  0  0  0
 13 11  1  0  0  0  0
 14 10  2  0  0  0  0
 16  7  2  0  0  0  0
 17 18  1  6  0  0  0
 19 17  1  0  0  0  0
 20 19  1  1  0  0  0
 20 21  1  0  0  0  0
 21 22  2  0  0  0  0
 23 24  1  0  0  0  0
 23 20  1  0  0  0  0
 24 25  1  0  0  0  0
 25 22  1  0  0  0  0
 26  9  1  0  0  0  0
 26 29  1  0  0  0  0
 27 29  1  0  0  0  0
 27 31  1  0  0  0  0
 28 27  2  0  0  0  0
 31 30  3  0  0  0  0
M  END
>  <MODEL>
2

>  <REMARK>
 VINA RESULT:      -7.2      3.852      8.662
  Name = 
  6 active torsions:
  status: ('A' for Active; 'I' for Inactive)
    1  A    between atoms: C_2  and  C_15
    2  A    between atoms: C_2  and  N_28
    3  A    between atoms: C_3  and  C_26
    4  A    between atoms: C_5  and  C_16
    5  A    between atoms: C_5  and  C_23
    6  A    between atoms: C_8  and  C_16
                            x       y       z     vdW  Elec       q    Type
                         _______ _______ _______ _____ _____    ______ ____

>  <TORSDO>
F 6

$$$$
=
 OpenBabel10222415313D

 31 34  0  0  1  0  0  0  0  0999 V2000
  188.8760  177.0480  144.3000 N   0  0  0  0  0  0  0  0  0  0  0  0
  188.1370  177.0630  145.4370 O   0  0  0  0  0  0  0  0  0  0  0  0
  187.1170  177.0290  137.8550 C   0  0  0  0  0  2  0  0  0  0  0  0
  188.2210  176.3780  143.1920 C   0  0  1  0  0  3  0  0  0  0  0  0
  187.9500  177.0730  139.1320 C   0  0  0  0  0  2  0  0  0  0  0  0
  189.4680  178.6490  140.4640 N   0  0  0  0  0  2  0  0  0  0  0  0
  189.3080  178.0170  141.7400 C   0  0  0  0  0  0  0  0  0  0  0  0
  187.9850  177.4140  136.6710 C   0  0  0  0  0  2  0  0  0  0  0  0
  189.9070  178.0220  144.0880 C   0  0  0  0  0  0  0  0  0  0  0  0
  189.0550  179.0430  138.1860 N   0  0  0  0  0  0  0  0  0  0  0  0
  186.7760  176.4160  143.5940 C   0  0  0  0  0  2  0  0  0  0  0  0
  190.1250  178.4930  142.8640 C   0  0  0  0  0  3  0  0  0  0  0  0
  186.8050  177.0830  144.9730 C   0  0  2  0  0  3  0  0  0  0  0  0
  188.7990  178.3190  139.2380 C   0  0  0  0  0  0  0  0  0  0  0  0
  188.4390  178.8520  136.8700 C   0  0  0  0  0  2  0  0  0  0  0  0
  188.4120  177.0920  141.9260 N   0  0  0  0  0  0  0  0  0  0  0  0
  186.2920  178.5230  144.8940 C   0  0  2  0  0  3  0  0  0  0  0  0
  186.4990  179.1840  146.1070 O   0  0  0  0  0  1  0  0  0  0  0  0
  184.8160  178.6030  144.4940 C   0  0  0  0  0  2  0  0  0  0  0  0
  184.5820  178.2770  143.0230 C   0  0  2  0  0  3  0  0  0  0  0  0
  185.5290  179.0510  142.1480 C   0  0  0  0  0  3  0  0  0  0  0  0
  185.3050  179.0950  140.8310 C   0  0  0  0  0  3  0  0  0  0  0  0
  183.1300  178.5970  142.6470 C   0  0  0  0  0  2  0  0  0  0  0  0
  182.8690  178.6310  141.1240 C   0  0  0  0  0  2  0  0  0  0  0  0
  184.1170  178.3700  140.2680 C   0  0  0  0  0  2  0  0  0  0  0  0
  190.6550  178.5930  145.2420 C   0  0  0  0  0  2  0  0  0  0  0  0
  191.2150  176.9990  147.1130 C   0  0  0  0  0  0  0  0  0  0  0  0
  190.2050  177.3660  147.7700 O   0  0  0  0  0  0  0  0  0  0  0  0
  191.4960  177.5650  145.8340 N   0  0  0  0  0  2  0  0  0  0  0  0
  192.8050  175.2010  148.0920 N   0  0  0  0  0  0  0  0  0  0  0  0
  192.0950  176.0040  147.6550 C   0  0  0  0  0  0  0  0  0  0  0  0
  1  2  1  0  0  0  0
  3  5  1  0  0  0  0
  4 11  1  1  0  0  0
  4  1  1  0  0  0  0
  5 14  1  0  0  0  0
  6  7  1  0  0  0  0
  7 16  2  0  0  0  0
  7 12  1  0  0  0  0
  8 15  1  0  0  0  0
  8  3  1  0  0  0  0
  9  1  1  0  0  0  0
  9 26  1  0  0  0  0
 10 14  2  0  0  0  0
 11 13  1  0  0  0  0
 12  9  2  0  0  0  0
 13 17  1  6  0  0  0
 13  2  1  0  0  0  0
 14  6  1  0  0  0  0
 15 10  1  0  0  0  0
 16  4  1  0  0  0  0
 17 18  1  1  0  0  0
 19 17  1  0  0  0  0
 20 19  1  1  0  0  0
 21 20  1  0  0  0  0
 22 21  2  0  0  0  0
 23 20  1  0  0  0  0
 24 23  1  0  0  0  0
 25 22  1  0  0  0  0
 25 24  1  0  0  0  0
 26 29  1  0  0  0  0
 27 31  1  0  0  0  0
 27 28  2  0  0  0  0
 29 27  1  0  0  0  0
 31 30  3  0  0  0  0
M  END
>  <MODEL>
3

>  <REMARK>
 VINA RESULT:      -7.2      3.399      6.469
  Name = 
  6 active torsions:
  status: ('A' for Active; 'I' for Inactive)
    1  A    between atoms: C_2  and  C_15
    2  A    between atoms: C_2  and  N_28
    3  A    between atoms: C_3  and  C_26
    4  A    between atoms: C_5  and  C_16
    5  A    between atoms: C_5  and  C_23
    6  A    between atoms: C_8  and  C_16
                            x       y       z     vdW  Elec       q    Type
                         _______ _______ _______ _____ _____    ______ ____

>  <TORSDO>
F 6

$$$$
=
 OpenBabel10222415313D

 31 34  0  0  1  0  0  0  0  0999 V2000
  190.0480  177.4270  137.1070 N   0  0  0  0  0  0  0  0  0  0  0  0
  189.6580  177.0670  135.8590 O   0  0  0  0  0  0  0  0  0  0  0  0
  186.6540  177.9850  142.8340 C   0  0  0  0  0  2  0  0  0  0  0  0
  189.0030  178.0790  137.8740 C   0  0  1  0  0  3  0  0  0  0  0  0
  187.7910  177.9520  141.8190 C   0  0  0  0  0  2  0  0  0  0  0  0
  189.8860  176.6030  141.2210 N   0  0  0  0  0  2  0  0  0  0  0  0
  189.9560  176.9820  139.8400 C   0  0  0  0  0  0  0  0  0  0  0  0
  187.2300  178.0000  144.2380 C   0  0  0  0  0  2  0  0  0  0  0  0
  191.1520  176.7700  137.7440 C   0  0  0  0  0  0  0  0  0  0  0  0
  188.9610  176.4660  143.3750 N   0  0  0  0  0  0  0  0  0  0  0  0
  187.7540  177.6370  137.1690 C   0  0  0  0  0  2  0  0  0  0  0  0
  191.1200  176.5520  139.0550 C   0  0  0  0  0  3  0  0  0  0  0  0
  188.2810  176.7990  136.0000 C   0  0  2  0  0  3  0  0  0  0  0  0
  188.8620  176.9430  142.1670 C   0  0  0  0  0  0  0  0  0  0  0  0
  187.9890  176.6980  144.4470 C   0  0  0  0  0  2  0  0  0  0  0  0
  188.9810  177.6280  139.2690 N   0  0  0  0  0  0  0  0  0  0  0  0
  188.0530  175.3060  136.2520 C   0  0  2  0  0  3  0  0  0  0  0  0
  187.8040  174.6390  135.0500 O   0  0  0  0  0  1  0  0  0  0  0  0
  186.9210  175.0420  137.2480 C   0  0  0  0  0  2  0  0  0  0  0  0
  185.8040  174.1850  136.6610 C   0  0  2  0  0  3  0  0  0  0  0  0
  184.5560  175.0000  136.4570 C   0  0  0  0  0  3  0  0  0  0  0  0
  183.4060  174.3710  136.1990 C   0  0  0  0  0  3  0  0  0  0  0  0
  185.5180  172.9990  137.5900 C   0  0  0  0  0  2  0  0  0  0  0  0
  184.1960  172.2630  137.2800 C   0  0  0  0  0  2  0  0  0  0  0  0
  183.3970  172.8710  136.1180 C   0  0  0  0  0  2  0  0  0  0  0  0
  192.2780  176.2290  136.9330 C   0  0  0  0  0  2  0  0  0  0  0  0
  194.3500  174.9500  137.5840 C   0  0  0  0  0  0  0  0  0  0  0  0
  195.0730  175.6930  136.8680 O   0  0  0  0  0  0  0  0  0  0  0  0
  192.9440  175.1670  137.6720 N   0  0  0  0  0  2  0  0  0  0  0  0
  195.4290  173.0020  138.9130 N   0  0  0  0  0  0  0  0  0  0  0  0
  194.9470  173.8720  138.3200 C   0  0  0  0  0  0  0  0  0  0  0  0
  1  9  1  0  0  0  0
  1  4  1  0  0  0  0
  2 13  1  0  0  0  0
  2  1  1  0  0  0  0
  3  8  1  0  0  0  0
  4 11  1  6  0  0  0
  4 16  1  0  0  0  0
  5 14  1  0  0  0  0
  5  3  1  0  0  0  0
  6 14  1  0  0  0  0
  7  6  1  0  0  0  0
  8 15  1  0  0  0  0
  9 12  2  0  0  0  0
 10 15  1  0  0  0  0
 12  7  1  0  0  0  0
 13 17  1  1  0  0  0
 13 11  1  0  0  0  0
 14 10  2  0  0  0  0
 16  7  2  0  0  0  0
 17 18  1  6  0  0  0
 17 19  1  0  0  0  0
 20 19  1  1  0  0  0
 20 23  1  0  0  0  0
 21 20  1  0  0  0  0
 22 21  2  0  0  0  0
 24 23  1  0  0  0  0
 25 22  1  0  0  0  0
 25 24  1  0  0  0  0
 26 29  1  0  0  0  0
 26  9  1  0  0  0  0
 27 29  1  0  0  0  0
 27 31  1  0  0  0  0
 28 27  2  0  0  0  0
 31 30  3  0  0  0  0
M  END
>  <MODEL>
4

>  <REMARK>
 VINA RESULT:      -7.2      4.030      8.614
  Name = 
  6 active torsions:
  status: ('A' for Active; 'I' for Inactive)
    1  A    between atoms: C_2  and  C_15
    2  A    between atoms: C_2  and  N_28
    3  A    between atoms: C_3  and  C_26
    4  A    between atoms: C_5  and  C_16
    5  A    between atoms: C_5  and  C_23
    6  A    between atoms: C_8  and  C_16
                            x       y       z     vdW  Elec       q    Type
                         _______ _______ _______ _____ _____    ______ ____

>  <TORSDO>
F 6

$$$$
=
 OpenBabel10222415313D

 31 34  0  0  1  0  0  0  0  0999 V2000
  183.4010  178.9900  138.9580 N   0  0  0  0  0  0  0  0  0  0  0  0
  183.7800  179.8220  139.9600 O   0  0  0  0  0  0  0  0  0  0  0  0
  186.0050  173.2590  136.7180 C   0  0  0  0  0  2  0  0  0  0  0  0
  184.5090  178.2860  138.3410 C   0  0  1  0  0  3  0  0  0  0  0  0
  185.0770  174.4540  136.9120 C   0  0  0  0  0  2  0  0  0  0  0  0
  182.7210  175.0300  137.7400 N   0  0  0  0  0  2  0  0  0  0  0  0
  182.9730  176.4040  138.0590 C   0  0  0  0  0  0  0  0  0  0  0  0
  185.3050  172.2060  135.8800 C   0  0  0  0  0  2  0  0  0  0  0  0
  182.0600  178.4850  138.8980 C   0  0  0  0  0  0  0  0  0  0  0  0
  183.2470  172.8350  137.0900 N   0  0  0  0  0  0  0  0  0  0  0  0
  185.5770  178.3690  139.3910 C   0  0  0  0  0  2  0  0  0  0  0  0
  181.8420  177.2470  138.4670 C   0  0  0  0  0  3  0  0  0  0  0  0
  184.9250  179.2010  140.4990 C   0  0  2  0  0  3  0  0  0  0  0  0
  183.6700  174.0510  137.2910 C   0  0  0  0  0  0  0  0  0  0  0  0
  184.0910  171.7180  136.6580 C   0  0  0  0  0  2  0  0  0  0  0  0
  184.1840  176.8830  138.0620 N   0  0  0  0  0  0  0  0  0  0  0  0
  184.5400  178.3190  141.6900 C   0  0  2  0  0  3  0  0  0  0  0  0
  183.5650  177.3900  141.3150 O   0  0  0  0  0  1  0  0  0  0  0  0
  184.0600  179.1310  142.8960 C   0  0  0  0  0  2  0  0  0  0  0  0
  185.0100  179.0420  144.0850 C   0  0  2  0  0  3  0  0  0  0  0  0
  185.9990  177.9230  143.8970 C   0  0  0  0  0  3  0  0  0  0  0  0
  186.7360  177.5280  144.9390 C   0  0  0  0  0  3  0  0  0  0  0  0
  184.2070  178.8290  145.3750 C   0  0  0  0  0  2  0  0  0  0  0  0
  185.0640  178.3890  146.5820 C   0  0  0  0  0  2  0  0  0  0  0  0
  186.5560  178.2150  146.2630 C   0  0  0  0  0  2  0  0  0  0  0  0
  180.9250  179.2940  139.4210 C   0  0  0  0  0  2  0  0  0  0  0  0
  180.0260  179.5830  141.7580 C   0  0  0  0  0  0  0  0  0  0  0  0
  179.9710  180.8330  141.6180 O   0  0  0  0  0  0  0  0  0  0  0  0
  180.4840  178.7490  140.6960 N   0  0  0  0  0  2  0  0  0  0  0  0
  179.3030  178.5060  144.0030 N   0  0  0  0  0  0  0  0  0  0  0  0
  179.6250  178.9870  143.0010 C   0  0  0  0  0  0  0  0  0  0  0  0
  1  2  1  0  0  0  0
  2 13  1  0  0  0  0
  3  5  1  0  0  0  0
  4  1  1  0  0  0  0
  4 11  1  1  0  0  0
  5 14  1  0  0  0  0
  6  7  1  0  0  0  0
  7 16  2  0  0  0  0
  7 12  1  0  0  0  0
  8 15  1  0  0  0  0
  8  3  1  0  0  0  0
  9  1  1  0  0  0  0
  9 26  1  0  0  0  0
 10 14  2  0  0  0  0
 11 13  1  0  0  0  0
 12  9  2  0  0  0  0
 13 17  1  1  0  0  0
 14  6  1  0  0  0  0
 15 10  1  0  0  0  0
 16  4  1  0  0  0  0
 17 18  1  6  0  0  0
 17 19  1  0  0  0  0
 20 19  1  6  0  0  0
 20 23  1  0  0  0  0
 21 20  1  0  0  0  0
 21 22  2  0  0  0  0
 22 25  1  0  0  0  0
 23 24  1  0  0  0  0
 25 24  1  0  0  0  0
 26 29  1  0  0  0  0
 27 31  1  0  0  0  0
 28 27  2  0  0  0  0
 29 27  1  0  0  0  0
 31 30  3  0  0  0  0
M  END
>  <MODEL>
5

>  <REMARK>
 VINA RESULT:      -7.1      4.759      6.339
  Name = 
  6 active torsions:
  status: ('A' for Active; 'I' for Inactive)
    1  A    between atoms: C_2  and  C_15
    2  A    between atoms: C_2  and  N_28
    3  A    between atoms: C_3  and  C_26
    4  A    between atoms: C_5  and  C_16
    5  A    between atoms: C_5  and  C_23
    6  A    between atoms: C_8  and  C_16
                            x       y       z     vdW  Elec       q    Type
                         _______ _______ _______ _____ _____    ______ ____

>  <TORSDO>
F 6

$$$$
=
 OpenBabel10222415313D

 31 34  0  0  1  0  0  0  0  0999 V2000
  183.7060  179.1880  138.7380 N   0  0  0  0  0  0  0  0  0  0  0  0
  184.0540  180.0110  139.7580 O   0  0  0  0  0  0  0  0  0  0  0  0
  185.5030  172.9220  137.2750 C   0  0  0  0  0  2  0  0  0  0  0  0
  184.7490  178.2470  138.3730 C   0  0  1  0  0  3  0  0  0  0  0  0
  184.8060  174.2780  137.2380 C   0  0  0  0  0  2  0  0  0  0  0  0
  182.4980  175.3380  137.5770 N   0  0  0  0  0  2  0  0  0  0  0  0
  182.9520  176.6630  137.8820 C   0  0  0  0  0  0  0  0  0  0  0  0
  184.7740  171.9530  136.3630 C   0  0  0  0  0  2  0  0  0  0  0  0
  182.3260  178.9350  138.4440 C   0  0  0  0  0  0  0  0  0  0  0  0
  182.6950  173.0410  137.1310 N   0  0  0  0  0  0  0  0  0  0  0  0
  185.6070  178.2140  139.6030 C   0  0  0  0  0  2  0  0  0  0  0  0
  181.9510  177.7280  138.0310 C   0  0  0  0  0  3  0  0  0  0  0  0
  184.9410  179.2340  140.5310 C   0  0  2  0  0  3  0  0  0  0  0  0
  183.3030  174.1700  137.3590 C   0  0  0  0  0  0  0  0  0  0  0  0
  183.3690  171.7580  136.9140 C   0  0  0  0  0  2  0  0  0  0  0  0
  184.2120  176.9110  138.0950 N   0  0  0  0  0  0  0  0  0  0  0  0
  184.1840  178.5320  141.6620 C   0  0  2  0  0  3  0  0  0  0  0  0
  182.8310  178.4000  141.3380 O   0  0  0  0  0  1  0  0  0  0  0  0
  184.3380  179.2450  143.0080 C   0  0  0  0  0  2  0  0  0  0  0  0
  185.0040  178.3740  144.0670 C   0  0  2  0  0  3  0  0  0  0  0  0
  185.1000  179.1060  145.3780 C   0  0  0  0  0  3  0  0  0  0  0  0
  185.8780  178.6080  146.3420 C   0  0  0  0  0  3  0  0  0  0  0  0
  186.4000  177.9540  143.5900 C   0  0  0  0  0  2  0  0  0  0  0  0
  187.2930  177.3630  144.7040 C   0  0  0  0  0  2  0  0  0  0  0  0
  186.6300  177.3330  146.0890 C   0  0  0  0  0  2  0  0  0  0  0  0
  181.2940  179.9760  138.7070 C   0  0  0  0  0  2  0  0  0  0  0  0
  180.8350  182.3700  138.0640 C   0  0  0  0  0  0  0  0  0  0  0  0
  179.7390  182.3600  138.6840 O   0  0  0  0  0  0  0  0  0  0  0  0
  181.6700  181.2140  138.0420 N   0  0  0  0  0  2  0  0  0  0  0  0
  181.5840  184.5130  136.8110 N   0  0  0  0  0  0  0  0  0  0  0  0
  181.2500  183.5550  137.3700 C   0  0  0  0  0  0  0  0  0  0  0  0
  1  2  1  0  0  0  0
  2 13  1  0  0  0  0
  4  1  1  0  0  0  0
  4 11  1  1  0  0  0
  5  3  1  0  0  0  0
  5 14  1  0  0  0  0
  6  7  1  0  0  0  0
  7 12  1  0  0  0  0
  7 16  2  0  0  0  0
  8 15  1  0  0  0  0
  8  3  1  0  0  0  0
  9 26  1  0  0  0  0
  9  1  1  0  0  0  0
 10 14  2  0  0  0  0
 11 13  1  0  0  0  0
 12  9  2  0  0  0  0
 13 17  1  1  0  0  0
 14  6  1  0  0  0  0
 15 10  1  0  0  0  0
 16  4  1  0  0  0  0
 17 18  1  6  0  0  0
 17 19  1  0  0  0  0
 20 19  1  6  0  0  0
 20 21  1  0  0  0  0
 21 22  2  0  0  0  0
 23 20  1  0  0  0  0
 23 24  1  0  0  0  0
 24 25  1  0  0  0  0
 25 22  1  0  0  0  0
 27 28  2  0  0  0  0
 29 27  1  0  0  0  0
 29 26  1  0  0  0  0
 30 31  3  0  0  0  0
 31 27  1  0  0  0  0
M  END
>  <MODEL>
6

>  <REMARK>
 VINA RESULT:      -7.1      4.840      6.515
  Name = 
  6 active torsions:
  status: ('A' for Active; 'I' for Inactive)
    1  A    between atoms: C_2  and  C_15
    2  A    between atoms: C_2  and  N_28
    3  A    between atoms: C_3  and  C_26
    4  A    between atoms: C_5  and  C_16
    5  A    between atoms: C_5  and  C_23
    6  A    between atoms: C_8  and  C_16
                            x       y       z     vdW  Elec       q    Type
                         _______ _______ _______ _____ _____    ______ ____

>  <TORSDO>
F 6

$$$$
=
 OpenBabel10222415313D

 31 34  0  0  1  0  0  0  0  0999 V2000
  189.7110  177.9830  138.7440 N   0  0  0  0  0  0  0  0  0  0  0  0
  190.5200  177.2120  137.9760 O   0  0  0  0  0  0  0  0  0  0  0  0
  183.1510  179.2120  138.4500 C   0  0  0  0  0  2  0  0  0  0  0  0
  188.5820  178.5370  138.0210 C   0  0  1  0  0  3  0  0  0  0  0  0
  184.6030  179.1880  138.9130 C   0  0  0  0  0  2  0  0  0  0  0  0
  186.0710  178.2930  140.8140 N   0  0  0  0  0  2  0  0  0  0  0  0
  187.3120  178.2880  140.0960 C   0  0  0  0  0  0  0  0  0  0  0  0
  182.2720  179.7490  139.5640 C   0  0  0  0  0  2  0  0  0  0  0  0
  189.6880  177.8200  140.1680 C   0  0  0  0  0  0  0  0  0  0  0  0
  183.7530  178.5200  141.1110 N   0  0  0  0  0  0  0  0  0  0  0  0
  188.4710  177.6250  136.8350 C   0  0  0  0  0  2  0  0  0  0  0  0
  188.5430  177.9650  140.8290 C   0  0  0  0  0  3  0  0  0  0  0  0
  189.6470  176.6590  137.0160 C   0  0  2  0  0  3  0  0  0  0  0  0
  184.7690  178.6110  140.3010 C   0  0  0  0  0  0  0  0  0  0  0  0
  182.3610  178.7840  140.7380 C   0  0  0  0  0  2  0  0  0  0  0  0
  187.3460  178.4910  138.8110 N   0  0  0  0  0  0  0  0  0  0  0  0
  189.1570  175.2830  137.4750 C   0  0  2  0  0  3  0  0  0  0  0  0
  190.2360  174.4120  137.6470 O   0  0  0  0  0  1  0  0  0  0  0  0
  188.1310  174.6720  136.5180 C   0  0  0  0  0  2  0  0  0  0  0  0
  186.7340  174.5870  137.1210 C   0  0  2  0  0  3  0  0  0  0  0  0
  186.3510  173.1560  137.3840 C   0  0  0  0  0  3  0  0  0  0  0  0
  185.0770  172.8680  137.6650 C   0  0  0  0  0  3  0  0  0  0  0  0
  185.7200  175.2430  136.1750 C   0  0  0  0  0  2  0  0  0  0  0  0
  184.2470  174.9210  136.5130 C   0  0  0  0  0  2  0  0  0  0  0  0
  184.0700  173.9800  137.7130 C   0  0  0  0  0  2  0  0  0  0  0  0
  190.9080  177.3770  140.8980 C   0  0  0  0  0  2  0  0  0  0  0  0
  190.4980  176.5420  143.2410 C   0  0  0  0  0  0  0  0  0  0  0  0
  190.4480  175.3490  142.8410 O   0  0  0  0  0  0  0  0  0  0  0  0
  190.7340  177.6080  142.3240 N   0  0  0  0  0  2  0  0  0  0  0  0
  190.1640  177.0710  145.7570 N   0  0  0  0  0  0  0  0  0  0  0  0
  190.3120  176.8350  144.6330 C   0  0  0  0  0  0  0  0  0  0  0  0
  1  9  1  0  0  0  0
  2  1  1  0  0  0  0
  3  5  1  0  0  0  0
  3  8  1  0  0  0  0
  4 11  1  6  0  0  0
  4  1  1  0  0  0  0
  4 16  1  0  0  0  0
  5 14  1  0  0  0  0
  7  6  1  0  0  0  0
  7 12  1  0  0  0  0
  8 15  1  0  0  0  0
  9 12  2  0  0  0  0
  9 26  1  0  0  0  0
 11 13  1  0  0  0  0
 13 17  1  1  0  0  0
 13  2  1  0  0  0  0
 14  6  1  0  0  0  0
 14 10  2  0  0  0  0
 15 10  1  0  0  0  0
 16  7  2  0  0  0  0
 17 18  1  6  0  0  0
 19 17  1  0  0  0  0
 20 19  1  6  0  0  0
 20 21  1  0  0  0  0
 21 22  2  0  0  0  0
 22 25  1  0  0  0  0
 23 24  1  0  0  0  0
 23 20  1  0  0  0  0
 24 25  1  0  0  0  0
 26 29  1  0  0  0  0
 27 31  1  0  0  0  0
 28 27  2  0  0  0  0
 29 27  1  0  0  0  0
 31 30  3  0  0  0  0
M  END
>  <MODEL>
7

>  <REMARK>
 VINA RESULT:      -7.0      3.056      7.960
  Name = 
  6 active torsions:
  status: ('A' for Active; 'I' for Inactive)
    1  A    between atoms: C_2  and  C_15
    2  A    between atoms: C_2  and  N_28
    3  A    between atoms: C_3  and  C_26
    4  A    between atoms: C_5  and  C_16
    5  A    between atoms: C_5  and  C_23
    6  A    between atoms: C_8  and  C_16
                            x       y       z     vdW  Elec       q    Type
                         _______ _______ _______ _____ _____    ______ ____

>  <TORSDO>
F 6

$$$$
=
 OpenBabel10222415313D

 31 34  0  0  1  0  0  0  0  0999 V2000
  184.1840  179.0120  138.7370 N   0  0  0  0  0  0  0  0  0  0  0  0
  183.2900  178.5970  137.8060 O   0  0  0  0  0  0  0  0  0  0  0  0
  184.0630  178.8170  145.4140 C   0  0  0  0  0  2  0  0  0  0  0  0
  183.5700  179.4340  139.9820 C   0  0  1  0  0  3  0  0  0  0  0  0
  184.5290  179.0220  143.9770 C   0  0  0  0  0  2  0  0  0  0  0  0
  186.2360  178.1210  142.2910 N   0  0  0  0  0  2  0  0  0  0  0  0
  185.5440  178.5230  141.1020 C   0  0  0  0  0  0  0  0  0  0  0  0
  185.2510  178.9280  146.3520 C   0  0  0  0  0  2  0  0  0  0  0  0
  185.5500  178.5790  138.6800 C   0  0  0  0  0  0  0  0  0  0  0  0
  186.5470  177.7770  144.5930 N   0  0  0  0  0  0  0  0  0  0  0  0
  182.2290  178.7630  139.9310 C   0  0  0  0  0  2  0  0  0  0  0  0
  186.2140  178.3430  139.8070 C   0  0  0  0  0  3  0  0  0  0  0  0
  182.2330  178.0600  138.5700 C   0  0  2  0  0  3  0  0  0  0  0  0
  185.7810  178.2410  143.6470 C   0  0  0  0  0  0  0  0  0  0  0  0
  186.2170  177.7990  146.0200 C   0  0  0  0  0  2  0  0  0  0  0  0
  184.3220  178.9710  141.1520 N   0  0  0  0  0  0  0  0  0  0  0  0
  182.4120  176.5490  138.7370 C   0  0  2  0  0  3  0  0  0  0  0  0
  182.8850  176.2500  140.0170 O   0  0  0  0  0  1  0  0  0  0  0  0
  183.3370  175.9430  137.6780 C   0  0  0  0  0  2  0  0  0  0  0  0
  183.2340  174.4240  137.6000 C   0  0  2  0  0  3  0  0  0  0  0  0
  184.5980  173.7930  137.6420 C   0  0  0  0  0  3  0  0  0  0  0  0
  184.7240  172.5010  137.3270 C   0  0  0  0  0  3  0  0  0  0  0  0
  182.5020  174.0200  136.3130 C   0  0  0  0  0  2  0  0  0  0  0  0
  182.6360  172.5230  135.9590 C   0  0  0  0  0  2  0  0  0  0  0  0
  183.5010  171.7200  136.9420 C   0  0  0  0  0  2  0  0  0  0  0  0
  186.1940  178.2810  137.3700 C   0  0  0  0  0  2  0  0  0  0  0  0
  188.7100  178.2530  137.5040 C   0  0  0  0  0  0  0  0  0  0  0  0
  188.7700  179.4840  137.2450 O   0  0  0  0  0  0  0  0  0  0  0  0
  187.4520  177.5870  137.5920 N   0  0  0  0  0  2  0  0  0  0  0  0
  190.8970  176.9100  137.8790 N   0  0  0  0  0  0  0  0  0  0  0  0
  189.9200  177.5090  137.7110 C   0  0  0  0  0  0  0  0  0  0  0  0
  1  4  1  0  0  0  0
  2 13  1  0  0  0  0
  2  1  1  0  0  0  0
  3  8  1  0  0  0  0
  4 11  1  1  0  0  0
  4 16  1  0  0  0  0
  5  3  1  0  0  0  0
  6 14  1  0  0  0  0
  7 16  2  0  0  0  0
  7  6  1  0  0  0  0
  9  1  1  0  0  0  0
  9 12  2  0  0  0  0
 10 15  1  0  0  0  0
 12  7  1  0  0  0  0
 13 17  1  1  0  0  0
 13 11  1  0  0  0  0
 14  5  1  0  0  0  0
 14 10  2  0  0  0  0
 15  8  1  0  0  0  0
 17 18  1  1  0  0  0
 19 17  1  0  0  0  0
 20 21  1  0  0  0  0
 20 19  1  6  0  0  0
 22 21  2  0  0  0  0
 23 20  1  0  0  0  0
 24 23  1  0  0  0  0
 24 25  1  0  0  0  0
 25 22  1  0  0  0  0
 26 29  1  0  0  0  0
 26  9  1  0  0  0  0
 27 29  1  0  0  0  0
 27 31  1  0  0  0  0
 28 27  2  0  0  0  0
 31 30  3  0  0  0  0
M  END
>  <MODEL>
8

>  <REMARK>
 VINA RESULT:      -6.9      3.717      9.000
  Name = 
  6 active torsions:
  status: ('A' for Active; 'I' for Inactive)
    1  A    between atoms: C_2  and  C_15
    2  A    between atoms: C_2  and  N_28
    3  A    between atoms: C_3  and  C_26
    4  A    between atoms: C_5  and  C_16
    5  A    between atoms: C_5  and  C_23
    6  A    between atoms: C_8  and  C_16
                            x       y       z     vdW  Elec       q    Type
                         _______ _______ _______ _____ _____    ______ ____

>  <TORSDO>
F 6

$$$$
=
 OpenBabel10222415313D

 31 34  0  0  1  0  0  0  0  0999 V2000
  182.4590  177.9480  138.3870 N   0  0  0  0  0  0  0  0  0  0  0  0
  182.1930  178.9470  139.2640 O   0  0  0  0  0  0  0  0  0  0  0  0
  188.1780  174.9660  136.6470 C   0  0  0  0  0  2  0  0  0  0  0  0
  183.7760  178.0410  137.7850 C   0  0  1  0  0  3  0  0  0  0  0  0
  186.6970  175.3080  136.7620 C   0  0  0  0  0  2  0  0  0  0  0  0
  184.4980  174.3500  137.6630 N   0  0  0  0  0  2  0  0  0  0  0  0
  183.8050  175.5960  137.8110 C   0  0  0  0  0  0  0  0  0  0  0  0
  188.3350  173.6140  135.9760 C   0  0  0  0  0  2  0  0  0  0  0  0
  181.7520  176.7030  138.4650 C   0  0  0  0  0  0  0  0  0  0  0  0
  186.3210  172.9330  137.2320 N   0  0  0  0  0  0  0  0  0  0  0  0
  184.5180  178.9160  138.7520 C   0  0  0  0  0  2  0  0  0  0  0  0
  182.3870  175.5670  138.1900 C   0  0  0  0  0  3  0  0  0  0  0  0
  183.4570  179.2720  139.7980 C   0  0  2  0  0  3  0  0  0  0  0  0
  185.8640  174.1530  137.2700 C   0  0  0  0  0  0  0  0  0  0  0  0
  187.6950  172.5670  136.8770 C   0  0  0  0  0  2  0  0  0  0  0  0
  184.4290  176.7310  137.6850 N   0  0  0  0  0  0  0  0  0  0  0  0
  183.6960  178.5040  141.1020 C   0  0  2  0  0  3  0  0  0  0  0  0
  182.6890  178.7890  142.0280 O   0  0  0  0  0  1  0  0  0  0  0  0
  185.0710  178.7880  141.7110 C   0  0  0  0  0  2  0  0  0  0  0  0
  185.2040  178.2720  143.1390 C   0  0  2  0  0  3  0  0  0  0  0  0
  184.9100  179.3640  144.1320 C   0  0  0  0  0  3  0  0  0  0  0  0
  185.2260  179.1740  145.4160 C   0  0  0  0  0  3  0  0  0  0  0  0
  186.6180  177.7200  143.3610 C   0  0  0  0  0  2  0  0  0  0  0  0
  186.9750  177.4860  144.8450 C   0  0  0  0  0  2  0  0  0  0  0  0
  185.8610  177.8770  145.8280 C   0  0  0  0  0  2  0  0  0  0  0  0
  180.3490  176.6600  138.9630 C   0  0  0  0  0  2  0  0  0  0  0  0
  179.4540  175.3290  140.9070 C   0  0  0  0  0  0  0  0  0  0  0  0
  179.0380  176.3740  141.4730 O   0  0  0  0  0  0  0  0  0  0  0  0
  180.1110  175.3970  139.6440 N   0  0  0  0  0  2  0  0  0  0  0  0
  179.1170  173.0270  142.0510 N   0  0  0  0  0  0  0  0  0  0  0  0
  179.2670  174.0540  141.5400 C   0  0  0  0  0  0  0  0  0  0  0  0
  1  9  1  0  0  0  0
  1  2  1  0  0  0  0
  2 13  1  0  0  0  0
  3  5  1  0  0  0  0
  4  1  1  0  0  0  0
  4 11  1  1  0  0  0
  5 14  1  0  0  0  0
  6  7  1  0  0  0  0
  7 12  1  0  0  0  0
  8  3  1  0  0  0  0
  8 15  1  0  0  0  0
  9 26  1  0  0  0  0
 10 14  2  0  0  0  0
 11 13  1  0  0  0  0
 12  9  2  0  0  0  0
 13 17  1  1  0  0  0
 14  6  1  0  0  0  0
 15 10  1  0  0  0  0
 16  4  1  0  0  0  0
 16  7  2  0  0  0  0
 17 19  1  0  0  0  0
 17 18  1  1  0  0  0
 20 19  1  6  0  0  0
 20 23  1  0  0  0  0
 20 21  1  0  0  0  0
 21 22  2  0  0  0  0
 22 25  1  0  0  0  0
 23 24  1  0  0  0  0
 24 25  1  0  0  0  0
 26 29  1  0  0  0  0
 27 28  2  0  0  0  0
 27 31  1  0  0  0  0
 29 27  1  0  0  0  0
 31 30  3  0  0  0  0
M  END
>  <MODEL>
9

>  <REMARK>
 VINA RESULT:      -6.9      4.189      6.385
  Name = 
  6 active torsions:
  status: ('A' for Active; 'I' for Inactive)
    1  A    between atoms: C_2  and  C_15
    2  A    between atoms: C_2  and  N_28
    3  A    between atoms: C_3  and  C_26
    4  A    between atoms: C_5  and  C_16
    5  A    between atoms: C_5  and  C_23
    6  A    between atoms: C_8  and  C_16
                            x       y       z     vdW  Elec       q    Type
                         _______ _______ _______ _____ _____    ______ ____

>  <TORSDO>
F 6

$$$$
