=
 OpenBabel10222416593D

 40 46  0  0  1  0  0  0  0  0999 V2000
  190.2590  177.0610  143.9780 C   0  0  0  0  0  0  0  0  0  0  0  0
  185.4260  179.1000  139.9400 C   0  0  0  0  0  2  0  0  0  0  0  0
  190.1310  176.9890  145.3920 C   0  0  0  0  0  3  0  0  0  0  0  0
  186.6710  178.2960  141.9890 C   0  0  0  0  0  0  0  0  0  0  0  0
  186.5580  177.9070  145.6050 N   0  0  0  0  0  0  0  0  0  0  0  0
  187.8270  178.0560  141.2030 C   0  0  0  0  0  3  0  0  0  0  0  0
  184.5940  178.3850  144.3820 C   0  0  0  0  0  2  0  0  0  0  0  0
  191.6220  176.8780  143.4090 C   0  0  0  0  0  1  0  0  0  0  0  0
  184.1640  178.6540  141.9030 C   0  0  0  0  0  0  0  0  0  0  0  0
  187.8150  177.5760  145.2320 C   0  0  0  0  0  0  0  0  0  0  0  0
  183.1840  178.6450  140.7880 C   0  0  1  0  0  3  0  0  0  0  0  0
  189.1190  177.3860  143.1840 C   0  0  0  0  0  0  0  0  0  0  0  0
  187.9490  177.6240  143.8860 C   0  0  0  0  0  0  0  0  0  0  0  0
  189.0340  177.5560  141.7680 C   0  0  0  0  0  0  0  0  0  0  0  0
  185.9100  178.1660  144.4320 C   0  0  0  0  0  0  0  0  0  0  0  0
  183.9470  179.2060  139.6010 C   0  0  0  0  0  2  0  0  0  0  0  0
  185.5160  179.1030  141.4600 C   0  0  2  0  0  3  0  0  0  0  0  0
  188.9000  177.2440  146.0370 C   0  0  0  0  0  3  0  0  0  0  0  0
  183.7620  178.4610  143.1630 C   0  0  0  0  0  3  0  0  0  0  0  0
  186.7740  178.0200  143.3510 C   0  0  0  0  0  0  0  0  0  0  0  0
  191.5420  176.6660  138.9310 C   0  0  0  0  0  0  0  0  0  0  0  0
  192.2150  177.3650  139.8710 N   0  0  0  0  0  0  0  0  0  0  0  0
  189.9310  176.4370  139.3620 S   0  0  0  0  0  0  0  0  0  0  0  0
  190.1240  177.2210  140.8400 C   0  0  0  0  0  0  0  0  0  0  0  0
  191.4300  177.6900  140.9330 C   0  0  0  0  0  3  0  0  0  0  0  0
  192.1590  176.2390  137.6420 C   0  0  2  0  0  3  0  0  0  0  0  0
  193.5050  175.4200  135.4540 N   0  0  0  0  0  2  0  0  0  0  0  0
  191.8340  174.4620  137.3430 S   0  0  0  0  0  0  0  0  0  0  0  0
  194.1270  176.4590  136.2880 C   0  0  0  0  0  2  0  0  0  0  0  0
  193.2750  174.2190  136.2460 C   0  0  0  0  0  2  0  0  0  0  0  0
  193.5950  176.4950  137.6570 N   0  0  0  0  0  2  0  0  0  0  0  0
  182.7810  177.2760  140.5000 N   0  0  0  0  0  2  0  0  0  0  0  0
  181.1710  177.3190  139.8590 S   0  0  0  0  0  0  0  0  0  0  0  0
  180.4650  176.0290  140.1730 O   0  0  0  0  0  0  0  0  0  0  0  0
  181.2390  177.4940  138.3700 O   0  0  0  0  0  0  0  0  0  0  0  0
  180.2620  178.6760  140.5670 C   0  0  0  0  0  2  0  0  0  0  0  0
  179.6220  178.2510  141.7610 O   0  0  0  0  0  0  0  0  0  0  0  0
  179.5770  178.2520  144.0530 O   0  0  0  0  0  1  0  0  0  0  0  0
  179.9270  178.8300  142.9910 C   0  0  0  0  0  0  0  0  0  0  0  0
  180.6070  180.0410  143.0590 O   0  0  0  0  0  0  0  0  0  0  0  0
  1  3  1  0  0  0  0
  3 18  2  0  0  0  0
  4 20  2  0  0  0  0
  6 14  2  0  0  0  0
  6  4  1  0  0  0  0
  7 15  1  0  0  0  0
  8  1  1  0  0  0  0
  9 19  2  0  0  0  0
 10  5  1  0  0  0  0
 10 18  1  0  0  0  0
 11 32  1  6  0  0  0
 11  9  1  0  0  0  0
 12 13  1  0  0  0  0
 12  1  2  0  0  0  0
 13 10  2  0  0  0  0
 14 12  1  0  0  0  0
 15  5  2  0  0  0  0
 16  2  1  0  0  0  0
 16 11  1  0  0  0  0
 17  2  1  6  0  0  0
 17  9  1  0  0  0  0
 17  4  1  0  0  0  0
 19  7  1  0  0  0  0
 20 13  1  0  0  0  0
 20 15  1  0  0  0  0
 21 23  1  0  0  0  0
 21 22  2  0  0  0  0
 22 25  1  0  0  0  0
 23 24  1  0  0  0  0
 24 25  2  0  0  0  0
 24 14  1  0  0  0  0
 26 31  1  0  0  0  0
 26 21  1  1  0  0  0
 27 30  1  0  0  0  0
 27 29  1  0  0  0  0
 28 26  1  0  0  0  0
 29 31  1  0  0  0  0
 30 28  1  0  0  0  0
 33 34  2  0  0  0  0
 33 32  1  0  0  0  0
 33 36  1  0  0  0  0
 35 33  2  0  0  0  0
 36 37  1  0  0  0  0
 37 39  1  0  0  0  0
 39 40  2  0  0  0  0
 39 38  1  0  0  0  0
M  END
>  <MODEL>
1

>  <REMARK>
 VINA RESULT:      -9.8      0.000      0.000
  Name = 
  7 active torsions:
  status: ('A' for Active; 'I' for Inactive)
    1  A    between atoms: C_3  and  C_5
    2  A    between atoms: S_6  and  C_7
    3  A    between atoms: S_6  and  N_17
    4  A    between atoms: C_7  and  O_14
    5  A    between atoms: O_14  and  C_22
    6  A    between atoms: N_17  and  C_26
    7  A    between atoms: C_29  and  C_35
                            x       y       z     vdW  Elec       q    Type
                         _______ _______ _______ _____ _____    ______ ____

>  <TORSDO>
F 7

$$$$
=
 OpenBabel10222416593D

 40 46  0  0  1  0  0  0  0  0999 V2000
  189.6420  177.2690  144.4290 C   0  0  0  0  0  0  0  0  0  0  0  0
  185.0210  179.1650  140.0850 C   0  0  0  0  0  2  0  0  0  0  0  0
  189.4350  177.2240  145.8350 C   0  0  0  0  0  3  0  0  0  0  0  0
  186.1580  178.4190  142.2170 C   0  0  0  0  0  0  0  0  0  0  0  0
  185.8460  178.1020  145.8280 N   0  0  0  0  0  0  0  0  0  0  0  0
  187.3590  178.1770  141.5030 C   0  0  0  0  0  3  0  0  0  0  0  0
  183.9490  178.5310  144.4870 C   0  0  0  0  0  2  0  0  0  0  0  0
  191.0380  177.0910  143.9420 C   0  0  0  0  0  1  0  0  0  0  0  0
  183.6560  178.7440  141.9830 C   0  0  0  0  0  0  0  0  0  0  0  0
  187.1260  177.7790  145.5340 C   0  0  0  0  0  0  0  0  0  0  0  0
  182.7400  178.7000  140.8150 C   0  0  1  0  0  3  0  0  0  0  0  0
  188.5450  177.5640  143.5660 C   0  0  0  0  0  0  0  0  0  0  0  0
  187.3350  177.8010  144.1960 C   0  0  0  0  0  0  0  0  0  0  0  0
  188.5390  177.7040  142.1450 C   0  0  0  0  0  0  0  0  0  0  0  0
  185.2620  178.3290  144.6150 C   0  0  0  0  0  0  0  0  0  0  0  0
  183.5630  179.2460  139.6610 C   0  0  0  0  0  2  0  0  0  0  0  0
  185.0260  179.2010  141.6080 C   0  0  2  0  0  3  0  0  0  0  0  0
  188.1670  177.4770  146.4050 C   0  0  0  0  0  3  0  0  0  0  0  0
  183.1860  178.5710  143.2230 C   0  0  0  0  0  3  0  0  0  0  0  0
  186.1870  178.1720  143.5890 C   0  0  0  0  0  0  0  0  0  0  0  0
  191.2200  176.8310  139.4650 C   0  0  0  0  0  0  0  0  0  0  0  0
  191.8450  177.4620  140.4830 N   0  0  0  0  0  0  0  0  0  0  0  0
  189.5730  176.6510  139.7640 S   0  0  0  0  0  0  0  0  0  0  0  0
  189.6820  177.3640  141.2870 C   0  0  0  0  0  0  0  0  0  0  0  0
  190.9940  177.7740  141.4970 C   0  0  0  0  0  3  0  0  0  0  0  0
  191.9170  176.4340  138.2080 C   0  0  2  0  0  3  0  0  0  0  0  0
  193.3740  175.6070  136.0950 N   0  0  0  0  0  2  0  0  0  0  0  0
  191.3150  174.8000  137.6410 S   0  0  0  0  0  0  0  0  0  0  0  0
  194.0570  176.4050  137.1240 C   0  0  0  0  0  2  0  0  0  0  0  0
  192.8220  174.3960  136.6890 C   0  0  0  0  0  2  0  0  0  0  0  0
  193.3600  176.3960  138.4180 N   0  0  0  0  0  2  0  0  0  0  0  0
  182.3700  177.3200  140.5340 N   0  0  0  0  0  2  0  0  0  0  0  0
  180.6530  177.2670  140.3060 S   0  0  0  0  0  0  0  0  0  0  0  0
  179.9640  177.2510  141.6430 O   0  0  0  0  0  0  0  0  0  0  0  0
  180.2940  176.0190  139.5520 O   0  0  0  0  0  0  0  0  0  0  0  0
  180.1090  178.6870  139.3800 C   0  0  0  0  0  2  0  0  0  0  0  0
  179.3350  179.5340  140.2150 O   0  0  0  0  0  0  0  0  0  0  0  0
  180.4370  181.4630  139.6490 O   0  0  0  0  0  0  0  0  0  0  0  0
  179.7280  180.8430  140.4830 C   0  0  0  0  0  0  0  0  0  0  0  0
  179.3520  181.4710  141.6660 O   0  0  0  0  0  1  0  0  0  0  0  0
  1  3  1  0  0  0  0
  3 18  2  0  0  0  0
  4 20  2  0  0  0  0
  6 14  2  0  0  0  0
  6  4  1  0  0  0  0
  7 15  1  0  0  0  0
  8  1  1  0  0  0  0
  9 19  2  0  0  0  0
 10  5  1  0  0  0  0
 10 18  1  0  0  0  0
 11 32  1  6  0  0  0
 11  9  1  0  0  0  0
 12 13  1  0  0  0  0
 12  1  2  0  0  0  0
 13 10  2  0  0  0  0
 14 12  1  0  0  0  0
 15  5  2  0  0  0  0
 16  2  1  0  0  0  0
 16 11  1  0  0  0  0
 17  2  1  6  0  0  0
 17  9  1  0  0  0  0
 17  4  1  0  0  0  0
 19  7  1  0  0  0  0
 20 13  1  0  0  0  0
 20 15  1  0  0  0  0
 21 23  1  0  0  0  0
 21 22  2  0  0  0  0
 22 25  1  0  0  0  0
 23 24  1  0  0  0  0
 24 25  2  0  0  0  0
 24 14  1  0  0  0  0
 26 31  1  0  0  0  0
 26 21  1  1  0  0  0
 27 30  1  0  0  0  0
 27 29  1  0  0  0  0
 28 26  1  0  0  0  0
 29 31  1  0  0  0  0
 30 28  1  0  0  0  0
 33 32  1  0  0  0  0
 33 34  2  0  0  0  0
 35 33  2  0  0  0  0
 36 37  1  0  0  0  0
 36 33  1  0  0  0  0
 37 39  1  0  0  0  0
 38 39  2  0  0  0  0
 39 40  1  0  0  0  0
M  END
>  <MODEL>
2

>  <REMARK>
 VINA RESULT:      -9.4      1.068      1.370
  Name = 
  7 active torsions:
  status: ('A' for Active; 'I' for Inactive)
    1  A    between atoms: C_3  and  C_5
    2  A    between atoms: S_6  and  C_7
    3  A    between atoms: S_6  and  N_17
    4  A    between atoms: C_7  and  O_14
    5  A    between atoms: O_14  and  C_22
    6  A    between atoms: N_17  and  C_26
    7  A    between atoms: C_29  and  C_35
                            x       y       z     vdW  Elec       q    Type
                         _______ _______ _______ _____ _____    ______ ____

>  <TORSDO>
F 7

$$$$
=
 OpenBabel10222416593D

 40 46  0  0  1  0  0  0  0  0999 V2000
  189.4490  177.2160  144.5660 C   0  0  0  0  0  0  0  0  0  0  0  0
  184.7470  179.2120  140.3560 C   0  0  0  0  0  2  0  0  0  0  0  0
  189.2840  177.1810  145.9780 C   0  0  0  0  0  3  0  0  0  0  0  0
  185.9290  178.4450  142.4560 C   0  0  0  0  0  0  0  0  0  0  0  0
  185.7190  178.1470  146.0750 N   0  0  0  0  0  0  0  0  0  0  0  0
  187.1020  178.1710  141.7060 C   0  0  0  0  0  3  0  0  0  0  0  0
  183.7930  178.6190  144.7910 C   0  0  0  0  0  2  0  0  0  0  0  0
  190.8240  177.0030  144.0370 C   0  0  0  0  0  1  0  0  0  0  0  0
  183.4300  178.8300  142.2960 C   0  0  0  0  0  0  0  0  0  0  0  0
  186.9810  177.7920  145.7440 C   0  0  0  0  0  0  0  0  0  0  0  0
  182.4780  178.8060  141.1560 C   0  0  1  0  0  3  0  0  0  0  0  0
  188.3340  177.5350  143.7350 C   0  0  0  0  0  0  0  0  0  0  0  0
  187.1500  177.8040  144.4010 C   0  0  0  0  0  0  0  0  0  0  0  0
  188.2880  177.6710  142.3140 C   0  0  0  0  0  0  0  0  0  0  0  0
  185.1040  178.3850  144.8800 C   0  0  0  0  0  0  0  0  0  0  0  0
  183.2780  179.3280  139.9760 C   0  0  0  0  0  2  0  0  0  0  0  0
  184.7980  179.2530  141.8780 C   0  0  2  0  0  3  0  0  0  0  0  0
  188.0400  177.4670  146.5850 C   0  0  0  0  0  3  0  0  0  0  0  0
  182.9940  178.6740  143.5500 C   0  0  0  0  0  3  0  0  0  0  0  0
  185.9930  178.2020  143.8270 C   0  0  0  0  0  0  0  0  0  0  0  0
  190.8680  176.7380  139.5570 C   0  0  0  0  0  0  0  0  0  0  0  0
  191.5420  177.3250  140.5690 N   0  0  0  0  0  0  0  0  0  0  0  0
  189.2230  176.6180  139.8930 S   0  0  0  0  0  0  0  0  0  0  0  0
  189.3960  177.3000  141.4230 C   0  0  0  0  0  0  0  0  0  0  0  0
  190.7280  177.6540  141.6090 C   0  0  0  0  0  3  0  0  0  0  0  0
  191.5190  176.3340  138.2770 C   0  0  2  0  0  3  0  0  0  0  0  0
  192.5810  175.3560  136.0000 N   0  0  0  0  0  2  0  0  0  0  0  0
  190.4370  176.7510  136.8590 S   0  0  0  0  0  0  0  0  0  0  0  0
  192.7890  174.5860  137.2350 C   0  0  0  0  0  2  0  0  0  0  0  0
  191.1550  175.4990  135.7380 C   0  0  0  0  0  2  0  0  0  0  0  0
  191.8120  174.9060  138.2860 N   0  0  0  0  0  2  0  0  0  0  0  0
  182.0660  177.4350  140.8920 N   0  0  0  0  0  2  0  0  0  0  0  0
  180.3710  177.4510  140.5310 S   0  0  0  0  0  0  0  0  0  0  0  0
  179.9430  178.8450  140.1650 O   0  0  0  0  0  0  0  0  0  0  0  0
  179.6050  177.0020  141.7420 O   0  0  0  0  0  0  0  0  0  0  0  0
  180.0180  176.3510  139.1760 C   0  0  0  0  0  2  0  0  0  0  0  0
  179.0950  175.3580  139.5950 O   0  0  0  0  0  0  0  0  0  0  0  0
  179.6190  173.6010  140.9710 O   0  0  0  0  0  1  0  0  0  0  0  0
  179.4930  174.0390  139.7980 C   0  0  0  0  0  0  0  0  0  0  0  0
  179.7580  173.2010  138.7200 O   0  0  0  0  0  0  0  0  0  0  0  0
  1  3  1  0  0  0  0
  3 18  2  0  0  0  0
  4 20  2  0  0  0  0
  6 14  2  0  0  0  0
  6  4  1  0  0  0  0
  7 15  1  0  0  0  0
  8  1  1  0  0  0  0
  9 19  2  0  0  0  0
 10  5  1  0  0  0  0
 10 18  1  0  0  0  0
 11 32  1  6  0  0  0
 11  9  1  0  0  0  0
 12 13  1  0  0  0  0
 12  1  2  0  0  0  0
 13 10  2  0  0  0  0
 14 12  1  0  0  0  0
 15  5  2  0  0  0  0
 16  2  1  0  0  0  0
 16 11  1  0  0  0  0
 17  2  1  6  0  0  0
 17  9  1  0  0  0  0
 17  4  1  0  0  0  0
 19  7  1  0  0  0  0
 20 13  1  0  0  0  0
 20 15  1  0  0  0  0
 21 23  1  0  0  0  0
 21 22  2  0  0  0  0
 22 25  1  0  0  0  0
 23 24  1  0  0  0  0
 24 25  2  0  0  0  0
 24 14  1  0  0  0  0
 26 31  1  0  0  0  0
 26 21  1  1  0  0  0
 27 29  1  0  0  0  0
 28 26  1  0  0  0  0
 29 31  1  0  0  0  0
 30 27  1  0  0  0  0
 30 28  1  0  0  0  0
 33 32  1  0  0  0  0
 33 35  2  0  0  0  0
 34 33  2  0  0  0  0
 36 37  1  0  0  0  0
 36 33  1  0  0  0  0
 37 39  1  0  0  0  0
 39 38  1  0  0  0  0
 40 39  2  0  0  0  0
M  END
>  <MODEL>
3

>  <REMARK>
 VINA RESULT:      -9.2      1.544      2.375
  Name = 
  7 active torsions:
  status: ('A' for Active; 'I' for Inactive)
    1  A    between atoms: C_3  and  C_5
    2  A    between atoms: S_6  and  C_7
    3  A    between atoms: S_6  and  N_17
    4  A    between atoms: C_7  and  O_14
    5  A    between atoms: O_14  and  C_22
    6  A    between atoms: N_17  and  C_26
    7  A    between atoms: C_29  and  C_35
                            x       y       z     vdW  Elec       q    Type
                         _______ _______ _______ _____ _____    ______ ____

>  <TORSDO>
F 7

$$$$
=
 OpenBabel10222416593D

 40 46  0  0  1  0  0  0  0  0999 V2000
  189.1060  177.3120  144.9840 C   0  0  0  0  0  0  0  0  0  0  0  0
  184.6070  179.2720  140.5410 C   0  0  0  0  0  2  0  0  0  0  0  0
  188.8720  177.2800  146.3860 C   0  0  0  0  0  3  0  0  0  0  0  0
  185.6880  178.5160  142.6990 C   0  0  0  0  0  0  0  0  0  0  0  0
  185.3010  178.2270  146.3050 N   0  0  0  0  0  0  0  0  0  0  0  0
  186.8980  178.2470  142.0090 C   0  0  0  0  0  3  0  0  0  0  0  0
  183.4390  178.6840  144.9260 C   0  0  0  0  0  2  0  0  0  0  0  0
  190.5070  177.1050  144.5240 C   0  0  0  0  0  1  0  0  0  0  0  0
  183.1980  178.8880  142.4150 C   0  0  0  0  0  0  0  0  0  0  0  0
  186.5800  177.8770  146.0370 C   0  0  0  0  0  0  0  0  0  0  0  0
  182.3040  178.8550  141.2300 C   0  0  1  0  0  3  0  0  0  0  0  0
  188.0320  177.6230  144.0980 C   0  0  0  0  0  0  0  0  0  0  0  0
  186.8150  177.8870  144.7040 C   0  0  0  0  0  0  0  0  0  0  0  0
  188.0560  177.7550  142.6760 C   0  0  0  0  0  0  0  0  0  0  0  0
  184.7450  178.4580  145.0800 C   0  0  0  0  0  0  0  0  0  0  0  0
  183.1590  179.3790  140.0890 C   0  0  0  0  0  2  0  0  0  0  0  0
  184.5830  179.3170  142.0640 C   0  0  2  0  0  3  0  0  0  0  0  0
  187.5990  177.5600  146.9300 C   0  0  0  0  0  3  0  0  0  0  0  0
  182.7020  178.7320  143.6470 C   0  0  0  0  0  3  0  0  0  0  0  0
  185.6870  178.2770  144.0720 C   0  0  0  0  0  0  0  0  0  0  0  0
  190.7580  176.7570  140.0630 C   0  0  0  0  0  0  0  0  0  0  0  0
  191.3600  177.5090  141.0100 N   0  0  0  0  0  0  0  0  0  0  0  0
  189.1240  176.5290  140.3950 S   0  0  0  0  0  0  0  0  0  0  0  0
  189.2080  177.3880  141.8420 C   0  0  0  0  0  0  0  0  0  0  0  0
  190.5010  177.8770  141.9990 C   0  0  0  0  0  3  0  0  0  0  0  0
  191.4660  176.2740  138.8420 C   0  0  2  0  0  3  0  0  0  0  0  0
  192.6650  175.6350  136.5130 N   0  0  0  0  0  2  0  0  0  0  0  0
  193.2310  176.7560  138.9020 S   0  0  0  0  0  0  0  0  0  0  0  0
  191.2540  176.0450  136.4630 C   0  0  0  0  0  2  0  0  0  0  0  0
  193.4720  176.7030  137.0910 C   0  0  0  0  0  2  0  0  0  0  0  0
  190.8340  176.8140  137.6430 N   0  0  0  0  0  2  0  0  0  0  0  0
  181.9120  177.4810  140.9490 N   0  0  0  0  0  2  0  0  0  0  0  0
  180.1910  177.4500  140.7530 S   0  0  0  0  0  0  0  0  0  0  0  0
  179.5330  178.1110  141.9320 O   0  0  0  0  0  0  0  0  0  0  0  0
  179.7310  176.0230  140.6680 O   0  0  0  0  0  0  0  0  0  0  0  0
  179.7240  178.3040  139.2620 C   0  0  0  0  0  2  0  0  0  0  0  0
  178.9690  179.4590  139.5910 O   0  0  0  0  0  0  0  0  0  0  0  0
  179.7310  181.2670  140.7780 O   0  0  0  0  0  1  0  0  0  0  0  0
  179.5620  180.7180  139.6580 C   0  0  0  0  0  0  0  0  0  0  0  0
  179.9650  181.3780  138.5020 O   0  0  0  0  0  0  0  0  0  0  0  0
  1  3  1  0  0  0  0
  3 18  2  0  0  0  0
  4 20  2  0  0  0  0
  6 14  2  0  0  0  0
  6  4  1  0  0  0  0
  7 15  1  0  0  0  0
  8  1  1  0  0  0  0
  9 19  2  0  0  0  0
 10  5  1  0  0  0  0
 10 18  1  0  0  0  0
 11 32  1  6  0  0  0
 11  9  1  0  0  0  0
 12 13  1  0  0  0  0
 12  1  2  0  0  0  0
 13 10  2  0  0  0  0
 14 12  1  0  0  0  0
 15  5  2  0  0  0  0
 16  2  1  0  0  0  0
 16 11  1  0  0  0  0
 17  2  1  6  0  0  0
 17  9  1  0  0  0  0
 17  4  1  0  0  0  0
 19  7  1  0  0  0  0
 20 13  1  0  0  0  0
 20 15  1  0  0  0  0
 21 23  1  0  0  0  0
 21 22  2  0  0  0  0
 22 25  1  0  0  0  0
 23 24  1  0  0  0  0
 24 25  2  0  0  0  0
 24 14  1  0  0  0  0
 26 28  1  0  0  0  0
 26 21  1  1  0  0  0
 27 30  1  0  0  0  0
 29 27  1  0  0  0  0
 29 31  1  0  0  0  0
 30 28  1  0  0  0  0
 31 26  1  0  0  0  0
 33 32  1  0  0  0  0
 33 34  2  0  0  0  0
 35 33  2  0  0  0  0
 36 37  1  0  0  0  0
 36 33  1  0  0  0  0
 37 39  1  0  0  0  0
 39 38  1  0  0  0  0
 40 39  2  0  0  0  0
M  END
>  <MODEL>
4

>  <REMARK>
 VINA RESULT:      -9.0      1.521      2.056
  Name = 
  7 active torsions:
  status: ('A' for Active; 'I' for Inactive)
    1  A    between atoms: C_3  and  C_5
    2  A    between atoms: S_6  and  C_7
    3  A    between atoms: S_6  and  N_17
    4  A    between atoms: C_7  and  O_14
    5  A    between atoms: O_14  and  C_22
    6  A    between atoms: N_17  and  C_26
    7  A    between atoms: C_29  and  C_35
                            x       y       z     vdW  Elec       q    Type
                         _______ _______ _______ _____ _____    ______ ____

>  <TORSDO>
F 7

$$$$
=
 OpenBabel10222416593D

 40 46  0  0  1  0  0  0  0  0999 V2000
  189.4680  177.2490  144.6490 C   0  0  0  0  0  0  0  0  0  0  0  0
  184.7770  179.2580  140.4330 C   0  0  0  0  0  2  0  0  0  0  0  0
  189.3010  177.2140  146.0610 C   0  0  0  0  0  3  0  0  0  0  0  0
  185.9540  178.4860  142.5340 C   0  0  0  0  0  0  0  0  0  0  0  0
  185.7380  178.1880  146.1530 N   0  0  0  0  0  0  0  0  0  0  0  0
  187.1280  178.2110  141.7860 C   0  0  0  0  0  3  0  0  0  0  0  0
  183.8150  178.6650  144.8660 C   0  0  0  0  0  2  0  0  0  0  0  0
  190.8440  177.0330  144.1230 C   0  0  0  0  0  1  0  0  0  0  0  0
  183.4570  178.8780  142.3700 C   0  0  0  0  0  0  0  0  0  0  0  0
  187.0000  177.8300  145.8240 C   0  0  0  0  0  0  0  0  0  0  0  0
  182.5070  178.8560  141.2290 C   0  0  1  0  0  3  0  0  0  0  0  0
  188.3560  177.5710  143.8170 C   0  0  0  0  0  0  0  0  0  0  0  0
  187.1710  177.8430  144.4810 C   0  0  0  0  0  0  0  0  0  0  0  0
  188.3120  177.7070  142.3960 C   0  0  0  0  0  0  0  0  0  0  0  0
  185.1260  178.4280  144.9570 C   0  0  0  0  0  0  0  0  0  0  0  0
  183.3100  179.3770  140.0500 C   0  0  0  0  0  2  0  0  0  0  0  0
  184.8260  179.2970  141.9540 C   0  0  2  0  0  3  0  0  0  0  0  0
  188.0580  177.5030  146.6660 C   0  0  0  0  0  3  0  0  0  0  0  0
  183.0180  178.7220  143.6240 C   0  0  0  0  0  3  0  0  0  0  0  0
  186.0160  178.2430  143.9050 C   0  0  0  0  0  0  0  0  0  0  0  0
  190.8740  176.6590  139.6630 C   0  0  0  0  0  0  0  0  0  0  0  0
  191.5070  177.4820  140.5270 N   0  0  0  0  0  0  0  0  0  0  0  0
  189.2740  176.3950  140.1160 S   0  0  0  0  0  0  0  0  0  0  0  0
  189.4200  177.3340  141.5060 C   0  0  0  0  0  0  0  0  0  0  0  0
  190.7010  177.8740  141.5500 C   0  0  0  0  0  3  0  0  0  0  0  0
  191.5170  176.1340  138.4240 C   0  0  2  0  0  3  0  0  0  0  0  0
  192.6290  175.4300  136.0700 N   0  0  0  0  0  2  0  0  0  0  0  0
  193.3270  176.4060  138.4870 S   0  0  0  0  0  0  0  0  0  0  0  0
  191.2740  176.0020  136.0410 C   0  0  0  0  0  2  0  0  0  0  0  0
  193.5550  176.3790  136.6740 C   0  0  0  0  0  2  0  0  0  0  0  0
  190.9490  176.7790  137.2450 N   0  0  0  0  0  2  0  0  0  0  0  0
  182.0910  177.4860  140.9640 N   0  0  0  0  0  2  0  0  0  0  0  0
  180.4200  177.5170  140.5090 S   0  0  0  0  0  0  0  0  0  0  0  0
  179.9100  178.9310  140.5450 O   0  0  0  0  0  0  0  0  0  0  0  0
  179.6300  176.6840  141.4770 O   0  0  0  0  0  0  0  0  0  0  0  0
  180.2140  176.8580  138.8670 C   0  0  0  0  0  2  0  0  0  0  0  0
  181.3160  177.2400  138.0580 O   0  0  0  0  0  0  0  0  0  0  0  0
  182.4400  175.2470  138.2040 O   0  0  0  0  0  1  0  0  0  0  0  0
  182.2030  176.2950  137.5490 C   0  0  0  0  0  0  0  0  0  0  0  0
  182.8350  176.4980  136.3260 O   0  0  0  0  0  0  0  0  0  0  0  0
  1  3  1  0  0  0  0
  3 18  2  0  0  0  0
  4 20  2  0  0  0  0
  6 14  2  0  0  0  0
  6  4  1  0  0  0  0
  7 15  1  0  0  0  0
  8  1  1  0  0  0  0
  9 19  2  0  0  0  0
 10  5  1  0  0  0  0
 10 18  1  0  0  0  0
 11 32  1  6  0  0  0
 11  9  1  0  0  0  0
 12 13  1  0  0  0  0
 12  1  2  0  0  0  0
 13 10  2  0  0  0  0
 14 12  1  0  0  0  0
 15  5  2  0  0  0  0
 16  2  1  0  0  0  0
 16 11  1  0  0  0  0
 17  2  1  6  0  0  0
 17  9  1  0  0  0  0
 17  4  1  0  0  0  0
 19  7  1  0  0  0  0
 20 13  1  0  0  0  0
 20 15  1  0  0  0  0
 21 23  1  0  0  0  0
 21 22  2  0  0  0  0
 22 25  1  0  0  0  0
 23 24  1  0  0  0  0
 24 25  2  0  0  0  0
 24 14  1  0  0  0  0
 26 28  1  0  0  0  0
 26 21  1  1  0  0  0
 27 30  1  0  0  0  0
 29 27  1  0  0  0  0
 29 31  1  0  0  0  0
 30 28  1  0  0  0  0
 31 26  1  0  0  0  0
 33 34  2  0  0  0  0
 33 32  1  0  0  0  0
 33 35  2  0  0  0  0
 36 33  1  0  0  0  0
 37 36  1  0  0  0  0
 39 37  1  0  0  0  0
 39 38  1  0  0  0  0
 40 39  2  0  0  0  0
M  END
>  <MODEL>
5

>  <REMARK>
 VINA RESULT:      -8.8      1.425      2.531
  Name = 
  7 active torsions:
  status: ('A' for Active; 'I' for Inactive)
    1  A    between atoms: C_3  and  C_5
    2  A    between atoms: S_6  and  C_7
    3  A    between atoms: S_6  and  N_17
    4  A    between atoms: C_7  and  O_14
    5  A    between atoms: O_14  and  C_22
    6  A    between atoms: N_17  and  C_26
    7  A    between atoms: C_29  and  C_35
                            x       y       z     vdW  Elec       q    Type
                         _______ _______ _______ _____ _____    ______ ____

>  <TORSDO>
F 7

$$$$
=
 OpenBabel10222416593D

 40 46  0  0  1  0  0  0  0  0999 V2000
  190.1190  175.3640  135.5520 C   0  0  0  0  0  0  0  0  0  0  0  0
  188.4120  177.9830  141.3870 C   0  0  0  0  0  2  0  0  0  0  0  0
  191.4550  175.3130  135.0680 C   0  0  0  0  0  3  0  0  0  0  0  0
  189.7790  177.0350  139.4820 C   0  0  0  0  0  0  0  0  0  0  0  0
  193.1150  176.6740  138.0750 N   0  0  0  0  0  0  0  0  0  0  0  0
  188.5910  176.6490  138.8100 C   0  0  0  0  0  3  0  0  0  0  0  0
  192.8190  177.3920  140.3060 C   0  0  0  0  0  2  0  0  0  0  0  0
  189.0360  175.0090  134.5940 C   0  0  0  0  0  1  0  0  0  0  0  0
  190.7470  177.7050  141.7250 C   0  0  0  0  0  0  0  0  0  0  0  0
  192.2630  176.1870  137.1450 C   0  0  0  0  0  0  0  0  0  0  0  0
  190.1570  177.8160  143.0830 C   0  0  1  0  0  3  0  0  0  0  0  0
  189.8680  175.8280  136.8770 C   0  0  0  0  0  0  0  0  0  0  0  0
  190.9870  176.2130  137.5980 C   0  0  0  0  0  0  0  0  0  0  0  0
  188.6160  176.0030  137.5410 C   0  0  0  0  0  0  0  0  0  0  0  0
  192.3160  177.0100  139.1300 C   0  0  0  0  0  0  0  0  0  0  0  0
  188.7290  178.2730  142.8460 C   0  0  0  0  0  2  0  0  0  0  0  0
  189.7470  177.9800  140.6530 C   0  0  2  0  0  3  0  0  0  0  0  0
  192.5470  175.7240  135.8650 C   0  0  0  0  0  3  0  0  0  0  0  0
  192.0680  177.5680  141.5660 C   0  0  0  0  0  3  0  0  0  0  0  0
  190.9820  176.7530  138.8360 C   0  0  0  0  0  0  0  0  0  0  0  0
  185.2490  174.3690  136.4820 C   0  0  0  0  0  0  0  0  0  0  0  0
  185.1730  175.6880  136.2000 N   0  0  0  0  0  0  0  0  0  0  0  0
  186.7450  173.9580  137.1360 S   0  0  0  0  0  0  0  0  0  0  0  0
  187.3340  175.5310  137.0010 C   0  0  0  0  0  0  0  0  0  0  0  0
  186.3260  176.3460  136.4990 C   0  0  0  0  0  3  0  0  0  0  0  0
  184.1000  173.4350  136.3020 C   0  0  2  0  0  3  0  0  0  0  0  0
  182.0490  171.6850  136.2440 N   0  0  0  0  0  2  0  0  0  0  0  0
  182.5170  174.3270  136.5290 S   0  0  0  0  0  0  0  0  0  0  0  0
  183.3230  171.2240  136.8160 C   0  0  0  0  0  2  0  0  0  0  0  0
  181.5600  172.8390  136.9870 C   0  0  0  0  0  2  0  0  0  0  0  0
  184.1960  172.3260  137.2440 N   0  0  0  0  0  2  0  0  0  0  0  0
  190.1460  176.5080  143.7220 N   0  0  0  0  0  2  0  0  0  0  0  0
  191.1100  176.6100  145.1580 S   0  0  0  0  0  0  0  0  0  0  0  0
  191.8590  177.9140  145.1760 O   0  0  0  0  0  0  0  0  0  0  0  0
  192.0950  175.4760  145.1720 O   0  0  0  0  0  0  0  0  0  0  0  0
  190.0760  176.5040  146.6040 C   0  0  0  0  0  2  0  0  0  0  0  0
  188.9100  177.2900  146.4160 O   0  0  0  0  0  0  0  0  0  0  0  0
  187.0680  178.2290  147.4060 O   0  0  0  0  0  0  0  0  0  0  0  0
  188.2870  177.9300  147.4850 C   0  0  0  0  0  0  0  0  0  0  0  0
  188.9990  178.2470  148.6380 O   0  0  0  0  0  1  0  0  0  0  0  0
  1 12  1  0  0  0  0
  2 16  1  0  0  0  0
  3  1  2  0  0  0  0
  3 18  1  0  0  0  0
  4 17  1  0  0  0  0
  5 15  2  0  0  0  0
  6  4  2  0  0  0  0
  7 19  1  0  0  0  0
  8  1  1  0  0  0  0
  9 11  1  0  0  0  0
 10 13  1  0  0  0  0
 10  5  1  0  0  0  0
 11 32  1  6  0  0  0
 12 14  2  0  0  0  0
 12 13  1  0  0  0  0
 13 20  2  0  0  0  0
 14  6  1  0  0  0  0
 15  7  1  0  0  0  0
 16 11  1  0  0  0  0
 17  2  1  1  0  0  0
 17  9  1  0  0  0  0
 18 10  2  0  0  0  0
 19  9  2  0  0  0  0
 20 15  1  0  0  0  0
 20  4  1  0  0  0  0
 21 23  1  0  0  0  0
 22 21  2  0  0  0  0
 22 25  1  0  0  0  0
 24 23  1  0  0  0  0
 24 14  1  0  0  0  0
 25 24  2  0  0  0  0
 26 21  1  1  0  0  0
 26 28  1  0  0  0  0
 26 31  1  0  0  0  0
 27 29  1  0  0  0  0
 27 30  1  0  0  0  0
 28 30  1  0  0  0  0
 29 31  1  0  0  0  0
 32 33  1  0  0  0  0
 33 35  2  0  0  0  0
 33 34  2  0  0  0  0
 33 36  1  0  0  0  0
 37 36  1  0  0  0  0
 37 39  1  0  0  0  0
 38 39  2  0  0  0  0
 39 40  1  0  0  0  0
M  END
>  <MODEL>
6

>  <REMARK>
 VINA RESULT:      -8.2      5.198      8.790
  Name = 
  7 active torsions:
  status: ('A' for Active; 'I' for Inactive)
    1  A    between atoms: C_3  and  C_5
    2  A    between atoms: S_6  and  C_7
    3  A    between atoms: S_6  and  N_17
    4  A    between atoms: C_7  and  O_14
    5  A    between atoms: O_14  and  C_22
    6  A    between atoms: N_17  and  C_26
    7  A    between atoms: C_29  and  C_35
                            x       y       z     vdW  Elec       q    Type
                         _______ _______ _______ _____ _____    ______ ____

>  <TORSDO>
F 7

$$$$
=
 OpenBabel10222416593D

 40 46  0  0  1  0  0  0  0  0999 V2000
  191.4370  174.5680  135.7480 C   0  0  0  0  0  0  0  0  0  0  0  0
  188.0180  177.9330  140.3100 C   0  0  0  0  0  2  0  0  0  0  0  0
  192.8570  174.5390  135.6850 C   0  0  0  0  0  3  0  0  0  0  0  0
  189.9100  176.8020  139.0700 C   0  0  0  0  0  0  0  0  0  0  0  0
  193.5200  176.4680  138.7660 N   0  0  0  0  0  0  0  0  0  0  0  0
  188.9830  176.2310  138.1590 C   0  0  0  0  0  3  0  0  0  0  0  0
  192.5600  177.5010  140.6610 C   0  0  0  0  0  2  0  0  0  0  0  0
  190.6940  173.9910  134.5940 C   0  0  0  0  0  1  0  0  0  0  0  0
  190.1540  177.8810  141.3490 C   0  0  0  0  0  0  0  0  0  0  0  0
  192.9920  175.7810  137.7270 C   0  0  0  0  0  0  0  0  0  0  0  0
  189.1860  178.1600  142.4400 C   0  0  1  0  0  3  0  0  0  0  0  0
  190.7940  175.2130  136.8460 C   0  0  0  0  0  0  0  0  0  0  0  0
  191.6400  175.7860  137.7820 C   0  0  0  0  0  0  0  0  0  0  0  0
  189.3980  175.3990  137.0810 C   0  0  0  0  0  0  0  0  0  0  0  0
  192.4370  176.9050  139.4730 C   0  0  0  0  0  0  0  0  0  0  0  0
  187.8820  178.4700  141.7270 C   0  0  0  0  0  2  0  0  0  0  0  0
  189.5100  177.9120  140.0040 C   0  0  2  0  0  3  0  0  0  0  0  0
  193.6540  175.1460  136.6810 C   0  0  0  0  0  3  0  0  0  0  0  0
  191.4650  177.8160  141.6020 C   0  0  0  0  0  3  0  0  0  0  0  0
  191.2550  176.5100  138.8550 C   0  0  0  0  0  0  0  0  0  0  0  0
  186.5330  173.3820  135.3910 C   0  0  0  0  0  0  0  0  0  0  0  0
  186.5140  174.6310  134.8780 N   0  0  0  0  0  0  0  0  0  0  0  0
  187.7760  173.1870  136.5090 S   0  0  0  0  0  0  0  0  0  0  0  0
  188.3440  174.7570  136.2830 C   0  0  0  0  0  0  0  0  0  0  0  0
  187.5120  175.4090  135.3800 C   0  0  0  0  0  3  0  0  0  0  0  0
  185.5110  172.3510  135.0500 C   0  0  2  0  0  3  0  0  0  0  0  0
  183.7390  170.3550  134.6620 N   0  0  0  0  0  2  0  0  0  0  0  0
  183.8790  172.8280  135.7310 S   0  0  0  0  0  0  0  0  0  0  0  0
  185.1420  169.9850  134.9060 C   0  0  0  0  0  2  0  0  0  0  0  0
  183.2250  171.1220  135.7890 C   0  0  0  0  0  2  0  0  0  0  0  0
  185.9130  171.0480  135.5660 N   0  0  0  0  0  2  0  0  0  0  0  0
  189.0170  176.9690  143.2610 N   0  0  0  0  0  2  0  0  0  0  0  0
  189.6980  177.2980  144.8200 S   0  0  0  0  0  0  0  0  0  0  0  0
  188.7520  176.8360  145.8940 O   0  0  0  0  0  0  0  0  0  0  0  0
  189.9160  178.7770  144.9590 O   0  0  0  0  0  0  0  0  0  0  0  0
  191.2560  176.4560  145.0040 C   0  0  0  0  0  2  0  0  0  0  0  0
  191.9780  177.0210  146.0870 O   0  0  0  0  0  0  0  0  0  0  0  0
  191.9930  175.1460  147.4070 O   0  0  0  0  0  0  0  0  0  0  0  0
  192.0130  176.4020  147.3350 C   0  0  0  0  0  0  0  0  0  0  0  0
  192.0640  177.1570  148.5030 O   0  0  0  0  0  1  0  0  0  0  0  0
  1 12  1  0  0  0  0
  2 16  1  0  0  0  0
  3  1  2  0  0  0  0
  3 18  1  0  0  0  0
  4 17  1  0  0  0  0
  5 15  2  0  0  0  0
  6  4  2  0  0  0  0
  7 19  1  0  0  0  0
  8  1  1  0  0  0  0
  9 19  2  0  0  0  0
  9 11  1  0  0  0  0
 10 13  1  0  0  0  0
 10  5  1  0  0  0  0
 11 32  1  1  0  0  0
 12 14  2  0  0  0  0
 12 13  1  0  0  0  0
 13 20  2  0  0  0  0
 14  6  1  0  0  0  0
 15  7  1  0  0  0  0
 16 11  1  0  0  0  0
 17  2  1  1  0  0  0
 17  9  1  0  0  0  0
 18 10  2  0  0  0  0
 20  4  1  0  0  0  0
 20 15  1  0  0  0  0
 21 23  1  0  0  0  0
 22 25  1  0  0  0  0
 22 21  2  0  0  0  0
 24 23  1  0  0  0  0
 24 14  1  0  0  0  0
 25 24  2  0  0  0  0
 26 21  1  1  0  0  0
 26 31  1  0  0  0  0
 26 28  1  0  0  0  0
 27 29  1  0  0  0  0
 27 30  1  0  0  0  0
 28 30  1  0  0  0  0
 29 31  1  0  0  0  0
 32 33  1  0  0  0  0
 33 35  2  0  0  0  0
 33 36  1  0  0  0  0
 33 34  2  0  0  0  0
 36 37  1  0  0  0  0
 37 39  1  0  0  0  0
 39 38  2  0  0  0  0
 39 40  1  0  0  0  0
M  END
>  <MODEL>
7

>  <REMARK>
 VINA RESULT:      -8.1      5.824      8.818
  Name = 
  7 active torsions:
  status: ('A' for Active; 'I' for Inactive)
    1  A    between atoms: C_3  and  C_5
    2  A    between atoms: S_6  and  C_7
    3  A    between atoms: S_6  and  N_17
    4  A    between atoms: C_7  and  O_14
    5  A    between atoms: O_14  and  C_22
    6  A    between atoms: N_17  and  C_26
    7  A    between atoms: C_29  and  C_35
                            x       y       z     vdW  Elec       q    Type
                         _______ _______ _______ _____ _____    ______ ____

>  <TORSDO>
F 7

$$$$
=
 OpenBabel10222416593D

 40 46  0  0  1  0  0  0  0  0999 V2000
  184.1610  178.8510  144.2330 C   0  0  0  0  0  0  0  0  0  0  0  0
  186.1320  178.0780  137.9610 C   0  0  0  0  0  2  0  0  0  0  0  0
  182.8140  179.0970  144.6150 C   0  0  0  0  0  3  0  0  0  0  0  0
  184.6750  178.2760  140.0190 C   0  0  0  0  0  0  0  0  0  0  0  0
  181.2950  178.7900  141.2610 N   0  0  0  0  0  0  0  0  0  0  0  0
  185.8270  178.2480  140.8480 C   0  0  0  0  0  3  0  0  0  0  0  0
  181.6780  178.2620  138.9900 C   0  0  0  0  0  2  0  0  0  0  0  0
  185.2030  178.9990  145.2870 C   0  0  0  0  0  1  0  0  0  0  0  0
  183.7940  177.7420  137.7050 C   0  0  0  0  0  0  0  0  0  0  0  0
  182.1000  178.8160  142.3470 C   0  0  0  0  0  0  0  0  0  0  0  0
  184.4190  177.1270  136.5070 C   0  0  1  0  0  3  0  0  0  0  0  0
  184.4660  178.5670  142.8690 C   0  0  0  0  0  0  0  0  0  0  0  0
  183.3850  178.5680  142.0030 C   0  0  0  0  0  0  0  0  0  0  0  0
  185.7400  178.3390  142.2660 C   0  0  0  0  0  0  0  0  0  0  0  0
  182.1330  178.5150  140.2190 C   0  0  0  0  0  0  0  0  0  0  0  0
  185.8640  177.5950  136.5440 C   0  0  0  0  0  2  0  0  0  0  0  0
  184.7820  178.4920  138.5330 C   0  0  2  0  0  3  0  0  0  0  0  0
  181.7630  179.0790  143.6710 C   0  0  0  0  0  3  0  0  0  0  0  0
  182.4650  177.7480  137.8520 C   0  0  0  0  0  3  0  0  0  0  0  0
  183.4460  178.4010  140.6640 C   0  0  0  0  0  0  0  0  0  0  0  0
  188.8360  177.4090  144.4300 C   0  0  0  0  0  0  0  0  0  0  0  0
  189.2570  178.2210  143.4360 N   0  0  0  0  0  0  0  0  0  0  0  0
  187.1730  177.1510  144.3580 S   0  0  0  0  0  0  0  0  0  0  0  0
  186.9840  178.1670  143.0290 C   0  0  0  0  0  0  0  0  0  0  0  0
  188.2340  178.6380  142.6420 C   0  0  0  0  0  3  0  0  0  0  0  0
  189.7670  176.7680  145.4030 C   0  0  2  0  0  3  0  0  0  0  0  0
  191.6280  175.8120  147.1040 N   0  0  0  0  0  2  0  0  0  0  0  0
  189.4360  177.3860  147.0950 S   0  0  0  0  0  0  0  0  0  0  0  0
  192.0480  176.0980  145.7240 C   0  0  0  0  0  2  0  0  0  0  0  0
  191.1120  177.0250  147.7270 C   0  0  0  0  0  2  0  0  0  0  0  0
  191.1510  177.0330  145.0290 N   0  0  0  0  0  2  0  0  0  0  0  0
  184.3790  175.6760  136.6220 N   0  0  0  0  0  2  0  0  0  0  0  0
  183.2400  175.0830  135.4580 S   0  0  0  0  0  0  0  0  0  0  0  0
  183.8940  174.0410  134.5940 O   0  0  0  0  0  0  0  0  0  0  0  0
  182.7800  176.2220  134.5950 O   0  0  0  0  0  0  0  0  0  0  0  0
  181.8320  174.3670  136.2810 C   0  0  0  0  0  2  0  0  0  0  0  0
  182.2700  173.3890  137.2110 O   0  0  0  0  0  0  0  0  0  0  0  0
  181.1750  171.4740  136.5850 O   0  0  0  0  0  0  0  0  0  0  0  0
  182.2600  172.0320  136.8940 C   0  0  0  0  0  0  0  0  0  0  0  0
  183.4340  171.2860  136.9210 O   0  0  0  0  0  1  0  0  0  0  0  0
  1  3  1  0  0  0  0
  1  8  1  0  0  0  0
  4 20  2  0  0  0  0
  4  6  1  0  0  0  0
  5 10  1  0  0  0  0
  6 14  2  0  0  0  0
  7 15  1  0  0  0  0
  9 19  2  0  0  0  0
  9 17  1  0  0  0  0
 10 18  1  0  0  0  0
 11 16  1  0  0  0  0
 11 32  1  1  0  0  0
 11  9  1  0  0  0  0
 12  1  2  0  0  0  0
 13 10  2  0  0  0  0
 13 12  1  0  0  0  0
 14 12  1  0  0  0  0
 14 24  1  0  0  0  0
 15 20  1  0  0  0  0
 15  5  2  0  0  0  0
 16  2  1  0  0  0  0
 17  2  1  6  0  0  0
 17  4  1  0  0  0  0
 18  3  2  0  0  0  0
 19  7  1  0  0  0  0
 20 13  1  0  0  0  0
 22 21  2  0  0  0  0
 23 21  1  0  0  0  0
 24 23  1  0  0  0  0
 25 24  2  0  0  0  0
 25 22  1  0  0  0  0
 26 21  1  6  0  0  0
 26 28  1  0  0  0  0
 27 30  1  0  0  0  0
 28 30  1  0  0  0  0
 29 27  1  0  0  0  0
 31 26  1  0  0  0  0
 31 29  1  0  0  0  0
 33 36  1  0  0  0  0
 33 32  1  0  0  0  0
 34 33  2  0  0  0  0
 35 33  2  0  0  0  0
 36 37  1  0  0  0  0
 38 39  2  0  0  0  0
 39 40  1  0  0  0  0
 39 37  1  0  0  0  0
M  END
>  <MODEL>
8

>  <REMARK>
 VINA RESULT:      -8.1      4.554      6.739
  Name = 
  7 active torsions:
  status: ('A' for Active; 'I' for Inactive)
    1  A    between atoms: C_3  and  C_5
    2  A    between atoms: S_6  and  C_7
    3  A    between atoms: S_6  and  N_17
    4  A    between atoms: C_7  and  O_14
    5  A    between atoms: O_14  and  C_22
    6  A    between atoms: N_17  and  C_26
    7  A    between atoms: C_29  and  C_35
                            x       y       z     vdW  Elec       q    Type
                         _______ _______ _______ _____ _____    ______ ____

>  <TORSDO>
F 7

$$$$
=
 OpenBabel10222416593D

 40 46  0  0  1  0  0  0  0  0999 V2000
  183.1480  178.7210  144.3070 C   0  0  0  0  0  0  0  0  0  0  0  0
  186.8210  178.2450  138.8200 C   0  0  0  0  0  2  0  0  0  0  0  0
  181.7560  179.0130  144.3050 C   0  0  0  0  0  3  0  0  0  0  0  0
  184.8390  178.3890  140.3850 C   0  0  0  0  0  0  0  0  0  0  0  0
  181.2630  179.0020  140.6430 N   0  0  0  0  0  0  0  0  0  0  0  0
  185.7000  178.2470  141.5030 C   0  0  0  0  0  3  0  0  0  0  0  0
  182.2680  178.6000  138.5430 C   0  0  0  0  0  2  0  0  0  0  0  0
  183.8450  178.7450  145.6220 C   0  0  0  0  0  1  0  0  0  0  0  0
  184.6480  178.0510  137.8810 C   0  0  0  0  0  0  0  0  0  0  0  0
  181.7190  178.9160  141.9130 C   0  0  0  0  0  0  0  0  0  0  0  0
  185.5720  177.4810  136.8680 C   0  0  1  0  0  3  0  0  0  0  0  0
  183.8240  178.5080  143.0690 C   0  0  0  0  0  0  0  0  0  0  0  0
  183.0410  178.6220  141.9320 C   0  0  0  0  0  0  0  0  0  0  0  0
  185.2100  178.2520  142.8400 C   0  0  0  0  0  0  0  0  0  0  0  0
  182.3570  178.7500  139.8670 C   0  0  0  0  0  0  0  0  0  0  0  0
  186.9590  177.8680  137.3530 C   0  0  0  0  0  2  0  0  0  0  0  0
  185.3780  178.6920  139.0120 C   0  0  2  0  0  3  0  0  0  0  0  0
  181.0230  179.1110  143.1010 C   0  0  0  0  0  3  0  0  0  0  0  0
  183.3340  178.1180  137.6410 C   0  0  0  0  0  3  0  0  0  0  0  0
  183.4810  178.5380  140.6580 C   0  0  0  0  0  0  0  0  0  0  0  0
  188.0910  177.3300  145.2860 C   0  0  0  0  0  0  0  0  0  0  0  0
  187.3850  178.3380  145.8430 N   0  0  0  0  0  0  0  0  0  0  0  0
  187.4430  176.8620  143.8040 S   0  0  0  0  0  0  0  0  0  0  0  0
  186.1740  177.9650  143.9110 C   0  0  0  0  0  0  0  0  0  0  0  0
  186.3230  178.7080  145.0770 C   0  0  0  0  0  3  0  0  0  0  0  0
  189.3350  176.7790  145.8960 C   0  0  2  0  0  3  0  0  0  0  0  0
  191.7130  176.0110  146.9110 N   0  0  0  0  0  2  0  0  0  0  0  0
  189.4350  177.2470  147.6630 S   0  0  0  0  0  0  0  0  0  0  0  0
  191.6760  176.4300  145.5020 C   0  0  0  0  0  2  0  0  0  0  0  0
  191.2540  177.0990  147.7650 C   0  0  0  0  0  2  0  0  0  0  0  0
  190.5090  177.2620  145.1770 N   0  0  0  0  0  2  0  0  0  0  0  0
  185.4520  176.0300  136.8560 N   0  0  0  0  0  2  0  0  0  0  0  0
  186.4490  175.4260  135.5740 S   0  0  0  0  0  0  0  0  0  0  0  0
  187.7360  174.8910  136.1400 O   0  0  0  0  0  0  0  0  0  0  0  0
  186.7580  176.5450  134.6220 O   0  0  0  0  0  0  0  0  0  0  0  0
  185.6060  174.1260  134.6960 C   0  0  0  0  0  2  0  0  0  0  0  0
  184.5850  173.5800  135.5170 O   0  0  0  0  0  0  0  0  0  0  0  0
  185.0620  171.3710  135.9050 O   0  0  0  0  0  0  0  0  0  0  0  0
  184.8400  172.5160  136.3790 C   0  0  0  0  0  0  0  0  0  0  0  0
  184.8470  172.7020  137.7570 O   0  0  0  0  0  1  0  0  0  0  0  0
  1  8  1  0  0  0  0
  3  1  1  0  0  0  0
  4 20  2  0  0  0  0
  4  6  1  0  0  0  0
  5 10  1  0  0  0  0
  6 14  2  0  0  0  0
  7 15  1  0  0  0  0
  9 17  1  0  0  0  0
 10 13  2  0  0  0  0
 10 18  1  0  0  0  0
 11 32  1  1  0  0  0
 11 16  1  0  0  0  0
 11  9  1  0  0  0  0
 12  1  2  0  0  0  0
 13 12  1  0  0  0  0
 14 12  1  0  0  0  0
 14 24  1  0  0  0  0
 15  5  2  0  0  0  0
 15 20  1  0  0  0  0
 16  2  1  0  0  0  0
 17  2  1  1  0  0  0
 17  4  1  0  0  0  0
 18  3  2  0  0  0  0
 19  9  2  0  0  0  0
 19  7  1  0  0  0  0
 20 13  1  0  0  0  0
 21 22  2  0  0  0  0
 23 24  1  0  0  0  0
 23 21  1  0  0  0  0
 24 25  2  0  0  0  0
 25 22  1  0  0  0  0
 26 21  1  6  0  0  0
 26 28  1  0  0  0  0
 27 30  1  0  0  0  0
 28 30  1  0  0  0  0
 29 27  1  0  0  0  0
 31 29  1  0  0  0  0
 31 26  1  0  0  0  0
 33 34  2  0  0  0  0
 33 32  1  0  0  0  0
 35 33  2  0  0  0  0
 36 37  1  0  0  0  0
 36 33  1  0  0  0  0
 37 39  1  0  0  0  0
 38 39  2  0  0  0  0
 39 40  1  0  0  0  0
M  END
>  <MODEL>
9

>  <REMARK>
 VINA RESULT:      -7.9      4.676      7.415
  Name = 
  7 active torsions:
  status: ('A' for Active; 'I' for Inactive)
    1  A    between atoms: C_3  and  C_5
    2  A    between atoms: S_6  and  C_7
    3  A    between atoms: S_6  and  N_17
    4  A    between atoms: C_7  and  O_14
    5  A    between atoms: O_14  and  C_22
    6  A    between atoms: N_17  and  C_26
    7  A    between atoms: C_29  and  C_35
                            x       y       z     vdW  Elec       q    Type
                         _______ _______ _______ _____ _____    ______ ____

>  <TORSDO>
F 7

$$$$
