=
 OpenBabel10222418123D

 45 48  0  0  1  0  0  0  0  0999 V2000
  191.1330  175.7850  138.3480 C   0  0  1  0  0  3  0  0  0  0  0  0
  189.7530  177.8980  137.8590 N   0  0  0  0  0  2  0  0  0  0  0  0
  192.5200  175.8630  137.7150 C   0  0  0  0  0  2  0  0  0  0  0  0
  186.5790  175.2570  136.4540 C   0  0  0  0  0  0  0  0  0  0  0  0
  192.0900  173.6370  136.6190 C   0  0  0  0  0  0  0  0  0  0  0  0
  190.6280  177.1590  138.7320 C   0  0  0  0  0  0  0  0  0  0  0  0
  188.4710  178.4180  138.2520 C   0  0  0  0  0  0  0  0  0  0  0  0
  193.0580  174.4530  137.4470 C   0  0  1  0  0  3  0  0  0  0  0  0
  188.3950  173.6570  135.7600 C   0  0  0  0  0  3  0  0  0  0  0  0
  185.7050  174.6580  135.7700 O   0  0  0  0  0  0  0  0  0  0  0  0
  186.2910  176.6180  137.0490 C   0  0  1  0  0  3  0  0  0  0  0  0
  189.7470  173.2860  135.7950 C   0  0  0  0  0  3  0  0  0  0  0  0
  188.0660  178.3590  139.4960 C   0  0  0  0  0  0  0  0  0  0  0  0
  190.9490  177.6380  139.8540 O   0  0  0  0  0  0  0  0  0  0  0  0
  192.5050  172.6460  135.9550 O   0  0  0  0  0  0  0  0  0  0  0  0
  187.9300  174.6810  136.5950 C   0  0  0  0  0  0  0  0  0  0  0  0
  190.6490  173.9600  136.6410 C   0  0  0  0  0  0  0  0  0  0  0  0
  188.8220  175.2990  137.4640 C   0  0  0  0  0  3  0  0  0  0  0  0
  190.1800  174.9950  137.4700 C   0  0  0  0  0  0  0  0  0  0  0  0
  187.4810  178.8560  137.2130 C   0  0  0  0  0  2  0  0  0  0  0  0
  187.0590  177.7060  136.2930 C   0  0  0  0  0  2  0  0  0  0  0  0
  187.6390  178.2850  140.7280 C   0  0  0  0  0  3  0  0  0  0  0  0
  186.1770  178.3130  141.0030 C   0  0  0  0  0  3  0  0  0  0  0  0
  185.8650  179.4740  141.9240 C   0  0  0  0  0  2  0  0  0  0  0  0
  185.9470  178.0680  142.4810 C   0  0  0  0  0  2  0  0  0  0  0  0
  194.4190  174.5140  136.8130 C   0  0  0  0  0  0  0  0  0  0  0  0
  194.5960  175.2320  135.7900 O   0  0  0  0  0  0  0  0  0  0  0  0
  195.4980  173.7070  137.3190 N   0  0  0  0  0  0  0  0  0  0  0  0
  195.2570  171.3480  137.9360 C   0  0  0  0  0  1  0  0  0  0  0  0
  195.2720  172.7880  138.4300 C   0  0  0  0  0  2  0  0  0  0  0  0
  196.7680  173.6330  136.6060 C   0  0  0  0  0  2  0  0  0  0  0  0
  197.8730  174.2710  137.4280 C   0  0  0  0  0  1  0  0  0  0  0  0
  184.8060  176.9380  137.1190 C   0  0  0  0  0  2  0  0  0  0  0  0
  184.3400  176.7560  138.4830 N   0  0  0  0  0  2  0  0  0  0  0  0
  182.9760  177.2670  138.5490 C   0  0  1  0  0  3  0  0  0  0  0  0
  181.0860  175.9370  137.7720 N   0  0  0  0  0  1  0  0  0  0  0  0
  182.0210  176.1260  138.8660 C   0  0  0  0  0  2  0  0  0  0  0  0
  182.8610  178.4050  139.5750 C   0  0  1  0  0  3  0  0  0  0  0  0
  183.0310  179.7610  138.9580 C   0  0  0  0  0  0  0  0  0  0  0  0
  184.1460  180.3420  139.0220 O   0  0  0  0  0  0  0  0  0  0  0  0
  181.9540  180.3750  138.2520 N   0  0  0  0  0  1  0  0  0  0  0  0
  181.6180  178.3310  140.2690 O   0  0  0  0  0  0  0  0  0  0  0  0
  182.1840  178.8180  142.6470 C   0  0  0  0  0  1  0  0  0  0  0  0
  180.4460  179.9250  141.4640 O   0  0  0  0  0  0  0  0  0  0  0  0
  181.3640  179.0640  141.4310 C   0  0  0  0  0  0  0  0  0  0  0  0
  1  3  1  6  0  0  0
  1  6  1  0  0  0  0
  2  7  1  0  0  0  0
  2  6  1  0  0  0  0
  4 16  1  0  0  0  0
  4 11  1  0  0  0  0
  5 17  1  0  0  0  0
  5  8  1  0  0  0  0
  6 14  2  0  0  0  0
  7 13  2  0  0  0  0
  8 26  1  6  0  0  0
  8  3  1  0  0  0  0
  9 12  2  0  0  0  0
  9 16  1  0  0  0  0
 10  4  2  0  0  0  0
 11 33  1  6  0  0  0
 12 17  1  0  0  0  0
 13 22  2  0  0  0  0
 15  5  2  0  0  0  0
 16 18  2  0  0  0  0
 17 19  2  0  0  0  0
 18 19  1  0  0  0  0
 19  1  1  0  0  0  0
 20  7  1  0  0  0  0
 21 11  1  0  0  0  0
 21 20  1  0  0  0  0
 22 23  1  0  0  0  0
 23 24  1  0  0  0  0
 23 25  1  0  0  0  0
 24 25  1  0  0  0  0
 26 28  1  0  0  0  0
 27 26  2  0  0  0  0
 28 30  1  0  0  0  0
 29 30  1  0  0  0  0
 31 28  1  0  0  0  0
 31 32  1  0  0  0  0
 33 34  1  0  0  0  0
 34 35  1  0  0  0  0
 35 37  1  1  0  0  0
 35 38  1  0  0  0  0
 36 37  1  0  0  0  0
 38 39  1  6  0  0  0
 38 42  1  0  0  0  0
 39 40  2  0  0  0  0
 41 39  1  0  0  0  0
 42 45  1  0  0  0  0
 45 44  2  0  0  0  0
 45 43  1  0  0  0  0
M  END
>  <MODEL>
1

>  <REMARK>
 VINA RESULT:      -6.1      0.000      0.000
  Name = 
  12 active torsions:
  status: ('A' for Active; 'I' for Inactive)
    1  A    between atoms: C_2  and  N_45
    2  A    between atoms: C_4  and  N_26
    3  A    between atoms: C_4  and  C_29
    4  A    between atoms: C_6  and  C_14
    5  A    between atoms: C_6  and  C_19
    6  A    between atoms: C_6  and  O_42
    7  A    between atoms: C_10  and  C_44
    8  A    between atoms: C_12  and  C_18
    9  A    between atoms: C_14  and  N_26
   10  A    between atoms: C_14  and  C_27
   11  A    between atoms: C_35  and  N_45
   12  A    between atoms: O_42  and  C_43
                            x       y       z     vdW  Elec       q    Type
                         _______ _______ _______ _____ _____    ______ ____

>  <TORSDO>
F 12

$$$$
=
 OpenBabel10222418123D

 45 48  0  0  1  0  0  0  0  0999 V2000
  183.5340  177.0940  137.9380 C   0  0  1  0  0  3  0  0  0  0  0  0
  185.5730  177.7550  136.5190 N   0  0  0  0  0  2  0  0  0  0  0  0
  182.2770  177.8400  137.4950 C   0  0  0  0  0  2  0  0  0  0  0  0
  187.6750  178.5350  140.2600 C   0  0  0  0  0  0  0  0  0  0  0  0
  181.9410  178.5870  139.8760 C   0  0  0  0  0  0  0  0  0  0  0  0
  184.4730  176.8610  136.7740 C   0  0  0  0  0  0  0  0  0  0  0  0
  186.9440  177.3360  136.4080 C   0  0  0  0  0  0  0  0  0  0  0  0
  181.2930  177.9560  138.6630 C   0  0  1  0  0  3  0  0  0  0  0  0
  185.4370  179.1470  141.2390 C   0  0  0  0  0  3  0  0  0  0  0  0
  188.3060  179.0600  141.2170 O   0  0  0  0  0  0  0  0  0  0  0  0
  188.3990  178.1080  139.0010 C   0  0  1  0  0  3  0  0  0  0  0  0
  184.0400  179.1680  141.1210 C   0  0  0  0  0  3  0  0  0  0  0  0
  187.2700  176.0680  136.4080 C   0  0  0  0  0  0  0  0  0  0  0  0
  184.3060  175.8430  136.0480 O   0  0  0  0  0  0  0  0  0  0  0  0
  181.2280  179.1410  140.7580 O   0  0  0  0  0  0  0  0  0  0  0  0
  186.2050  178.4240  140.3160 C   0  0  0  0  0  0  0  0  0  0  0  0
  183.4040  178.4950  140.0600 C   0  0  0  0  0  0  0  0  0  0  0  0
  185.5580  177.7200  139.3070 C   0  0  0  0  0  3  0  0  0  0  0  0
  184.1790  177.7800  139.1290 C   0  0  0  0  0  0  0  0  0  0  0  0
  188.0530  178.3430  136.4970 C   0  0  0  0  0  2  0  0  0  0  0  0
  188.0760  179.0620  137.8490 C   0  0  0  0  0  2  0  0  0  0  0  0
  187.6100  174.8070  136.4310 C   0  0  0  0  0  3  0  0  0  0  0  0
  188.9840  174.4230  136.8570 C   0  0  0  0  0  3  0  0  0  0  0  0
  189.6770  173.7080  135.7170 C   0  0  0  0  0  2  0  0  0  0  0  0
  189.0950  172.9120  136.8670 C   0  0  0  0  0  2  0  0  0  0  0  0
  180.0550  178.6980  138.2450 C   0  0  0  0  0  0  0  0  0  0  0  0
  178.9310  178.1330  138.3370 O   0  0  0  0  0  0  0  0  0  0  0  0
  180.1510  180.0170  137.6770 N   0  0  0  0  0  0  0  0  0  0  0  0
  181.6680  181.7860  138.4330 C   0  0  0  0  0  1  0  0  0  0  0  0
  181.4550  180.6340  137.4610 C   0  0  0  0  0  2  0  0  0  0  0  0
  178.9740  180.6710  137.1140 C   0  0  0  0  0  2  0  0  0  0  0  0
  179.0990  180.7740  135.6050 C   0  0  0  0  0  1  0  0  0  0  0  0
  189.9000  177.9650  139.1960 C   0  0  0  0  0  2  0  0  0  0  0  0
  190.2050  176.6000  139.5870 N   0  0  0  0  0  2  0  0  0  0  0  0
  191.2500  176.6620  140.6020 C   0  0  1  0  0  3  0  0  0  0  0  0
  193.3420  176.8530  139.3650 N   0  0  0  0  0  1  0  0  0  0  0  0
  192.3580  177.5930  140.1340 C   0  0  0  0  0  2  0  0  0  0  0  0
  190.6770  177.1000  141.9600 C   0  0  1  0  0  3  0  0  0  0  0  0
  189.9320  176.0010  142.6560 C   0  0  0  0  0  0  0  0  0  0  0  0
  190.5440  174.9620  143.0180 O   0  0  0  0  0  0  0  0  0  0  0  0
  188.5460  176.1450  142.9600 N   0  0  0  0  0  1  0  0  0  0  0  0
  191.7120  177.6040  142.8010 O   0  0  0  0  0  0  0  0  0  0  0  0
  191.4240  177.5700  145.2770 C   0  0  0  0  0  1  0  0  0  0  0  0
  191.2110  179.5380  143.9640 O   0  0  0  0  0  0  0  0  0  0  0  0
  191.4430  178.3000  143.9820 C   0  0  0  0  0  0  0  0  0  0  0  0
  1  3  1  6  0  0  0
  1 19  1  0  0  0  0
  2  6  1  0  0  0  0
  3  8  1  0  0  0  0
  4 16  1  0  0  0  0
  4 10  2  0  0  0  0
  5 17  1  0  0  0  0
  5 15  2  0  0  0  0
  6  1  1  0  0  0  0
  7 13  2  0  0  0  0
  7 20  1  0  0  0  0
  7  2  1  0  0  0  0
  8 26  1  6  0  0  0
  8  5  1  0  0  0  0
 11 33  1  1  0  0  0
 11  4  1  0  0  0  0
 12  9  1  0  0  0  0
 13 22  2  0  0  0  0
 14  6  2  0  0  0  0
 16  9  2  0  0  0  0
 17 12  2  0  0  0  0
 18 16  1  0  0  0  0
 19 18  2  0  0  0  0
 19 17  1  0  0  0  0
 20 21  1  0  0  0  0
 21 11  1  0  0  0  0
 22 23  1  0  0  0  0
 23 25  1  0  0  0  0
 24 23  1  0  0  0  0
 24 25  1  0  0  0  0
 26 27  2  0  0  0  0
 28 26  1  0  0  0  0
 30 28  1  0  0  0  0
 30 29  1  0  0  0  0
 31 28  1  0  0  0  0
 32 31  1  0  0  0  0
 33 34  1  0  0  0  0
 34 35  1  0  0  0  0
 35 37  1  6  0  0  0
 35 38  1  0  0  0  0
 36 37  1  0  0  0  0
 38 39  1  1  0  0  0
 38 42  1  0  0  0  0
 39 41  1  0  0  0  0
 39 40  2  0  0  0  0
 42 45  1  0  0  0  0
 44 45  2  0  0  0  0
 45 43  1  0  0  0  0
M  END
>  <MODEL>
2

>  <REMARK>
 VINA RESULT:      -5.2      3.231     10.211
  Name = 
  12 active torsions:
  status: ('A' for Active; 'I' for Inactive)
    1  A    between atoms: C_2  and  N_45
    2  A    between atoms: C_4  and  N_26
    3  A    between atoms: C_4  and  C_29
    4  A    between atoms: C_6  and  C_14
    5  A    between atoms: C_6  and  C_19
    6  A    between atoms: C_6  and  O_42
    7  A    between atoms: C_10  and  C_44
    8  A    between atoms: C_12  and  C_18
    9  A    between atoms: C_14  and  N_26
   10  A    between atoms: C_14  and  C_27
   11  A    between atoms: C_35  and  N_45
   12  A    between atoms: O_42  and  C_43
                            x       y       z     vdW  Elec       q    Type
                         _______ _______ _______ _____ _____    ______ ____

>  <TORSDO>
F 12

$$$$
=
 OpenBabel10222418123D

 45 48  0  0  1  0  0  0  0  0999 V2000
  185.4340  177.2820  137.6270 C   0  0  1  0  0  3  0  0  0  0  0  0
  187.1370  177.4260  135.7070 N   0  0  0  0  0  2  0  0  0  0  0  0
  184.4690  178.4650  137.6100 C   0  0  0  0  0  2  0  0  0  0  0  0
  190.2600  176.8720  138.7000 C   0  0  0  0  0  0  0  0  0  0  0  0
  185.0510  178.9090  140.0200 C   0  0  0  0  0  0  0  0  0  0  0  0
  185.8900  176.9270  136.2280 C   0  0  0  0  0  0  0  0  0  0  0  0
  188.1820  176.5910  135.1780 C   0  0  0  0  0  0  0  0  0  0  0  0
  183.9290  178.7260  139.0200 C   0  0  1  0  0  3  0  0  0  0  0  0
  188.7320  178.0450  140.3230 C   0  0  0  0  0  3  0  0  0  0  0  0
  191.2620  177.0020  139.4550 O   0  0  0  0  0  0  0  0  0  0  0  0
  190.4300  176.4240  137.2650 C   0  0  1  0  0  3  0  0  0  0  0  0
  187.4600  178.5530  140.6210 C   0  0  0  0  0  3  0  0  0  0  0  0
  188.0090  175.3040  135.0180 C   0  0  0  0  0  0  0  0  0  0  0  0
  185.1830  176.1470  135.5330 O   0  0  0  0  0  0  0  0  0  0  0  0
  184.8410  179.5300  141.0990 O   0  0  0  0  0  0  0  0  0  0  0  0
  188.9190  177.2560  139.1800 C   0  0  0  0  0  0  0  0  0  0  0  0
  186.3730  178.3040  139.7610 C   0  0  0  0  0  0  0  0  0  0  0  0
  187.8240  176.9730  138.3710 C   0  0  0  0  0  3  0  0  0  0  0  0
  186.5660  177.5200  138.6090 C   0  0  0  0  0  0  0  0  0  0  0  0
  189.5650  177.1410  134.9870 C   0  0  0  0  0  2  0  0  0  0  0  0
  190.1950  177.5950  136.3070 C   0  0  0  0  0  2  0  0  0  0  0  0
  187.8580  174.0140  134.8760 C   0  0  0  0  0  3  0  0  0  0  0  0
  189.0560  173.1300  134.8610 C   0  0  0  0  0  3  0  0  0  0  0  0
  188.6130  171.6950  134.6660 C   0  0  0  0  0  2  0  0  0  0  0  0
  188.9920  172.1890  136.0470 C   0  0  0  0  0  2  0  0  0  0  0  0
  182.9860  179.8970  139.0220 C   0  0  0  0  0  0  0  0  0  0  0  0
  183.4370  181.0570  138.8180 O   0  0  0  0  0  0  0  0  0  0  0  0
  181.5920  179.7100  139.3230 N   0  0  0  0  0  0  0  0  0  0  0  0
  179.5610  178.3960  139.7130 C   0  0  0  0  0  1  0  0  0  0  0  0
  181.0830  178.3880  139.6720 C   0  0  0  0  0  2  0  0  0  0  0  0
  180.7090  180.8590  139.4930 C   0  0  0  0  0  2  0  0  0  0  0  0
  180.3400  181.4450  138.1420 C   0  0  0  0  0  1  0  0  0  0  0  0
  191.7710  175.7560  137.0030 C   0  0  0  0  0  2  0  0  0  0  0  0
  191.8410  174.5130  137.7510 N   0  0  0  0  0  2  0  0  0  0  0  0
  192.9560  173.7430  137.2110 C   0  0  1  0  0  3  0  0  0  0  0  0
  192.6280  171.9450  135.5970 N   0  0  0  0  0  1  0  0  0  0  0  0
  192.6700  173.3870  135.7600 C   0  0  0  0  0  2  0  0  0  0  0  0
  194.2800  174.5110  137.3570 C   0  0  1  0  0  3  0  0  0  0  0  0
  195.0910  174.0480  138.5290 C   0  0  0  0  0  0  0  0  0  0  0  0
  195.3060  172.8190  138.6960 O   0  0  0  0  0  0  0  0  0  0  0  0
  195.6670  174.9930  139.4290 N   0  0  0  0  0  1  0  0  0  0  0  0
  195.0470  174.4190  136.1590 O   0  0  0  0  0  0  0  0  0  0  0  0
  197.5070  174.1180  135.8910 C   0  0  0  0  0  1  0  0  0  0  0  0
  196.4600  176.2450  136.0520 O   0  0  0  0  0  0  0  0  0  0  0  0
  196.3140  174.9940  136.0360 C   0  0  0  0  0  0  0  0  0  0  0  0
  1  3  1  6  0  0  0
  1 19  1  0  0  0  0
  2  6  1  0  0  0  0
  3  8  1  0  0  0  0
  4 16  1  0  0  0  0
  4 10  2  0  0  0  0
  5 15  2  0  0  0  0
  6  1  1  0  0  0  0
  7  2  1  0  0  0  0
  8 26  1  6  0  0  0
  8  5  1  0  0  0  0
  9 12  1  0  0  0  0
 11 33  1  1  0  0  0
 11  4  1  0  0  0  0
 13  7  2  0  0  0  0
 14  6  2  0  0  0  0
 16  9  2  0  0  0  0
 17  5  1  0  0  0  0
 17 12  2  0  0  0  0
 18 19  2  0  0  0  0
 18 16  1  0  0  0  0
 19 17  1  0  0  0  0
 20  7  1  0  0  0  0
 20 21  1  0  0  0  0
 21 11  1  0  0  0  0
 22 13  2  0  0  0  0
 23 22  1  0  0  0  0
 23 25  1  0  0  0  0
 24 23  1  0  0  0  0
 24 25  1  0  0  0  0
 26 28  1  0  0  0  0
 27 26  2  0  0  0  0
 28 31  1  0  0  0  0
 28 30  1  0  0  0  0
 30 29  1  0  0  0  0
 32 31  1  0  0  0  0
 33 34  1  0  0  0  0
 35 37  1  6  0  0  0
 35 38  1  0  0  0  0
 35 34  1  0  0  0  0
 36 37  1  0  0  0  0
 38 42  1  6  0  0  0
 38 39  1  0  0  0  0
 39 40  2  0  0  0  0
 39 41  1  0  0  0  0
 43 45  1  0  0  0  0
 45 44  2  0  0  0  0
 45 42  1  0  0  0  0
M  END
>  <MODEL>
3

>  <REMARK>
 VINA RESULT:      -5.0      2.025     10.845
  Name = 
  12 active torsions:
  status: ('A' for Active; 'I' for Inactive)
    1  A    between atoms: C_2  and  N_45
    2  A    between atoms: C_4  and  N_26
    3  A    between atoms: C_4  and  C_29
    4  A    between atoms: C_6  and  C_14
    5  A    between atoms: C_6  and  C_19
    6  A    between atoms: C_6  and  O_42
    7  A    between atoms: C_10  and  C_44
    8  A    between atoms: C_12  and  C_18
    9  A    between atoms: C_14  and  N_26
   10  A    between atoms: C_14  and  C_27
   11  A    between atoms: C_35  and  N_45
   12  A    between atoms: O_42  and  C_43
                            x       y       z     vdW  Elec       q    Type
                         _______ _______ _______ _____ _____    ______ ____

>  <TORSDO>
F 12

$$$$
=
 OpenBabel10222418123D

 45 48  0  0  1  0  0  0  0  0999 V2000
  191.1950  175.6840  138.2550 C   0  0  1  0  0  3  0  0  0  0  0  0
  189.8310  177.8050  137.7570 N   0  0  0  0  0  2  0  0  0  0  0  0
  192.5930  175.7610  137.6460 C   0  0  0  0  0  2  0  0  0  0  0  0
  186.6720  175.1870  136.2800 C   0  0  0  0  0  0  0  0  0  0  0  0
  192.1730  173.5440  136.5280 C   0  0  0  0  0  0  0  0  0  0  0  0
  190.6890  177.0580  138.6400 C   0  0  0  0  0  0  0  0  0  0  0  0
  188.5450  178.3280  138.1320 C   0  0  0  0  0  0  0  0  0  0  0  0
  193.1300  174.3510  137.3780 C   0  0  1  0  0  3  0  0  0  0  0  0
  188.4930  173.5840  135.6070 C   0  0  0  0  0  3  0  0  0  0  0  0
  185.8070  174.5960  135.5780 O   0  0  0  0  0  0  0  0  0  0  0  0
  186.3790  176.5460  136.8800 C   0  0  1  0  0  3  0  0  0  0  0  0
  189.8420  173.2080  135.6620 C   0  0  0  0  0  3  0  0  0  0  0  0
  188.1190  178.2630  139.3680 C   0  0  0  0  0  0  0  0  0  0  0  0
  190.9920  177.5280  139.7710 O   0  0  0  0  0  0  0  0  0  0  0  0
  192.5950  172.5560  135.8640 O   0  0  0  0  0  0  0  0  0  0  0  0
  188.0170  174.6050  136.4400 C   0  0  0  0  0  0  0  0  0  0  0  0
  190.7330  173.8720  136.5280 C   0  0  0  0  0  0  0  0  0  0  0  0
  188.8970  175.2140  137.3290 C   0  0  0  0  0  3  0  0  0  0  0  0
  190.2540  174.9040  137.3560 C   0  0  0  0  0  0  0  0  0  0  0  0
  187.5740  178.7770  137.0790 C   0  0  0  0  0  2  0  0  0  0  0  0
  187.1630  177.6350  136.1450 C   0  0  0  0  0  2  0  0  0  0  0  0
  187.6710  178.1820  140.5920 C   0  0  0  0  0  3  0  0  0  0  0  0
  186.2040  178.2130  140.8430 C   0  0  0  0  0  3  0  0  0  0  0  0
  185.8690  179.4260  141.6860 C   0  0  0  0  0  2  0  0  0  0  0  0
  185.9530  178.0570  142.3300 C   0  0  0  0  0  2  0  0  0  0  0  0
  194.5020  174.4100  136.7670 C   0  0  0  0  0  0  0  0  0  0  0  0
  194.7120  175.1770  135.7870 O   0  0  0  0  0  0  0  0  0  0  0  0
  195.5520  173.5510  137.2450 N   0  0  0  0  0  0  0  0  0  0  0  0
  194.9250  171.2280  137.7070 C   0  0  0  0  0  1  0  0  0  0  0  0
  195.2870  172.5810  138.3030 C   0  0  0  0  0  2  0  0  0  0  0  0
  196.8310  173.4830  136.5470 C   0  0  0  0  0  2  0  0  0  0  0  0
  197.7450  172.4720  137.2180 C   0  0  0  0  0  1  0  0  0  0  0  0
  184.8940  176.8700  136.9270 C   0  0  0  0  0  2  0  0  0  0  0  0
  184.2370  175.9760  137.8650 N   0  0  0  0  0  2  0  0  0  0  0  0
  183.0490  176.6600  138.3590 C   0  0  1  0  0  3  0  0  0  0  0  0
  181.9950  178.8510  138.5500 N   0  0  0  0  0  1  0  0  0  0  0  0
  183.1000  178.1250  137.9490 C   0  0  0  0  0  2  0  0  0  0  0  0
  181.7670  175.9760  137.8570 C   0  0  1  0  0  3  0  0  0  0  0  0
  181.8940  175.4690  136.4510 C   0  0  0  0  0  0  0  0  0  0  0  0
  181.7320  176.2600  135.4840 O   0  0  0  0  0  0  0  0  0  0  0  0
  182.2490  174.1110  136.2000 N   0  0  0  0  0  1  0  0  0  0  0  0
  181.3900  174.9150  138.7310 O   0  0  0  0  0  0  0  0  0  0  0  0
  179.7650  174.6380  140.6010 C   0  0  0  0  0  1  0  0  0  0  0  0
  179.1370  174.6120  138.3100 O   0  0  0  0  0  0  0  0  0  0  0  0
  180.0710  174.7220  139.1480 C   0  0  0  0  0  0  0  0  0  0  0  0
  1  3  1  6  0  0  0
  1  6  1  0  0  0  0
  2  7  1  0  0  0  0
  2  6  1  0  0  0  0
  4 16  1  0  0  0  0
  4 11  1  0  0  0  0
  5  8  1  0  0  0  0
  6 14  2  0  0  0  0
  7 13  2  0  0  0  0
  8 26  1  6  0  0  0
  8  3  1  0  0  0  0
  9 12  2  0  0  0  0
  9 16  1  0  0  0  0
 10  4  2  0  0  0  0
 11 33  1  6  0  0  0
 12 17  1  0  0  0  0
 13 22  2  0  0  0  0
 15  5  2  0  0  0  0
 16 18  2  0  0  0  0
 17  5  1  0  0  0  0
 17 19  2  0  0  0  0
 18 19  1  0  0  0  0
 19  1  1  0  0  0  0
 20  7  1  0  0  0  0
 21 11  1  0  0  0  0
 21 20  1  0  0  0  0
 22 23  1  0  0  0  0
 23 24  1  0  0  0  0
 23 25  1  0  0  0  0
 24 25  1  0  0  0  0
 26 28  1  0  0  0  0
 27 26  2  0  0  0  0
 28 30  1  0  0  0  0
 29 30  1  0  0  0  0
 31 32  1  0  0  0  0
 31 28  1  0  0  0  0
 33 34  1  0  0  0  0
 34 35  1  0  0  0  0
 35 37  1  6  0  0  0
 37 36  1  0  0  0  0
 38 39  1  6  0  0  0
 38 35  1  0  0  0  0
 38 42  1  0  0  0  0
 40 39  2  0  0  0  0
 41 39  1  0  0  0  0
 42 45  1  0  0  0  0
 44 45  2  0  0  0  0
 45 43  1  0  0  0  0
M  END
>  <MODEL>
4

>  <REMARK>
 VINA RESULT:      -4.5      1.736      2.327
  Name = 
  12 active torsions:
  status: ('A' for Active; 'I' for Inactive)
    1  A    between atoms: C_2  and  N_45
    2  A    between atoms: C_4  and  N_26
    3  A    between atoms: C_4  and  C_29
    4  A    between atoms: C_6  and  C_14
    5  A    between atoms: C_6  and  C_19
    6  A    between atoms: C_6  and  O_42
    7  A    between atoms: C_10  and  C_44
    8  A    between atoms: C_12  and  C_18
    9  A    between atoms: C_14  and  N_26
   10  A    between atoms: C_14  and  C_27
   11  A    between atoms: C_35  and  N_45
   12  A    between atoms: O_42  and  C_43
                            x       y       z     vdW  Elec       q    Type
                         _______ _______ _______ _____ _____    ______ ____

>  <TORSDO>
F 12

$$$$
=
 OpenBabel10222418123D

 45 48  0  0  1  0  0  0  0  0999 V2000
  190.8630  176.0150  138.3080 C   0  0  1  0  0  3  0  0  0  0  0  0
  189.1640  177.8700  137.7810 N   0  0  0  0  0  2  0  0  0  0  0  0
  192.1700  176.2190  137.5430 C   0  0  0  0  0  2  0  0  0  0  0  0
  186.2910  174.7110  136.8950 C   0  0  0  0  0  0  0  0  0  0  0  0
  191.9700  173.8630  136.6750 C   0  0  0  0  0  0  0  0  0  0  0  0
  190.2020  177.3390  138.6260 C   0  0  0  0  0  0  0  0  0  0  0  0
  187.8580  178.2490  138.2490 C   0  0  0  0  0  0  0  0  0  0  0  0
  192.8780  174.8750  137.3410 C   0  0  1  0  0  3  0  0  0  0  0  0
  188.2520  173.3100  136.1660 C   0  0  0  0  0  3  0  0  0  0  0  0
  185.4570  173.9400  136.3460 O   0  0  0  0  0  0  0  0  0  0  0  0
  185.8630  176.0710  137.4030 C   0  0  1  0  0  3  0  0  0  0  0  0
  189.6410  173.1280  136.1050 C   0  0  0  0  0  3  0  0  0  0  0  0
  187.5670  178.2520  139.5250 C   0  0  0  0  0  0  0  0  0  0  0  0
  190.5430  177.9580  139.6710 O   0  0  0  0  0  0  0  0  0  0  0  0
  192.4650  172.8800  136.0570 O   0  0  0  0  0  0  0  0  0  0  0  0
  187.7160  174.3370  136.9550 C   0  0  0  0  0  0  0  0  0  0  0  0
  190.5040  173.9920  136.8050 C   0  0  0  0  0  0  0  0  0  0  0  0
  188.5800  175.1460  137.6850 C   0  0  0  0  0  3  0  0  0  0  0  0
  189.9630  175.0270  137.5890 C   0  0  0  0  0  0  0  0  0  0  0  0
  186.7350  178.4530  137.2750 C   0  0  0  0  0  2  0  0  0  0  0  0
  186.4060  177.1770  136.4940 C   0  0  0  0  0  2  0  0  0  0  0  0
  187.2570  178.2360  140.7940 C   0  0  0  0  0  3  0  0  0  0  0  0
  185.8320  178.0940  141.2010 C   0  0  0  0  0  3  0  0  0  0  0  0
  185.0300  179.2360  140.6150 C   0  0  0  0  0  2  0  0  0  0  0  0
  185.4470  179.2730  142.0710 C   0  0  0  0  0  2  0  0  0  0  0  0
  194.1600  175.0580  136.5800 C   0  0  0  0  0  0  0  0  0  0  0  0
  194.1470  175.6760  135.4800 O   0  0  0  0  0  0  0  0  0  0  0  0
  195.3850  174.4740  137.0600 N   0  0  0  0  0  0  0  0  0  0  0  0
  195.8060  174.4970  139.4740 C   0  0  0  0  0  1  0  0  0  0  0  0
  195.3880  173.6610  138.2720 C   0  0  0  0  0  2  0  0  0  0  0  0
  196.5920  174.5020  136.2430 C   0  0  0  0  0  2  0  0  0  0  0  0
  197.5180  173.3620  136.6280 C   0  0  0  0  0  1  0  0  0  0  0  0
  184.3580  176.1950  137.5850 C   0  0  0  0  0  2  0  0  0  0  0  0
  183.8700  177.3110  136.7940 N   0  0  0  0  0  2  0  0  0  0  0  0
  182.6560  176.8660  136.1190 C   0  0  1  0  0  3  0  0  0  0  0  0
  181.2590  174.9090  135.7190 N   0  0  0  0  0  1  0  0  0  0  0  0
  182.3420  175.4350  136.5290 C   0  0  0  0  0  2  0  0  0  0  0  0
  181.4800  177.8120  136.4160 C   0  0  1  0  0  3  0  0  0  0  0  0
  181.1570  177.8920  137.8780 C   0  0  0  0  0  0  0  0  0  0  0  0
  180.0500  177.4670  138.2990 O   0  0  0  0  0  0  0  0  0  0  0  0
  182.1170  178.3970  138.8050 N   0  0  0  0  0  1  0  0  0  0  0  0
  181.7400  179.1130  135.8960 O   0  0  0  0  0  0  0  0  0  0  0  0
  179.5550  180.1160  135.2390 C   0  0  0  0  0  1  0  0  0  0  0  0
  181.0620  181.1490  136.7570 O   0  0  0  0  0  0  0  0  0  0  0  0
  180.8240  180.1610  136.0110 C   0  0  0  0  0  0  0  0  0  0  0  0
  1  3  1  6  0  0  0
  1  6  1  0  0  0  0
  2  7  1  0  0  0  0
  2  6  1  0  0  0  0
  4 16  1  0  0  0  0
  4 11  1  0  0  0  0
  5 17  1  0  0  0  0
  5  8  1  0  0  0  0
  6 14  2  0  0  0  0
  7 13  2  0  0  0  0
  8 26  1  6  0  0  0
  8  3  1  0  0  0  0
  9 16  1  0  0  0  0
 10  4  2  0  0  0  0
 11 33  1  6  0  0  0
 12  9  2  0  0  0  0
 12 17  1  0  0  0  0
 13 22  2  0  0  0  0
 15  5  2  0  0  0  0
 16 18  2  0  0  0  0
 17 19  2  0  0  0  0
 19 18  1  0  0  0  0
 19  1  1  0  0  0  0
 20  7  1  0  0  0  0
 21 20  1  0  0  0  0
 21 11  1  0  0  0  0
 22 23  1  0  0  0  0
 23 25  1  0  0  0  0
 24 23  1  0  0  0  0
 24 25  1  0  0  0  0
 26 28  1  0  0  0  0
 27 26  2  0  0  0  0
 28 30  1  0  0  0  0
 30 29  1  0  0  0  0
 31 32  1  0  0  0  0
 31 28  1  0  0  0  0
 34 33  1  0  0  0  0
 35 38  1  0  0  0  0
 35 37  1  1  0  0  0
 35 34  1  0  0  0  0
 36 37  1  0  0  0  0
 38 42  1  1  0  0  0
 38 39  1  0  0  0  0
 39 40  2  0  0  0  0
 39 41  1  0  0  0  0
 42 45  1  0  0  0  0
 43 45  1  0  0  0  0
 45 44  2  0  0  0  0
M  END
>  <MODEL>
5

>  <REMARK>
 VINA RESULT:      -4.2      1.725      2.306
  Name = 
  12 active torsions:
  status: ('A' for Active; 'I' for Inactive)
    1  A    between atoms: C_2  and  N_45
    2  A    between atoms: C_4  and  N_26
    3  A    between atoms: C_4  and  C_29
    4  A    between atoms: C_6  and  C_14
    5  A    between atoms: C_6  and  C_19
    6  A    between atoms: C_6  and  O_42
    7  A    between atoms: C_10  and  C_44
    8  A    between atoms: C_12  and  C_18
    9  A    between atoms: C_14  and  N_26
   10  A    between atoms: C_14  and  C_27
   11  A    between atoms: C_35  and  N_45
   12  A    between atoms: O_42  and  C_43
                            x       y       z     vdW  Elec       q    Type
                         _______ _______ _______ _____ _____    ______ ____

>  <TORSDO>
F 12

$$$$
=
 OpenBabel10222418123D

 45 48  0  0  1  0  0  0  0  0999 V2000
  183.3400  177.0360  138.2640 C   0  0  1  0  0  3  0  0  0  0  0  0
  184.7620  177.6600  136.2160 N   0  0  0  0  0  2  0  0  0  0  0  0
  182.0420  177.8390  138.3110 C   0  0  0  0  0  2  0  0  0  0  0  0
  188.0970  178.2580  138.9620 C   0  0  0  0  0  0  0  0  0  0  0  0
  182.6150  178.5320  140.6640 C   0  0  0  0  0  0  0  0  0  0  0  0
  183.7870  176.8010  136.8380 C   0  0  0  0  0  0  0  0  0  0  0  0
  185.9820  177.1940  135.6150 C   0  0  0  0  0  0  0  0  0  0  0  0
  181.5470  177.9590  139.7560 C   0  0  1  0  0  3  0  0  0  0  0  0
  186.3870  178.9240  140.6870 C   0  0  0  0  0  3  0  0  0  0  0  0
  189.0520  178.7330  139.6350 O   0  0  0  0  0  0  0  0  0  0  0  0
  188.3020  177.8400  137.5220 C   0  0  1  0  0  3  0  0  0  0  0  0
  185.0440  179.0010  141.0790 C   0  0  0  0  0  3  0  0  0  0  0  0
  186.2290  175.9150  135.4810 C   0  0  0  0  0  0  0  0  0  0  0  0
  183.3270  175.8100  136.2070 O   0  0  0  0  0  0  0  0  0  0  0  0
  182.2900  179.0880  141.7500 O   0  0  0  0  0  0  0  0  0  0  0  0
  186.7410  178.2000  139.5410 C   0  0  0  0  0  0  0  0  0  0  0  0
  184.0410  178.3810  140.3090 C   0  0  0  0  0  0  0  0  0  0  0  0
  185.7450  177.5480  138.8220 C   0  0  0  0  0  3  0  0  0  0  0  0
  184.3980  177.6640  139.1530 C   0  0  0  0  0  0  0  0  0  0  0  0
  187.0920  178.1570  135.3120 C   0  0  0  0  0  2  0  0  0  0  0  0
  187.6310  178.8370  136.5740 C   0  0  0  0  0  2  0  0  0  0  0  0
  186.5000  174.6430  135.3650 C   0  0  0  0  0  3  0  0  0  0  0  0
  187.9160  174.1970  135.2640 C   0  0  0  0  0  3  0  0  0  0  0  0
  187.9630  172.8320  134.6100 C   0  0  0  0  0  2  0  0  0  0  0  0
  188.1050  172.9550  136.1130 C   0  0  0  0  0  2  0  0  0  0  0  0
  180.2760  178.7580  139.8200 C   0  0  0  0  0  0  0  0  0  0  0  0
  179.2070  178.1960  140.1850 O   0  0  0  0  0  0  0  0  0  0  0  0
  180.2560  180.1340  139.4010 N   0  0  0  0  0  0  0  0  0  0  0  0
  181.1320  181.5990  137.6430 C   0  0  0  0  0  1  0  0  0  0  0  0
  181.4630  180.7610  138.8700 C   0  0  0  0  0  2  0  0  0  0  0  0
  178.9960  180.8620  139.3000 C   0  0  0  0  0  2  0  0  0  0  0  0
  178.9310  181.9530  140.3540 C   0  0  0  0  0  1  0  0  0  0  0  0
  189.7660  177.6360  137.1620 C   0  0  0  0  0  2  0  0  0  0  0  0
  190.1830  176.3100  137.5840 N   0  0  0  0  0  2  0  0  0  0  0  0
  191.5490  176.4230  138.0830 C   0  0  1  0  0  3  0  0  0  0  0  0
  192.3880  177.4530  140.1270 N   0  0  0  0  0  1  0  0  0  0  0  0
  191.5360  176.4000  139.6040 C   0  0  0  0  0  2  0  0  0  0  0  0
  192.4410  175.3110  137.5070 C   0  0  1  0  0  3  0  0  0  0  0  0
  192.1610  175.0360  136.0600 C   0  0  0  0  0  0  0  0  0  0  0  0
  192.4650  175.8920  135.1890 O   0  0  0  0  0  0  0  0  0  0  0  0
  191.6010  173.7870  135.6560 N   0  0  0  0  0  1  0  0  0  0  0  0
  193.8180  175.6290  137.6900 O   0  0  0  0  0  0  0  0  0  0  0  0
  194.8040  173.3920  138.1770 C   0  0  0  0  0  1  0  0  0  0  0  0
  195.3200  175.3470  139.4250 O   0  0  0  0  0  0  0  0  0  0  0  0
  194.6700  174.8430  138.4710 C   0  0  0  0  0  0  0  0  0  0  0  0
  1  3  1  6  0  0  0
  1 19  1  0  0  0  0
  2  6  1  0  0  0  0
  3  8  1  0  0  0  0
  4 16  1  0  0  0  0
  4 10  2  0  0  0  0
  5 15  2  0  0  0  0
  6  1  1  0  0  0  0
  7  2  1  0  0  0  0
  8 26  1  6  0  0  0
  8  5  1  0  0  0  0
  9 12  1  0  0  0  0
 11 33  1  6  0  0  0
 11  4  1  0  0  0  0
 13  7  2  0  0  0  0
 14  6  2  0  0  0  0
 16  9  2  0  0  0  0
 17  5  1  0  0  0  0
 17 12  2  0  0  0  0
 18 19  2  0  0  0  0
 18 16  1  0  0  0  0
 19 17  1  0  0  0  0
 20  7  1  0  0  0  0
 20 21  1  0  0  0  0
 21 11  1  0  0  0  0
 22 13  2  0  0  0  0
 23 22  1  0  0  0  0
 23 25  1  0  0  0  0
 24 23  1  0  0  0  0
 24 25  1  0  0  0  0
 26 27  2  0  0  0  0
 28 26  1  0  0  0  0
 29 30  1  0  0  0  0
 30 28  1  0  0  0  0
 31 28  1  0  0  0  0
 31 32  1  0  0  0  0
 33 34  1  0  0  0  0
 34 35  1  0  0  0  0
 35 37  1  1  0  0  0
 37 36  1  0  0  0  0
 38 39  1  6  0  0  0
 38 42  1  0  0  0  0
 38 35  1  0  0  0  0
 40 39  2  0  0  0  0
 41 39  1  0  0  0  0
 42 45  1  0  0  0  0
 43 45  1  0  0  0  0
 45 44  2  0  0  0  0
M  END
>  <MODEL>
6

>  <REMARK>
 VINA RESULT:      -4.1      1.994     10.800
  Name = 
  12 active torsions:
  status: ('A' for Active; 'I' for Inactive)
    1  A    between atoms: C_2  and  N_45
    2  A    between atoms: C_4  and  N_26
    3  A    between atoms: C_4  and  C_29
    4  A    between atoms: C_6  and  C_14
    5  A    between atoms: C_6  and  C_19
    6  A    between atoms: C_6  and  O_42
    7  A    between atoms: C_10  and  C_44
    8  A    between atoms: C_12  and  C_18
    9  A    between atoms: C_14  and  N_26
   10  A    between atoms: C_14  and  C_27
   11  A    between atoms: C_35  and  N_45
   12  A    between atoms: O_42  and  C_43
                            x       y       z     vdW  Elec       q    Type
                         _______ _______ _______ _____ _____    ______ ____

>  <TORSDO>
F 12

$$$$
=
 OpenBabel10222418123D

 45 48  0  0  1  0  0  0  0  0999 V2000
  184.6240  177.7730  140.2990 C   0  0  1  0  0  3  0  0  0  0  0  0
  185.9460  178.7490  138.3230 N   0  0  0  0  0  2  0  0  0  0  0  0
  183.6130  178.7780  140.8480 C   0  0  0  0  0  2  0  0  0  0  0  0
  189.5780  177.5540  140.4220 C   0  0  0  0  0  0  0  0  0  0  0  0
  184.5930  178.4350  143.1420 C   0  0  0  0  0  0  0  0  0  0  0  0
  184.8400  177.9690  138.8140 C   0  0  0  0  0  0  0  0  0  0  0  0
  186.9210  178.2650  137.3820 C   0  0  0  0  0  0  0  0  0  0  0  0
  183.3220  178.4820  142.3230 C   0  0  1  0  0  3  0  0  0  0  0  0
  188.3080  177.9280  142.5640 C   0  0  0  0  0  3  0  0  0  0  0  0
  190.6910  177.5270  141.0150 O   0  0  0  0  0  0  0  0  0  0  0  0
  189.5110  177.6430  138.9120 C   0  0  1  0  0  3  0  0  0  0  0  0
  187.0860  178.1620  143.2100 C   0  0  0  0  0  3  0  0  0  0  0  0
  186.7860  177.0980  136.8040 C   0  0  0  0  0  0  0  0  0  0  0  0
  184.0600  177.4000  138.0020 O   0  0  0  0  0  0  0  0  0  0  0  0
  184.5490  178.6240  144.3900 O   0  0  0  0  0  0  0  0  0  0  0  0
  188.3270  177.6010  141.2010 C   0  0  0  0  0  0  0  0  0  0  0  0
  185.8770  178.1030  142.4910 C   0  0  0  0  0  0  0  0  0  0  0  0
  187.1210  177.4930  140.5180 C   0  0  0  0  0  3  0  0  0  0  0  0
  185.9000  177.7850  141.1210 C   0  0  0  0  0  0  0  0  0  0  0  0
  188.2180  178.9940  137.1940 C   0  0  0  0  0  2  0  0  0  0  0  0
  189.0510  179.0380  138.4790 C   0  0  0  0  0  2  0  0  0  0  0  0
  186.6780  175.9260  136.2390 C   0  0  0  0  0  3  0  0  0  0  0  0
  187.8960  175.2370  135.7320 C   0  0  0  0  0  3  0  0  0  0  0  0
  187.5070  173.8850  135.1730 C   0  0  0  0  0  2  0  0  0  0  0  0
  188.1320  173.9830  136.5490 C   0  0  0  0  0  2  0  0  0  0  0  0
  182.3370  179.4710  142.8810 C   0  0  0  0  0  0  0  0  0  0  0  0
  182.7410  180.3790  143.6580 O   0  0  0  0  0  0  0  0  0  0  0  0
  180.9330  179.3460  142.5910 N   0  0  0  0  0  0  0  0  0  0  0  0
  179.8770  178.7370  140.4650 C   0  0  0  0  0  1  0  0  0  0  0  0
  180.4420  178.2320  141.7850 C   0  0  0  0  0  2  0  0  0  0  0  0
  179.9570  180.1960  143.2640 C   0  0  0  0  0  2  0  0  0  0  0  0
  179.0910  179.3690  144.1960 C   0  0  0  0  0  1  0  0  0  0  0  0
  190.8150  177.2560  138.2330 C   0  0  0  0  0  2  0  0  0  0  0  0
  190.9470  175.8100  138.2390 N   0  0  0  0  0  2  0  0  0  0  0  0
  191.8740  175.4530  137.1710 C   0  0  1  0  0  3  0  0  0  0  0  0
  191.2290  175.0520  134.8540 N   0  0  0  0  0  1  0  0  0  0  0  0
  191.4070  176.0790  135.8650 C   0  0  0  0  0  2  0  0  0  0  0  0
  193.3100  175.8770  137.5210 C   0  0  1  0  0  3  0  0  0  0  0  0
  194.1650  174.7230  137.9500 C   0  0  0  0  0  0  0  0  0  0  0  0
  193.8920  173.5590  137.5540 O   0  0  0  0  0  0  0  0  0  0  0  0
  195.3200  174.9380  138.7600 N   0  0  0  0  0  1  0  0  0  0  0  0
  193.9130  176.5570  136.4230 O   0  0  0  0  0  0  0  0  0  0  0  0
  194.7550  175.0570  134.6190 C   0  0  0  0  0  1  0  0  0  0  0  0
  196.1790  176.3560  136.0090 O   0  0  0  0  0  0  0  0  0  0  0  0
  194.9980  176.0270  135.7190 C   0  0  0  0  0  0  0  0  0  0  0  0
  1  3  1  1  0  0  0
  1 19  1  0  0  0  0
  2  6  1  0  0  0  0
  3  8  1  0  0  0  0
  4 10  2  0  0  0  0
  4 16  1  0  0  0  0
  5 15  2  0  0  0  0
  6  1  1  0  0  0  0
  7  2  1  0  0  0  0
  8 26  1  1  0  0  0
  8  5  1  0  0  0  0
  9 12  1  0  0  0  0
 11 33  1  6  0  0  0
 11  4  1  0  0  0  0
 13  7  2  0  0  0  0
 14  6  2  0  0  0  0
 16  9  2  0  0  0  0
 17  5  1  0  0  0  0
 17 12  2  0  0  0  0
 18 19  2  0  0  0  0
 18 16  1  0  0  0  0
 19 17  1  0  0  0  0
 20  7  1  0  0  0  0
 20 21  1  0  0  0  0
 21 11  1  0  0  0  0
 22 13  2  0  0  0  0
 23 22  1  0  0  0  0
 23 25  1  0  0  0  0
 24 23  1  0  0  0  0
 24 25  1  0  0  0  0
 26 27  2  0  0  0  0
 28 26  1  0  0  0  0
 28 31  1  0  0  0  0
 29 30  1  0  0  0  0
 30 28  1  0  0  0  0
 31 32  1  0  0  0  0
 33 34  1  0  0  0  0
 35 37  1  6  0  0  0
 35 38  1  0  0  0  0
 35 34  1  0  0  0  0
 36 37  1  0  0  0  0
 38 42  1  6  0  0  0
 38 39  1  0  0  0  0
 39 41  1  0  0  0  0
 40 39  2  0  0  0  0
 43 45  1  0  0  0  0
 45 44  2  0  0  0  0
 45 42  1  0  0  0  0
M  END
>  <MODEL>
7

>  <REMARK>
 VINA RESULT:      -4.1      2.247     10.854
  Name = 
  12 active torsions:
  status: ('A' for Active; 'I' for Inactive)
    1  A    between atoms: C_2  and  N_45
    2  A    between atoms: C_4  and  N_26
    3  A    between atoms: C_4  and  C_29
    4  A    between atoms: C_6  and  C_14
    5  A    between atoms: C_6  and  C_19
    6  A    between atoms: C_6  and  O_42
    7  A    between atoms: C_10  and  C_44
    8  A    between atoms: C_12  and  C_18
    9  A    between atoms: C_14  and  N_26
   10  A    between atoms: C_14  and  C_27
   11  A    between atoms: C_35  and  N_45
   12  A    between atoms: O_42  and  C_43
                            x       y       z     vdW  Elec       q    Type
                         _______ _______ _______ _____ _____    ______ ____

>  <TORSDO>
F 12

$$$$
=
 OpenBabel10222418123D

 45 48  0  0  1  0  0  0  0  0999 V2000
  191.2780  175.3860  138.3480 C   0  0  1  0  0  3  0  0  0  0  0  0
  190.3200  177.7430  137.9850 N   0  0  0  0  0  2  0  0  0  0  0  0
  192.6980  175.2670  137.7980 C   0  0  0  0  0  2  0  0  0  0  0  0
  186.8400  175.8350  136.1790 C   0  0  0  0  0  0  0  0  0  0  0  0
  191.9640  173.2510  136.4800 C   0  0  0  0  0  0  0  0  0  0  0  0
  190.9940  176.7920  138.8310 C   0  0  0  0  0  0  0  0  0  0  0  0
  189.1240  178.4500  138.3580 C   0  0  0  0  0  0  0  0  0  0  0  0
  193.0010  173.8110  137.4290 C   0  0  1  0  0  3  0  0  0  0  0  0
  188.3950  173.9990  135.4350 C   0  0  0  0  0  3  0  0  0  0  0  0
  185.9230  175.4590  135.3980 O   0  0  0  0  0  0  0  0  0  0  0  0
  186.7520  177.1720  136.8820 C   0  0  1  0  0  3  0  0  0  0  0  0
  189.6560  173.3910  135.5060 C   0  0  0  0  0  3  0  0  0  0  0  0
  188.6320  178.3630  139.5680 C   0  0  0  0  0  0  0  0  0  0  0  0
  191.3160  177.1120  140.0080 O   0  0  0  0  0  0  0  0  0  0  0  0
  192.2450  172.2600  135.7490 O   0  0  0  0  0  0  0  0  0  0  0  0
  188.0580  175.0180  136.3360 C   0  0  0  0  0  0  0  0  0  0  0  0
  190.6020  173.8220  136.4560 C   0  0  0  0  0  0  0  0  0  0  0  0
  188.9830  175.3940  137.3040 C   0  0  0  0  0  3  0  0  0  0  0  0
  190.2650  174.8530  137.3520 C   0  0  0  0  0  0  0  0  0  0  0  0
  188.2970  179.1410  137.3140 C   0  0  0  0  0  2  0  0  0  0  0  0
  187.7450  178.1640  136.2710 C   0  0  0  0  0  2  0  0  0  0  0  0
  188.1170  178.2650  140.7640 C   0  0  0  0  0  3  0  0  0  0  0  0
  186.6660  178.5300  140.9640 C   0  0  0  0  0  3  0  0  0  0  0  0
  186.4840  179.4080  142.1850 C   0  0  0  0  0  2  0  0  0  0  0  0
  186.2290  177.9180  142.2800 C   0  0  0  0  0  2  0  0  0  0  0  0
  194.3910  173.6800  136.8740 C   0  0  0  0  0  0  0  0  0  0  0  0
  195.3120  173.2240  137.6070 O   0  0  0  0  0  0  0  0  0  0  0  0
  194.6920  174.1350  135.5430 N   0  0  0  0  0  0  0  0  0  0  0  0
  193.8890  176.2710  134.6510 C   0  0  0  0  0  1  0  0  0  0  0  0
  193.6600  174.7680  134.7290 C   0  0  0  0  0  2  0  0  0  0  0  0
  196.0690  174.1670  135.0630 C   0  0  0  0  0  2  0  0  0  0  0  0
  196.7440  175.4600  135.4840 C   0  0  0  0  0  1  0  0  0  0  0  0
  185.3430  177.7440  136.9040 C   0  0  0  0  0  2  0  0  0  0  0  0
  184.5990  177.1440  137.9980 N   0  0  0  0  0  2  0  0  0  0  0  0
  183.1970  177.1080  137.6010 C   0  0  1  0  0  3  0  0  0  0  0  0
  182.0110  175.6790  139.1810 N   0  0  0  0  0  1  0  0  0  0  0  0
  182.6290  175.7220  137.8690 C   0  0  0  0  0  2  0  0  0  0  0  0
  182.3900  178.2000  138.3230 C   0  0  1  0  0  3  0  0  0  0  0  0
  183.1880  178.9080  139.3760 C   0  0  0  0  0  0  0  0  0  0  0  0
  183.3490  178.3730  140.5040 O   0  0  0  0  0  0  0  0  0  0  0  0
  183.8110  180.1600  139.0940 N   0  0  0  0  0  1  0  0  0  0  0  0
  181.8670  179.1380  137.3860 O   0  0  0  0  0  0  0  0  0  0  0  0
  179.6690  180.2650  137.0540 C   0  0  0  0  0  1  0  0  0  0  0  0
  180.1010  178.0250  136.3930 O   0  0  0  0  0  0  0  0  0  0  0  0
  180.5520  179.0770  136.9200 C   0  0  0  0  0  0  0  0  0  0  0  0
  1  3  1  6  0  0  0
  1  6  1  0  0  0  0
  2  7  1  0  0  0  0
  2  6  1  0  0  0  0
  4 16  1  0  0  0  0
  4 11  1  0  0  0  0
  5  8  1  0  0  0  0
  6 14  2  0  0  0  0
  7 13  2  0  0  0  0
  8 26  1  6  0  0  0
  8  3  1  0  0  0  0
  9 12  2  0  0  0  0
  9 16  1  0  0  0  0
 10  4  2  0  0  0  0
 11 33  1  6  0  0  0
 12 17  1  0  0  0  0
 13 22  2  0  0  0  0
 15  5  2  0  0  0  0
 16 18  2  0  0  0  0
 17  5  1  0  0  0  0
 17 19  2  0  0  0  0
 18 19  1  0  0  0  0
 19  1  1  0  0  0  0
 20  7  1  0  0  0  0
 21 11  1  0  0  0  0
 21 20  1  0  0  0  0
 22 23  1  0  0  0  0
 23 24  1  0  0  0  0
 23 25  1  0  0  0  0
 24 25  1  0  0  0  0
 26 27  2  0  0  0  0
 28 26  1  0  0  0  0
 29 30  1  0  0  0  0
 30 28  1  0  0  0  0
 31 32  1  0  0  0  0
 31 28  1  0  0  0  0
 33 34  1  0  0  0  0
 35 37  1  1  0  0  0
 35 34  1  0  0  0  0
 35 38  1  0  0  0  0
 37 36  1  0  0  0  0
 38 42  1  6  0  0  0
 38 39  1  0  0  0  0
 39 40  2  0  0  0  0
 41 39  1  0  0  0  0
 44 45  2  0  0  0  0
 45 43  1  0  0  0  0
 45 42  1  0  0  0  0
M  END
>  <MODEL>
8

>  <REMARK>
 VINA RESULT:      -4.0      1.562      2.146
  Name = 
  12 active torsions:
  status: ('A' for Active; 'I' for Inactive)
    1  A    between atoms: C_2  and  N_45
    2  A    between atoms: C_4  and  N_26
    3  A    between atoms: C_4  and  C_29
    4  A    between atoms: C_6  and  C_14
    5  A    between atoms: C_6  and  C_19
    6  A    between atoms: C_6  and  O_42
    7  A    between atoms: C_10  and  C_44
    8  A    between atoms: C_12  and  C_18
    9  A    between atoms: C_14  and  N_26
   10  A    between atoms: C_14  and  C_27
   11  A    between atoms: C_35  and  N_45
   12  A    between atoms: O_42  and  C_43
                            x       y       z     vdW  Elec       q    Type
                         _______ _______ _______ _____ _____    ______ ____

>  <TORSDO>
F 12

$$$$
=
 OpenBabel10222418123D

 45 48  0  0  1  0  0  0  0  0999 V2000
  185.3090  178.5930  141.8130 C   0  0  1  0  0  3  0  0  0  0  0  0
  187.1680  176.9460  142.4740 N   0  0  0  0  0  2  0  0  0  0  0  0
  183.9290  177.9430  141.8930 C   0  0  0  0  0  2  0  0  0  0  0  0
  189.1520  177.9950  138.7340 C   0  0  0  0  0  0  0  0  0  0  0  0
  183.5000  178.6770  139.5230 C   0  0  0  0  0  0  0  0  0  0  0  0
  186.2550  177.9990  142.8340 C   0  0  0  0  0  0  0  0  0  0  0  0
  188.5910  177.0080  142.6730 C   0  0  0  0  0  0  0  0  0  0  0  0
  182.9590  178.6430  140.9360 C   0  0  1  0  0  3  0  0  0  0  0  0
  186.8550  178.3880  137.7770 C   0  0  0  0  0  3  0  0  0  0  0  0
  189.6910  177.9800  137.5940 O   0  0  0  0  0  0  0  0  0  0  0  0
  189.9220  177.5440  139.9570 C   0  0  1  0  0  3  0  0  0  0  0  0
  185.4770  178.5330  137.9850 C   0  0  0  0  0  3  0  0  0  0  0  0
  189.1440  177.9990  143.3260 C   0  0  0  0  0  0  0  0  0  0  0  0
  186.2670  178.4700  144.0050 O   0  0  0  0  0  0  0  0  0  0  0  0
  182.7120  178.8160  138.5470 O   0  0  0  0  0  0  0  0  0  0  0  0
  187.7280  178.3560  138.8730 C   0  0  0  0  0  0  0  0  0  0  0  0
  184.9580  178.6140  139.2920 C   0  0  0  0  0  0  0  0  0  0  0  0
  187.2050  178.4930  140.1540 C   0  0  0  0  0  3  0  0  0  0  0  0
  185.8360  178.5710  140.3900 C   0  0  0  0  0  0  0  0  0  0  0  0
  189.4970  176.0460  141.9620 C   0  0  0  0  0  2  0  0  0  0  0  0
  189.4100  176.1850  140.4390 C   0  0  0  0  0  2  0  0  0  0  0  0
  189.7100  178.9940  143.9540 C   0  0  0  0  0  3  0  0  0  0  0  0
  191.1380  179.3180  143.6840 C   0  0  0  0  0  3  0  0  0  0  0  0
  191.8780  178.0460  143.3260 C   0  0  0  0  0  2  0  0  0  0  0  0
  192.0060  178.6300  144.7180 C   0  0  0  0  0  2  0  0  0  0  0  0
  181.5990  178.0050  140.9950 C   0  0  0  0  0  0  0  0  0  0  0  0
  181.4970  176.7510  140.9050 O   0  0  0  0  0  0  0  0  0  0  0  0
  180.4150  178.8180  141.0830 N   0  0  0  0  0  0  0  0  0  0  0  0
  179.2460  180.9020  141.6270 C   0  0  0  0  0  1  0  0  0  0  0  0
  180.5180  180.2740  141.0730 C   0  0  0  0  0  2  0  0  0  0  0  0
  179.0910  178.2170  140.9690 C   0  0  0  0  0  2  0  0  0  0  0  0
  178.9310  177.5470  139.6160 C   0  0  0  0  0  1  0  0  0  0  0  0
  191.4270  177.5230  139.7400 C   0  0  0  0  0  2  0  0  0  0  0  0
  191.8230  176.2120  139.2560 N   0  0  0  0  0  2  0  0  0  0  0  0
  192.2420  176.3700  137.8690 C   0  0  1  0  0  3  0  0  0  0  0  0
  194.3220  176.0040  139.0870 N   0  0  0  0  0  1  0  0  0  0  0  0
  193.7620  176.3450  137.7920 C   0  0  0  0  0  2  0  0  0  0  0  0
  191.6120  175.2890  136.9740 C   0  0  1  0  0  3  0  0  0  0  0  0
  192.6240  174.3290  136.4260 C   0  0  0  0  0  0  0  0  0  0  0  0
  193.0620  173.3990  137.1540 O   0  0  0  0  0  0  0  0  0  0  0  0
  193.0550  174.4260  135.0700 N   0  0  0  0  0  1  0  0  0  0  0  0
  190.5950  174.5850  137.6810 O   0  0  0  0  0  0  0  0  0  0  0  0
  188.1590  174.8100  137.2030 C   0  0  0  0  0  1  0  0  0  0  0  0
  189.4980  173.0380  136.3590 O   0  0  0  0  0  0  0  0  0  0  0  0
  189.4510  174.0900  137.0510 C   0  0  0  0  0  0  0  0  0  0  0  0
  1  3  1  6  0  0  0
  1  6  1  0  0  0  0
  2  7  1  0  0  0  0
  2  6  1  0  0  0  0
  4 16  1  0  0  0  0
  4 11  1  0  0  0  0
  5  8  1  0  0  0  0
  6 14  2  0  0  0  0
  7 13  2  0  0  0  0
  8 26  1  6  0  0  0
  8  3  1  0  0  0  0
  9 12  2  0  0  0  0
  9 16  1  0  0  0  0
 10  4  2  0  0  0  0
 11 33  1  6  0  0  0
 11 21  1  0  0  0  0
 12 17  1  0  0  0  0
 13 22  2  0  0  0  0
 15  5  2  0  0  0  0
 16 18  2  0  0  0  0
 17  5  1  0  0  0  0
 17 19  2  0  0  0  0
 18 19  1  0  0  0  0
 19  1  1  0  0  0  0
 20  7  1  0  0  0  0
 21 20  1  0  0  0  0
 23 22  1  0  0  0  0
 23 25  1  0  0  0  0
 24 23  1  0  0  0  0
 24 25  1  0  0  0  0
 26 28  1  0  0  0  0
 27 26  2  0  0  0  0
 30 28  1  0  0  0  0
 30 29  1  0  0  0  0
 31 28  1  0  0  0  0
 32 31  1  0  0  0  0
 34 33  1  0  0  0  0
 35 37  1  1  0  0  0
 35 34  1  0  0  0  0
 37 36  1  0  0  0  0
 38 39  1  1  0  0  0
 38 42  1  0  0  0  0
 38 35  1  0  0  0  0
 39 40  2  0  0  0  0
 41 39  1  0  0  0  0
 44 45  2  0  0  0  0
 45 43  1  0  0  0  0
 45 42  1  0  0  0  0
M  END
>  <MODEL>
9

>  <REMARK>
 VINA RESULT:      -3.9      2.676     10.180
  Name = 
  12 active torsions:
  status: ('A' for Active; 'I' for Inactive)
    1  A    between atoms: C_2  and  N_45
    2  A    between atoms: C_4  and  N_26
    3  A    between atoms: C_4  and  C_29
    4  A    between atoms: C_6  and  C_14
    5  A    between atoms: C_6  and  C_19
    6  A    between atoms: C_6  and  O_42
    7  A    between atoms: C_10  and  C_44
    8  A    between atoms: C_12  and  C_18
    9  A    between atoms: C_14  and  N_26
   10  A    between atoms: C_14  and  C_27
   11  A    between atoms: C_35  and  N_45
   12  A    between atoms: O_42  and  C_43
                            x       y       z     vdW  Elec       q    Type
                         _______ _______ _______ _____ _____    ______ ____

>  <TORSDO>
F 12

$$$$
