=
 OpenBabel10222418463D

 29 33  0  0  1  0  0  0  0  0999 V2000
  188.8200  179.5170  137.2180 O   0  0  0  0  0  0  0  0  0  0  0  0
  187.5870  177.1280  144.6080 C   0  0  0  0  0  2  0  0  0  0  0  0
  187.5590  177.6740  138.0480 C   0  0  1  0  0  3  0  0  0  0  0  0
  187.2430  178.6800  141.0750 C   0  0  2  0  0  3  0  0  0  0  0  0
  186.0170  178.9690  145.3340 C   0  0  0  0  0  2  0  0  0  0  0  0
  186.2510  177.8920  138.7480 C   0  0  0  0  0  0  0  0  0  0  0  0
  188.6860  178.3760  140.6810 C   0  0  0  0  0  2  0  0  0  0  0  0
  182.6820  178.4660  140.7500 C   0  0  0  0  0  0  0  0  0  0  0  0
  187.1540  177.0270  143.1410 C   0  0  1  0  0  3  0  0  0  0  0  0
  189.0560  179.1280  139.4970 N   0  0  0  0  0  2  0  0  0  0  0  0
  185.0890  179.0820  144.1640 C   0  0  0  0  0  3  0  0  0  0  0  0
  186.4300  177.5130  145.5320 C   0  0  0  0  0  2  0  0  0  0  0  0
  184.8450  178.4180  140.6090 C   0  0  0  0  0  0  0  0  0  0  0  0
  186.9180  178.4490  142.5870 C   0  0  2  0  0  3  0  0  0  0  0  0
  183.7880  177.8400  138.5360 C   0  0  0  0  0  3  0  0  0  0  0  0
  185.0740  177.6720  137.9820 C   0  0  0  0  0  3  0  0  0  0  0  0
  188.5010  178.8220  138.2180 C   0  0  0  0  0  0  0  0  0  0  0  0
  188.1410  176.4860  138.4510 F   0  0  0  0  0  0  0  0  0  0  0  0
  186.1340  178.2530  140.1250 C   0  0  0  0  0  0  0  0  0  0  0  0
  183.7240  178.2300  139.8680 C   0  0  0  0  0  0  0  0  0  0  0  0
  183.1920  178.7770  141.9700 N   0  0  0  0  0  0  0  0  0  0  0  0
  185.4860  178.8540  142.9060 C   0  0  0  0  0  0  0  0  0  0  0  0
  184.5170  178.7540  141.8560 N   0  0  0  0  0  0  0  0  0  0  0  0
  180.6230  179.2160  139.2330 O   0  0  0  0  0  0  0  0  0  0  0  0
  180.9670  178.3330  140.3980 S   0  0  0  0  0  0  0  0  0  0  0  0
  180.0260  178.8370  141.8170 C   0  0  0  0  0  1  0  0  0  0  0  0
  180.6280  176.9060  140.0720 O   0  0  0  0  0  0  0  0  0  0  0  0
  189.1300  176.0450  143.3540 C   0  0  0  0  0  1  0  0  0  0  0  0
  188.1230  176.3190  142.4260 O   0  0  0  0  0  0  0  0  0  0  0  0
  1 17  2  0  0  0  0
  2 12  1  0  0  0  0
  3 17  1  0  0  0  0
  3 18  1  1  0  0  0
  3  6  1  0  0  0  0
  4  7  1  6  0  0  0
  4 14  1  0  0  0  0
  5 12  1  0  0  0  0
  6 19  1  0  0  0  0
  8 21  2  0  0  0  0
  9 29  1  6  0  0  0
  9  2  1  0  0  0  0
 10  7  1  0  0  0  0
 11  5  1  0  0  0  0
 13 23  1  0  0  0  0
 14 22  1  6  0  0  0
 14  9  1  0  0  0  0
 15 20  2  0  0  0  0
 16 15  1  0  0  0  0
 16  6  2  0  0  0  0
 17 10  1  0  0  0  0
 19 13  2  0  0  0  0
 19  4  1  0  0  0  0
 20 13  1  0  0  0  0
 20  8  1  0  0  0  0
 22 11  2  0  0  0  0
 23 21  1  0  0  0  0
 23 22  1  0  0  0  0
 24 25  2  0  0  0  0
 25  8  1  0  0  0  0
 25 26  1  0  0  0  0
 27 25  2  0  0  0  0
 29 28  1  0  0  0  0
M  END
>  <MODEL>
1

>  <REMARK>
 VINA RESULT:      -7.4      0.000      0.000
  Name = 
  2 active torsions:
  status: ('A' for Active; 'I' for Inactive)
    1  A    between atoms: S_4  and  C_10
    2  A    between atoms: C_11  and  O_28
                            x       y       z     vdW  Elec       q    Type
                         _______ _______ _______ _____ _____    ______ ____

>  <TORSDO>
F 2

$$$$
=
 OpenBabel10222418463D

 29 33  0  0  1  0  0  0  0  0999 V2000
  187.4800  176.4290  149.2240 O   0  0  0  0  0  0  0  0  0  0  0  0
  191.6500  178.0550  142.7600 C   0  0  0  0  0  2  0  0  0  0  0  0
  187.4390  178.3450  147.8100 C   0  0  1  0  0  3  0  0  0  0  0  0
  188.8660  177.0400  145.2530 C   0  0  2  0  0  3  0  0  0  0  0  0
  190.5240  176.4410  141.1770 C   0  0  0  0  0  2  0  0  0  0  0  0
  186.8410  178.2740  146.4370 C   0  0  0  0  0  0  0  0  0  0  0  0
  189.7730  177.1340  146.4760 C   0  0  0  0  0  2  0  0  0  0  0  0
  185.2700  178.0880  142.6200 C   0  0  0  0  0  0  0  0  0  0  0  0
  190.4350  178.4130  143.6220 C   0  0  1  0  0  3  0  0  0  0  0  0
  189.1550  176.4820  147.6160 N   0  0  0  0  0  2  0  0  0  0  0  0
  189.0730  176.6390  141.4940 C   0  0  0  0  0  3  0  0  0  0  0  0
  191.2700  177.7650  141.3070 C   0  0  0  0  0  2  0  0  0  0  0  0
  186.8230  177.7730  144.0990 C   0  0  0  0  0  0  0  0  0  0  0  0
  189.6080  177.1340  143.8810 C   0  0  2  0  0  3  0  0  0  0  0  0
  184.8640  178.7820  145.0430 C   0  0  0  0  0  3  0  0  0  0  0  0
  185.5240  178.7900  146.2880 C   0  0  0  0  0  3  0  0  0  0  0  0
  188.0090  177.0380  148.2590 C   0  0  0  0  0  0  0  0  0  0  0  0
  188.3830  179.3530  147.8840 F   0  0  0  0  0  0  0  0  0  0  0  0
  187.5300  177.7700  145.2920 C   0  0  0  0  0  0  0  0  0  0  0  0
  185.5590  178.2460  143.9660 C   0  0  0  0  0  0  0  0  0  0  0  0
  186.3460  177.5420  141.9950 N   0  0  0  0  0  0  0  0  0  0  0  0
  188.6400  176.9490  142.7220 C   0  0  0  0  0  0  0  0  0  0  0  0
  187.2790  177.3480  142.9220 N   0  0  0  0  0  0  0  0  0  0  0  0
  184.0700  179.6970  140.8680 O   0  0  0  0  0  0  0  0  0  0  0  0
  183.7870  178.5610  141.8080 S   0  0  0  0  0  0  0  0  0  0  0  0
  182.5860  179.0760  143.0110 C   0  0  0  0  0  1  0  0  0  0  0  0
  183.2360  177.3910  141.0420 O   0  0  0  0  0  0  0  0  0  0  0  0
  192.0160  179.7380  144.4340 C   0  0  0  0  0  1  0  0  0  0  0  0
  190.8740  179.0230  144.8000 O   0  0  0  0  0  0  0  0  0  0  0  0
  2  9  1  0  0  0  0
  3 18  1  6  0  0  0
  3 17  1  0  0  0  0
  4 19  1  0  0  0  0
  4  7  1  1  0  0  0
  5 12  1  0  0  0  0
  5 11  1  0  0  0  0
  6  3  1  0  0  0  0
  7 10  1  0  0  0  0
  8 20  1  0  0  0  0
  9 14  1  0  0  0  0
  9 29  1  1  0  0  0
 10 17  1  0  0  0  0
 11 22  2  0  0  0  0
 12  2  1  0  0  0  0
 13 19  1  0  0  0  0
 14 22  1  6  0  0  0
 14  4  1  0  0  0  0
 15 16  2  0  0  0  0
 16  6  1  0  0  0  0
 17  1  2  0  0  0  0
 19  6  2  0  0  0  0
 20 13  2  0  0  0  0
 20 15  1  0  0  0  0
 21  8  2  0  0  0  0
 21 23  1  0  0  0  0
 22 23  1  0  0  0  0
 23 13  1  0  0  0  0
 24 25  2  0  0  0  0
 25  8  1  0  0  0  0
 25 26  1  0  0  0  0
 27 25  2  0  0  0  0
 28 29  1  0  0  0  0
M  END
>  <MODEL>
2

>  <REMARK>
 VINA RESULT:      -7.2      3.598      6.198
  Name = 
  2 active torsions:
  status: ('A' for Active; 'I' for Inactive)
    1  A    between atoms: S_4  and  C_10
    2  A    between atoms: C_11  and  O_28
                            x       y       z     vdW  Elec       q    Type
                         _______ _______ _______ _____ _____    ______ ____

>  <TORSDO>
F 2

$$$$
=
 OpenBabel10222418463D

 29 33  0  0  1  0  0  0  0  0999 V2000
  179.1950  181.3730  141.7180 O   0  0  0  0  0  0  0  0  0  0  0  0
  183.9930  176.9100  137.3720 C   0  0  0  0  0  2  0  0  0  0  0  0
  180.0550  179.1910  142.1280 C   0  0  1  0  0  3  0  0  0  0  0  0
  182.4920  179.2750  140.0470 C   0  0  2  0  0  3  0  0  0  0  0  0
  186.1350  178.1960  137.7480 C   0  0  0  0  0  2  0  0  0  0  0  0
  181.4970  178.9880  142.4870 C   0  0  0  0  0  0  0  0  0  0  0  0
  181.1200  179.3360  139.3820 C   0  0  0  0  0  2  0  0  0  0  0  0
  185.4830  178.3920  143.3990 C   0  0  0  0  0  0  0  0  0  0  0  0
  183.3500  177.1370  138.7450 C   0  0  1  0  0  3  0  0  0  0  0  0
  180.3400  180.4310  139.9300 N   0  0  0  0  0  2  0  0  0  0  0  0
  186.0970  178.4620  139.2210 C   0  0  0  0  0  3  0  0  0  0  0  0
  185.5190  176.8320  137.4490 C   0  0  0  0  0  2  0  0  0  0  0  0
  183.8330  178.7500  142.0380 C   0  0  0  0  0  0  0  0  0  0  0  0
  183.6050  178.5950  139.1860 C   0  0  2  0  0  3  0  0  0  0  0  0
  183.1080  178.5810  144.3170 C   0  0  0  0  0  3  0  0  0  0  0  0
  181.7890  178.7880  143.8640 C   0  0  0  0  0  3  0  0  0  0  0  0
  179.8390  180.3920  141.2660 C   0  0  0  0  0  0  0  0  0  0  0  0
  179.5290  178.0540  141.5420 F   0  0  0  0  0  0  0  0  0  0  0  0
  182.5570  178.9400  141.5300 C   0  0  0  0  0  0  0  0  0  0  0  0
  184.1110  178.5810  143.3550 C   0  0  0  0  0  0  0  0  0  0  0  0
  185.9800  178.4450  142.1360 N   0  0  0  0  0  0  0  0  0  0  0  0
  184.9520  178.6520  139.8890 C   0  0  0  0  0  0  0  0  0  0  0  0
  184.9540  178.6760  141.3220 N   0  0  0  0  0  0  0  0  0  0  0  0
  186.2030  179.1470  145.8510 O   0  0  0  0  0  0  0  0  0  0  0  0
  186.4470  178.0720  144.8310 S   0  0  0  0  0  0  0  0  0  0  0  0
  188.1700  178.0510  144.3980 C   0  0  0  0  0  1  0  0  0  0  0  0
  186.0730  176.7330  145.4010 O   0  0  0  0  0  0  0  0  0  0  0  0
  181.8480  175.6510  139.4180 C   0  0  0  0  0  1  0  0  0  0  0  0
  181.9900  176.8220  138.6700 O   0  0  0  0  0  0  0  0  0  0  0  0
  2 12  1  0  0  0  0
  2  9  1  0  0  0  0
  3 18  1  6  0  0  0
  3  6  1  0  0  0  0
  4  7  1  6  0  0  0
  4 19  1  0  0  0  0
  5 11  1  0  0  0  0
  6 16  1  0  0  0  0
  7 10  1  0  0  0  0
  8 25  1  0  0  0  0
  9 29  1  6  0  0  0
  9 14  1  0  0  0  0
 10 17  1  0  0  0  0
 11 22  2  0  0  0  0
 12  5  1  0  0  0  0
 13 20  2  0  0  0  0
 14 22  1  1  0  0  0
 14  4  1  0  0  0  0
 16 15  2  0  0  0  0
 17  1  2  0  0  0  0
 17  3  1  0  0  0  0
 19 13  1  0  0  0  0
 19  6  2  0  0  0  0
 20  8  1  0  0  0  0
 20 15  1  0  0  0  0
 21  8  2  0  0  0  0
 22 23  1  0  0  0  0
 23 13  1  0  0  0  0
 23 21  1  0  0  0  0
 25 27  2  0  0  0  0
 25 24  2  0  0  0  0
 26 25  1  0  0  0  0
 29 28  1  0  0  0  0
M  END
>  <MODEL>
3

>  <REMARK>
 VINA RESULT:      -7.1      3.162      6.843
  Name = 
  2 active torsions:
  status: ('A' for Active; 'I' for Inactive)
    1  A    between atoms: S_4  and  C_10
    2  A    between atoms: C_11  and  O_28
                            x       y       z     vdW  Elec       q    Type
                         _______ _______ _______ _____ _____    ______ ____

>  <TORSDO>
F 2

$$$$
=
 OpenBabel10222418463D

 29 33  0  0  1  0  0  0  0  0999 V2000
  183.1550  177.9900  145.3960 O   0  0  0  0  0  0  0  0  0  0  0  0
  190.9510  177.0260  145.7580 C   0  0  0  0  0  2  0  0  0  0  0  0
  184.9150  179.3770  144.5880 C   0  0  1  0  0  3  0  0  0  0  0  0
  187.2540  177.1860  144.6120 C   0  0  2  0  0  3  0  0  0  0  0  0
  191.1730  175.1710  144.0590 C   0  0  0  0  0  2  0  0  0  0  0  0
  185.7240  178.9730  143.3920 C   0  0  0  0  0  0  0  0  0  0  0  0
  186.7230  177.5260  146.0010 C   0  0  0  0  0  2  0  0  0  0  0  0
  188.0220  177.8480  140.1470 C   0  0  0  0  0  0  0  0  0  0  0  0
  189.7830  177.7830  145.1150 C   0  0  1  0  0  3  0  0  0  0  0  0
  185.2850  177.3360  146.0530 N   0  0  0  0  0  2  0  0  0  0  0  0
  190.2860  175.6430  142.9480 C   0  0  0  0  0  3  0  0  0  0  0  0
  191.8580  176.3630  144.7200 C   0  0  0  0  0  2  0  0  0  0  0  0
  187.4570  177.7960  142.2400 C   0  0  0  0  0  0  0  0  0  0  0  0
  188.7590  176.7620  144.5740 C   0  0  2  0  0  3  0  0  0  0  0  0
  186.0800  179.2890  140.9660 C   0  0  0  0  0  3  0  0  0  0  0  0
  185.3840  179.5870  142.1560 C   0  0  0  0  0  3  0  0  0  0  0  0
  184.3940  178.2040  145.3550 C   0  0  0  0  0  0  0  0  0  0  0  0
  185.6360  180.2280  145.4060 F   0  0  0  0  0  0  0  0  0  0  0  0
  186.8220  178.0610  143.4440 C   0  0  0  0  0  0  0  0  0  0  0  0
  187.1150  178.3670  141.0580 C   0  0  0  0  0  0  0  0  0  0  0  0
  188.8680  177.0030  140.7930 N   0  0  0  0  0  0  0  0  0  0  0  0
  189.1790  176.3630  143.1680 C   0  0  0  0  0  0  0  0  0  0  0  0
  188.4950  176.9780  142.0690 N   0  0  0  0  0  0  0  0  0  0  0  0
  186.7590  178.5550  137.9100 O   0  0  0  0  0  0  0  0  0  0  0  0
  188.1290  178.2430  138.4400 S   0  0  0  0  0  0  0  0  0  0  0  0
  188.8050  176.8640  137.5490 C   0  0  0  0  0  1  0  0  0  0  0  0
  189.0300  179.4310  138.2530 O   0  0  0  0  0  0  0  0  0  0  0  0
  189.5680  178.1140  147.2970 C   0  0  0  0  0  1  0  0  0  0  0  0
  189.2330  178.6590  146.0550 O   0  0  0  0  0  0  0  0  0  0  0  0
  3 17  1  0  0  0  0
  3 18  1  1  0  0  0
  4  7  1  1  0  0  0
  5 12  1  0  0  0  0
  6 19  1  0  0  0  0
  6  3  1  0  0  0  0
  7 10  1  0  0  0  0
  8 21  2  0  0  0  0
  8 20  1  0  0  0  0
  9  2  1  0  0  0  0
  9 29  1  1  0  0  0
 11 22  2  0  0  0  0
 11  5  1  0  0  0  0
 12  2  1  0  0  0  0
 13 19  2  0  0  0  0
 14 22  1  6  0  0  0
 14  4  1  0  0  0  0
 14  9  1  0  0  0  0
 15 20  2  0  0  0  0
 15 16  1  0  0  0  0
 16  6  2  0  0  0  0
 17  1  2  0  0  0  0
 17 10  1  0  0  0  0
 19  4  1  0  0  0  0
 20 13  1  0  0  0  0
 21 23  1  0  0  0  0
 23 13  1  0  0  0  0
 23 22  1  0  0  0  0
 24 25  2  0  0  0  0
 25  8  1  0  0  0  0
 26 25  1  0  0  0  0
 27 25  2  0  0  0  0
 29 28  1  0  0  0  0
M  END
>  <MODEL>
4

>  <REMARK>
 VINA RESULT:      -6.5      3.548      6.041
  Name = 
  2 active torsions:
  status: ('A' for Active; 'I' for Inactive)
    1  A    between atoms: S_4  and  C_10
    2  A    between atoms: C_11  and  O_28
                            x       y       z     vdW  Elec       q    Type
                         _______ _______ _______ _____ _____    ______ ____

>  <TORSDO>
F 2

$$$$
=
 OpenBabel10222418463D

 29 33  0  0  1  0  0  0  0  0999 V2000
  180.0500  180.9870  141.2660 O   0  0  0  0  0  0  0  0  0  0  0  0
  184.6120  176.8030  136.4170 C   0  0  0  0  0  2  0  0  0  0  0  0
  181.0050  178.8220  141.5390 C   0  0  1  0  0  3  0  0  0  0  0  0
  183.2620  179.0430  139.2740 C   0  0  2  0  0  3  0  0  0  0  0  0
  186.7370  178.1460  136.6590 C   0  0  0  0  0  2  0  0  0  0  0  0
  182.4760  178.6560  141.7750 C   0  0  0  0  0  0  0  0  0  0  0  0
  181.8390  179.0780  138.7230 C   0  0  0  0  0  2  0  0  0  0  0  0
  186.5390  178.1630  142.3470 C   0  0  0  0  0  0  0  0  0  0  0  0
  184.0750  176.9700  137.8420 C   0  0  1  0  0  3  0  0  0  0  0  0
  181.0750  180.1320  139.3640 N   0  0  0  0  0  2  0  0  0  0  0  0
  186.8110  178.3690  138.1370 C   0  0  0  0  0  3  0  0  0  0  0  0
  186.1400  176.7720  136.3690 C   0  0  0  0  0  2  0  0  0  0  0  0
  184.7750  178.5050  141.1340 C   0  0  0  0  0  0  0  0  0  0  0  0
  184.3210  178.4220  138.3050 C   0  0  2  0  0  3  0  0  0  0  0  0
  184.2420  178.2500  143.4570 C   0  0  0  0  0  3  0  0  0  0  0  0
  182.8860  178.4270  143.1170 C   0  0  0  0  0  3  0  0  0  0  0  0
  180.6840  180.0390  140.7340 C   0  0  0  0  0  0  0  0  0  0  0  0
  180.4680  177.6860  140.9630 F   0  0  0  0  0  0  0  0  0  0  0  0
  183.4570  178.6680  140.7360 C   0  0  0  0  0  0  0  0  0  0  0  0
  185.1630  178.3090  142.4190 C   0  0  0  0  0  0  0  0  0  0  0  0
  186.9310  178.2670  141.0500 N   0  0  0  0  0  0  0  0  0  0  0  0
  185.7190  178.5040  138.9000 C   0  0  0  0  0  0  0  0  0  0  0  0
  185.8360  178.4880  140.3280 N   0  0  0  0  0  0  0  0  0  0  0  0
  187.1870  178.6150  144.8920 O   0  0  0  0  0  0  0  0  0  0  0  0
  187.6250  177.8350  143.6860 S   0  0  0  0  0  0  0  0  0  0  0  0
  189.2790  178.3110  143.2450 C   0  0  0  0  0  1  0  0  0  0  0  0
  187.6110  176.3650  143.9980 O   0  0  0  0  0  0  0  0  0  0  0  0
  182.7170  175.2170  137.8570 C   0  0  0  0  0  1  0  0  0  0  0  0
  182.7240  176.6140  137.8670 O   0  0  0  0  0  0  0  0  0  0  0  0
  2  9  1  0  0  0  0
  3 18  1  6  0  0  0
  3  6  1  0  0  0  0
  4  7  1  6  0  0  0
  4 19  1  0  0  0  0
  5 11  1  0  0  0  0
  6 16  1  0  0  0  0
  7 10  1  0  0  0  0
  8 20  1  0  0  0  0
  8 25  1  0  0  0  0
  9 29  1  6  0  0  0
  9 14  1  0  0  0  0
 10 17  1  0  0  0  0
 11 22  2  0  0  0  0
 12  2  1  0  0  0  0
 12  5  1  0  0  0  0
 13 20  2  0  0  0  0
 14 22  1  1  0  0  0
 14  4  1  0  0  0  0
 16 15  2  0  0  0  0
 17  1  2  0  0  0  0
 17  3  1  0  0  0  0
 19 13  1  0  0  0  0
 19  6  2  0  0  0  0
 20 15  1  0  0  0  0
 21  8  2  0  0  0  0
 22 23  1  0  0  0  0
 23 21  1  0  0  0  0
 23 13  1  0  0  0  0
 25 27  2  0  0  0  0
 25 24  2  0  0  0  0
 26 25  1  0  0  0  0
 28 29  1  0  0  0  0
M  END
>  <MODEL>
5

>  <REMARK>
 VINA RESULT:      -6.3      3.013      6.740
  Name = 
  2 active torsions:
  status: ('A' for Active; 'I' for Inactive)
    1  A    between atoms: S_4  and  C_10
    2  A    between atoms: C_11  and  O_28
                            x       y       z     vdW  Elec       q    Type
                         _______ _______ _______ _____ _____    ______ ____

>  <TORSDO>
F 2

$$$$
=
 OpenBabel10222418463D

 29 33  0  0  1  0  0  0  0  0999 V2000
  181.8870  180.2000  140.4350 O   0  0  0  0  0  0  0  0  0  0  0  0
  187.3710  176.4570  136.2220 C   0  0  0  0  0  2  0  0  0  0  0  0
  183.0280  178.1550  140.8680 C   0  0  1  0  0  3  0  0  0  0  0  0
  185.4850  178.5820  138.8550 C   0  0  2  0  0  3  0  0  0  0  0  0
  189.3040  178.0240  136.6580 C   0  0  0  0  0  2  0  0  0  0  0  0
  184.4730  178.1500  141.2660 C   0  0  0  0  0  0  0  0  0  0  0  0
  184.1370  178.4560  138.1530 C   0  0  0  0  0  2  0  0  0  0  0  0
  188.4770  178.1050  142.2880 C   0  0  0  0  0  0  0  0  0  0  0  0
  186.6650  176.5870  137.5760 C   0  0  1  0  0  3  0  0  0  0  0  0
  183.2000  179.4320  138.6790 N   0  0  0  0  0  2  0  0  0  0  0  0
  189.1890  178.2760  138.1290 C   0  0  0  0  0  3  0  0  0  0  0  0
  188.8900  176.5900  136.3410 C   0  0  0  0  0  2  0  0  0  0  0  0
  186.8320  178.2380  140.8820 C   0  0  0  0  0  0  0  0  0  0  0  0
  186.7050  178.0650  138.0250 C   0  0  2  0  0  3  0  0  0  0  0  0
  186.0740  177.9620  143.1400 C   0  0  0  0  0  3  0  0  0  0  0  0
  184.7520  177.9870  142.6500 C   0  0  0  0  0  3  0  0  0  0  0  0
  182.6720  179.3180  140.0000 C   0  0  0  0  0  0  0  0  0  0  0  0
  182.6790  176.9580  140.2670 F   0  0  0  0  0  0  0  0  0  0  0  0
  185.5550  178.2530  140.3390 C   0  0  0  0  0  0  0  0  0  0  0  0
  187.0930  178.1040  142.2060 C   0  0  0  0  0  0  0  0  0  0  0  0
  188.9960  178.2310  141.0390 N   0  0  0  0  0  0  0  0  0  0  0  0
  188.0120  178.3040  138.7650 C   0  0  0  0  0  0  0  0  0  0  0  0
  187.9710  178.3220  140.1970 N   0  0  0  0  0  0  0  0  0  0  0  0
  188.5870  178.2110  144.9490 O   0  0  0  0  0  0  0  0  0  0  0  0
  189.4360  177.9150  143.7460 S   0  0  0  0  0  0  0  0  0  0  0  0
  190.8120  179.0370  143.7060 C   0  0  0  0  0  1  0  0  0  0  0  0
  189.9590  176.5080  143.8250 O   0  0  0  0  0  0  0  0  0  0  0  0
  185.4910  174.9100  136.7250 C   0  0  0  0  0  1  0  0  0  0  0  0
  185.3640  176.0890  137.4630 O   0  0  0  0  0  0  0  0  0  0  0  0
  2 12  1  0  0  0  0
  2  9  1  0  0  0  0
  3 18  1  6  0  0  0
  3  6  1  0  0  0  0
  4  7  1  6  0  0  0
  4 19  1  0  0  0  0
  5 11  1  0  0  0  0
  6 16  1  0  0  0  0
  7 10  1  0  0  0  0
  8 25  1  0  0  0  0
  9 29  1  6  0  0  0
  9 14  1  0  0  0  0
 10 17  1  0  0  0  0
 11 22  2  0  0  0  0
 12  5  1  0  0  0  0
 13 20  2  0  0  0  0
 14 22  1  1  0  0  0
 14  4  1  0  0  0  0
 16 15  2  0  0  0  0
 17  1  2  0  0  0  0
 17  3  1  0  0  0  0
 19 13  1  0  0  0  0
 19  6  2  0  0  0  0
 20  8  1  0  0  0  0
 20 15  1  0  0  0  0
 21  8  2  0  0  0  0
 22 23  1  0  0  0  0
 23 13  1  0  0  0  0
 23 21  1  0  0  0  0
 25 27  2  0  0  0  0
 25 24  2  0  0  0  0
 26 25  1  0  0  0  0
 28 29  1  0  0  0  0
M  END
>  <MODEL>
6

>  <REMARK>
 VINA RESULT:      -6.2      2.867      6.605
  Name = 
  2 active torsions:
  status: ('A' for Active; 'I' for Inactive)
    1  A    between atoms: S_4  and  C_10
    2  A    between atoms: C_11  and  O_28
                            x       y       z     vdW  Elec       q    Type
                         _______ _______ _______ _____ _____    ______ ____

>  <TORSDO>
F 2

$$$$
=
 OpenBabel10222418463D

 29 33  0  0  1  0  0  0  0  0999 V2000
  191.0940  174.7400  148.1190 O   0  0  0  0  0  0  0  0  0  0  0  0
  191.4660  177.8700  140.9150 C   0  0  0  0  0  2  0  0  0  0  0  0
  190.6650  176.9650  147.3860 C   0  0  1  0  0  3  0  0  0  0  0  0
  190.2740  176.3370  144.2670 C   0  0  2  0  0  3  0  0  0  0  0  0
  189.4070  176.7850  139.9350 C   0  0  0  0  0  2  0  0  0  0  0  0
  189.4350  177.2890  146.5930 C   0  0  0  0  0  0  0  0  0  0  0  0
  191.6880  176.0630  144.7710 C   0  0  0  0  0  2  0  0  0  0  0  0
  186.0910  178.1960  144.3400 C   0  0  0  0  0  0  0  0  0  0  0  0
  190.9720  178.0320  142.3570 C   0  0  1  0  0  3  0  0  0  0  0  0
  191.6540  175.1550  145.9030 N   0  0  0  0  0  2  0  0  0  0  0  0
  188.4020  176.9500  141.0330 C   0  0  0  0  0  3  0  0  0  0  0  0
  190.3350  177.9950  139.8930 C   0  0  0  0  0  2  0  0  0  0  0  0
  188.1020  177.4340  144.6130 C   0  0  0  0  0  0  0  0  0  0  0  0
  190.1890  176.7650  142.7660 C   0  0  2  0  0  3  0  0  0  0  0  0
  187.1500  178.2310  146.6630 C   0  0  0  0  0  3  0  0  0  0  0  0
  188.3540  177.8780  147.3050 C   0  0  0  0  0  3  0  0  0  0  0  0
  191.1380  175.5640  147.1690 C   0  0  0  0  0  0  0  0  0  0  0  0
  191.6720  177.8780  147.1270 F   0  0  0  0  0  0  0  0  0  0  0  0
  189.3160  177.0830  145.1850 C   0  0  0  0  0  0  0  0  0  0  0  0
  187.0660  177.9760  145.3000 C   0  0  0  0  0  0  0  0  0  0  0  0
  186.5590  177.7950  143.1300 N   0  0  0  0  0  0  0  0  0  0  0  0
  188.7420  176.9360  142.3280 C   0  0  0  0  0  0  0  0  0  0  0  0
  187.7870  177.3210  143.3230 N   0  0  0  0  0  0  0  0  0  0  0  0
  184.0470  178.6280  145.9950 O   0  0  0  0  0  0  0  0  0  0  0  0
  184.5170  178.9290  144.6010 S   0  0  0  0  0  0  0  0  0  0  0  0
  183.3520  178.2730  143.4320 C   0  0  0  0  0  1  0  0  0  0  0  0
  184.6150  180.4160  144.4060 O   0  0  0  0  0  0  0  0  0  0  0  0
  191.6810  179.3790  143.9690 C   0  0  0  0  0  1  0  0  0  0  0  0
  192.0660  178.2860  143.1890 O   0  0  0  0  0  0  0  0  0  0  0  0
  2  9  1  0  0  0  0
  3 18  1  6  0  0  0
  4  7  1  1  0  0  0
  4 19  1  0  0  0  0
  5 11  1  0  0  0  0
  6 16  1  0  0  0  0
  6  3  1  0  0  0  0
  7 10  1  0  0  0  0
  8 25  1  0  0  0  0
  8 20  1  0  0  0  0
  9 14  1  0  0  0  0
  9 29  1  1  0  0  0
 10 17  1  0  0  0  0
 11 22  2  0  0  0  0
 12  5  1  0  0  0  0
 12  2  1  0  0  0  0
 13 19  1  0  0  0  0
 13 20  2  0  0  0  0
 14 22  1  1  0  0  0
 14  4  1  0  0  0  0
 15 16  2  0  0  0  0
 17  3  1  0  0  0  0
 17  1  2  0  0  0  0
 19  6  2  0  0  0  0
 20 15  1  0  0  0  0
 21 23  1  0  0  0  0
 21  8  2  0  0  0  0
 22 23  1  0  0  0  0
 23 13  1  0  0  0  0
 25 24  2  0  0  0  0
 26 25  1  0  0  0  0
 27 25  2  0  0  0  0
 29 28  1  0  0  0  0
M  END
>  <MODEL>
7

>  <REMARK>
 VINA RESULT:      -6.1      4.004      6.787
  Name = 
  2 active torsions:
  status: ('A' for Active; 'I' for Inactive)
    1  A    between atoms: S_4  and  C_10
    2  A    between atoms: C_11  and  O_28
                            x       y       z     vdW  Elec       q    Type
                         _______ _______ _______ _____ _____    ______ ____

>  <TORSDO>
F 2

$$$$
=
 OpenBabel10222418463D

 29 33  0  0  1  0  0  0  0  0999 V2000
  194.0370  177.1260  137.0900 O   0  0  0  0  0  0  0  0  0  0  0  0
  188.9800  177.0350  143.1100 C   0  0  0  0  0  2  0  0  0  0  0  0
  192.3290  175.5600  137.6390 C   0  0  1  0  0  3  0  0  0  0  0  0
  190.6460  177.4200  139.6340 C   0  0  2  0  0  3  0  0  0  0  0  0
  187.4800  178.9250  142.3620 C   0  0  0  0  0  2  0  0  0  0  0  0
  190.8810  175.9110  137.4690 C   0  0  0  0  0  0  0  0  0  0  0  0
  192.0440  177.0860  140.1460 C   0  0  0  0  0  2  0  0  0  0  0  0
  186.8820  176.8790  137.0840 C   0  0  0  0  0  0  0  0  0  0  0  0
  189.3380  176.4710  141.7310 C   0  0  1  0  0  3  0  0  0  0  0  0
  193.0450  177.4620  139.1630 N   0  0  0  0  0  2  0  0  0  0  0  0
  187.2900  178.6280  140.9060 C   0  0  0  0  0  3  0  0  0  0  0  0
  187.5680  177.6220  143.1510 C   0  0  0  0  0  2  0  0  0  0  0  0
  188.7990  176.9040  138.0970 C   0  0  0  0  0  0  0  0  0  0  0  0
  189.5780  177.6430  140.7540 C   0  0  2  0  0  3  0  0  0  0  0  0
  188.8750  175.6680  136.0440 C   0  0  0  0  0  3  0  0  0  0  0  0
  190.2360  175.4080  136.3060 C   0  0  0  0  0  3  0  0  0  0  0  0
  193.1810  176.7530  137.9320 C   0  0  0  0  0  0  0  0  0  0  0  0
  192.4880  174.5830  138.6050 F   0  0  0  0  0  0  0  0  0  0  0  0
  190.1270  176.6670  138.4180 C   0  0  0  0  0  0  0  0  0  0  0  0
  188.1930  176.4410  136.9760 C   0  0  0  0  0  0  0  0  0  0  0  0
  186.7390  177.5720  138.2440 N   0  0  0  0  0  0  0  0  0  0  0  0
  188.2390  178.0500  140.1590 C   0  0  0  0  0  0  0  0  0  0  0  0
  187.9280  177.5850  138.8410 N   0  0  0  0  0  0  0  0  0  0  0  0
  185.8420  177.2730  134.6630 O   0  0  0  0  0  0  0  0  0  0  0  0
  185.5770  176.5560  135.9550 S   0  0  0  0  0  0  0  0  0  0  0  0
  184.0410  177.1230  136.6410 C   0  0  0  0  0  1  0  0  0  0  0  0
  185.4810  175.0770  135.7060 O   0  0  0  0  0  0  0  0  0  0  0  0
  190.7490  175.6280  143.2180 C   0  0  0  0  0  1  0  0  0  0  0  0
  190.4480  175.6310  141.8550 O   0  0  0  0  0  0  0  0  0  0  0  0
  1 17  2  0  0  0  0
  2 12  1  0  0  0  0
  3 17  1  0  0  0  0
  3 18  1  1  0  0  0
  4  7  1  1  0  0  0
  4 14  1  0  0  0  0
  5 12  1  0  0  0  0
  6  3  1  0  0  0  0
  6 19  1  0  0  0  0
  8 21  2  0  0  0  0
  9 29  1  1  0  0  0
  9  2  1  0  0  0  0
 10  7  1  0  0  0  0
 11  5  1  0  0  0  0
 13 19  2  0  0  0  0
 13 23  1  0  0  0  0
 14 22  1  6  0  0  0
 14  9  1  0  0  0  0
 15 16  1  0  0  0  0
 15 20  2  0  0  0  0
 16  6  2  0  0  0  0
 17 10  1  0  0  0  0
 19  4  1  0  0  0  0
 20  8  1  0  0  0  0
 20 13  1  0  0  0  0
 21 23  1  0  0  0  0
 22 11  2  0  0  0  0
 23 22  1  0  0  0  0
 24 25  2  0  0  0  0
 25 26  1  0  0  0  0
 25  8  1  0  0  0  0
 27 25  2  0  0  0  0
 29 28  1  0  0  0  0
M  END
>  <MODEL>
8

>  <REMARK>
 VINA RESULT:      -5.9      3.623      4.857
  Name = 
  2 active torsions:
  status: ('A' for Active; 'I' for Inactive)
    1  A    between atoms: S_4  and  C_10
    2  A    between atoms: C_11  and  O_28
                            x       y       z     vdW  Elec       q    Type
                         _______ _______ _______ _____ _____    ______ ____

>  <TORSDO>
F 2

$$$$
=
 OpenBabel10222418463D

 29 33  0  0  1  0  0  0  0  0999 V2000
  180.0560  180.8780  142.9130 O   0  0  0  0  0  0  0  0  0  0  0  0
  181.5510  175.7420  137.1500 C   0  0  0  0  0  2  0  0  0  0  0  0
  181.2710  178.8300  142.9560 C   0  0  1  0  0  3  0  0  0  0  0  0
  181.7860  178.5530  139.8050 C   0  0  2  0  0  3  0  0  0  0  0  0
  183.2390  177.1120  135.8630 C   0  0  0  0  0  2  0  0  0  0  0  0
  182.6210  178.7240  142.3140 C   0  0  0  0  0  0  0  0  0  0  0  0
  180.3130  178.4610  140.1920 C   0  0  0  0  0  2  0  0  0  0  0  0
  186.3100  178.3830  140.4830 C   0  0  0  0  0  0  0  0  0  0  0  0
  181.9040  176.2180  138.5630 C   0  0  1  0  0  3  0  0  0  0  0  0
  179.9190  179.6280  140.9600 N   0  0  0  0  0  2  0  0  0  0  0  0
  184.1100  177.6560  136.9520 C   0  0  0  0  0  3  0  0  0  0  0  0
  182.7690  175.7060  136.2250 C   0  0  0  0  0  2  0  0  0  0  0  0
  184.1430  178.4430  140.4910 C   0  0  0  0  0  0  0  0  0  0  0  0
  182.1770  177.7380  138.5290 C   0  0  2  0  0  3  0  0  0  0  0  0
  185.0650  178.7050  142.6880 C   0  0  0  0  0  3  0  0  0  0  0  0
  183.7470  178.7990  143.1790 C   0  0  0  0  0  3  0  0  0  0  0  0
  180.3930  179.8380  142.2890 C   0  0  0  0  0  0  0  0  0  0  0  0
  180.6560  177.5930  143.0150 F   0  0  0  0  0  0  0  0  0  0  0  0
  182.8250  178.5110  140.9160 C   0  0  0  0  0  0  0  0  0  0  0  0
  185.2150  178.5370  141.3170 C   0  0  0  0  0  0  0  0  0  0  0  0
  185.8770  178.1990  139.2080 N   0  0  0  0  0  0  0  0  0  0  0  0
  183.6400  177.9520  138.1710 C   0  0  0  0  0  0  0  0  0  0  0  0
  184.5490  178.2520  139.2360 N   0  0  0  0  0  0  0  0  0  0  0  0
  188.3190  179.6200  141.7220 O   0  0  0  0  0  0  0  0  0  0  0  0
  187.9970  178.3610  140.9690 S   0  0  0  0  0  0  0  0  0  0  0  0
  189.0320  178.2540  139.5300 C   0  0  0  0  0  1  0  0  0  0  0  0
  188.2550  177.1650  141.8420 O   0  0  0  0  0  0  0  0  0  0  0  0
  180.1270  174.9060  138.7500 C   0  0  0  0  0  1  0  0  0  0  0  0
  180.8680  175.8720  139.4340 O   0  0  0  0  0  0  0  0  0  0  0  0
  2  9  1  0  0  0  0
  3 18  1  6  0  0  0
  4  7  1  1  0  0  0
  4 19  1  0  0  0  0
  5 12  1  0  0  0  0
  5 11  1  0  0  0  0
  6  3  1  0  0  0  0
  6 16  1  0  0  0  0
  7 10  1  0  0  0  0
  8 25  1  0  0  0  0
  8 20  1  0  0  0  0
  9 29  1  1  0  0  0
 10 17  1  0  0  0  0
 11 22  2  0  0  0  0
 12  2  1  0  0  0  0
 13 19  1  0  0  0  0
 13 20  2  0  0  0  0
 14 22  1  1  0  0  0
 14  9  1  0  0  0  0
 14  4  1  0  0  0  0
 15 16  2  0  0  0  0
 17  1  2  0  0  0  0
 17  3  1  0  0  0  0
 19  6  2  0  0  0  0
 20 15  1  0  0  0  0
 21 23  1  0  0  0  0
 21  8  2  0  0  0  0
 22 23  1  0  0  0  0
 23 13  1  0  0  0  0
 25 24  2  0  0  0  0
 25 27  2  0  0  0  0
 26 25  1  0  0  0  0
 28 29  1  0  0  0  0
M  END
>  <MODEL>
9

>  <REMARK>
 VINA RESULT:      -5.7      3.067      7.312
  Name = 
  2 active torsions:
  status: ('A' for Active; 'I' for Inactive)
    1  A    between atoms: S_4  and  C_10
    2  A    between atoms: C_11  and  O_28
                            x       y       z     vdW  Elec       q    Type
                         _______ _______ _______ _____ _____    ______ ____

>  <TORSDO>
F 2

$$$$
