=
 OpenBabel10222421143D

 37 41  0  0  1  0  0  0  0  0999 V2000
  186.5440  178.5750  140.4950 C   0  0  0  0  0  0  0  0  0  0  0  0
  185.2490  178.3330  146.9030 C   0  0  0  0  0  3  0  0  0  0  0  0
  185.3060  178.7590  139.8870 C   0  0  0  0  0  3  0  0  0  0  0  0
  184.1950  178.7510  141.9850 C   0  0  0  0  0  0  0  0  0  0  0  0
  184.0850  178.5180  146.1560 C   0  0  0  0  0  3  0  0  0  0  0  0
  185.3890  178.4740  144.0920 C   0  0  0  0  0  0  0  0  0  0  0  0
  186.4890  178.2200  146.2640 C   0  0  0  0  0  0  0  0  0  0  0  0
  186.6050  178.4150  141.9000 C   0  0  0  0  0  0  0  0  0  0  0  0
  183.0030  178.7730  144.0570 N   0  0  0  0  0  0  0  0  0  0  0  0
  186.5460  178.2940  144.8660 C   0  0  0  0  0  3  0  0  0  0  0  0
  182.9940  178.8550  142.7010 C   0  0  0  0  0  0  0  0  0  0  0  0
  184.1750  178.8330  140.6290 N   0  0  0  0  0  0  0  0  0  0  0  0
  184.1460  178.5900  144.7610 C   0  0  0  0  0  0  0  0  0  0  0  0
  185.4190  178.5530  142.6730 C   0  0  0  0  0  0  0  0  0  0  0  0
  189.0500  178.0790  148.7090 N   0  0  0  0  0  0  0  0  0  0  0  0
  188.8160  177.4240  146.6150 C   0  0  0  0  0  3  0  0  0  0  0  0
  187.6850  178.0240  147.0320 N   0  0  0  0  0  0  0  0  0  0  0  0
  189.6860  177.4620  147.6910 C   0  0  0  0  0  3  0  0  0  0  0  0
  187.8430  178.4090  148.2850 N   0  0  0  0  0  0  0  0  0  0  0  0
  181.7600  179.0470  142.0040 N   0  0  0  0  0  2  0  0  0  0  0  0
  180.5050  178.4900  142.4790 C   0  0  0  0  0  2  0  0  0  0  0  0
  180.0250  180.8120  142.7320 O   0  0  0  0  0  1  0  0  0  0  0  0
  179.4380  179.5680  142.5060 C   0  0  0  0  0  2  0  0  0  0  0  0
  187.7070  178.6110  139.6550 N   0  0  0  0  0  2  0  0  0  0  0  0
  187.9000  177.8090  138.4550 C   0  0  0  0  0  2  0  0  0  0  0  0
  189.1160  178.3030  137.6880 C   0  0  0  0  0  2  0  0  0  0  0  0
  188.8830  176.0420  137.1190 C   0  0  0  0  0  2  0  0  0  0  0  0
  189.7800  177.1850  137.0410 N   0  0  0  0  0  0  0  0  0  0  0  0
  190.9280  176.8390  137.8680 C   0  0  0  0  0  2  0  0  0  0  0  0
  190.9840  175.3290  138.0010 C   0  0  2  0  0  3  0  0  0  0  0  0
  192.2030  174.7960  137.2740 C   0  0  0  0  0  1  0  0  0  0  0  0
  189.7350  174.8150  137.3340 C   0  0  0  0  0  2  0  0  0  0  0  0
  187.8150  178.0910  142.5230 O   0  0  0  0  0  0  0  0  0  0  0  0
  188.4200  176.8080  142.3870 C   0  0  0  0  0  2  0  0  0  0  0  0
  189.9360  176.9200  142.4180 C   0  0  0  0  0  3  0  0  0  0  0  0
  190.5140  175.6890  143.0810 C   0  0  0  0  0  1  0  0  0  0  0  0
  190.3570  178.1490  143.2000 C   0  0  0  0  0  1  0  0  0  0  0  0
  1  8  1  0  0  0  0
  3  1  2  0  0  0  0
  3 12  1  0  0  0  0
  4 14  1  0  0  0  0
  4 11  1  0  0  0  0
  5  2  2  0  0  0  0
  6 13  2  0  0  0  0
  6 10  1  0  0  0  0
  7  2  1  0  0  0  0
  7 17  1  0  0  0  0
  8 33  1  0  0  0  0
  8 14  2  0  0  0  0
  9 13  1  0  0  0  0
 10  7  2  0  0  0  0
 11  9  2  0  0  0  0
 12  4  2  0  0  0  0
 13  5  1  0  0  0  0
 14  6  1  0  0  0  0
 16 17  1  0  0  0  0
 16 18  2  0  0  0  0
 17 19  1  0  0  0  0
 18 15  1  0  0  0  0
 19 15  2  0  0  0  0
 20 21  1  0  0  0  0
 20 11  1  0  0  0  0
 21 23  1  0  0  0  0
 23 22  1  0  0  0  0
 24  1  1  0  0  0  0
 25 24  1  0  0  0  0
 26 25  1  0  0  0  0
 27 32  1  0  0  0  0
 28 27  1  0  0  0  0
 28 26  1  0  0  0  0
 28 29  1  0  0  0  0
 29 30  1  0  0  0  0
 30 31  1  6  0  0  0
 32 30  1  0  0  0  0
 34 35  1  0  0  0  0
 34 33  1  0  0  0  0
 35 36  1  0  0  0  0
 35 37  1  0  0  0  0
M  END
>  <MODEL>
1

>  <REMARK>
 VINA RESULT:      -8.4      0.000      0.000
  Name = 
  11 active torsions:
  status: ('A' for Active; 'I' for Inactive)
    1  A    between atoms: C_1  and  C_2
    2  A    between atoms: C_1  and  O_32
    3  A    between atoms: C_3  and  N_26
    4  A    between atoms: C_6  and  N_19
    5  A    between atoms: C_6  and  C_36
    6  A    between atoms: C_12  and  N_21
    7  A    between atoms: C_13  and  O_32
    8  A    between atoms: N_14  and  C_37
    9  A    between atoms: N_19  and  C_24
   10  A    between atoms: N_26  and  C_28
   11  A    between atoms: C_28  and  C_37
                            x       y       z     vdW  Elec       q    Type
                         _______ _______ _______ _____ _____    ______ ____

>  <TORSDO>
F 11

$$$$
=
 OpenBabel10222421143D

 37 41  0  0  1  0  0  0  0  0999 V2000
  185.8250  178.6980  141.0380 C   0  0  0  0  0  0  0  0  0  0  0  0
  191.7220  177.0280  143.3250 C   0  0  0  0  0  3  0  0  0  0  0  0
  185.9730  178.7240  139.6540 C   0  0  0  0  0  3  0  0  0  0  0  0
  188.2630  178.1190  139.8160 C   0  0  0  0  0  0  0  0  0  0  0  0
  191.7170  177.0930  141.9320 C   0  0  0  0  0  3  0  0  0  0  0  0
  189.3620  177.7340  141.9580 C   0  0  0  0  0  0  0  0  0  0  0  0
  190.5580  177.3080  144.0500 C   0  0  0  0  0  0  0  0  0  0  0  0
  186.9550  178.4290  141.8470 C   0  0  0  0  0  0  0  0  0  0  0  0
  190.5700  177.4960  139.8920 N   0  0  0  0  0  0  0  0  0  0  0  0
  189.3910  177.6560  143.3590 C   0  0  0  0  0  3  0  0  0  0  0  0
  189.4690  177.8240  139.1660 C   0  0  0  0  0  0  0  0  0  0  0  0
  187.1690  178.4480  139.0820 N   0  0  0  0  0  0  0  0  0  0  0  0
  190.5500  177.4420  141.2460 C   0  0  0  0  0  0  0  0  0  0  0  0
  188.1910  178.0830  141.2320 C   0  0  0  0  0  0  0  0  0  0  0  0
  191.3160  177.0320  147.5020 N   0  0  0  0  0  0  0  0  0  0  0  0
  189.5040  177.4090  146.2980 C   0  0  0  0  0  3  0  0  0  0  0  0
  190.5640  177.2460  145.4840 N   0  0  0  0  0  0  0  0  0  0  0  0
  189.9900  177.2700  147.5870 C   0  0  0  0  0  3  0  0  0  0  0  0
  191.6380  177.0230  146.2200 N   0  0  0  0  0  0  0  0  0  0  0  0
  189.5410  177.8690  137.7380 N   0  0  0  0  0  2  0  0  0  0  0  0
  190.0840  176.7730  136.9530 C   0  0  0  0  0  2  0  0  0  0  0  0
  190.4310  174.5690  137.7960 O   0  0  0  0  0  1  0  0  0  0  0  0
  189.4460  175.4650  137.3820 C   0  0  0  0  0  2  0  0  0  0  0  0
  184.5060  178.8970  141.5680 N   0  0  0  0  0  2  0  0  0  0  0  0
  183.3390  178.0910  141.2370 C   0  0  0  0  0  2  0  0  0  0  0  0
  182.3280  178.9280  140.4700 C   0  0  0  0  0  2  0  0  0  0  0  0
  180.2780  180.0270  140.7480 C   0  0  0  0  0  2  0  0  0  0  0  0
  181.0240  178.8300  141.1030 N   0  0  0  0  0  0  0  0  0  0  0  0
  181.2440  178.9170  142.5400 C   0  0  0  0  0  2  0  0  0  0  0  0
  180.2010  179.8490  143.1280 C   0  0  2  0  0  3  0  0  0  0  0  0
  179.2470  179.0630  144.0040 C   0  0  0  0  0  1  0  0  0  0  0  0
  179.4520  180.4160  141.9500 C   0  0  0  0  0  2  0  0  0  0  0  0
  186.8690  178.5320  143.2400 O   0  0  0  0  0  0  0  0  0  0  0  0
  185.8380  177.8900  143.9860 C   0  0  0  0  0  2  0  0  0  0  0  0
  185.3730  178.7740  145.1330 C   0  0  0  0  0  3  0  0  0  0  0  0
  185.8520  178.1850  146.4410 C   0  0  0  0  0  1  0  0  0  0  0  0
  183.8590  178.8590  145.1520 C   0  0  0  0  0  1  0  0  0  0  0  0
  1 24  1  0  0  0  0
  1  8  1  0  0  0  0
  2  7  1  0  0  0  0
  3  1  2  0  0  0  0
  4 14  1  0  0  0  0
  5  2  2  0  0  0  0
  6 10  1  0  0  0  0
  7 17  1  0  0  0  0
  8 33  1  0  0  0  0
  9 13  1  0  0  0  0
 10  7  2  0  0  0  0
 11  4  1  0  0  0  0
 11  9  2  0  0  0  0
 12  3  1  0  0  0  0
 12  4  2  0  0  0  0
 13  5  1  0  0  0  0
 13  6  2  0  0  0  0
 14  8  2  0  0  0  0
 14  6  1  0  0  0  0
 15 18  1  0  0  0  0
 16 18  2  0  0  0  0
 17 19  1  0  0  0  0
 17 16  1  0  0  0  0
 19 15  2  0  0  0  0
 20 11  1  0  0  0  0
 21 23  1  0  0  0  0
 21 20  1  0  0  0  0
 23 22  1  0  0  0  0
 25 24  1  0  0  0  0
 26 28  1  0  0  0  0
 26 25  1  0  0  0  0
 27 28  1  0  0  0  0
 27 32  1  0  0  0  0
 28 29  1  0  0  0  0
 29 30  1  0  0  0  0
 30 31  1  1  0  0  0
 32 30  1  0  0  0  0
 33 34  1  0  0  0  0
 34 35  1  0  0  0  0
 35 37  1  0  0  0  0
 35 36  1  0  0  0  0
M  END
>  <MODEL>
2

>  <REMARK>
 VINA RESULT:      -8.3      1.954      7.494
  Name = 
  11 active torsions:
  status: ('A' for Active; 'I' for Inactive)
    1  A    between atoms: C_1  and  C_2
    2  A    between atoms: C_1  and  O_32
    3  A    between atoms: C_3  and  N_26
    4  A    between atoms: C_6  and  N_19
    5  A    between atoms: C_6  and  C_36
    6  A    between atoms: C_12  and  N_21
    7  A    between atoms: C_13  and  O_32
    8  A    between atoms: N_14  and  C_37
    9  A    between atoms: N_19  and  C_24
   10  A    between atoms: N_26  and  C_28
   11  A    between atoms: C_28  and  C_37
                            x       y       z     vdW  Elec       q    Type
                         _______ _______ _______ _____ _____    ______ ____

>  <TORSDO>
F 11

$$$$
=
 OpenBabel10222421143D

 37 41  0  0  1  0  0  0  0  0999 V2000
  190.5250  176.7350  141.7390 C   0  0  0  0  0  0  0  0  0  0  0  0
  185.4560  178.3820  145.5320 C   0  0  0  0  0  3  0  0  0  0  0  0
  191.5950  176.5880  142.6160 C   0  0  0  0  0  3  0  0  0  0  0  0
  190.2330  177.1410  144.4820 C   0  0  0  0  0  0  0  0  0  0  0  0
  186.6150  178.1970  146.2850 C   0  0  0  0  0  3  0  0  0  0  0  0
  187.8670  177.6770  144.2540 C   0  0  0  0  0  0  0  0  0  0  0  0
  185.4810  178.2160  144.1420 C   0  0  0  0  0  0  0  0  0  0  0  0
  189.2730  177.1590  142.2440 C   0  0  0  0  0  0  0  0  0  0  0  0
  188.9280  177.6700  146.4120 N   0  0  0  0  0  0  0  0  0  0  0  0
  186.6850  177.8640  143.5190 C   0  0  0  0  0  3  0  0  0  0  0  0
  190.1230  177.3250  145.8660 C   0  0  0  0  0  0  0  0  0  0  0  0
  191.4330  176.7980  143.9450 N   0  0  0  0  0  0  0  0  0  0  0  0
  187.8150  177.8460  145.6590 C   0  0  0  0  0  0  0  0  0  0  0  0
  189.1010  177.3190  143.6470 C   0  0  0  0  0  0  0  0  0  0  0  0
  182.2270  178.8640  142.8970 N   0  0  0  0  0  0  0  0  0  0  0  0
  184.1730  178.2840  142.0310 C   0  0  0  0  0  3  0  0  0  0  0  0
  184.2900  178.4120  143.3660 N   0  0  0  0  0  0  0  0  0  0  0  0
  182.8520  178.5740  141.7360 C   0  0  0  0  0  3  0  0  0  0  0  0
  183.1180  178.7590  143.8670 N   0  0  0  0  0  0  0  0  0  0  0  0
  191.2690  177.1520  146.7050 N   0  0  0  0  0  2  0  0  0  0  0  0
  192.0800  175.9460  146.6710 C   0  0  0  0  0  2  0  0  0  0  0  0
  193.2790  176.3700  148.6890 O   0  0  0  0  0  1  0  0  0  0  0  0
  192.3840  175.4880  148.0850 C   0  0  0  0  0  2  0  0  0  0  0  0
  190.7450  176.3940  140.3620 N   0  0  0  0  0  2  0  0  0  0  0  0
  191.8030  176.9390  139.5220 C   0  0  0  0  0  2  0  0  0  0  0  0
  191.6140  176.4820  138.0850 C   0  0  0  0  0  2  0  0  0  0  0  0
  191.9760  174.3150  137.2690 C   0  0  0  0  0  2  0  0  0  0  0  0
  191.0720  175.1340  138.0620 N   0  0  0  0  0  0  0  0  0  0  0  0
  189.8290  175.1910  137.3040 C   0  0  0  0  0  2  0  0  0  0  0  0
  189.7910  174.0060  136.3580 C   0  0  2  0  0  3  0  0  0  0  0  0
  188.6980  173.0460  136.7830 C   0  0  0  0  0  1  0  0  0  0  0  0
  191.1320  173.3340  136.4940 C   0  0  0  0  0  2  0  0  0  0  0  0
  188.2190  177.4490  141.3700 O   0  0  0  0  0  0  0  0  0  0  0  0
  188.2840  178.5180  140.4310 C   0  0  0  0  0  2  0  0  0  0  0  0
  188.0470  178.0100  139.0170 C   0  0  0  0  0  3  0  0  0  0  0  0
  188.9150  178.7900  138.0550 C   0  0  0  0  0  1  0  0  0  0  0  0
  186.5920  178.1900  138.6300 C   0  0  0  0  0  1  0  0  0  0  0  0
  1  8  2  0  0  0  0
  1  3  1  0  0  0  0
  2  5  1  0  0  0  0
  3 12  2  0  0  0  0
  4 11  1  0  0  0  0
  6 13  1  0  0  0  0
  7  2  2  0  0  0  0
  8 14  1  0  0  0  0
 10  7  1  0  0  0  0
 10  6  2  0  0  0  0
 11  9  2  0  0  0  0
 11 20  1  0  0  0  0
 12  4  1  0  0  0  0
 13  5  2  0  0  0  0
 13  9  1  0  0  0  0
 14  6  1  0  0  0  0
 14  4  2  0  0  0  0
 15 19  2  0  0  0  0
 16 17  1  0  0  0  0
 17 19  1  0  0  0  0
 17  7  1  0  0  0  0
 18 16  2  0  0  0  0
 18 15  1  0  0  0  0
 21 20  1  0  0  0  0
 21 23  1  0  0  0  0
 23 22  1  0  0  0  0
 24  1  1  0  0  0  0
 25 24  1  0  0  0  0
 26 25  1  0  0  0  0
 27 28  1  0  0  0  0
 28 26  1  0  0  0  0
 29 28  1  0  0  0  0
 30 32  1  0  0  0  0
 30 31  1  1  0  0  0
 30 29  1  0  0  0  0
 32 27  1  0  0  0  0
 33  8  1  0  0  0  0
 34 33  1  0  0  0  0
 35 34  1  0  0  0  0
 36 35  1  0  0  0  0
 37 35  1  0  0  0  0
M  END
>  <MODEL>
3

>  <REMARK>
 VINA RESULT:      -8.3      2.288      6.446
  Name = 
  11 active torsions:
  status: ('A' for Active; 'I' for Inactive)
    1  A    between atoms: C_1  and  C_2
    2  A    between atoms: C_1  and  O_32
    3  A    between atoms: C_3  and  N_26
    4  A    between atoms: C_6  and  N_19
    5  A    between atoms: C_6  and  C_36
    6  A    between atoms: C_12  and  N_21
    7  A    between atoms: C_13  and  O_32
    8  A    between atoms: N_14  and  C_37
    9  A    between atoms: N_19  and  C_24
   10  A    between atoms: N_26  and  C_28
   11  A    between atoms: C_28  and  C_37
                            x       y       z     vdW  Elec       q    Type
                         _______ _______ _______ _____ _____    ______ ____

>  <TORSDO>
F 11

$$$$
=
 OpenBabel10222421143D

 37 41  0  0  1  0  0  0  0  0999 V2000
  186.1090  178.4710  140.8050 C   0  0  0  0  0  0  0  0  0  0  0  0
  187.3180  177.9610  147.2140 C   0  0  0  0  0  3  0  0  0  0  0  0
  184.7840  178.8890  140.7230 C   0  0  0  0  0  3  0  0  0  0  0  0
  184.5680  178.9000  143.0880 C   0  0  0  0  0  0  0  0  0  0  0  0
  186.0080  178.3790  146.9750 C   0  0  0  0  0  3  0  0  0  0  0  0
  186.4040  178.2860  144.5680 C   0  0  0  0  0  0  0  0  0  0  0  0
  188.1840  177.7040  146.1450 C   0  0  0  0  0  0  0  0  0  0  0  0
  186.6690  178.2000  142.0760 C   0  0  0  0  0  0  0  0  0  0  0  0
  184.2720  178.9530  145.4590 N   0  0  0  0  0  0  0  0  0  0  0  0
  187.7190  177.8710  144.8340 C   0  0  0  0  0  3  0  0  0  0  0  0
  183.7650  179.1360  144.2130 C   0  0  0  0  0  0  0  0  0  0  0  0
  184.0500  179.0840  141.8450 N   0  0  0  0  0  0  0  0  0  0  0  0
  185.5480  178.5440  145.6660 C   0  0  0  0  0  0  0  0  0  0  0  0
  185.9070  178.4640  143.2480 C   0  0  0  0  0  0  0  0  0  0  0  0
  191.6540  176.9860  146.1000 N   0  0  0  0  0  0  0  0  0  0  0  0
  189.9610  176.5570  147.4490 C   0  0  0  0  0  3  0  0  0  0  0  0
  189.5290  177.2690  146.3900 N   0  0  0  0  0  0  0  0  0  0  0  0
  191.3200  176.3790  147.2580 C   0  0  0  0  0  3  0  0  0  0  0  0
  190.5540  177.5160  145.5950 N   0  0  0  0  0  0  0  0  0  0  0  0
  182.4120  179.5680  144.0470 N   0  0  0  0  0  2  0  0  0  0  0  0
  181.3020  178.6330  143.9640 C   0  0  0  0  0  2  0  0  0  0  0  0
  180.3230  180.4880  142.8300 O   0  0  0  0  0  1  0  0  0  0  0  0
  180.3130  179.0960  142.9120 C   0  0  0  0  0  2  0  0  0  0  0  0
  186.8550  178.3890  139.5810 N   0  0  0  0  0  2  0  0  0  0  0  0
  186.2730  178.3400  138.2470 C   0  0  0  0  0  2  0  0  0  0  0  0
  186.8120  177.1380  137.4880 C   0  0  0  0  0  2  0  0  0  0  0  0
  188.9650  177.7400  136.7860 C   0  0  0  0  0  2  0  0  0  0  0  0
  188.2260  176.9670  137.7730 N   0  0  0  0  0  0  0  0  0  0  0  0
  188.5470  175.5730  137.4980 C   0  0  0  0  0  2  0  0  0  0  0  0
  189.8550  175.5250  136.7320 C   0  0  2  0  0  3  0  0  0  0  0  0
  190.9320  174.8990  137.5940 C   0  0  0  0  0  1  0  0  0  0  0  0
  190.2110  176.9600  136.4440 C   0  0  0  0  0  2  0  0  0  0  0  0
  187.9510  177.6470  142.1810 O   0  0  0  0  0  0  0  0  0  0  0  0
  189.0960  178.2710  141.6080 C   0  0  0  0  0  2  0  0  0  0  0  0
  190.3360  177.4160  141.8160 C   0  0  0  0  0  3  0  0  0  0  0  0
  190.9780  177.1350  140.4750 C   0  0  0  0  0  1  0  0  0  0  0  0
  189.9660  176.1010  142.4730 C   0  0  0  0  0  1  0  0  0  0  0  0
  1  8  1  0  0  0  0
  3  1  2  0  0  0  0
  3 12  1  0  0  0  0
  4 14  1  0  0  0  0
  4 11  1  0  0  0  0
  5  2  1  0  0  0  0
  6 10  2  0  0  0  0
  6 13  1  0  0  0  0
  7 17  1  0  0  0  0
  7  2  2  0  0  0  0
  8 33  1  0  0  0  0
  8 14  2  0  0  0  0
  9 13  1  0  0  0  0
 10  7  1  0  0  0  0
 11  9  2  0  0  0  0
 12  4  2  0  0  0  0
 13  5  2  0  0  0  0
 14  6  1  0  0  0  0
 15 18  1  0  0  0  0
 17 16  1  0  0  0  0
 18 16  2  0  0  0  0
 19 15  2  0  0  0  0
 19 17  1  0  0  0  0
 20 11  1  0  0  0  0
 21 20  1  0  0  0  0
 22 23  1  0  0  0  0
 23 21  1  0  0  0  0
 24  1  1  0  0  0  0
 25 24  1  0  0  0  0
 26 28  1  0  0  0  0
 26 25  1  0  0  0  0
 27 28  1  0  0  0  0
 29 28  1  0  0  0  0
 30 29  1  0  0  0  0
 30 31  1  1  0  0  0
 32 30  1  0  0  0  0
 32 27  1  0  0  0  0
 34 35  1  0  0  0  0
 34 33  1  0  0  0  0
 35 37  1  0  0  0  0
 36 35  1  0  0  0  0
M  END
>  <MODEL>
4

>  <REMARK>
 VINA RESULT:      -8.3      1.459      1.889
  Name = 
  11 active torsions:
  status: ('A' for Active; 'I' for Inactive)
    1  A    between atoms: C_1  and  C_2
    2  A    between atoms: C_1  and  O_32
    3  A    between atoms: C_3  and  N_26
    4  A    between atoms: C_6  and  N_19
    5  A    between atoms: C_6  and  C_36
    6  A    between atoms: C_12  and  N_21
    7  A    between atoms: C_13  and  O_32
    8  A    between atoms: N_14  and  C_37
    9  A    between atoms: N_19  and  C_24
   10  A    between atoms: N_26  and  C_28
   11  A    between atoms: C_28  and  C_37
                            x       y       z     vdW  Elec       q    Type
                         _______ _______ _______ _____ _____    ______ ____

>  <TORSDO>
F 11

$$$$
=
 OpenBabel10222421143D

 37 41  0  0  1  0  0  0  0  0999 V2000
  186.9350  178.4430  140.2950 C   0  0  0  0  0  0  0  0  0  0  0  0
  185.1410  178.3940  146.5860 C   0  0  0  0  0  3  0  0  0  0  0  0
  185.7510  178.6260  139.5870 C   0  0  0  0  0  3  0  0  0  0  0  0
  184.4800  178.6900  141.5910 C   0  0  0  0  0  0  0  0  0  0  0  0
  184.0420  178.5730  145.7450 C   0  0  0  0  0  3  0  0  0  0  0  0
  185.5020  178.4560  143.7920 C   0  0  0  0  0  0  0  0  0  0  0  0
  186.4260  178.2480  146.0490 C   0  0  0  0  0  0  0  0  0  0  0  0
  186.8840  178.3210  141.7040 C   0  0  0  0  0  0  0  0  0  0  0  0
  183.1300  178.7840  143.5620 N   0  0  0  0  0  0  0  0  0  0  0  0
  186.5920  178.2830  144.6590 C   0  0  0  0  0  3  0  0  0  0  0  0
  183.2290  178.8290  142.2080 C   0  0  0  0  0  0  0  0  0  0  0  0
  184.5670  178.7350  140.2370 N   0  0  0  0  0  0  0  0  0  0  0  0
  184.2130  178.6060  144.3580 C   0  0  0  0  0  0  0  0  0  0  0  0
  185.6430  178.4960  142.3780 C   0  0  0  0  0  0  0  0  0  0  0  0
  188.7880  178.1490  148.6880 N   0  0  0  0  0  0  0  0  0  0  0  0
  188.7030  177.4240  146.6050 C   0  0  0  0  0  3  0  0  0  0  0  0
  187.5550  178.0580  146.9130 N   0  0  0  0  0  0  0  0  0  0  0  0
  189.4880  177.4850  147.7430 C   0  0  0  0  0  3  0  0  0  0  0  0
  187.6240  178.4840  148.1610 N   0  0  0  0  0  0  0  0  0  0  0  0
  182.0560  179.0170  141.4110 N   0  0  0  0  0  2  0  0  0  0  0  0
  181.0110  178.0110  141.3180 C   0  0  0  0  0  2  0  0  0  0  0  0
  179.6800  177.8740  143.2920 O   0  0  0  0  0  1  0  0  0  0  0  0
  179.7670  178.4890  142.0440 C   0  0  0  0  0  2  0  0  0  0  0  0
  188.1610  178.4420  139.5480 N   0  0  0  0  0  2  0  0  0  0  0  0
  188.2590  178.3340  138.0990 C   0  0  0  0  0  2  0  0  0  0  0  0
  188.6810  176.9260  137.7100 C   0  0  0  0  0  2  0  0  0  0  0  0
  187.3020  177.6140  135.9440 C   0  0  0  0  0  2  0  0  0  0  0  0
  187.8530  176.4470  136.6160 N   0  0  0  0  0  0  0  0  0  0  0  0
  186.7140  175.7650  137.2160 C   0  0  0  0  0  2  0  0  0  0  0  0
  185.4590  176.1930  136.4790 C   0  0  2  0  0  3  0  0  0  0  0  0
  184.8930  175.0180  135.7070 C   0  0  0  0  0  1  0  0  0  0  0  0
  185.8980  177.2640  135.5160 C   0  0  0  0  0  2  0  0  0  0  0  0
  188.0370  177.9990  142.4290 O   0  0  0  0  0  0  0  0  0  0  0  0
  188.7500  176.7830  142.2210 C   0  0  0  0  0  2  0  0  0  0  0  0
  190.2240  176.9590  142.5490 C   0  0  0  0  0  3  0  0  0  0  0  0
  190.6770  175.8170  143.4330 C   0  0  0  0  0  1  0  0  0  0  0  0
  190.4490  178.2690  143.2780 C   0  0  0  0  0  1  0  0  0  0  0  0
  1  8  1  0  0  0  0
  3 12  1  0  0  0  0
  3  1  2  0  0  0  0
  4 11  1  0  0  0  0
  4 14  1  0  0  0  0
  5  2  2  0  0  0  0
  6 13  2  0  0  0  0
  6 10  1  0  0  0  0
  7  2  1  0  0  0  0
  7 17  1  0  0  0  0
  8 14  2  0  0  0  0
  8 33  1  0  0  0  0
  9 13  1  0  0  0  0
 10  7  2  0  0  0  0
 11  9  2  0  0  0  0
 12  4  2  0  0  0  0
 13  5  1  0  0  0  0
 14  6  1  0  0  0  0
 16 17  1  0  0  0  0
 16 18  2  0  0  0  0
 17 19  1  0  0  0  0
 18 15  1  0  0  0  0
 19 15  2  0  0  0  0
 20 11  1  0  0  0  0
 21 20  1  0  0  0  0
 21 23  1  0  0  0  0
 23 22  1  0  0  0  0
 24  1  1  0  0  0  0
 25 24  1  0  0  0  0
 26 25  1  0  0  0  0
 27 28  1  0  0  0  0
 28 29  1  0  0  0  0
 28 26  1  0  0  0  0
 30 31  1  6  0  0  0
 30 29  1  0  0  0  0
 32 27  1  0  0  0  0
 32 30  1  0  0  0  0
 34 33  1  0  0  0  0
 34 35  1  0  0  0  0
 35 37  1  0  0  0  0
 35 36  1  0  0  0  0
M  END
>  <MODEL>
5

>  <REMARK>
 VINA RESULT:      -8.0      1.442      2.097
  Name = 
  11 active torsions:
  status: ('A' for Active; 'I' for Inactive)
    1  A    between atoms: C_1  and  C_2
    2  A    between atoms: C_1  and  O_32
    3  A    between atoms: C_3  and  N_26
    4  A    between atoms: C_6  and  N_19
    5  A    between atoms: C_6  and  C_36
    6  A    between atoms: C_12  and  N_21
    7  A    between atoms: C_13  and  O_32
    8  A    between atoms: N_14  and  C_37
    9  A    between atoms: N_19  and  C_24
   10  A    between atoms: N_26  and  C_28
   11  A    between atoms: C_28  and  C_37
                            x       y       z     vdW  Elec       q    Type
                         _______ _______ _______ _____ _____    ______ ____

>  <TORSDO>
F 11

$$$$
=
 OpenBabel10222421143D

 37 41  0  0  1  0  0  0  0  0999 V2000
  185.8830  178.7700  140.3050 C   0  0  0  0  0  0  0  0  0  0  0  0
  190.5180  177.0500  144.5900 C   0  0  0  0  0  3  0  0  0  0  0  0
  186.4690  178.5950  139.0560 C   0  0  0  0  0  3  0  0  0  0  0  0
  188.5070  177.8700  140.0340 C   0  0  0  0  0  0  0  0  0  0  0  0
  190.9680  176.9220  143.2750 C   0  0  0  0  0  3  0  0  0  0  0  0
  188.8110  177.7130  142.4470 C   0  0  0  0  0  0  0  0  0  0  0  0
  189.2190  177.5030  144.8520 C   0  0  0  0  0  0  0  0  0  0  0  0
  186.6570  178.5420  141.4680 C   0  0  0  0  0  0  0  0  0  0  0  0
  190.5860  177.1130  140.9390 N   0  0  0  0  0  0  0  0  0  0  0  0
  188.3800  177.8280  143.7780 C   0  0  0  0  0  3  0  0  0  0  0  0
  189.8190  177.4100  139.8580 C   0  0  0  0  0  0  0  0  0  0  0  0
  187.7480  178.1640  138.9460 N   0  0  0  0  0  0  0  0  0  0  0  0
  190.1270  177.2480  142.2070 C   0  0  0  0  0  0  0  0  0  0  0  0
  187.9800  178.0350  141.3400 C   0  0  0  0  0  0  0  0  0  0  0  0
  188.8150  177.7740  148.3620 N   0  0  0  0  0  0  0  0  0  0  0  0
  187.4840  177.8150  146.6020 C   0  0  0  0  0  3  0  0  0  0  0  0
  188.7580  177.6400  146.2030 N   0  0  0  0  0  0  0  0  0  0  0  0
  187.5260  177.9000  147.9830 C   0  0  0  0  0  3  0  0  0  0  0  0
  189.5400  177.6180  147.2680 N   0  0  0  0  0  0  0  0  0  0  0  0
  190.3500  177.2520  138.5390 N   0  0  0  0  0  2  0  0  0  0  0  0
  190.9260  175.9990  138.0780 C   0  0  0  0  0  2  0  0  0  0  0  0
  190.2470  173.7790  137.5350 O   0  0  0  0  0  1  0  0  0  0  0  0
  189.8400  175.1120  137.5010 C   0  0  0  0  0  2  0  0  0  0  0  0
  184.4920  179.1260  140.3420 N   0  0  0  0  0  2  0  0  0  0  0  0
  183.7220  179.6140  139.2060 C   0  0  0  0  0  2  0  0  0  0  0  0
  182.5670  178.6690  138.9170 C   0  0  0  0  0  2  0  0  0  0  0  0
  181.3080  176.9850  139.9520 C   0  0  0  0  0  2  0  0  0  0  0  0
  181.9130  178.2930  140.1580 N   0  0  0  0  0  0  0  0  0  0  0  0
  180.8000  179.2140  140.3450 C   0  0  0  0  0  2  0  0  0  0  0  0
  179.5870  178.4150  140.7850 C   0  0  2  0  0  3  0  0  0  0  0  0
  179.2350  178.7660  142.2170 C   0  0  0  0  0  1  0  0  0  0  0  0
  180.0020  176.9690  140.7080 C   0  0  0  0  0  2  0  0  0  0  0  0
  186.1390  178.8420  142.7330 O   0  0  0  0  0  0  0  0  0  0  0  0
  184.9910  178.1820  143.2600 C   0  0  0  0  0  2  0  0  0  0  0  0
  184.1290  179.1520  144.0520 C   0  0  0  0  0  3  0  0  0  0  0  0
  184.2320  178.8220  145.5250 C   0  0  0  0  0  1  0  0  0  0  0  0
  182.6790  179.0420  143.6210 C   0  0  0  0  0  1  0  0  0  0  0  0
  1 24  1  0  0  0  0
  1  8  1  0  0  0  0
  2  7  1  0  0  0  0
  3  1  2  0  0  0  0
  4 14  1  0  0  0  0
  5  2  2  0  0  0  0
  6 10  1  0  0  0  0
  7 17  1  0  0  0  0
  8 33  1  0  0  0  0
  9 13  1  0  0  0  0
 10  7  2  0  0  0  0
 11  4  1  0  0  0  0
 11  9  2  0  0  0  0
 12  3  1  0  0  0  0
 12  4  2  0  0  0  0
 13  6  2  0  0  0  0
 13  5  1  0  0  0  0
 14  8  2  0  0  0  0
 14  6  1  0  0  0  0
 16 18  2  0  0  0  0
 17 16  1  0  0  0  0
 17 19  1  0  0  0  0
 18 15  1  0  0  0  0
 19 15  2  0  0  0  0
 20 11  1  0  0  0  0
 21 20  1  0  0  0  0
 23 22  1  0  0  0  0
 23 21  1  0  0  0  0
 25 24  1  0  0  0  0
 26 25  1  0  0  0  0
 26 28  1  0  0  0  0
 27 28  1  0  0  0  0
 27 32  1  0  0  0  0
 28 29  1  0  0  0  0
 29 30  1  0  0  0  0
 30 31  1  1  0  0  0
 32 30  1  0  0  0  0
 33 34  1  0  0  0  0
 34 35  1  0  0  0  0
 35 36  1  0  0  0  0
 37 35  1  0  0  0  0
M  END
>  <MODEL>
6

>  <REMARK>
 VINA RESULT:      -8.0      2.004      7.140
  Name = 
  11 active torsions:
  status: ('A' for Active; 'I' for Inactive)
    1  A    between atoms: C_1  and  C_2
    2  A    between atoms: C_1  and  O_32
    3  A    between atoms: C_3  and  N_26
    4  A    between atoms: C_6  and  N_19
    5  A    between atoms: C_6  and  C_36
    6  A    between atoms: C_12  and  N_21
    7  A    between atoms: C_13  and  O_32
    8  A    between atoms: N_14  and  C_37
    9  A    between atoms: N_19  and  C_24
   10  A    between atoms: N_26  and  C_28
   11  A    between atoms: C_28  and  C_37
                            x       y       z     vdW  Elec       q    Type
                         _______ _______ _______ _____ _____    ______ ____

>  <TORSDO>
F 11

$$$$
=
 OpenBabel10222421143D

 37 41  0  0  1  0  0  0  0  0999 V2000
  188.1080  178.3110  140.2150 C   0  0  0  0  0  0  0  0  0  0  0  0
  185.2520  178.3520  146.1010 C   0  0  0  0  0  3  0  0  0  0  0  0
  187.0680  178.5020  139.3120 C   0  0  0  0  0  3  0  0  0  0  0  0
  185.4690  178.6040  141.0650 C   0  0  0  0  0  0  0  0  0  0  0  0
  184.3180  178.5370  145.0810 C   0  0  0  0  0  3  0  0  0  0  0  0
  186.0920  178.3800  143.4110 C   0  0  0  0  0  0  0  0  0  0  0  0
  186.6080  178.1840  145.7960 C   0  0  0  0  0  0  0  0  0  0  0  0
  187.8130  178.2050  141.5950 C   0  0  0  0  0  0  0  0  0  0  0  0
  183.8010  178.7360  142.7710 N   0  0  0  0  0  0  0  0  0  0  0  0
  187.0130  178.2010  144.4550 C   0  0  0  0  0  3  0  0  0  0  0  0
  184.1330  178.7660  141.4550 C   0  0  0  0  0  0  0  0  0  0  0  0
  185.7910  178.6340  139.7460 N   0  0  0  0  0  0  0  0  0  0  0  0
  184.7260  178.5530  143.7440 C   0  0  0  0  0  0  0  0  0  0  0  0
  186.4770  178.4030  142.0430 C   0  0  0  0  0  0  0  0  0  0  0  0
  188.4280  177.9690  148.8290 N   0  0  0  0  0  0  0  0  0  0  0  0
  188.8130  177.4940  146.7090 C   0  0  0  0  0  3  0  0  0  0  0  0
  187.5680  177.9880  146.8440 N   0  0  0  0  0  0  0  0  0  0  0  0
  189.3590  177.4850  147.9810 C   0  0  0  0  0  3  0  0  0  0  0  0
  187.3550  178.2660  148.1170 N   0  0  0  0  0  0  0  0  0  0  0  0
  183.1180  178.9610  140.4650 N   0  0  0  0  0  2  0  0  0  0  0  0
  182.0050  178.0410  140.3030 C   0  0  0  0  0  2  0  0  0  0  0  0
  183.1300  176.8160  138.5940 O   0  0  0  0  0  1  0  0  0  0  0  0
  182.5140  176.6900  139.8390 C   0  0  0  0  0  2  0  0  0  0  0  0
  189.4450  178.2860  139.6920 N   0  0  0  0  0  2  0  0  0  0  0  0
  189.9020  177.4370  138.6000 C   0  0  0  0  0  2  0  0  0  0  0  0
  190.8120  176.3450  139.1370 C   0  0  0  0  0  2  0  0  0  0  0  0
  192.0240  175.8570  137.1920 C   0  0  0  0  0  2  0  0  0  0  0  0
  191.0280  175.3350  138.1150 N   0  0  0  0  0  0  0  0  0  0  0  0
  189.7940  175.2400  137.3470 C   0  0  0  0  0  2  0  0  0  0  0  0
  190.1500  175.1840  135.8740 C   0  0  2  0  0  3  0  0  0  0  0  0
  189.8070  173.8170  135.3150 C   0  0  0  0  0  1  0  0  0  0  0  0
  191.6410  175.3950  135.8070 C   0  0  0  0  0  2  0  0  0  0  0  0
  188.8180  177.8760  142.5110 O   0  0  0  0  0  0  0  0  0  0  0  0
  189.4630  176.6050  142.5060 C   0  0  0  0  0  2  0  0  0  0  0  0
  190.9390  176.7490  142.8450 C   0  0  0  0  0  3  0  0  0  0  0  0
  191.3150  175.7120  143.8800 C   0  0  0  0  0  1  0  0  0  0  0  0
  191.2190  178.1310  143.4030 C   0  0  0  0  0  1  0  0  0  0  0  0
  1  8  1  0  0  0  0
  3 12  1  0  0  0  0
  3  1  2  0  0  0  0
  4 11  1  0  0  0  0
  4 14  1  0  0  0  0
  5  2  2  0  0  0  0
  6 13  2  0  0  0  0
  6 10  1  0  0  0  0
  7  2  1  0  0  0  0
  7 17  1  0  0  0  0
  8 14  2  0  0  0  0
  8 33  1  0  0  0  0
  9 13  1  0  0  0  0
 10  7  2  0  0  0  0
 11  9  2  0  0  0  0
 12  4  2  0  0  0  0
 13  5  1  0  0  0  0
 14  6  1  0  0  0  0
 16 17  1  0  0  0  0
 16 18  2  0  0  0  0
 17 19  1  0  0  0  0
 18 15  1  0  0  0  0
 19 15  2  0  0  0  0
 20 11  1  0  0  0  0
 21 20  1  0  0  0  0
 22 23  1  0  0  0  0
 23 21  1  0  0  0  0
 24  1  1  0  0  0  0
 25 26  1  0  0  0  0
 25 24  1  0  0  0  0
 27 28  1  0  0  0  0
 28 26  1  0  0  0  0
 29 28  1  0  0  0  0
 30 31  1  1  0  0  0
 30 29  1  0  0  0  0
 32 30  1  0  0  0  0
 32 27  1  0  0  0  0
 34 33  1  0  0  0  0
 34 35  1  0  0  0  0
 35 37  1  0  0  0  0
 35 36  1  0  0  0  0
M  END
>  <MODEL>
7

>  <REMARK>
 VINA RESULT:      -8.0      1.702      2.137
  Name = 
  11 active torsions:
  status: ('A' for Active; 'I' for Inactive)
    1  A    between atoms: C_1  and  C_2
    2  A    between atoms: C_1  and  O_32
    3  A    between atoms: C_3  and  N_26
    4  A    between atoms: C_6  and  N_19
    5  A    between atoms: C_6  and  C_36
    6  A    between atoms: C_12  and  N_21
    7  A    between atoms: C_13  and  O_32
    8  A    between atoms: N_14  and  C_37
    9  A    between atoms: N_19  and  C_24
   10  A    between atoms: N_26  and  C_28
   11  A    between atoms: C_28  and  C_37
                            x       y       z     vdW  Elec       q    Type
                         _______ _______ _______ _____ _____    ______ ____

>  <TORSDO>
F 11

$$$$
=
 OpenBabel10222421143D

 37 41  0  0  1  0  0  0  0  0999 V2000
  183.8690  179.0420  143.9820 C   0  0  0  0  0  0  0  0  0  0  0  0
  189.4520  177.5510  140.9160 C   0  0  0  0  0  3  0  0  0  0  0  0
  184.0950  178.7150  145.3150 C   0  0  0  0  0  3  0  0  0  0  0  0
  186.3020  177.9820  144.8350 C   0  0  0  0  0  0  0  0  0  0  0  0
  189.5320  177.2730  142.2810 C   0  0  0  0  0  3  0  0  0  0  0  0
  187.2350  178.0440  142.5840 C   0  0  0  0  0  0  0  0  0  0  0  0
  188.2760  178.0770  140.3690 C   0  0  0  0  0  0  0  0  0  0  0  0
  184.8780  178.7750  143.0260 C   0  0  0  0  0  0  0  0  0  0  0  0
  188.5390  177.2410  144.4390 N   0  0  0  0  0  0  0  0  0  0  0  0
  187.1820  178.3200  141.2090 C   0  0  0  0  0  3  0  0  0  0  0  0
  187.5140  177.4570  145.3030 C   0  0  0  0  0  0  0  0  0  0  0  0
  185.2820  178.1930  145.7070 N   0  0  0  0  0  0  0  0  0  0  0  0
  188.4370  177.5160  143.1150 C   0  0  0  0  0  0  0  0  0  0  0  0
  186.1400  178.2810  143.4580 C   0  0  0  0  0  0  0  0  0  0  0  0
  188.6210  179.2640  137.0470 N   0  0  0  0  0  0  0  0  0  0  0  0
  187.3670  177.7690  138.0770 C   0  0  0  0  0  3  0  0  0  0  0  0
  188.1920  178.3570  138.9640 N   0  0  0  0  0  0  0  0  0  0  0  0
  187.6450  178.3530  136.8540 C   0  0  0  0  0  3  0  0  0  0  0  0
  188.9340  179.2470  138.3310 N   0  0  0  0  0  0  0  0  0  0  0  0
  187.6710  177.1480  146.6910 N   0  0  0  0  0  2  0  0  0  0  0  0
  188.9770  177.0590  147.3230 C   0  0  0  0  0  2  0  0  0  0  0  0
  187.8470  178.6800  148.6590 O   0  0  0  0  0  1  0  0  0  0  0  0
  189.0920  178.1000  148.4200 C   0  0  0  0  0  2  0  0  0  0  0  0
  182.6280  179.6880  143.6590 N   0  0  0  0  0  2  0  0  0  0  0  0
  181.3440  179.0150  143.5180 C   0  0  0  0  0  2  0  0  0  0  0  0
  180.3080  179.9810  142.9680 C   0  0  0  0  0  2  0  0  0  0  0  0
  179.7470  177.8940  142.0620 C   0  0  0  0  0  2  0  0  0  0  0  0
  179.5180  179.3260  141.9390 N   0  0  0  0  0  0  0  0  0  0  0  0
  180.0950  179.7060  140.6570 C   0  0  0  0  0  2  0  0  0  0  0  0
  180.1820  178.4680  139.7850 C   0  0  2  0  0  3  0  0  0  0  0  0
  179.2170  178.5920  138.6220 C   0  0  0  0  0  1  0  0  0  0  0  0
  179.7630  177.3200  140.6660 C   0  0  0  0  0  2  0  0  0  0  0  0
  184.6280  178.9640  141.6620 O   0  0  0  0  0  0  0  0  0  0  0  0
  183.7750  178.0970  140.9190 C   0  0  0  0  0  2  0  0  0  0  0  0
  184.0490  178.2190  139.4280 C   0  0  0  0  0  3  0  0  0  0  0  0
  183.5650  179.5680  138.9420 C   0  0  0  0  0  1  0  0  0  0  0  0
  183.3200  177.1280  138.6680 C   0  0  0  0  0  1  0  0  0  0  0  0
  1  3  1  0  0  0  0
  2  5  1  0  0  0  0
  3 12  2  0  0  0  0
  4 11  1  0  0  0  0
  4 12  1  0  0  0  0
  5 13  2  0  0  0  0
  6 13  1  0  0  0  0
  6 14  1  0  0  0  0
  7  2  2  0  0  0  0
  7 10  1  0  0  0  0
  8 14  1  0  0  0  0
  8  1  2  0  0  0  0
  9 11  2  0  0  0  0
 10  6  2  0  0  0  0
 11 20  1  0  0  0  0
 13  9  1  0  0  0  0
 14  4  2  0  0  0  0
 15 19  2  0  0  0  0
 16 17  1  0  0  0  0
 17  7  1  0  0  0  0
 18 15  1  0  0  0  0
 18 16  2  0  0  0  0
 19 17  1  0  0  0  0
 20 21  1  0  0  0  0
 21 23  1  0  0  0  0
 23 22  1  0  0  0  0
 24  1  1  0  0  0  0
 25 24  1  0  0  0  0
 26 25  1  0  0  0  0
 28 27  1  0  0  0  0
 28 26  1  0  0  0  0
 29 28  1  0  0  0  0
 30 31  1  6  0  0  0
 30 29  1  0  0  0  0
 30 32  1  0  0  0  0
 32 27  1  0  0  0  0
 33  8  1  0  0  0  0
 34 33  1  0  0  0  0
 35 34  1  0  0  0  0
 36 35  1  0  0  0  0
 37 35  1  0  0  0  0
M  END
>  <MODEL>
8

>  <REMARK>
 VINA RESULT:      -8.0      2.217      8.212
  Name = 
  11 active torsions:
  status: ('A' for Active; 'I' for Inactive)
    1  A    between atoms: C_1  and  C_2
    2  A    between atoms: C_1  and  O_32
    3  A    between atoms: C_3  and  N_26
    4  A    between atoms: C_6  and  N_19
    5  A    between atoms: C_6  and  C_36
    6  A    between atoms: C_12  and  N_21
    7  A    between atoms: C_13  and  O_32
    8  A    between atoms: N_14  and  C_37
    9  A    between atoms: N_19  and  C_24
   10  A    between atoms: N_26  and  C_28
   11  A    between atoms: C_28  and  C_37
                            x       y       z     vdW  Elec       q    Type
                         _______ _______ _______ _____ _____    ______ ____

>  <TORSDO>
F 11

$$$$
=
 OpenBabel10222421143D

 37 41  0  0  1  0  0  0  0  0999 V2000
  190.6750  176.9430  141.3790 C   0  0  0  0  0  0  0  0  0  0  0  0
  185.2380  178.3160  144.7490 C   0  0  0  0  0  3  0  0  0  0  0  0
  191.6740  176.8360  142.3410 C   0  0  0  0  0  3  0  0  0  0  0  0
  190.1390  177.3060  144.0910 C   0  0  0  0  0  0  0  0  0  0  0  0
  186.3390  178.1770  145.5940 C   0  0  0  0  0  3  0  0  0  0  0  0
  187.7770  177.7360  143.6710 C   0  0  0  0  0  0  0  0  0  0  0  0
  185.3870  178.1660  143.3640 C   0  0  0  0  0  0  0  0  0  0  0  0
  189.3670  177.3030  141.7810 C   0  0  0  0  0  0  0  0  0  0  0  0
  188.6550  177.7550  145.9100 N   0  0  0  0  0  0  0  0  0  0  0  0
  186.6530  177.8760  142.8410 C   0  0  0  0  0  3  0  0  0  0  0  0
  189.9060  177.4710  145.4630 C   0  0  0  0  0  0  0  0  0  0  0  0
  191.3940  177.0240  143.6530 N   0  0  0  0  0  0  0  0  0  0  0  0
  187.6010  177.8880  145.0680 C   0  0  0  0  0  0  0  0  0  0  0  0
  189.0720  177.4420  143.1660 C   0  0  0  0  0  0  0  0  0  0  0  0
  182.2240  178.6980  141.8550 N   0  0  0  0  0  0  0  0  0  0  0  0
  184.2490  178.1680  141.1560 C   0  0  0  0  0  3  0  0  0  0  0  0
  184.2560  178.3160  142.4940 N   0  0  0  0  0  0  0  0  0  0  0  0
  182.9480  178.4120  140.7520 C   0  0  0  0  0  3  0  0  0  0  0  0
  183.0380  178.6320  142.8950 N   0  0  0  0  0  0  0  0  0  0  0  0
  190.9860  177.3420  146.3920 N   0  0  0  0  0  2  0  0  0  0  0  0
  191.0530  176.2570  147.3570 C   0  0  0  0  0  2  0  0  0  0  0  0
  193.1770  176.0480  148.4230 O   0  0  0  0  0  1  0  0  0  0  0  0
  192.4300  175.6220  147.3250 C   0  0  0  0  0  2  0  0  0  0  0  0
  191.0240  176.6270  140.0230 N   0  0  0  0  0  2  0  0  0  0  0  0
  192.2280  177.0790  139.3400 C   0  0  0  0  0  2  0  0  0  0  0  0
  192.3710  176.3610  138.0080 C   0  0  0  0  0  2  0  0  0  0  0  0
  193.8010  176.3760  136.1510 C   0  0  0  0  0  2  0  0  0  0  0  0
  193.7670  176.3400  137.6050 N   0  0  0  0  0  0  0  0  0  0  0  0
  194.2940  175.0330  137.9760 C   0  0  0  0  0  2  0  0  0  0  0  0
  195.1280  174.5090  136.8230 C   0  0  2  0  0  3  0  0  0  0  0  0
  196.5880  174.4610  137.2270 C   0  0  0  0  0  1  0  0  0  0  0  0
  194.9470  175.5030  135.7050 C   0  0  0  0  0  2  0  0  0  0  0  0
  188.3760  177.5540  140.8240 O   0  0  0  0  0  0  0  0  0  0  0  0
  188.4420  178.6680  139.9370 C   0  0  0  0  0  2  0  0  0  0  0  0
  188.0930  178.2480  138.5180 C   0  0  0  0  0  3  0  0  0  0  0  0
  188.2840  176.7530  138.3790 C   0  0  0  0  0  1  0  0  0  0  0  0
  188.9900  178.9570  137.5230 C   0  0  0  0  0  1  0  0  0  0  0  0
  1  8  2  0  0  0  0
  1  3  1  0  0  0  0
  2  5  1  0  0  0  0
  3 12  2  0  0  0  0
  4 11  1  0  0  0  0
  6 13  1  0  0  0  0
  7  2  2  0  0  0  0
  8 14  1  0  0  0  0
 10  7  1  0  0  0  0
 10  6  2  0  0  0  0
 11  9  2  0  0  0  0
 11 20  1  0  0  0  0
 12  4  1  0  0  0  0
 13  5  2  0  0  0  0
 13  9  1  0  0  0  0
 14  6  1  0  0  0  0
 14  4  2  0  0  0  0
 15 19  2  0  0  0  0
 16 17  1  0  0  0  0
 17 19  1  0  0  0  0
 17  7  1  0  0  0  0
 18 16  2  0  0  0  0
 18 15  1  0  0  0  0
 20 21  1  0  0  0  0
 23 21  1  0  0  0  0
 23 22  1  0  0  0  0
 24  1  1  0  0  0  0
 25 24  1  0  0  0  0
 26 25  1  0  0  0  0
 27 28  1  0  0  0  0
 28 29  1  0  0  0  0
 28 26  1  0  0  0  0
 30 31  1  1  0  0  0
 30 29  1  0  0  0  0
 32 27  1  0  0  0  0
 32 30  1  0  0  0  0
 33  8  1  0  0  0  0
 34 33  1  0  0  0  0
 35 34  1  0  0  0  0
 36 35  1  0  0  0  0
 37 35  1  0  0  0  0
M  END
>  <MODEL>
9

>  <REMARK>
 VINA RESULT:      -7.9      2.550      6.609
  Name = 
  11 active torsions:
  status: ('A' for Active; 'I' for Inactive)
    1  A    between atoms: C_1  and  C_2
    2  A    between atoms: C_1  and  O_32
    3  A    between atoms: C_3  and  N_26
    4  A    between atoms: C_6  and  N_19
    5  A    between atoms: C_6  and  C_36
    6  A    between atoms: C_12  and  N_21
    7  A    between atoms: C_13  and  O_32
    8  A    between atoms: N_14  and  C_37
    9  A    between atoms: N_19  and  C_24
   10  A    between atoms: N_26  and  C_28
   11  A    between atoms: C_28  and  C_37
                            x       y       z     vdW  Elec       q    Type
                         _______ _______ _______ _____ _____    ______ ____

>  <TORSDO>
F 11

$$$$
