=
 OpenBabel10222419483D

 33 34  0  0  1  0  0  0  0  0999 V2000
  188.8980  178.0680  139.7990 C   0  0  1  0  0  3  0  0  0  0  0  0
  189.9700  177.1140  140.2440 C   0  0  0  0  0  0  0  0  0  0  0  0
  190.5660  176.4030  139.3890 O   0  0  0  0  0  0  0  0  0  0  0  0
  191.4940  177.6630  142.1460 C   0  0  0  0  0  3  0  0  0  0  0  0
  191.8350  177.5740  143.4600 N   0  0  0  0  0  0  0  0  0  0  0  0
  191.0880  176.8710  144.3540 C   0  0  0  0  0  0  0  0  0  0  0  0
  190.3440  177.0200  141.6690 C   0  0  0  0  0  0  0  0  0  0  0  0
  189.9330  176.2120  143.9160 C   0  0  0  0  0  3  0  0  0  0  0  0
  189.5650  176.2880  142.5730 C   0  0  0  0  0  3  0  0  0  0  0  0
  191.5080  176.8270  145.7260 N   0  0  0  0  0  2  0  0  0  0  0  0
  192.5050  175.8630  147.8280 C   0  0  0  0  0  1  0  0  0  0  0  0
  192.1490  175.7320  146.3920 C   0  0  0  0  0  0  0  0  0  0  0  0
  192.4150  174.6600  145.7850 O   0  0  0  0  0  0  0  0  0  0  0  0
  188.1580  177.5690  138.5550 C   0  0  0  0  0  2  0  0  0  0  0  0
  188.6140  178.2680  137.2840 C   0  0  0  0  0  2  0  0  0  0  0  0
  187.4100  178.8300  136.5550 C   0  0  0  0  0  2  0  0  0  0  0  0
  187.1710  178.0630  135.2680 C   0  0  0  0  0  2  0  0  0  0  0  0
  188.2560  177.2230  135.0080 O   0  0  0  0  0  1  0  0  0  0  0  0
  187.9570  178.4300  140.9420 C   0  0  0  0  0  2  0  0  0  0  0  0
  186.6250  178.6930  140.4260 N   0  0  0  0  0  2  0  0  0  0  0  0
  185.8110  179.0950  141.5600 C   0  0  0  0  0  2  0  0  0  0  0  0
  184.5780  178.2100  141.6590 C   0  0  0  0  0  2  0  0  0  0  0  0
  183.5750  178.7660  142.6580 C   0  0  0  0  0  2  0  0  0  0  0  0
  184.2840  179.5720  143.7290 C   0  0  0  0  0  2  0  0  0  0  0  0
  184.0650  178.9170  145.0800 C   0  0  0  0  0  2  0  0  0  0  0  0
  187.6240  177.5580  145.6000 C   0  0  0  0  0  2  0  0  0  0  0  0
  186.2620  177.8340  145.0200 C   0  0  0  0  0  3  0  0  0  0  0  0
  185.6940  179.0490  147.0610 C   0  0  0  0  0  3  0  0  0  0  0  0
  187.5490  177.4230  147.1270 C   0  0  2  0  0  3  0  0  0  0  0  0
  185.3730  178.5700  145.7000 C   0  0  0  0  0  0  0  0  0  0  0  0
  186.7390  178.5430  147.7240 C   0  0  0  0  0  3  0  0  0  0  0  0
  188.9160  177.4120  147.7250 C   0  0  0  0  0  3  0  0  0  0  0  0
  189.2730  178.3270  148.5490 N   0  0  0  0  0  2  0  0  0  0  0  0
  1 14  1  6  0  0  0
  1  2  1  0  0  0  0
  1 19  1  0  0  0  0
  2  7  1  0  0  0  0
  3  2  2  0  0  0  0
  4  5  1  0  0  0  0
  5  6  2  0  0  0  0
  6 10  1  0  0  0  0
  7  4  2  0  0  0  0
  7  9  1  0  0  0  0
  8  6  1  0  0  0  0
  9  8  2  0  0  0  0
 10 12  1  0  0  0  0
 12 11  1  0  0  0  0
 13 12  2  0  0  0  0
 15 14  1  0  0  0  0
 16 15  1  0  0  0  0
 17 16  1  0  0  0  0
 18 17  1  0  0  0  0
 20 19  1  0  0  0  0
 20 21  1  0  0  0  0
 21 22  1  0  0  0  0
 22 23  1  0  0  0  0
 23 24  1  0  0  0  0
 24 25  1  0  0  0  0
 25 30  1  0  0  0  0
 26 29  1  0  0  0  0
 27 26  1  0  0  0  0
 27 30  2  0  0  0  0
 28 31  2  0  0  0  0
 29 31  1  0  0  0  0
 29 32  1  1  0  0  0
 30 28  1  0  0  0  0
 32 33  2  0  0  0  0
M  END
>  <MODEL>
1

>  <REMARK>
 VINA RESULT:      -7.8      0.000      0.000
  Name = 
  16 active torsions:
  status: ('A' for Active; 'I' for Inactive)
    1  A    between atoms: C_1  and  C_21
    2  A    between atoms: N_3  and  C_13
    3  A    between atoms: C_4  and  C_9
    4  A    between atoms: C_4  and  C_24
    5  A    between atoms: C_6  and  C_26
    6  A    between atoms: C_6  and  C_30
    7  A    between atoms: C_8  and  C_29
    8  A    between atoms: C_8  and  C_30
    9  A    between atoms: C_9  and  C_27
   10  A    between atoms: C_12  and  C_17
   11  A    between atoms: C_12  and  C_27
   12  A    between atoms: C_15  and  N_19
   13  A    between atoms: C_15  and  C_27
   14  A    between atoms: N_19  and  C_26
   15  A    between atoms: C_20  and  C_24
   16  A    between atoms: C_25  and  C_29
                            x       y       z     vdW  Elec       q    Type
                         _______ _______ _______ _____ _____    ______ ____

>  <TORSDO>
F 16

$$$$
=
 OpenBabel10222419483D

 33 34  0  0  1  0  0  0  0  0999 V2000
  188.0340  178.0680  140.0950 C   0  0  1  0  0  3  0  0  0  0  0  0
  188.8650  178.3550  138.8770 C   0  0  0  0  0  0  0  0  0  0  0  0
  188.8830  179.5220  138.3960 O   0  0  0  0  0  0  0  0  0  0  0  0
  190.3900  176.3840  139.0470 C   0  0  0  0  0  3  0  0  0  0  0  0
  191.1340  175.4020  138.4690 N   0  0  0  0  0  0  0  0  0  0  0  0
  191.2150  175.2580  137.1190 C   0  0  0  0  0  0  0  0  0  0  0  0
  189.6740  177.2900  138.2540 C   0  0  0  0  0  0  0  0  0  0  0  0
  190.5170  176.1460  136.2900 C   0  0  0  0  0  3  0  0  0  0  0  0
  189.7490  177.1600  136.8620 C   0  0  0  0  0  3  0  0  0  0  0  0
  192.0160  174.1960  136.5800 N   0  0  0  0  0  2  0  0  0  0  0  0
  192.5290  172.0290  135.4040 C   0  0  0  0  0  1  0  0  0  0  0  0
  191.5470  173.0350  135.8850 C   0  0  0  0  0  0  0  0  0  0  0  0
  190.3180  172.8480  135.6760 O   0  0  0  0  0  0  0  0  0  0  0  0
  188.6540  178.6460  141.3690 C   0  0  0  0  0  2  0  0  0  0  0  0
  189.1490  177.5670  142.3210 C   0  0  0  0  0  2  0  0  0  0  0  0
  190.6310  177.7590  142.5770 C   0  0  0  0  0  2  0  0  0  0  0  0
  191.2740  176.4350  142.9450 C   0  0  0  0  0  2  0  0  0  0  0  0
  190.3660  175.3930  142.7430 O   0  0  0  0  0  1  0  0  0  0  0  0
  186.5830  178.4900  139.8980 C   0  0  0  0  0  2  0  0  0  0  0  0
  186.1960  179.4360  140.9300 N   0  0  0  0  0  2  0  0  0  0  0  0
  184.9850  178.9140  141.5410 C   0  0  0  0  0  2  0  0  0  0  0  0
  185.3250  178.1740  142.8260 C   0  0  0  0  0  2  0  0  0  0  0  0
  184.4370  178.6250  143.9760 C   0  0  0  0  0  2  0  0  0  0  0  0
  185.2730  179.2190  145.0910 C   0  0  0  0  0  2  0  0  0  0  0  0
  185.4120  178.2040  146.2120 C   0  0  0  0  0  2  0  0  0  0  0  0
  189.1540  177.4030  145.8290 C   0  0  0  0  0  2  0  0  0  0  0  0
  187.6810  177.5510  145.5540 C   0  0  0  0  0  3  0  0  0  0  0  0
  187.3630  178.2170  147.8820 C   0  0  0  0  0  3  0  0  0  0  0  0
  189.3950  176.9550  147.2770 C   0  0  2  0  0  3  0  0  0  0  0  0
  186.8510  177.9720  146.5180 C   0  0  0  0  0  0  0  0  0  0  0  0
  188.5750  177.7770  148.2350 C   0  0  0  0  0  3  0  0  0  0  0  0
  190.8410  177.0600  147.6290 C   0  0  0  0  0  3  0  0  0  0  0  0
  191.7420  176.7060  146.7880 N   0  0  0  0  0  2  0  0  0  0  0  0
  1 19  1  6  0  0  0
  1 14  1  0  0  0  0
  2  1  1  0  0  0  0
  3  2  2  0  0  0  0
  5  4  1  0  0  0  0
  6  5  2  0  0  0  0
  7  2  1  0  0  0  0
  7  4  2  0  0  0  0
  8  9  2  0  0  0  0
  8  6  1  0  0  0  0
  9  7  1  0  0  0  0
 10  6  1  0  0  0  0
 11 12  1  0  0  0  0
 12 10  1  0  0  0  0
 13 12  2  0  0  0  0
 14 15  1  0  0  0  0
 15 16  1  0  0  0  0
 16 17  1  0  0  0  0
 18 17  1  0  0  0  0
 19 20  1  0  0  0  0
 20 21  1  0  0  0  0
 21 22  1  0  0  0  0
 22 23  1  0  0  0  0
 23 24  1  0  0  0  0
 24 25  1  0  0  0  0
 25 30  1  0  0  0  0
 26 29  1  0  0  0  0
 27 26  1  0  0  0  0
 27 30  2  0  0  0  0
 28 31  2  0  0  0  0
 29 32  1  1  0  0  0
 29 31  1  0  0  0  0
 30 28  1  0  0  0  0
 33 32  2  0  0  0  0
M  END
>  <MODEL>
2

>  <REMARK>
 VINA RESULT:      -7.7      2.965      5.475
  Name = 
  16 active torsions:
  status: ('A' for Active; 'I' for Inactive)
    1  A    between atoms: C_1  and  C_21
    2  A    between atoms: N_3  and  C_13
    3  A    between atoms: C_4  and  C_9
    4  A    between atoms: C_4  and  C_24
    5  A    between atoms: C_6  and  C_26
    6  A    between atoms: C_6  and  C_30
    7  A    between atoms: C_8  and  C_29
    8  A    between atoms: C_8  and  C_30
    9  A    between atoms: C_9  and  C_27
   10  A    between atoms: C_12  and  C_17
   11  A    between atoms: C_12  and  C_27
   12  A    between atoms: C_15  and  N_19
   13  A    between atoms: C_15  and  C_27
   14  A    between atoms: N_19  and  C_26
   15  A    between atoms: C_20  and  C_24
   16  A    between atoms: C_25  and  C_29
                            x       y       z     vdW  Elec       q    Type
                         _______ _______ _______ _____ _____    ______ ____

>  <TORSDO>
F 16

$$$$
=
 OpenBabel10222419483D

 33 34  0  0  1  0  0  0  0  0999 V2000
  189.8720  177.2680  144.5940 C   0  0  1  0  0  3  0  0  0  0  0  0
  190.1420  178.2690  143.5080 C   0  0  0  0  0  0  0  0  0  0  0  0
  190.8500  179.2840  143.7570 O   0  0  0  0  0  0  0  0  0  0  0  0
  190.3410  177.3570  141.1910 C   0  0  0  0  0  3  0  0  0  0  0  0
  189.8400  177.1690  139.9390 N   0  0  0  0  0  0  0  0  0  0  0  0
  188.6220  177.6500  139.5690 C   0  0  0  0  0  0  0  0  0  0  0  0
  189.6030  178.0640  142.1490 C   0  0  0  0  0  0  0  0  0  0  0  0
  187.8550  178.3660  140.4970 C   0  0  0  0  0  3  0  0  0  0  0  0
  188.3490  178.5710  141.7850 C   0  0  0  0  0  3  0  0  0  0  0  0
  188.1570  177.4090  138.2330 N   0  0  0  0  0  2  0  0  0  0  0  0
  187.6270  177.9120  135.8230 C   0  0  0  0  0  1  0  0  0  0  0  0
  188.1600  178.3380  137.1420 C   0  0  0  0  0  0  0  0  0  0  0  0
  188.6030  179.5090  137.2800 O   0  0  0  0  0  0  0  0  0  0  0  0
  191.1070  176.4280  144.9280 C   0  0  0  0  0  2  0  0  0  0  0  0
  191.6540  176.7170  146.3170 C   0  0  0  0  0  2  0  0  0  0  0  0
  192.4390  175.5180  146.8120 C   0  0  0  0  0  2  0  0  0  0  0  0
  192.4690  175.5030  148.3290 C   0  0  0  0  0  2  0  0  0  0  0  0
  193.2520  176.5600  148.7990 O   0  0  0  0  0  1  0  0  0  0  0  0
  189.2520  177.9240  145.8220 C   0  0  0  0  0  2  0  0  0  0  0  0
  188.0650  177.1940  146.2300 N   0  0  0  0  0  2  0  0  0  0  0  0
  187.6110  177.7960  147.4720 C   0  0  0  0  0  2  0  0  0  0  0  0
  186.5880  178.8830  147.1830 C   0  0  0  0  0  2  0  0  0  0  0  0
  185.3060  178.2990  146.6090 C   0  0  0  0  0  2  0  0  0  0  0  0
  185.1350  178.7150  145.1610 C   0  0  0  0  0  2  0  0  0  0  0  0
  183.6860  179.0930  144.9140 C   0  0  0  0  0  2  0  0  0  0  0  0
  183.8660  178.0180  141.2270 C   0  0  0  0  0  2  0  0  0  0  0  0
  184.2490  178.4180  142.6270 C   0  0  0  0  0  3  0  0  0  0  0  0
  181.8960  178.8860  143.0840 C   0  0  0  0  0  3  0  0  0  0  0  0
  182.6590  178.8310  140.7390 C   0  0  2  0  0  3  0  0  0  0  0  0
  183.3090  178.7890  143.5060 C   0  0  0  0  0  0  0  0  0  0  0  0
  181.5780  178.8660  141.7860 C   0  0  0  0  0  3  0  0  0  0  0  0
  182.1170  178.2630  139.4700 C   0  0  0  0  0  3  0  0  0  0  0  0
  180.9400  178.5740  139.0680 N   0  0  0  0  0  2  0  0  0  0  0  0
  1 14  1  1  0  0  0
  1 19  1  0  0  0  0
  2  3  2  0  0  0  0
  2  1  1  0  0  0  0
  4  7  2  0  0  0  0
  5  4  1  0  0  0  0
  6  5  2  0  0  0  0
  6  8  1  0  0  0  0
  7  2  1  0  0  0  0
  8  9  2  0  0  0  0
  9  7  1  0  0  0  0
 10  6  1  0  0  0  0
 11 12  1  0  0  0  0
 12 13  2  0  0  0  0
 12 10  1  0  0  0  0
 14 15  1  0  0  0  0
 15 16  1  0  0  0  0
 16 17  1  0  0  0  0
 17 18  1  0  0  0  0
 19 20  1  0  0  0  0
 20 21  1  0  0  0  0
 22 21  1  0  0  0  0
 23 22  1  0  0  0  0
 24 23  1  0  0  0  0
 25 24  1  0  0  0  0
 26 27  1  0  0  0  0
 27 30  2  0  0  0  0
 28 30  1  0  0  0  0
 29 32  1  6  0  0  0
 29 26  1  0  0  0  0
 29 31  1  0  0  0  0
 30 25  1  0  0  0  0
 31 28  2  0  0  0  0
 33 32  2  0  0  0  0
M  END
>  <MODEL>
3

>  <REMARK>
 VINA RESULT:      -7.5      2.185      7.696
  Name = 
  16 active torsions:
  status: ('A' for Active; 'I' for Inactive)
    1  A    between atoms: C_1  and  C_21
    2  A    between atoms: N_3  and  C_13
    3  A    between atoms: C_4  and  C_9
    4  A    between atoms: C_4  and  C_24
    5  A    between atoms: C_6  and  C_26
    6  A    between atoms: C_6  and  C_30
    7  A    between atoms: C_8  and  C_29
    8  A    between atoms: C_8  and  C_30
    9  A    between atoms: C_9  and  C_27
   10  A    between atoms: C_12  and  C_17
   11  A    between atoms: C_12  and  C_27
   12  A    between atoms: C_15  and  N_19
   13  A    between atoms: C_15  and  C_27
   14  A    between atoms: N_19  and  C_26
   15  A    between atoms: C_20  and  C_24
   16  A    between atoms: C_25  and  C_29
                            x       y       z     vdW  Elec       q    Type
                         _______ _______ _______ _____ _____    ______ ____

>  <TORSDO>
F 16

$$$$
=
 OpenBabel10222419483D

 33 34  0  0  1  0  0  0  0  0999 V2000
  187.4450  177.9430  137.1600 C   0  0  1  0  0  3  0  0  0  0  0  0
  188.5260  178.5980  137.9720 C   0  0  0  0  0  0  0  0  0  0  0  0
  189.0500  179.6710  137.5620 O   0  0  0  0  0  0  0  0  0  0  0  0
  189.9950  177.0610  139.2830 C   0  0  0  0  0  3  0  0  0  0  0  0
  190.3960  176.5200  140.4650 N   0  0  0  0  0  0  0  0  0  0  0  0
  189.8240  176.8680  141.6490 C   0  0  0  0  0  0  0  0  0  0  0  0
  188.9630  178.0080  139.2520 C   0  0  0  0  0  0  0  0  0  0  0  0
  188.7870  177.8090  141.6610 C   0  0  0  0  0  3  0  0  0  0  0  0
  188.3590  178.3760  140.4600 C   0  0  0  0  0  3  0  0  0  0  0  0
  190.3030  176.2590  142.8570 N   0  0  0  0  0  2  0  0  0  0  0  0
  191.6940  175.9890  144.9390 C   0  0  0  0  0  1  0  0  0  0  0  0
  191.3190  176.7670  143.7300 C   0  0  0  0  0  0  0  0  0  0  0  0
  191.9030  177.8570  143.4920 O   0  0  0  0  0  0  0  0  0  0  0  0
  187.9450  176.6960  136.4280 C   0  0  0  0  0  2  0  0  0  0  0  0
  187.4910  175.4050  137.0930 C   0  0  0  0  0  2  0  0  0  0  0  0
  188.4200  174.2760  136.6930 C   0  0  0  0  0  2  0  0  0  0  0  0
  187.6180  173.0970  136.1740 C   0  0  0  0  0  2  0  0  0  0  0  0
  186.3240  173.5090  135.8510 O   0  0  0  0  0  1  0  0  0  0  0  0
  186.1970  177.6800  137.9940 C   0  0  0  0  0  2  0  0  0  0  0  0
  185.6040  178.9380  138.4130 N   0  0  0  0  0  2  0  0  0  0  0  0
  184.2210  178.6540  138.7540 C   0  0  0  0  0  2  0  0  0  0  0  0
  183.9130  179.1570  140.1560 C   0  0  0  0  0  2  0  0  0  0  0  0
  184.6180  178.3210  141.2120 C   0  0  0  0  0  2  0  0  0  0  0  0
  185.0210  179.1840  142.3920 C   0  0  0  0  0  2  0  0  0  0  0  0
  184.4350  178.6020  143.6650 C   0  0  0  0  0  2  0  0  0  0  0  0
  187.7270  177.5230  145.3360 C   0  0  0  0  0  2  0  0  0  0  0  0
  186.5910  177.6650  144.3570 C   0  0  0  0  0  3  0  0  0  0  0  0
  185.3870  178.9880  146.0190 C   0  0  0  0  0  3  0  0  0  0  0  0
  187.2010  177.4980  146.7780 C   0  0  2  0  0  3  0  0  0  0  0  0
  185.5100  178.3890  144.6740 C   0  0  0  0  0  0  0  0  0  0  0  0
  186.2050  178.6030  147.0040 C   0  0  0  0  0  3  0  0  0  0  0  0
  188.3250  177.6210  147.7520 C   0  0  0  0  0  3  0  0  0  0  0  0
  189.4440  177.0370  147.5310 N   0  0  0  0  0  2  0  0  0  0  0  0
  1 14  1  1  0  0  0
  1  2  1  0  0  0  0
  1 19  1  0  0  0  0
  2  7  1  0  0  0  0
  3  2  2  0  0  0  0
  4  5  1  0  0  0  0
  5  6  2  0  0  0  0
  6  8  1  0  0  0  0
  6 10  1  0  0  0  0
  7  4  2  0  0  0  0
  7  9  1  0  0  0  0
  9  8  2  0  0  0  0
 10 12  1  0  0  0  0
 12 11  1  0  0  0  0
 13 12  2  0  0  0  0
 14 15  1  0  0  0  0
 16 15  1  0  0  0  0
 17 16  1  0  0  0  0
 18 17  1  0  0  0  0
 19 20  1  0  0  0  0
 20 21  1  0  0  0  0
 21 22  1  0  0  0  0
 22 23  1  0  0  0  0
 23 24  1  0  0  0  0
 24 25  1  0  0  0  0
 25 30  1  0  0  0  0
 26 29  1  0  0  0  0
 27 30  2  0  0  0  0
 27 26  1  0  0  0  0
 28 31  2  0  0  0  0
 29 31  1  0  0  0  0
 29 32  1  1  0  0  0
 30 28  1  0  0  0  0
 33 32  2  0  0  0  0
M  END
>  <MODEL>
4

>  <REMARK>
 VINA RESULT:      -7.5      2.145      2.838
  Name = 
  16 active torsions:
  status: ('A' for Active; 'I' for Inactive)
    1  A    between atoms: C_1  and  C_21
    2  A    between atoms: N_3  and  C_13
    3  A    between atoms: C_4  and  C_9
    4  A    between atoms: C_4  and  C_24
    5  A    between atoms: C_6  and  C_26
    6  A    between atoms: C_6  and  C_30
    7  A    between atoms: C_8  and  C_29
    8  A    between atoms: C_8  and  C_30
    9  A    between atoms: C_9  and  C_27
   10  A    between atoms: C_12  and  C_17
   11  A    between atoms: C_12  and  C_27
   12  A    between atoms: C_15  and  N_19
   13  A    between atoms: C_15  and  C_27
   14  A    between atoms: N_19  and  C_26
   15  A    between atoms: C_20  and  C_24
   16  A    between atoms: C_25  and  C_29
                            x       y       z     vdW  Elec       q    Type
                         _______ _______ _______ _____ _____    ______ ____

>  <TORSDO>
F 16

$$$$
=
 OpenBabel10222419483D

 33 34  0  0  1  0  0  0  0  0999 V2000
  188.3510  178.3000  140.2580 C   0  0  1  0  0  3  0  0  0  0  0  0
  189.3250  177.2550  140.7250 C   0  0  0  0  0  0  0  0  0  0  0  0
  189.1000  176.6290  141.7970 O   0  0  0  0  0  0  0  0  0  0  0  0
  191.7800  177.4470  140.3060 C   0  0  0  0  0  3  0  0  0  0  0  0
  192.8870  177.1560  139.5710 N   0  0  0  0  0  0  0  0  0  0  0  0
  192.8300  176.3770  138.4570 C   0  0  0  0  0  0  0  0  0  0  0  0
  190.5280  176.9440  139.9290 C   0  0  0  0  0  0  0  0  0  0  0  0
  191.5960  175.8580  138.0440 C   0  0  0  0  0  3  0  0  0  0  0  0
  190.4490  176.1430  138.7830 C   0  0  0  0  0  3  0  0  0  0  0  0
  194.0410  176.1100  137.7340 N   0  0  0  0  0  2  0  0  0  0  0  0
  195.9220  174.7470  136.7620 C   0  0  0  0  0  1  0  0  0  0  0  0
  194.6570  174.8320  137.5350 C   0  0  0  0  0  0  0  0  0  0  0  0
  194.1490  173.7790  138.0050 O   0  0  0  0  0  0  0  0  0  0  0  0
  187.7370  177.9540  138.8990 C   0  0  0  0  0  2  0  0  0  0  0  0
  188.3240  178.7790  137.7650 C   0  0  0  0  0  2  0  0  0  0  0  0
  187.4280  178.6740  136.5460 C   0  0  0  0  0  2  0  0  0  0  0  0
  188.0080  177.6840  135.5540 C   0  0  0  0  0  2  0  0  0  0  0  0
  189.3960  177.6270  135.6950 O   0  0  0  0  0  1  0  0  0  0  0  0
  187.3030  178.6070  141.3210 C   0  0  0  0  0  2  0  0  0  0  0  0
  186.1770  179.3020  140.7220 N   0  0  0  0  0  2  0  0  0  0  0  0
  184.9760  178.7410  141.3180 C   0  0  0  0  0  2  0  0  0  0  0  0
  185.3020  178.1230  142.6690 C   0  0  0  0  0  2  0  0  0  0  0  0
  184.4060  178.6800  143.7640 C   0  0  0  0  0  2  0  0  0  0  0  0
  185.2390  179.3230  144.8560 C   0  0  0  0  0  2  0  0  0  0  0  0
  185.2670  178.4110  146.0690 C   0  0  0  0  0  2  0  0  0  0  0  0
  188.5600  177.5150  147.8410 C   0  0  0  0  0  2  0  0  0  0  0  0
  187.1920  178.0710  147.5470 C   0  0  0  0  0  3  0  0  0  0  0  0
  187.4380  177.3220  145.2360 C   0  0  0  0  0  3  0  0  0  0  0  0
  189.4670  177.6190  146.6070 C   0  0  2  0  0  3  0  0  0  0  0  0
  186.6560  177.9420  146.3260 C   0  0  0  0  0  0  0  0  0  0  0  0
  188.7540  177.1310  145.3750 C   0  0  0  0  0  3  0  0  0  0  0  0
  190.7240  176.8400  146.8080 C   0  0  0  0  0  3  0  0  0  0  0  0
  191.7540  177.0690  146.0800 N   0  0  0  0  0  2  0  0  0  0  0  0
  1 14  1  6  0  0  0
  1  2  1  0  0  0  0
  1 19  1  0  0  0  0
  2  3  2  0  0  0  0
  5  4  1  0  0  0  0
  6  5  2  0  0  0  0
  7  4  2  0  0  0  0
  7  2  1  0  0  0  0
  8  6  1  0  0  0  0
  8  9  2  0  0  0  0
  9  7  1  0  0  0  0
 10  6  1  0  0  0  0
 11 12  1  0  0  0  0
 12 10  1  0  0  0  0
 12 13  2  0  0  0  0
 15 14  1  0  0  0  0
 16 15  1  0  0  0  0
 17 18  1  0  0  0  0
 17 16  1  0  0  0  0
 20 21  1  0  0  0  0
 20 19  1  0  0  0  0
 21 22  1  0  0  0  0
 22 23  1  0  0  0  0
 23 24  1  0  0  0  0
 24 25  1  0  0  0  0
 25 30  1  0  0  0  0
 27 26  1  0  0  0  0
 28 31  2  0  0  0  0
 28 30  1  0  0  0  0
 29 32  1  1  0  0  0
 29 26  1  0  0  0  0
 30 27  2  0  0  0  0
 31 29  1  0  0  0  0
 33 32  2  0  0  0  0
M  END
>  <MODEL>
5

>  <REMARK>
 VINA RESULT:      -7.4      2.592      4.090
  Name = 
  16 active torsions:
  status: ('A' for Active; 'I' for Inactive)
    1  A    between atoms: C_1  and  C_21
    2  A    between atoms: N_3  and  C_13
    3  A    between atoms: C_4  and  C_9
    4  A    between atoms: C_4  and  C_24
    5  A    between atoms: C_6  and  C_26
    6  A    between atoms: C_6  and  C_30
    7  A    between atoms: C_8  and  C_29
    8  A    between atoms: C_8  and  C_30
    9  A    between atoms: C_9  and  C_27
   10  A    between atoms: C_12  and  C_17
   11  A    between atoms: C_12  and  C_27
   12  A    between atoms: C_15  and  N_19
   13  A    between atoms: C_15  and  C_27
   14  A    between atoms: N_19  and  C_26
   15  A    between atoms: C_20  and  C_24
   16  A    between atoms: C_25  and  C_29
                            x       y       z     vdW  Elec       q    Type
                         _______ _______ _______ _____ _____    ______ ____

>  <TORSDO>
F 16

$$$$
=
 OpenBabel10222419483D

 33 34  0  0  1  0  0  0  0  0999 V2000
  188.9660  177.4320  145.2130 C   0  0  1  0  0  3  0  0  0  0  0  0
  189.6870  178.1960  144.1380 C   0  0  0  0  0  0  0  0  0  0  0  0
  190.4440  179.1560  144.4560 O   0  0  0  0  0  0  0  0  0  0  0  0
  190.3180  176.7980  142.1660 C   0  0  0  0  0  3  0  0  0  0  0  0
  190.1730  176.4530  140.8580 N   0  0  0  0  0  0  0  0  0  0  0  0
  189.2750  177.0710  140.0430 C   0  0  0  0  0  0  0  0  0  0  0  0
  189.5340  177.8190  142.7190 C   0  0  0  0  0  0  0  0  0  0  0  0
  188.4740  178.0990  140.5580 C   0  0  0  0  0  3  0  0  0  0  0  0
  188.6070  178.4690  141.8960 C   0  0  0  0  0  3  0  0  0  0  0  0
  189.1750  176.6490  138.6750 N   0  0  0  0  0  2  0  0  0  0  0  0
  189.9340  176.1650  136.3240 C   0  0  0  0  0  1  0  0  0  0  0  0
  190.2280  176.6270  137.7050 C   0  0  0  0  0  0  0  0  0  0  0  0
  191.3970  176.9930  137.9970 O   0  0  0  0  0  0  0  0  0  0  0  0
  189.4790  177.7780  146.6130 C   0  0  0  0  0  2  0  0  0  0  0  0
  190.2450  176.6310  147.2550 C   0  0  0  0  0  2  0  0  0  0  0  0
  191.6180  176.5220  146.6230 C   0  0  0  0  0  2  0  0  0  0  0  0
  192.4700  175.5280  147.3900 C   0  0  0  0  0  2  0  0  0  0  0  0
  193.0190  176.1420  148.5170 O   0  0  0  0  0  1  0  0  0  0  0  0
  187.4550  177.5730  145.0840 C   0  0  0  0  0  2  0  0  0  0  0  0
  186.8570  177.7340  146.3980 N   0  0  0  0  0  2  0  0  0  0  0  0
  185.6980  178.5940  146.2270 C   0  0  0  0  0  2  0  0  0  0  0  0
  185.2850  178.6290  144.7630 C   0  0  0  0  0  2  0  0  0  0  0  0
  183.8070  178.9520  144.6120 C   0  0  0  0  0  2  0  0  0  0  0  0
  183.3840  178.8370  143.1610 C   0  0  0  0  0  2  0  0  0  0  0  0
  184.6090  178.5960  142.2970 C   0  0  0  0  0  2  0  0  0  0  0  0
  184.5080  178.6160  138.4530 C   0  0  0  0  0  2  0  0  0  0  0  0
  184.8500  178.9410  139.8830 C   0  0  0  0  0  3  0  0  0  0  0  0
  183.0880  177.4110  140.6010 C   0  0  0  0  0  3  0  0  0  0  0  0
  183.0100  178.3150  138.3070 C   0  0  2  0  0  3  0  0  0  0  0  0
  184.2010  178.3390  140.8880 C   0  0  0  0  0  0  0  0  0  0  0  0
  182.5480  177.3650  139.3790 C   0  0  0  0  0  3  0  0  0  0  0  0
  182.7160  177.7430  136.9610 C   0  0  0  0  0  3  0  0  0  0  0  0
  183.2430  176.6330  136.5970 N   0  0  0  0  0  2  0  0  0  0  0  0
  1 19  1  1  0  0  0
  1 14  1  0  0  0  0
  2  3  2  0  0  0  0
  2  1  1  0  0  0  0
  4  7  2  0  0  0  0
  5  4  1  0  0  0  0
  6  8  1  0  0  0  0
  6  5  2  0  0  0  0
  7  2  1  0  0  0  0
  8  9  2  0  0  0  0
  9  7  1  0  0  0  0
 10  6  1  0  0  0  0
 11 12  1  0  0  0  0
 12 13  2  0  0  0  0
 12 10  1  0  0  0  0
 14 15  1  0  0  0  0
 16 15  1  0  0  0  0
 16 17  1  0  0  0  0
 17 18  1  0  0  0  0
 19 20  1  0  0  0  0
 21 20  1  0  0  0  0
 22 21  1  0  0  0  0
 23 22  1  0  0  0  0
 24 23  1  0  0  0  0
 25 24  1  0  0  0  0
 26 27  1  0  0  0  0
 27 30  2  0  0  0  0
 28 30  1  0  0  0  0
 29 32  1  6  0  0  0
 29 26  1  0  0  0  0
 29 31  1  0  0  0  0
 30 25  1  0  0  0  0
 31 28  2  0  0  0  0
 33 32  2  0  0  0  0
M  END
>  <MODEL>
6

>  <REMARK>
 VINA RESULT:      -7.3      2.472      7.701
  Name = 
  16 active torsions:
  status: ('A' for Active; 'I' for Inactive)
    1  A    between atoms: C_1  and  C_21
    2  A    between atoms: N_3  and  C_13
    3  A    between atoms: C_4  and  C_9
    4  A    between atoms: C_4  and  C_24
    5  A    between atoms: C_6  and  C_26
    6  A    between atoms: C_6  and  C_30
    7  A    between atoms: C_8  and  C_29
    8  A    between atoms: C_8  and  C_30
    9  A    between atoms: C_9  and  C_27
   10  A    between atoms: C_12  and  C_17
   11  A    between atoms: C_12  and  C_27
   12  A    between atoms: C_15  and  N_19
   13  A    between atoms: C_15  and  C_27
   14  A    between atoms: N_19  and  C_26
   15  A    between atoms: C_20  and  C_24
   16  A    between atoms: C_25  and  C_29
                            x       y       z     vdW  Elec       q    Type
                         _______ _______ _______ _____ _____    ______ ____

>  <TORSDO>
F 16

$$$$
=
 OpenBabel10222419483D

 33 34  0  0  1  0  0  0  0  0999 V2000
  186.9940  178.1110  140.9060 C   0  0  1  0  0  3  0  0  0  0  0  0
  186.7810  178.3600  139.4400 C   0  0  0  0  0  0  0  0  0  0  0  0
  185.7600  178.9960  139.0570 O   0  0  0  0  0  0  0  0  0  0  0  0
  187.9840  176.5140  138.2640 C   0  0  0  0  0  3  0  0  0  0  0  0
  188.8930  176.0800  137.3480 N   0  0  0  0  0  0  0  0  0  0  0  0
  189.6160  176.9420  136.5840 C   0  0  0  0  0  0  0  0  0  0  0  0
  187.7660  177.8850  138.4490 C   0  0  0  0  0  0  0  0  0  0  0  0
  189.4300  178.3220  136.7410 C   0  0  0  0  0  3  0  0  0  0  0  0
  188.5050  178.7880  137.6750 C   0  0  0  0  0  3  0  0  0  0  0  0
  190.5530  176.4110  135.6350 N   0  0  0  0  0  2  0  0  0  0  0  0
  192.6950  175.3850  134.7990 C   0  0  0  0  0  1  0  0  0  0  0  0
  191.8560  175.8860  135.9170 C   0  0  0  0  0  0  0  0  0  0  0  0
  192.3050  175.8430  137.0940 O   0  0  0  0  0  0  0  0  0  0  0  0
  188.4450  178.3490  141.3300 C   0  0  0  0  0  2  0  0  0  0  0  0
  189.1390  177.0730  141.7820 C   0  0  0  0  0  2  0  0  0  0  0  0
  190.6360  177.2150  141.5880 C   0  0  0  0  0  2  0  0  0  0  0  0
  191.3680  176.8070  142.8530 C   0  0  0  0  0  2  0  0  0  0  0  0
  191.9770  177.9230  143.4310 O   0  0  0  0  0  1  0  0  0  0  0  0
  185.9940  178.8830  141.7580 C   0  0  0  0  0  2  0  0  0  0  0  0
  185.0840  177.9620  142.4150 N   0  0  0  0  0  2  0  0  0  0  0  0
  183.7940  178.6280  142.4830 C   0  0  0  0  0  2  0  0  0  0  0  0
  183.6940  179.4460  143.7610 C   0  0  0  0  0  2  0  0  0  0  0  0
  184.0910  178.6240  144.9780 C   0  0  0  0  0  2  0  0  0  0  0  0
  185.2680  179.2610  145.6890 C   0  0  0  0  0  2  0  0  0  0  0  0
  185.6360  178.4250  146.9010 C   0  0  0  0  0  2  0  0  0  0  0  0
  189.1010  177.3340  145.6380 C   0  0  0  0  0  2  0  0  0  0  0  0
  187.6230  177.6110  145.7200 C   0  0  0  0  0  3  0  0  0  0  0  0
  187.9160  178.2230  148.0660 C   0  0  0  0  0  3  0  0  0  0  0  0
  189.6340  176.8210  146.9840 C   0  0  2  0  0  3  0  0  0  0  0  0
  187.0810  178.0660  146.8570 C   0  0  0  0  0  0  0  0  0  0  0  0
  189.1340  177.6740  148.1180 C   0  0  0  0  0  3  0  0  0  0  0  0
  191.1250  176.7960  146.9860 C   0  0  0  0  0  3  0  0  0  0  0  0
  191.7570  175.7430  147.3540 N   0  0  0  0  0  2  0  0  0  0  0  0
  1 14  1  1  0  0  0
  1 19  1  0  0  0  0
  2  1  1  0  0  0  0
  3  2  2  0  0  0  0
  4  7  2  0  0  0  0
  5  4  1  0  0  0  0
  6  8  1  0  0  0  0
  6  5  2  0  0  0  0
  7  2  1  0  0  0  0
  8  9  2  0  0  0  0
  9  7  1  0  0  0  0
 10 12  1  0  0  0  0
 10  6  1  0  0  0  0
 11 12  1  0  0  0  0
 12 13  2  0  0  0  0
 14 15  1  0  0  0  0
 16 15  1  0  0  0  0
 16 17  1  0  0  0  0
 17 18  1  0  0  0  0
 19 20  1  0  0  0  0
 20 21  1  0  0  0  0
 21 22  1  0  0  0  0
 22 23  1  0  0  0  0
 23 24  1  0  0  0  0
 24 25  1  0  0  0  0
 26 27  1  0  0  0  0
 26 29  1  0  0  0  0
 27 30  2  0  0  0  0
 28 31  2  0  0  0  0
 29 32  1  6  0  0  0
 29 31  1  0  0  0  0
 30 25  1  0  0  0  0
 30 28  1  0  0  0  0
 32 33  2  0  0  0  0
M  END
>  <MODEL>
7

>  <REMARK>
 VINA RESULT:      -7.2      2.460      5.693
  Name = 
  16 active torsions:
  status: ('A' for Active; 'I' for Inactive)
    1  A    between atoms: C_1  and  C_21
    2  A    between atoms: N_3  and  C_13
    3  A    between atoms: C_4  and  C_9
    4  A    between atoms: C_4  and  C_24
    5  A    between atoms: C_6  and  C_26
    6  A    between atoms: C_6  and  C_30
    7  A    between atoms: C_8  and  C_29
    8  A    between atoms: C_8  and  C_30
    9  A    between atoms: C_9  and  C_27
   10  A    between atoms: C_12  and  C_17
   11  A    between atoms: C_12  and  C_27
   12  A    between atoms: C_15  and  N_19
   13  A    between atoms: C_15  and  C_27
   14  A    between atoms: N_19  and  C_26
   15  A    between atoms: C_20  and  C_24
   16  A    between atoms: C_25  and  C_29
                            x       y       z     vdW  Elec       q    Type
                         _______ _______ _______ _____ _____    ______ ____

>  <TORSDO>
F 16

$$$$
=
 OpenBabel10222419483D

 33 34  0  0  1  0  0  0  0  0999 V2000
  190.3980  177.6900  139.5690 C   0  0  1  0  0  3  0  0  0  0  0  0
  191.2180  177.4200  140.7980 C   0  0  0  0  0  0  0  0  0  0  0  0
  192.4350  177.1070  140.6790 O   0  0  0  0  0  0  0  0  0  0  0  0
  189.4870  176.7850  142.4830 C   0  0  0  0  0  3  0  0  0  0  0  0
  188.9370  176.8970  143.7230 N   0  0  0  0  0  0  0  0  0  0  0  0
  189.4500  177.7300  144.6680 C   0  0  0  0  0  0  0  0  0  0  0  0
  190.6170  177.5390  142.1410 C   0  0  0  0  0  0  0  0  0  0  0  0
  190.5770  178.5030  144.3640 C   0  0  0  0  0  3  0  0  0  0  0  0
  191.1570  178.4050  143.0990 C   0  0  0  0  0  3  0  0  0  0  0  0
  188.8180  177.7910  145.9560 N   0  0  0  0  0  2  0  0  0  0  0  0
  188.5590  177.4850  148.4420 C   0  0  0  0  0  1  0  0  0  0  0  0
  189.3670  177.3500  147.2030 C   0  0  0  0  0  0  0  0  0  0  0  0
  190.5200  176.8460  147.2700 O   0  0  0  0  0  0  0  0  0  0  0  0
  190.1490  176.4220  138.7480 C   0  0  0  0  0  2  0  0  0  0  0  0
  190.9440  176.3980  137.4520 C   0  0  0  0  0  2  0  0  0  0  0  0
  192.2720  175.7050  137.6850 C   0  0  0  0  0  2  0  0  0  0  0  0
  193.1320  175.7900  136.4380 C   0  0  0  0  0  2  0  0  0  0  0  0
  192.3210  175.9090  135.3080 O   0  0  0  0  0  1  0  0  0  0  0  0
  189.1150  178.4410  139.9030 C   0  0  0  0  0  2  0  0  0  0  0  0
  188.2000  178.3890  138.7760 N   0  0  0  0  0  2  0  0  0  0  0  0
  186.8640  178.2560  139.3300 C   0  0  0  0  0  2  0  0  0  0  0  0
  185.8400  178.1630  138.2090 C   0  0  0  0  0  2  0  0  0  0  0  0
  184.4320  178.4270  138.7210 C   0  0  0  0  0  2  0  0  0  0  0  0
  184.4780  179.1460  140.0550 C   0  0  0  0  0  2  0  0  0  0  0  0
  183.3630  178.6270  140.9450 C   0  0  0  0  0  2  0  0  0  0  0  0
  183.4860  178.8420  144.7820 C   0  0  0  0  0  2  0  0  0  0  0  0
  183.0650  179.0110  143.3460 C   0  0  0  0  0  3  0  0  0  0  0  0
  185.1390  177.9200  142.6600 C   0  0  0  0  0  3  0  0  0  0  0  0
  185.0140  178.9170  144.9130 C   0  0  2  0  0  3  0  0  0  0  0  0
  183.8320  178.5390  142.3550 C   0  0  0  0  0  0  0  0  0  0  0  0
  185.6830  178.0590  143.8730 C   0  0  0  0  0  3  0  0  0  0  0  0
  185.4480  178.4930  146.2760 C   0  0  0  0  0  3  0  0  0  0  0  0
  185.6880  179.3660  147.1830 N   0  0  0  0  0  2  0  0  0  0  0  0
  1 14  1  1  0  0  0
  1 19  1  0  0  0  0
  1  2  1  0  0  0  0
  2  7  1  0  0  0  0
  3  2  2  0  0  0  0
  4  5  1  0  0  0  0
  5  6  2  0  0  0  0
  6 10  1  0  0  0  0
  7  4  2  0  0  0  0
  7  9  1  0  0  0  0
  8  6  1  0  0  0  0
  9  8  2  0  0  0  0
 10 12  1  0  0  0  0
 12 13  2  0  0  0  0
 12 11  1  0  0  0  0
 15 16  1  0  0  0  0
 15 14  1  0  0  0  0
 17 16  1  0  0  0  0
 18 17  1  0  0  0  0
 20 21  1  0  0  0  0
 20 19  1  0  0  0  0
 22 23  1  0  0  0  0
 22 21  1  0  0  0  0
 23 24  1  0  0  0  0
 24 25  1  0  0  0  0
 25 30  1  0  0  0  0
 26 29  1  0  0  0  0
 27 26  1  0  0  0  0
 28 31  2  0  0  0  0
 29 32  1  1  0  0  0
 30 28  1  0  0  0  0
 30 27  2  0  0  0  0
 31 29  1  0  0  0  0
 32 33  2  0  0  0  0
M  END
>  <MODEL>
8

>  <REMARK>
 VINA RESULT:      -7.0      2.232      3.498
  Name = 
  16 active torsions:
  status: ('A' for Active; 'I' for Inactive)
    1  A    between atoms: C_1  and  C_21
    2  A    between atoms: N_3  and  C_13
    3  A    between atoms: C_4  and  C_9
    4  A    between atoms: C_4  and  C_24
    5  A    between atoms: C_6  and  C_26
    6  A    between atoms: C_6  and  C_30
    7  A    between atoms: C_8  and  C_29
    8  A    between atoms: C_8  and  C_30
    9  A    between atoms: C_9  and  C_27
   10  A    between atoms: C_12  and  C_17
   11  A    between atoms: C_12  and  C_27
   12  A    between atoms: C_15  and  N_19
   13  A    between atoms: C_15  and  C_27
   14  A    between atoms: N_19  and  C_26
   15  A    between atoms: C_20  and  C_24
   16  A    between atoms: C_25  and  C_29
                            x       y       z     vdW  Elec       q    Type
                         _______ _______ _______ _____ _____    ______ ____

>  <TORSDO>
F 16

$$$$
=
 OpenBabel10222419483D

 33 34  0  0  1  0  0  0  0  0999 V2000
  188.4930  177.6290  140.5700 C   0  0  1  0  0  3  0  0  0  0  0  0
  187.7810  178.5820  141.4880 C   0  0  0  0  0  0  0  0  0  0  0  0
  188.4500  179.3820  142.1980 O   0  0  0  0  0  0  0  0  0  0  0  0
  185.5540  178.9980  140.4350 C   0  0  0  0  0  3  0  0  0  0  0  0
  184.1950  179.0140  140.4940 N   0  0  0  0  0  0  0  0  0  0  0  0
  183.5160  178.6530  141.6160 C   0  0  0  0  0  0  0  0  0  0  0  0
  186.3060  178.6020  141.5480 C   0  0  0  0  0  0  0  0  0  0  0  0
  184.2320  178.2530  142.7530 C   0  0  0  0  0  3  0  0  0  0  0  0
  185.6260  178.2300  142.7140 C   0  0  0  0  0  3  0  0  0  0  0  0
  182.0820  178.6910  141.6030 N   0  0  0  0  0  2  0  0  0  0  0  0
  179.7410  178.0890  140.8970 C   0  0  0  0  0  1  0  0  0  0  0  0
  181.2100  177.9070  140.7790 C   0  0  0  0  0  0  0  0  0  0  0  0
  181.6640  177.0690  139.9550 O   0  0  0  0  0  0  0  0  0  0  0  0
  189.0780  178.3340  139.3440 C   0  0  0  0  0  2  0  0  0  0  0  0
  189.4510  177.3640  138.2340 C   0  0  0  0  0  2  0  0  0  0  0  0
  188.7150  177.7420  136.9630 C   0  0  0  0  0  2  0  0  0  0  0  0
  189.3600  177.0700  135.7660 C   0  0  0  0  0  2  0  0  0  0  0  0
  188.3730  176.5570  134.9210 O   0  0  0  0  0  1  0  0  0  0  0  0
  189.5220  176.7910  141.3190 C   0  0  0  0  0  2  0  0  0  0  0  0
  190.8290  177.4200  141.2400 N   0  0  0  0  0  2  0  0  0  0  0  0
  191.4260  177.3080  142.5590 C   0  0  0  0  0  2  0  0  0  0  0  0
  191.1080  175.9490  143.1640 C   0  0  0  0  0  2  0  0  0  0  0  0
  191.6840  175.8170  144.5650 C   0  0  0  0  0  2  0  0  0  0  0  0
  191.5680  177.1320  145.3120 C   0  0  0  0  0  2  0  0  0  0  0  0
  190.9870  176.8770  146.6910 C   0  0  0  0  0  2  0  0  0  0  0  0
  187.5240  177.9330  147.9880 C   0  0  0  0  0  2  0  0  0  0  0  0
  188.9260  177.3900  147.9150 C   0  0  0  0  0  3  0  0  0  0  0  0
  188.8750  177.7160  145.4950 C   0  0  0  0  0  3  0  0  0  0  0  0
  186.7360  177.5790  146.7180 C   0  0  2  0  0  3  0  0  0  0  0  0
  189.5680  177.3280  146.7410 C   0  0  0  0  0  0  0  0  0  0  0  0
  187.5470  177.8750  145.4850 C   0  0  0  0  0  3  0  0  0  0  0  0
  185.4470  178.3290  146.6700 C   0  0  0  0  0  3  0  0  0  0  0  0
  185.4020  179.5120  146.1780 N   0  0  0  0  0  2  0  0  0  0  0  0
  1 14  1  6  0  0  0
  1 19  1  0  0  0  0
  1  2  1  0  0  0  0
  2  7  1  0  0  0  0
  2  3  2  0  0  0  0
  4  5  1  0  0  0  0
  4  7  2  0  0  0  0
  5  6  2  0  0  0  0
  6  8  1  0  0  0  0
  7  9  1  0  0  0  0
  9  8  2  0  0  0  0
 10  6  1  0  0  0  0
 12 11  1  0  0  0  0
 12 10  1  0  0  0  0
 13 12  2  0  0  0  0
 15 14  1  0  0  0  0
 16 15  1  0  0  0  0
 17 16  1  0  0  0  0
 18 17  1  0  0  0  0
 20 19  1  0  0  0  0
 20 21  1  0  0  0  0
 21 22  1  0  0  0  0
 22 23  1  0  0  0  0
 23 24  1  0  0  0  0
 24 25  1  0  0  0  0
 25 30  1  0  0  0  0
 27 26  1  0  0  0  0
 28 30  1  0  0  0  0
 29 32  1  6  0  0  0
 29 26  1  0  0  0  0
 30 27  2  0  0  0  0
 31 28  2  0  0  0  0
 31 29  1  0  0  0  0
 33 32  2  0  0  0  0
M  END
>  <MODEL>
9

>  <REMARK>
 VINA RESULT:      -7.0      2.474      6.370
  Name = 
  16 active torsions:
  status: ('A' for Active; 'I' for Inactive)
    1  A    between atoms: C_1  and  C_21
    2  A    between atoms: N_3  and  C_13
    3  A    between atoms: C_4  and  C_9
    4  A    between atoms: C_4  and  C_24
    5  A    between atoms: C_6  and  C_26
    6  A    between atoms: C_6  and  C_30
    7  A    between atoms: C_8  and  C_29
    8  A    between atoms: C_8  and  C_30
    9  A    between atoms: C_9  and  C_27
   10  A    between atoms: C_12  and  C_17
   11  A    between atoms: C_12  and  C_27
   12  A    between atoms: C_15  and  N_19
   13  A    between atoms: C_15  and  C_27
   14  A    between atoms: N_19  and  C_26
   15  A    between atoms: C_20  and  C_24
   16  A    between atoms: C_25  and  C_29
                            x       y       z     vdW  Elec       q    Type
                         _______ _______ _______ _____ _____    ______ ____

>  <TORSDO>
F 16

$$$$
