=
 OpenBabel10222420123D

 27 29  0  0  1  0  0  0  0  0999 V2000
  190.9790  176.8530  144.7780 C   0  0  0  0  0  2  0  0  0  0  0  0
  191.6660  179.1480  144.0800 C   0  0  0  0  0  1  0  0  0  0  0  0
  191.3060  177.7550  143.5990 C   0  0  2  0  0  3  0  0  0  0  0  0
  190.1920  177.8050  142.6530 N   0  0  0  0  0  2  0  0  0  0  0  0
  191.4580  177.5040  140.7180 O   0  0  0  0  0  0  0  0  0  0  0  0
  190.3230  177.7120  141.2270 C   0  0  0  0  0  0  0  0  0  0  0  0
  189.1630  177.8780  140.3880 N   0  0  0  0  0  0  0  0  0  0  0  0
  187.9240  178.3250  141.0170 C   0  0  0  0  0  1  0  0  0  0  0  0
  189.1030  178.4300  136.6810 C   0  0  0  0  0  3  0  0  0  0  0  0
  189.1830  177.6250  138.9650 C   0  0  0  0  0  0  0  0  0  0  0  0
  189.0950  178.6900  138.0520 C   0  0  0  0  0  3  0  0  0  0  0  0
  189.1950  177.1160  136.2250 C   0  0  0  0  0  3  0  0  0  0  0  0
  189.2680  176.3520  138.4840 N   0  0  0  0  0  0  0  0  0  0  0  0
  189.2770  176.0780  137.1530 C   0  0  0  0  0  3  0  0  0  0  0  0
  189.5420  176.6350  144.8460 N   0  0  0  0  0  2  0  0  0  0  0  0
  189.0780  177.1710  146.1170 C   0  0  0  0  0  2  0  0  0  0  0  0
  187.6830  177.6850  145.9840 C   0  0  0  0  0  0  0  0  0  0  0  0
  185.7530  178.1630  144.6030 C   0  0  0  0  0  0  0  0  0  0  0  0
  185.1400  178.1820  143.3920 N   0  0  0  0  0  2  0  0  0  0  0  0
  183.1760  179.1000  144.3860 C   0  0  0  0  0  3  0  0  0  0  0  0
  183.8670  178.6410  143.2610 C   0  0  0  0  0  0  0  0  0  0  0  0
  187.0630  177.6960  144.7290 C   0  0  0  0  0  3  0  0  0  0  0  0
  186.9870  178.1390  147.1130 C   0  0  0  0  0  3  0  0  0  0  0  0
  185.6750  178.6080  146.9920 C   0  0  0  0  0  3  0  0  0  0  0  0
  185.0550  178.6230  145.7400 C   0  0  0  0  0  0  0  0  0  0  0  0
  183.7840  179.0800  145.6010 N   0  0  0  0  0  0  0  0  0  0  0  0
  183.3130  178.6510  142.1310 O   0  0  0  0  0  0  0  0  0  0  0  0
  1 15  1  0  0  0  0
  3  2  1  1  0  0  0
  3  1  1  0  0  0  0
  4  3  1  0  0  0  0
  5  6  2  0  0  0  0
  6  4  1  0  0  0  0
  7  8  1  0  0  0  0
  7  6  1  0  0  0  0
  9 11  1  0  0  0  0
 10  7  1  0  0  0  0
 11 10  2  0  0  0  0
 12  9  2  0  0  0  0
 12 14  1  0  0  0  0
 13 10  1  0  0  0  0
 14 13  2  0  0  0  0
 15 16  1  0  0  0  0
 17 16  1  0  0  0  0
 17 23  1  0  0  0  0
 18 22  1  0  0  0  0
 18 25  2  0  0  0  0
 19 18  1  0  0  0  0
 20 26  2  0  0  0  0
 21 19  1  0  0  0  0
 21 20  1  0  0  0  0
 22 17  2  0  0  0  0
 24 23  2  0  0  0  0
 25 24  1  0  0  0  0
 26 25  1  0  0  0  0
 27 21  2  0  0  0  0
M  END
>  <MODEL>
1

>  <REMARK>
 VINA RESULT:      -8.7      0.000      0.000
  Name = 
  6 active torsions:
  status: ('A' for Active; 'I' for Inactive)
    1  A    between atoms: C_2  and  C_3
    2  A    between atoms: C_3  and  N_25
    3  A    between atoms: N_6  and  C_24
    4  A    between atoms: C_7  and  N_26
    5  A    between atoms: C_15  and  C_24
    6  A    between atoms: C_15  and  N_25
                            x       y       z     vdW  Elec       q    Type
                         _______ _______ _______ _____ _____    ______ ____

>  <TORSDO>
F 6

$$$$
=
 OpenBabel10222420123D

 27 29  0  0  1  0  0  0  0  0999 V2000
  184.8790  179.5140  144.1440 C   0  0  0  0  0  2  0  0  0  0  0  0
  183.7780  178.3370  142.2380 C   0  0  0  0  0  1  0  0  0  0  0  0
  184.8760  179.3060  142.6380 C   0  0  2  0  0  3  0  0  0  0  0  0
  186.1790  178.8350  142.1710 N   0  0  0  0  0  2  0  0  0  0  0  0
  185.7190  178.9670  139.8890 O   0  0  0  0  0  0  0  0  0  0  0  0
  186.5370  178.6480  140.7940 C   0  0  0  0  0  0  0  0  0  0  0  0
  187.8180  178.0800  140.4580 N   0  0  0  0  0  0  0  0  0  0  0  0
  188.6300  177.5380  141.5420 C   0  0  0  0  0  1  0  0  0  0  0  0
  189.0070  176.7490  137.1610 C   0  0  0  0  0  3  0  0  0  0  0  0
  188.3190  178.0250  139.1030 C   0  0  0  0  0  0  0  0  0  0  0  0
  188.5110  176.7880  138.4650 C   0  0  0  0  0  3  0  0  0  0  0  0
  189.3110  177.9380  136.4990 C   0  0  0  0  0  3  0  0  0  0  0  0
  188.6290  179.1680  138.4270 N   0  0  0  0  0  0  0  0  0  0  0  0
  189.1140  179.1520  137.1570 C   0  0  0  0  0  3  0  0  0  0  0  0
  185.2390  178.2710  144.8100 N   0  0  0  0  0  2  0  0  0  0  0  0
  185.5840  178.5970  146.1860 C   0  0  0  0  0  2  0  0  0  0  0  0
  186.9730  178.1440  146.4930 C   0  0  0  0  0  0  0  0  0  0  0  0
  189.1060  177.2830  145.7390 C   0  0  0  0  0  0  0  0  0  0  0  0
  189.9200  176.8420  144.7460 N   0  0  0  0  0  2  0  0  0  0  0  0
  191.6680  176.4690  146.3270 C   0  0  0  0  0  3  0  0  0  0  0  0
  191.1900  176.4350  145.0140 C   0  0  0  0  0  0  0  0  0  0  0  0
  187.8010  177.6940  145.4580 C   0  0  0  0  0  3  0  0  0  0  0  0
  187.4550  178.1860  147.8090 C   0  0  0  0  0  3  0  0  0  0  0  0
  188.7610  177.7750  148.0950 C   0  0  0  0  0  3  0  0  0  0  0  0
  189.5880  177.3220  147.0640 C   0  0  0  0  0  0  0  0  0  0  0  0
  190.8570  176.9130  147.3240 N   0  0  0  0  0  0  0  0  0  0  0  0
  191.9320  176.0290  144.0820 O   0  0  0  0  0  0  0  0  0  0  0  0
  1 15  1  0  0  0  0
  3  2  1  1  0  0  0
  3  1  1  0  0  0  0
  4  3  1  0  0  0  0
  5  6  2  0  0  0  0
  6  4  1  0  0  0  0
  7  6  1  0  0  0  0
  7  8  1  0  0  0  0
  9 11  1  0  0  0  0
 10  7  1  0  0  0  0
 11 10  2  0  0  0  0
 12 14  1  0  0  0  0
 12  9  2  0  0  0  0
 13 10  1  0  0  0  0
 14 13  2  0  0  0  0
 15 16  1  0  0  0  0
 16 17  1  0  0  0  0
 17 23  1  0  0  0  0
 18 25  2  0  0  0  0
 19 21  1  0  0  0  0
 19 18  1  0  0  0  0
 20 26  2  0  0  0  0
 21 20  1  0  0  0  0
 22 18  1  0  0  0  0
 22 17  2  0  0  0  0
 23 24  2  0  0  0  0
 25 26  1  0  0  0  0
 25 24  1  0  0  0  0
 27 21  2  0  0  0  0
M  END
>  <MODEL>
2

>  <REMARK>
 VINA RESULT:      -8.5      1.681      4.924
  Name = 
  6 active torsions:
  status: ('A' for Active; 'I' for Inactive)
    1  A    between atoms: C_2  and  C_3
    2  A    between atoms: C_3  and  N_25
    3  A    between atoms: N_6  and  C_24
    4  A    between atoms: C_7  and  N_26
    5  A    between atoms: C_15  and  C_24
    6  A    between atoms: C_15  and  N_25
                            x       y       z     vdW  Elec       q    Type
                         _______ _______ _______ _____ _____    ______ ____

>  <TORSDO>
F 6

$$$$
=
 OpenBabel10222420123D

 27 29  0  0  1  0  0  0  0  0999 V2000
  187.2160  178.0390  147.1620 C   0  0  0  0  0  2  0  0  0  0  0  0
  189.2990  176.7930  147.7430 C   0  0  0  0  0  1  0  0  0  0  0  0
  188.3270  177.1460  146.6320 C   0  0  2  0  0  3  0  0  0  0  0  0
  189.0250  177.7830  145.5170 N   0  0  0  0  0  2  0  0  0  0  0  0
  188.1320  176.4440  143.8300 O   0  0  0  0  0  0  0  0  0  0  0  0
  188.9220  177.3740  144.1450 C   0  0  0  0  0  0  0  0  0  0  0  0
  189.7380  178.0140  143.1440 N   0  0  0  0  0  0  0  0  0  0  0  0
  190.7800  178.9300  143.5950 C   0  0  0  0  0  1  0  0  0  0  0  0
  188.3390  178.1310  139.6680 C   0  0  0  0  0  3  0  0  0  0  0  0
  189.5660  177.7800  141.7270 C   0  0  0  0  0  0  0  0  0  0  0  0
  188.4990  178.3750  141.0320 C   0  0  0  0  0  3  0  0  0  0  0  0
  189.2350  177.2950  139.0020 C   0  0  0  0  0  3  0  0  0  0  0  0
  190.4220  176.9660  141.0460 N   0  0  0  0  0  0  0  0  0  0  0  0
  190.2830  176.7150  139.7170 C   0  0  0  0  0  3  0  0  0  0  0  0
  186.0150  177.8560  146.3610 N   0  0  0  0  0  2  0  0  0  0  0  0
  185.5550  179.1760  145.9560 C   0  0  0  0  0  2  0  0  0  0  0  0
  184.7300  179.0790  144.7150 C   0  0  0  0  0  0  0  0  0  0  0  0
  184.5750  179.1170  142.3000 C   0  0  0  0  0  0  0  0  0  0  0  0
  185.1530  179.2540  141.0790 N   0  0  0  0  0  2  0  0  0  0  0  0
  183.0380  178.9180  140.0270 C   0  0  0  0  0  3  0  0  0  0  0  0
  184.4120  179.1600  139.9420 C   0  0  0  0  0  0  0  0  0  0  0  0
  185.3410  179.2210  143.4630 C   0  0  0  0  0  3  0  0  0  0  0  0
  183.3530  178.8300  144.8000 C   0  0  0  0  0  3  0  0  0  0  0  0
  182.5830  178.7260  143.6380 C   0  0  0  0  0  3  0  0  0  0  0  0
  183.1890  178.8690  142.3870 C   0  0  0  0  0  0  0  0  0  0  0  0
  182.4560  178.7770  141.2470 N   0  0  0  0  0  0  0  0  0  0  0  0
  184.9620  179.2890  138.8180 O   0  0  0  0  0  0  0  0  0  0  0  0
  3  1  1  0  0  0  0
  3  2  1  1  0  0  0
  4  3  1  0  0  0  0
  5  6  2  0  0  0  0
  6  4  1  0  0  0  0
  7  8  1  0  0  0  0
  7  6  1  0  0  0  0
  9 11  1  0  0  0  0
 10  7  1  0  0  0  0
 11 10  2  0  0  0  0
 12  9  2  0  0  0  0
 12 14  1  0  0  0  0
 13 10  1  0  0  0  0
 14 13  2  0  0  0  0
 15  1  1  0  0  0  0
 16 15  1  0  0  0  0
 17 23  1  0  0  0  0
 17 16  1  0  0  0  0
 18 25  2  0  0  0  0
 18 22  1  0  0  0  0
 19 18  1  0  0  0  0
 20 26  2  0  0  0  0
 21 20  1  0  0  0  0
 21 19  1  0  0  0  0
 22 17  2  0  0  0  0
 24 23  2  0  0  0  0
 25 24  1  0  0  0  0
 26 25  1  0  0  0  0
 27 21  2  0  0  0  0
M  END
>  <MODEL>
3

>  <REMARK>
 VINA RESULT:      -8.5      2.043      3.683
  Name = 
  6 active torsions:
  status: ('A' for Active; 'I' for Inactive)
    1  A    between atoms: C_2  and  C_3
    2  A    between atoms: C_3  and  N_25
    3  A    between atoms: N_6  and  C_24
    4  A    between atoms: C_7  and  N_26
    5  A    between atoms: C_15  and  C_24
    6  A    between atoms: C_15  and  N_25
                            x       y       z     vdW  Elec       q    Type
                         _______ _______ _______ _____ _____    ______ ____

>  <TORSDO>
F 6

$$$$
=
 OpenBabel10222420123D

 27 29  0  0  1  0  0  0  0  0999 V2000
  189.2690  177.3610  147.8980 C   0  0  0  0  0  2  0  0  0  0  0  0
  191.5760  176.4520  147.6160 C   0  0  0  0  0  1  0  0  0  0  0  0
  190.2560  176.7400  146.9230 C   0  0  2  0  0  3  0  0  0  0  0  0
  190.4590  177.6040  145.7610 N   0  0  0  0  0  2  0  0  0  0  0  0
  190.1230  175.9640  144.1370 O   0  0  0  0  0  0  0  0  0  0  0  0
  190.4180  177.1630  144.3960 C   0  0  0  0  0  0  0  0  0  0  0  0
  190.7350  178.0860  143.3350 N   0  0  0  0  0  0  0  0  0  0  0  0
  191.2720  179.3910  143.7030 C   0  0  0  0  0  1  0  0  0  0  0  0
  191.4500  177.1370  139.7790 C   0  0  0  0  0  3  0  0  0  0  0  0
  190.5460  177.7670  141.9370 C   0  0  0  0  0  0  0  0  0  0  0  0
  191.6460  177.4310  141.1290 C   0  0  0  0  0  3  0  0  0  0  0  0
  190.1660  177.1830  139.2380 C   0  0  0  0  0  3  0  0  0  0  0  0
  189.3040  177.8040  141.3750 N   0  0  0  0  0  0  0  0  0  0  0  0
  189.0930  177.5230  140.0620 C   0  0  0  0  0  3  0  0  0  0  0  0
  187.9140  176.9690  147.5430 N   0  0  0  0  0  2  0  0  0  0  0  0
  187.1340  178.1870  147.3810 C   0  0  0  0  0  2  0  0  0  0  0  0
  186.4350  178.1850  146.0620 C   0  0  0  0  0  0  0  0  0  0  0  0
  184.4560  178.6360  144.7450 C   0  0  0  0  0  0  0  0  0  0  0  0
  183.1680  179.0560  144.6490 N   0  0  0  0  0  2  0  0  0  0  0  0
  183.1940  178.6390  142.3000 C   0  0  0  0  0  3  0  0  0  0  0  0
  182.5250  179.0660  143.4500 C   0  0  0  0  0  0  0  0  0  0  0  0
  185.1080  178.6230  145.9790 C   0  0  0  0  0  3  0  0  0  0  0  0
  187.1090  177.7640  144.9070 C   0  0  0  0  0  3  0  0  0  0  0  0
  186.4590  177.7760  143.6690 C   0  0  0  0  0  3  0  0  0  0  0  0
  185.1340  178.2090  143.5830 C   0  0  0  0  0  0  0  0  0  0  0  0
  184.4840  178.2210  142.3900 N   0  0  0  0  0  0  0  0  0  0  0  0
  181.3310  179.4580  143.3780 O   0  0  0  0  0  0  0  0  0  0  0  0
  3  2  1  1  0  0  0
  3  1  1  0  0  0  0
  4  3  1  0  0  0  0
  5  6  2  0  0  0  0
  6  4  1  0  0  0  0
  7  8  1  0  0  0  0
  7  6  1  0  0  0  0
  9 11  1  0  0  0  0
 10  7  1  0  0  0  0
 11 10  2  0  0  0  0
 12  9  2  0  0  0  0
 12 14  1  0  0  0  0
 13 10  1  0  0  0  0
 14 13  2  0  0  0  0
 15  1  1  0  0  0  0
 16 15  1  0  0  0  0
 17 16  1  0  0  0  0
 18 22  2  0  0  0  0
 19 18  1  0  0  0  0
 20 26  2  0  0  0  0
 20 21  1  0  0  0  0
 21 19  1  0  0  0  0
 22 17  1  0  0  0  0
 23 17  2  0  0  0  0
 24 23  1  0  0  0  0
 25 24  2  0  0  0  0
 25 18  1  0  0  0  0
 26 25  1  0  0  0  0
 27 21  2  0  0  0  0
M  END
>  <MODEL>
4

>  <REMARK>
 VINA RESULT:      -8.2      1.793      3.150
  Name = 
  6 active torsions:
  status: ('A' for Active; 'I' for Inactive)
    1  A    between atoms: C_2  and  C_3
    2  A    between atoms: C_3  and  N_25
    3  A    between atoms: N_6  and  C_24
    4  A    between atoms: C_7  and  N_26
    5  A    between atoms: C_15  and  C_24
    6  A    between atoms: C_15  and  N_25
                            x       y       z     vdW  Elec       q    Type
                         _______ _______ _______ _____ _____    ______ ____

>  <TORSDO>
F 6

$$$$
=
 OpenBabel10222420123D

 27 29  0  0  1  0  0  0  0  0999 V2000
  185.2780  179.4310  142.6100 C   0  0  0  0  0  2  0  0  0  0  0  0
  185.1700  178.5790  140.2670 C   0  0  0  0  0  1  0  0  0  0  0  0
  186.0650  179.1840  141.3340 C   0  0  2  0  0  3  0  0  0  0  0  0
  187.2200  178.3240  141.5890 N   0  0  0  0  0  2  0  0  0  0  0  0
  188.3330  178.7560  139.5850 O   0  0  0  0  0  0  0  0  0  0  0  0
  188.3050  178.1160  140.6720 C   0  0  0  0  0  0  0  0  0  0  0  0
  189.3400  177.1660  140.9910 N   0  0  0  0  0  0  0  0  0  0  0  0
  189.1440  176.3080  142.1540 C   0  0  0  0  0  1  0  0  0  0  0  0
  191.6880  176.2670  138.2100 C   0  0  0  0  0  3  0  0  0  0  0  0
  190.5470  177.0300  140.2060 C   0  0  0  0  0  0  0  0  0  0  0  0
  190.5130  176.4020  138.9500 C   0  0  0  0  0  3  0  0  0  0  0  0
  192.8900  176.7530  138.7220 C   0  0  0  0  0  3  0  0  0  0  0  0
  191.7400  177.4920  140.6780 N   0  0  0  0  0  0  0  0  0  0  0  0
  192.8960  177.3700  139.9730 C   0  0  0  0  0  3  0  0  0  0  0  0
  185.2760  178.2270  143.4270 N   0  0  0  0  0  2  0  0  0  0  0  0
  185.0150  178.6320  144.8010 C   0  0  0  0  0  2  0  0  0  0  0  0
  186.1970  178.3340  145.6620 C   0  0  0  0  0  0  0  0  0  0  0  0
  188.4910  177.5920  145.8800 C   0  0  0  0  0  0  0  0  0  0  0  0
  189.6420  177.1270  145.3310 N   0  0  0  0  0  2  0  0  0  0  0  0
  190.6630  177.0670  147.4860 C   0  0  0  0  0  3  0  0  0  0  0  0
  190.7280  176.8610  146.1050 C   0  0  0  0  0  0  0  0  0  0  0  0
  187.3780  177.8580  145.0800 C   0  0  0  0  0  3  0  0  0  0  0  0
  186.1350  178.5480  147.0460 C   0  0  0  0  0  3  0  0  0  0  0  0
  187.2470  178.2840  147.8510 C   0  0  0  0  0  3  0  0  0  0  0  0
  188.4250  177.8050  147.2740 C   0  0  0  0  0  0  0  0  0  0  0  0
  189.5130  177.5360  148.0410 N   0  0  0  0  0  0  0  0  0  0  0  0
  191.7870  176.4310  145.5800 O   0  0  0  0  0  0  0  0  0  0  0  0
  1 15  1  0  0  0  0
  3  2  1  6  0  0  0
  3  4  1  0  0  0  0
  3  1  1  0  0  0  0
  5  6  2  0  0  0  0
  6  7  1  0  0  0  0
  6  4  1  0  0  0  0
  7  8  1  0  0  0  0
  9 12  2  0  0  0  0
  9 11  1  0  0  0  0
 10 13  1  0  0  0  0
 10  7  1  0  0  0  0
 11 10  2  0  0  0  0
 12 14  1  0  0  0  0
 14 13  2  0  0  0  0
 15 16  1  0  0  0  0
 16 17  1  0  0  0  0
 17 23  1  0  0  0  0
 18 25  2  0  0  0  0
 19 18  1  0  0  0  0
 19 21  1  0  0  0  0
 20 26  2  0  0  0  0
 21 20  1  0  0  0  0
 22 17  2  0  0  0  0
 22 18  1  0  0  0  0
 23 24  2  0  0  0  0
 25 24  1  0  0  0  0
 25 26  1  0  0  0  0
 27 21  2  0  0  0  0
M  END
>  <MODEL>
5

>  <REMARK>
 VINA RESULT:      -8.1      2.222      4.747
  Name = 
  6 active torsions:
  status: ('A' for Active; 'I' for Inactive)
    1  A    between atoms: C_2  and  C_3
    2  A    between atoms: C_3  and  N_25
    3  A    between atoms: N_6  and  C_24
    4  A    between atoms: C_7  and  N_26
    5  A    between atoms: C_15  and  C_24
    6  A    between atoms: C_15  and  N_25
                            x       y       z     vdW  Elec       q    Type
                         _______ _______ _______ _____ _____    ______ ____

>  <TORSDO>
F 6

$$$$
=
 OpenBabel10222420123D

 27 29  0  0  1  0  0  0  0  0999 V2000
  189.5620  176.8220  147.7330 C   0  0  0  0  0  2  0  0  0  0  0  0
  191.9380  176.1850  147.3140 C   0  0  0  0  0  1  0  0  0  0  0  0
  190.5650  176.3540  146.6910 C   0  0  2  0  0  3  0  0  0  0  0  0
  190.6190  177.2810  145.5620 N   0  0  0  0  0  2  0  0  0  0  0  0
  190.8970  175.6720  143.8970 O   0  0  0  0  0  0  0  0  0  0  0  0
  190.8220  176.8950  144.1940 C   0  0  0  0  0  0  0  0  0  0  0  0
  190.9600  177.9070  143.1780 N   0  0  0  0  0  0  0  0  0  0  0  0
  191.0760  179.2970  143.6080 C   0  0  0  0  0  1  0  0  0  0  0  0
  189.8400  177.1100  139.6890 C   0  0  0  0  0  3  0  0  0  0  0  0
  190.9900  177.5990  141.7650 C   0  0  0  0  0  0  0  0  0  0  0  0
  189.7950  177.4200  141.0490 C   0  0  0  0  0  3  0  0  0  0  0  0
  191.0710  176.9780  139.0490 C   0  0  0  0  0  3  0  0  0  0  0  0
  192.1780  177.4600  141.1080 N   0  0  0  0  0  0  0  0  0  0  0  0
  192.2430  177.1590  139.7840 C   0  0  0  0  0  3  0  0  0  0  0  0
  188.7360  177.8840  147.1790 N   0  0  0  0  0  2  0  0  0  0  0  0
  187.3460  177.5180  147.4020 C   0  0  0  0  0  2  0  0  0  0  0  0
  186.5050  177.9450  146.2450 C   0  0  0  0  0  0  0  0  0  0  0  0
  186.2520  178.3070  143.8650 C   0  0  0  0  0  0  0  0  0  0  0  0
  186.7580  178.2920  142.6060 N   0  0  0  0  0  2  0  0  0  0  0  0
  184.6770  179.0830  141.7470 C   0  0  0  0  0  3  0  0  0  0  0  0
  185.9970  178.6710  141.5430 C   0  0  0  0  0  0  0  0  0  0  0  0
  187.0400  177.9220  144.9520 C   0  0  0  0  0  3  0  0  0  0  0  0
  185.1780  178.3510  146.4480 C   0  0  0  0  0  3  0  0  0  0  0  0
  184.3860  178.7370  145.3630 C   0  0  0  0  0  3  0  0  0  0  0  0
  184.9180  178.7180  144.0710 C   0  0  0  0  0  0  0  0  0  0  0  0
  184.1650  179.0960  143.0060 N   0  0  0  0  0  0  0  0  0  0  0  0
  186.4810  178.6510  140.3820 O   0  0  0  0  0  0  0  0  0  0  0  0
  3  2  1  1  0  0  0
  3  1  1  0  0  0  0
  4  3  1  0  0  0  0
  5  6  2  0  0  0  0
  6  4  1  0  0  0  0
  7  8  1  0  0  0  0
  7  6  1  0  0  0  0
  9 11  1  0  0  0  0
 10  7  1  0  0  0  0
 11 10  2  0  0  0  0
 12  9  2  0  0  0  0
 12 14  1  0  0  0  0
 13 10  1  0  0  0  0
 14 13  2  0  0  0  0
 15 16  1  0  0  0  0
 15  1  1  0  0  0  0
 17 23  1  0  0  0  0
 17 16  1  0  0  0  0
 18 25  2  0  0  0  0
 18 22  1  0  0  0  0
 19 18  1  0  0  0  0
 20 26  2  0  0  0  0
 21 20  1  0  0  0  0
 21 19  1  0  0  0  0
 22 17  2  0  0  0  0
 24 23  2  0  0  0  0
 25 24  1  0  0  0  0
 26 25  1  0  0  0  0
 27 21  2  0  0  0  0
M  END
>  <MODEL>
6

>  <REMARK>
 VINA RESULT:      -8.1      2.115      3.027
  Name = 
  6 active torsions:
  status: ('A' for Active; 'I' for Inactive)
    1  A    between atoms: C_2  and  C_3
    2  A    between atoms: C_3  and  N_25
    3  A    between atoms: N_6  and  C_24
    4  A    between atoms: C_7  and  N_26
    5  A    between atoms: C_15  and  C_24
    6  A    between atoms: C_15  and  N_25
                            x       y       z     vdW  Elec       q    Type
                         _______ _______ _______ _____ _____    ______ ____

>  <TORSDO>
F 6

$$$$
=
 OpenBabel10222420123D

 27 29  0  0  1  0  0  0  0  0999 V2000
  185.7360  178.1550  139.0200 C   0  0  0  0  0  2  0  0  0  0  0  0
  187.1980  178.5160  137.0290 C   0  0  0  0  0  1  0  0  0  0  0  0
  187.0990  178.6270  138.5400 C   0  0  2  0  0  3  0  0  0  0  0  0
  188.1730  177.8740  139.1860 N   0  0  0  0  0  2  0  0  0  0  0  0
  188.1010  178.9900  141.2320 O   0  0  0  0  0  0  0  0  0  0  0  0
  188.6590  178.1170  140.5140 C   0  0  0  0  0  0  0  0  0  0  0  0
  189.7930  177.3760  141.0080 N   0  0  0  0  0  0  0  0  0  0  0  0
  190.5240  176.5370  140.0650 C   0  0  0  0  0  1  0  0  0  0  0  0
  190.0040  176.7530  144.6990 C   0  0  0  0  0  3  0  0  0  0  0  0
  190.2280  177.4380  142.3860 C   0  0  0  0  0  0  0  0  0  0  0  0
  189.5810  176.6740  143.3720 C   0  0  0  0  0  3  0  0  0  0  0  0
  191.0640  177.5910  145.0400 C   0  0  0  0  0  3  0  0  0  0  0  0
  191.2600  178.2490  142.7550 N   0  0  0  0  0  0  0  0  0  0  0  0
  191.6870  178.3410  144.0420 C   0  0  0  0  0  3  0  0  0  0  0  0
  185.1840  179.1190  139.9590 N   0  0  0  0  0  2  0  0  0  0  0  0
  183.9730  178.5390  140.5190 C   0  0  0  0  0  2  0  0  0  0  0  0
  184.0230  178.5730  142.0100 C   0  0  0  0  0  0  0  0  0  0  0  0
  185.2640  178.2780  144.0670 C   0  0  0  0  0  0  0  0  0  0  0  0
  186.4060  177.9490  144.7240 N   0  0  0  0  0  2  0  0  0  0  0  0
  185.3380  178.3640  146.8160 C   0  0  0  0  0  3  0  0  0  0  0  0
  186.4650  177.9840  146.0820 C   0  0  0  0  0  0  0  0  0  0  0  0
  185.2080  178.2340  142.6730 C   0  0  0  0  0  3  0  0  0  0  0  0
  182.8950  178.9610  142.7460 C   0  0  0  0  0  3  0  0  0  0  0  0
  182.9460  179.0070  144.1430 C   0  0  0  0  0  3  0  0  0  0  0  0
  184.1270  178.6650  144.8070 C   0  0  0  0  0  0  0  0  0  0  0  0
  184.1930  178.6970  146.1630 N   0  0  0  0  0  0  0  0  0  0  0  0
  187.5310  177.6770  146.6750 O   0  0  0  0  0  0  0  0  0  0  0  0
  1 15  1  0  0  0  0
  3  2  1  6  0  0  0
  3  1  1  0  0  0  0
  3  4  1  0  0  0  0
  4  6  1  0  0  0  0
  6  7  1  0  0  0  0
  6  5  2  0  0  0  0
  7 10  1  0  0  0  0
  8  7  1  0  0  0  0
  9 12  1  0  0  0  0
 10 13  2  0  0  0  0
 10 11  1  0  0  0  0
 11  9  2  0  0  0  0
 13 14  1  0  0  0  0
 14 12  2  0  0  0  0
 15 16  1  0  0  0  0
 16 17  1  0  0  0  0
 17 22  2  0  0  0  0
 17 23  1  0  0  0  0
 18 19  1  0  0  0  0
 18 25  2  0  0  0  0
 19 21  1  0  0  0  0
 21 27  2  0  0  0  0
 21 20  1  0  0  0  0
 22 18  1  0  0  0  0
 23 24  2  0  0  0  0
 24 25  1  0  0  0  0
 25 26  1  0  0  0  0
 26 20  2  0  0  0  0
M  END
>  <MODEL>
7

>  <REMARK>
 VINA RESULT:      -8.0      2.099      5.344
  Name = 
  6 active torsions:
  status: ('A' for Active; 'I' for Inactive)
    1  A    between atoms: C_2  and  C_3
    2  A    between atoms: C_3  and  N_25
    3  A    between atoms: N_6  and  C_24
    4  A    between atoms: C_7  and  N_26
    5  A    between atoms: C_15  and  C_24
    6  A    between atoms: C_15  and  N_25
                            x       y       z     vdW  Elec       q    Type
                         _______ _______ _______ _____ _____    ______ ____

>  <TORSDO>
F 6

$$$$
=
 OpenBabel10222420123D

 27 29  0  0  1  0  0  0  0  0999 V2000
  183.8360  178.3550  141.0850 C   0  0  0  0  0  2  0  0  0  0  0  0
  183.9980  179.7920  139.0510 C   0  0  0  0  0  1  0  0  0  0  0  0
  184.7570  179.2100  140.2300 C   0  0  2  0  0  3  0  0  0  0  0  0
  185.9120  178.4390  139.7710 N   0  0  0  0  0  2  0  0  0  0  0  0
  187.3610  179.0660  141.4860 O   0  0  0  0  0  0  0  0  0  0  0  0
  187.1970  178.4290  140.4110 C   0  0  0  0  0  0  0  0  0  0  0  0
  188.2910  177.7100  139.8090 N   0  0  0  0  0  0  0  0  0  0  0  0
  188.0990  177.1720  138.4660 C   0  0  0  0  0  1  0  0  0  0  0  0
  190.8270  176.9910  142.4750 C   0  0  0  0  0  3  0  0  0  0  0  0
  189.5570  177.5090  140.4770 C   0  0  0  0  0  0  0  0  0  0  0  0
  189.5970  177.1700  141.8410 C   0  0  0  0  0  3  0  0  0  0  0  0
  192.0090  177.1520  141.7550 C   0  0  0  0  0  3  0  0  0  0  0  0
  190.7330  177.6610  139.8030 N   0  0  0  0  0  0  0  0  0  0  0  0
  191.9410  177.4920  140.4040 C   0  0  0  0  0  3  0  0  0  0  0  0
  184.5550  177.8800  142.2580 N   0  0  0  0  0  2  0  0  0  0  0  0
  184.0770  178.6420  143.4020 C   0  0  0  0  0  2  0  0  0  0  0  0
  184.9870  178.4510  144.5690 C   0  0  0  0  0  0  0  0  0  0  0  0
  187.1550  177.8330  145.4500 C   0  0  0  0  0  0  0  0  0  0  0  0
  188.4270  177.3950  145.2650 N   0  0  0  0  0  2  0  0  0  0  0  0
  188.8200  177.5050  147.6160 C   0  0  0  0  0  3  0  0  0  0  0  0
  189.2670  177.2250  146.3210 C   0  0  0  0  0  0  0  0  0  0  0  0
  186.2960  178.0000  144.3620 C   0  0  0  0  0  3  0  0  0  0  0  0
  184.5410  178.7380  145.8670 C   0  0  0  0  0  3  0  0  0  0  0  0
  185.3980  178.5730  146.9590 C   0  0  0  0  0  3  0  0  0  0  0  0
  186.7040  178.1200  146.7560 C   0  0  0  0  0  0  0  0  0  0  0  0
  187.5490  177.9470  147.8050 N   0  0  0  0  0  0  0  0  0  0  0  0
  190.4420  176.8180  146.1330 O   0  0  0  0  0  0  0  0  0  0  0  0
  1 15  1  0  0  0  0
  3  2  1  6  0  0  0
  3  1  1  0  0  0  0
  4  3  1  0  0  0  0
  4  6  1  0  0  0  0
  6  5  2  0  0  0  0
  7  6  1  0  0  0  0
  7 10  1  0  0  0  0
  8  7  1  0  0  0  0
 10 11  2  0  0  0  0
 11  9  1  0  0  0  0
 12  9  2  0  0  0  0
 13 14  2  0  0  0  0
 13 10  1  0  0  0  0
 14 12  1  0  0  0  0
 15 16  1  0  0  0  0
 16 17  1  0  0  0  0
 17 23  1  0  0  0  0
 18 25  2  0  0  0  0
 19 18  1  0  0  0  0
 19 21  1  0  0  0  0
 20 26  2  0  0  0  0
 21 20  1  0  0  0  0
 22 17  2  0  0  0  0
 22 18  1  0  0  0  0
 23 24  2  0  0  0  0
 25 24  1  0  0  0  0
 25 26  1  0  0  0  0
 27 21  2  0  0  0  0
M  END
>  <MODEL>
8

>  <REMARK>
 VINA RESULT:      -7.8      2.227      5.019
  Name = 
  6 active torsions:
  status: ('A' for Active; 'I' for Inactive)
    1  A    between atoms: C_2  and  C_3
    2  A    between atoms: C_3  and  N_25
    3  A    between atoms: N_6  and  C_24
    4  A    between atoms: C_7  and  N_26
    5  A    between atoms: C_15  and  C_24
    6  A    between atoms: C_15  and  N_25
                            x       y       z     vdW  Elec       q    Type
                         _______ _______ _______ _____ _____    ______ ____

>  <TORSDO>
F 6

$$$$
=
 OpenBabel10222420123D

 27 29  0  0  1  0  0  0  0  0999 V2000
  181.5350  178.9010  141.2310 C   0  0  0  0  0  2  0  0  0  0  0  0
  180.5980  179.4210  138.9770 C   0  0  0  0  0  1  0  0  0  0  0  0
  181.8580  179.3730  139.8220 C   0  0  2  0  0  3  0  0  0  0  0  0
  182.8670  178.5160  139.2010 N   0  0  0  0  0  2  0  0  0  0  0  0
  184.6450  180.0150  139.3710 O   0  0  0  0  0  0  0  0  0  0  0  0
  184.2310  178.8950  138.9660 C   0  0  0  0  0  0  0  0  0  0  0  0
  185.1090  178.0020  138.2520 N   0  0  0  0  0  0  0  0  0  0  0  0
  184.5220  176.8220  137.6270 C   0  0  0  0  0  1  0  0  0  0  0  0
  188.4910  178.6380  136.7650 C   0  0  0  0  0  3  0  0  0  0  0  0
  186.5310  178.2340  138.1310 C   0  0  0  0  0  0  0  0  0  0  0  0
  187.1160  178.4280  136.8680 C   0  0  0  0  0  3  0  0  0  0  0  0
  189.2790  178.6520  137.9150 C   0  0  0  0  0  3  0  0  0  0  0  0
  187.3310  178.2510  139.2350 N   0  0  0  0  0  0  0  0  0  0  0  0
  188.6730  178.4540  139.1560 C   0  0  0  0  0  3  0  0  0  0  0  0
  182.7640  178.5500  141.9260 N   0  0  0  0  0  2  0  0  0  0  0  0
  182.6600  179.0630  143.2830 C   0  0  0  0  0  2  0  0  0  0  0  0
  183.8900  178.7270  144.0600 C   0  0  0  0  0  0  0  0  0  0  0  0
  186.1720  177.9230  144.1160 C   0  0  0  0  0  0  0  0  0  0  0  0
  187.2710  177.4330  143.4860 N   0  0  0  0  0  2  0  0  0  0  0  0
  188.4330  177.3270  145.5660 C   0  0  0  0  0  3  0  0  0  0  0  0
  188.3990  177.1320  144.1820 C   0  0  0  0  0  0  0  0  0  0  0  0
  185.0150  178.2250  143.3950 C   0  0  0  0  0  3  0  0  0  0  0  0
  183.9270  178.9300  145.4470 C   0  0  0  0  0  3  0  0  0  0  0  0
  185.0840  178.6280  146.1720 C   0  0  0  0  0  3  0  0  0  0  0  0
  186.2070  178.1240  145.5120 C   0  0  0  0  0  0  0  0  0  0  0  0
  187.3370  177.8200  146.2010 N   0  0  0  0  0  0  0  0  0  0  0  0
  189.4080  176.6790  143.5830 O   0  0  0  0  0  0  0  0  0  0  0  0
  1 15  1  0  0  0  0
  3  2  1  6  0  0  0
  3  1  1  0  0  0  0
  4  3  1  0  0  0  0
  6  4  1  0  0  0  0
  6  5  2  0  0  0  0
  7  6  1  0  0  0  0
  8  7  1  0  0  0  0
  9 11  2  0  0  0  0
  9 12  1  0  0  0  0
 10  7  1  0  0  0  0
 10 13  2  0  0  0  0
 11 10  1  0  0  0  0
 12 14  2  0  0  0  0
 14 13  1  0  0  0  0
 15 16  1  0  0  0  0
 16 17  1  0  0  0  0
 17 23  1  0  0  0  0
 18 25  2  0  0  0  0
 19 18  1  0  0  0  0
 19 21  1  0  0  0  0
 20 26  2  0  0  0  0
 21 20  1  0  0  0  0
 22 17  2  0  0  0  0
 22 18  1  0  0  0  0
 23 24  2  0  0  0  0
 25 24  1  0  0  0  0
 25 26  1  0  0  0  0
 27 21  2  0  0  0  0
M  END
>  <MODEL>
9

>  <REMARK>
 VINA RESULT:      -7.8      2.806      5.707
  Name = 
  6 active torsions:
  status: ('A' for Active; 'I' for Inactive)
    1  A    between atoms: C_2  and  C_3
    2  A    between atoms: C_3  and  N_25
    3  A    between atoms: N_6  and  C_24
    4  A    between atoms: C_7  and  N_26
    5  A    between atoms: C_15  and  C_24
    6  A    between atoms: C_15  and  N_25
                            x       y       z     vdW  Elec       q    Type
                         _______ _______ _______ _____ _____    ______ ____

>  <TORSDO>
F 6

$$$$
