=
 OpenBabel10222419453D

 33 37  0  0  1  0  0  0  0  0999 V2000
  191.4070  176.7060  146.9830 C   0  0  0  0  0  0  0  0  0  0  0  0
  192.1290  176.3950  147.9650 O   0  0  0  0  0  0  0  0  0  0  0  0
  192.0210  177.0440  145.8280 N   0  0  0  0  0  0  0  0  0  0  0  0
  190.2180  177.5750  144.1870 C   0  0  2  0  0  3  0  0  0  0  0  0
  190.0390  176.6770  147.1700 C   0  0  0  0  0  2  0  0  0  0  0  0
  189.0220  176.9650  146.2820 C   0  0  0  0  0  3  0  0  0  0  0  0
  191.5400  177.4180  144.6210 C   0  0  0  0  0  3  0  0  0  0  0  0
  187.9170  177.5740  144.3390 N   0  0  0  0  0  2  0  0  0  0  0  0
  189.0540  177.3670  144.9460 C   0  0  0  0  0  0  0  0  0  0  0  0
  186.5690  178.0030  146.3190 C   0  0  0  0  0  2  0  0  0  0  0  0
  186.5910  177.4040  144.9270 C   0  0  1  0  0  3  0  0  0  0  0  0
  185.1830  178.5800  146.4890 C   0  0  0  0  0  2  0  0  0  0  0  0
  185.5510  178.1610  144.1140 C   0  0  0  0  0  2  0  0  0  0  0  0
  184.7660  179.0110  145.0980 C   0  0  1  0  0  3  0  0  0  0  0  0
  183.2580  178.9010  144.8850 C   0  0  0  0  0  2  0  0  0  0  0  0
  182.7770  179.7000  143.6760 C   0  0  0  0  0  2  0  0  0  0  0  0
  180.6710  178.4580  143.6990 C   0  0  0  0  0  3  0  0  0  0  0  0
  182.9000  178.0050  141.1300 N   0  0  0  0  0  1  0  0  0  0  0  0
  179.5920  177.7740  143.0580 N   0  0  0  0  0  0  0  0  0  0  0  0
  181.6700  178.9820  142.9800 C   0  0  0  0  0  0  0  0  0  0  0  0
  180.5060  178.1740  140.8800 C   0  0  0  0  0  3  0  0  0  0  0  0
  181.7370  178.8030  141.4800 C   0  0  0  0  0  0  0  0  0  0  0  0
  179.5230  177.6830  141.6330 C   0  0  0  0  0  3  0  0  0  0  0  0
  190.0240  177.9820  142.8550 O   0  0  0  0  0  0  0  0  0  0  0  0
  190.0830  177.8750  140.4890 C   0  0  1  0  0  3  0  0  0  0  0  0
  190.0660  177.0950  141.7430 C   0  0  1  0  0  3  0  0  0  0  0  0
  191.2540  177.3120  141.0240 O   0  0  0  0  0  0  0  0  0  0  0  0
  189.5960  177.0090  139.3440 C   0  0  0  0  0  2  0  0  0  0  0  0
  188.1380  179.4540  137.1910 N   0  0  0  0  0  0  0  0  0  0  0  0
  188.7870  177.8270  138.4000 C   0  0  0  0  0  0  0  0  0  0  0  0
  189.1270  179.0540  137.9730 N   0  0  0  0  0  2  0  0  0  0  0  0
  187.1870  178.5350  137.1140 N   0  0  0  0  0  0  0  0  0  0  0  0
  187.5610  177.4870  137.8740 C   0  0  0  0  0  3  0  0  0  0  0  0
  1  5  1  0  0  0  0
  1  2  2  0  0  0  0
  3  1  1  0  0  0  0
  4 24  1  6  0  0  0
  4  7  1  0  0  0  0
  4  9  1  0  0  0  0
  6  5  1  0  0  0  0
  7  3  2  0  0  0  0
  8  9  1  0  0  0  0
  9  6  2  0  0  0  0
 10 12  1  0  0  0  0
 11  8  1  6  0  0  0
 11 10  1  0  0  0  0
 13 11  1  0  0  0  0
 13 14  1  0  0  0  0
 14 15  1  1  0  0  0
 14 12  1  0  0  0  0
 16 15  1  0  0  0  0
 18 22  1  0  0  0  0
 19 17  1  0  0  0  0
 20 16  1  0  0  0  0
 20 17  2  0  0  0  0
 21 22  2  0  0  0  0
 21 23  1  0  0  0  0
 22 20  1  0  0  0  0
 23 19  2  0  0  0  0
 25 28  1  6  0  0  0
 25 27  1  0  0  0  0
 25 26  1  0  0  0  0
 26 24  1  1  0  0  0
 27 26  1  0  0  0  0
 29 31  1  0  0  0  0
 30 28  1  0  0  0  0
 31 30  1  0  0  0  0
 32 29  2  0  0  0  0
 32 33  1  0  0  0  0
 33 30  2  0  0  0  0
M  END
>  <MODEL>
1

>  <REMARK>
 VINA RESULT:      -9.7      0.000      0.000
  Name = 
  8 active torsions:
  status: ('A' for Active; 'I' for Inactive)
    1  A    between atoms: C_6  and  C_25
    2  A    between atoms: C_9  and  C_29
    3  A    between atoms: C_11  and  O_22
    4  A    between atoms: C_13  and  O_22
    5  A    between atoms: C_14  and  C_25
    6  A    between atoms: C_15  and  C_29
    7  A    between atoms: C_15  and  C_32
    8  A    between atoms: C_17  and  N_31
                            x       y       z     vdW  Elec       q    Type
                         _______ _______ _______ _____ _____    ______ ____

>  <TORSDO>
F 8

$$$$
=
 OpenBabel10222419453D

 33 37  0  0  1  0  0  0  0  0999 V2000
  190.9940  176.8600  146.8530 C   0  0  0  0  0  0  0  0  0  0  0  0
  191.5830  176.5480  147.9200 O   0  0  0  0  0  0  0  0  0  0  0  0
  191.7510  177.1660  145.7780 N   0  0  0  0  0  0  0  0  0  0  0  0
  190.1750  177.7120  143.9220 C   0  0  2  0  0  3  0  0  0  0  0  0
  189.6130  176.8630  146.8720 C   0  0  0  0  0  3  0  0  0  0  0  0
  188.7190  177.1600  145.8630 C   0  0  0  0  0  3  0  0  0  0  0  0
  191.4300  177.5330  144.5170 C   0  0  0  0  0  3  0  0  0  0  0  0
  187.8730  177.7640  143.7920 N   0  0  0  0  0  0  0  0  0  0  0  0
  188.9230  177.5410  144.5350 C   0  0  0  0  0  0  0  0  0  0  0  0
  186.1510  178.7130  145.2250 C   0  0  0  0  0  2  0  0  0  0  0  0
  186.4820  177.6320  144.2160 C   0  0  1  0  0  3  0  0  0  0  0  0
  184.7120  179.0890  144.9580 C   0  0  0  0  0  2  0  0  0  0  0  0
  185.5470  177.8430  143.0340 C   0  0  0  0  0  2  0  0  0  0  0  0
  184.5230  178.8760  143.4700 C   0  0  1  0  0  3  0  0  0  0  0  0
  183.0960  178.4600  143.1210 C   0  0  0  0  0  2  0  0  0  0  0  0
  182.5570  179.1860  141.8920 C   0  0  0  0  0  2  0  0  0  0  0  0
  182.6310  177.1010  140.6180 C   0  0  0  0  0  3  0  0  0  0  0  0
  184.8020  179.6480  139.8640 N   0  0  0  0  0  1  0  0  0  0  0  0
  182.9070  176.3400  139.4390 N   0  0  0  0  0  0  0  0  0  0  0  0
  182.8640  178.4170  140.6510 C   0  0  0  0  0  0  0  0  0  0  0  0
  183.6480  178.2810  138.2450 C   0  0  0  0  0  3  0  0  0  0  0  0
  183.4990  179.1330  139.4800 C   0  0  0  0  0  0  0  0  0  0  0  0
  183.3830  176.9750  138.2500 C   0  0  0  0  0  3  0  0  0  0  0  0
  190.1550  178.1020  142.5710 O   0  0  0  0  0  0  0  0  0  0  0  0
  189.9080  177.9210  140.2220 C   0  0  1  0  0  3  0  0  0  0  0  0
  190.1350  177.1860  141.4830 C   0  0  1  0  0  3  0  0  0  0  0  0
  191.1890  177.4900  140.6050 O   0  0  0  0  0  0  0  0  0  0  0  0
  189.3600  176.9740  139.1730 C   0  0  0  0  0  2  0  0  0  0  0  0
  187.7670  179.3030  136.9880 N   0  0  0  0  0  0  0  0  0  0  0  0
  188.5180  177.7260  138.2030 C   0  0  0  0  0  0  0  0  0  0  0  0
  188.7540  178.9880  137.8100 N   0  0  0  0  0  2  0  0  0  0  0  0
  186.9160  178.2970  136.8530 N   0  0  0  0  0  0  0  0  0  0  0  0
  187.3570  177.2760  137.6150 C   0  0  0  0  0  3  0  0  0  0  0  0
  1  5  1  0  0  0  0
  1  2  2  0  0  0  0
  3  1  1  0  0  0  0
  4 24  1  6  0  0  0
  4  7  1  0  0  0  0
  4  9  1  0  0  0  0
  6  5  2  0  0  0  0
  7  3  2  0  0  0  0
  8  9  2  0  0  0  0
  9  6  1  0  0  0  0
 11  8  1  6  0  0  0
 11 10  1  0  0  0  0
 12 10  1  0  0  0  0
 13 14  1  0  0  0  0
 13 11  1  0  0  0  0
 14 15  1  1  0  0  0
 14 12  1  0  0  0  0
 16 15  1  0  0  0  0
 17 20  1  0  0  0  0
 19 17  2  0  0  0  0
 20 16  1  0  0  0  0
 21 23  2  0  0  0  0
 21 22  1  0  0  0  0
 22 18  1  0  0  0  0
 22 20  2  0  0  0  0
 23 19  1  0  0  0  0
 25 28  1  6  0  0  0
 25 27  1  0  0  0  0
 25 26  1  0  0  0  0
 26 24  1  1  0  0  0
 27 26  1  0  0  0  0
 29 31  1  0  0  0  0
 30 28  1  0  0  0  0
 31 30  1  0  0  0  0
 32 29  2  0  0  0  0
 32 33  1  0  0  0  0
 33 30  2  0  0  0  0
M  END
>  <MODEL>
2

>  <REMARK>
 VINA RESULT:      -9.4      1.470      1.960
  Name = 
  8 active torsions:
  status: ('A' for Active; 'I' for Inactive)
    1  A    between atoms: C_6  and  C_25
    2  A    between atoms: C_9  and  C_29
    3  A    between atoms: C_11  and  O_22
    4  A    between atoms: C_13  and  O_22
    5  A    between atoms: C_14  and  C_25
    6  A    between atoms: C_15  and  C_29
    7  A    between atoms: C_15  and  C_32
    8  A    between atoms: C_17  and  N_31
                            x       y       z     vdW  Elec       q    Type
                         _______ _______ _______ _____ _____    ______ ____

>  <TORSDO>
F 8

$$$$
=
 OpenBabel10222419453D

 33 37  0  0  1  0  0  0  0  0999 V2000
  189.1060  175.7540  136.1030 C   0  0  0  0  0  0  0  0  0  0  0  0
  189.5080  175.0550  135.1370 O   0  0  0  0  0  0  0  0  0  0  0  0
  188.0970  176.6220  135.8790 N   0  0  0  0  0  0  0  0  0  0  0  0
  187.6450  177.7720  138.0470 C   0  0  2  0  0  3  0  0  0  0  0  0
  189.7370  175.5730  137.3180 C   0  0  0  0  0  2  0  0  0  0  0  0
  189.5080  176.1940  138.5300 C   0  0  0  0  0  3  0  0  0  0  0  0
  187.4540  177.4940  136.6880 C   0  0  0  0  0  3  0  0  0  0  0  0
  188.5950  177.5880  140.1400 N   0  0  0  0  0  2  0  0  0  0  0  0
  188.5880  177.1770  138.9010 C   0  0  0  0  0  0  0  0  0  0  0  0
  190.9190  177.3660  140.8280 C   0  0  0  0  0  2  0  0  0  0  0  0
  189.4740  177.0980  141.1990 C   0  0  1  0  0  3  0  0  0  0  0  0
  191.6190  177.6790  142.1290 C   0  0  0  0  0  2  0  0  0  0  0  0
  189.2130  177.8530  142.4940 C   0  0  0  0  0  2  0  0  0  0  0  0
  190.5630  178.3400  142.9910 C   0  0  1  0  0  3  0  0  0  0  0  0
  190.7690  178.0570  144.4770 C   0  0  0  0  0  2  0  0  0  0  0  0
  189.9050  176.9050  144.9810 C   0  0  0  0  0  2  0  0  0  0  0  0
  189.4130  177.2190  147.3540 C   0  0  0  0  0  3  0  0  0  0  0  0
  186.8460  176.8860  145.1020 N   0  0  0  0  0  1  0  0  0  0  0  0
  188.5840  177.6560  148.4350 N   0  0  0  0  0  0  0  0  0  0  0  0
  189.0140  177.3610  146.0870 C   0  0  0  0  0  0  0  0  0  0  0  0
  186.8910  178.4520  146.9370 C   0  0  0  0  0  3  0  0  0  0  0  0
  187.6460  177.9120  145.7490 C   0  0  0  0  0  0  0  0  0  0  0  0
  187.3360  178.3080  148.1840 C   0  0  0  0  0  3  0  0  0  0  0  0
  186.8120  178.7450  138.6270 O   0  0  0  0  0  0  0  0  0  0  0  0
  185.1870  179.0570  140.3220 C   0  0  1  0  0  3  0  0  0  0  0  0
  185.4510  178.5170  138.9730 C   0  0  1  0  0  3  0  0  0  0  0  0
  184.8090  179.7530  139.1610 O   0  0  0  0  0  0  0  0  0  0  0  0
  183.9660  178.3790  140.9110 C   0  0  0  0  0  2  0  0  0  0  0  0
  182.9850  179.1540  144.2540 N   0  0  0  0  0  0  0  0  0  0  0  0
  183.8410  178.7270  142.3530 C   0  0  0  0  0  0  0  0  0  0  0  0
  182.6800  178.7640  143.0280 N   0  0  0  0  0  0  0  0  0  0  0  0
  184.2860  179.3730  144.3770 N   0  0  0  0  0  2  0  0  0  0  0  0
  184.8640  179.1170  143.1870 C   0  0  0  0  0  3  0  0  0  0  0  0
  1  5  1  0  0  0  0
  2  1  2  0  0  0  0
  3  1  1  0  0  0  0
  3  7  2  0  0  0  0
  4 24  1  1  0  0  0
  4  9  1  0  0  0  0
  5  6  1  0  0  0  0
  6  9  2  0  0  0  0
  7  4  1  0  0  0  0
  9  8  1  0  0  0  0
 10 11  1  0  0  0  0
 10 12  1  0  0  0  0
 11  8  1  6  0  0  0
 11 13  1  0  0  0  0
 12 14  1  0  0  0  0
 13 14  1  0  0  0  0
 14 15  1  1  0  0  0
 15 16  1  0  0  0  0
 16 20  1  0  0  0  0
 17 19  1  0  0  0  0
 18 22  1  0  0  0  0
 20 17  2  0  0  0  0
 21 23  1  0  0  0  0
 22 20  1  0  0  0  0
 22 21  2  0  0  0  0
 23 19  2  0  0  0  0
 25 28  1  1  0  0  0
 26 24  1  6  0  0  0
 26 27  1  0  0  0  0
 26 25  1  0  0  0  0
 27 25  1  0  0  0  0
 28 30  1  0  0  0  0
 29 32  1  0  0  0  0
 30 31  1  0  0  0  0
 30 33  2  0  0  0  0
 31 29  2  0  0  0  0
 33 32  1  0  0  0  0
M  END
>  <MODEL>
3

>  <REMARK>
 VINA RESULT:      -9.1      3.131      7.879
  Name = 
  8 active torsions:
  status: ('A' for Active; 'I' for Inactive)
    1  A    between atoms: C_6  and  C_25
    2  A    between atoms: C_9  and  C_29
    3  A    between atoms: C_11  and  O_22
    4  A    between atoms: C_13  and  O_22
    5  A    between atoms: C_14  and  C_25
    6  A    between atoms: C_15  and  C_29
    7  A    between atoms: C_15  and  C_32
    8  A    between atoms: C_17  and  N_31
                            x       y       z     vdW  Elec       q    Type
                         _______ _______ _______ _____ _____    ______ ____

>  <TORSDO>
F 8

$$$$
=
 OpenBabel10222419453D

 33 37  0  0  1  0  0  0  0  0999 V2000
  187.7340  178.1530  139.0710 C   0  0  0  0  0  0  0  0  0  0  0  0
  188.7650  177.8700  138.4070 O   0  0  0  0  0  0  0  0  0  0  0  0
  186.5590  178.2350  138.4120 N   0  0  0  0  0  0  0  0  0  0  0  0
  184.8230  178.8110  140.1100 C   0  0  2  0  0  3  0  0  0  0  0  0
  187.8950  178.3590  140.4280 C   0  0  0  0  0  2  0  0  0  0  0  0
  186.9540  178.6770  141.3870 C   0  0  0  0  0  3  0  0  0  0  0  0
  185.3030  178.5130  138.8280 C   0  0  0  0  0  3  0  0  0  0  0  0
  184.9250  179.1820  142.3830 N   0  0  0  0  0  2  0  0  0  0  0  0
  185.5780  178.8870  141.2920 C   0  0  0  0  0  0  0  0  0  0  0  0
  184.3920  179.3730  144.7490 C   0  0  0  0  0  2  0  0  0  0  0  0
  185.5010  179.2970  143.7200 C   0  0  1  0  0  3  0  0  0  0  0  0
  184.9150  178.6410  145.9630 C   0  0  0  0  0  2  0  0  0  0  0  0
  186.3160  178.0560  144.0530 C   0  0  0  0  0  2  0  0  0  0  0  0
  185.8300  177.5690  145.4080 C   0  0  1  0  0  3  0  0  0  0  0  0
  186.9840  177.2450  146.3540 C   0  0  0  0  0  2  0  0  0  0  0  0
  188.1250  178.2540  146.2550 C   0  0  0  0  0  2  0  0  0  0  0  0
  189.9600  177.1470  147.4310 C   0  0  0  0  0  3  0  0  0  0  0  0
  190.5380  178.6940  144.4230 N   0  0  0  0  0  1  0  0  0  0  0  0
  191.2180  176.4680  147.4730 N   0  0  0  0  0  0  0  0  0  0  0  0
  189.4440  177.5570  146.2680 C   0  0  0  0  0  0  0  0  0  0  0  0
  191.4560  176.5650  145.0900 C   0  0  0  0  0  3  0  0  0  0  0  0
  190.2010  177.3900  144.9680 C   0  0  0  0  0  0  0  0  0  0  0  0
  191.9250  176.1580  146.2690 C   0  0  0  0  0  3  0  0  0  0  0  0
  183.4450  179.0590  140.2370 O   0  0  0  0  0  0  0  0  0  0  0  0
  181.1270  178.5800  140.1390 C   0  0  1  0  0  3  0  0  0  0  0  0
  182.4710  178.0390  140.4270 C   0  0  1  0  0  3  0  0  0  0  0  0
  181.8210  177.7900  139.2060 O   0  0  0  0  0  0  0  0  0  0  0  0
  180.0790  177.7280  140.8260 C   0  0  0  0  0  2  0  0  0  0  0  0
  179.1680  178.5890  144.1680 N   0  0  0  0  0  0  0  0  0  0  0  0
  179.6830  178.3560  142.1160 C   0  0  0  0  0  0  0  0  0  0  0  0
  179.5850  177.6990  143.2830 N   0  0  0  0  0  0  0  0  0  0  0  0
  178.9910  179.7750  143.6060 N   0  0  0  0  0  2  0  0  0  0  0  0
  179.3030  179.6660  142.2990 C   0  0  0  0  0  3  0  0  0  0  0  0
  1  5  1  0  0  0  0
  2  1  2  0  0  0  0
  3  7  2  0  0  0  0
  3  1  1  0  0  0  0
  4 24  1  1  0  0  0
  4  9  1  0  0  0  0
  5  6  1  0  0  0  0
  7  4  1  0  0  0  0
  9  6  2  0  0  0  0
  9  8  1  0  0  0  0
 10 12  1  0  0  0  0
 11  8  1  6  0  0  0
 11 13  1  0  0  0  0
 11 10  1  0  0  0  0
 13 14  1  0  0  0  0
 14 12  1  0  0  0  0
 14 15  1  1  0  0  0
 16 20  1  0  0  0  0
 16 15  1  0  0  0  0
 17 19  1  0  0  0  0
 18 22  1  0  0  0  0
 20 17  2  0  0  0  0
 21 23  1  0  0  0  0
 22 21  2  0  0  0  0
 22 20  1  0  0  0  0
 23 19  2  0  0  0  0
 25 26  1  0  0  0  0
 25 28  1  1  0  0  0
 26 24  1  6  0  0  0
 27 25  1  0  0  0  0
 27 26  1  0  0  0  0
 28 30  1  0  0  0  0
 30 33  2  0  0  0  0
 30 31  1  0  0  0  0
 31 29  2  0  0  0  0
 32 29  1  0  0  0  0
 33 32  1  0  0  0  0
M  END
>  <MODEL>
4

>  <REMARK>
 VINA RESULT:      -9.0      2.665      8.398
  Name = 
  8 active torsions:
  status: ('A' for Active; 'I' for Inactive)
    1  A    between atoms: C_6  and  C_25
    2  A    between atoms: C_9  and  C_29
    3  A    between atoms: C_11  and  O_22
    4  A    between atoms: C_13  and  O_22
    5  A    between atoms: C_14  and  C_25
    6  A    between atoms: C_15  and  C_29
    7  A    between atoms: C_15  and  C_32
    8  A    between atoms: C_17  and  N_31
                            x       y       z     vdW  Elec       q    Type
                         _______ _______ _______ _____ _____    ______ ____

>  <TORSDO>
F 8

$$$$
=
 OpenBabel10222419453D

 33 37  0  0  1  0  0  0  0  0999 V2000
  191.3150  176.8490  147.1900 C   0  0  0  0  0  0  0  0  0  0  0  0
  192.2650  176.6890  147.9990 O   0  0  0  0  0  0  0  0  0  0  0  0
  190.0550  176.7450  147.6660 N   0  0  0  0  0  0  0  0  0  0  0  0
  188.5250  177.1300  145.7320 C   0  0  2  0  0  3  0  0  0  0  0  0
  191.6430  177.1170  145.8760 C   0  0  0  0  0  3  0  0  0  0  0  0
  190.8190  177.3330  144.7890 C   0  0  0  0  0  3  0  0  0  0  0  0
  188.8480  176.8610  147.0680 C   0  0  0  0  0  3  0  0  0  0  0  0
  188.9090  177.5840  143.5040 N   0  0  0  0  0  0  0  0  0  0  0  0
  189.4280  177.3500  144.6780 C   0  0  0  0  0  0  0  0  0  0  0  0
  190.1090  176.5480  141.6580 C   0  0  0  0  0  2  0  0  0  0  0  0
  189.6540  177.8540  142.2770 C   0  0  1  0  0  3  0  0  0  0  0  0
  190.0410  176.7620  140.1640 C   0  0  0  0  0  2  0  0  0  0  0  0
  188.7560  178.5290  141.2510 C   0  0  0  0  0  2  0  0  0  0  0  0
  188.9000  177.7380  139.9620 C   0  0  1  0  0  3  0  0  0  0  0  0
  189.1180  178.6400  138.7500 C   0  0  0  0  0  2  0  0  0  0  0  0
  189.2900  177.8510  137.4550 C   0  0  0  0  0  2  0  0  0  0  0  0
  186.8640  178.0490  137.2250 C   0  0  0  0  0  3  0  0  0  0  0  0
  188.3470  174.9550  137.1480 N   0  0  0  0  0  1  0  0  0  0  0  0
  185.5890  177.5940  136.7630 N   0  0  0  0  0  0  0  0  0  0  0  0
  187.9730  177.3470  136.9680 C   0  0  0  0  0  0  0  0  0  0  0  0
  186.5520  175.6730  135.7040 C   0  0  0  0  0  3  0  0  0  0  0  0
  187.9140  176.0150  136.2540 C   0  0  0  0  0  0  0  0  0  0  0  0
  185.4760  176.4120  135.9670 C   0  0  0  0  0  3  0  0  0  0  0  0
  187.1600  177.1900  145.4010 O   0  0  0  0  0  0  0  0  0  0  0  0
  185.1900  178.1280  144.4770 C   0  0  1  0  0  3  0  0  0  0  0  0
  186.4470  178.4060  145.2020 C   0  0  1  0  0  3  0  0  0  0  0  0
  185.2120  178.3300  145.8680 O   0  0  0  0  0  0  0  0  0  0  0  0
  184.7030  179.3930  143.8010 C   0  0  0  0  0  2  0  0  0  0  0  0
  185.1110  179.2770  140.2570 N   0  0  0  0  0  0  0  0  0  0  0  0
  184.6330  179.1860  142.3290 C   0  0  0  0  0  0  0  0  0  0  0  0
  185.5570  179.6160  141.4550 N   0  0  0  0  0  2  0  0  0  0  0  0
  183.9410  178.6610  140.3390 N   0  0  0  0  0  0  0  0  0  0  0  0
  183.6010  178.5880  141.6410 C   0  0  0  0  0  3  0  0  0  0  0  0
  1  3  1  0  0  0  0
  1  2  2  0  0  0  0
  4 24  1  1  0  0  0
  4  7  1  0  0  0  0
  5  1  1  0  0  0  0
  6  5  2  0  0  0  0
  7  3  2  0  0  0  0
  8  9  2  0  0  0  0
  9  6  1  0  0  0  0
  9  4  1  0  0  0  0
 10 11  1  0  0  0  0
 11  8  1  1  0  0  0
 12 10  1  0  0  0  0
 13 11  1  0  0  0  0
 14 15  1  6  0  0  0
 14 12  1  0  0  0  0
 14 13  1  0  0  0  0
 16 15  1  0  0  0  0
 19 17  2  0  0  0  0
 20 17  1  0  0  0  0
 20 16  1  0  0  0  0
 21 23  2  0  0  0  0
 21 22  1  0  0  0  0
 22 20  2  0  0  0  0
 22 18  1  0  0  0  0
 23 19  1  0  0  0  0
 25 28  1  6  0  0  0
 25 26  1  0  0  0  0
 25 27  1  0  0  0  0
 26 24  1  1  0  0  0
 26 27  1  0  0  0  0
 29 32  2  0  0  0  0
 29 31  1  0  0  0  0
 30 28  1  0  0  0  0
 31 30  1  0  0  0  0
 32 33  1  0  0  0  0
 33 30  2  0  0  0  0
M  END
>  <MODEL>
5

>  <REMARK>
 VINA RESULT:      -8.9      2.413      6.037
  Name = 
  8 active torsions:
  status: ('A' for Active; 'I' for Inactive)
    1  A    between atoms: C_6  and  C_25
    2  A    between atoms: C_9  and  C_29
    3  A    between atoms: C_11  and  O_22
    4  A    between atoms: C_13  and  O_22
    5  A    between atoms: C_14  and  C_25
    6  A    between atoms: C_15  and  C_29
    7  A    between atoms: C_15  and  C_32
    8  A    between atoms: C_17  and  N_31
                            x       y       z     vdW  Elec       q    Type
                         _______ _______ _______ _____ _____    ______ ____

>  <TORSDO>
F 8

$$$$
=
 OpenBabel10222419453D

 33 37  0  0  1  0  0  0  0  0999 V2000
  185.3240  178.5390  146.0390 C   0  0  0  0  0  0  0  0  0  0  0  0
  185.0330  178.7520  147.2440 O   0  0  0  0  0  0  0  0  0  0  0  0
  186.5390  178.0180  145.7650 N   0  0  0  0  0  0  0  0  0  0  0  0
  186.6700  177.7710  143.2850 C   0  0  2  0  0  3  0  0  0  0  0  0
  184.3700  178.8580  145.0930 C   0  0  0  0  0  3  0  0  0  0  0  0
  184.4160  178.7310  143.7190 C   0  0  0  0  0  3  0  0  0  0  0  0
  187.1400  177.6810  144.6010 C   0  0  0  0  0  3  0  0  0  0  0  0
  185.1850  178.2490  141.5870 N   0  0  0  0  0  0  0  0  0  0  0  0
  185.4170  178.2530  142.8720 C   0  0  0  0  0  0  0  0  0  0  0  0
  184.2820  179.4400  139.6670 C   0  0  0  0  0  2  0  0  0  0  0  0
  183.9510  178.6870  140.9400 C   0  0  1  0  0  3  0  0  0  0  0  0
  183.1790  179.0950  138.6940 C   0  0  0  0  0  2  0  0  0  0  0  0
  183.1150  177.4850  140.5260 C   0  0  0  0  0  2  0  0  0  0  0  0
  182.7600  177.6870  139.0630 C   0  0  1  0  0  3  0  0  0  0  0  0
  181.2800  177.4320  138.7870 C   0  0  0  0  0  2  0  0  0  0  0  0
  180.4080  178.6470  139.0930 C   0  0  0  0  0  2  0  0  0  0  0  0
  179.5190  177.7190  141.1720 C   0  0  0  0  0  3  0  0  0  0  0  0
  179.7100  181.1190  140.7570 N   0  0  0  0  0  1  0  0  0  0  0  0
  179.2470  177.7730  142.5750 N   0  0  0  0  0  0  0  0  0  0  0  0
  180.1280  178.7370  140.5550 C   0  0  0  0  0  0  0  0  0  0  0  0
  180.2620  179.9330  142.7850 C   0  0  0  0  0  3  0  0  0  0  0  0
  180.4780  180.0090  141.2950 C   0  0  0  0  0  0  0  0  0  0  0  0
  179.6700  178.8890  143.3620 C   0  0  0  0  0  3  0  0  0  0  0  0
  187.5340  177.3360  142.2640 O   0  0  0  0  0  0  0  0  0  0  0  0
  189.8080  176.6740  142.2140 C   0  0  1  0  0  3  0  0  0  0  0  0
  188.8670  177.8070  142.1010 C   0  0  1  0  0  3  0  0  0  0  0  0
  189.4340  177.2020  140.9660 O   0  0  0  0  0  0  0  0  0  0  0  0
  191.1850  177.1920  142.5780 C   0  0  0  0  0  2  0  0  0  0  0  0
  192.0000  175.7680  145.7470 N   0  0  0  0  0  0  0  0  0  0  0  0
  191.4890  176.8670  143.9980 C   0  0  0  0  0  0  0  0  0  0  0  0
  191.8740  175.6570  144.4360 N   0  0  0  0  0  0  0  0  0  0  0  0
  191.7020  176.9930  146.1550 N   0  0  0  0  0  2  0  0  0  0  0  0
  191.3680  177.7210  145.0710 C   0  0  0  0  0  3  0  0  0  0  0  0
  1  2  2  0  0  0  0
  3  1  1  0  0  0  0
  4 24  1  1  0  0  0
  4  7  1  0  0  0  0
  5  1  1  0  0  0  0
  6  5  2  0  0  0  0
  7  3  2  0  0  0  0
  8  9  2  0  0  0  0
  9  4  1  0  0  0  0
  9  6  1  0  0  0  0
 10 11  1  0  0  0  0
 11  8  1  6  0  0  0
 12 14  1  0  0  0  0
 12 10  1  0  0  0  0
 13 11  1  0  0  0  0
 14 15  1  1  0  0  0
 14 13  1  0  0  0  0
 15 16  1  0  0  0  0
 16 20  1  0  0  0  0
 17 19  1  0  0  0  0
 18 22  1  0  0  0  0
 19 23  2  0  0  0  0
 20 17  2  0  0  0  0
 20 22  1  0  0  0  0
 21 23  1  0  0  0  0
 22 21  2  0  0  0  0
 25 28  1  1  0  0  0
 26 25  1  0  0  0  0
 26 24  1  6  0  0  0
 27 26  1  0  0  0  0
 27 25  1  0  0  0  0
 28 30  1  0  0  0  0
 29 32  1  0  0  0  0
 30 31  1  0  0  0  0
 30 33  2  0  0  0  0
 31 29  2  0  0  0  0
 33 32  1  0  0  0  0
M  END
>  <MODEL>
6

>  <REMARK>
 VINA RESULT:      -8.9      2.710      5.491
  Name = 
  8 active torsions:
  status: ('A' for Active; 'I' for Inactive)
    1  A    between atoms: C_6  and  C_25
    2  A    between atoms: C_9  and  C_29
    3  A    between atoms: C_11  and  O_22
    4  A    between atoms: C_13  and  O_22
    5  A    between atoms: C_14  and  C_25
    6  A    between atoms: C_15  and  C_29
    7  A    between atoms: C_15  and  C_32
    8  A    between atoms: C_17  and  N_31
                            x       y       z     vdW  Elec       q    Type
                         _______ _______ _______ _____ _____    ______ ____

>  <TORSDO>
F 8

$$$$
=
 OpenBabel10222419453D

 33 37  0  0  1  0  0  0  0  0999 V2000
  188.3510  178.1570  138.7960 C   0  0  0  0  0  0  0  0  0  0  0  0
  189.4270  177.9330  138.1820 O   0  0  0  0  0  0  0  0  0  0  0  0
  187.2070  178.1760  138.0800 N   0  0  0  0  0  0  0  0  0  0  0  0
  185.3610  178.6490  139.6910 C   0  0  2  0  0  3  0  0  0  0  0  0
  188.4340  178.3660  140.1590 C   0  0  0  0  0  2  0  0  0  0  0  0
  187.4310  178.6290  141.0710 C   0  0  0  0  0  3  0  0  0  0  0  0
  185.9190  178.3830  138.4340 C   0  0  0  0  0  3  0  0  0  0  0  0
  185.3310  179.0170  141.9670 N   0  0  0  0  0  2  0  0  0  0  0  0
  186.0510  178.7620  140.9090 C   0  0  0  0  0  0  0  0  0  0  0  0
  184.6880  179.4880  144.2660 C   0  0  0  0  0  2  0  0  0  0  0  0
  185.8340  179.1590  143.3310 C   0  0  1  0  0  3  0  0  0  0  0  0
  185.0150  178.7930  145.5670 C   0  0  0  0  0  2  0  0  0  0  0  0
  186.4240  177.8440  143.8160 C   0  0  0  0  0  2  0  0  0  0  0  0
  185.7860  177.5530  145.1630 C   0  0  1  0  0  3  0  0  0  0  0  0
  186.8140  177.1430  146.2150 C   0  0  0  0  0  2  0  0  0  0  0  0
  187.8850  178.2070  146.4350 C   0  0  0  0  0  2  0  0  0  0  0  0
  189.8550  177.2890  147.5530 C   0  0  0  0  0  3  0  0  0  0  0  0
  190.1520  178.6910  144.4350 N   0  0  0  0  0  1  0  0  0  0  0  0
  191.1560  176.6940  147.5530 N   0  0  0  0  0  0  0  0  0  0  0  0
  189.2460  177.5970  146.4040 C   0  0  0  0  0  0  0  0  0  0  0  0
  191.2470  176.6670  145.1590 C   0  0  0  0  0  3  0  0  0  0  0  0
  189.9340  177.4020  145.0710 C   0  0  0  0  0  0  0  0  0  0  0  0
  191.8100  176.3600  146.3270 C   0  0  0  0  0  3  0  0  0  0  0  0
  183.9670  178.8210  139.7510 O   0  0  0  0  0  0  0  0  0  0  0  0
  181.9490  179.9450  139.2250 C   0  0  1  0  0  3  0  0  0  0  0  0
  183.1880  179.3490  138.6840 C   0  0  1  0  0  3  0  0  0  0  0  0
  183.0500  180.7370  138.8570 O   0  0  0  0  0  0  0  0  0  0  0  0
  180.9010  180.0170  138.1320 C   0  0  0  0  0  2  0  0  0  0  0  0
  179.3210  183.1830  138.5990 N   0  0  0  0  0  0  0  0  0  0  0  0
  180.3380  181.3930  138.0610 C   0  0  0  0  0  0  0  0  0  0  0  0
  179.7030  182.0080  139.0710 N   0  0  0  0  0  2  0  0  0  0  0  0
  179.6800  183.3300  137.3330 N   0  0  0  0  0  0  0  0  0  0  0  0
  180.3250  182.2090  136.9520 C   0  0  0  0  0  3  0  0  0  0  0  0
  1  5  1  0  0  0  0
  2  1  2  0  0  0  0
  3  7  2  0  0  0  0
  3  1  1  0  0  0  0
  4 24  1  1  0  0  0
  4  9  1  0  0  0  0
  5  6  1  0  0  0  0
  7  4  1  0  0  0  0
  9  6  2  0  0  0  0
  9  8  1  0  0  0  0
 10 12  1  0  0  0  0
 11  8  1  6  0  0  0
 11 13  1  0  0  0  0
 11 10  1  0  0  0  0
 13 14  1  0  0  0  0
 14 12  1  0  0  0  0
 14 15  1  1  0  0  0
 15 16  1  0  0  0  0
 18 22  1  0  0  0  0
 19 17  1  0  0  0  0
 20 16  1  0  0  0  0
 20 17  2  0  0  0  0
 21 23  1  0  0  0  0
 22 21  2  0  0  0  0
 22 20  1  0  0  0  0
 23 19  2  0  0  0  0
 25 28  1  6  0  0  0
 26 27  1  0  0  0  0
 26 25  1  0  0  0  0
 26 24  1  1  0  0  0
 27 25  1  0  0  0  0
 29 31  1  0  0  0  0
 30 28  1  0  0  0  0
 30 31  1  0  0  0  0
 32 29  2  0  0  0  0
 33 32  1  0  0  0  0
 33 30  2  0  0  0  0
M  END
>  <MODEL>
7

>  <REMARK>
 VINA RESULT:      -8.7      3.497      8.077
  Name = 
  8 active torsions:
  status: ('A' for Active; 'I' for Inactive)
    1  A    between atoms: C_6  and  C_25
    2  A    between atoms: C_9  and  C_29
    3  A    between atoms: C_11  and  O_22
    4  A    between atoms: C_13  and  O_22
    5  A    between atoms: C_14  and  C_25
    6  A    between atoms: C_15  and  C_29
    7  A    between atoms: C_15  and  C_32
    8  A    between atoms: C_17  and  N_31
                            x       y       z     vdW  Elec       q    Type
                         _______ _______ _______ _____ _____    ______ ____

>  <TORSDO>
F 8

$$$$
=
 OpenBabel10222419453D

 33 37  0  0  1  0  0  0  0  0999 V2000
  182.4580  178.6770  143.2930 C   0  0  0  0  0  0  0  0  0  0  0  0
  181.2460  178.7630  142.9690 O   0  0  0  0  0  0  0  0  0  0  0  0
  182.7990  179.0030  144.5580 N   0  0  0  0  0  0  0  0  0  0  0  0
  185.2680  178.6840  144.7400 C   0  0  0  0  0  0  0  0  0  0  0  0
  183.3440  178.2530  142.3210 C   0  0  0  0  0  3  0  0  0  0  0  0
  184.7100  178.0680  142.3950 C   0  0  0  0  0  3  0  0  0  0  0  0
  183.9880  179.0160  145.2020 C   0  0  0  0  0  3  0  0  0  0  0  0
  186.8680  177.9920  143.2320 N   0  0  0  0  0  2  0  0  0  0  0  0
  185.6070  178.2460  143.4490 C   0  0  0  0  0  0  0  0  0  0  0  0
  187.4390  178.6310  140.9550 C   0  0  0  0  0  2  0  0  0  0  0  0
  187.4400  177.5120  141.9760 C   0  0  1  0  0  3  0  0  0  0  0  0
  188.6940  178.4330  140.1360 C   0  0  0  0  0  2  0  0  0  0  0  0
  188.8940  177.1110  142.1770 C   0  0  0  0  0  2  0  0  0  0  0  0
  189.6920  177.8190  141.0960 C   0  0  1  0  0  3  0  0  0  0  0  0
  190.6710  176.8820  140.3910 C   0  0  0  0  0  2  0  0  0  0  0  0
  190.5660  176.9610  138.8710 C   0  0  0  0  0  2  0  0  0  0  0  0
  192.9000  176.4740  138.3300 C   0  0  0  0  0  3  0  0  0  0  0  0
  190.3940  175.3370  136.2810 N   0  0  0  0  0  1  0  0  0  0  0  0
  193.9280  175.6800  137.7320 N   0  0  0  0  0  0  0  0  0  0  0  0
  191.6160  176.1170  138.2280 C   0  0  0  0  0  0  0  0  0  0  0  0
  192.3470  174.0730  136.9220 C   0  0  0  0  0  3  0  0  0  0  0  0
  191.1960  174.9120  137.4160 C   0  0  0  0  0  0  0  0  0  0  0  0
  193.6140  174.4560  137.0630 C   0  0  0  0  0  3  0  0  0  0  0  0
  186.3300  178.7960  145.6550 O   0  0  0  0  0  0  0  0  0  0  0  0
  187.9780  178.1400  147.2240 C   0  0  1  0  0  3  0  0  0  0  0  0
  186.7350  177.7490  146.5290 C   0  0  1  0  0  3  0  0  0  0  0  0
  186.7240  178.2240  147.8530 O   0  0  0  0  0  0  0  0  0  0  0  0
  188.6970  176.9000  147.7170 C   0  0  0  0  0  2  0  0  0  0  0  0
  192.0950  176.3880  146.7540 N   0  0  0  0  0  0  0  0  0  0  0  0
  190.0280  176.7910  147.0610 C   0  0  0  0  0  0  0  0  0  0  0  0
  191.1170  176.2560  147.6350 N   0  0  0  0  0  2  0  0  0  0  0  0
  191.6690  176.9910  145.6530 N   0  0  0  0  0  0  0  0  0  0  0  0
  190.3600  177.2690  145.8130 C   0  0  0  0  0  3  0  0  0  0  0  0
  1  3  1  0  0  0  0
  2  1  2  0  0  0  0
  3  7  2  0  0  0  0
  4  7  1  0  0  0  0
  4 24  1  0  0  0  0
  5  6  2  0  0  0  0
  5  1  1  0  0  0  0
  6  9  1  0  0  0  0
  8  9  1  0  0  0  0
  9  4  2  0  0  0  0
 10 11  1  0  0  0  0
 11 13  1  0  0  0  0
 11  8  1  1  0  0  0
 12 10  1  0  0  0  0
 12 14  1  0  0  0  0
 14 15  1  6  0  0  0
 14 13  1  0  0  0  0
 16 15  1  0  0  0  0
 18 22  1  0  0  0  0
 19 17  2  0  0  0  0
 20 17  1  0  0  0  0
 20 16  1  0  0  0  0
 21 23  2  0  0  0  0
 21 22  1  0  0  0  0
 22 20  2  0  0  0  0
 23 19  1  0  0  0  0
 25 28  1  1  0  0  0
 25 27  1  0  0  0  0
 26 24  1  6  0  0  0
 26 25  1  0  0  0  0
 26 27  1  0  0  0  0
 29 31  1  0  0  0  0
 30 31  1  0  0  0  0
 30 28  1  0  0  0  0
 32 33  1  0  0  0  0
 32 29  2  0  0  0  0
 33 30  2  0  0  0  0
M  END
>  <MODEL>
8

>  <REMARK>
 VINA RESULT:      -8.6      3.135      9.109
  Name = 
  8 active torsions:
  status: ('A' for Active; 'I' for Inactive)
    1  A    between atoms: C_6  and  C_25
    2  A    between atoms: C_9  and  C_29
    3  A    between atoms: C_11  and  O_22
    4  A    between atoms: C_13  and  O_22
    5  A    between atoms: C_14  and  C_25
    6  A    between atoms: C_15  and  C_29
    7  A    between atoms: C_15  and  C_32
    8  A    between atoms: C_17  and  N_31
                            x       y       z     vdW  Elec       q    Type
                         _______ _______ _______ _____ _____    ______ ____

>  <TORSDO>
F 8

$$$$
=
 OpenBabel10222419453D

 33 37  0  0  1  0  0  0  0  0999 V2000
  190.9380  177.2240  145.7220 C   0  0  0  0  0  0  0  0  0  0  0  0
  191.7700  176.9000  146.6080 O   0  0  0  0  0  0  0  0  0  0  0  0
  191.4140  177.6510  144.5330 N   0  0  0  0  0  0  0  0  0  0  0  0
  189.4290  178.1730  143.1120 C   0  0  2  0  0  3  0  0  0  0  0  0
  189.5990  177.1150  146.0440 C   0  0  0  0  0  3  0  0  0  0  0  0
  188.4840  177.3960  145.2790 C   0  0  0  0  0  3  0  0  0  0  0  0
  190.7950  178.0610  143.4030 C   0  0  0  0  0  3  0  0  0  0  0  0
  187.1590  178.0460  143.4940 N   0  0  0  0  0  0  0  0  0  0  0  0
  188.3600  177.8670  143.9710 C   0  0  0  0  0  0  0  0  0  0  0  0
  185.8250  178.6530  145.4370 C   0  0  0  0  0  2  0  0  0  0  0  0
  185.9090  177.7790  144.2010 C   0  0  1  0  0  3  0  0  0  0  0  0
  184.3630  179.0020  145.5860 C   0  0  0  0  0  2  0  0  0  0  0  0
  184.7190  178.1480  143.3290 C   0  0  0  0  0  2  0  0  0  0  0  0
  183.8250  179.0420  144.1710 C   0  0  1  0  0  3  0  0  0  0  0  0
  182.3570  178.6270  144.0980 C   0  0  0  0  0  2  0  0  0  0  0  0
  181.5270  179.5570  143.2170 C   0  0  0  0  0  2  0  0  0  0  0  0
  179.8960  177.8760  142.5170 C   0  0  0  0  0  3  0  0  0  0  0  0
  182.5770  178.6060  140.5040 N   0  0  0  0  0  1  0  0  0  0  0  0
  179.1890  177.1260  141.5260 N   0  0  0  0  0  0  0  0  0  0  0  0
  180.8130  178.7820  142.1620 C   0  0  0  0  0  0  0  0  0  0  0  0
  180.3190  178.2470  139.7350 C   0  0  0  0  0  3  0  0  0  0  0  0
  181.1920  178.9920  140.7120 C   0  0  0  0  0  0  0  0  0  0  0  0
  179.4010  177.3670  140.1330 C   0  0  0  0  0  3  0  0  0  0  0  0
  189.0820  178.6360  141.8310 O   0  0  0  0  0  0  0  0  0  0  0  0
  189.9440  177.7960  139.7910 C   0  0  1  0  0  3  0  0  0  0  0  0
  188.8030  177.7800  140.7290 C   0  0  1  0  0  3  0  0  0  0  0  0
  189.7500  176.7420  140.7010 O   0  0  0  0  0  0  0  0  0  0  0  0
  189.4790  177.3560  138.4180 C   0  0  0  0  0  2  0  0  0  0  0  0
  191.5320  174.4980  137.8210 N   0  0  0  0  0  0  0  0  0  0  0  0
  190.0910  176.0440  138.0710 C   0  0  0  0  0  0  0  0  0  0  0  0
  191.3710  175.7150  138.3120 N   0  0  0  0  0  2  0  0  0  0  0  0
  190.4110  174.0500  137.2740 N   0  0  0  0  0  0  0  0  0  0  0  0
  189.4730  175.0080  137.4090 C   0  0  0  0  0  3  0  0  0  0  0  0
  1  5  1  0  0  0  0
  1  2  2  0  0  0  0
  3  1  1  0  0  0  0
  4 24  1  6  0  0  0
  4  7  1  0  0  0  0
  4  9  1  0  0  0  0
  6  5  2  0  0  0  0
  7  3  2  0  0  0  0
  8  9  2  0  0  0  0
  9  6  1  0  0  0  0
 10 12  1  0  0  0  0
 11  8  1  6  0  0  0
 11 10  1  0  0  0  0
 13 14  1  0  0  0  0
 13 11  1  0  0  0  0
 14 15  1  1  0  0  0
 14 12  1  0  0  0  0
 16 15  1  0  0  0  0
 18 22  1  0  0  0  0
 19 17  2  0  0  0  0
 20 17  1  0  0  0  0
 20 16  1  0  0  0  0
 21 23  2  0  0  0  0
 21 22  1  0  0  0  0
 22 20  2  0  0  0  0
 23 19  1  0  0  0  0
 25 28  1  6  0  0  0
 25 27  1  0  0  0  0
 25 26  1  0  0  0  0
 26 24  1  1  0  0  0
 27 26  1  0  0  0  0
 29 31  1  0  0  0  0
 30 31  1  0  0  0  0
 30 28  1  0  0  0  0
 32 33  1  0  0  0  0
 32 29  2  0  0  0  0
 33 30  2  0  0  0  0
M  END
>  <MODEL>
9

>  <REMARK>
 VINA RESULT:      -8.4      1.899      2.123
  Name = 
  8 active torsions:
  status: ('A' for Active; 'I' for Inactive)
    1  A    between atoms: C_6  and  C_25
    2  A    between atoms: C_9  and  C_29
    3  A    between atoms: C_11  and  O_22
    4  A    between atoms: C_13  and  O_22
    5  A    between atoms: C_14  and  C_25
    6  A    between atoms: C_15  and  C_29
    7  A    between atoms: C_15  and  C_32
    8  A    between atoms: C_17  and  N_31
                            x       y       z     vdW  Elec       q    Type
                         _______ _______ _______ _____ _____    ______ ____

>  <TORSDO>
F 8

$$$$
