=
 OpenBabel10222419473D

 33 38  0  0  1  0  0  0  0  0999 V2000
  186.5360  177.7750  144.5440 C   0  0  1  0  0  3  0  0  0  0  0  0
  188.4520  176.8210  145.9550 C   0  0  0  0  0  3  0  0  0  0  0  0
  184.4270  178.9720  143.8860 C   0  0  0  0  0  0  0  0  0  0  0  0
  187.4330  178.0110  143.3320 C   0  0  0  0  0  2  0  0  0  0  0  0
  183.1400  178.8520  144.4330 C   0  0  0  0  0  3  0  0  0  0  0  0
  186.8010  178.3000  146.8820 C   0  0  0  0  0  0  0  0  0  0  0  0
  182.1680  178.8490  142.2140 C   0  0  0  0  0  0  0  0  0  0  0  0
  189.0700  176.7620  147.2090 C   0  0  0  0  0  3  0  0  0  0  0  0
  187.3170  177.6210  145.7980 C   0  0  0  0  0  0  0  0  0  0  0  0
  188.5310  177.4960  148.2760 C   0  0  0  0  0  3  0  0  0  0  0  0
  185.9340  179.0850  141.8460 C   0  0  0  0  0  2  0  0  0  0  0  0
  183.4500  178.9580  141.6600 C   0  0  0  0  0  3  0  0  0  0  0  0
  184.5770  179.0190  142.4840 C   0  0  0  0  0  0  0  0  0  0  0  0
  186.6690  177.8500  142.0980 N   0  0  0  0  0  2  0  0  0  0  0  0
  185.6500  179.0070  144.7670 C   0  0  1  0  0  3  0  0  0  0  0  0
  185.3260  179.2380  146.5630 S   0  0  0  0  0  0  0  0  0  0  0  0
  187.4090  178.2480  148.0960 N   0  0  0  0  0  0  0  0  0  0  0  0
  182.0180  178.7950  143.6020 C   0  0  0  0  0  3  0  0  0  0  0  0
  180.9450  178.7970  141.3490 C   0  0  1  0  0  3  0  0  0  0  0  0
  179.6810  177.1560  142.5460 O   0  0  0  0  0  0  0  0  0  0  0  0
  180.3670  175.7370  138.1020 C   0  0  1  0  0  3  0  0  0  0  0  0
  180.2160  177.4890  141.4540 C   0  0  0  0  0  0  0  0  0  0  0  0
  180.1400  176.6190  140.3130 N   0  0  0  0  0  0  0  0  0  0  0  0
  182.3710  175.4260  139.4670 O   0  0  0  0  0  1  0  0  0  0  0  0
  180.5720  176.9970  138.9650 C   0  0  1  0  0  3  0  0  0  0  0  0
  179.6390  175.2930  140.2730 C   0  0  0  0  0  0  0  0  0  0  0  0
  179.3360  174.5700  141.3450 C   0  0  0  0  0  1  0  0  0  0  0  0
  181.7840  176.2050  138.4630 C   0  0  2  0  0  3  0  0  0  0  0  0
  179.8380  174.7090  139.0040 N   0  0  0  0  0  0  0  0  0  0  0  0
  179.7660  180.8100  140.3950 N   0  0  0  0  0  2  0  0  0  0  0  0
  178.9310  181.9940  140.4960 C   0  0  0  0  0  1  0  0  0  0  0  0
  179.5910  180.2820  142.6610 O   0  0  0  0  0  0  0  0  0  0  0  0
  180.0540  179.9890  141.5240 C   0  0  0  0  0  0  0  0  0  0  0  0
  1  4  1  6  0  0  0
  1 15  1  0  0  0  0
  1  9  1  0  0  0  0
  2  8  1  0  0  0  0
  3  5  1  0  0  0  0
  6 17  2  0  0  0  0
  7 18  1  0  0  0  0
  8 10  2  0  0  0  0
  9  2  2  0  0  0  0
  9  6  1  0  0  0  0
 11 14  1  0  0  0  0
 11 13  1  0  0  0  0
 12  7  2  0  0  0  0
 12 13  1  0  0  0  0
 13  3  2  0  0  0  0
 14  4  1  0  0  0  0
 15  3  1  6  0  0  0
 15 16  1  0  0  0  0
 16  6  1  0  0  0  0
 17 10  1  0  0  0  0
 18  5  2  0  0  0  0
 19 22  1  1  0  0  0
 19 33  1  0  0  0  0
 19  7  1  0  0  0  0
 21 28  1  0  0  0  0
 21 25  1  0  0  0  0
 21 29  1  1  0  0  0
 22 20  2  0  0  0  0
 23 22  1  0  0  0  0
 25 23  1  1  0  0  0
 26 23  1  0  0  0  0
 26 27  1  0  0  0  0
 28 25  1  0  0  0  0
 28 24  1  1  0  0  0
 29 26  2  0  0  0  0
 30 31  1  0  0  0  0
 30 33  1  0  0  0  0
 33 32  2  0  0  0  0
M  END
>  <MODEL>
1

>  <REMARK>
 VINA RESULT:      -9.1      0.000      0.000
  Name = 
  3 active torsions:
  status: ('A' for Active; 'I' for Inactive)
    1  A    between atoms: C_10  and  C_21
    2  A    between atoms: C_11  and  C_21
    3  A    between atoms: C_21  and  C_32
                            x       y       z     vdW  Elec       q    Type
                         _______ _______ _______ _____ _____    ______ ____

>  <TORSDO>
F 3

$$$$
=
 OpenBabel10222419473D

 33 38  0  0  1  0  0  0  0  0999 V2000
  187.4260  177.6080  144.3100 C   0  0  1  0  0  3  0  0  0  0  0  0
  188.8990  176.7930  146.2440 C   0  0  0  0  0  3  0  0  0  0  0  0
  185.5390  178.6680  143.0340 C   0  0  0  0  0  0  0  0  0  0  0  0
  188.6210  177.8700  143.3990 C   0  0  0  0  0  2  0  0  0  0  0  0
  184.1570  178.4860  143.1930 C   0  0  0  0  0  3  0  0  0  0  0  0
  186.9800  178.1930  146.6060 C   0  0  0  0  0  0  0  0  0  0  0  0
  183.8660  178.3830  140.7910 C   0  0  0  0  0  0  0  0  0  0  0  0
  189.1320  176.7940  147.6240 C   0  0  0  0  0  3  0  0  0  0  0  0
  187.8200  177.5230  145.7400 C   0  0  0  0  0  0  0  0  0  0  0  0
  188.2730  177.5160  148.4650 C   0  0  0  0  0  3  0  0  0  0  0  0
  187.5620  178.8270  141.5080 C   0  0  0  0  0  2  0  0  0  0  0  0
  185.2460  178.5540  140.6240 C   0  0  0  0  0  3  0  0  0  0  0  0
  186.0840  178.6960  141.7330 C   0  0  0  0  0  0  0  0  0  0  0  0
  188.2540  177.6420  142.0040 N   0  0  0  0  0  2  0  0  0  0  0  0
  186.4540  178.7910  144.2260 C   0  0  1  0  0  3  0  0  0  0  0  0
  185.6160  179.0380  145.8450 S   0  0  0  0  0  0  0  0  0  0  0  0
  187.2160  178.2000  147.9440 N   0  0  0  0  0  0  0  0  0  0  0  0
  183.3260  178.3480  142.0790 C   0  0  0  0  0  3  0  0  0  0  0  0
  182.9470  178.2440  139.6140 C   0  0  1  0  0  3  0  0  0  0  0  0
  183.5000  180.4420  138.8460 O   0  0  0  0  0  0  0  0  0  0  0  0
  178.9310  179.5680  138.0770 C   0  0  1  0  0  3  0  0  0  0  0  0
  182.6050  179.5650  138.9880 C   0  0  0  0  0  0  0  0  0  0  0  0
  181.2570  179.8280  138.5640 N   0  0  0  0  0  0  0  0  0  0  0  0
  179.3650  180.1020  140.4230 O   0  0  0  0  0  1  0  0  0  0  0  0
  180.2000  178.8160  138.5240 C   0  0  1  0  0  3  0  0  0  0  0  0
  180.7230  181.0600  138.1060 C   0  0  0  0  0  0  0  0  0  0  0  0
  181.3500  182.2280  138.1850 C   0  0  0  0  0  1  0  0  0  0  0  0
  179.0660  179.0720  139.5240 C   0  0  2  0  0  3  0  0  0  0  0  0
  179.3320  180.9660  137.8930 N   0  0  0  0  0  0  0  0  0  0  0  0
  183.1040  175.8480  138.8510 N   0  0  0  0  0  2  0  0  0  0  0  0
  183.5450  174.8000  137.9460 C   0  0  0  0  0  1  0  0  0  0  0  0
  184.0990  177.5650  137.6230 O   0  0  0  0  0  0  0  0  0  0  0  0
  183.4140  177.2220  138.6250 C   0  0  0  0  0  0  0  0  0  0  0  0
  1  4  1  6  0  0  0
  1  9  1  0  0  0  0
  2  8  1  0  0  0  0
  3  5  1  0  0  0  0
  6 17  2  0  0  0  0
  7 18  1  0  0  0  0
  8 10  2  0  0  0  0
  9  2  2  0  0  0  0
  9  6  1  0  0  0  0
 11 13  1  0  0  0  0
 11 14  1  0  0  0  0
 12  7  2  0  0  0  0
 12 13  1  0  0  0  0
 13  3  2  0  0  0  0
 14  4  1  0  0  0  0
 15  3  1  6  0  0  0
 15  1  1  0  0  0  0
 15 16  1  0  0  0  0
 16  6  1  0  0  0  0
 17 10  1  0  0  0  0
 18  5  2  0  0  0  0
 19 33  1  6  0  0  0
 19  7  1  0  0  0  0
 20 22  2  0  0  0  0
 21 29  1  1  0  0  0
 21 25  1  0  0  0  0
 21 28  1  0  0  0  0
 22 19  1  0  0  0  0
 23 22  1  0  0  0  0
 25 23  1  1  0  0  0
 25 28  1  0  0  0  0
 26 27  1  0  0  0  0
 26 23  1  0  0  0  0
 28 24  1  1  0  0  0
 29 26  2  0  0  0  0
 31 30  1  0  0  0  0
 32 33  2  0  0  0  0
 33 30  1  0  0  0  0
M  END
>  <MODEL>
2

>  <REMARK>
 VINA RESULT:      -8.9      2.221      4.002
  Name = 
  3 active torsions:
  status: ('A' for Active; 'I' for Inactive)
    1  A    between atoms: C_10  and  C_21
    2  A    between atoms: C_11  and  C_21
    3  A    between atoms: C_21  and  C_32
                            x       y       z     vdW  Elec       q    Type
                         _______ _______ _______ _____ _____    ______ ____

>  <TORSDO>
F 3

$$$$
=
 OpenBabel10222419473D

 33 38  0  0  1  0  0  0  0  0999 V2000
  187.4340  177.6270  144.1710 C   0  0  1  0  0  3  0  0  0  0  0  0
  188.8340  176.8880  146.1870 C   0  0  0  0  0  3  0  0  0  0  0  0
  185.5820  178.6090  142.7860 C   0  0  0  0  0  0  0  0  0  0  0  0
  188.6650  177.9140  143.3150 C   0  0  0  0  0  2  0  0  0  0  0  0
  184.2000  178.3850  142.8800 C   0  0  0  0  0  3  0  0  0  0  0  0
  186.8570  178.2310  146.4320 C   0  0  0  0  0  0  0  0  0  0  0  0
  184.0320  178.2380  140.4680 C   0  0  0  0  0  0  0  0  0  0  0  0
  188.9970  176.9160  147.5770 C   0  0  0  0  0  3  0  0  0  0  0  0
  187.7590  177.5750  145.6190 C   0  0  0  0  0  0  0  0  0  0  0  0
  188.0760  177.6230  148.3630 C   0  0  0  0  0  3  0  0  0  0  0  0
  187.6720  178.8100  141.3590 C   0  0  0  0  0  2  0  0  0  0  0  0
  185.4130  178.4510  140.3660 C   0  0  0  0  0  3  0  0  0  0  0  0
  186.1900  178.6350  141.5130 C   0  0  0  0  0  0  0  0  0  0  0  0
  188.3750  177.6540  141.9080 N   0  0  0  0  0  2  0  0  0  0  0  0
  186.4320  178.7770  144.0200 C   0  0  1  0  0  3  0  0  0  0  0  0
  185.5070  179.0210  145.5910 S   0  0  0  0  0  0  0  0  0  0  0  0
  187.0250  178.2650  147.7800 N   0  0  0  0  0  0  0  0  0  0  0  0
  183.4300  178.2050  141.7280 C   0  0  0  0  0  3  0  0  0  0  0  0
  183.1780  178.0540  139.2500 C   0  0  1  0  0  3  0  0  0  0  0  0
  182.6540  175.7240  139.3970 O   0  0  0  0  0  0  0  0  0  0  0  0
  185.0430  176.5910  135.4250 C   0  0  1  0  0  3  0  0  0  0  0  0
  183.2030  176.6450  138.7330 C   0  0  0  0  0  0  0  0  0  0  0  0
  183.8620  176.3510  137.4900 N   0  0  0  0  0  0  0  0  0  0  0  0
  186.5190  176.5490  137.3740 O   0  0  0  0  0  1  0  0  0  0  0  0
  184.3670  177.3710  136.5690 C   0  0  1  0  0  3  0  0  0  0  0  0
  184.1200  175.0710  136.9340 C   0  0  0  0  0  0  0  0  0  0  0  0
  183.9640  173.9230  137.5820 C   0  0  0  0  0  1  0  0  0  0  0  0
  185.8940  177.3770  136.4340 C   0  0  2  0  0  3  0  0  0  0  0  0
  184.8940  175.1710  135.7580 N   0  0  0  0  0  0  0  0  0  0  0  0
  181.5840  180.0050  139.2920 N   0  0  0  0  0  2  0  0  0  0  0  0
  180.2730  180.6070  139.4660 C   0  0  0  0  0  1  0  0  0  0  0  0
  180.8320  177.8340  139.6990 O   0  0  0  0  0  0  0  0  0  0  0  0
  181.7940  178.6000  139.4170 C   0  0  0  0  0  0  0  0  0  0  0  0
  1  4  1  6  0  0  0
  1  9  1  0  0  0  0
  2  8  1  0  0  0  0
  3  5  1  0  0  0  0
  6 17  2  0  0  0  0
  7 18  1  0  0  0  0
  8 10  2  0  0  0  0
  9  2  2  0  0  0  0
  9  6  1  0  0  0  0
 11 13  1  0  0  0  0
 11 14  1  0  0  0  0
 12  7  2  0  0  0  0
 12 13  1  0  0  0  0
 13  3  2  0  0  0  0
 14  4  1  0  0  0  0
 15  3  1  6  0  0  0
 15  1  1  0  0  0  0
 15 16  1  0  0  0  0
 16  6  1  0  0  0  0
 17 10  1  0  0  0  0
 18  5  2  0  0  0  0
 19 22  1  1  0  0  0
 19 33  1  0  0  0  0
 19  7  1  0  0  0  0
 21 29  1  1  0  0  0
 21 28  1  0  0  0  0
 21 25  1  0  0  0  0
 22 20  2  0  0  0  0
 23 22  1  0  0  0  0
 25 23  1  1  0  0  0
 26 23  1  0  0  0  0
 26 27  1  0  0  0  0
 28 25  1  0  0  0  0
 28 24  1  1  0  0  0
 29 26  2  0  0  0  0
 30 33  1  0  0  0  0
 30 31  1  0  0  0  0
 33 32  2  0  0  0  0
M  END
>  <MODEL>
3

>  <REMARK>
 VINA RESULT:      -8.7      2.493      3.234
  Name = 
  3 active torsions:
  status: ('A' for Active; 'I' for Inactive)
    1  A    between atoms: C_10  and  C_21
    2  A    between atoms: C_11  and  C_21
    3  A    between atoms: C_21  and  C_32
                            x       y       z     vdW  Elec       q    Type
                         _______ _______ _______ _____ _____    ______ ____

>  <TORSDO>
F 3

$$$$
=
 OpenBabel10222419473D

 33 38  0  0  1  0  0  0  0  0999 V2000
  186.2420  178.6620  145.4300 C   0  0  1  0  0  3  0  0  0  0  0  0
  187.1360  178.9900  147.8110 C   0  0  0  0  0  3  0  0  0  0  0  0
  186.0380  177.9030  143.0440 C   0  0  0  0  0  0  0  0  0  0  0  0
  184.7850  178.7100  145.8810 C   0  0  0  0  0  2  0  0  0  0  0  0
  186.9880  177.9740  142.0140 C   0  0  0  0  0  3  0  0  0  0  0  0
  188.1570  177.4600  146.2650 C   0  0  0  0  0  0  0  0  0  0  0  0
  185.2850  178.7090  140.4560 C   0  0  0  0  0  0  0  0  0  0  0  0
  188.0920  178.6260  148.7660 C   0  0  0  0  0  3  0  0  0  0  0  0
  187.1670  178.3760  146.5560 C   0  0  0  0  0  0  0  0  0  0  0  0
  189.0590  177.6660  148.4390 C   0  0  0  0  0  3  0  0  0  0  0  0
  183.6550  178.2530  143.8490 C   0  0  0  0  0  2  0  0  0  0  0  0
  184.3320  178.6510  141.4810 C   0  0  0  0  0  3  0  0  0  0  0  0
  184.6980  178.2520  142.7700 C   0  0  0  0  0  0  0  0  0  0  0  0
  183.9490  179.2900  144.8320 N   0  0  0  0  0  2  0  0  0  0  0  0
  186.4310  177.5040  144.4440 C   0  0  1  0  0  3  0  0  0  0  0  0
  188.1170  176.7910  144.6200 S   0  0  0  0  0  0  0  0  0  0  0  0
  189.0770  177.1020  147.1990 N   0  0  0  0  0  0  0  0  0  0  0  0
  186.6120  178.3690  140.7280 C   0  0  0  0  0  3  0  0  0  0  0  0
  184.9100  179.1180  139.0640 C   0  0  1  0  0  3  0  0  0  0  0  0
  183.8400  177.1990  138.1170 O   0  0  0  0  0  0  0  0  0  0  0  0
  188.0080  177.9150  136.0310 C   0  0  1  0  0  3  0  0  0  0  0  0
  184.8480  177.9570  138.1150 C   0  0  0  0  0  0  0  0  0  0  0  0
  185.9420  177.7080  137.2170 N   0  0  0  0  0  0  0  0  0  0  0  0
  188.2670  176.8860  138.2340 O   0  0  0  0  0  1  0  0  0  0  0  0
  187.0640  178.6280  137.0190 C   0  0  1  0  0  3  0  0  0  0  0  0
  186.1260  176.5810  136.3750 C   0  0  0  0  0  0  0  0  0  0  0  0
  185.3990  175.4710  136.4340 C   0  0  0  0  0  1  0  0  0  0  0  0
  188.4080  178.0730  137.5050 C   0  0  2  0  0  3  0  0  0  0  0  0
  187.3780  176.6270  135.7260 N   0  0  0  0  0  0  0  0  0  0  0  0
  182.4160  179.4060  139.2800 N   0  0  0  0  0  2  0  0  0  0  0  0
  181.1900  180.1840  139.2290 C   0  0  0  0  0  1  0  0  0  0  0  0
  183.7860  181.2100  138.7190 O   0  0  0  0  0  0  0  0  0  0  0  0
  183.6910  179.9880  139.0180 C   0  0  0  0  0  0  0  0  0  0  0  0
  1  4  1  1  0  0  0
  1  9  1  0  0  0  0
  2  8  1  0  0  0  0
  5  3  2  0  0  0  0
  6  9  1  0  0  0  0
  6 17  2  0  0  0  0
  7 18  2  0  0  0  0
  7 12  1  0  0  0  0
  9  2  2  0  0  0  0
 10  8  2  0  0  0  0
 11 14  1  0  0  0  0
 12 13  2  0  0  0  0
 13  3  1  0  0  0  0
 13 11  1  0  0  0  0
 14  4  1  0  0  0  0
 15  3  1  6  0  0  0
 15 16  1  0  0  0  0
 15  1  1  0  0  0  0
 16  6  1  0  0  0  0
 17 10  1  0  0  0  0
 18  5  1  0  0  0  0
 19 22  1  6  0  0  0
 19  7  1  0  0  0  0
 21 29  1  1  0  0  0
 21 25  1  0  0  0  0
 21 28  1  0  0  0  0
 22 20  2  0  0  0  0
 23 22  1  0  0  0  0
 25 23  1  1  0  0  0
 25 28  1  0  0  0  0
 26 27  1  0  0  0  0
 26 23  1  0  0  0  0
 28 24  1  1  0  0  0
 29 26  2  0  0  0  0
 31 30  1  0  0  0  0
 32 33  2  0  0  0  0
 33 19  1  0  0  0  0
 33 30  1  0  0  0  0
M  END
>  <MODEL>
4

>  <REMARK>
 VINA RESULT:      -8.5      3.403      4.807
  Name = 
  3 active torsions:
  status: ('A' for Active; 'I' for Inactive)
    1  A    between atoms: C_10  and  C_21
    2  A    between atoms: C_11  and  C_21
    3  A    between atoms: C_21  and  C_32
                            x       y       z     vdW  Elec       q    Type
                         _______ _______ _______ _____ _____    ______ ____

>  <TORSDO>
F 3

$$$$
=
 OpenBabel10222419473D

 33 38  0  0  1  0  0  0  0  0999 V2000
  187.0300  177.6990  144.1270 C   0  0  1  0  0  3  0  0  0  0  0  0
  188.6040  176.8150  145.9470 C   0  0  0  0  0  3  0  0  0  0  0  0
  185.0950  178.8290  142.9920 C   0  0  0  0  0  0  0  0  0  0  0  0
  188.1700  177.9410  143.1410 C   0  0  0  0  0  2  0  0  0  0  0  0
  183.7220  178.6820  143.2400 C   0  0  0  0  0  3  0  0  0  0  0  0
  186.7530  178.2610  146.4540 C   0  0  0  0  0  0  0  0  0  0  0  0
  183.2700  178.6230  140.8600 C   0  0  0  0  0  0  0  0  0  0  0  0
  188.9270  176.7890  147.3090 C   0  0  0  0  0  3  0  0  0  0  0  0
  187.5150  177.5810  145.5260 C   0  0  0  0  0  0  0  0  0  0  0  0
  188.1460  177.5220  148.2140 C   0  0  0  0  0  3  0  0  0  0  0  0
  187.0170  178.9560  141.3370 C   0  0  0  0  0  2  0  0  0  0  0  0
  184.6410  178.7590  140.6050 C   0  0  0  0  0  3  0  0  0  0  0  0
  185.5540  178.8610  141.6580 C   0  0  0  0  0  0  0  0  0  0  0  0
  187.7060  177.7450  141.7710 N   0  0  0  0  0  2  0  0  0  0  0  0
  186.0890  178.9090  144.1220 C   0  0  1  0  0  3  0  0  0  0  0  0
  185.3670  179.1550  145.7960 S   0  0  0  0  0  0  0  0  0  0  0  0
  187.0760  178.2420  147.7740 N   0  0  0  0  0  0  0  0  0  0  0  0
  182.8150  178.5850  142.1810 C   0  0  0  0  0  3  0  0  0  0  0  0
  182.2730  178.5280  139.7460 C   0  0  1  0  0  3  0  0  0  0  0  0
  180.6690  177.2120  140.9380 O   0  0  0  0  0  0  0  0  0  0  0  0
  181.5920  175.2320  136.7600 C   0  0  1  0  0  3  0  0  0  0  0  0
  181.3550  177.3490  139.8890 C   0  0  0  0  0  0  0  0  0  0  0  0
  181.2710  176.3760  138.8350 N   0  0  0  0  0  0  0  0  0  0  0  0
  183.3800  174.8090  138.3720 O   0  0  0  0  0  1  0  0  0  0  0  0
  181.8880  176.5410  137.5170 C   0  0  1  0  0  3  0  0  0  0  0  0
  180.5890  175.1320  138.8630 C   0  0  0  0  0  0  0  0  0  0  0  0
  180.0770  174.5790  139.9560 C   0  0  0  0  0  1  0  0  0  0  0  0
  183.0180  175.5430  137.2360 C   0  0  2  0  0  3  0  0  0  0  0  0
  180.8300  174.3900  137.6870 N   0  0  0  0  0  0  0  0  0  0  0  0
  182.0390  180.7000  138.4890 N   0  0  0  0  0  2  0  0  0  0  0  0
  181.4040  181.9760  138.2090 C   0  0  0  0  0  1  0  0  0  0  0  0
  180.5420  180.1300  140.1860 O   0  0  0  0  0  0  0  0  0  0  0  0
  181.5500  179.8160  139.4950 C   0  0  0  0  0  0  0  0  0  0  0  0
  1  4  1  6  0  0  0
  1  9  1  0  0  0  0
  2  8  1  0  0  0  0
  3  5  1  0  0  0  0
  6 17  2  0  0  0  0
  7 18  1  0  0  0  0
  8 10  2  0  0  0  0
  9  2  2  0  0  0  0
  9  6  1  0  0  0  0
 11 13  1  0  0  0  0
 11 14  1  0  0  0  0
 12  7  2  0  0  0  0
 12 13  1  0  0  0  0
 13  3  2  0  0  0  0
 14  4  1  0  0  0  0
 15  3  1  6  0  0  0
 15  1  1  0  0  0  0
 15 16  1  0  0  0  0
 16  6  1  0  0  0  0
 17 10  1  0  0  0  0
 18  5  2  0  0  0  0
 19 33  1  1  0  0  0
 19 22  1  0  0  0  0
 19  7  1  0  0  0  0
 21 28  1  0  0  0  0
 21 25  1  0  0  0  0
 21 29  1  1  0  0  0
 22 20  2  0  0  0  0
 23 26  1  0  0  0  0
 23 22  1  0  0  0  0
 25 23  1  1  0  0  0
 26 27  1  0  0  0  0
 28 25  1  0  0  0  0
 28 24  1  1  0  0  0
 29 26  2  0  0  0  0
 30 33  1  0  0  0  0
 31 30  1  0  0  0  0
 33 32  2  0  0  0  0
M  END
>  <MODEL>
5

>  <REMARK>
 VINA RESULT:      -8.4      1.484      1.646
  Name = 
  3 active torsions:
  status: ('A' for Active; 'I' for Inactive)
    1  A    between atoms: C_10  and  C_21
    2  A    between atoms: C_11  and  C_21
    3  A    between atoms: C_21  and  C_32
                            x       y       z     vdW  Elec       q    Type
                         _______ _______ _______ _____ _____    ______ ____

>  <TORSDO>
F 3

$$$$
=
 OpenBabel10222419473D

 33 38  0  0  1  0  0  0  0  0999 V2000
  186.3420  178.5990  145.6590 C   0  0  1  0  0  3  0  0  0  0  0  0
  187.4650  178.7810  147.9560 C   0  0  0  0  0  3  0  0  0  0  0  0
  185.9080  177.9980  143.2580 C   0  0  0  0  0  0  0  0  0  0  0  0
  184.9360  178.5920  146.2540 C   0  0  0  0  0  2  0  0  0  0  0  0
  186.7500  178.1530  142.1470 C   0  0  0  0  0  3  0  0  0  0  0  0
  188.3420  177.3760  146.2160 C   0  0  0  0  0  0  0  0  0  0  0  0
  184.8920  178.9620  140.8190 C   0  0  0  0  0  0  0  0  0  0  0  0
  188.5150  178.3710  148.7850 C   0  0  0  0  0  3  0  0  0  0  0  0
  187.3770  178.2530  146.6660 C   0  0  0  0  0  0  0  0  0  0  0  0
  189.4550  177.4510  148.3000 C   0  0  0  0  0  3  0  0  0  0  0  0
  183.6140  178.2530  144.3170 C   0  0  0  0  0  2  0  0  0  0  0  0
  184.0480  178.8190  141.9270 C   0  0  0  0  0  3  0  0  0  0  0  0
  184.5440  178.3420  143.1430 C   0  0  0  0  0  0  0  0  0  0  0  0
  183.9940  179.2260  145.3350 N   0  0  0  0  0  2  0  0  0  0  0  0
  186.4430  177.5130  144.5820 C   0  0  1  0  0  3  0  0  0  0  0  0
  188.1450  176.8180  144.5410 S   0  0  0  0  0  0  0  0  0  0  0  0
  189.3540  176.9710  147.0280 N   0  0  0  0  0  0  0  0  0  0  0  0
  186.2440  178.6270  140.9340 C   0  0  0  0  0  3  0  0  0  0  0  0
  184.3760  179.4570  139.5020 C   0  0  1  0  0  3  0  0  0  0  0  0
  185.7620  179.0690  137.5900 O   0  0  0  0  0  0  0  0  0  0  0  0
  182.9200  175.3740  138.2970 C   0  0  1  0  0  3  0  0  0  0  0  0
  184.8520  178.6280  138.3440 C   0  0  0  0  0  0  0  0  0  0  0  0
  184.2610  177.3420  138.0940 N   0  0  0  0  0  0  0  0  0  0  0  0
  181.7300  177.2410  137.2590 O   0  0  0  0  0  1  0  0  0  0  0  0
  183.3340  176.6760  139.0100 C   0  0  1  0  0  3  0  0  0  0  0  0
  184.4700  176.5030  136.9700 C   0  0  0  0  0  0  0  0  0  0  0  0
  185.1040  176.8710  135.8630 C   0  0  0  0  0  2  0  0  0  0  0  0
  181.9150  176.5260  138.4480 C   0  0  2  0  0  3  0  0  0  0  0  0
  183.6270  175.3720  137.0130 N   0  0  0  0  0  2  0  0  0  0  0  0
  182.3020  180.3790  138.4060 N   0  0  0  0  0  2  0  0  0  0  0  0
  180.8770  180.6550  138.3510 C   0  0  0  0  0  1  0  0  0  0  0  0
  182.1870  179.2940  140.4690 O   0  0  0  0  0  0  0  0  0  0  0  0
  182.8960  179.6830  139.5010 C   0  0  0  0  0  0  0  0  0  0  0  0
  1  4  1  1  0  0  0
  1  9  1  0  0  0  0
  2  8  1  0  0  0  0
  5  3  2  0  0  0  0
  6  9  1  0  0  0  0
  6 17  2  0  0  0  0
  7 18  2  0  0  0  0
  7 12  1  0  0  0  0
  9  2  2  0  0  0  0
 10  8  2  0  0  0  0
 11 14  1  0  0  0  0
 12 13  2  0  0  0  0
 13  3  1  0  0  0  0
 13 11  1  0  0  0  0
 14  4  1  0  0  0  0
 15  3  1  6  0  0  0
 15  1  1  0  0  0  0
 16 15  1  0  0  0  0
 16  6  1  0  0  0  0
 17 10  1  0  0  0  0
 18  5  1  0  0  0  0
 19 22  1  6  0  0  0
 19  7  1  0  0  0  0
 20 22  2  0  0  0  0
 21 29  1  6  0  0  0
 21 28  1  0  0  0  0
 21 25  1  0  0  0  0
 23 22  1  0  0  0  0
 25 23  1  6  0  0  0
 26 29  1  0  0  0  0
 26 23  1  0  0  0  0
 27 26  2  0  0  0  0
 28 24  1  6  0  0  0
 28 25  1  0  0  0  0
 30 33  1  0  0  0  0
 31 30  1  0  0  0  0
 33 19  1  0  0  0  0
 33 32  2  0  0  0  0
M  END
>  <MODEL>
6

>  <REMARK>
 VINA RESULT:      -7.8      2.640      3.820
  Name = 
  3 active torsions:
  status: ('A' for Active; 'I' for Inactive)
    1  A    between atoms: C_10  and  C_21
    2  A    between atoms: C_11  and  C_21
    3  A    between atoms: C_21  and  C_32
                            x       y       z     vdW  Elec       q    Type
                         _______ _______ _______ _____ _____    ______ ____

>  <TORSDO>
F 3

$$$$
=
 OpenBabel10222419473D

 33 38  0  0  1  0  0  0  0  0999 V2000
  187.4420  178.2760  145.1890 C   0  0  1  0  0  3  0  0  0  0  0  0
  189.8400  178.3100  146.0930 C   0  0  0  0  0  3  0  0  0  0  0  0
  185.4410  177.7670  143.7570 C   0  0  0  0  0  0  0  0  0  0  0  0
  186.8260  178.3780  146.5810 C   0  0  0  0  0  2  0  0  0  0  0  0
  185.3060  177.8720  142.3640 C   0  0  0  0  0  3  0  0  0  0  0  0
  189.1800  176.8720  144.2860 C   0  0  0  0  0  0  0  0  0  0  0  0
  183.1130  178.8680  142.6250 C   0  0  0  0  0  0  0  0  0  0  0  0
  191.1370  177.7920  146.0010 C   0  0  0  0  0  3  0  0  0  0  0  0
  188.8550  177.8200  145.2340 C   0  0  0  0  0  0  0  0  0  0  0  0
  191.4170  176.8050  145.0450 C   0  0  0  0  0  3  0  0  0  0  0  0
  184.5170  178.1960  146.0820 C   0  0  0  0  0  2  0  0  0  0  0  0
  183.2450  178.7750  144.0170 C   0  0  0  0  0  3  0  0  0  0  0  0
  184.3980  178.2300  144.5870 C   0  0  0  0  0  0  0  0  0  0  0  0
  185.5640  179.1110  146.5250 N   0  0  0  0  0  2  0  0  0  0  0  0
  186.6950  177.2080  144.3810 C   0  0  1  0  0  3  0  0  0  0  0  0
  187.8510  176.3700  143.2200 S   0  0  0  0  0  0  0  0  0  0  0  0
  190.4380  176.3640  144.2060 N   0  0  0  0  0  0  0  0  0  0  0  0
  184.1480  178.4150  141.8030 C   0  0  0  0  0  3  0  0  0  0  0  0
  181.8780  179.4350  141.9930 C   0  0  1  0  0  3  0  0  0  0  0  0
  181.6180  177.4000  140.7620 O   0  0  0  0  0  0  0  0  0  0  0  0
  179.7840  181.0000  138.3310 C   0  0  1  0  0  3  0  0  0  0  0  0
  181.4230  178.6450  140.8000 C   0  0  0  0  0  0  0  0  0  0  0  0
  180.7790  179.3140  139.7030 N   0  0  0  0  0  0  0  0  0  0  0  0
  182.2250  180.9650  138.1880 O   0  0  0  0  0  1  0  0  0  0  0  0
  180.3530  180.7140  139.7340 C   0  0  1  0  0  3  0  0  0  0  0  0
  180.4320  178.7620  138.4430 C   0  0  0  0  0  0  0  0  0  0  0  0
  180.8320  177.5750  138.0050 C   0  0  0  0  0  1  0  0  0  0  0  0
  181.1240  181.6140  138.7610 C   0  0  2  0  0  3  0  0  0  0  0  0
  179.9230  179.7510  137.5750 N   0  0  0  0  0  0  0  0  0  0  0  0
  180.1440  178.5970  143.6180 N   0  0  0  0  0  2  0  0  0  0  0  0
  179.0600  178.7790  144.5680 C   0  0  0  0  0  1  0  0  0  0  0  0
  180.4110  180.8810  143.2220 O   0  0  0  0  0  0  0  0  0  0  0  0
  180.7840  179.7000  142.9810 C   0  0  0  0  0  0  0  0  0  0  0  0
  1  9  1  0  0  0  0
  1  4  1  1  0  0  0
  3 15  1  0  0  0  0
  3 13  1  0  0  0  0
  5  3  2  0  0  0  0
  6  9  1  0  0  0  0
  7 12  1  0  0  0  0
  8  2  1  0  0  0  0
  9  2  2  0  0  0  0
 10  8  2  0  0  0  0
 11 14  1  0  0  0  0
 12 13  2  0  0  0  0
 13 11  1  0  0  0  0
 14  4  1  0  0  0  0
 15 16  1  6  0  0  0
 15  1  1  0  0  0  0
 16  6  1  0  0  0  0
 17  6  2  0  0  0  0
 17 10  1  0  0  0  0
 18  5  1  0  0  0  0
 18  7  2  0  0  0  0
 19 22  1  6  0  0  0
 19  7  1  0  0  0  0
 19 33  1  0  0  0  0
 20 22  2  0  0  0  0
 21 29  1  6  0  0  0
 21 28  1  0  0  0  0
 21 25  1  0  0  0  0
 23 22  1  0  0  0  0
 25 23  1  6  0  0  0
 26 23  1  0  0  0  0
 27 26  1  0  0  0  0
 28 24  1  6  0  0  0
 28 25  1  0  0  0  0
 29 26  2  0  0  0  0
 30 31  1  0  0  0  0
 33 32  2  0  0  0  0
 33 30  1  0  0  0  0
M  END
>  <MODEL>
7

>  <REMARK>
 VINA RESULT:      -7.7      2.396      3.611
  Name = 
  3 active torsions:
  status: ('A' for Active; 'I' for Inactive)
    1  A    between atoms: C_10  and  C_21
    2  A    between atoms: C_11  and  C_21
    3  A    between atoms: C_21  and  C_32
                            x       y       z     vdW  Elec       q    Type
                         _______ _______ _______ _____ _____    ______ ____

>  <TORSDO>
F 3

$$$$
=
 OpenBabel10222419473D

 33 38  0  0  1  0  0  0  0  0999 V2000
  189.7390  177.0690  143.2610 C   0  0  1  0  0  3  0  0  0  0  0  0
  189.1330  176.8310  145.7410 C   0  0  0  0  0  3  0  0  0  0  0  0
  189.5740  177.5620  140.8030 C   0  0  0  0  0  0  0  0  0  0  0  0
  191.1940  177.4160  143.5640 C   0  0  0  0  0  2  0  0  0  0  0  0
  188.5950  177.1480  139.8870 C   0  0  0  0  0  3  0  0  0  0  0  0
  187.6580  177.8840  144.1630 C   0  0  0  0  0  0  0  0  0  0  0  0
  190.3040  176.6480  138.2450 C   0  0  0  0  0  0  0  0  0  0  0  0
  188.1910  177.0750  146.7470 C   0  0  0  0  0  3  0  0  0  0  0  0
  188.8590  177.2660  144.4410 C   0  0  0  0  0  0  0  0  0  0  0  0
  186.9980  177.7360  146.4270 C   0  0  0  0  0  3  0  0  0  0  0  0
  192.0230  177.8760  141.3920 C   0  0  0  0  0  2  0  0  0  0  0  0
  191.2880  177.0490  139.1570 C   0  0  0  0  0  3  0  0  0  0  0  0
  190.9330  177.5040  140.4300 C   0  0  0  0  0  0  0  0  0  0  0  0
  192.0640  176.9250  142.4990 N   0  0  0  0  0  2  0  0  0  0  0  0
  189.2020  178.0240  142.1890 C   0  0  1  0  0  3  0  0  0  0  0  0
  187.4100  178.3400  142.4640 S   0  0  0  0  0  0  0  0  0  0  0  0
  186.7510  178.1270  145.1450 N   0  0  0  0  0  0  0  0  0  0  0  0
  188.9570  176.6990  138.6150 C   0  0  0  0  0  3  0  0  0  0  0  0
  190.6610  176.1720  136.8690 C   0  0  1  0  0  3  0  0  0  0  0  0
  190.9600  173.9080  137.5830 O   0  0  0  0  0  0  0  0  0  0  0  0
  194.4030  175.1250  134.6010 C   0  0  1  0  0  3  0  0  0  0  0  0
  191.3940  174.8620  136.8810 C   0  0  0  0  0  0  0  0  0  0  0  0
  192.5910  174.7040  136.1030 N   0  0  0  0  0  0  0  0  0  0  0  0
  194.7750  176.0500  136.8330 O   0  0  0  0  0  1  0  0  0  0  0  0
  193.0690  175.6860  135.1270 C   0  0  1  0  0  3  0  0  0  0  0  0
  193.4900  173.6070  136.1180 C   0  0  0  0  0  0  0  0  0  0  0  0
  193.4660  172.6260  137.0120 C   0  0  0  0  0  1  0  0  0  0  0  0
  194.3910  176.3530  135.5220 C   0  0  2  0  0  3  0  0  0  0  0  0
  194.6180  173.8590  135.3090 N   0  0  0  0  0  0  0  0  0  0  0  0
  188.8470  177.4340  135.6580 N   0  0  0  0  0  2  0  0  0  0  0  0
  187.7010  177.5260  134.7700 C   0  0  0  0  0  1  0  0  0  0  0  0
  189.0870  175.1280  135.3900 O   0  0  0  0  0  0  0  0  0  0  0  0
  189.5010  176.1950  135.9220 C   0  0  0  0  0  0  0  0  0  0  0  0
  1  4  1  1  0  0  0
  1  9  1  0  0  0  0
  2  8  1  0  0  0  0
  5  3  2  0  0  0  0
  6  9  1  0  0  0  0
  6 17  2  0  0  0  0
  7 18  2  0  0  0  0
  7 12  1  0  0  0  0
  9  2  2  0  0  0  0
 10  8  2  0  0  0  0
 11 14  1  0  0  0  0
 12 13  2  0  0  0  0
 13  3  1  0  0  0  0
 13 11  1  0  0  0  0
 14  4  1  0  0  0  0
 15  3  1  6  0  0  0
 15 16  1  0  0  0  0
 15  1  1  0  0  0  0
 16  6  1  0  0  0  0
 17 10  1  0  0  0  0
 18  5  1  0  0  0  0
 19 33  1  6  0  0  0
 19 22  1  0  0  0  0
 19  7  1  0  0  0  0
 21 25  1  0  0  0  0
 21 29  1  1  0  0  0
 21 28  1  0  0  0  0
 22 20  2  0  0  0  0
 23 26  1  0  0  0  0
 23 22  1  0  0  0  0
 25 28  1  0  0  0  0
 25 23  1  1  0  0  0
 26 27  1  0  0  0  0
 28 24  1  1  0  0  0
 29 26  2  0  0  0  0
 30 33  1  0  0  0  0
 31 30  1  0  0  0  0
 32 33  2  0  0  0  0
M  END
>  <MODEL>
8

>  <REMARK>
 VINA RESULT:      -7.7      6.971      9.665
  Name = 
  3 active torsions:
  status: ('A' for Active; 'I' for Inactive)
    1  A    between atoms: C_10  and  C_21
    2  A    between atoms: C_11  and  C_21
    3  A    between atoms: C_21  and  C_32
                            x       y       z     vdW  Elec       q    Type
                         _______ _______ _______ _____ _____    ______ ____

>  <TORSDO>
F 3

$$$$
=
 OpenBabel10222419473D

 33 38  0  0  1  0  0  0  0  0999 V2000
  188.9250  176.9200  142.7670 C   0  0  1  0  0  3  0  0  0  0  0  0
  191.0410  175.6000  143.3620 C   0  0  0  0  0  3  0  0  0  0  0  0
  186.8580  178.3330  142.9790 C   0  0  0  0  0  0  0  0  0  0  0  0
  189.4750  177.3530  141.4110 C   0  0  0  0  0  2  0  0  0  0  0  0
  185.7660  178.1690  143.8440 C   0  0  0  0  0  3  0  0  0  0  0  0
  189.8760  176.9390  144.9820 C   0  0  0  0  0  0  0  0  0  0  0  0
  184.2280  178.6710  142.0410 C   0  0  0  0  0  0  0  0  0  0  0  0
  191.9690  175.2530  144.3510 C   0  0  0  0  0  3  0  0  0  0  0  0
  189.9990  176.4710  143.6900 C   0  0  0  0  0  0  0  0  0  0  0  0
  191.8250  175.7780  145.6430 C   0  0  0  0  0  3  0  0  0  0  0  0
  187.7500  178.7850  140.6450 C   0  0  0  0  0  2  0  0  0  0  0  0
  185.3120  178.8260  141.1690 C   0  0  0  0  0  3  0  0  0  0  0  0
  186.6220  178.6580  141.6260 C   0  0  0  0  0  0  0  0  0  0  0  0
  188.3900  177.4880  140.4440 N   0  0  0  0  0  2  0  0  0  0  0  0
  188.2730  178.1230  143.4570 C   0  0  1  0  0  3  0  0  0  0  0  0
  188.4810  177.9970  145.2810 S   0  0  0  0  0  0  0  0  0  0  0  0
  190.7860  176.6080  145.9360 N   0  0  0  0  0  0  0  0  0  0  0  0
  184.4600  178.3420  143.3790 C   0  0  0  0  0  3  0  0  0  0  0  0
  182.8160  178.8610  141.5750 C   0  0  1  0  0  3  0  0  0  0  0  0
  182.9430  176.7070  140.5410 O   0  0  0  0  0  0  0  0  0  0  0  0
  179.7320  179.3650  138.3380 C   0  0  1  0  0  3  0  0  0  0  0  0
  182.4040  177.8470  140.5470 C   0  0  0  0  0  0  0  0  0  0  0  0
  181.4060  178.1840  139.5700 N   0  0  0  0  0  0  0  0  0  0  0  0
  182.0090  179.9870  137.6990 O   0  0  0  0  0  1  0  0  0  0  0  0
  180.6030  179.4080  139.6080 C   0  0  1  0  0  3  0  0  0  0  0  0
  181.0140  177.4190  138.4410 C   0  0  0  0  0  0  0  0  0  0  0  0
  181.6570  176.3460  137.9990 C   0  0  0  0  0  1  0  0  0  0  0  0
  180.8890  180.3680  138.4480 C   0  0  2  0  0  3  0  0  0  0  0  0
  180.0900  178.1260  137.6420 N   0  0  0  0  0  0  0  0  0  0  0  0
  180.7870  178.0400  142.8220 N   0  0  0  0  0  2  0  0  0  0  0  0
  179.7900  178.1210  143.8760 C   0  0  0  0  0  1  0  0  0  0  0  0
  181.9270  179.9540  143.5170 O   0  0  0  0  0  0  0  0  0  0  0  0
  181.8400  178.9940  142.7030 C   0  0  0  0  0  0  0  0  0  0  0  0
  1  4  1  6  0  0  0
  1 15  1  0  0  0  0
  1  9  1  0  0  0  0
  2  9  2  0  0  0  0
  2  8  1  0  0  0  0
  3  5  1  0  0  0  0
  6 16  1  0  0  0  0
  6 17  2  0  0  0  0
  7 18  1  0  0  0  0
  8 10  2  0  0  0  0
  9  6  1  0  0  0  0
 10 17  1  0  0  0  0
 11 13  1  0  0  0  0
 12 13  1  0  0  0  0
 12  7  2  0  0  0  0
 13  3  2  0  0  0  0
 14 11  1  0  0  0  0
 14  4  1  0  0  0  0
 15  3  1  1  0  0  0
 15 16  1  0  0  0  0
 18  5  2  0  0  0  0
 19 22  1  1  0  0  0
 19  7  1  0  0  0  0
 19 33  1  0  0  0  0
 20 22  2  0  0  0  0
 21 29  1  6  0  0  0
 21 28  1  0  0  0  0
 21 25  1  0  0  0  0
 23 22  1  0  0  0  0
 25 23  1  6  0  0  0
 26 23  1  0  0  0  0
 27 26  1  0  0  0  0
 28 24  1  6  0  0  0
 28 25  1  0  0  0  0
 29 26  2  0  0  0  0
 30 31  1  0  0  0  0
 33 30  1  0  0  0  0
 33 32  2  0  0  0  0
M  END
>  <MODEL>
9

>  <REMARK>
 VINA RESULT:      -7.4      2.470      3.366
  Name = 
  3 active torsions:
  status: ('A' for Active; 'I' for Inactive)
    1  A    between atoms: C_10  and  C_21
    2  A    between atoms: C_11  and  C_21
    3  A    between atoms: C_21  and  C_32
                            x       y       z     vdW  Elec       q    Type
                         _______ _______ _______ _____ _____    ______ ____

>  <TORSDO>
F 3

$$$$
