=
 OpenBabel10222420053D

 27 29  0  0  1  0  0  0  0  0999 V2000
  190.7170  175.9950  142.9060 S   0  0  0  0  0  0  0  0  0  0  0  0
  188.8260  177.9150  142.9130 C   0  0  1  0  0  3  0  0  0  0  0  0
  190.6820  177.2190  144.2050 C   0  0  2  0  0  3  0  0  0  0  0  0
  189.7010  178.1160  144.1040 C   0  0  0  0  0  2  0  0  0  0  0  0
  189.5720  177.0220  142.0370 N   0  0  0  0  0  0  0  0  0  0  0  0
  189.7210  177.2870  140.6370 C   0  0  0  0  0  0  0  0  0  0  0  0
  190.7140  176.7650  139.8250 C   0  0  0  0  0  3  0  0  0  0  0  0
  188.8920  178.0860  139.8810 C   0  0  0  0  0  3  0  0  0  0  0  0
  190.4470  177.2740  138.5650 C   0  0  0  0  0  3  0  0  0  0  0  0
  189.3500  178.0530  138.6200 N   0  0  0  0  0  0  0  0  0  0  0  0
  188.7810  178.7910  137.5060 C   0  0  0  0  0  2  0  0  0  0  0  0
  187.4390  178.1990  137.1230 C   0  0  0  0  0  2  0  0  0  0  0  0
  186.3820  179.1120  137.5140 N   0  0  0  0  0  2  0  0  0  0  0  0
  185.5690  178.4260  138.4250 N   0  0  0  0  0  2  0  0  0  0  0  0
  184.3140  180.1360  139.1660 N   0  0  0  0  0  1  0  0  0  0  0  0
  185.3700  179.2840  139.5130 N   0  0  0  0  0  2  0  0  0  0  0  0
  187.5870  177.2710  143.3280 N   0  0  0  0  0  2  0  0  0  0  0  0
  186.4930  177.8670  142.5720 C   0  0  0  0  0  2  0  0  0  0  0  0
  185.3740  178.2790  143.4750 C   0  0  0  0  0  0  0  0  0  0  0  0
  184.5420  178.6660  145.7200 C   0  0  0  0  0  3  0  0  0  0  0  0
  185.5800  178.2970  144.8590 C   0  0  0  0  0  3  0  0  0  0  0  0
  183.0730  178.9670  143.8190 C   0  0  0  0  0  3  0  0  0  0  0  0
  184.1100  178.5970  142.9590 C   0  0  0  0  0  3  0  0  0  0  0  0
  183.2900  179.0040  145.2000 C   0  0  0  0  0  3  0  0  0  0  0  0
  191.7380  177.2930  145.2580 C   0  0  0  0  0  2  0  0  0  0  0  0
  190.8760  176.2600  147.5100 N   0  0  0  0  0  0  0  0  0  0  0  0
  191.2550  176.7120  146.5150 C   0  0  0  0  0  0  0  0  0  0  0  0
  1  3  1  0  0  0  0
  2 17  1  1  0  0  0
  2  4  1  0  0  0  0
  3 25  1  6  0  0  0
  4  3  1  0  0  0  0
  5  1  1  0  0  0  0
  5  2  1  0  0  0  0
  6  5  1  0  0  0  0
  7  6  1  0  0  0  0
  8  6  2  0  0  0  0
  9 10  1  0  0  0  0
  9  7  2  0  0  0  0
 10  8  1  0  0  0  0
 11 10  1  0  0  0  0
 12 11  1  0  0  0  0
 12 13  1  0  0  0  0
 13 14  1  0  0  0  0
 14 16  1  0  0  0  0
 15 16  1  0  0  0  0
 18 17  1  0  0  0  0
 18 19  1  0  0  0  0
 19 21  1  0  0  0  0
 21 20  2  0  0  0  0
 22 24  2  0  0  0  0
 23 19  2  0  0  0  0
 23 22  1  0  0  0  0
 24 20  1  0  0  0  0
 25 27  1  0  0  0  0
 27 26  3  0  0  0  0
M  END
>  <MODEL>
1

>  <REMARK>
 VINA RESULT:      -7.4      0.000      0.000
  Name = 
  11 active torsions:
  status: ('A' for Active; 'I' for Inactive)
    1  A    between atoms: C_1  and  C_5
    2  A    between atoms: C_1  and  N_18
    3  A    between atoms: C_2  and  N_23
    4  A    between atoms: C_3  and  N_7
    5  A    between atoms: C_3  and  C_17
    6  A    between atoms: N_7  and  N_11
    7  A    between atoms: C_10  and  N_18
    8  A    between atoms: N_11  and  N_21
    9  A    between atoms: N_13  and  C_17
   10  A    between atoms: C_14  and  C_19
   11  A    between atoms: C_19  and  C_26
                            x       y       z     vdW  Elec       q    Type
                         _______ _______ _______ _____ _____    ______ ____

>  <TORSDO>
F 11

$$$$
=
 OpenBabel10222420053D

 27 29  0  0  1  0  0  0  0  0999 V2000
  190.6770  175.9890  143.2080 S   0  0  0  0  0  0  0  0  0  0  0  0
  188.6200  177.7170  143.4120 C   0  0  1  0  0  3  0  0  0  0  0  0
  190.6310  177.1810  144.5360 C   0  0  2  0  0  3  0  0  0  0  0  0
  189.5650  177.9810  144.5350 C   0  0  0  0  0  2  0  0  0  0  0  0
  189.3740  176.9140  142.4580 N   0  0  0  0  0  0  0  0  0  0  0  0
  189.3840  177.2170  141.0580 C   0  0  0  0  0  0  0  0  0  0  0  0
  188.4750  178.0380  140.4100 C   0  0  0  0  0  3  0  0  0  0  0  0
  190.3070  176.7570  140.1450 C   0  0  0  0  0  3  0  0  0  0  0  0
  188.8880  178.0530  139.0890 C   0  0  0  0  0  3  0  0  0  0  0  0
  189.9880  177.2880  138.9540 N   0  0  0  0  0  0  0  0  0  0  0  0
  190.6900  177.0280  137.7100 C   0  0  0  0  0  2  0  0  0  0  0  0
  191.6300  175.8510  137.8810 C   0  0  0  0  0  2  0  0  0  0  0  0
  192.9430  176.2080  137.3790 N   0  0  0  0  0  2  0  0  0  0  0  0
  193.8090  176.2200  138.4810 N   0  0  0  0  0  2  0  0  0  0  0  0
  195.5570  175.1460  139.3970 N   0  0  0  0  0  1  0  0  0  0  0  0
  194.7980  175.2630  138.2260 N   0  0  0  0  0  2  0  0  0  0  0  0
  187.4840  176.9490  143.9060 N   0  0  0  0  0  2  0  0  0  0  0  0
  186.8150  177.7400  144.9300 C   0  0  0  0  0  2  0  0  0  0  0  0
  185.4640  178.1860  144.4710 C   0  0  0  0  0  0  0  0  0  0  0  0
  183.9140  178.6090  142.6540 C   0  0  0  0  0  3  0  0  0  0  0  0
  185.1670  178.1830  143.1040 C   0  0  0  0  0  3  0  0  0  0  0  0
  183.2540  179.0760  144.9370 C   0  0  0  0  0  3  0  0  0  0  0  0
  184.5080  178.6520  145.3860 C   0  0  0  0  0  3  0  0  0  0  0  0
  182.9570  179.0510  143.5710 C   0  0  0  0  0  3  0  0  0  0  0  0
  191.7560  177.3380  145.5040 C   0  0  0  0  0  2  0  0  0  0  0  0
  191.5880  175.5410  147.4090 N   0  0  0  0  0  0  0  0  0  0  0  0
  191.6650  176.3350  146.5700 C   0  0  0  0  0  0  0  0  0  0  0  0
  1  3  1  0  0  0  0
  2 17  1  1  0  0  0
  2  4  1  0  0  0  0
  3 25  1  6  0  0  0
  4  3  1  0  0  0  0
  5  1  1  0  0  0  0
  5  2  1  0  0  0  0
  6  5  1  0  0  0  0
  7  6  1  0  0  0  0
  8  6  2  0  0  0  0
  9  7  2  0  0  0  0
 10  9  1  0  0  0  0
 10  8  1  0  0  0  0
 11 12  1  0  0  0  0
 11 10  1  0  0  0  0
 13 12  1  0  0  0  0
 13 14  1  0  0  0  0
 16 14  1  0  0  0  0
 16 15  1  0  0  0  0
 17 18  1  0  0  0  0
 19 18  1  0  0  0  0
 19 23  1  0  0  0  0
 20 21  1  0  0  0  0
 20 24  2  0  0  0  0
 21 19  2  0  0  0  0
 22 23  2  0  0  0  0
 24 22  1  0  0  0  0
 25 27  1  0  0  0  0
 27 26  3  0  0  0  0
M  END
>  <MODEL>
2

>  <REMARK>
 VINA RESULT:      -7.2      2.261      4.132
  Name = 
  11 active torsions:
  status: ('A' for Active; 'I' for Inactive)
    1  A    between atoms: C_1  and  C_5
    2  A    between atoms: C_1  and  N_18
    3  A    between atoms: C_2  and  N_23
    4  A    between atoms: C_3  and  N_7
    5  A    between atoms: C_3  and  C_17
    6  A    between atoms: N_7  and  N_11
    7  A    between atoms: C_10  and  N_18
    8  A    between atoms: N_11  and  N_21
    9  A    between atoms: N_13  and  C_17
   10  A    between atoms: C_14  and  C_19
   11  A    between atoms: C_19  and  C_26
                            x       y       z     vdW  Elec       q    Type
                         _______ _______ _______ _____ _____    ______ ____

>  <TORSDO>
F 11

$$$$
=
 OpenBabel10222420053D

 27 29  0  0  1  0  0  0  0  0999 V2000
  190.7410  175.9860  143.1220 S   0  0  0  0  0  0  0  0  0  0  0  0
  188.7120  177.7570  143.0380 C   0  0  1  0  0  3  0  0  0  0  0  0
  190.6230  177.2780  144.3480 C   0  0  2  0  0  3  0  0  0  0  0  0
  189.5770  178.0920  144.2050 C   0  0  0  0  0  2  0  0  0  0  0  0
  189.5180  176.8720  142.2070 N   0  0  0  0  0  0  0  0  0  0  0  0
  189.6380  177.0660  140.7930 C   0  0  0  0  0  0  0  0  0  0  0  0
  188.7560  177.7910  140.0070 C   0  0  0  0  0  3  0  0  0  0  0  0
  190.6540  176.5800  140.0000 C   0  0  0  0  0  3  0  0  0  0  0  0
  189.2820  177.7230  138.7280 C   0  0  0  0  0  3  0  0  0  0  0  0
  190.4200  177.0020  138.7490 N   0  0  0  0  0  0  0  0  0  0  0  0
  191.2380  176.6800  137.5930 C   0  0  0  0  0  2  0  0  0  0  0  0
  192.6780  176.4730  138.0180 C   0  0  0  0  0  2  0  0  0  0  0  0
  193.3100  175.5190  137.1270 N   0  0  0  0  0  2  0  0  0  0  0  0
  194.6550  175.4360  137.5080 N   0  0  0  0  0  2  0  0  0  0  0  0
  195.8000  174.8790  139.3600 N   0  0  0  0  0  1  0  0  0  0  0  0
  194.6900  175.5960  138.8990 N   0  0  0  0  0  2  0  0  0  0  0  0
  187.5270  177.0480  143.5010 N   0  0  0  0  0  2  0  0  0  0  0  0
  186.9480  177.8070  144.6020 C   0  0  0  0  0  2  0  0  0  0  0  0
  185.5580  178.2520  144.2790 C   0  0  0  0  0  0  0  0  0  0  0  0
  183.3880  179.0250  145.0380 C   0  0  0  0  0  3  0  0  0  0  0  0
  184.6960  178.6180  145.3180 C   0  0  0  0  0  3  0  0  0  0  0  0
  183.7850  178.6700  142.6750 C   0  0  0  0  0  3  0  0  0  0  0  0
  185.0910  178.2610  142.9560 C   0  0  0  0  0  3  0  0  0  0  0  0
  182.9340  179.0540  143.7170 C   0  0  0  0  0  3  0  0  0  0  0  0
  191.6760  177.4920  145.3830 C   0  0  0  0  0  2  0  0  0  0  0  0
  191.4940  175.6820  147.2750 N   0  0  0  0  0  0  0  0  0  0  0  0
  191.5770  176.4780  146.4390 C   0  0  0  0  0  0  0  0  0  0  0  0
  1  3  1  0  0  0  0
  2 17  1  1  0  0  0
  2  4  1  0  0  0  0
  3 25  1  6  0  0  0
  4  3  1  0  0  0  0
  5  2  1  0  0  0  0
  5  1  1  0  0  0  0
  6  5  1  0  0  0  0
  7  6  1  0  0  0  0
  8  6  2  0  0  0  0
  9 10  1  0  0  0  0
  9  7  2  0  0  0  0
 10  8  1  0  0  0  0
 11 12  1  0  0  0  0
 11 10  1  0  0  0  0
 13 14  1  0  0  0  0
 13 12  1  0  0  0  0
 14 16  1  0  0  0  0
 16 15  1  0  0  0  0
 17 18  1  0  0  0  0
 19 18  1  0  0  0  0
 19 21  1  0  0  0  0
 20 21  2  0  0  0  0
 22 23  1  0  0  0  0
 22 24  2  0  0  0  0
 23 19  2  0  0  0  0
 24 20  1  0  0  0  0
 25 27  1  0  0  0  0
 27 26  3  0  0  0  0
M  END
>  <MODEL>
3

>  <REMARK>
 VINA RESULT:      -7.0      2.452      4.236
  Name = 
  11 active torsions:
  status: ('A' for Active; 'I' for Inactive)
    1  A    between atoms: C_1  and  C_5
    2  A    between atoms: C_1  and  N_18
    3  A    between atoms: C_2  and  N_23
    4  A    between atoms: C_3  and  N_7
    5  A    between atoms: C_3  and  C_17
    6  A    between atoms: N_7  and  N_11
    7  A    between atoms: C_10  and  N_18
    8  A    between atoms: N_11  and  N_21
    9  A    between atoms: N_13  and  C_17
   10  A    between atoms: C_14  and  C_19
   11  A    between atoms: C_19  and  C_26
                            x       y       z     vdW  Elec       q    Type
                         _______ _______ _______ _____ _____    ______ ____

>  <TORSDO>
F 11

$$$$
=
 OpenBabel10222420053D

 27 29  0  0  1  0  0  0  0  0999 V2000
  190.2010  178.5180  143.7010 S   0  0  0  0  0  0  0  0  0  0  0  0
  189.8620  176.7190  141.7230 C   0  0  1  0  0  3  0  0  0  0  0  0
  190.9340  176.8950  143.8250 C   0  0  2  0  0  3  0  0  0  0  0  0
  190.6990  176.0920  142.7870 C   0  0  0  0  0  2  0  0  0  0  0  0
  189.2530  177.8830  142.3520 N   0  0  0  0  0  0  0  0  0  0  0  0
  187.8550  178.1660  142.2250 C   0  0  0  0  0  0  0  0  0  0  0  0
  187.2290  178.6070  141.0700 C   0  0  0  0  0  3  0  0  0  0  0  0
  186.9150  178.0250  143.2220 C   0  0  0  0  0  3  0  0  0  0  0  0
  185.8920  178.7190  141.4100 C   0  0  0  0  0  3  0  0  0  0  0  0
  185.7260  178.3590  142.6980 N   0  0  0  0  0  0  0  0  0  0  0  0
  184.4700  178.3810  143.4260 C   0  0  0  0  0  2  0  0  0  0  0  0
  184.5040  179.4650  144.4860 C   0  0  0  0  0  2  0  0  0  0  0  0
  183.6790  179.0650  145.6090 N   0  0  0  0  0  2  0  0  0  0  0  0
  184.5200  178.4090  146.5170 N   0  0  0  0  0  2  0  0  0  0  0  0
  186.6230  178.5340  147.2990 N   0  0  0  0  0  1  0  0  0  0  0  0
  185.5510  179.3030  146.8290 N   0  0  0  0  0  2  0  0  0  0  0  0
  190.7180  177.1480  140.6240 N   0  0  0  0  0  2  0  0  0  0  0  0
  190.3770  176.3560  139.4500 C   0  0  0  0  0  2  0  0  0  0  0  0
  189.4540  177.1050  138.5430 C   0  0  0  0  0  0  0  0  0  0  0  0
  187.5030  177.1170  137.1030 C   0  0  0  0  0  3  0  0  0  0  0  0
  188.3690  176.4370  137.9650 C   0  0  0  0  0  3  0  0  0  0  0  0
  188.8210  179.1310  137.3660 C   0  0  0  0  0  3  0  0  0  0  0  0
  189.6880  178.4510  138.2250 C   0  0  0  0  0  3  0  0  0  0  0  0
  187.7260  178.4640  136.8070 C   0  0  0  0  0  3  0  0  0  0  0  0
  191.6570  176.4390  145.0480 C   0  0  0  0  0  2  0  0  0  0  0  0
  190.3030  177.0720  147.2050 N   0  0  0  0  0  0  0  0  0  0  0  0
  190.9020  176.7910  146.2560 C   0  0  0  0  0  0  0  0  0  0  0  0
  1  3  1  0  0  0  0
  2 17  1  6  0  0  0
  2  5  1  0  0  0  0
  2  4  1  0  0  0  0
  3 25  1  1  0  0  0
  4  3  1  0  0  0  0
  5  1  1  0  0  0  0
  6  5  1  0  0  0  0
  6  8  2  0  0  0  0
  7  9  2  0  0  0  0
  7  6  1  0  0  0  0
  9 10  1  0  0  0  0
 10  8  1  0  0  0  0
 10 11  1  0  0  0  0
 11 12  1  0  0  0  0
 12 13  1  0  0  0  0
 13 14  1  0  0  0  0
 14 16  1  0  0  0  0
 16 15  1  0  0  0  0
 18 17  1  0  0  0  0
 19 18  1  0  0  0  0
 20 21  1  0  0  0  0
 21 19  2  0  0  0  0
 22 23  2  0  0  0  0
 23 19  1  0  0  0  0
 24 20  2  0  0  0  0
 24 22  1  0  0  0  0
 25 27  1  0  0  0  0
 27 26  3  0  0  0  0
M  END
>  <MODEL>
4

>  <REMARK>
 VINA RESULT:      -6.9      2.166      5.950
  Name = 
  11 active torsions:
  status: ('A' for Active; 'I' for Inactive)
    1  A    between atoms: C_1  and  C_5
    2  A    between atoms: C_1  and  N_18
    3  A    between atoms: C_2  and  N_23
    4  A    between atoms: C_3  and  N_7
    5  A    between atoms: C_3  and  C_17
    6  A    between atoms: N_7  and  N_11
    7  A    between atoms: C_10  and  N_18
    8  A    between atoms: N_11  and  N_21
    9  A    between atoms: N_13  and  C_17
   10  A    between atoms: C_14  and  C_19
   11  A    between atoms: C_19  and  C_26
                            x       y       z     vdW  Elec       q    Type
                         _______ _______ _______ _____ _____    ______ ____

>  <TORSDO>
F 11

$$$$
=
 OpenBabel10222420053D

 27 29  0  0  1  0  0  0  0  0999 V2000
  186.9620  179.3650  141.5560 S   0  0  0  0  0  0  0  0  0  0  0  0
  188.3640  177.3940  142.7430 C   0  0  1  0  0  3  0  0  0  0  0  0
  186.1570  178.2440  142.6880 C   0  0  2  0  0  3  0  0  0  0  0  0
  186.9520  177.3120  143.2140 C   0  0  0  0  0  2  0  0  0  0  0  0
  188.3240  178.2400  141.5580 N   0  0  0  0  0  0  0  0  0  0  0  0
  188.9900  177.8720  140.3450 C   0  0  0  0  0  0  0  0  0  0  0  0
  188.9050  178.5590  139.1450 C   0  0  0  0  0  3  0  0  0  0  0  0
  189.8310  176.7920  140.1880 C   0  0  0  0  0  3  0  0  0  0  0  0
  189.7220  177.8580  138.2740 C   0  0  0  0  0  3  0  0  0  0  0  0
  190.2710  176.8110  138.9210 N   0  0  0  0  0  0  0  0  0  0  0  0
  191.1550  175.8230  138.3300 C   0  0  0  0  0  2  0  0  0  0  0  0
  192.4000  176.4980  137.7870 C   0  0  0  0  0  2  0  0  0  0  0  0
  193.5020  176.2830  138.7050 N   0  0  0  0  0  2  0  0  0  0  0  0
  194.4560  175.5180  138.0230 N   0  0  0  0  0  2  0  0  0  0  0  0
  195.3740  173.7530  139.0680 N   0  0  0  0  0  1  0  0  0  0  0  0
  195.4240  175.1490  138.9630 N   0  0  0  0  0  2  0  0  0  0  0  0
  189.1800  178.0300  143.7700 N   0  0  0  0  0  2  0  0  0  0  0  0
  189.4730  177.0370  144.7940 C   0  0  0  0  0  2  0  0  0  0  0  0
  188.9750  177.4790  146.1330 C   0  0  0  0  0  0  0  0  0  0  0  0
  189.4010  177.8810  148.4860 C   0  0  0  0  0  3  0  0  0  0  0  0
  189.8510  177.4840  147.2240 C   0  0  0  0  0  3  0  0  0  0  0  0
  187.1830  178.2390  147.5830 C   0  0  0  0  0  3  0  0  0  0  0  0
  187.6330  177.8400  146.3220 C   0  0  0  0  0  3  0  0  0  0  0  0
  188.0690  178.2620  148.6650 C   0  0  0  0  0  3  0  0  0  0  0  0
  184.6860  178.2830  142.9370 C   0  0  0  0  0  2  0  0  0  0  0  0
  184.1900  179.0010  145.4110 N   0  0  0  0  0  0  0  0  0  0  0  0
  184.4060  178.6860  144.3190 C   0  0  0  0  0  0  0  0  0  0  0  0
  1  5  1  0  0  0  0
  1  3  1  0  0  0  0
  2  4  1  0  0  0  0
  2 17  1  1  0  0  0
  3 25  1  6  0  0  0
  3  4  1  0  0  0  0
  5  2  1  0  0  0  0
  6  5  1  0  0  0  0
  7  6  1  0  0  0  0
  8  6  2  0  0  0  0
  9 10  1  0  0  0  0
  9  7  2  0  0  0  0
 10  8  1  0  0  0  0
 11 10  1  0  0  0  0
 12 11  1  0  0  0  0
 12 13  1  0  0  0  0
 14 13  1  0  0  0  0
 14 16  1  0  0  0  0
 16 15  1  0  0  0  0
 17 18  1  0  0  0  0
 18 19  1  0  0  0  0
 19 23  2  0  0  0  0
 19 21  1  0  0  0  0
 20 24  1  0  0  0  0
 21 20  2  0  0  0  0
 22 24  2  0  0  0  0
 23 22  1  0  0  0  0
 25 27  1  0  0  0  0
 27 26  3  0  0  0  0
M  END
>  <MODEL>
5

>  <REMARK>
 VINA RESULT:      -6.7      3.182      5.789
  Name = 
  11 active torsions:
  status: ('A' for Active; 'I' for Inactive)
    1  A    between atoms: C_1  and  C_5
    2  A    between atoms: C_1  and  N_18
    3  A    between atoms: C_2  and  N_23
    4  A    between atoms: C_3  and  N_7
    5  A    between atoms: C_3  and  C_17
    6  A    between atoms: N_7  and  N_11
    7  A    between atoms: C_10  and  N_18
    8  A    between atoms: N_11  and  N_21
    9  A    between atoms: N_13  and  C_17
   10  A    between atoms: C_14  and  C_19
   11  A    between atoms: C_19  and  C_26
                            x       y       z     vdW  Elec       q    Type
                         _______ _______ _______ _____ _____    ______ ____

>  <TORSDO>
F 11

$$$$
=
 OpenBabel10222420053D

 27 29  0  0  1  0  0  0  0  0999 V2000
  184.8770  179.3130  140.0670 S   0  0  0  0  0  0  0  0  0  0  0  0
  185.3900  178.2500  142.4890 C   0  0  1  0  0  3  0  0  0  0  0  0
  183.6560  178.2970  140.8800 C   0  0  2  0  0  3  0  0  0  0  0  0
  184.0220  177.8280  142.0730 C   0  0  0  0  0  2  0  0  0  0  0  0
  186.0300  178.7280  141.2700 N   0  0  0  0  0  0  0  0  0  0  0  0
  187.3520  178.3180  140.9000 C   0  0  0  0  0  0  0  0  0  0  0  0
  187.8480  178.2890  139.6070 C   0  0  0  0  0  3  0  0  0  0  0  0
  188.3370  177.9090  141.7710 C   0  0  0  0  0  3  0  0  0  0  0  0
  189.1560  177.8550  139.7380 C   0  0  0  0  0  3  0  0  0  0  0  0
  189.4290  177.6410  141.0390 N   0  0  0  0  0  0  0  0  0  0  0  0
  190.6870  177.1450  141.5690 C   0  0  0  0  0  2  0  0  0  0  0  0
  190.4690  176.5340  142.9390 C   0  0  0  0  0  2  0  0  0  0  0  0
  191.2810  177.2370  143.9130 N   0  0  0  0  0  2  0  0  0  0  0  0
  191.6030  176.3130  144.9150 N   0  0  0  0  0  2  0  0  0  0  0  0
  191.6620  176.1340  147.1550 N   0  0  0  0  0  1  0  0  0  0  0  0
  191.7780  177.0430  146.0960 N   0  0  0  0  0  2  0  0  0  0  0  0
  185.2900  179.3420  143.4480 N   0  0  0  0  0  2  0  0  0  0  0  0
  184.8180  178.7920  144.7110 C   0  0  0  0  0  2  0  0  0  0  0  0
  185.9620  178.4180  145.5980 C   0  0  0  0  0  0  0  0  0  0  0  0
  187.0140  178.4840  147.7830 C   0  0  0  0  0  3  0  0  0  0  0  0
  185.9470  178.8120  146.9410 C   0  0  0  0  0  3  0  0  0  0  0  0
  188.1350  177.3910  145.9350 C   0  0  0  0  0  3  0  0  0  0  0  0
  187.0700  177.7220  145.0930 C   0  0  0  0  0  3  0  0  0  0  0  0
  188.1050  177.7700  147.2810 C   0  0  0  0  0  3  0  0  0  0  0  0
  182.3730  177.9130  140.2220 C   0  0  0  0  0  2  0  0  0  0  0  0
  182.5550  175.5260  139.1490 N   0  0  0  0  0  0  0  0  0  0  0  0
  182.4780  176.5790  139.6230 C   0  0  0  0  0  0  0  0  0  0  0  0
  1  3  1  0  0  0  0
  1  5  1  0  0  0  0
  2 17  1  1  0  0  0
  3 25  1  6  0  0  0
  3  4  1  0  0  0  0
  4  2  1  0  0  0  0
  5  2  1  0  0  0  0
  6  5  1  0  0  0  0
  6  8  2  0  0  0  0
  7  9  2  0  0  0  0
  7  6  1  0  0  0  0
  9 10  1  0  0  0  0
 10 11  1  0  0  0  0
 10  8  1  0  0  0  0
 11 12  1  0  0  0  0
 12 13  1  0  0  0  0
 13 14  1  0  0  0  0
 14 16  1  0  0  0  0
 16 15  1  0  0  0  0
 17 18  1  0  0  0  0
 18 19  1  0  0  0  0
 19 21  1  0  0  0  0
 21 20  2  0  0  0  0
 22 24  2  0  0  0  0
 23 19  2  0  0  0  0
 23 22  1  0  0  0  0
 24 20  1  0  0  0  0
 26 27  3  0  0  0  0
 27 25  1  0  0  0  0
M  END
>  <MODEL>
6

>  <REMARK>
 VINA RESULT:      -6.7      2.625      6.511
  Name = 
  11 active torsions:
  status: ('A' for Active; 'I' for Inactive)
    1  A    between atoms: C_1  and  C_5
    2  A    between atoms: C_1  and  N_18
    3  A    between atoms: C_2  and  N_23
    4  A    between atoms: C_3  and  N_7
    5  A    between atoms: C_3  and  C_17
    6  A    between atoms: N_7  and  N_11
    7  A    between atoms: C_10  and  N_18
    8  A    between atoms: N_11  and  N_21
    9  A    between atoms: N_13  and  C_17
   10  A    between atoms: C_14  and  C_19
   11  A    between atoms: C_19  and  C_26
                            x       y       z     vdW  Elec       q    Type
                         _______ _______ _______ _____ _____    ______ ____

>  <TORSDO>
F 11

$$$$
=
 OpenBabel10222420053D

 27 29  0  0  1  0  0  0  0  0999 V2000
  190.8230  176.0580  143.1510 S   0  0  0  0  0  0  0  0  0  0  0  0
  188.7680  177.8000  143.0900 C   0  0  1  0  0  3  0  0  0  0  0  0
  190.6570  177.2990  144.4230 C   0  0  2  0  0  3  0  0  0  0  0  0
  189.6020  178.1020  144.2890 C   0  0  0  0  0  2  0  0  0  0  0  0
  189.6050  176.9600  142.2430 N   0  0  0  0  0  0  0  0  0  0  0  0
  189.7530  177.2100  140.8410 C   0  0  0  0  0  0  0  0  0  0  0  0
  190.8040  176.7650  140.0550 C   0  0  0  0  0  3  0  0  0  0  0  0
  188.8680  177.9150  140.0550 C   0  0  0  0  0  3  0  0  0  0  0  0
  190.5130  177.2220  138.7810 C   0  0  0  0  0  3  0  0  0  0  0  0
  189.3490  177.8990  138.8020 N   0  0  0  0  0  0  0  0  0  0  0  0
  188.7340  178.5590  137.6650 C   0  0  0  0  0  2  0  0  0  0  0  0
  189.0420  177.7950  136.3920 C   0  0  0  0  0  2  0  0  0  0  0  0
  188.2810  176.5610  136.3770 N   0  0  0  0  0  2  0  0  0  0  0  0
  189.1400  175.5600  135.9050 N   0  0  0  0  0  2  0  0  0  0  0  0
  189.8510  173.8940  137.2360 N   0  0  0  0  0  1  0  0  0  0  0  0
  188.7440  174.3660  136.5200 N   0  0  0  0  0  2  0  0  0  0  0  0
  187.5840  177.0550  143.4990 N   0  0  0  0  0  2  0  0  0  0  0  0
  187.0010  177.7310  144.6500 C   0  0  0  0  0  2  0  0  0  0  0  0
  185.6010  178.1720  144.3650 C   0  0  0  0  0  0  0  0  0  0  0  0
  183.8510  178.6430  142.7530 C   0  0  0  0  0  3  0  0  0  0  0  0
  185.1520  178.2190  143.0410 C   0  0  0  0  0  3  0  0  0  0  0  0
  183.4480  179.0070  145.1130 C   0  0  0  0  0  3  0  0  0  0  0  0
  184.7500  178.5860  145.4000 C   0  0  0  0  0  3  0  0  0  0  0  0
  182.9990  179.0320  143.7890 C   0  0  0  0  0  3  0  0  0  0  0  0
  191.6840  177.4880  145.4890 C   0  0  0  0  0  2  0  0  0  0  0  0
  191.4500  175.6370  147.3340 N   0  0  0  0  0  0  0  0  0  0  0  0
  191.5560  176.4520  146.5200 C   0  0  0  0  0  0  0  0  0  0  0  0
  1  3  1  0  0  0  0
  2 17  1  1  0  0  0
  2  4  1  0  0  0  0
  3 25  1  6  0  0  0
  4  3  1  0  0  0  0
  5  2  1  0  0  0  0
  5  1  1  0  0  0  0
  6  5  1  0  0  0  0
  7  6  1  0  0  0  0
  8  6  2  0  0  0  0
  9 10  1  0  0  0  0
  9  7  2  0  0  0  0
 10  8  1  0  0  0  0
 11 10  1  0  0  0  0
 12 11  1  0  0  0  0
 13 12  1  0  0  0  0
 14 13  1  0  0  0  0
 14 16  1  0  0  0  0
 16 15  1  0  0  0  0
 17 18  1  0  0  0  0
 19 18  1  0  0  0  0
 19 23  1  0  0  0  0
 20 21  1  0  0  0  0
 20 24  2  0  0  0  0
 21 19  2  0  0  0  0
 22 23  2  0  0  0  0
 24 22  1  0  0  0  0
 25 27  1  0  0  0  0
 27 26  3  0  0  0  0
M  END
>  <MODEL>
7

>  <REMARK>
 VINA RESULT:      -6.6      1.739      2.653
  Name = 
  11 active torsions:
  status: ('A' for Active; 'I' for Inactive)
    1  A    between atoms: C_1  and  C_5
    2  A    between atoms: C_1  and  N_18
    3  A    between atoms: C_2  and  N_23
    4  A    between atoms: C_3  and  N_7
    5  A    between atoms: C_3  and  C_17
    6  A    between atoms: N_7  and  N_11
    7  A    between atoms: C_10  and  N_18
    8  A    between atoms: N_11  and  N_21
    9  A    between atoms: N_13  and  C_17
   10  A    between atoms: C_14  and  C_19
   11  A    between atoms: C_19  and  C_26
                            x       y       z     vdW  Elec       q    Type
                         _______ _______ _______ _____ _____    ______ ____

>  <TORSDO>
F 11

$$$$
=
 OpenBabel10222420053D

 27 29  0  0  1  0  0  0  0  0999 V2000
  186.5110  179.2810  141.3690 S   0  0  0  0  0  0  0  0  0  0  0  0
  188.1600  177.5360  142.5910 C   0  0  1  0  0  3  0  0  0  0  0  0
  185.9110  178.2590  142.7040 C   0  0  2  0  0  3  0  0  0  0  0  0
  186.8170  177.4360  143.2310 C   0  0  0  0  0  2  0  0  0  0  0  0
  187.9340  178.2360  141.3340 N   0  0  0  0  0  0  0  0  0  0  0  0
  188.4840  177.7640  140.0980 C   0  0  0  0  0  0  0  0  0  0  0  0
  187.7960  177.6720  138.8990 C   0  0  0  0  0  3  0  0  0  0  0  0
  189.7830  177.3500  139.9050 C   0  0  0  0  0  3  0  0  0  0  0  0
  188.7250  177.1940  137.9910 C   0  0  0  0  0  3  0  0  0  0  0  0
  189.9070  177.0170  138.6110 N   0  0  0  0  0  0  0  0  0  0  0  0
  191.1140  176.4930  137.9960 C   0  0  0  0  0  2  0  0  0  0  0  0
  192.3090  176.7550  138.8930 C   0  0  0  0  0  2  0  0  0  0  0  0
  193.5180  176.7530  138.0940 N   0  0  0  0  0  2  0  0  0  0  0  0
  193.6730  175.4530  137.5950 N   0  0  0  0  0  2  0  0  0  0  0  0
  195.7270  175.5050  136.6840 N   0  0  0  0  0  1  0  0  0  0  0  0
  195.0080  175.0940  137.8130 N   0  0  0  0  0  2  0  0  0  0  0  0
  189.0430  178.3270  143.4390 N   0  0  0  0  0  2  0  0  0  0  0  0
  190.3100  177.6200  143.5560 C   0  0  0  0  0  2  0  0  0  0  0  0
  190.5460  177.1630  144.9600 C   0  0  0  0  0  0  0  0  0  0  0  0
  189.8550  177.1270  147.2850 C   0  0  0  0  0  3  0  0  0  0  0  0
  189.6440  177.5330  145.9630 C   0  0  0  0  0  3  0  0  0  0  0  0
  191.8930  176.0040  146.6140 C   0  0  0  0  0  3  0  0  0  0  0  0
  191.6830  176.4120  145.2940 C   0  0  0  0  0  3  0  0  0  0  0  0
  190.9770  176.3590  147.6090 C   0  0  0  0  0  3  0  0  0  0  0  0
  184.4770  178.2510  143.1170 C   0  0  0  0  0  2  0  0  0  0  0  0
  184.2270  179.0010  145.6190 N   0  0  0  0  0  0  0  0  0  0  0  0
  184.3400  178.6720  144.5160 C   0  0  0  0  0  0  0  0  0  0  0  0
  1  3  1  0  0  0  0
  2  4  1  0  0  0  0
  2 17  1  1  0  0  0
  3 25  1  6  0  0  0
  3  4  1  0  0  0  0
  5  1  1  0  0  0  0
  5  2  1  0  0  0  0
  6  5  1  0  0  0  0
  7  6  1  0  0  0  0
  8  6  2  0  0  0  0
  9 10  1  0  0  0  0
  9  7  2  0  0  0  0
 10  8  1  0  0  0  0
 11 10  1  0  0  0  0
 11 12  1  0  0  0  0
 13 12  1  0  0  0  0
 14 16  1  0  0  0  0
 14 13  1  0  0  0  0
 15 16  1  0  0  0  0
 17 18  1  0  0  0  0
 18 19  1  0  0  0  0
 19 23  2  0  0  0  0
 19 21  1  0  0  0  0
 20 24  1  0  0  0  0
 21 20  2  0  0  0  0
 22 24  2  0  0  0  0
 23 22  1  0  0  0  0
 25 27  1  0  0  0  0
 27 26  3  0  0  0  0
M  END
>  <MODEL>
8

>  <REMARK>
 VINA RESULT:      -6.5      2.874      6.196
  Name = 
  11 active torsions:
  status: ('A' for Active; 'I' for Inactive)
    1  A    between atoms: C_1  and  C_5
    2  A    between atoms: C_1  and  N_18
    3  A    between atoms: C_2  and  N_23
    4  A    between atoms: C_3  and  N_7
    5  A    between atoms: C_3  and  C_17
    6  A    between atoms: N_7  and  N_11
    7  A    between atoms: C_10  and  N_18
    8  A    between atoms: N_11  and  N_21
    9  A    between atoms: N_13  and  C_17
   10  A    between atoms: C_14  and  C_19
   11  A    between atoms: C_19  and  C_26
                            x       y       z     vdW  Elec       q    Type
                         _______ _______ _______ _____ _____    ______ ____

>  <TORSDO>
F 11

$$$$
=
 OpenBabel10222420053D

 27 29  0  0  1  0  0  0  0  0999 V2000
  190.4760  176.4310  139.4990 S   0  0  0  0  0  0  0  0  0  0  0  0
  190.4440  177.2880  142.0530 C   0  0  1  0  0  3  0  0  0  0  0  0
  191.9460  177.1290  140.2330 C   0  0  2  0  0  3  0  0  0  0  0  0
  191.8100  177.5160  141.5020 C   0  0  0  0  0  2  0  0  0  0  0  0
  189.5940  177.0650  140.8910 N   0  0  0  0  0  0  0  0  0  0  0  0
  188.3350  177.7320  140.7370 C   0  0  0  0  0  0  0  0  0  0  0  0
  187.7060  177.9840  139.5290 C   0  0  0  0  0  3  0  0  0  0  0  0
  187.5490  178.2070  141.7640 C   0  0  0  0  0  3  0  0  0  0  0  0
  186.5230  178.6190  139.8700 C   0  0  0  0  0  3  0  0  0  0  0  0
  186.4470  178.7340  141.2100 N   0  0  0  0  0  0  0  0  0  0  0  0
  185.3710  179.3770  141.9420 C   0  0  0  0  0  2  0  0  0  0  0  0
  184.5720  178.3410  142.7080 C   0  0  0  0  0  2  0  0  0  0  0  0
  183.4440  178.9840  143.3530 N   0  0  0  0  0  2  0  0  0  0  0  0
  183.4300  178.5410  144.6820 N   0  0  0  0  0  2  0  0  0  0  0  0
  184.6110  178.6300  146.5910 N   0  0  0  0  0  1  0  0  0  0  0  0
  184.4170  179.2660  145.3600 N   0  0  0  0  0  2  0  0  0  0  0  0
  190.4520  176.0940  142.8890 N   0  0  0  0  0  2  0  0  0  0  0  0
  191.2320  176.3840  144.0840 C   0  0  0  0  0  2  0  0  0  0  0  0
  190.3480  176.7900  145.2200 C   0  0  0  0  0  0  0  0  0  0  0  0
  190.0340  177.1180  147.6020 C   0  0  0  0  0  3  0  0  0  0  0  0
  190.8490  176.7550  146.5260 C   0  0  0  0  0  3  0  0  0  0  0  0
  188.1980  177.5220  146.0760 C   0  0  0  0  0  3  0  0  0  0  0  0
  189.0120  177.1570  145.0000 C   0  0  0  0  0  3  0  0  0  0  0  0
  188.7100  177.5050  147.3770 C   0  0  0  0  0  3  0  0  0  0  0  0
  193.1950  177.3610  139.4490 C   0  0  0  0  0  2  0  0  0  0  0  0
  193.3240  175.7230  137.4030 N   0  0  0  0  0  0  0  0  0  0  0  0
  193.2650  176.4430  138.3070 C   0  0  0  0  0  0  0  0  0  0  0  0
  1  3  1  0  0  0  0
  1  5  1  0  0  0  0
  2 17  1  1  0  0  0
  3 25  1  6  0  0  0
  3  4  1  0  0  0  0
  4  2  1  0  0  0  0
  5  2  1  0  0  0  0
  6  5  1  0  0  0  0
  6  8  2  0  0  0  0
  7  9  2  0  0  0  0
  7  6  1  0  0  0  0
  9 10  1  0  0  0  0
 10  8  1  0  0  0  0
 10 11  1  0  0  0  0
 11 12  1  0  0  0  0
 12 13  1  0  0  0  0
 13 14  1  0  0  0  0
 14 16  1  0  0  0  0
 16 15  1  0  0  0  0
 17 18  1  0  0  0  0
 18 19  1  0  0  0  0
 19 21  1  0  0  0  0
 21 20  2  0  0  0  0
 22 24  2  0  0  0  0
 23 19  2  0  0  0  0
 23 22  1  0  0  0  0
 24 20  1  0  0  0  0
 26 27  3  0  0  0  0
 27 25  1  0  0  0  0
M  END
>  <MODEL>
9

>  <REMARK>
 VINA RESULT:      -6.5      2.593      5.444
  Name = 
  11 active torsions:
  status: ('A' for Active; 'I' for Inactive)
    1  A    between atoms: C_1  and  C_5
    2  A    between atoms: C_1  and  N_18
    3  A    between atoms: C_2  and  N_23
    4  A    between atoms: C_3  and  N_7
    5  A    between atoms: C_3  and  C_17
    6  A    between atoms: N_7  and  N_11
    7  A    between atoms: C_10  and  N_18
    8  A    between atoms: N_11  and  N_21
    9  A    between atoms: N_13  and  C_17
   10  A    between atoms: C_14  and  C_19
   11  A    between atoms: C_19  and  C_26
                            x       y       z     vdW  Elec       q    Type
                         _______ _______ _______ _____ _____    ______ ____

>  <TORSDO>
F 11

$$$$
