=
 OpenBabel10222418393D

 66 75  0  0  1  0  0  0  0  0999 V2000
  189.8460  176.3700  137.9290 C   0  0  2  0  0  3  0  0  0  0  0  0
  188.9660  177.0640  137.0100 N   0  0  0  0  0  0  0  0  0  0  0  0
  190.9250  176.4260  140.1890 C   0  0  0  0  0  1  0  0  0  0  0  0
  187.5400  178.2610  141.7250 C   0  0  0  0  0  0  0  0  0  0  0  0
  190.0910  177.2220  139.1840 C   0  0  2  0  0  3  0  0  0  0  0  0
  186.4270  178.5990  140.9520 C   0  0  0  0  0  0  0  0  0  0  0  0
  187.1380  178.4560  136.6360 O   0  0  0  0  0  0  0  0  0  0  0  0
  190.8130  177.0550  135.8970 C   0  0  0  0  0  2  0  0  0  0  0  0
  189.4110  177.1230  135.7340 O   0  0  0  0  0  0  0  0  0  0  0  0
  187.5160  178.3790  143.0750 F   0  0  0  0  0  0  0  0  0  0  0  0
  187.8890  177.8870  137.4720 C   0  0  0  0  0  0  0  0  0  0  0  0
  188.6790  177.8090  141.1430 N   0  0  0  0  0  0  0  0  0  0  0  0
  186.4940  178.4620  139.5410 C   0  0  0  0  0  0  0  0  0  0  0  0
  188.7860  177.6780  139.7900 C   0  0  0  0  0  0  0  0  0  0  0  0
  187.7090  178.0590  138.9470 C   0  0  0  0  0  0  0  0  0  0  0  0
  191.1150  176.2110  137.1430 C   0  0  2  0  0  3  0  0  0  0  0  0
  185.2020  179.1010  141.6580 C   0  0  0  0  0  2  0  0  0  0  0  0
  185.5800  179.9690  142.7650 N   0  0  0  0  0  2  0  0  0  0  0  0
  184.4410  179.9850  143.6530 C   0  0  0  0  0  2  0  0  0  0  0  0
  182.5490  178.5950  144.4430 C   0  0  0  0  0  1  0  0  0  0  0  0
  184.0020  178.5580  144.0130 C   0  0  2  0  0  3  0  0  0  0  0  0
  184.8390  178.0370  145.1710 C   0  0  0  0  0  2  0  0  0  0  0  0
  184.9550  179.0930  146.2530 C   0  0  0  0  0  2  0  0  0  0  0  0
  186.2410  178.9230  147.0610 C   0  0  0  0  0  2  0  0  0  0  0  0
  187.1600  177.9000  146.4100 C   0  0  0  0  0  2  0  0  0  0  0  0
  188.0010  177.1790  147.4600 C   0  0  0  0  0  2  0  0  0  0  0  0
  189.5070  177.3730  145.6030 F   0  0  0  0  0  0  0  0  0  0  0  0
  190.3660  177.4890  147.6770 F   0  0  0  0  0  0  0  0  0  0  0  0
  189.4050  176.8860  146.8830 C   0  0  0  0  0  3  0  0  0  0  0  0
  191.2330  174.7300  136.7370 C   0  0  0  0  0  2  0  0  0  0  0  0
  192.0960  174.4850  135.4730 C   0  0  1  0  0  3  0  0  0  0  0  0
  195.7650  173.9160  135.5750 C   0  0  0  0  0  2  0  0  0  0  0  0
  194.1740  175.3890  134.6000 O   0  0  0  0  0  0  0  0  0  0  0  0
  194.3700  173.4950  135.9410 C   0  0  2  0  0  3  0  0  0  0  0  0
  193.5830  174.7620  135.7040 C   0  0  2  0  0  3  0  0  0  0  0  0
  195.5660  175.1700  134.7240 C   0  0  1  0  0  3  0  0  0  0  0  0
  196.2320  176.3630  135.3990 C   0  0  0  0  0  2  0  0  0  0  0  0
  197.2220  176.9220  134.5960 O   0  0  0  0  0  1  0  0  0  0  0  0
  194.2950  173.0840  137.3480 N   0  0  0  0  0  2  0  0  0  0  0  0
  195.4250  171.5170  138.6880 O   0  0  0  0  0  0  0  0  0  0  0  0
  195.0310  170.4230  137.8910 C   0  0  0  0  0  2  0  0  0  0  0  0
  196.2340  169.8920  137.1560 C   0  0  0  0  0  2  0  0  0  0  0  0
  195.6210  172.6180  137.8300 C   0  0  1  0  0  0  0  0  0  0  0  0
  196.4670  172.3440  136.6990 O   0  0  0  0  0  0  0  0  0  0  0  0
  197.1190  171.0650  136.7400 C   0  0  1  0  0  3  0  0  0  0  0  0
  198.2880  171.1080  137.4700 O   0  0  0  0  0  1  0  0  0  0  0  0
  195.3940  174.8160  138.9210 O   0  0  0  0  0  1  0  0  0  0  0  0
  197.4000  174.2510  138.0080 O   0  0  0  0  0  1  0  0  0  0  0  0
  196.2670  173.7560  138.6550 C   0  0  0  0  0  3  0  0  0  0  0  0
  190.7290  172.5100  135.4830 O   0  0  0  0  0  1  0  0  0  0  0  0
  191.8520  173.1000  134.9060 C   0  0  0  0  0  2  0  0  0  0  0  0
  185.2210  178.5020  138.7410 C   0  0  0  0  0  2  0  0  0  0  0  0
  183.7500  177.4970  137.0550 C   0  0  1  0  0  3  0  0  0  0  0  0
  184.9170  177.1970  138.0050 C   0  0  2  0  0  3  0  0  0  0  0  0
  182.6020  175.5270  138.1130 C   0  0  2  0  0  3  0  0  0  0  0  0
  182.5400  175.0180  136.6760 C   0  0  2  0  0  3  0  0  0  0  0  0
  183.9260  176.5760  136.0180 O   0  0  0  0  0  0  0  0  0  0  0  0
  181.2910  175.9220  138.4870 O   0  0  0  0  0  0  0  0  0  0  0  0
  180.4140  173.8370  137.6000 C   0  0  2  0  0  3  0  0  0  0  0  0
  182.7460  176.0780  135.7550 O   0  0  0  0  0  0  0  0  0  0  0  0
  183.4530  176.8150  138.3990 C   0  0  2  0  0  3  0  0  0  0  0  0
  180.3780  175.3680  137.5680 C   0  0  2  0  0  3  0  0  0  0  0  0
  181.0910  174.6240  136.4880 C   0  0  1  0  0  3  0  0  0  0  0  0
  179.1100  173.3410  137.0520 C   0  0  2  0  0  3  0  0  0  0  0  0
  179.0210  171.8840  137.2410 C   0  0  0  0  0  2  0  0  0  0  0  0
  179.3150  172.4330  135.9900 O   0  0  0  0  0  0  0  0  0  0  0  0
  1  2  1  6  0  0  0
  1  5  1  0  0  0  0
  2 11  1  0  0  0  0
  4 10  1  0  0  0  0
  5 14  1  0  0  0  0
  5  3  1  1  0  0  0
  6 17  1  0  0  0  0
  6  4  2  0  0  0  0
  7 11  2  0  0  0  0
  8 16  1  0  0  0  0
  9  8  1  0  0  0  0
  9  2  1  0  0  0  0
 11 15  1  0  0  0  0
 12  4  1  0  0  0  0
 13  6  1  0  0  0  0
 14 12  2  0  0  0  0
 15 13  2  0  0  0  0
 15 14  1  0  0  0  0
 16 30  1  6  0  0  0
 16  1  1  0  0  0  0
 17 18  1  0  0  0  0
 18 19  1  0  0  0  0
 19 21  1  0  0  0  0
 21 20  1  1  0  0  0
 21 22  1  0  0  0  0
 22 23  1  0  0  0  0
 23 24  1  0  0  0  0
 25 24  1  0  0  0  0
 25 26  1  0  0  0  0
 27 29  1  0  0  0  0
 29 26  1  0  0  0  0
 29 28  1  0  0  0  0
 31 51  1  1  0  0  0
 31 30  1  0  0  0  0
 32 34  1  0  0  0  0
 33 36  1  0  0  0  0
 33 35  1  0  0  0  0
 34 39  1  1  0  0  0
 35 31  1  6  0  0  0
 35 34  1  0  0  0  0
 36 37  1  1  0  0  0
 36 32  1  0  0  0  0
 38 37  1  0  0  0  0
 41 40  1  0  0  0  0
 42 41  1  0  0  0  0
 43 39  1  6  0  0  0
 43 49  1  0  0  0  0
 43 40  1  0  0  0  0
 44 45  1  0  0  0  0
 44 43  1  0  0  0  0
 45 42  1  0  0  0  0
 45 46  1  1  0  0  0
 48 49  1  0  0  0  0
 49 47  1  0  0  0  0
 51 50  1  0  0  0  0
 52 13  1  0  0  0  0
 53 57  1  6  0  0  0
 53 54  1  0  0  0  0
 53 61  1  0  0  0  0
 54 61  1  0  0  0  0
 54 52  1  1  0  0  0
 55 61  1  0  0  0  0
 55 58  1  6  0  0  0
 56 60  1  6  0  0  0
 56 55  1  0  0  0  0
 59 64  1  6  0  0  0
 60 57  1  0  0  0  0
 62 59  1  0  0  0  0
 62 58  1  0  0  0  0
 63 56  1  0  0  0  0
 63 62  1  0  0  0  0
 63 59  1  0  0  0  0
 64 65  1  0  0  0  0
 66 64  1  0  0  0  0
 66 65  1  0  0  0  0
M  END
>  <MODEL>
1

>  <REMARK>
 VINA RESULT:      -5.7      0.000      0.000
  Name = 
  21 active torsions:
  status: ('A' for Active; 'I' for Inactive)
    1  A    between atoms: C_3  and  C_9
    2  A    between atoms: C_3  and  C_66
    3  A    between atoms: C_5  and  C_58
    4  A    between atoms: C_6  and  C_37
    5  A    between atoms: C_6  and  C_46
    6  A    between atoms: C_9  and  C_45
    7  A    between atoms: C_9  and  C_60
    8  A    between atoms: N_10  and  C_28
    9  A    between atoms: N_10  and  C_32
   10  A    between atoms: C_13  and  C_37
   11  A    between atoms: C_13  and  C_38
   12  A    between atoms: C_20  and  C_22
   13  A    between atoms: C_22  and  N_29
   14  A    between atoms: N_29  and  C_61
   15  A    between atoms: C_32  and  C_59
   16  A    between atoms: C_34  and  C_35
   17  A    between atoms: C_36  and  C_38
   18  A    between atoms: C_36  and  C_50
   19  A    between atoms: C_39  and  C_62
   20  A    between atoms: C_50  and  C_61
   21  A    between atoms: C_54  and  C_58
                            x       y       z     vdW  Elec       q    Type
                         _______ _______ _______ _____ _____    ______ ____

>  <TORSDO>
F 21

$$$$
=
 OpenBabel10222418393D

 66 75  0  0  1  0  0  0  0  0999 V2000
  187.7670  177.4210  137.3740 C   0  0  2  0  0  3  0  0  0  0  0  0
  186.7720  177.8990  138.3130 N   0  0  0  0  0  0  0  0  0  0  0  0
  190.2010  177.4010  136.7820 C   0  0  0  0  0  1  0  0  0  0  0  0
  191.1500  177.3910  140.8170 C   0  0  0  0  0  0  0  0  0  0  0  0
  189.1470  178.0070  137.7100 C   0  0  2  0  0  3  0  0  0  0  0  0
  190.1950  177.4290  141.8350 C   0  0  0  0  0  0  0  0  0  0  0  0
  186.1780  178.5150  140.4770 O   0  0  0  0  0  0  0  0  0  0  0  0
  186.1220  178.8530  136.4910 C   0  0  0  0  0  2  0  0  0  0  0  0
  185.6520  178.4030  137.7450 O   0  0  0  0  0  0  0  0  0  0  0  0
  192.4620  177.1950  141.0950 F   0  0  0  0  0  0  0  0  0  0  0  0
  187.0810  178.1160  139.6930 C   0  0  0  0  0  0  0  0  0  0  0  0
  190.7900  177.5570  139.5200 N   0  0  0  0  0  0  0  0  0  0  0  0
  188.8310  177.6390  141.5000 C   0  0  0  0  0  0  0  0  0  0  0  0
  189.4930  177.7750  139.1600 C   0  0  0  0  0  0  0  0  0  0  0  0
  188.4840  177.8810  140.1540 C   0  0  0  0  0  0  0  0  0  0  0  0
  187.2800  177.9440  136.0530 C   0  0  2  0  0  3  0  0  0  0  0  0
  190.6610  177.2480  143.2490 C   0  0  0  0  0  2  0  0  0  0  0  0
  190.7800  175.8300  143.5630 N   0  0  0  0  0  2  0  0  0  0  0  0
  191.9050  175.7240  144.4620 C   0  0  0  0  0  2  0  0  0  0  0  0
  192.3100  175.6590  146.9050 C   0  0  0  0  0  1  0  0  0  0  0  0
  191.6090  176.4220  145.7990 C   0  0  2  0  0  3  0  0  0  0  0  0
  190.1140  176.4070  146.0700 C   0  0  0  0  0  2  0  0  0  0  0  0
  189.6580  177.7580  146.5850 C   0  0  0  0  0  2  0  0  0  0  0  0
  189.6160  177.7870  148.1120 C   0  0  0  0  0  2  0  0  0  0  0  0
  188.2680  178.2880  148.6100 C   0  0  0  0  0  2  0  0  0  0  0  0
  187.2100  178.1840  147.5150 C   0  0  0  0  0  2  0  0  0  0  0  0
  185.9490  180.2240  147.4710 F   0  0  0  0  0  0  0  0  0  0  0  0
  184.8180  178.2820  147.4700 F   0  0  0  0  0  0  0  0  0  0  0  0
  185.9360  178.9380  147.9560 C   0  0  0  0  0  3  0  0  0  0  0  0
  186.7160  176.7520  135.2560 C   0  0  0  0  0  2  0  0  0  0  0  0
  187.2310  175.3700  135.7300 C   0  0  1  0  0  3  0  0  0  0  0  0
  183.9090  173.7430  135.3990 C   0  0  0  0  0  2  0  0  0  0  0  0
  186.2140  173.2680  135.0650 O   0  0  0  0  0  0  0  0  0  0  0  0
  184.7410  174.9570  135.6990 C   0  0  2  0  0  3  0  0  0  0  0  0
  186.1050  174.3560  135.9410 C   0  0  2  0  0  3  0  0  0  0  0  0
  184.9310  172.6720  135.0190 C   0  0  1  0  0  3  0  0  0  0  0  0
  184.8520  171.5090  136.0000 C   0  0  0  0  0  2  0  0  0  0  0  0
  183.5390  171.2500  136.3860 O   0  0  0  0  0  1  0  0  0  0  0  0
  184.2520  175.6500  136.8970 N   0  0  0  0  0  2  0  0  0  0  0  0
  181.9160  175.4480  137.0710 O   0  0  0  0  0  0  0  0  0  0  0  0
  181.9340  175.4570  138.4800 C   0  0  0  0  0  2  0  0  0  0  0  0
  181.3430  176.7530  138.9720 C   0  0  0  0  0  2  0  0  0  0  0  0
  182.9440  176.3030  136.6280 C   0  0  1  0  0  0  0  0  0  0  0  0
  182.9340  177.6070  137.2360 O   0  0  0  0  0  0  0  0  0  0  0  0
  181.7730  177.8800  138.0370 C   0  0  1  0  0  3  0  0  0  0  0  0
  180.7210  178.3430  137.2750 O   0  0  0  0  0  1  0  0  0  0  0  0
  183.1310  177.7600  134.6490 O   0  0  0  0  0  1  0  0  0  0  0  0
  181.4890  176.1860  134.6960 O   0  0  0  0  0  1  0  0  0  0  0  0
  182.7930  176.4790  135.0980 C   0  0  0  0  0  3  0  0  0  0  0  0
  189.3620  174.2810  135.5290 O   0  0  0  0  0  1  0  0  0  0  0  0
  188.3120  174.8430  134.8060 C   0  0  0  0  0  2  0  0  0  0  0  0
  187.7730  177.3530  142.5300 C   0  0  0  0  0  2  0  0  0  0  0  0
  185.9770  178.1320  144.0080 C   0  0  1  0  0  3  0  0  0  0  0  0
  186.8810  178.5550  142.8420 C   0  0  2  0  0  3  0  0  0  0  0  0
  184.0540  178.8630  142.5630 C   0  0  2  0  0  3  0  0  0  0  0  0
  183.7400  179.7690  143.7490 C   0  0  2  0  0  3  0  0  0  0  0  0
  185.6840  179.3390  144.6500 O   0  0  0  0  0  0  0  0  0  0  0  0
  183.0880  177.8240  142.5460 O   0  0  0  0  0  0  0  0  0  0  0  0
  181.3230  179.4660  142.8370 C   0  0  2  0  0  3  0  0  0  0  0  0
  184.4060  179.3200  144.9190 O   0  0  0  0  0  0  0  0  0  0  0  0
  185.4150  178.0780  142.5790 C   0  0  2  0  0  3  0  0  0  0  0  0
  182.0080  178.2040  143.3670 C   0  0  2  0  0  3  0  0  0  0  0  0
  182.2730  179.5180  144.0230 C   0  0  1  0  0  3  0  0  0  0  0  0
  179.9300  179.4930  143.3920 C   0  0  2  0  0  3  0  0  0  0  0  0
  178.9730  179.1340  142.3320 C   0  0  0  0  0  2  0  0  0  0  0  0
  179.1380  180.4610  142.7370 O   0  0  0  0  0  0  0  0  0  0  0  0
  1  5  1  0  0  0  0
  1  2  1  1  0  0  0
  2 11  1  0  0  0  0
  4 10  1  0  0  0  0
  4  6  1  0  0  0  0
  5  3  1  6  0  0  0
  5 14  1  0  0  0  0
  6 17  1  0  0  0  0
  8  9  1  0  0  0  0
  9  2  1  0  0  0  0
 11 15  1  0  0  0  0
 11  7  2  0  0  0  0
 12  4  2  0  0  0  0
 13  6  2  0  0  0  0
 13 52  1  0  0  0  0
 14 12  1  0  0  0  0
 14 15  2  0  0  0  0
 15 13  1  0  0  0  0
 16 30  1  6  0  0  0
 16  8  1  0  0  0  0
 16  1  1  0  0  0  0
 17 18  1  0  0  0  0
 18 19  1  0  0  0  0
 19 21  1  0  0  0  0
 21 22  1  0  0  0  0
 21 20  1  1  0  0  0
 22 23  1  0  0  0  0
 23 24  1  0  0  0  0
 24 25  1  0  0  0  0
 26 29  1  0  0  0  0
 26 25  1  0  0  0  0
 27 29  1  0  0  0  0
 28 29  1  0  0  0  0
 30 31  1  0  0  0  0
 31 51  1  6  0  0  0
 32 34  1  0  0  0  0
 33 35  1  0  0  0  0
 34 35  1  0  0  0  0
 34 39  1  1  0  0  0
 35 31  1  6  0  0  0
 36 33  1  0  0  0  0
 36 32  1  0  0  0  0
 36 37  1  1  0  0  0
 37 38  1  0  0  0  0
 40 41  1  0  0  0  0
 41 42  1  0  0  0  0
 43 49  1  6  0  0  0
 43 39  1  0  0  0  0
 43 40  1  0  0  0  0
 43 44  1  0  0  0  0
 44 45  1  0  0  0  0
 45 46  1  6  0  0  0
 45 42  1  0  0  0  0
 47 49  1  0  0  0  0
 48 49  1  0  0  0  0
 51 50  1  0  0  0  0
 53 57  1  1  0  0  0
 54 52  1  6  0  0  0
 54 53  1  0  0  0  0
 55 58  1  1  0  0  0
 55 61  1  0  0  0  0
 55 56  1  0  0  0  0
 56 63  1  0  0  0  0
 56 60  1  1  0  0  0
 57 60  1  0  0  0  0
 58 62  1  0  0  0  0
 59 62  1  0  0  0  0
 59 64  1  1  0  0  0
 59 63  1  0  0  0  0
 61 54  1  0  0  0  0
 61 53  1  0  0  0  0
 62 63  1  0  0  0  0
 65 66  1  0  0  0  0
 65 64  1  0  0  0  0
 66 64  1  0  0  0  0
M  END
>  <MODEL>
2

>  <REMARK>
 VINA RESULT:      -5.6      4.396      8.664
  Name = 
  21 active torsions:
  status: ('A' for Active; 'I' for Inactive)
    1  A    between atoms: C_3  and  C_9
    2  A    between atoms: C_3  and  C_66
    3  A    between atoms: C_5  and  C_58
    4  A    between atoms: C_6  and  C_37
    5  A    between atoms: C_6  and  C_46
    6  A    between atoms: C_9  and  C_45
    7  A    between atoms: C_9  and  C_60
    8  A    between atoms: N_10  and  C_28
    9  A    between atoms: N_10  and  C_32
   10  A    between atoms: C_13  and  C_37
   11  A    between atoms: C_13  and  C_38
   12  A    between atoms: C_20  and  C_22
   13  A    between atoms: C_22  and  N_29
   14  A    between atoms: N_29  and  C_61
   15  A    between atoms: C_32  and  C_59
   16  A    between atoms: C_34  and  C_35
   17  A    between atoms: C_36  and  C_38
   18  A    between atoms: C_36  and  C_50
   19  A    between atoms: C_39  and  C_62
   20  A    between atoms: C_50  and  C_61
   21  A    between atoms: C_54  and  C_58
                            x       y       z     vdW  Elec       q    Type
                         _______ _______ _______ _____ _____    ______ ____

>  <TORSDO>
F 21

$$$$
=
 OpenBabel10222418393D

 66 75  0  0  1  0  0  0  0  0999 V2000
  189.6050  176.6040  137.4000 C   0  0  2  0  0  3  0  0  0  0  0  0
  188.2840  177.1500  137.6370 N   0  0  0  0  0  0  0  0  0  0  0  0
  192.0300  176.7380  138.0090 C   0  0  0  0  0  1  0  0  0  0  0  0
  190.9680  177.6770  141.9050 C   0  0  0  0  0  0  0  0  0  0  0  0
  190.6620  177.4000  138.1800 C   0  0  2  0  0  3  0  0  0  0  0  0
  189.6460  177.8170  142.3320 C   0  0  0  0  0  0  0  0  0  0  0  0
  186.7390  178.1320  139.0750 O   0  0  0  0  0  0  0  0  0  0  0  0
  188.5650  177.6230  135.5520 C   0  0  0  0  0  2  0  0  0  0  0  0
  187.5610  177.3940  136.5190 O   0  0  0  0  0  0  0  0  0  0  0  0
  191.9950  177.6940  142.7890 F   0  0  0  0  0  0  0  0  0  0  0  0
  187.9050  177.6840  138.9100 C   0  0  0  0  0  0  0  0  0  0  0  0
  191.2600  177.5270  140.5890 N   0  0  0  0  0  0  0  0  0  0  0  0
  188.6000  177.7960  141.3720 C   0  0  0  0  0  0  0  0  0  0  0  0
  190.2850  177.5160  139.6360 C   0  0  0  0  0  0  0  0  0  0  0  0
  188.9270  177.7110  140.0020 C   0  0  0  0  0  0  0  0  0  0  0  0
  189.7950  176.7810  135.9210 C   0  0  2  0  0  3  0  0  0  0  0  0
  189.3920  177.9890  143.8000 C   0  0  0  0  0  2  0  0  0  0  0  0
  188.9860  176.7210  144.3930 N   0  0  0  0  0  2  0  0  0  0  0  0
  190.1140  176.2830  145.1820 C   0  0  0  0  0  2  0  0  0  0  0  0
  191.5290  176.7170  147.1670 C   0  0  0  0  0  1  0  0  0  0  0  0
  190.2460  177.1150  146.4660 C   0  0  2  0  0  3  0  0  0  0  0  0
  189.0760  176.8250  147.3920 C   0  0  0  0  0  2  0  0  0  0  0  0
  188.9850  177.8840  148.4750 C   0  0  0  0  0  2  0  0  0  0  0  0
  187.6250  178.5790  148.4610 C   0  0  0  0  0  2  0  0  0  0  0  0
  187.0530  178.6270  147.0510 C   0  0  0  0  0  2  0  0  0  0  0  0
  185.5390  178.4320  147.0710 C   0  0  0  0  0  2  0  0  0  0  0  0
  185.3700  177.6840  144.7980 F   0  0  0  0  0  0  0  0  0  0  0  0
  183.5860  178.7010  145.7110 F   0  0  0  0  0  0  0  0  0  0  0  0
  184.9700  178.6800  145.6560 C   0  0  0  0  0  3  0  0  0  0  0  0
  189.6760  175.3930  135.2640 C   0  0  0  0  0  2  0  0  0  0  0  0
  189.6620  174.2130  136.2680 C   0  0  1  0  0  3  0  0  0  0  0  0
  186.4740  172.8730  134.9110 C   0  0  0  0  0  2  0  0  0  0  0  0
  188.7790  172.3090  135.0460 O   0  0  0  0  0  0  0  0  0  0  0  0
  187.2410  173.9700  135.5920 C   0  0  2  0  0  3  0  0  0  0  0  0
  188.4920  173.2530  136.0410 C   0  0  2  0  0  3  0  0  0  0  0  0
  187.5300  171.8110  134.6070 C   0  0  1  0  0  3  0  0  0  0  0  0
  187.1880  170.5180  135.3370 C   0  0  0  0  0  2  0  0  0  0  0  0
  188.3310  169.7970  135.6720 O   0  0  0  0  0  1  0  0  0  0  0  0
  186.4980  174.5000  136.7410 N   0  0  0  0  0  2  0  0  0  0  0  0
  184.4060  175.4660  137.2080 O   0  0  0  0  0  0  0  0  0  0  0  0
  184.7210  176.6730  136.5530 C   0  0  0  0  0  2  0  0  0  0  0  0
  183.9070  176.7720  135.2880 C   0  0  0  0  0  2  0  0  0  0  0  0
  185.0340  174.4220  136.5000 C   0  0  1  0  0  0  0  0  0  0  0  0
  184.7860  174.4350  135.0830 O   0  0  0  0  0  0  0  0  0  0  0  0
  183.7940  175.3850  134.6620 C   0  0  1  0  0  3  0  0  0  0  0  0
  182.5170  174.8760  134.7730 O   0  0  0  0  0  1  0  0  0  0  0  0
  183.1430  173.0800  137.3350 O   0  0  0  0  0  1  0  0  0  0  0  0
  185.2040  172.7440  138.2380 O   0  0  0  0  0  1  0  0  0  0  0  0
  184.5160  173.0800  137.0710 C   0  0  0  0  0  3  0  0  0  0  0  0
  191.6390  173.6580  137.5120 O   0  0  0  0  0  1  0  0  0  0  0  0
  190.9970  173.4950  136.2860 C   0  0  0  0  0  2  0  0  0  0  0  0
  187.1830  177.6130  141.8390 C   0  0  0  0  0  2  0  0  0  0  0  0
  184.9260  178.5330  142.1160 C   0  0  1  0  0  3  0  0  0  0  0  0
  186.2170  178.6670  141.2970 C   0  0  2  0  0  3  0  0  0  0  0  0
  183.7420  178.3430  139.9060 C   0  0  2  0  0  3  0  0  0  0  0  0
  182.9540  179.5410  140.4280 C   0  0  2  0  0  3  0  0  0  0  0  0
  184.3730  179.8160  142.0680 O   0  0  0  0  0  0  0  0  0  0  0  0
  182.8870  177.2110  139.9530 O   0  0  0  0  0  0  0  0  0  0  0  0
  181.1230  178.5050  138.8980 C   0  0  2  0  0  3  0  0  0  0  0  0
  183.0960  179.6660  141.8350 O   0  0  0  0  0  0  0  0  0  0  0  0
  184.9940  177.8730  140.7300 C   0  0  2  0  0  3  0  0  0  0  0  0
  181.5590  177.6600  140.0980 C   0  0  2  0  0  3  0  0  0  0  0  0
  181.5080  179.1470  140.2220 C   0  0  1  0  0  3  0  0  0  0  0  0
  179.6240  178.4780  138.8460 C   0  0  2  0  0  3  0  0  0  0  0  0
  179.1850  177.4050  137.9380 C   0  0  0  0  0  2  0  0  0  0  0  0
  179.1550  178.7450  137.5410 O   0  0  0  0  0  0  0  0  0  0  0  0
  1  2  1  1  0  0  0
  1  5  1  0  0  0  0
  2 11  1  0  0  0  0
  4  6  1  0  0  0  0
  4 10  1  0  0  0  0
  5  3  1  1  0  0  0
  5 14  1  0  0  0  0
  6 17  1  0  0  0  0
  8 16  1  0  0  0  0
  8  9  1  0  0  0  0
  9  2  1  0  0  0  0
 11  7  2  0  0  0  0
 11 15  1  0  0  0  0
 12  4  2  0  0  0  0
 13 52  1  0  0  0  0
 13  6  2  0  0  0  0
 14 15  2  0  0  0  0
 14 12  1  0  0  0  0
 15 13  1  0  0  0  0
 16 30  1  6  0  0  0
 16  1  1  0  0  0  0
 17 18  1  0  0  0  0
 18 19  1  0  0  0  0
 19 21  1  0  0  0  0
 21 20  1  1  0  0  0
 21 22  1  0  0  0  0
 22 23  1  0  0  0  0
 24 23  1  0  0  0  0
 25 26  1  0  0  0  0
 25 24  1  0  0  0  0
 27 29  1  0  0  0  0
 29 28  1  0  0  0  0
 29 26  1  0  0  0  0
 31 30  1  6  0  0  0
 31 51  1  0  0  0  0
 32 34  1  0  0  0  0
 33 35  1  0  0  0  0
 34 35  1  0  0  0  0
 34 39  1  1  0  0  0
 35 31  1  6  0  0  0
 36 32  1  0  0  0  0
 36 33  1  0  0  0  0
 36 37  1  1  0  0  0
 37 38  1  0  0  0  0
 41 40  1  0  0  0  0
 42 41  1  0  0  0  0
 43 39  1  1  0  0  0
 43 49  1  0  0  0  0
 43 40  1  0  0  0  0
 44 43  1  0  0  0  0
 45 46  1  1  0  0  0
 45 44  1  0  0  0  0
 45 42  1  0  0  0  0
 49 47  1  0  0  0  0
 49 48  1  0  0  0  0
 51 50  1  0  0  0  0
 53 57  1  6  0  0  0
 54 52  1  1  0  0  0
 54 53  1  0  0  0  0
 55 58  1  1  0  0  0
 55 56  1  0  0  0  0
 55 61  1  0  0  0  0
 56 60  1  1  0  0  0
 58 62  1  0  0  0  0
 59 64  1  1  0  0  0
 59 62  1  0  0  0  0
 59 63  1  0  0  0  0
 60 57  1  0  0  0  0
 61 54  1  0  0  0  0
 61 53  1  0  0  0  0
 62 63  1  0  0  0  0
 63 56  1  0  0  0  0
 65 64  1  0  0  0  0
 66 65  1  0  0  0  0
 66 64  1  0  0  0  0
M  END
>  <MODEL>
3

>  <REMARK>
 VINA RESULT:      -5.3      3.438      6.916
  Name = 
  21 active torsions:
  status: ('A' for Active; 'I' for Inactive)
    1  A    between atoms: C_3  and  C_9
    2  A    between atoms: C_3  and  C_66
    3  A    between atoms: C_5  and  C_58
    4  A    between atoms: C_6  and  C_37
    5  A    between atoms: C_6  and  C_46
    6  A    between atoms: C_9  and  C_45
    7  A    between atoms: C_9  and  C_60
    8  A    between atoms: N_10  and  C_28
    9  A    between atoms: N_10  and  C_32
   10  A    between atoms: C_13  and  C_37
   11  A    between atoms: C_13  and  C_38
   12  A    between atoms: C_20  and  C_22
   13  A    between atoms: C_22  and  N_29
   14  A    between atoms: N_29  and  C_61
   15  A    between atoms: C_32  and  C_59
   16  A    between atoms: C_34  and  C_35
   17  A    between atoms: C_36  and  C_38
   18  A    between atoms: C_36  and  C_50
   19  A    between atoms: C_39  and  C_62
   20  A    between atoms: C_50  and  C_61
   21  A    between atoms: C_54  and  C_58
                            x       y       z     vdW  Elec       q    Type
                         _______ _______ _______ _____ _____    ______ ____

>  <TORSDO>
F 21

$$$$
=
 OpenBabel10222418393D

 66 75  0  0  1  0  0  0  0  0999 V2000
  184.9040  178.6330  138.6820 C   0  0  2  0  0  3  0  0  0  0  0  0
  185.6870  178.0580  137.6080 N   0  0  0  0  0  0  0  0  0  0  0  0
  184.5580  178.7240  141.1610 C   0  0  0  0  0  1  0  0  0  0  0  0
  188.6470  178.3250  141.7140 C   0  0  0  0  0  0  0  0  0  0  0  0
  185.3120  178.0220  140.0310 C   0  0  2  0  0  3  0  0  0  0  0  0
  189.5570  178.1790  140.6650 C   0  0  0  0  0  0  0  0  0  0  0  0
  187.7090  177.2220  136.8150 O   0  0  0  0  0  0  0  0  0  0  0  0
  183.7230  177.2940  137.1500 C   0  0  0  0  0  2  0  0  0  0  0  0
  184.9650  177.6110  136.5550 O   0  0  0  0  0  0  0  0  0  0  0  0
  189.0710  178.4960  142.9900 F   0  0  0  0  0  0  0  0  0  0  0  0
  187.0630  177.7020  137.7830 C   0  0  0  0  0  0  0  0  0  0  0  0
  187.3110  178.2910  141.4840 N   0  0  0  0  0  0  0  0  0  0  0  0
  189.0710  177.9990  139.3440 C   0  0  0  0  0  0  0  0  0  0  0  0
  186.8060  178.1060  140.2310 C   0  0  0  0  0  0  0  0  0  0  0  0
  187.6800  177.8950  139.1320 C   0  0  0  0  0  0  0  0  0  0  0  0
  183.4950  178.2470  138.3330 C   0  0  2  0  0  3  0  0  0  0  0  0
  191.0210  178.2160  140.9890 C   0  0  0  0  0  2  0  0  0  0  0  0
  191.3970  177.0340  141.7540 N   0  0  0  0  0  2  0  0  0  0  0  0
  191.6290  177.5000  143.1010 C   0  0  0  0  0  2  0  0  0  0  0  0
  190.8160  175.2340  143.6830 C   0  0  0  0  0  1  0  0  0  0  0  0
  191.7990  176.3200  144.0710 C   0  0  2  0  0  3  0  0  0  0  0  0
  191.4910  176.7700  145.4900 C   0  0  0  0  0  2  0  0  0  0  0  0
  190.0230  176.5540  145.8050 C   0  0  0  0  0  2  0  0  0  0  0  0
  189.7140  176.8730  147.2670 C   0  0  0  0  0  2  0  0  0  0  0  0
  189.0960  178.2560  147.4020 C   0  0  0  0  0  2  0  0  0  0  0  0
  187.6350  178.1600  147.8360 C   0  0  0  0  0  2  0  0  0  0  0  0
  185.6590  178.8460  146.6620 F   0  0  0  0  0  0  0  0  0  0  0  0
  187.4690  178.2940  145.4500 F   0  0  0  0  0  0  0  0  0  0  0  0
  186.7370  177.9990  146.5880 C   0  0  0  0  0  3  0  0  0  0  0  0
  182.7720  179.5110  137.8330 C   0  0  0  0  0  2  0  0  0  0  0  0
  181.3180  179.2650  137.3570 C   0  0  1  0  0  3  0  0  0  0  0  0
  178.9570  177.1990  139.3450 C   0  0  0  0  0  2  0  0  0  0  0  0
  179.7850  177.3960  137.1250 O   0  0  0  0  0  0  0  0  0  0  0  0
  179.9010  178.3630  139.2400 C   0  0  2  0  0  3  0  0  0  0  0  0
  180.6850  178.0270  137.9940 C   0  0  2  0  0  3  0  0  0  0  0  0
  178.9490  176.5970  137.9400 C   0  0  1  0  0  3  0  0  0  0  0  0
  179.4660  175.1640  137.9880 C   0  0  0  0  0  2  0  0  0  0  0  0
  180.8570  175.1180  137.9610 O   0  0  0  0  0  1  0  0  0  0  0  0
  180.7810  178.4350  140.4120 N   0  0  0  0  0  2  0  0  0  0  0  0
  178.9980  178.2790  141.9370 O   0  0  0  0  0  0  0  0  0  0  0  0
  179.5230  177.1320  142.5650 C   0  0  0  0  0  2  0  0  0  0  0  0
  179.9960  177.5010  143.9470 C   0  0  0  0  0  2  0  0  0  0  0  0
  180.0860  179.0870  141.5520 C   0  0  1  0  0  0  0  0  0  0  0  0
  181.0370  179.3410  142.6030 O   0  0  0  0  0  0  0  0  0  0  0  0
  180.6190  178.8940  143.9030 C   0  0  1  0  0  3  0  0  0  0  0  0
  179.8280  179.8290  144.5370 O   0  0  0  0  0  1  0  0  0  0  0  0
  180.4790  181.2510  140.4400 O   0  0  0  0  0  1  0  0  0  0  0  0
  178.9600  181.1520  142.1320 O   0  0  0  0  0  1  0  0  0  0  0  0
  179.5240  180.4450  141.0680 C   0  0  0  0  0  3  0  0  0  0  0  0
  180.9330  181.5600  136.7610 O   0  0  0  0  0  1  0  0  0  0  0  0
  180.4650  180.5050  137.5420 C   0  0  0  0  0  2  0  0  0  0  0  0
  190.0160  178.1740  138.1870 C   0  0  0  0  0  2  0  0  0  0  0  0
  191.0040  175.9350  138.3440 C   0  0  1  0  0  3  0  0  0  0  0  0
  190.2630  176.8880  137.3970 C   0  0  2  0  0  3  0  0  0  0  0  0
  192.7180  175.7200  136.5170 C   0  0  2  0  0  3  0  0  0  0  0  0
  192.3920  174.2340  136.6310 C   0  0  2  0  0  3  0  0  0  0  0  0
  190.6480  174.6660  137.8760 O   0  0  0  0  0  0  0  0  0  0  0  0
  194.0030  175.9250  137.0830 O   0  0  0  0  0  0  0  0  0  0  0  0
  194.8560  174.0340  135.8200 C   0  0  2  0  0  3  0  0  0  0  0  0
  191.7420  173.9510  137.8600 O   0  0  0  0  0  0  0  0  0  0  0  0
  191.8170  176.7310  137.3120 C   0  0  2  0  0  3  0  0  0  0  0  0
  194.6460  174.6760  137.1940 C   0  0  2  0  0  3  0  0  0  0  0  0
  193.7470  173.5700  136.7520 C   0  0  1  0  0  3  0  0  0  0  0  0
  195.9750  173.0440  135.9490 C   0  0  2  0  0  3  0  0  0  0  0  0
  196.9030  173.2040  134.8170 C   0  0  0  0  0  2  0  0  0  0  0  0
  195.9910  172.1470  134.8580 O   0  0  0  0  0  0  0  0  0  0  0  0
  1  2  1  6  0  0  0
  1  5  1  0  0  0  0
  2 11  1  0  0  0  0
  4 10  1  0  0  0  0
  5 14  1  0  0  0  0
  5  3  1  1  0  0  0
  6 17  1  0  0  0  0
  6  4  2  0  0  0  0
  7 11  2  0  0  0  0
  8 16  1  0  0  0  0
  9  8  1  0  0  0  0
  9  2  1  0  0  0  0
 11 15  1  0  0  0  0
 12  4  1  0  0  0  0
 13  6  1  0  0  0  0
 14 12  2  0  0  0  0
 15 13  2  0  0  0  0
 15 14  1  0  0  0  0
 16 30  1  6  0  0  0
 16  1  1  0  0  0  0
 17 18  1  0  0  0  0
 18 19  1  0  0  0  0
 19 21  1  0  0  0  0
 21 20  1  6  0  0  0
 21 22  1  0  0  0  0
 22 23  1  0  0  0  0
 23 24  1  0  0  0  0
 24 25  1  0  0  0  0
 25 26  1  0  0  0  0
 28 29  1  0  0  0  0
 29 27  1  0  0  0  0
 29 26  1  0  0  0  0
 31 51  1  1  0  0  0
 31 30  1  0  0  0  0
 33 36  1  0  0  0  0
 33 35  1  0  0  0  0
 34 32  1  0  0  0  0
 34 39  1  1  0  0  0
 35 31  1  6  0  0  0
 35 34  1  0  0  0  0
 36 37  1  1  0  0  0
 36 32  1  0  0  0  0
 38 37  1  0  0  0  0
 40 41  1  0  0  0  0
 41 42  1  0  0  0  0
 43 39  1  6  0  0  0
 43 40  1  0  0  0  0
 43 44  1  0  0  0  0
 44 45  1  0  0  0  0
 45 42  1  0  0  0  0
 45 46  1  6  0  0  0
 47 49  1  0  0  0  0
 49 43  1  0  0  0  0
 49 48  1  0  0  0  0
 50 51  1  0  0  0  0
 52 13  1  0  0  0  0
 53 57  1  6  0  0  0
 54 52  1  1  0  0  0
 54 53  1  0  0  0  0
 55 56  1  0  0  0  0
 55 58  1  1  0  0  0
 55 61  1  0  0  0  0
 56 63  1  0  0  0  0
 56 60  1  1  0  0  0
 58 62  1  0  0  0  0
 59 64  1  1  0  0  0
 59 63  1  0  0  0  0
 59 62  1  0  0  0  0
 60 57  1  0  0  0  0
 61 54  1  0  0  0  0
 61 53  1  0  0  0  0
 63 62  1  0  0  0  0
 65 66  1  0  0  0  0
 65 64  1  0  0  0  0
 66 64  1  0  0  0  0
M  END
>  <MODEL>
4

>  <REMARK>
 VINA RESULT:      -5.1      2.887     11.662
  Name = 
  21 active torsions:
  status: ('A' for Active; 'I' for Inactive)
    1  A    between atoms: C_3  and  C_9
    2  A    between atoms: C_3  and  C_66
    3  A    between atoms: C_5  and  C_58
    4  A    between atoms: C_6  and  C_37
    5  A    between atoms: C_6  and  C_46
    6  A    between atoms: C_9  and  C_45
    7  A    between atoms: C_9  and  C_60
    8  A    between atoms: N_10  and  C_28
    9  A    between atoms: N_10  and  C_32
   10  A    between atoms: C_13  and  C_37
   11  A    between atoms: C_13  and  C_38
   12  A    between atoms: C_20  and  C_22
   13  A    between atoms: C_22  and  N_29
   14  A    between atoms: N_29  and  C_61
   15  A    between atoms: C_32  and  C_59
   16  A    between atoms: C_34  and  C_35
   17  A    between atoms: C_36  and  C_38
   18  A    between atoms: C_36  and  C_50
   19  A    between atoms: C_39  and  C_62
   20  A    between atoms: C_50  and  C_61
   21  A    between atoms: C_54  and  C_58
                            x       y       z     vdW  Elec       q    Type
                         _______ _______ _______ _____ _____    ______ ____

>  <TORSDO>
F 21

$$$$
=
 OpenBabel10222418393D

 66 75  0  0  1  0  0  0  0  0999 V2000
  185.9580  176.5370  137.2660 C   0  0  2  0  0  3  0  0  0  0  0  0
  186.5840  177.5720  138.0640 N   0  0  0  0  0  0  0  0  0  0  0  0
  186.1160  175.1690  135.1740 C   0  0  0  0  0  1  0  0  0  0  0  0
  190.2440  175.1280  135.5480 C   0  0  0  0  0  0  0  0  0  0  0  0
  186.7210  176.3420  135.9470 C   0  0  2  0  0  3  0  0  0  0  0  0
  190.9330  175.7810  136.5730 C   0  0  0  0  0  0  0  0  0  0  0  0
  188.5040  178.6550  138.8100 O   0  0  0  0  0  0  0  0  0  0  0  0
  184.7060  178.5060  137.5620 C   0  0  0  0  0  2  0  0  0  0  0  0
  185.7380  178.5210  138.5270 O   0  0  0  0  0  0  0  0  0  0  0  0
  190.8880  174.3050  134.6870 F   0  0  0  0  0  0  0  0  0  0  0  0
  188.0040  177.7530  138.0870 C   0  0  0  0  0  0  0  0  0  0  0  0
  188.9090  175.3080  135.3850 N   0  0  0  0  0  0  0  0  0  0  0  0
  190.2200  176.6380  137.4530 C   0  0  0  0  0  0  0  0  0  0  0  0
  188.1930  176.1330  136.2010 C   0  0  0  0  0  0  0  0  0  0  0  0
  188.8470  176.8680  137.2250 C   0  0  0  0  0  0  0  0  0  0  0  0
  184.5830  177.0800  137.0050 C   0  0  2  0  0  3  0  0  0  0  0  0
  192.4090  175.5480  136.6930 C   0  0  0  0  0  2  0  0  0  0  0  0
  193.1310  176.3910  135.7480 N   0  0  0  0  0  2  0  0  0  0  0  0
  194.5240  176.2750  136.1100 C   0  0  0  0  0  2  0  0  0  0  0  0
  194.3000  174.2950  134.6390 C   0  0  0  0  0  1  0  0  0  0  0  0
  195.2700  175.3450  135.1400 C   0  0  2  0  0  3  0  0  0  0  0  0
  196.4100  174.6490  135.8660 C   0  0  0  0  0  2  0  0  0  0  0  0
  195.9120  174.0360  137.1610 C   0  0  0  0  0  2  0  0  0  0  0  0
  196.8210  172.8980  137.6240 C   0  0  0  0  0  2  0  0  0  0  0  0
  197.0330  171.8850  136.5090 C   0  0  0  0  0  2  0  0  0  0  0  0
  195.7270  171.1740  136.1640 C   0  0  0  0  0  2  0  0  0  0  0  0
  196.3400  169.8190  138.0470 F   0  0  0  0  0  0  0  0  0  0  0  0
  194.5360  171.1460  138.2420 F   0  0  0  0  0  0  0  0  0  0  0  0
  195.2590  170.3400  137.3780 C   0  0  0  0  0  3  0  0  0  0  0  0
  183.5910  176.2820  137.8710 C   0  0  0  0  0  2  0  0  0  0  0  0
  182.1760  176.1450  137.2540 C   0  0  1  0  0  3  0  0  0  0  0  0
  178.9950  177.7120  138.3580 C   0  0  0  0  0  2  0  0  0  0  0  0
  180.1300  175.6260  138.4550 O   0  0  0  0  0  0  0  0  0  0  0  0
  180.2920  177.7880  137.6050 C   0  0  2  0  0  3  0  0  0  0  0  0
  181.0680  176.6320  138.1900 C   0  0  2  0  0  3  0  0  0  0  0  0
  178.9650  176.2860  138.9090 C   0  0  1  0  0  3  0  0  0  0  0  0
  178.9350  176.3220  140.4320 C   0  0  0  0  0  2  0  0  0  0  0  0
  179.7230  177.3510  140.9400 O   0  0  0  0  0  1  0  0  0  0  0  0
  180.9750  179.0620  137.8570 N   0  0  0  0  0  2  0  0  0  0  0  0
  179.1200  180.4730  137.5500 O   0  0  0  0  0  0  0  0  0  0  0  0
  179.3250  181.1500  138.7700 C   0  0  0  0  0  2  0  0  0  0  0  0
  179.7900  182.5530  138.4810 C   0  0  0  0  0  2  0  0  0  0  0  0
  180.3880  180.1460  137.0290 C   0  0  1  0  0  0  0  0  0  0  0  0
  181.3080  181.2510  136.9730 O   0  0  0  0  0  0  0  0  0  0  0  0
  180.7230  182.5280  137.2730 C   0  0  1  0  0  3  0  0  0  0  0  0
  180.1370  183.0970  136.1620 O   0  0  0  0  0  1  0  0  0  0  0  0
  181.1790  180.0260  134.6980 O   0  0  0  0  0  1  0  0  0  0  0  0
  178.9390  179.9850  135.0940 O   0  0  0  0  0  1  0  0  0  0  0  0
  180.1880  179.6080  135.5920 C   0  0  0  0  0  3  0  0  0  0  0  0
  182.8000  176.0680  134.9350 O   0  0  0  0  0  1  0  0  0  0  0  0
  182.1080  176.8090  135.8920 C   0  0  0  0  0  2  0  0  0  0  0  0
  190.8720  177.0740  138.7360 C   0  0  0  0  0  2  0  0  0  0  0  0
  190.0010  177.7380  140.9310 C   0  0  1  0  0  3  0  0  0  0  0  0
  190.1780  176.5390  139.9900 C   0  0  2  0  0  3  0  0  0  0  0  0
  191.1440  176.3280  142.6710 C   0  0  2  0  0  3  0  0  0  0  0  0
  189.8660  176.5870  143.4630 C   0  0  2  0  0  3  0  0  0  0  0  0
  188.8770  177.3950  141.6890 O   0  0  0  0  0  0  0  0  0  0  0  0
  192.1800  177.0980  143.2590 O   0  0  0  0  0  0  0  0  0  0  0  0
  191.5130  176.3070  145.4570 C   0  0  2  0  0  3  0  0  0  0  0  0
  189.1560  177.6950  142.9300 O   0  0  0  0  0  0  0  0  0  0  0  0
  191.1790  176.7810  141.1670 C   0  0  2  0  0  3  0  0  0  0  0  0
  191.7590  177.5090  144.5400 C   0  0  2  0  0  3  0  0  0  0  0  0
  190.3610  177.0620  144.8120 C   0  0  1  0  0  3  0  0  0  0  0  0
  191.6120  176.7910  146.8730 C   0  0  2  0  0  3  0  0  0  0  0  0
  191.6380  175.6350  147.7850 C   0  0  0  0  0  2  0  0  0  0  0  0
  190.4820  176.4030  147.6250 O   0  0  0  0  0  0  0  0  0  0  0  0
  1  2  1  1  0  0  0
  2 11  1  0  0  0  0
  2  9  1  0  0  0  0
  4  6  1  0  0  0  0
  5  3  1  1  0  0  0
  5 14  1  0  0  0  0
  5  1  1  0  0  0  0
  6 17  1  0  0  0  0
  6 13  2  0  0  0  0
  8  9  1  0  0  0  0
 10  4  1  0  0  0  0
 11  7  2  0  0  0  0
 12  4  2  0  0  0  0
 12 14  1  0  0  0  0
 13 52  1  0  0  0  0
 14 15  2  0  0  0  0
 15 13  1  0  0  0  0
 15 11  1  0  0  0  0
 16  1  1  0  0  0  0
 16  8  1  0  0  0  0
 16 30  1  1  0  0  0
 18 19  1  0  0  0  0
 18 17  1  0  0  0  0
 21 20  1  1  0  0  0
 21 22  1  0  0  0  0
 21 19  1  0  0  0  0
 22 23  1  0  0  0  0
 23 24  1  0  0  0  0
 25 24  1  0  0  0  0
 26 25  1  0  0  0  0
 26 29  1  0  0  0  0
 29 27  1  0  0  0  0
 29 28  1  0  0  0  0
 31 51  1  6  0  0  0
 31 30  1  0  0  0  0
 32 36  1  0  0  0  0
 33 36  1  0  0  0  0
 34 39  1  1  0  0  0
 34 35  1  0  0  0  0
 34 32  1  0  0  0  0
 35 31  1  6  0  0  0
 35 33  1  0  0  0  0
 36 37  1  1  0  0  0
 37 38  1  0  0  0  0
 40 41  1  0  0  0  0
 42 41  1  0  0  0  0
 43 49  1  6  0  0  0
 43 40  1  0  0  0  0
 43 39  1  0  0  0  0
 44 43  1  0  0  0  0
 44 45  1  0  0  0  0
 45 46  1  6  0  0  0
 45 42  1  0  0  0  0
 47 49  1  0  0  0  0
 48 49  1  0  0  0  0
 50 51  1  0  0  0  0
 53 61  1  0  0  0  0
 53 57  1  1  0  0  0
 54 52  1  6  0  0  0
 54 53  1  0  0  0  0
 54 61  1  0  0  0  0
 55 58  1  1  0  0  0
 55 56  1  0  0  0  0
 56 60  1  6  0  0  0
 56 63  1  0  0  0  0
 57 60  1  0  0  0  0
 58 62  1  0  0  0  0
 59 64  1  1  0  0  0
 61 55  1  0  0  0  0
 62 63  1  0  0  0  0
 62 59  1  0  0  0  0
 63 59  1  0  0  0  0
 64 66  1  0  0  0  0
 64 65  1  0  0  0  0
 66 65  1  0  0  0  0
M  END
>  <MODEL>
5

>  <REMARK>
 VINA RESULT:      -4.8      4.594     12.904
  Name = 
  21 active torsions:
  status: ('A' for Active; 'I' for Inactive)
    1  A    between atoms: C_3  and  C_9
    2  A    between atoms: C_3  and  C_66
    3  A    between atoms: C_5  and  C_58
    4  A    between atoms: C_6  and  C_37
    5  A    between atoms: C_6  and  C_46
    6  A    between atoms: C_9  and  C_45
    7  A    between atoms: C_9  and  C_60
    8  A    between atoms: N_10  and  C_28
    9  A    between atoms: N_10  and  C_32
   10  A    between atoms: C_13  and  C_37
   11  A    between atoms: C_13  and  C_38
   12  A    between atoms: C_20  and  C_22
   13  A    between atoms: C_22  and  N_29
   14  A    between atoms: N_29  and  C_61
   15  A    between atoms: C_32  and  C_59
   16  A    between atoms: C_34  and  C_35
   17  A    between atoms: C_36  and  C_38
   18  A    between atoms: C_36  and  C_50
   19  A    between atoms: C_39  and  C_62
   20  A    between atoms: C_50  and  C_61
   21  A    between atoms: C_54  and  C_58
                            x       y       z     vdW  Elec       q    Type
                         _______ _______ _______ _____ _____    ______ ____

>  <TORSDO>
F 21

$$$$
=
 OpenBabel10222418393D

 66 75  0  0  1  0  0  0  0  0999 V2000
  190.1120  176.4030  138.3370 C   0  0  2  0  0  3  0  0  0  0  0  0
  189.0590  176.9070  137.4770 N   0  0  0  0  0  0  0  0  0  0  0  0
  191.3860  176.7640  140.4630 C   0  0  0  0  0  1  0  0  0  0  0  0
  187.9430  178.2410  142.2390 C   0  0  0  0  0  0  0  0  0  0  0  0
  190.3560  177.3680  139.5070 C   0  0  2  0  0  3  0  0  0  0  0  0
  186.7250  178.3720  141.5690 C   0  0  0  0  0  0  0  0  0  0  0  0
  187.0290  178.0140  137.2170 O   0  0  0  0  0  0  0  0  0  0  0  0
  190.7730  177.0620  136.1780 C   0  0  0  0  0  2  0  0  0  0  0  0
  189.3670  176.9320  136.1600 O   0  0  0  0  0  0  0  0  0  0  0  0
  188.0340  178.4520  143.5740 F   0  0  0  0  0  0  0  0  0  0  0  0
  187.9290  177.6110  138.0020 C   0  0  0  0  0  0  0  0  0  0  0  0
  189.0720  177.9030  141.5670 N   0  0  0  0  0  0  0  0  0  0  0  0
  186.6740  178.1440  140.1690 C   0  0  0  0  0  0  0  0  0  0  0  0
  189.0660  177.6900  140.2200 C   0  0  0  0  0  0  0  0  0  0  0  0
  187.8700  177.8640  139.4740 C   0  0  0  0  0  0  0  0  0  0  0  0
  191.3090  176.3570  137.4320 C   0  0  2  0  0  3  0  0  0  0  0  0
  185.5170  178.7580  142.3690 C   0  0  0  0  0  2  0  0  0  0  0  0
  185.9130  179.1840  143.7060 N   0  0  0  0  0  2  0  0  0  0  0  0
  184.7410  179.0100  144.5320 C   0  0  0  0  0  2  0  0  0  0  0  0
  183.8090  178.0540  146.6180 C   0  0  0  0  0  1  0  0  0  0  0  0
  185.0620  178.1610  145.7730 C   0  0  2  0  0  3  0  0  0  0  0  0
  186.1470  178.8380  146.5940 C   0  0  0  0  0  2  0  0  0  0  0  0
  187.4450  178.0580  146.4970 C   0  0  0  0  0  2  0  0  0  0  0  0
  188.0990  177.8920  147.8670 C   0  0  0  0  0  2  0  0  0  0  0  0
  189.4620  177.2260  147.7420 C   0  0  0  0  0  2  0  0  0  0  0  0
  189.9810  177.3160  146.3090 C   0  0  0  0  0  2  0  0  0  0  0  0
  191.3820  176.1320  144.7630 F   0  0  0  0  0  0  0  0  0  0  0  0
  192.2410  176.6700  146.7690 F   0  0  0  0  0  0  0  0  0  0  0  0
  191.0970  176.2680  146.1000 C   0  0  0  0  0  3  0  0  0  0  0  0
  191.5920  174.8800  137.1020 C   0  0  0  0  0  2  0  0  0  0  0  0
  192.4270  174.6650  135.8150 C   0  0  1  0  0  3  0  0  0  0  0  0
  196.0030  175.4050  135.1340 C   0  0  0  0  0  2  0  0  0  0  0  0
  193.8530  176.3800  134.8540 O   0  0  0  0  0  0  0  0  0  0  0  0
  194.9360  174.4640  135.6160 C   0  0  2  0  0  3  0  0  0  0  0  0
  193.7710  175.3960  135.8490 C   0  0  2  0  0  3  0  0  0  0  0  0
  195.2320  176.6430  134.6770 C   0  0  1  0  0  3  0  0  0  0  0  0
  195.6530  177.8500  135.5070 C   0  0  0  0  0  2  0  0  0  0  0  0
  196.2580  178.8280  134.7230 O   0  0  0  0  0  1  0  0  0  0  0  0
  195.3380  173.8050  136.8640 N   0  0  0  0  0  2  0  0  0  0  0  0
  196.0490  171.6830  137.5870 O   0  0  0  0  0  0  0  0  0  0  0  0
  194.7860  171.0930  137.3750 C   0  0  0  0  0  2  0  0  0  0  0  0
  194.8740  170.1540  136.2000 C   0  0  0  0  0  2  0  0  0  0  0  0
  196.2370  172.6550  136.5840 C   0  0  1  0  0  0  0  0  0  0  0  0
  195.9960  172.1810  135.2470 O   0  0  0  0  0  0  0  0  0  0  0  0
  195.7960  170.7620  135.1460 C   0  0  1  0  0  3  0  0  0  0  0  0
  196.9920  170.0800  135.0590 O   0  0  0  0  0  1  0  0  0  0  0  0
  198.6410  172.1540  136.3770 O   0  0  0  0  0  1  0  0  0  0  0  0
  197.9720  173.6760  137.9310 O   0  0  0  0  0  1  0  0  0  0  0  0
  197.7010  173.1480  136.6670 C   0  0  0  0  0  3  0  0  0  0  0  0
  191.3980  172.4960  135.7310 O   0  0  0  0  0  1  0  0  0  0  0  0
  192.5870  173.1880  135.5080 C   0  0  0  0  0  2  0  0  0  0  0  0
  185.3360  177.9580  139.5070 C   0  0  0  0  0  2  0  0  0  0  0  0
  182.9130  178.3310  139.5670 C   0  0  1  0  0  3  0  0  0  0  0  0
  184.2580  178.9110  140.0240 C   0  0  2  0  0  3  0  0  0  0  0  0
  182.4590  180.6000  138.5840 C   0  0  2  0  0  3  0  0  0  0  0  0
  181.2250  180.5440  139.4790 C   0  0  2  0  0  3  0  0  0  0  0  0
  182.0120  178.7960  140.5300 O   0  0  0  0  0  0  0  0  0  0  0  0
  182.0280  180.4280  137.2430 O   0  0  0  0  0  0  0  0  0  0  0  0
  180.2760  182.0720  137.6000 C   0  0  2  0  0  3  0  0  0  0  0  0
  180.9540  179.2110  139.8840 O   0  0  0  0  0  0  0  0  0  0  0  0
  183.5400  179.4730  138.7530 C   0  0  2  0  0  3  0  0  0  0  0  0
  180.6350  180.6410  137.1900 C   0  0  2  0  0  3  0  0  0  0  0  0
  180.0830  180.9020  138.5520 C   0  0  1  0  0  3  0  0  0  0  0  0
  178.9310  182.3860  137.0160 C   0  0  2  0  0  3  0  0  0  0  0  0
  179.0390  182.4670  135.5500 C   0  0  0  0  0  2  0  0  0  0  0  0
  178.9470  183.6210  136.3320 O   0  0  0  0  0  0  0  0  0  0  0  0
  1  2  1  6  0  0  0
  1  5  1  0  0  0  0
  2 11  1  0  0  0  0
  4 10  1  0  0  0  0
  5 14  1  0  0  0  0
  5  3  1  1  0  0  0
  6  4  1  0  0  0  0
  6 17  1  0  0  0  0
  7 11  2  0  0  0  0
  8 16  1  0  0  0  0
  9  8  1  0  0  0  0
  9  2  1  0  0  0  0
 11 15  1  0  0  0  0
 12  4  2  0  0  0  0
 13  6  2  0  0  0  0
 14 12  1  0  0  0  0
 15 13  1  0  0  0  0
 15 14  2  0  0  0  0
 16 30  1  6  0  0  0
 16  1  1  0  0  0  0
 17 18  1  0  0  0  0
 18 19  1  0  0  0  0
 19 21  1  0  0  0  0
 21 22  1  0  0  0  0
 21 20  1  1  0  0  0
 23 22  1  0  0  0  0
 23 24  1  0  0  0  0
 25 24  1  0  0  0  0
 26 25  1  0  0  0  0
 27 29  1  0  0  0  0
 29 26  1  0  0  0  0
 29 28  1  0  0  0  0
 31 51  1  1  0  0  0
 31 30  1  0  0  0  0
 32 34  1  0  0  0  0
 33 35  1  0  0  0  0
 34 35  1  0  0  0  0
 34 39  1  1  0  0  0
 35 31  1  6  0  0  0
 36 33  1  0  0  0  0
 36 32  1  0  0  0  0
 36 37  1  1  0  0  0
 38 37  1  0  0  0  0
 41 40  1  0  0  0  0
 42 41  1  0  0  0  0
 43 49  1  1  0  0  0
 43 39  1  0  0  0  0
 43 40  1  0  0  0  0
 44 43  1  0  0  0  0
 45 46  1  1  0  0  0
 45 44  1  0  0  0  0
 45 42  1  0  0  0  0
 47 49  1  0  0  0  0
 49 48  1  0  0  0  0
 51 50  1  0  0  0  0
 52 13  1  0  0  0  0
 53 54  1  0  0  0  0
 53 57  1  1  0  0  0
 54 52  1  6  0  0  0
 55 58  1  6  0  0  0
 55 61  1  0  0  0  0
 55 56  1  0  0  0  0
 56 60  1  6  0  0  0
 59 64  1  6  0  0  0
 59 63  1  0  0  0  0
 60 57  1  0  0  0  0
 61 53  1  0  0  0  0
 61 54  1  0  0  0  0
 62 58  1  0  0  0  0
 62 59  1  0  0  0  0
 62 63  1  0  0  0  0
 63 56  1  0  0  0  0
 65 66  1  0  0  0  0
 65 64  1  0  0  0  0
 66 64  1  0  0  0  0
M  END
>  <MODEL>
6

>  <REMARK>
 VINA RESULT:      -4.6      2.500      3.417
  Name = 
  21 active torsions:
  status: ('A' for Active; 'I' for Inactive)
    1  A    between atoms: C_3  and  C_9
    2  A    between atoms: C_3  and  C_66
    3  A    between atoms: C_5  and  C_58
    4  A    between atoms: C_6  and  C_37
    5  A    between atoms: C_6  and  C_46
    6  A    between atoms: C_9  and  C_45
    7  A    between atoms: C_9  and  C_60
    8  A    between atoms: N_10  and  C_28
    9  A    between atoms: N_10  and  C_32
   10  A    between atoms: C_13  and  C_37
   11  A    between atoms: C_13  and  C_38
   12  A    between atoms: C_20  and  C_22
   13  A    between atoms: C_22  and  N_29
   14  A    between atoms: N_29  and  C_61
   15  A    between atoms: C_32  and  C_59
   16  A    between atoms: C_34  and  C_35
   17  A    between atoms: C_36  and  C_38
   18  A    between atoms: C_36  and  C_50
   19  A    between atoms: C_39  and  C_62
   20  A    between atoms: C_50  and  C_61
   21  A    between atoms: C_54  and  C_58
                            x       y       z     vdW  Elec       q    Type
                         _______ _______ _______ _____ _____    ______ ____

>  <TORSDO>
F 21

$$$$
=
 OpenBabel10222418393D

 66 75  0  0  1  0  0  0  0  0999 V2000
  189.9070  177.3480  140.4560 C   0  0  2  0  0  3  0  0  0  0  0  0
  190.4230  176.4210  139.4680 N   0  0  0  0  0  0  0  0  0  0  0  0
  188.5140  179.3950  140.8310 C   0  0  0  0  0  1  0  0  0  0  0  0
  186.0040  178.2150  137.7510 C   0  0  0  0  0  0  0  0  0  0  0  0
  189.1490  178.4940  139.7710 C   0  0  2  0  0  3  0  0  0  0  0  0
  186.2050  177.0610  136.9900 C   0  0  0  0  0  0  0  0  0  0  0  0
  190.1810  175.2890  137.4490 O   0  0  0  0  0  0  0  0  0  0  0  0
  192.2490  177.2640  140.2470 C   0  0  0  0  0  2  0  0  0  0  0  0
  191.7330  176.1150  139.6080 O   0  0  0  0  0  0  0  0  0  0  0  0
  184.8720  178.9490  137.6230 F   0  0  0  0  0  0  0  0  0  0  0  0
  189.7010  176.1150  138.2710 C   0  0  0  0  0  0  0  0  0  0  0  0
  186.9410  178.6350  138.6370 N   0  0  0  0  0  0  0  0  0  0  0  0
  187.4060  176.3220  137.1540 C   0  0  0  0  0  0  0  0  0  0  0  0
  188.1130  177.9600  138.8120 C   0  0  0  0  0  0  0  0  0  0  0  0
  188.4010  176.8120  138.0270 C   0  0  0  0  0  0  0  0  0  0  0  0
  191.1450  177.8630  141.1310 C   0  0  2  0  0  3  0  0  0  0  0  0
  185.1340  176.6570  136.0220 C   0  0  0  0  0  2  0  0  0  0  0  0
  183.8820  176.4130  136.7290 N   0  0  0  0  0  2  0  0  0  0  0  0
  182.8710  177.1320  135.9890 C   0  0  0  0  0  2  0  0  0  0  0  0
  180.8650  175.8860  136.7340 C   0  0  0  0  0  1  0  0  0  0  0  0
  181.5650  177.2290  136.7920 C   0  0  2  0  0  3  0  0  0  0  0  0
  180.6560  178.2790  136.1730 C   0  0  0  0  0  2  0  0  0  0  0  0
  180.1520  179.2340  137.2390 C   0  0  0  0  0  2  0  0  0  0  0  0
  181.3090  179.9020  137.9800 C   0  0  0  0  0  2  0  0  0  0  0  0
  180.9880  180.0620  139.4580 C   0  0  0  0  0  2  0  0  0  0  0  0
  180.3780  178.7820  140.0240 C   0  0  0  0  0  2  0  0  0  0  0  0
  182.6480  178.0240  139.8580 F   0  0  0  0  0  0  0  0  0  0  0  0
  181.7600  178.2580  141.9100 F   0  0  0  0  0  0  0  0  0  0  0  0
  181.5000  177.8890  140.6000 C   0  0  0  0  0  3  0  0  0  0  0  0
  191.2160  177.2270  142.5310 C   0  0  0  0  0  2  0  0  0  0  0  0
  190.6640  178.1260  143.6660 C   0  0  1  0  0  3  0  0  0  0  0  0
  190.0960  175.8220  146.5230 C   0  0  0  0  0  2  0  0  0  0  0  0
  191.8420  176.5410  145.0790 O   0  0  0  0  0  0  0  0  0  0  0  0
  189.5650  176.7850  145.5010 C   0  0  2  0  0  3  0  0  0  0  0  0
  190.8190  177.4970  145.0530 C   0  0  2  0  0  3  0  0  0  0  0  0
  191.5900  175.7290  146.2100 C   0  0  1  0  0  3  0  0  0  0  0  0
  192.4000  176.2160  147.4050 C   0  0  0  0  0  2  0  0  0  0  0  0
  193.2530  175.2260  147.8860 O   0  0  0  0  0  1  0  0  0  0  0  0
  188.6140  177.7250  146.1050 N   0  0  0  0  0  2  0  0  0  0  0  0
  186.4280  176.8640  146.2080 O   0  0  0  0  0  0  0  0  0  0  0  0
  186.0940  177.6150  147.3530 C   0  0  0  0  0  2  0  0  0  0  0  0
  185.1040  178.6830  146.9680 C   0  0  0  0  0  2  0  0  0  0  0  0
  187.2960  177.6490  145.4240 C   0  0  1  0  0  0  0  0  0  0  0  0
  186.8190  178.9830  145.1670 O   0  0  0  0  0  0  0  0  0  0  0  0
  185.4650  179.2210  145.5860 C   0  0  1  0  0  3  0  0  0  0  0  0
  184.5550  178.8240  144.6290 O   0  0  0  0  0  1  0  0  0  0  0  0
  187.3680  177.7880  142.9640 O   0  0  0  0  0  1  0  0  0  0  0  0
  186.5820  175.8830  143.9290 O   0  0  0  0  0  1  0  0  0  0  0  0
  187.4900  176.9340  144.0650 C   0  0  0  0  0  3  0  0  0  0  0  0
  192.3890  179.6230  144.4110 O   0  0  0  0  0  1  0  0  0  0  0  0
  191.2610  179.5180  143.5990 C   0  0  0  0  0  2  0  0  0  0  0  0
  187.4870  174.9270  136.5990 C   0  0  0  0  0  2  0  0  0  0  0  0
  186.3090  172.8040  136.2520 C   0  0  1  0  0  3  0  0  0  0  0  0
  186.5130  173.9480  137.2540 C   0  0  2  0  0  3  0  0  0  0  0  0
  183.8470  173.2390  136.5090 C   0  0  2  0  0  3  0  0  0  0  0  0
  183.8100  171.7690  136.9140 C   0  0  2  0  0  3  0  0  0  0  0  0
  185.9900  171.7110  137.0630 O   0  0  0  0  0  0  0  0  0  0  0  0
  183.2740  173.3440  135.2140 O   0  0  0  0  0  0  0  0  0  0  0  0
  181.4090  171.9630  135.9320 C   0  0  2  0  0  3  0  0  0  0  0  0
  184.9880  171.0980  136.4910 O   0  0  0  0  0  0  0  0  0  0  0  0
  185.2520  173.9160  136.3280 C   0  0  2  0  0  3  0  0  0  0  0  0
  182.5620  172.1590  134.9430 C   0  0  2  0  0  3  0  0  0  0  0  0
  182.7070  171.1810  136.0620 C   0  0  1  0  0  3  0  0  0  0  0  0
  180.4110  171.0480  135.2890 C   0  0  2  0  0  3  0  0  0  0  0  0
  179.0850  171.6900  135.2910 C   0  0  0  0  0  2  0  0  0  0  0  0
  179.3980  170.6760  136.2000 O   0  0  0  0  0  0  0  0  0  0  0  0
  1  2  1  6  0  0  0
  1 16  1  0  0  0  0
  2  9  1  0  0  0  0
  4 12  1  0  0  0  0
  5  1  1  0  0  0  0
  5  3  1  1  0  0  0
  6 13  1  0  0  0  0
  6  4  2  0  0  0  0
  7 11  2  0  0  0  0
  8 16  1  0  0  0  0
  9  8  1  0  0  0  0
 10  4  1  0  0  0  0
 11  2  1  0  0  0  0
 12 14  2  0  0  0  0
 13 15  2  0  0  0  0
 14  5  1  0  0  0  0
 15 11  1  0  0  0  0
 15 14  1  0  0  0  0
 16 30  1  1  0  0  0
 17 18  1  0  0  0  0
 17  6  1  0  0  0  0
 19 18  1  0  0  0  0
 19 21  1  0  0  0  0
 21 20  1  6  0  0  0
 22 21  1  0  0  0  0
 22 23  1  0  0  0  0
 23 24  1  0  0  0  0
 24 25  1  0  0  0  0
 25 26  1  0  0  0  0
 26 29  1  0  0  0  0
 27 29  1  0  0  0  0
 29 28  1  0  0  0  0
 31 30  1  6  0  0  0
 33 36  1  0  0  0  0
 34 39  1  1  0  0  0
 34 32  1  0  0  0  0
 35 31  1  6  0  0  0
 35 33  1  0  0  0  0
 35 34  1  0  0  0  0
 36 32  1  0  0  0  0
 36 37  1  1  0  0  0
 37 38  1  0  0  0  0
 40 41  1  0  0  0  0
 42 41  1  0  0  0  0
 43 49  1  6  0  0  0
 43 39  1  0  0  0  0
 43 40  1  0  0  0  0
 44 43  1  0  0  0  0
 44 45  1  0  0  0  0
 45 46  1  6  0  0  0
 45 42  1  0  0  0  0
 47 49  1  0  0  0  0
 48 49  1  0  0  0  0
 51 31  1  0  0  0  0
 51 50  1  0  0  0  0
 52 13  1  0  0  0  0
 53 61  1  0  0  0  0
 53 57  1  1  0  0  0
 53 54  1  0  0  0  0
 54 52  1  6  0  0  0
 55 58  1  6  0  0  0
 55 56  1  0  0  0  0
 56 60  1  6  0  0  0
 59 64  1  6  0  0  0
 59 63  1  0  0  0  0
 60 57  1  0  0  0  0
 61 55  1  0  0  0  0
 61 54  1  0  0  0  0
 62 58  1  0  0  0  0
 62 59  1  0  0  0  0
 62 63  1  0  0  0  0
 63 56  1  0  0  0  0
 64 65  1  0  0  0  0
 64 66  1  0  0  0  0
 65 66  1  0  0  0  0
M  END
>  <MODEL>
7

>  <REMARK>
 VINA RESULT:      -4.4      4.413      8.751
  Name = 
  21 active torsions:
  status: ('A' for Active; 'I' for Inactive)
    1  A    between atoms: C_3  and  C_9
    2  A    between atoms: C_3  and  C_66
    3  A    between atoms: C_5  and  C_58
    4  A    between atoms: C_6  and  C_37
    5  A    between atoms: C_6  and  C_46
    6  A    between atoms: C_9  and  C_45
    7  A    between atoms: C_9  and  C_60
    8  A    between atoms: N_10  and  C_28
    9  A    between atoms: N_10  and  C_32
   10  A    between atoms: C_13  and  C_37
   11  A    between atoms: C_13  and  C_38
   12  A    between atoms: C_20  and  C_22
   13  A    between atoms: C_22  and  N_29
   14  A    between atoms: N_29  and  C_61
   15  A    between atoms: C_32  and  C_59
   16  A    between atoms: C_34  and  C_35
   17  A    between atoms: C_36  and  C_38
   18  A    between atoms: C_36  and  C_50
   19  A    between atoms: C_39  and  C_62
   20  A    between atoms: C_50  and  C_61
   21  A    between atoms: C_54  and  C_58
                            x       y       z     vdW  Elec       q    Type
                         _______ _______ _______ _____ _____    ______ ____

>  <TORSDO>
F 21

$$$$
=
 OpenBabel10222418393D

 66 75  0  0  1  0  0  0  0  0999 V2000
  182.4280  177.2410  138.1710 C   0  0  2  0  0  3  0  0  0  0  0  0
  181.8810  178.0190  139.2640 N   0  0  0  0  0  0  0  0  0  0  0  0
  184.3170  177.0200  136.5420 C   0  0  0  0  0  1  0  0  0  0  0  0
  186.9280  178.4590  139.4210 C   0  0  0  0  0  0  0  0  0  0  0  0
  183.6910  177.9130  137.6140 C   0  0  2  0  0  3  0  0  0  0  0  0
  186.5260  178.8540  140.6990 C   0  0  0  0  0  0  0  0  0  0  0  0
  182.2010  179.3660  141.1350 O   0  0  0  0  0  0  0  0  0  0  0  0
  180.3430  178.2540  137.7710 C   0  0  0  0  0  2  0  0  0  0  0  0
  180.5570  178.2820  139.1670 O   0  0  0  0  0  0  0  0  0  0  0  0
  188.2400  178.3810  139.0930 F   0  0  0  0  0  0  0  0  0  0  0  0
  182.7220  178.7170  140.1890 C   0  0  0  0  0  0  0  0  0  0  0  0
  186.0120  178.1480  138.4710 N   0  0  0  0  0  0  0  0  0  0  0  0
  185.1410  178.9250  141.0010 C   0  0  0  0  0  0  0  0  0  0  0  0
  184.6730  178.2180  138.7180 C   0  0  0  0  0  0  0  0  0  0  0  0
  184.2010  178.6680  139.9800 C   0  0  0  0  0  0  0  0  0  0  0  0
  181.3280  177.2540  137.1490 C   0  0  2  0  0  3  0  0  0  0  0  0
  187.5900  179.1940  141.7010 C   0  0  0  0  0  2  0  0  0  0  0  0
  188.9110  179.0360  141.1060 N   0  0  0  0  0  2  0  0  0  0  0  0
  189.6780  178.2710  142.0600 C   0  0  0  0  0  2  0  0  0  0  0  0
  190.4780  175.9770  142.5420 C   0  0  0  0  0  1  0  0  0  0  0  0
  190.2020  176.9700  141.4310 C   0  0  2  0  0  3  0  0  0  0  0  0
  191.4990  177.2430  140.6880 C   0  0  0  0  0  2  0  0  0  0  0  0
  191.2300  177.4230  139.2060 C   0  0  0  0  0  2  0  0  0  0  0  0
  191.9760  176.3820  138.3730 C   0  0  0  0  0  2  0  0  0  0  0  0
  191.0550  175.7540  137.3370 C   0  0  0  0  0  2  0  0  0  0  0  0
  191.3260  176.3290  135.9490 C   0  0  0  0  0  2  0  0  0  0  0  0
  189.4130  175.3260  134.9040 F   0  0  0  0  0  0  0  0  0  0  0  0
  189.1190  177.2590  136.0130 F   0  0  0  0  0  0  0  0  0  0  0  0
  189.9860  176.5380  135.2080 C   0  0  0  0  0  3  0  0  0  0  0  0
  180.6860  175.8540  137.1320 C   0  0  0  0  0  2  0  0  0  0  0  0
  181.0510  175.0030  135.8890 C   0  0  1  0  0  3  0  0  0  0  0  0
  181.4000  171.5090  137.1000 C   0  0  0  0  0  2  0  0  0  0  0  0
  179.8330  173.2960  137.1140 O   0  0  0  0  0  0  0  0  0  0  0  0
  181.9840  172.7210  136.4320 C   0  0  2  0  0  3  0  0  0  0  0  0
  180.7490  173.5150  136.0770 C   0  0  2  0  0  3  0  0  0  0  0  0
  179.9890  171.9430  137.4960 C   0  0  1  0  0  3  0  0  0  0  0  0
  178.9610  171.0700  136.7860 C   0  0  0  0  0  2  0  0  0  0  0  0
  179.5690  170.0910  136.0050 O   0  0  0  0  0  1  0  0  0  0  0  0
  182.7340  172.3500  135.2270 N   0  0  0  0  0  2  0  0  0  0  0  0
  184.9830  172.7740  134.6880 O   0  0  0  0  0  0  0  0  0  0  0  0
  184.9050  174.1320  135.0570 C   0  0  0  0  0  2  0  0  0  0  0  0
  185.7020  174.3460  136.3170 C   0  0  0  0  0  2  0  0  0  0  0  0
  184.1500  172.0480  135.5620 C   0  0  1  0  0  0  0  0  0  0  0  0
  184.3740  172.3210  136.9570 O   0  0  0  0  0  0  0  0  0  0  0  0
  185.5290  173.1320  137.2260 C   0  0  1  0  0  3  0  0  0  0  0  0
  186.6810  172.3770  137.2970 O   0  0  0  0  0  1  0  0  0  0  0  0
  184.0560  169.7350  136.4060 O   0  0  0  0  0  1  0  0  0  0  0  0
  185.7350  170.3100  134.9820 O   0  0  0  0  0  1  0  0  0  0  0  0
  184.3990  170.5410  135.3160 C   0  0  0  0  0  3  0  0  0  0  0  0
  179.1190  176.0270  134.8940 O   0  0  0  0  0  1  0  0  0  0  0  0
  180.4080  175.5640  134.6350 C   0  0  0  0  0  2  0  0  0  0  0  0
  184.7100  179.0230  142.4380 C   0  0  0  0  0  2  0  0  0  0  0  0
  185.4960  178.4610  144.6930 C   0  0  1  0  0  3  0  0  0  0  0  0
  185.2070  177.8670  143.3080 C   0  0  2  0  0  3  0  0  0  0  0  0
  187.7770  177.4260  144.4760 C   0  0  2  0  0  3  0  0  0  0  0  0
  187.3900  176.7340  145.7800 C   0  0  2  0  0  3  0  0  0  0  0  0
  185.3130  177.3780  145.5580 O   0  0  0  0  0  0  0  0  0  0  0  0
  188.7470  178.4140  144.7830 O   0  0  0  0  0  0  0  0  0  0  0  0
  189.9690  176.7940  146.1190 C   0  0  2  0  0  3  0  0  0  0  0  0
  186.3070  177.4040  146.4070 O   0  0  0  0  0  0  0  0  0  0  0  0
  186.6670  178.2430  143.7230 C   0  0  2  0  0  3  0  0  0  0  0  0
  189.2620  178.1510  146.0690 C   0  0  2  0  0  3  0  0  0  0  0  0
  188.5730  176.9830  146.6910 C   0  0  1  0  0  3  0  0  0  0  0  0
  190.9220  176.8220  147.2750 C   0  0  2  0  0  3  0  0  0  0  0  0
  192.2330  176.3090  146.8430 C   0  0  0  0  0  2  0  0  0  0  0  0
  191.3650  175.5220  147.6030 O   0  0  0  0  0  0  0  0  0  0  0  0
  1  2  1  1  0  0  0
  2 11  1  0  0  0  0
  4  6  1  0  0  0  0
  5  3  1  6  0  0  0
  5  1  1  0  0  0  0
  5 14  1  0  0  0  0
  6 13  2  0  0  0  0
  6 17  1  0  0  0  0
  8  9  1  0  0  0  0
  9  2  1  0  0  0  0
 10  4  1  0  0  0  0
 11  7  2  0  0  0  0
 12 14  1  0  0  0  0
 12  4  2  0  0  0  0
 13 52  1  0  0  0  0
 14 15  2  0  0  0  0
 15 11  1  0  0  0  0
 15 13  1  0  0  0  0
 16 30  1  1  0  0  0
 16  8  1  0  0  0  0
 16  1  1  0  0  0  0
 18 17  1  0  0  0  0
 18 19  1  0  0  0  0
 21 19  1  0  0  0  0
 21 20  1  1  0  0  0
 22 21  1  0  0  0  0
 23 22  1  0  0  0  0
 24 23  1  0  0  0  0
 25 24  1  0  0  0  0
 26 25  1  0  0  0  0
 27 29  1  0  0  0  0
 29 26  1  0  0  0  0
 29 28  1  0  0  0  0
 31 51  1  6  0  0  0
 31 30  1  0  0  0  0
 32 36  1  0  0  0  0
 33 36  1  0  0  0  0
 34 39  1  6  0  0  0
 34 32  1  0  0  0  0
 35 31  1  1  0  0  0
 35 34  1  0  0  0  0
 35 33  1  0  0  0  0
 36 37  1  6  0  0  0
 38 37  1  0  0  0  0
 40 41  1  0  0  0  0
 40 43  1  0  0  0  0
 41 42  1  0  0  0  0
 42 45  1  0  0  0  0
 43 39  1  6  0  0  0
 43 44  1  0  0  0  0
 44 45  1  0  0  0  0
 45 46  1  6  0  0  0
 48 49  1  0  0  0  0
 49 43  1  0  0  0  0
 49 47  1  0  0  0  0
 51 50  1  0  0  0  0
 53 57  1  1  0  0  0
 54 52  1  6  0  0  0
 54 61  1  0  0  0  0
 54 53  1  0  0  0  0
 55 58  1  1  0  0  0
 55 56  1  0  0  0  0
 56 60  1  1  0  0  0
 56 63  1  0  0  0  0
 57 60  1  0  0  0  0
 58 62  1  0  0  0  0
 59 63  1  0  0  0  0
 59 64  1  1  0  0  0
 61 55  1  0  0  0  0
 61 53  1  0  0  0  0
 62 59  1  0  0  0  0
 62 63  1  0  0  0  0
 64 66  1  0  0  0  0
 65 64  1  0  0  0  0
 65 66  1  0  0  0  0
M  END
>  <MODEL>
8

>  <REMARK>
 VINA RESULT:      -4.4      4.760     10.672
  Name = 
  21 active torsions:
  status: ('A' for Active; 'I' for Inactive)
    1  A    between atoms: C_3  and  C_9
    2  A    between atoms: C_3  and  C_66
    3  A    between atoms: C_5  and  C_58
    4  A    between atoms: C_6  and  C_37
    5  A    between atoms: C_6  and  C_46
    6  A    between atoms: C_9  and  C_45
    7  A    between atoms: C_9  and  C_60
    8  A    between atoms: N_10  and  C_28
    9  A    between atoms: N_10  and  C_32
   10  A    between atoms: C_13  and  C_37
   11  A    between atoms: C_13  and  C_38
   12  A    between atoms: C_20  and  C_22
   13  A    between atoms: C_22  and  N_29
   14  A    between atoms: N_29  and  C_61
   15  A    between atoms: C_32  and  C_59
   16  A    between atoms: C_34  and  C_35
   17  A    between atoms: C_36  and  C_38
   18  A    between atoms: C_36  and  C_50
   19  A    between atoms: C_39  and  C_62
   20  A    between atoms: C_50  and  C_61
   21  A    between atoms: C_54  and  C_58
                            x       y       z     vdW  Elec       q    Type
                         _______ _______ _______ _____ _____    ______ ____

>  <TORSDO>
F 21

$$$$
=
 OpenBabel10222418393D

 66 75  0  0  1  0  0  0  0  0999 V2000
  185.5620  178.7200  139.5400 C   0  0  2  0  0  3  0  0  0  0  0  0
  186.4590  178.1310  138.5670 N   0  0  0  0  0  0  0  0  0  0  0  0
  184.8820  178.7720  141.9510 C   0  0  0  0  0  1  0  0  0  0  0  0
  188.8330  178.1610  143.0460 C   0  0  0  0  0  0  0  0  0  0  0  0
  185.7530  178.0600  140.9140 C   0  0  2  0  0  3  0  0  0  0  0  0
  189.8720  177.9950  142.1270 C   0  0  0  0  0  0  0  0  0  0  0  0
  188.5320  177.2150  138.0340 O   0  0  0  0  0  0  0  0  0  0  0  0
  184.5450  177.4740  137.8240 C   0  0  0  0  0  2  0  0  0  0  0  0
  185.8690  177.7440  137.4130 O   0  0  0  0  0  0  0  0  0  0  0  0
  189.0840  178.2830  144.3720 F   0  0  0  0  0  0  0  0  0  0  0  0
  187.7800  177.7050  138.9190 C   0  0  0  0  0  0  0  0  0  0  0  0
  187.5410  178.1970  142.6340 N   0  0  0  0  0  0  0  0  0  0  0  0
  189.5650  177.8680  140.7470 C   0  0  0  0  0  0  0  0  0  0  0  0
  187.2060  178.0660  141.3190 C   0  0  0  0  0  0  0  0  0  0  0  0
  188.2130  177.8370  140.3440 C   0  0  0  0  0  0  0  0  0  0  0  0
  184.1990  178.4110  138.9910 C   0  0  2  0  0  3  0  0  0  0  0  0
  191.2770  177.9520  142.6490 C   0  0  0  0  0  2  0  0  0  0  0  0
  191.4430  176.8250  143.5580 N   0  0  0  0  0  2  0  0  0  0  0  0
  191.4490  177.3930  144.8860 C   0  0  0  0  0  2  0  0  0  0  0  0
  191.8430  174.9920  145.3470 C   0  0  0  0  0  1  0  0  0  0  0  0
  191.9960  176.3890  145.9130 C   0  0  2  0  0  3  0  0  0  0  0  0
  191.1960  176.4830  147.2020 C   0  0  0  0  0  2  0  0  0  0  0  0
  189.7610  176.8750  146.9050 C   0  0  0  0  0  2  0  0  0  0  0  0
  189.0660  177.4270  148.1480 C   0  0  0  0  0  2  0  0  0  0  0  0
  187.7210  178.0410  147.7910 C   0  0  0  0  0  2  0  0  0  0  0  0
  187.3080  177.6580  146.3720 C   0  0  0  0  0  2  0  0  0  0  0  0
  185.7320  179.4360  146.0380 F   0  0  0  0  0  0  0  0  0  0  0  0
  185.3790  177.4940  144.9620 F   0  0  0  0  0  0  0  0  0  0  0  0
  185.8370  178.0700  146.1350 C   0  0  0  0  0  3  0  0  0  0  0  0
  183.6100  179.7200  138.4330 C   0  0  0  0  0  2  0  0  0  0  0  0
  182.3670  180.2350  139.2020 C   0  0  1  0  0  3  0  0  0  0  0  0
  179.0510  180.2210  137.5280 C   0  0  0  0  0  2  0  0  0  0  0  0
  180.4140  181.6380  138.8640 O   0  0  0  0  0  0  0  0  0  0  0  0
  180.3180  179.5130  137.9160 C   0  0  2  0  0  3  0  0  0  0  0  0
  181.2280  180.6640  138.2730 C   0  0  2  0  0  3  0  0  0  0  0  0
  179.1900  181.6080  138.1550 C   0  0  1  0  0  3  0  0  0  0  0  0
  179.1840  182.6710  137.0640 C   0  0  0  0  0  2  0  0  0  0  0  0
  180.2300  182.4920  136.1630 O   0  0  0  0  0  1  0  0  0  0  0  0
  180.8590  178.7440  136.7890 N   0  0  0  0  0  2  0  0  0  0  0  0
  179.5390  176.8640  136.2900 O   0  0  0  0  0  0  0  0  0  0  0  0
  179.8730  176.8860  134.9210 C   0  0  0  0  0  2  0  0  0  0  0  0
  180.7570  175.7060  134.6120 C   0  0  0  0  0  2  0  0  0  0  0  0
  180.6730  177.2870  137.0100 C   0  0  1  0  0  0  0  0  0  0  0  0
  181.8870  176.5970  136.6620 O   0  0  0  0  0  0  0  0  0  0  0  0
  181.7020  175.4730  135.7870 C   0  0  1  0  0  3  0  0  0  0  0  0
  181.3770  174.3280  136.4850 O   0  0  0  0  0  1  0  0  0  0  0  0
  181.2090  176.0650  139.0830 O   0  0  0  0  0  1  0  0  0  0  0  0
  179.0590  176.7180  138.7240 O   0  0  0  0  0  1  0  0  0  0  0  0
  180.3980  177.0530  138.5150 C   0  0  0  0  0  3  0  0  0  0  0  0
  181.0450  179.8120  141.1620 O   0  0  0  0  0  1  0  0  0  0  0  0
  181.9110  179.2280  140.2400 C   0  0  0  0  0  2  0  0  0  0  0  0
  190.6670  178.0220  139.7360 C   0  0  0  0  0  2  0  0  0  0  0  0
  191.3440  175.7880  138.9830 C   0  0  1  0  0  3  0  0  0  0  0  0
  190.5670  177.0430  138.5650 C   0  0  2  0  0  3  0  0  0  0  0  0
  192.6050  176.0520  136.8240 C   0  0  2  0  0  3  0  0  0  0  0  0
  192.1040  174.6340  136.5650 C   0  0  2  0  0  3  0  0  0  0  0  0
  190.7270  174.7640  138.2580 O   0  0  0  0  0  0  0  0  0  0  0  0
  193.9940  175.9750  137.1050 O   0  0  0  0  0  0  0  0  0  0  0  0
  194.3000  174.5350  135.1740 C   0  0  2  0  0  3  0  0  0  0  0  0
  191.6840  174.0180  137.7730 O   0  0  0  0  0  0  0  0  0  0  0  0
  192.0340  176.8150  138.0730 C   0  0  2  0  0  3  0  0  0  0  0  0
  194.4650  174.7150  136.6850 C   0  0  2  0  0  3  0  0  0  0  0  0
  193.3490  173.8750  136.1600 C   0  0  1  0  0  3  0  0  0  0  0  0
  195.2720  173.4810  134.7340 C   0  0  2  0  0  3  0  0  0  0  0  0
  195.7130  172.7030  135.9040 C   0  0  0  0  0  2  0  0  0  0  0  0
  196.5370  173.6750  135.3310 O   0  0  0  0  0  0  0  0  0  0  0  0
  1  2  1  6  0  0  0
  1  5  1  0  0  0  0
  2 11  1  0  0  0  0
  4 10  1  0  0  0  0
  5 14  1  0  0  0  0
  5  3  1  1  0  0  0
  6 17  1  0  0  0  0
  6  4  2  0  0  0  0
  7 11  2  0  0  0  0
  8 16  1  0  0  0  0
  9  8  1  0  0  0  0
  9  2  1  0  0  0  0
 11 15  1  0  0  0  0
 12  4  1  0  0  0  0
 13  6  1  0  0  0  0
 14 12  2  0  0  0  0
 15 13  2  0  0  0  0
 15 14  1  0  0  0  0
 16 30  1  6  0  0  0
 16  1  1  0  0  0  0
 17 18  1  0  0  0  0
 18 19  1  0  0  0  0
 19 21  1  0  0  0  0
 21 20  1  6  0  0  0
 21 22  1  0  0  0  0
 23 22  1  0  0  0  0
 23 24  1  0  0  0  0
 25 24  1  0  0  0  0
 26 25  1  0  0  0  0
 27 29  1  0  0  0  0
 28 29  1  0  0  0  0
 29 26  1  0  0  0  0
 31 30  1  6  0  0  0
 31 51  1  0  0  0  0
 32 34  1  0  0  0  0
 32 36  1  0  0  0  0
 34 39  1  6  0  0  0
 34 35  1  0  0  0  0
 35 33  1  0  0  0  0
 35 31  1  1  0  0  0
 36 37  1  6  0  0  0
 36 33  1  0  0  0  0
 38 37  1  0  0  0  0
 40 43  1  0  0  0  0
 41 40  1  0  0  0  0
 42 41  1  0  0  0  0
 42 45  1  0  0  0  0
 43 39  1  6  0  0  0
 43 49  1  0  0  0  0
 44 43  1  0  0  0  0
 45 46  1  1  0  0  0
 45 44  1  0  0  0  0
 49 48  1  0  0  0  0
 49 47  1  0  0  0  0
 51 50  1  0  0  0  0
 52 13  1  0  0  0  0
 53 57  1  6  0  0  0
 54 53  1  0  0  0  0
 54 52  1  1  0  0  0
 55 58  1  1  0  0  0
 55 61  1  0  0  0  0
 56 55  1  0  0  0  0
 56 60  1  1  0  0  0
 59 64  1  1  0  0  0
 59 63  1  0  0  0  0
 59 62  1  0  0  0  0
 60 57  1  0  0  0  0
 61 54  1  0  0  0  0
 61 53  1  0  0  0  0
 62 58  1  0  0  0  0
 63 56  1  0  0  0  0
 63 62  1  0  0  0  0
 64 66  1  0  0  0  0
 64 65  1  0  0  0  0
 66 65  1  0  0  0  0
M  END
>  <MODEL>
9

>  <REMARK>
 VINA RESULT:      -3.9      2.885     11.205
  Name = 
  21 active torsions:
  status: ('A' for Active; 'I' for Inactive)
    1  A    between atoms: C_3  and  C_9
    2  A    between atoms: C_3  and  C_66
    3  A    between atoms: C_5  and  C_58
    4  A    between atoms: C_6  and  C_37
    5  A    between atoms: C_6  and  C_46
    6  A    between atoms: C_9  and  C_45
    7  A    between atoms: C_9  and  C_60
    8  A    between atoms: N_10  and  C_28
    9  A    between atoms: N_10  and  C_32
   10  A    between atoms: C_13  and  C_37
   11  A    between atoms: C_13  and  C_38
   12  A    between atoms: C_20  and  C_22
   13  A    between atoms: C_22  and  N_29
   14  A    between atoms: N_29  and  C_61
   15  A    between atoms: C_32  and  C_59
   16  A    between atoms: C_34  and  C_35
   17  A    between atoms: C_36  and  C_38
   18  A    between atoms: C_36  and  C_50
   19  A    between atoms: C_39  and  C_62
   20  A    between atoms: C_50  and  C_61
   21  A    between atoms: C_54  and  C_58
                            x       y       z     vdW  Elec       q    Type
                         _______ _______ _______ _____ _____    ______ ____

>  <TORSDO>
F 21

$$$$
