=
 OpenBabel10222417583D

 33 36  0  0  1  0  0  0  0  0999 V2000
  185.9930  178.0390  143.9720 C   0  0  0  0  0  0  0  0  0  0  0  0
  187.6300  178.1610  147.8140 C   0  0  0  0  0  3  0  0  0  0  0  0
  189.2470  177.1730  145.7360 C   0  0  0  0  0  0  0  0  0  0  0  0
  185.8480  178.5150  146.3120 N   0  0  0  0  0  0  0  0  0  0  0  0
  183.9490  178.9340  144.9470 C   0  0  0  0  0  3  0  0  0  0  0  0
  191.8600  176.3130  146.3920 C   0  0  0  0  0  3  0  0  0  0  0  0
  185.3650  178.0330  142.7140 C   0  0  0  0  0  3  0  0  0  0  0  0
  185.2680  178.4950  145.0910 C   0  0  0  0  0  0  0  0  0  0  0  0
  183.3320  178.9240  143.6930 C   0  0  0  0  0  0  0  0  0  0  0  0
  184.0450  178.4710  142.5760 C   0  0  0  0  0  3  0  0  0  0  0  0
  191.0260  176.8250  147.3850 C   0  0  0  0  0  3  0  0  0  0  0  0
  187.3270  177.6030  144.1350 C   0  0  0  0  0  0  0  0  0  0  0  0
  187.1210  178.1000  146.5180 C   0  0  0  0  0  0  0  0  0  0  0  0
  191.4010  176.2220  145.0790 C   0  0  0  0  0  3  0  0  0  0  0  0
  188.9240  177.7410  148.0900 C   0  0  0  0  0  3  0  0  0  0  0  0
  189.7310  177.2490  147.0710 C   0  0  0  0  0  0  0  0  0  0  0  0
  190.1100  176.6450  144.7600 C   0  0  0  0  0  3  0  0  0  0  0  0
  187.9180  177.6160  145.4400 C   0  0  0  0  0  0  0  0  0  0  0  0
  188.0860  177.1780  142.9080 C   0  0  0  0  0  2  0  0  0  0  0  0
  188.5820  178.3990  142.1490 C   0  0  0  0  0  2  0  0  0  0  0  0
  189.0050  178.0090  140.7450 C   0  0  0  0  0  2  0  0  0  0  0  0
  187.8660  178.2400  139.7670 C   0  0  0  0  0  2  0  0  0  0  0  0
  188.9590  179.6860  137.5560 O   0  0  0  0  0  0  0  0  0  0  0  0
  188.1990  177.6720  138.4690 N   0  0  0  0  0  2  0  0  0  0  0  0
  189.0920  177.7990  136.1170 C   0  0  0  0  0  1  0  0  0  0  0  0
  188.7550  178.4520  137.4090 C   0  0  0  0  0  0  0  0  0  0  0  0
  181.9810  179.3770  143.5780 N   0  0  0  0  0  2  0  0  0  0  0  0
  180.8350  178.5090  143.8080 C   0  0  0  0  0  2  0  0  0  0  0  0
  179.4490  177.2650  142.3000 O   0  0  0  0  0  1  0  0  0  0  0  0
  179.9060  178.5490  142.6060 C   0  0  2  0  0  3  0  0  0  0  0  0
  180.5950  179.1730  141.3980 C   0  0  0  0  0  2  0  0  0  0  0  0
  179.8160  180.3570  140.8430 C   0  0  0  0  0  2  0  0  0  0  0  0
  179.5120  181.2380  141.8800 O   0  0  0  0  0  1  0  0  0  0  0  0
  1 12  2  0  0  0  0
  1  8  1  0  0  0  0
  2 15  1  0  0  0  0
  3 16  1  0  0  0  0
  4 13  1  0  0  0  0
  5  8  1  0  0  0  0
  6 11  2  0  0  0  0
  7  1  1  0  0  0  0
  8  4  2  0  0  0  0
  9  5  2  0  0  0  0
 10  7  2  0  0  0  0
 10  9  1  0  0  0  0
 12 18  1  0  0  0  0
 13  2  2  0  0  0  0
 14  6  1  0  0  0  0
 16 11  1  0  0  0  0
 16 15  2  0  0  0  0
 17 14  2  0  0  0  0
 17  3  1  0  0  0  0
 18  3  2  0  0  0  0
 18 13  1  0  0  0  0
 19 12  1  0  0  0  0
 20 19  1  0  0  0  0
 21 20  1  0  0  0  0
 22 21  1  0  0  0  0
 24 22  1  0  0  0  0
 25 26  1  0  0  0  0
 26 23  2  0  0  0  0
 26 24  1  0  0  0  0
 27  9  1  0  0  0  0
 27 28  1  0  0  0  0
 30 29  1  6  0  0  0
 30 28  1  0  0  0  0
 31 30  1  0  0  0  0
 32 31  1  0  0  0  0
 32 33  1  0  0  0  0
M  END
>  <MODEL>
1

>  <REMARK>
 VINA RESULT:     -10.0      0.000      0.000
  Name = 
  10 active torsions:
  status: ('A' for Active; 'I' for Inactive)
    1  A    between atoms: C_1  and  C_19
    2  A    between atoms: C_1  and  C_26
    3  A    between atoms: C_2  and  C_12
    4  A    between atoms: C_5  and  N_24
    5  A    between atoms: C_5  and  C_30
    6  A    between atoms: N_6  and  C_25
    7  A    between atoms: C_12  and  C_30
    8  A    between atoms: C_14  and  C_19
    9  A    between atoms: C_14  and  C_25
   10  A    between atoms: C_18  and  N_24
                            x       y       z     vdW  Elec       q    Type
                         _______ _______ _______ _____ _____    ______ ____

>  <TORSDO>
F 10

$$$$
=
 OpenBabel10222417583D

 33 36  0  0  1  0  0  0  0  0999 V2000
  185.9100  178.0700  143.8850 C   0  0  0  0  0  0  0  0  0  0  0  0
  187.5840  178.1400  147.7130 C   0  0  0  0  0  3  0  0  0  0  0  0
  189.1900  177.2080  145.6020 C   0  0  0  0  0  0  0  0  0  0  0  0
  185.7830  178.5030  146.2350 N   0  0  0  0  0  0  0  0  0  0  0  0
  183.8660  178.9250  144.8960 C   0  0  0  0  0  3  0  0  0  0  0  0
  191.8190  176.3640  146.2170 C   0  0  0  0  0  3  0  0  0  0  0  0
  185.2700  178.0800  142.6340 C   0  0  0  0  0  3  0  0  0  0  0  0
  185.1920  178.4980  145.0200 C   0  0  0  0  0  0  0  0  0  0  0  0
  183.2370  178.9310  143.6490 C   0  0  0  0  0  0  0  0  0  0  0  0
  183.9440  178.5050  142.5160 C   0  0  0  0  0  3  0  0  0  0  0  0
  190.9900  176.8500  147.2270 C   0  0  0  0  0  3  0  0  0  0  0  0
  187.2500  177.6450  144.0280 C   0  0  0  0  0  0  0  0  0  0  0  0
  187.0630  178.0970  146.4200 C   0  0  0  0  0  0  0  0  0  0  0  0
  191.3480  176.2920  144.9060 C   0  0  0  0  0  3  0  0  0  0  0  0
  188.8850  177.7300  147.9680 C   0  0  0  0  0  3  0  0  0  0  0  0
  189.6870  177.2650  146.9320 C   0  0  0  0  0  0  0  0  0  0  0  0
  190.0500  176.7070  144.6070 C   0  0  0  0  0  3  0  0  0  0  0  0
  187.8540  177.6420  145.3260 C   0  0  0  0  0  0  0  0  0  0  0  0
  188.0020  177.2510  142.7860 C   0  0  0  0  0  2  0  0  0  0  0  0
  188.4110  178.4890  142.0050 C   0  0  0  0  0  2  0  0  0  0  0  0
  188.9640  178.0970  140.6470 C   0  0  0  0  0  2  0  0  0  0  0  0
  189.9430  176.9440  140.7890 C   0  0  0  0  0  2  0  0  0  0  0  0
  190.6260  175.3190  138.5380 O   0  0  0  0  0  0  0  0  0  0  0  0
  191.0880  177.1520  139.9150 N   0  0  0  0  0  2  0  0  0  0  0  0
  192.5410  176.5910  137.9340 C   0  0  0  0  0  1  0  0  0  0  0  0
  191.3660  176.3060  138.7970 C   0  0  0  0  0  0  0  0  0  0  0  0
  181.8800  179.3710  143.5540 N   0  0  0  0  0  2  0  0  0  0  0  0
  180.7460  178.4840  143.7700 C   0  0  0  0  0  2  0  0  0  0  0  0
  179.4020  177.2420  142.2230 O   0  0  0  0  0  1  0  0  0  0  0  0
  179.8170  178.5310  142.5680 C   0  0  2  0  0  3  0  0  0  0  0  0
  180.4870  179.2130  141.3800 C   0  0  0  0  0  2  0  0  0  0  0  0
  179.6830  180.4020  140.8740 C   0  0  0  0  0  2  0  0  0  0  0  0
  179.4620  181.2920  141.9240 O   0  0  0  0  0  1  0  0  0  0  0  0
  1 12  2  0  0  0  0
  1  8  1  0  0  0  0
  2 15  1  0  0  0  0
  3 16  1  0  0  0  0
  4 13  1  0  0  0  0
  5  8  1  0  0  0  0
  6 11  2  0  0  0  0
  7  1  1  0  0  0  0
  8  4  2  0  0  0  0
  9  5  2  0  0  0  0
 10  7  2  0  0  0  0
 10  9  1  0  0  0  0
 12 18  1  0  0  0  0
 13  2  2  0  0  0  0
 14  6  1  0  0  0  0
 16 11  1  0  0  0  0
 16 15  2  0  0  0  0
 17 14  2  0  0  0  0
 17  3  1  0  0  0  0
 18  3  2  0  0  0  0
 18 13  1  0  0  0  0
 19 12  1  0  0  0  0
 20 19  1  0  0  0  0
 21 22  1  0  0  0  0
 21 20  1  0  0  0  0
 23 26  2  0  0  0  0
 24 22  1  0  0  0  0
 25 26  1  0  0  0  0
 26 24  1  0  0  0  0
 27  9  1  0  0  0  0
 27 28  1  0  0  0  0
 30 29  1  6  0  0  0
 30 28  1  0  0  0  0
 31 30  1  0  0  0  0
 32 31  1  0  0  0  0
 32 33  1  0  0  0  0
M  END
>  <MODEL>
2

>  <REMARK>
 VINA RESULT:      -9.9      1.403      1.468
  Name = 
  10 active torsions:
  status: ('A' for Active; 'I' for Inactive)
    1  A    between atoms: C_1  and  C_19
    2  A    between atoms: C_1  and  C_26
    3  A    between atoms: C_2  and  C_12
    4  A    between atoms: C_5  and  N_24
    5  A    between atoms: C_5  and  C_30
    6  A    between atoms: N_6  and  C_25
    7  A    between atoms: C_12  and  C_30
    8  A    between atoms: C_14  and  C_19
    9  A    between atoms: C_14  and  C_25
   10  A    between atoms: C_18  and  N_24
                            x       y       z     vdW  Elec       q    Type
                         _______ _______ _______ _____ _____    ______ ____

>  <TORSDO>
F 10

$$$$
=
 OpenBabel10222417583D

 33 36  0  0  1  0  0  0  0  0999 V2000
  188.8480  177.4180  141.3460 C   0  0  0  0  0  0  0  0  0  0  0  0
  185.0640  179.1650  141.6530 C   0  0  0  0  0  3  0  0  0  0  0  0
  186.2420  178.1780  144.0070 C   0  0  0  0  0  0  0  0  0  0  0  0
  186.9330  178.4850  140.3860 N   0  0  0  0  0  0  0  0  0  0  0  0
  188.7260  177.8660  138.9550 C   0  0  0  0  0  3  0  0  0  0  0  0
  184.7770  178.4160  146.4150 C   0  0  0  0  0  3  0  0  0  0  0  0
  190.1180  176.8480  141.1530 C   0  0  0  0  0  3  0  0  0  0  0  0
  188.1540  177.9280  140.2300 C   0  0  0  0  0  0  0  0  0  0  0  0
  189.9890  177.2970  138.7720 C   0  0  0  0  0  0  0  0  0  0  0  0
  190.6830  176.7860  139.8770 C   0  0  0  0  0  3  0  0  0  0  0  0
  184.2420  178.9060  145.2240 C   0  0  0  0  0  3  0  0  0  0  0  0
  188.2570  177.4930  142.6270 C   0  0  0  0  0  0  0  0  0  0  0  0
  186.3240  178.5720  141.5940 C   0  0  0  0  0  0  0  0  0  0  0  0
  186.0310  177.8060  146.4150 C   0  0  0  0  0  3  0  0  0  0  0  0
  184.3860  179.2760  142.8590 C   0  0  0  0  0  3  0  0  0  0  0  0
  184.9580  178.7880  144.0290 C   0  0  0  0  0  0  0  0  0  0  0  0
  186.7490  177.6880  145.2240 C   0  0  0  0  0  3  0  0  0  0  0  0
  186.9550  178.0720  142.7700 C   0  0  0  0  0  0  0  0  0  0  0  0
  189.0510  176.9910  143.8020 C   0  0  0  0  0  2  0  0  0  0  0  0
  190.0960  178.0190  144.2060 C   0  0  0  0  0  2  0  0  0  0  0  0
  191.4010  177.3310  144.5610 C   0  0  0  0  0  2  0  0  0  0  0  0
  191.3000  176.6820  145.9310 C   0  0  0  0  0  2  0  0  0  0  0  0
  188.9540  176.2310  147.5010 O   0  0  0  0  0  0  0  0  0  0  0  0
  190.7320  177.6200  146.8870 N   0  0  0  0  0  2  0  0  0  0  0  0
  189.0480  178.3230  148.6250 C   0  0  0  0  0  1  0  0  0  0  0  0
  189.5600  177.3260  147.6490 C   0  0  0  0  0  0  0  0  0  0  0  0
  190.5460  177.2450  137.4570 N   0  0  0  0  0  2  0  0  0  0  0  0
  190.2710  176.1620  136.5240 C   0  0  0  0  0  2  0  0  0  0  0  0
  191.2310  174.2410  137.5870 O   0  0  0  0  0  1  0  0  0  0  0  0
  191.4100  175.1570  136.5480 C   0  0  2  0  0  3  0  0  0  0  0  0
  192.7590  175.8570  136.6790 C   0  0  0  0  0  2  0  0  0  0  0  0
  193.5820  175.3010  137.8320 C   0  0  0  0  0  2  0  0  0  0  0  0
  193.9280  176.3390  138.6960 O   0  0  0  0  0  1  0  0  0  0  0  0
  1 12  2  0  0  0  0
  2 15  1  0  0  0  0
  3 16  1  0  0  0  0
  3 17  1  0  0  0  0
  4 13  1  0  0  0  0
  5  8  1  0  0  0  0
  7  1  1  0  0  0  0
  8  4  2  0  0  0  0
  8  1  1  0  0  0  0
  9  5  2  0  0  0  0
  9 10  1  0  0  0  0
 10  7  2  0  0  0  0
 11  6  2  0  0  0  0
 12 18  1  0  0  0  0
 12 19  1  0  0  0  0
 13  2  2  0  0  0  0
 13 18  1  0  0  0  0
 14  6  1  0  0  0  0
 15 16  2  0  0  0  0
 16 11  1  0  0  0  0
 17 14  2  0  0  0  0
 18  3  2  0  0  0  0
 19 20  1  0  0  0  0
 20 21  1  0  0  0  0
 21 22  1  0  0  0  0
 22 24  1  0  0  0  0
 23 26  2  0  0  0  0
 24 26  1  0  0  0  0
 26 25  1  0  0  0  0
 27  9  1  0  0  0  0
 28 30  1  0  0  0  0
 28 27  1  0  0  0  0
 30 31  1  0  0  0  0
 30 29  1  1  0  0  0
 31 32  1  0  0  0  0
 32 33  1  0  0  0  0
M  END
>  <MODEL>
3

>  <REMARK>
 VINA RESULT:      -9.4      3.800      8.572
  Name = 
  10 active torsions:
  status: ('A' for Active; 'I' for Inactive)
    1  A    between atoms: C_1  and  C_19
    2  A    between atoms: C_1  and  C_26
    3  A    between atoms: C_2  and  C_12
    4  A    between atoms: C_5  and  N_24
    5  A    between atoms: C_5  and  C_30
    6  A    between atoms: N_6  and  C_25
    7  A    between atoms: C_12  and  C_30
    8  A    between atoms: C_14  and  C_19
    9  A    between atoms: C_14  and  C_25
   10  A    between atoms: C_18  and  N_24
                            x       y       z     vdW  Elec       q    Type
                         _______ _______ _______ _____ _____    ______ ____

>  <TORSDO>
F 10

$$$$
=
 OpenBabel10222417583D

 33 36  0  0  1  0  0  0  0  0999 V2000
  185.0900  178.2260  143.6320 C   0  0  0  0  0  0  0  0  0  0  0  0
  186.3870  178.6040  147.5860 C   0  0  0  0  0  3  0  0  0  0  0  0
  188.2110  177.5860  145.7050 C   0  0  0  0  0  0  0  0  0  0  0  0
  184.7270  178.8090  145.9240 N   0  0  0  0  0  0  0  0  0  0  0  0
  182.9370  179.0790  144.3860 C   0  0  0  0  0  3  0  0  0  0  0  0
  190.7900  176.8700  146.6200 C   0  0  0  0  0  3  0  0  0  0  0  0
  184.5720  178.1320  142.3290 C   0  0  0  0  0  3  0  0  0  0  0  0
  184.2550  178.7050  144.6620 C   0  0  0  0  0  0  0  0  0  0  0  0
  182.4300  178.9820  143.0870 C   0  0  0  0  0  0  0  0  0  0  0  0
  183.2530  178.5060  142.0590 C   0  0  0  0  0  3  0  0  0  0  0  0
  189.8550  177.3940  147.5120 C   0  0  0  0  0  3  0  0  0  0  0  0
  186.4200  177.8550  143.9290 C   0  0  0  0  0  0  0  0  0  0  0  0
  185.9930  178.4590  146.2570 C   0  0  0  0  0  0  0  0  0  0  0  0
  190.4490  176.6960  145.2800 C   0  0  0  0  0  3  0  0  0  0  0  0
  187.6680  178.2540  147.9900 C   0  0  0  0  0  3  0  0  0  0  0  0
  188.5770  177.7470  147.0690 C   0  0  0  0  0  0  0  0  0  0  0  0
  189.1740  177.0480  144.8320 C   0  0  0  0  0  3  0  0  0  0  0  0
  186.8960  177.9570  145.2760 C   0  0  0  0  0  0  0  0  0  0  0  0
  187.2970  177.4040  142.7930 C   0  0  0  0  0  2  0  0  0  0  0  0
  187.5940  178.5700  141.8640 C   0  0  0  0  0  2  0  0  0  0  0  0
  188.6900  178.1960  140.8840 C   0  0  0  0  0  2  0  0  0  0  0  0
  188.1370  178.1400  139.4690 C   0  0  0  0  0  2  0  0  0  0  0  0
  186.1580  177.3700  137.5560 O   0  0  0  0  0  0  0  0  0  0  0  0
  186.7550  178.5950  139.4550 N   0  0  0  0  0  2  0  0  0  0  0  0
  184.4110  178.6500  138.5340 C   0  0  0  0  0  1  0  0  0  0  0  0
  185.8120  178.1610  138.4730 C   0  0  0  0  0  0  0  0  0  0  0  0
  181.0770  179.3710  142.8360 N   0  0  0  0  0  2  0  0  0  0  0  0
  180.0160  178.4110  142.5710 C   0  0  0  0  0  2  0  0  0  0  0  0
  179.1670  179.3340  140.5290 O   0  0  0  0  0  1  0  0  0  0  0  0
  179.8390  178.2350  141.0720 C   0  0  2  0  0  3  0  0  0  0  0  0
  179.0950  176.9430  140.7530 C   0  0  0  0  0  2  0  0  0  0  0  0
  179.9660  175.9540  139.9910 C   0  0  0  0  0  2  0  0  0  0  0  0
  179.8950  174.7060  140.6060 O   0  0  0  0  0  1  0  0  0  0  0  0
  1 12  2  0  0  0  0
  1  8  1  0  0  0  0
  2 15  1  0  0  0  0
  3 16  1  0  0  0  0
  4 13  1  0  0  0  0
  5  8  1  0  0  0  0
  6 11  2  0  0  0  0
  7  1  1  0  0  0  0
  8  4  2  0  0  0  0
  9  5  2  0  0  0  0
 10  7  2  0  0  0  0
 10  9  1  0  0  0  0
 12 18  1  0  0  0  0
 13  2  2  0  0  0  0
 14  6  1  0  0  0  0
 16 11  1  0  0  0  0
 16 15  2  0  0  0  0
 17 14  2  0  0  0  0
 17  3  1  0  0  0  0
 18  3  2  0  0  0  0
 18 13  1  0  0  0  0
 19 12  1  0  0  0  0
 20 19  1  0  0  0  0
 21 20  1  0  0  0  0
 22 21  1  0  0  0  0
 23 26  2  0  0  0  0
 24 22  1  0  0  0  0
 26 25  1  0  0  0  0
 26 24  1  0  0  0  0
 27  9  1  0  0  0  0
 28 27  1  0  0  0  0
 30 29  1  1  0  0  0
 30 28  1  0  0  0  0
 31 30  1  0  0  0  0
 32 33  1  0  0  0  0
 32 31  1  0  0  0  0
M  END
>  <MODEL>
4

>  <REMARK>
 VINA RESULT:      -9.2      1.654      2.248
  Name = 
  10 active torsions:
  status: ('A' for Active; 'I' for Inactive)
    1  A    between atoms: C_1  and  C_19
    2  A    between atoms: C_1  and  C_26
    3  A    between atoms: C_2  and  C_12
    4  A    between atoms: C_5  and  N_24
    5  A    between atoms: C_5  and  C_30
    6  A    between atoms: N_6  and  C_25
    7  A    between atoms: C_12  and  C_30
    8  A    between atoms: C_14  and  C_19
    9  A    between atoms: C_14  and  C_25
   10  A    between atoms: C_18  and  N_24
                            x       y       z     vdW  Elec       q    Type
                         _______ _______ _______ _____ _____    ______ ____

>  <TORSDO>
F 10

$$$$
=
 OpenBabel10222417583D

 33 36  0  0  1  0  0  0  0  0999 V2000
  184.7510  178.2930  143.3230 C   0  0  0  0  0  0  0  0  0  0  0  0
  185.7450  178.7750  147.3530 C   0  0  0  0  0  3  0  0  0  0  0  0
  187.7180  177.7450  145.6350 C   0  0  0  0  0  0  0  0  0  0  0  0
  184.2100  178.9200  145.5690 N   0  0  0  0  0  0  0  0  0  0  0  0
  182.5360  179.1300  143.8960 C   0  0  0  0  0  3  0  0  0  0  0  0
  190.2300  177.0880  146.7550 C   0  0  0  0  0  3  0  0  0  0  0  0
  184.3330  178.1640  141.9870 C   0  0  0  0  0  3  0  0  0  0  0  0
  183.8350  178.7820  144.2780 C   0  0  0  0  0  0  0  0  0  0  0  0
  182.1290  178.9980  142.5660 C   0  0  0  0  0  0  0  0  0  0  0  0
  183.0330  178.5120  141.6120 C   0  0  0  0  0  3  0  0  0  0  0  0
  189.2260  177.6170  147.5630 C   0  0  0  0  0  3  0  0  0  0  0  0
  186.0600  177.9490  143.7260 C   0  0  0  0  0  0  0  0  0  0  0  0
  185.4530  178.5960  146.0020 C   0  0  0  0  0  0  0  0  0  0  0  0
  189.9930  176.8800  145.3970 C   0  0  0  0  0  3  0  0  0  0  0  0
  186.9970  178.4530  147.8590 C   0  0  0  0  0  3  0  0  0  0  0  0
  187.9790  177.9410  147.0190 C   0  0  0  0  0  0  0  0  0  0  0  0
  188.7500  177.2030  144.8490 C   0  0  0  0  0  3  0  0  0  0  0  0
  186.4340  178.0870  145.1020 C   0  0  0  0  0  0  0  0  0  0  0  0
  187.0250  177.4870  142.6690 C   0  0  0  0  0  2  0  0  0  0  0  0
  187.5880  178.6810  141.9140 C   0  0  0  0  0  2  0  0  0  0  0  0
  187.6260  178.3920  140.4250 C   0  0  0  0  0  2  0  0  0  0  0  0
  188.7440  177.4120  140.1050 C   0  0  0  0  0  2  0  0  0  0  0  0
  190.2240  175.8310  141.9700 O   0  0  0  0  0  0  0  0  0  0  0  0
  189.9720  177.8220  140.7700 N   0  0  0  0  0  2  0  0  0  0  0  0
  191.9300  177.4500  142.3110 C   0  0  0  0  0  1  0  0  0  0  0  0
  190.6690  176.9750  141.6860 C   0  0  0  0  0  0  0  0  0  0  0  0
  180.7940  179.3610  142.2070 N   0  0  0  0  0  2  0  0  0  0  0  0
  180.4360  179.8390  140.8790 C   0  0  0  0  0  2  0  0  0  0  0  0
  178.9950  179.2330  139.0630 O   0  0  0  0  0  1  0  0  0  0  0  0
  179.8020  178.7140  140.0780 C   0  0  2  0  0  3  0  0  0  0  0  0
  178.9970  177.7820  140.9780 C   0  0  0  0  0  2  0  0  0  0  0  0
  179.4450  176.3340  140.8480 C   0  0  0  0  0  2  0  0  0  0  0  0
  179.6520  176.0310  139.5030 O   0  0  0  0  0  1  0  0  0  0  0  0
  1 12  2  0  0  0  0
  1  8  1  0  0  0  0
  2 15  1  0  0  0  0
  3 16  1  0  0  0  0
  4 13  1  0  0  0  0
  5  8  1  0  0  0  0
  6 11  2  0  0  0  0
  7  1  1  0  0  0  0
  8  4  2  0  0  0  0
  9  5  2  0  0  0  0
 10  7  2  0  0  0  0
 10  9  1  0  0  0  0
 12 18  1  0  0  0  0
 13  2  2  0  0  0  0
 14  6  1  0  0  0  0
 16 11  1  0  0  0  0
 16 15  2  0  0  0  0
 17 14  2  0  0  0  0
 17  3  1  0  0  0  0
 18  3  2  0  0  0  0
 18 13  1  0  0  0  0
 19 12  1  0  0  0  0
 20 19  1  0  0  0  0
 21 20  1  0  0  0  0
 22 21  1  0  0  0  0
 22 24  1  0  0  0  0
 24 26  1  0  0  0  0
 26 23  2  0  0  0  0
 26 25  1  0  0  0  0
 27  9  1  0  0  0  0
 28 27  1  0  0  0  0
 30 29  1  6  0  0  0
 30 28  1  0  0  0  0
 30 31  1  0  0  0  0
 32 31  1  0  0  0  0
 33 32  1  0  0  0  0
M  END
>  <MODEL>
5

>  <REMARK>
 VINA RESULT:      -9.2      1.951      2.816
  Name = 
  10 active torsions:
  status: ('A' for Active; 'I' for Inactive)
    1  A    between atoms: C_1  and  C_19
    2  A    between atoms: C_1  and  C_26
    3  A    between atoms: C_2  and  C_12
    4  A    between atoms: C_5  and  N_24
    5  A    between atoms: C_5  and  C_30
    6  A    between atoms: N_6  and  C_25
    7  A    between atoms: C_12  and  C_30
    8  A    between atoms: C_14  and  C_19
    9  A    between atoms: C_14  and  C_25
   10  A    between atoms: C_18  and  N_24
                            x       y       z     vdW  Elec       q    Type
                         _______ _______ _______ _____ _____    ______ ____

>  <TORSDO>
F 10

$$$$
=
 OpenBabel10222417583D

 33 36  0  0  1  0  0  0  0  0999 V2000
  188.5060  177.8060  141.2510 C   0  0  0  0  0  0  0  0  0  0  0  0
  184.5900  179.0610  141.9970 C   0  0  0  0  0  3  0  0  0  0  0  0
  186.1310  178.2140  144.1910 C   0  0  0  0  0  0  0  0  0  0  0  0
  186.3800  178.6300  140.5230 N   0  0  0  0  0  0  0  0  0  0  0  0
  188.0690  178.2500  138.8960 C   0  0  0  0  0  3  0  0  0  0  0  0
  184.9190  178.2500  146.7460 C   0  0  0  0  0  3  0  0  0  0  0  0
  189.8080  177.4010  140.9110 C   0  0  0  0  0  3  0  0  0  0  0  0
  187.6370  178.2320  140.2260 C   0  0  0  0  0  0  0  0  0  0  0  0
  189.3660  177.8460  138.5680 C   0  0  0  0  0  0  0  0  0  0  0  0
  190.2340  177.4200  139.5810 C   0  0  0  0  0  3  0  0  0  0  0  0
  184.2010  178.6760  145.6300 C   0  0  0  0  0  3  0  0  0  0  0  0
  188.0530  177.7970  142.5890 C   0  0  0  0  0  0  0  0  0  0  0  0
  185.9010  178.6310  141.7910 C   0  0  0  0  0  0  0  0  0  0  0  0
  186.2310  177.8030  146.5990 C   0  0  0  0  0  3  0  0  0  0  0  0
  184.0390  179.0770  143.2700 C   0  0  0  0  0  3  0  0  0  0  0  0
  184.7910  178.6580  144.3620 C   0  0  0  0  0  0  0  0  0  0  0  0
  186.8250  177.7840  145.3360 C   0  0  0  0  0  3  0  0  0  0  0  0
  186.7120  178.2070  142.8820 C   0  0  0  0  0  0  0  0  0  0  0  0
  189.0270  177.3910  143.6610 C   0  0  0  0  0  2  0  0  0  0  0  0
  190.0350  178.5030  143.9020 C   0  0  0  0  0  2  0  0  0  0  0  0
  191.4330  177.9270  144.0300 C   0  0  0  0  0  2  0  0  0  0  0  0
  191.3660  176.4410  144.3400 C   0  0  0  0  0  2  0  0  0  0  0  0
  190.2740  176.7580  146.9630 O   0  0  0  0  0  0  0  0  0  0  0  0
  192.0650  176.1590  145.5850 N   0  0  0  0  0  2  0  0  0  0  0  0
  192.2210  175.9990  148.0940 C   0  0  0  0  0  1  0  0  0  0  0  0
  191.4540  176.3290  146.8650 C   0  0  0  0  0  0  0  0  0  0  0  0
  189.7790  177.8740  137.1990 N   0  0  0  0  0  2  0  0  0  0  0  0
  188.8840  177.5510  136.0980 C   0  0  0  0  0  2  0  0  0  0  0  0
  188.2960  175.2310  135.9830 O   0  0  0  0  0  1  0  0  0  0  0  0
  189.2220  176.1780  135.5410 C   0  0  2  0  0  3  0  0  0  0  0  0
  190.6380  175.7620  135.9260 C   0  0  0  0  0  2  0  0  0  0  0  0
  190.6740  174.3860  136.5750 C   0  0  0  0  0  2  0  0  0  0  0  0
  190.7720  174.5290  137.9580 O   0  0  0  0  0  1  0  0  0  0  0  0
  1 12  2  0  0  0  0
  2 15  1  0  0  0  0
  3 16  1  0  0  0  0
  3 17  1  0  0  0  0
  4 13  1  0  0  0  0
  5  8  1  0  0  0  0
  7  1  1  0  0  0  0
  8  4  2  0  0  0  0
  8  1  1  0  0  0  0
  9  5  2  0  0  0  0
  9 10  1  0  0  0  0
 10  7  2  0  0  0  0
 11  6  2  0  0  0  0
 12 18  1  0  0  0  0
 12 19  1  0  0  0  0
 13  2  2  0  0  0  0
 13 18  1  0  0  0  0
 14  6  1  0  0  0  0
 15 16  2  0  0  0  0
 16 11  1  0  0  0  0
 17 14  2  0  0  0  0
 18  3  2  0  0  0  0
 19 20  1  0  0  0  0
 20 21  1  0  0  0  0
 21 22  1  0  0  0  0
 22 24  1  0  0  0  0
 24 26  1  0  0  0  0
 26 23  2  0  0  0  0
 26 25  1  0  0  0  0
 27  9  1  0  0  0  0
 28 27  1  0  0  0  0
 30 31  1  0  0  0  0
 30 29  1  1  0  0  0
 30 28  1  0  0  0  0
 31 32  1  0  0  0  0
 32 33  1  0  0  0  0
M  END
>  <MODEL>
6

>  <REMARK>
 VINA RESULT:      -9.1      3.763      7.920
  Name = 
  10 active torsions:
  status: ('A' for Active; 'I' for Inactive)
    1  A    between atoms: C_1  and  C_19
    2  A    between atoms: C_1  and  C_26
    3  A    between atoms: C_2  and  C_12
    4  A    between atoms: C_5  and  N_24
    5  A    between atoms: C_5  and  C_30
    6  A    between atoms: N_6  and  C_25
    7  A    between atoms: C_12  and  C_30
    8  A    between atoms: C_14  and  C_19
    9  A    between atoms: C_14  and  C_25
   10  A    between atoms: C_18  and  N_24
                            x       y       z     vdW  Elec       q    Type
                         _______ _______ _______ _____ _____    ______ ____

>  <TORSDO>
F 10

$$$$
=
 OpenBabel10222417583D

 33 36  0  0  1  0  0  0  0  0999 V2000
  189.3030  177.2680  141.6690 C   0  0  0  0  0  0  0  0  0  0  0  0
  191.4050  176.9710  145.2680 C   0  0  0  0  0  3  0  0  0  0  0  0
  188.6530  177.5290  145.4050 C   0  0  0  0  0  0  0  0  0  0  0  0
  191.3190  176.9240  142.9120 N   0  0  0  0  0  0  0  0  0  0  0  0
  191.4200  176.8440  140.5400 C   0  0  0  0  0  3  0  0  0  0  0  0
  187.5010  177.8700  147.9660 C   0  0  0  0  0  3  0  0  0  0  0  0
  188.6750  177.3510  140.4140 C   0  0  0  0  0  3  0  0  0  0  0  0
  190.6890  177.0120  141.7200 C   0  0  0  0  0  0  0  0  0  0  0  0
  190.7870  176.9280  139.2970 C   0  0  0  0  0  0  0  0  0  0  0  0
  189.4110  177.1830  139.2380 C   0  0  0  0  0  3  0  0  0  0  0  0
  188.8590  177.5760  147.8470 C   0  0  0  0  0  3  0  0  0  0  0  0
  188.5800  177.4330  142.8710 C   0  0  0  0  0  0  0  0  0  0  0  0
  190.6670  177.0820  144.0910 C   0  0  0  0  0  0  0  0  0  0  0  0
  186.7150  178.0000  146.8210 C   0  0  0  0  0  3  0  0  0  0  0  0
  190.7970  177.1310  146.5060 C   0  0  0  0  0  3  0  0  0  0  0  0
  189.4370  177.4100  146.5850 C   0  0  0  0  0  0  0  0  0  0  0  0
  187.2880  177.8330  145.5590 C   0  0  0  0  0  3  0  0  0  0  0  0
  189.2690  177.3520  144.1240 C   0  0  0  0  0  0  0  0  0  0  0  0
  187.0940  177.6470  142.7780 C   0  0  0  0  0  2  0  0  0  0  0  0
  186.7960  178.9520  142.0580 C   0  0  0  0  0  2  0  0  0  0  0  0
  185.3190  179.2840  142.1590 C   0  0  0  0  0  2  0  0  0  0  0  0
  184.6230  179.0050  140.8380 C   0  0  0  0  0  2  0  0  0  0  0  0
  184.2850  177.6210  138.3600 O   0  0  0  0  0  0  0  0  0  0  0  0
  185.5990  178.9540  139.7600 N   0  0  0  0  0  2  0  0  0  0  0  0
  186.3950  178.2610  137.4720 C   0  0  0  0  0  1  0  0  0  0  0  0
  185.3610  178.2510  138.5390 C   0  0  0  0  0  0  0  0  0  0  0  0
  191.5610  176.7530  138.1080 N   0  0  0  0  0  2  0  0  0  0  0  0
  192.2460  175.5090  137.7880 C   0  0  0  0  0  2  0  0  0  0  0  0
  194.1120  176.6820  136.8470 O   0  0  0  0  0  1  0  0  0  0  0  0
  193.7500  175.7290  137.8020 C   0  0  2  0  0  3  0  0  0  0  0  0
  194.4990  174.4220  137.5640 C   0  0  0  0  0  2  0  0  0  0  0  0
  195.4290  174.0770  138.7190 C   0  0  0  0  0  2  0  0  0  0  0  0
  195.6490  175.2160  139.4910 O   0  0  0  0  0  1  0  0  0  0  0  0
  1  8  1  0  0  0  0
  1 12  2  0  0  0  0
  2 15  1  0  0  0  0
  3 17  1  0  0  0  0
  3 16  1  0  0  0  0
  4 13  1  0  0  0  0
  5  8  1  0  0  0  0
  7  1  1  0  0  0  0
  8  4  2  0  0  0  0
  9  5  2  0  0  0  0
 10  9  1  0  0  0  0
 10  7  2  0  0  0  0
 11  6  2  0  0  0  0
 12 18  1  0  0  0  0
 13 18  1  0  0  0  0
 13  2  2  0  0  0  0
 14  6  1  0  0  0  0
 15 16  2  0  0  0  0
 16 11  1  0  0  0  0
 17 14  2  0  0  0  0
 18  3  2  0  0  0  0
 19 12  1  0  0  0  0
 20 21  1  0  0  0  0
 20 19  1  0  0  0  0
 22 21  1  0  0  0  0
 23 26  2  0  0  0  0
 24 22  1  0  0  0  0
 25 26  1  0  0  0  0
 26 24  1  0  0  0  0
 27  9  1  0  0  0  0
 28 30  1  0  0  0  0
 28 27  1  0  0  0  0
 30 29  1  6  0  0  0
 31 30  1  0  0  0  0
 31 32  1  0  0  0  0
 32 33  1  0  0  0  0
M  END
>  <MODEL>
7

>  <REMARK>
 VINA RESULT:      -8.9      3.426      8.033
  Name = 
  10 active torsions:
  status: ('A' for Active; 'I' for Inactive)
    1  A    between atoms: C_1  and  C_19
    2  A    between atoms: C_1  and  C_26
    3  A    between atoms: C_2  and  C_12
    4  A    between atoms: C_5  and  N_24
    5  A    between atoms: C_5  and  C_30
    6  A    between atoms: N_6  and  C_25
    7  A    between atoms: C_12  and  C_30
    8  A    between atoms: C_14  and  C_19
    9  A    between atoms: C_14  and  C_25
   10  A    between atoms: C_18  and  N_24
                            x       y       z     vdW  Elec       q    Type
                         _______ _______ _______ _____ _____    ______ ____

>  <TORSDO>
F 10

$$$$
=
 OpenBabel10222417583D

 33 36  0  0  1  0  0  0  0  0999 V2000
  189.1730  177.3250  141.5710 C   0  0  0  0  0  0  0  0  0  0  0  0
  191.3870  176.9960  145.1000 C   0  0  0  0  0  3  0  0  0  0  0  0
  188.6340  177.5160  145.3290 C   0  0  0  0  0  0  0  0  0  0  0  0
  191.2300  176.9860  142.7470 N   0  0  0  0  0  0  0  0  0  0  0  0
  191.2590  176.9460  140.3720 C   0  0  0  0  0  3  0  0  0  0  0  0
  187.5560  177.8000  147.9290 C   0  0  0  0  0  3  0  0  0  0  0  0
  188.5060  177.4200  140.3380 C   0  0  0  0  0  3  0  0  0  0  0  0
  190.5630  177.0860  141.5760 C   0  0  0  0  0  0  0  0  0  0  0  0
  190.5880  177.0430  139.1500 C   0  0  0  0  0  0  0  0  0  0  0  0
  189.2080  177.2810  139.1370 C   0  0  0  0  0  3  0  0  0  0  0  0
  188.9130  177.5250  147.7640 C   0  0  0  0  0  3  0  0  0  0  0  0
  188.4850  177.4600  142.7980 C   0  0  0  0  0  0  0  0  0  0  0  0
  190.6130  177.1160  143.9470 C   0  0  0  0  0  0  0  0  0  0  0  0
  186.7350  177.9380  146.8110 C   0  0  0  0  0  3  0  0  0  0  0  0
  190.8150  177.1280  146.3570 C   0  0  0  0  0  3  0  0  0  0  0  0
  189.4550  177.3870  146.4820 C   0  0  0  0  0  0  0  0  0  0  0  0
  187.2710  177.8000  145.5300 C   0  0  0  0  0  3  0  0  0  0  0  0
  189.2120  177.3680  144.0280 C   0  0  0  0  0  0  0  0  0  0  0  0
  186.9940  177.6560  142.7530 C   0  0  0  0  0  2  0  0  0  0  0  0
  186.6600  179.0000  142.1250 C   0  0  0  0  0  2  0  0  0  0  0  0
  185.2360  179.3980  142.4610 C   0  0  0  0  0  2  0  0  0  0  0  0
  184.3080  178.2010  142.3350 C   0  0  0  0  0  2  0  0  0  0  0  0
  182.3470  178.7310  144.3460 O   0  0  0  0  0  0  0  0  0  0  0  0
  182.9460  178.6480  142.0880 N   0  0  0  0  0  2  0  0  0  0  0  0
  180.6490  179.3830  142.8170 C   0  0  0  0  0  1  0  0  0  0  0  0
  182.0180  178.9060  143.1430 C   0  0  0  0  0  0  0  0  0  0  0  0
  191.3270  176.8970  137.9350 N   0  0  0  0  0  2  0  0  0  0  0  0
  191.9530  175.6450  137.5370 C   0  0  0  0  0  2  0  0  0  0  0  0
  194.0360  176.6630  136.9320 O   0  0  0  0  0  1  0  0  0  0  0  0
  193.4520  175.7160  137.7760 C   0  0  2  0  0  3  0  0  0  0  0  0
  194.1050  174.3510  137.5830 C   0  0  0  0  0  2  0  0  0  0  0  0
  195.4270  174.2390  138.3280 C   0  0  0  0  0  2  0  0  0  0  0  0
  195.4300  173.0740  139.0930 O   0  0  0  0  0  1  0  0  0  0  0  0
  1  8  1  0  0  0  0
  1 12  2  0  0  0  0
  2 15  1  0  0  0  0
  3 17  1  0  0  0  0
  3 16  1  0  0  0  0
  4 13  1  0  0  0  0
  5  8  1  0  0  0  0
  7  1  1  0  0  0  0
  8  4  2  0  0  0  0
  9  5  2  0  0  0  0
 10  9  1  0  0  0  0
 10  7  2  0  0  0  0
 11  6  2  0  0  0  0
 12 18  1  0  0  0  0
 13 18  1  0  0  0  0
 13  2  2  0  0  0  0
 14  6  1  0  0  0  0
 15 16  2  0  0  0  0
 16 11  1  0  0  0  0
 17 14  2  0  0  0  0
 18  3  2  0  0  0  0
 19 12  1  0  0  0  0
 20 21  1  0  0  0  0
 20 19  1  0  0  0  0
 22 21  1  0  0  0  0
 24 22  1  0  0  0  0
 24 26  1  0  0  0  0
 25 26  1  0  0  0  0
 26 23  2  0  0  0  0
 27  9  1  0  0  0  0
 28 30  1  0  0  0  0
 28 27  1  0  0  0  0
 30 29  1  6  0  0  0
 31 30  1  0  0  0  0
 31 32  1  0  0  0  0
 32 33  1  0  0  0  0
M  END
>  <MODEL>
8

>  <REMARK>
 VINA RESULT:      -8.7      3.286      8.527
  Name = 
  10 active torsions:
  status: ('A' for Active; 'I' for Inactive)
    1  A    between atoms: C_1  and  C_19
    2  A    between atoms: C_1  and  C_26
    3  A    between atoms: C_2  and  C_12
    4  A    between atoms: C_5  and  N_24
    5  A    between atoms: C_5  and  C_30
    6  A    between atoms: N_6  and  C_25
    7  A    between atoms: C_12  and  C_30
    8  A    between atoms: C_14  and  C_19
    9  A    between atoms: C_14  and  C_25
   10  A    between atoms: C_18  and  N_24
                            x       y       z     vdW  Elec       q    Type
                         _______ _______ _______ _____ _____    ______ ____

>  <TORSDO>
F 10

$$$$
=
 OpenBabel10222417583D

 33 36  0  0  1  0  0  0  0  0999 V2000
  184.5910  178.1560  142.1100 C   0  0  0  0  0  0  0  0  0  0  0  0
  184.2980  178.8190  146.2260 C   0  0  0  0  0  3  0  0  0  0  0  0
  186.7710  177.9420  145.2170 C   0  0  0  0  0  0  0  0  0  0  0  0
  183.3570  178.7780  144.0640 N   0  0  0  0  0  0  0  0  0  0  0  0
  182.2440  178.7920  141.9650 C   0  0  0  0  0  3  0  0  0  0  0  0
  188.8830  177.5500  147.0570 C   0  0  0  0  0  3  0  0  0  0  0  0
  184.6010  177.9580  140.7190 C   0  0  0  0  0  3  0  0  0  0  0  0
  183.3950  178.5760  142.7290 C   0  0  0  0  0  0  0  0  0  0  0  0
  182.2630  178.5920  140.5820 C   0  0  0  0  0  0  0  0  0  0  0  0
  183.4470  178.1730  139.9610 C   0  0  0  0  0  3  0  0  0  0  0  0
  187.6430  177.9990  147.5070 C   0  0  0  0  0  3  0  0  0  0  0  0
  185.7450  177.9450  142.8970 C   0  0  0  0  0  0  0  0  0  0  0  0
  184.4370  178.5830  144.8590 C   0  0  0  0  0  0  0  0  0  0  0  0
  189.0780  177.2900  145.7010 C   0  0  0  0  0  3  0  0  0  0  0  0
  185.3650  178.6280  147.0920 C   0  0  0  0  0  3  0  0  0  0  0  0
  186.5920  178.1920  146.6040 C   0  0  0  0  0  0  0  0  0  0  0  0
  188.0320  177.4820  144.7960 C   0  0  0  0  0  3  0  0  0  0  0  0
  185.6800  178.1490  144.3130 C   0  0  0  0  0  0  0  0  0  0  0  0
  187.0160  177.5530  142.1940 C   0  0  0  0  0  2  0  0  0  0  0  0
  187.6810  178.7790  141.5900 C   0  0  0  0  0  2  0  0  0  0  0  0
  188.3190  178.4290  140.2590 C   0  0  0  0  0  2  0  0  0  0  0  0
  189.3050  177.2850  140.4300 C   0  0  0  0  0  2  0  0  0  0  0  0
  190.1760  175.5860  142.5570 O   0  0  0  0  0  0  0  0  0  0  0  0
  190.3030  177.6310  141.4310 N   0  0  0  0  0  2  0  0  0  0  0  0
  191.7430  177.1400  143.4380 C   0  0  0  0  0  1  0  0  0  0  0  0
  190.7010  176.7270  142.4630 C   0  0  0  0  0  0  0  0  0  0  0  0
  181.0700  178.8190  139.8290 N   0  0  0  0  0  2  0  0  0  0  0  0
  179.8530  179.3560  140.4200 C   0  0  0  0  0  2  0  0  0  0  0  0
  179.4120  181.3250  141.7120 O   0  0  0  0  0  1  0  0  0  0  0  0
  179.9430  180.8710  140.5030 C   0  0  2  0  0  3  0  0  0  0  0  0
  179.2320  181.5300  139.3250 C   0  0  0  0  0  2  0  0  0  0  0  0
  180.2010  182.2700  138.4140 C   0  0  0  0  0  2  0  0  0  0  0  0
  180.6690  181.3990  137.4310 O   0  0  0  0  0  1  0  0  0  0  0  0
  1  8  1  0  0  0  0
  1 12  2  0  0  0  0
  2 15  1  0  0  0  0
  3 16  1  0  0  0  0
  4 13  1  0  0  0  0
  5  8  1  0  0  0  0
  6 11  2  0  0  0  0
  7  1  1  0  0  0  0
  8  4  2  0  0  0  0
  9  5  2  0  0  0  0
 10  9  1  0  0  0  0
 10  7  2  0  0  0  0
 12 18  1  0  0  0  0
 13  2  2  0  0  0  0
 14  6  1  0  0  0  0
 16 15  2  0  0  0  0
 16 11  1  0  0  0  0
 17  3  1  0  0  0  0
 17 14  2  0  0  0  0
 18 13  1  0  0  0  0
 18  3  2  0  0  0  0
 19 12  1  0  0  0  0
 20 19  1  0  0  0  0
 21 22  1  0  0  0  0
 21 20  1  0  0  0  0
 22 24  1  0  0  0  0
 24 26  1  0  0  0  0
 26 23  2  0  0  0  0
 26 25  1  0  0  0  0
 27 28  1  0  0  0  0
 27  9  1  0  0  0  0
 28 30  1  0  0  0  0
 30 29  1  1  0  0  0
 31 30  1  0  0  0  0
 32 31  1  0  0  0  0
 33 32  1  0  0  0  0
M  END
>  <MODEL>
9

>  <REMARK>
 VINA RESULT:      -8.4      2.188      3.560
  Name = 
  10 active torsions:
  status: ('A' for Active; 'I' for Inactive)
    1  A    between atoms: C_1  and  C_19
    2  A    between atoms: C_1  and  C_26
    3  A    between atoms: C_2  and  C_12
    4  A    between atoms: C_5  and  N_24
    5  A    between atoms: C_5  and  C_30
    6  A    between atoms: N_6  and  C_25
    7  A    between atoms: C_12  and  C_30
    8  A    between atoms: C_14  and  C_19
    9  A    between atoms: C_14  and  C_25
   10  A    between atoms: C_18  and  N_24
                            x       y       z     vdW  Elec       q    Type
                         _______ _______ _______ _____ _____    ______ ____

>  <TORSDO>
F 10

$$$$
