=
 OpenBabel10222415133D

 34 37  0  0  0  0  0  0  0  0999 V2000
  188.2490  178.0630  140.6700 C   0  0  0  0  0  3  0  0  0  0  0  0
  187.1060  177.9170  138.7660 N   0  0  0  0  0  0  0  0  0  0  0  0
  187.0570  178.3220  140.0240 C   0  0  0  0  0  0  0  0  0  0  0  0
  189.0190  177.4580  139.6620 C   0  0  0  0  0  0  0  0  0  0  0  0
  184.9230  178.9400  139.3490 C   0  0  0  0  0  0  0  0  0  0  0  0
  185.8400  178.9120  140.4150 C   0  0  0  0  0  0  0  0  0  0  0  0
  188.2910  177.3750  138.4740 C   0  0  0  0  0  3  0  0  0  0  0  0
  185.6760  178.2410  138.0020 S   0  0  0  0  0  0  0  0  0  0  0  0
  191.1980  177.6100  140.5750 O   0  0  0  0  0  1  0  0  0  0  0  0
  190.8290  175.8410  139.1700 O   0  0  0  0  0  0  0  0  0  0  0  0
  190.3980  176.9840  139.8320 C   0  0  0  0  0  0  0  0  0  0  0  0
  185.5470  179.4390  141.7130 N   0  0  0  0  0  2  0  0  0  0  0  0
  184.7090  178.7530  142.6840 C   0  0  0  0  0  2  0  0  0  0  0  0
  185.5490  178.2930  143.8650 C   0  0  0  0  0  2  0  0  0  0  0  0
  185.0100  178.8470  145.1800 C   0  0  0  0  0  2  0  0  0  0  0  0
  186.0030  178.6550  146.3150 C   0  0  0  0  0  2  0  0  0  0  0  0
  186.9120  177.4750  146.0330 C   0  0  0  0  0  2  0  0  0  0  0  0
  188.2410  177.6850  146.7360 C   0  0  0  0  0  2  0  0  0  0  0  0
  189.3360  177.2660  145.8720 N   0  0  0  0  0  0  0  0  0  0  0  0
  189.1690  177.4030  144.4280 C   0  0  0  0  0  2  0  0  0  0  0  0
  190.6230  176.9250  146.4130 C   0  0  0  0  0  0  0  0  0  0  0  0
  191.6600  176.5610  145.5500 O   0  0  0  0  0  0  0  0  0  0  0  0
  190.1180  176.4710  143.6800 C   0  0  0  0  0  2  0  0  0  0  0  0
  190.8140  176.9070  147.6590 O   0  0  0  0  0  0  0  0  0  0  0  0
  191.5450  176.7440  144.1410 C   0  0  0  0  0  2  0  0  0  0  0  0
  183.5430  179.5090  139.3650 C   0  0  0  0  0  2  0  0  0  0  0  0
  181.5670  176.4870  139.9960 N   0  0  0  0  0  0  0  0  0  0  0  0
  182.6970  177.0930  139.5690 C   0  0  0  0  0  3  0  0  0  0  0  0
  179.4030  177.1370  140.9430 C   0  0  0  0  0  1  0  0  0  0  0  0
  181.2790  178.6300  140.2670 C   0  0  0  0  0  0  0  0  0  0  0  0
  182.5420  178.4620  139.7280 C   0  0  0  0  0  0  0  0  0  0  0  0
  180.7240  177.4180  140.4120 N   0  0  0  0  0  0  0  0  0  0  0  0
  180.6360  179.8210  140.6260 O   0  0  0  0  0  0  0  0  0  0  0  0
  180.2840  180.8270  139.6880 C   0  0  0  0  0  1  0  0  0  0  0  0
  2  3  1  0  0  0  0
  3  6  1  0  0  0  0
  3  1  2  0  0  0  0
  4 11  1  0  0  0  0
  4  1  1  0  0  0  0
  5 26  1  0  0  0  0
  5  6  2  0  0  0  0
  6 12  1  0  0  0  0
  7  2  1  0  0  0  0
  7  4  2  0  0  0  0
  8  2  1  0  0  0  0
  8  5  1  0  0  0  0
 10 11  2  0  0  0  0
 11  9  1  0  0  0  0
 12 13  1  0  0  0  0
 13 14  1  0  0  0  0
 14 15  1  0  0  0  0
 15 16  1  0  0  0  0
 17 16  1  0  0  0  0
 17 18  1  0  0  0  0
 19 21  1  0  0  0  0
 19 18  1  0  0  0  0
 20 19  1  0  0  0  0
 21 24  2  0  0  0  0
 22 21  1  0  0  0  0
 23 25  1  0  0  0  0
 23 20  1  0  0  0  0
 25 22  1  0  0  0  0
 26 31  1  0  0  0  0
 27 32  1  0  0  0  0
 28 31  1  0  0  0  0
 28 27  2  0  0  0  0
 30 32  1  0  0  0  0
 30 33  1  0  0  0  0
 31 30  2  0  0  0  0
 32 29  1  0  0  0  0
 34 33  1  0  0  0  0
M  END
>  <MODEL>
1

>  <REMARK>
 VINA RESULT:      -7.5      0.000      0.000
  Name = 
  12 active torsions:
  status: ('A' for Active; 'I' for Inactive)
    1  A    between atoms: N_1  and  C_14
    2  A    between atoms: O_7  and  C_25
    3  A    between atoms: C_9  and  C_12
    4  A    between atoms: C_10  and  N_13
    5  A    between atoms: C_10  and  C_22
    6  A    between atoms: N_13  and  C_30
    7  A    between atoms: C_14  and  C_15
    8  A    between atoms: C_15  and  C_29
    9  A    between atoms: C_20  and  C_21
   10  A    between atoms: C_20  and  C_26
   11  A    between atoms: C_22  and  C_33
   12  A    between atoms: C_29  and  C_33
                            x       y       z     vdW  Elec       q    Type
                         _______ _______ _______ _____ _____    ______ ____

>  <TORSDO>
F 12

$$$$
=
 OpenBabel10222415133D

 34 37  0  0  0  0  0  0  0  0999 V2000
  188.0400  178.0660  140.7790 C   0  0  0  0  0  3  0  0  0  0  0  0
  187.0440  177.9230  138.7940 N   0  0  0  0  0  0  0  0  0  0  0  0
  186.9040  178.3360  140.0430 C   0  0  0  0  0  0  0  0  0  0  0  0
  188.8770  177.4440  139.8370 C   0  0  0  0  0  0  0  0  0  0  0  0
  184.8370  178.9780  139.2030 C   0  0  0  0  0  0  0  0  0  0  0  0
  185.6700  178.9450  140.3370 C   0  0  0  0  0  0  0  0  0  0  0  0
  188.2400  177.3630  138.5970 C   0  0  0  0  0  3  0  0  0  0  0  0
  185.6810  178.2600  137.9220 S   0  0  0  0  0  0  0  0  0  0  0  0
  190.7240  176.0240  139.4230 O   0  0  0  0  0  0  0  0  0  0  0  0
  190.9800  177.5130  141.1430 O   0  0  0  0  0  1  0  0  0  0  0  0
  190.2320  176.9540  140.1140 C   0  0  0  0  0  0  0  0  0  0  0  0
  185.2860  179.4840  141.6060 N   0  0  0  0  0  2  0  0  0  0  0  0
  184.8560  178.6630  142.7270 C   0  0  0  0  0  2  0  0  0  0  0  0
  184.7130  179.5180  143.9760 C   0  0  0  0  0  2  0  0  0  0  0  0
  183.7720  178.8720  144.9870 C   0  0  0  0  0  2  0  0  0  0  0  0
  184.4940  178.5280  146.2800 C   0  0  0  0  0  2  0  0  0  0  0  0
  185.9470  178.9580  146.2090 C   0  0  0  0  0  2  0  0  0  0  0  0
  186.8040  177.9580  146.9630 C   0  0  0  0  0  2  0  0  0  0  0  0
  188.0080  177.6560  146.2010 N   0  0  0  0  0  0  0  0  0  0  0  0
  187.9110  177.6110  144.7440 C   0  0  0  0  0  2  0  0  0  0  0  0
  189.2970  177.6070  146.8340 C   0  0  0  0  0  0  0  0  0  0  0  0
  190.4340  177.3490  146.0630 O   0  0  0  0  0  0  0  0  0  0  0  0
  189.0530  176.7920  144.1490 C   0  0  0  0  0  2  0  0  0  0  0  0
  189.4090  177.7530  148.0800 O   0  0  0  0  0  0  0  0  0  0  0  0
  190.3790  177.3620  144.6390 C   0  0  0  0  0  2  0  0  0  0  0  0
  183.4670  179.5650  139.1110 C   0  0  0  0  0  2  0  0  0  0  0  0
  180.9100  177.6340  140.8900 N   0  0  0  0  0  0  0  0  0  0  0  0
  181.7200  178.7110  140.7870 C   0  0  0  0  0  3  0  0  0  0  0  0
  180.3960  175.6180  139.5970 C   0  0  0  0  0  1  0  0  0  0  0  0
  182.0200  177.4180  139.0270 C   0  0  0  0  0  0  0  0  0  0  0  0
  182.4420  178.6000  139.6080 C   0  0  0  0  0  0  0  0  0  0  0  0
  181.0990  176.8660  139.8290 N   0  0  0  0  0  0  0  0  0  0  0  0
  182.4330  176.8460  137.8170 O   0  0  0  0  0  0  0  0  0  0  0  0
  182.1010  177.3900  136.5480 C   0  0  0  0  0  1  0  0  0  0  0  0
  2  3  1  0  0  0  0
  3  6  1  0  0  0  0
  3  1  2  0  0  0  0
  4 11  1  0  0  0  0
  4  1  1  0  0  0  0
  5  6  2  0  0  0  0
  6 12  1  0  0  0  0
  7  2  1  0  0  0  0
  7  4  2  0  0  0  0
  8  2  1  0  0  0  0
  8  5  1  0  0  0  0
  9 11  2  0  0  0  0
 11 10  1  0  0  0  0
 12 13  1  0  0  0  0
 13 14  1  0  0  0  0
 14 15  1  0  0  0  0
 15 16  1  0  0  0  0
 17 16  1  0  0  0  0
 17 18  1  0  0  0  0
 19 21  1  0  0  0  0
 19 18  1  0  0  0  0
 20 19  1  0  0  0  0
 21 24  2  0  0  0  0
 22 21  1  0  0  0  0
 23 25  1  0  0  0  0
 23 20  1  0  0  0  0
 25 22  1  0  0  0  0
 26  5  1  0  0  0  0
 26 31  1  0  0  0  0
 28 27  2  0  0  0  0
 29 32  1  0  0  0  0
 30 31  2  0  0  0  0
 30 32  1  0  0  0  0
 31 28  1  0  0  0  0
 32 27  1  0  0  0  0
 33 30  1  0  0  0  0
 34 33  1  0  0  0  0
M  END
>  <MODEL>
2

>  <REMARK>
 VINA RESULT:      -7.5      1.286      1.712
  Name = 
  12 active torsions:
  status: ('A' for Active; 'I' for Inactive)
    1  A    between atoms: N_1  and  C_14
    2  A    between atoms: O_7  and  C_25
    3  A    between atoms: C_9  and  C_12
    4  A    between atoms: C_10  and  N_13
    5  A    between atoms: C_10  and  C_22
    6  A    between atoms: N_13  and  C_30
    7  A    between atoms: C_14  and  C_15
    8  A    between atoms: C_15  and  C_29
    9  A    between atoms: C_20  and  C_21
   10  A    between atoms: C_20  and  C_26
   11  A    between atoms: C_22  and  C_33
   12  A    between atoms: C_29  and  C_33
                            x       y       z     vdW  Elec       q    Type
                         _______ _______ _______ _____ _____    ______ ____

>  <TORSDO>
F 12

$$$$
=
 OpenBabel10222415133D

 34 37  0  0  0  0  0  0  0  0999 V2000
  187.9990  178.0710  141.3470 C   0  0  0  0  0  3  0  0  0  0  0  0
  187.2160  178.0220  139.2640 N   0  0  0  0  0  0  0  0  0  0  0  0
  186.9390  178.3640  140.5120 C   0  0  0  0  0  0  0  0  0  0  0  0
  188.9410  177.5160  140.4650 C   0  0  0  0  0  0  0  0  0  0  0  0
  184.9570  179.0190  139.4960 C   0  0  0  0  0  0  0  0  0  0  0  0
  185.6680  178.9360  140.7070 C   0  0  0  0  0  0  0  0  0  0  0  0
  188.4380  177.4930  139.1620 C   0  0  0  0  0  3  0  0  0  0  0  0
  185.9440  178.3870  138.2730 S   0  0  0  0  0  0  0  0  0  0  0  0
  191.3040  177.5240  140.3330 O   0  0  0  0  0  0  0  0  0  0  0  0
  190.3960  176.0240  141.8040 O   0  0  0  0  0  1  0  0  0  0  0  0
  190.2710  177.0310  140.8550 C   0  0  0  0  0  0  0  0  0  0  0  0
  185.1440  179.3980  141.9560 N   0  0  0  0  0  2  0  0  0  0  0  0
  184.4910  178.5270  142.9200 C   0  0  0  0  0  2  0  0  0  0  0  0
  184.0100  179.3370  144.1140 C   0  0  0  0  0  2  0  0  0  0  0  0
  184.3580  178.6490  145.4290 C   0  0  0  0  0  2  0  0  0  0  0  0
  185.7080  179.1080  145.9590 C   0  0  0  0  0  2  0  0  0  0  0  0
  186.6510  177.9300  146.1030 C   0  0  0  0  0  2  0  0  0  0  0  0
  187.7180  178.0050  145.0260 C   0  0  0  0  0  2  0  0  0  0  0  0
  189.0190  177.6650  145.5850 N   0  0  0  0  0  0  0  0  0  0  0  0
  189.0630  176.7890  146.7520 C   0  0  0  0  0  2  0  0  0  0  0  0
  190.2360  178.0020  144.8980 C   0  0  0  0  0  0  0  0  0  0  0  0
  191.4640  177.6290  145.4480 O   0  0  0  0  0  0  0  0  0  0  0  0
  190.3770  176.9580  147.5100 C   0  0  0  0  0  2  0  0  0  0  0  0
  190.2080  178.6670  143.8280 O   0  0  0  0  0  0  0  0  0  0  0  0
  191.5370  176.7250  146.5480 C   0  0  0  0  0  2  0  0  0  0  0  0
  183.5920  179.5890  139.2930 C   0  0  0  0  0  2  0  0  0  0  0  0
  181.1040  177.0050  140.0480 N   0  0  0  0  0  0  0  0  0  0  0  0
  181.9730  177.9620  140.4440 C   0  0  0  0  0  3  0  0  0  0  0  0
  180.3180  176.0210  137.9460 C   0  0  0  0  0  1  0  0  0  0  0  0
  181.9970  177.8380  138.2430 C   0  0  0  0  0  0  0  0  0  0  0  0
  182.5580  178.5110  139.3130 C   0  0  0  0  0  0  0  0  0  0  0  0
  181.1270  176.9390  138.7270 N   0  0  0  0  0  0  0  0  0  0  0  0
  182.2400  178.0170  136.8750 O   0  0  0  0  0  0  0  0  0  0  0  0
  183.1620  177.2250  136.1410 C   0  0  0  0  0  1  0  0  0  0  0  0
  2  3  1  0  0  0  0
  3  6  1  0  0  0  0
  3  1  2  0  0  0  0
  4 11  1  0  0  0  0
  4  1  1  0  0  0  0
  5  6  2  0  0  0  0
  6 12  1  0  0  0  0
  7  2  1  0  0  0  0
  7  4  2  0  0  0  0
  8  2  1  0  0  0  0
  8  5  1  0  0  0  0
  9 11  2  0  0  0  0
 11 10  1  0  0  0  0
 12 13  1  0  0  0  0
 13 14  1  0  0  0  0
 14 15  1  0  0  0  0
 15 16  1  0  0  0  0
 16 17  1  0  0  0  0
 18 19  1  0  0  0  0
 18 17  1  0  0  0  0
 19 20  1  0  0  0  0
 20 23  1  0  0  0  0
 21 22  1  0  0  0  0
 21 19  1  0  0  0  0
 22 25  1  0  0  0  0
 24 21  2  0  0  0  0
 25 23  1  0  0  0  0
 26 31  1  0  0  0  0
 26  5  1  0  0  0  0
 27 28  2  0  0  0  0
 29 32  1  0  0  0  0
 30 32  1  0  0  0  0
 30 31  2  0  0  0  0
 31 28  1  0  0  0  0
 32 27  1  0  0  0  0
 33 30  1  0  0  0  0
 34 33  1  0  0  0  0
M  END
>  <MODEL>
3

>  <REMARK>
 VINA RESULT:      -7.4      1.518      2.066
  Name = 
  12 active torsions:
  status: ('A' for Active; 'I' for Inactive)
    1  A    between atoms: N_1  and  C_14
    2  A    between atoms: O_7  and  C_25
    3  A    between atoms: C_9  and  C_12
    4  A    between atoms: C_10  and  N_13
    5  A    between atoms: C_10  and  C_22
    6  A    between atoms: N_13  and  C_30
    7  A    between atoms: C_14  and  C_15
    8  A    between atoms: C_15  and  C_29
    9  A    between atoms: C_20  and  C_21
   10  A    between atoms: C_20  and  C_26
   11  A    between atoms: C_22  and  C_33
   12  A    between atoms: C_29  and  C_33
                            x       y       z     vdW  Elec       q    Type
                         _______ _______ _______ _____ _____    ______ ____

>  <TORSDO>
F 12

$$$$
=
 OpenBabel10222415133D

 34 37  0  0  0  0  0  0  0  0999 V2000
  188.8710  178.0250  141.6770 C   0  0  0  0  0  3  0  0  0  0  0  0
  189.2810  177.1790  139.6590 N   0  0  0  0  0  0  0  0  0  0  0  0
  188.4160  177.8710  140.3830 C   0  0  0  0  0  0  0  0  0  0  0  0
  190.1020  177.3490  141.6530 C   0  0  0  0  0  0  0  0  0  0  0  0
  187.2870  177.8650  138.3540 C   0  0  0  0  0  0  0  0  0  0  0  0
  187.2610  178.2900  139.6950 C   0  0  0  0  0  0  0  0  0  0  0  0
  190.3470  176.8250  140.3810 C   0  0  0  0  0  3  0  0  0  0  0  0
  188.7300  177.0100  138.1100 S   0  0  0  0  0  0  0  0  0  0  0  0
  191.2090  176.0880  143.3220 O   0  0  0  0  0  1  0  0  0  0  0  0
  191.6490  178.3340  143.3170 O   0  0  0  0  0  0  0  0  0  0  0  0
  191.0080  177.2150  142.8000 C   0  0  0  0  0  0  0  0  0  0  0  0
  186.1910  179.0600  140.2520 N   0  0  0  0  0  2  0  0  0  0  0  0
  185.2240  178.5200  141.1940 C   0  0  0  0  0  2  0  0  0  0  0  0
  185.3700  179.2060  142.5430 C   0  0  0  0  0  2  0  0  0  0  0  0
  184.9750  178.2760  143.6850 C   0  0  0  0  0  2  0  0  0  0  0  0
  184.5000  179.0550  144.9010 C   0  0  0  0  0  2  0  0  0  0  0  0
  185.6060  179.1570  145.9330 C   0  0  0  0  0  2  0  0  0  0  0  0
  185.9320  177.7710  146.4590 C   0  0  0  0  0  2  0  0  0  0  0  0
  187.3440  177.6870  146.8050 N   0  0  0  0  0  0  0  0  0  0  0  0
  187.7250  177.8570  148.2040 C   0  0  0  0  0  2  0  0  0  0  0  0
  188.3190  177.2420  145.8470 C   0  0  0  0  0  0  0  0  0  0  0  0
  189.6600  177.1400  146.2250 O   0  0  0  0  0  0  0  0  0  0  0  0
  189.1910  178.2660  148.3220 C   0  0  0  0  0  2  0  0  0  0  0  0
  187.9860  176.9850  144.6590 O   0  0  0  0  0  0  0  0  0  0  0  0
  190.0510  177.2400  147.5930 C   0  0  0  0  0  2  0  0  0  0  0  0
  186.2590  178.1360  137.3050 C   0  0  0  0  0  2  0  0  0  0  0  0
  183.0980  176.4030  137.9680 N   0  0  0  0  0  0  0  0  0  0  0  0
  183.8700  177.5110  138.0090 C   0  0  0  0  0  3  0  0  0  0  0  0
  183.2860  174.0860  137.1930 C   0  0  0  0  0  1  0  0  0  0  0  0
  185.0150  175.8760  137.0740 C   0  0  0  0  0  0  0  0  0  0  0  0
  185.1000  177.2050  137.4460 C   0  0  0  0  0  0  0  0  0  0  0  0
  183.7950  175.4280  137.4060 N   0  0  0  0  0  0  0  0  0  0  0  0
  185.9850  175.0800  136.4520 O   0  0  0  0  0  0  0  0  0  0  0  0
  186.7130  174.0700  137.1340 C   0  0  0  0  0  1  0  0  0  0  0  0
  2  7  1  0  0  0  0
  2  3  1  0  0  0  0
  3  1  2  0  0  0  0
  4  1  1  0  0  0  0
  4 11  1  0  0  0  0
  5  6  2  0  0  0  0
  6 12  1  0  0  0  0
  6  3  1  0  0  0  0
  7  4  2  0  0  0  0
  8  5  1  0  0  0  0
  8  2  1  0  0  0  0
 11 10  2  0  0  0  0
 11  9  1  0  0  0  0
 12 13  1  0  0  0  0
 13 14  1  0  0  0  0
 14 15  1  0  0  0  0
 15 16  1  0  0  0  0
 16 17  1  0  0  0  0
 17 18  1  0  0  0  0
 18 19  1  0  0  0  0
 19 20  1  0  0  0  0
 20 23  1  0  0  0  0
 21 22  1  0  0  0  0
 21 19  1  0  0  0  0
 22 25  1  0  0  0  0
 24 21  2  0  0  0  0
 25 23  1  0  0  0  0
 26 31  1  0  0  0  0
 26  5  1  0  0  0  0
 27 28  2  0  0  0  0
 29 32  1  0  0  0  0
 30 32  1  0  0  0  0
 30 31  2  0  0  0  0
 31 28  1  0  0  0  0
 32 27  1  0  0  0  0
 33 30  1  0  0  0  0
 33 34  1  0  0  0  0
M  END
>  <MODEL>
4

>  <REMARK>
 VINA RESULT:      -7.4      2.708      3.810
  Name = 
  12 active torsions:
  status: ('A' for Active; 'I' for Inactive)
    1  A    between atoms: N_1  and  C_14
    2  A    between atoms: O_7  and  C_25
    3  A    between atoms: C_9  and  C_12
    4  A    between atoms: C_10  and  N_13
    5  A    between atoms: C_10  and  C_22
    6  A    between atoms: N_13  and  C_30
    7  A    between atoms: C_14  and  C_15
    8  A    between atoms: C_15  and  C_29
    9  A    between atoms: C_20  and  C_21
   10  A    between atoms: C_20  and  C_26
   11  A    between atoms: C_22  and  C_33
   12  A    between atoms: C_29  and  C_33
                            x       y       z     vdW  Elec       q    Type
                         _______ _______ _______ _____ _____    ______ ____

>  <TORSDO>
F 12

$$$$
=
 OpenBabel10222415133D

 34 37  0  0  0  0  0  0  0  0999 V2000
  185.4140  178.9620  142.7100 C   0  0  0  0  0  3  0  0  0  0  0  0
  183.3710  178.5710  141.9160 N   0  0  0  0  0  0  0  0  0  0  0  0
  184.6390  178.7590  141.5860 C   0  0  0  0  0  0  0  0  0  0  0  0
  184.4750  178.8760  143.7510 C   0  0  0  0  0  0  0  0  0  0  0  0
  183.7380  178.4620  139.4660 C   0  0  0  0  0  0  0  0  0  0  0  0
  184.9100  178.7080  140.2050 C   0  0  0  0  0  0  0  0  0  0  0  0
  183.1990  178.6290  143.2400 C   0  0  0  0  0  3  0  0  0  0  0  0
  182.4560  178.3200  140.5630 S   0  0  0  0  0  0  0  0  0  0  0  0
  183.8640  179.0910  146.0280 O   0  0  0  0  0  1  0  0  0  0  0  0
  186.1120  179.0820  145.5980 O   0  0  0  0  0  0  0  0  0  0  0  0
  184.7890  179.0210  145.1780 C   0  0  0  0  0  0  0  0  0  0  0  0
  186.1980  178.8670  139.6020 N   0  0  0  0  0  2  0  0  0  0  0  0
  187.1840  177.8000  139.5300 C   0  0  0  0  0  2  0  0  0  0  0  0
  188.5560  178.3310  139.9170 C   0  0  0  0  0  2  0  0  0  0  0  0
  188.7940  178.2090  141.4180 C   0  0  0  0  0  2  0  0  0  0  0  0
  188.8620  176.7540  141.8560 C   0  0  0  0  0  2  0  0  0  0  0  0
  188.4710  176.6190  143.3160 C   0  0  0  0  0  2  0  0  0  0  0  0
  188.8770  177.8770  144.0630 C   0  0  0  0  0  2  0  0  0  0  0  0
  189.7050  177.5320  145.2100 N   0  0  0  0  0  0  0  0  0  0  0  0
  189.0460  177.0440  146.4180 C   0  0  0  0  0  2  0  0  0  0  0  0
  191.1370  177.4690  145.1020 C   0  0  0  0  0  0  0  0  0  0  0  0
  191.8970  177.1010  146.2150 O   0  0  0  0  0  0  0  0  0  0  0  0
  189.9390  177.2370  147.6410 C   0  0  0  0  0  2  0  0  0  0  0  0
  191.7170  177.7840  144.0280 O   0  0  0  0  0  0  0  0  0  0  0  0
  191.2820  176.5630  147.3840 C   0  0  0  0  0  2  0  0  0  0  0  0
  183.6250  178.3130  137.9850 C   0  0  0  0  0  2  0  0  0  0  0  0
  185.4400  175.4900  136.5100 N   0  0  0  0  0  0  0  0  0  0  0  0
  185.2560  176.8180  136.6810 C   0  0  0  0  0  3  0  0  0  0  0  0
  184.4230  173.4000  137.2860 C   0  0  0  0  0  1  0  0  0  0  0  0
  183.7490  175.7280  137.8650 C   0  0  0  0  0  0  0  0  0  0  0  0
  184.1830  177.0000  137.5400 C   0  0  0  0  0  0  0  0  0  0  0  0
  184.5310  174.8460  137.2240 N   0  0  0  0  0  0  0  0  0  0  0  0
  182.6960  175.3540  138.7090 O   0  0  0  0  0  0  0  0  0  0  0  0
  181.3390  175.3350  138.2940 C   0  0  0  0  0  1  0  0  0  0  0  0
  1  4  1  0  0  0  0
  2  7  1  0  0  0  0
  3  2  1  0  0  0  0
  3  1  2  0  0  0  0
  4 11  1  0  0  0  0
  5  6  2  0  0  0  0
  5  8  1  0  0  0  0
  6  3  1  0  0  0  0
  7  4  2  0  0  0  0
  8  2  1  0  0  0  0
 11 10  2  0  0  0  0
 11  9  1  0  0  0  0
 12  6  1  0  0  0  0
 13 12  1  0  0  0  0
 13 14  1  0  0  0  0
 14 15  1  0  0  0  0
 15 16  1  0  0  0  0
 16 17  1  0  0  0  0
 17 18  1  0  0  0  0
 18 19  1  0  0  0  0
 19 20  1  0  0  0  0
 20 23  1  0  0  0  0
 21 19  1  0  0  0  0
 21 22  1  0  0  0  0
 22 25  1  0  0  0  0
 24 21  2  0  0  0  0
 25 23  1  0  0  0  0
 26  5  1  0  0  0  0
 27 28  2  0  0  0  0
 27 32  1  0  0  0  0
 28 31  1  0  0  0  0
 30 33  1  0  0  0  0
 31 30  2  0  0  0  0
 31 26  1  0  0  0  0
 32 29  1  0  0  0  0
 32 30  1  0  0  0  0
 34 33  1  0  0  0  0
M  END
>  <MODEL>
5

>  <REMARK>
 VINA RESULT:      -7.2      2.654      4.775
  Name = 
  12 active torsions:
  status: ('A' for Active; 'I' for Inactive)
    1  A    between atoms: N_1  and  C_14
    2  A    between atoms: O_7  and  C_25
    3  A    between atoms: C_9  and  C_12
    4  A    between atoms: C_10  and  N_13
    5  A    between atoms: C_10  and  C_22
    6  A    between atoms: N_13  and  C_30
    7  A    between atoms: C_14  and  C_15
    8  A    between atoms: C_15  and  C_29
    9  A    between atoms: C_20  and  C_21
   10  A    between atoms: C_20  and  C_26
   11  A    between atoms: C_22  and  C_33
   12  A    between atoms: C_29  and  C_33
                            x       y       z     vdW  Elec       q    Type
                         _______ _______ _______ _____ _____    ______ ____

>  <TORSDO>
F 12

$$$$
=
 OpenBabel10222415133D

 34 37  0  0  0  0  0  0  0  0999 V2000
  185.2900  178.7790  142.5510 C   0  0  0  0  0  3  0  0  0  0  0  0
  184.0270  178.5660  140.7310 N   0  0  0  0  0  0  0  0  0  0  0  0
  185.2690  178.6520  141.1770 C   0  0  0  0  0  0  0  0  0  0  0  0
  183.9250  178.7630  142.8820 C   0  0  0  0  0  0  0  0  0  0  0  0
  185.7000  178.4490  138.9040 C   0  0  0  0  0  0  0  0  0  0  0  0
  186.2660  178.5900  140.1850 C   0  0  0  0  0  0  0  0  0  0  0  0
  183.1440  178.6260  141.7320 C   0  0  0  0  0  3  0  0  0  0  0  0
  184.0160  178.4030  139.0860 S   0  0  0  0  0  0  0  0  0  0  0  0
  182.1490  178.8370  144.4450 O   0  0  0  0  0  0  0  0  0  0  0  0
  184.2550  179.0040  145.3250 O   0  0  0  0  0  1  0  0  0  0  0  0
  183.3910  178.8680  144.2450 C   0  0  0  0  0  0  0  0  0  0  0  0
  187.6770  178.6470  140.4150 N   0  0  0  0  0  2  0  0  0  0  0  0
  188.3760  177.7520  141.3240 C   0  0  0  0  0  2  0  0  0  0  0  0
  189.5980  177.1630  140.6380 C   0  0  0  0  0  2  0  0  0  0  0  0
  190.5830  176.5920  141.6530 C   0  0  0  0  0  2  0  0  0  0  0  0
  191.6480  177.6100  142.0310 C   0  0  0  0  0  2  0  0  0  0  0  0
  191.5060  178.0130  143.4860 C   0  0  0  0  0  2  0  0  0  0  0  0
  191.3240  176.7700  144.3370 C   0  0  0  0  0  2  0  0  0  0  0  0
  190.3320  177.0140  145.3750 N   0  0  0  0  0  0  0  0  0  0  0  0
  188.9300  177.1250  144.9800 C   0  0  0  0  0  2  0  0  0  0  0  0
  190.6790  176.9420  146.7680 C   0  0  0  0  0  0  0  0  0  0  0  0
  189.6920  177.1480  147.7350 O   0  0  0  0  0  0  0  0  0  0  0  0
  188.1270  177.8820  146.0340 C   0  0  0  0  0  2  0  0  0  0  0  0
  191.8700  176.7380  147.1250 O   0  0  0  0  0  0  0  0  0  0  0  0
  188.3110  177.1970  147.3830 C   0  0  0  0  0  2  0  0  0  0  0  0
  186.4300  178.3220  137.6080 C   0  0  0  0  0  2  0  0  0  0  0  0
  188.0310  175.0550  137.1630 N   0  0  0  0  0  0  0  0  0  0  0  0
  188.0840  176.3600  137.5100 C   0  0  0  0  0  3  0  0  0  0  0  0
  186.3580  173.4540  136.3650 C   0  0  0  0  0  1  0  0  0  0  0  0
  186.0230  175.8630  136.9040 C   0  0  0  0  0  0  0  0  0  0  0  0
  186.8170  176.9020  137.3540 C   0  0  0  0  0  0  0  0  0  0  0  0
  186.7920  174.7680  136.8010 N   0  0  0  0  0  0  0  0  0  0  0  0
  184.6570  175.8780  136.5990 O   0  0  0  0  0  0  0  0  0  0  0  0
  184.0990  176.6940  135.5800 C   0  0  0  0  0  1  0  0  0  0  0  0
  1  4  1  0  0  0  0
  2  3  1  0  0  0  0
  2  7  1  0  0  0  0
  3  1  2  0  0  0  0
  4 11  1  0  0  0  0
  5  8  1  0  0  0  0
  5  6  2  0  0  0  0
  6 12  1  0  0  0  0
  6  3  1  0  0  0  0
  7  4  2  0  0  0  0
  8  2  1  0  0  0  0
 11  9  2  0  0  0  0
 11 10  1  0  0  0  0
 12 13  1  0  0  0  0
 14 13  1  0  0  0  0
 14 15  1  0  0  0  0
 15 16  1  0  0  0  0
 16 17  1  0  0  0  0
 17 18  1  0  0  0  0
 18 19  1  0  0  0  0
 19 21  1  0  0  0  0
 20 19  1  0  0  0  0
 20 23  1  0  0  0  0
 21 24  2  0  0  0  0
 21 22  1  0  0  0  0
 23 25  1  0  0  0  0
 25 22  1  0  0  0  0
 26  5  1  0  0  0  0
 27 28  2  0  0  0  0
 29 32  1  0  0  0  0
 30 31  2  0  0  0  0
 31 28  1  0  0  0  0
 31 26  1  0  0  0  0
 32 30  1  0  0  0  0
 32 27  1  0  0  0  0
 33 30  1  0  0  0  0
 34 33  1  0  0  0  0
M  END
>  <MODEL>
6

>  <REMARK>
 VINA RESULT:      -7.0      2.585      5.470
  Name = 
  12 active torsions:
  status: ('A' for Active; 'I' for Inactive)
    1  A    between atoms: N_1  and  C_14
    2  A    between atoms: O_7  and  C_25
    3  A    between atoms: C_9  and  C_12
    4  A    between atoms: C_10  and  N_13
    5  A    between atoms: C_10  and  C_22
    6  A    between atoms: N_13  and  C_30
    7  A    between atoms: C_14  and  C_15
    8  A    between atoms: C_15  and  C_29
    9  A    between atoms: C_20  and  C_21
   10  A    between atoms: C_20  and  C_26
   11  A    between atoms: C_22  and  C_33
   12  A    between atoms: C_29  and  C_33
                            x       y       z     vdW  Elec       q    Type
                         _______ _______ _______ _____ _____    ______ ____

>  <TORSDO>
F 12

$$$$
=
 OpenBabel10222415133D

 34 37  0  0  0  0  0  0  0  0999 V2000
  185.7090  178.8340  142.9910 C   0  0  0  0  0  3  0  0  0  0  0  0
  183.9020  178.8020  141.6910 N   0  0  0  0  0  0  0  0  0  0  0  0
  185.2240  178.7680  141.7000 C   0  0  0  0  0  0  0  0  0  0  0  0
  184.5340  178.9140  143.7560 C   0  0  0  0  0  0  0  0  0  0  0  0
  184.8600  178.6280  139.4110 C   0  0  0  0  0  0  0  0  0  0  0  0
  185.8280  178.6690  140.4320 C   0  0  0  0  0  0  0  0  0  0  0  0
  183.4090  178.8900  142.9290 C   0  0  0  0  0  3  0  0  0  0  0  0
  183.3340  178.7110  140.1410 S   0  0  0  0  0  0  0  0  0  0  0  0
  183.4290  178.7440  145.8430 O   0  0  0  0  0  0  0  0  0  0  0  0
  185.6270  179.3770  145.9300 O   0  0  0  0  0  1  0  0  0  0  0  0
  184.4920  179.0030  145.2210 C   0  0  0  0  0  0  0  0  0  0  0  0
  187.2350  178.6020  140.1800 N   0  0  0  0  0  2  0  0  0  0  0  0
  188.2130  178.2520  141.1980 C   0  0  0  0  0  2  0  0  0  0  0  0
  189.3910  177.5290  140.5620 C   0  0  0  0  0  2  0  0  0  0  0  0
  190.2120  176.7800  141.6060 C   0  0  0  0  0  2  0  0  0  0  0  0
  191.5180  177.4980  141.9090 C   0  0  0  0  0  2  0  0  0  0  0  0
  191.5830  177.8890  143.3730 C   0  0  0  0  0  2  0  0  0  0  0  0
  191.4280  176.6470  144.2320 C   0  0  0  0  0  2  0  0  0  0  0  0
  190.5020  176.9070  145.3250 N   0  0  0  0  0  0  0  0  0  0  0  0
  189.0940  177.1200  145.0040 C   0  0  0  0  0  2  0  0  0  0  0  0
  190.9070  176.7540  146.6960 C   0  0  0  0  0  0  0  0  0  0  0  0
  189.9810  176.9780  147.7180 O   0  0  0  0  0  0  0  0  0  0  0  0
  188.3890  177.8790  146.1250 C   0  0  0  0  0  2  0  0  0  0  0  0
  192.0980  176.4620  146.9870 O   0  0  0  0  0  0  0  0  0  0  0  0
  188.5910  177.1270  147.4350 C   0  0  0  0  0  2  0  0  0  0  0  0
  185.1070  178.4990  137.9440 C   0  0  0  0  0  2  0  0  0  0  0  0
  184.4150  174.9670  137.2520 N   0  0  0  0  0  0  0  0  0  0  0  0
  184.0560  176.1630  137.7690 C   0  0  0  0  0  3  0  0  0  0  0  0
  186.3180  174.0070  136.0450 C   0  0  0  0  0  1  0  0  0  0  0  0
  186.0490  176.3500  136.8460 C   0  0  0  0  0  0  0  0  0  0  0  0
  185.0810  177.0660  137.5260 C   0  0  0  0  0  0  0  0  0  0  0  0
  185.6120  175.0910  136.7020 N   0  0  0  0  0  0  0  0  0  0  0  0
  187.2840  176.7980  136.3600 O   0  0  0  0  0  0  0  0  0  0  0  0
  188.4730  176.7860  137.1360 C   0  0  0  0  0  1  0  0  0  0  0  0
  1  4  1  0  0  0  0
  2  3  1  0  0  0  0
  2  7  1  0  0  0  0
  3  1  2  0  0  0  0
  4 11  1  0  0  0  0
  5  8  1  0  0  0  0
  5  6  2  0  0  0  0
  6  3  1  0  0  0  0
  7  4  2  0  0  0  0
  8  2  1  0  0  0  0
 11  9  2  0  0  0  0
 11 10  1  0  0  0  0
 12  6  1  0  0  0  0
 12 13  1  0  0  0  0
 14 13  1  0  0  0  0
 14 15  1  0  0  0  0
 15 16  1  0  0  0  0
 16 17  1  0  0  0  0
 17 18  1  0  0  0  0
 18 19  1  0  0  0  0
 19 21  1  0  0  0  0
 20 19  1  0  0  0  0
 20 23  1  0  0  0  0
 21 24  2  0  0  0  0
 21 22  1  0  0  0  0
 23 25  1  0  0  0  0
 25 22  1  0  0  0  0
 26  5  1  0  0  0  0
 27 28  2  0  0  0  0
 29 32  1  0  0  0  0
 30 31  2  0  0  0  0
 31 28  1  0  0  0  0
 31 26  1  0  0  0  0
 32 30  1  0  0  0  0
 32 27  1  0  0  0  0
 33 30  1  0  0  0  0
 33 34  1  0  0  0  0
M  END
>  <MODEL>
7

>  <REMARK>
 VINA RESULT:      -6.9      2.605      5.360
  Name = 
  12 active torsions:
  status: ('A' for Active; 'I' for Inactive)
    1  A    between atoms: N_1  and  C_14
    2  A    between atoms: O_7  and  C_25
    3  A    between atoms: C_9  and  C_12
    4  A    between atoms: C_10  and  N_13
    5  A    between atoms: C_10  and  C_22
    6  A    between atoms: N_13  and  C_30
    7  A    between atoms: C_14  and  C_15
    8  A    between atoms: C_15  and  C_29
    9  A    between atoms: C_20  and  C_21
   10  A    between atoms: C_20  and  C_26
   11  A    between atoms: C_22  and  C_33
   12  A    between atoms: C_29  and  C_33
                            x       y       z     vdW  Elec       q    Type
                         _______ _______ _______ _____ _____    ______ ____

>  <TORSDO>
F 12

$$$$
=
 OpenBabel10222415133D

 34 37  0  0  0  0  0  0  0  0999 V2000
  190.9300  177.0350  145.2920 C   0  0  0  0  0  3  0  0  0  0  0  0
  188.8240  177.1460  146.0040 N   0  0  0  0  0  0  0  0  0  0  0  0
  189.6180  177.2990  144.9560 C   0  0  0  0  0  0  0  0  0  0  0  0
  190.8390  176.7070  146.6550 C   0  0  0  0  0  0  0  0  0  0  0  0
  187.5840  177.8200  143.9640 C   0  0  0  0  0  0  0  0  0  0  0  0
  188.9700  177.6820  143.7660 C   0  0  0  0  0  0  0  0  0  0  0  0
  189.5130  176.7790  147.0870 C   0  0  0  0  0  3  0  0  0  0  0  0
  187.2550  177.4560  145.5860 S   0  0  0  0  0  0  0  0  0  0  0  0
  192.6320  175.2890  147.2680 O   0  0  0  0  0  0  0  0  0  0  0  0
  192.3330  177.1390  148.5820 O   0  0  0  0  0  1  0  0  0  0  0  0
  191.9760  176.3360  147.5060 C   0  0  0  0  0  0  0  0  0  0  0  0
  189.6060  177.8960  142.5020 N   0  0  0  0  0  2  0  0  0  0  0  0
  189.7820  176.8490  141.5080 C   0  0  0  0  0  2  0  0  0  0  0  0
  190.3760  177.4320  140.2360 C   0  0  0  0  0  2  0  0  0  0  0  0
  189.8380  176.7260  138.9960 C   0  0  0  0  0  2  0  0  0  0  0  0
  190.6550  177.0670  137.7600 C   0  0  0  0  0  2  0  0  0  0  0  0
  189.7430  177.3760  136.5880 C   0  0  0  0  0  2  0  0  0  0  0  0
  188.7750  178.4770  136.9820 C   0  0  0  0  0  2  0  0  0  0  0  0
  187.4030  178.0040  136.8610 N   0  0  0  0  0  0  0  0  0  0  0  0
  187.0320  177.2580  135.6610 C   0  0  0  0  0  2  0  0  0  0  0  0
  186.4900  178.0780  137.9680 C   0  0  0  0  0  0  0  0  0  0  0  0
  185.1920  177.5820  137.8250 O   0  0  0  0  0  0  0  0  0  0  0  0
  185.5230  177.3040  135.4380 C   0  0  0  0  0  2  0  0  0  0  0  0
  186.8330  178.6230  139.0510 O   0  0  0  0  0  0  0  0  0  0  0  0
  184.8210  176.7970  136.6930 C   0  0  0  0  0  2  0  0  0  0  0  0
  186.5610  178.1830  142.9390 C   0  0  0  0  0  2  0  0  0  0  0  0
  183.8180  179.3230  145.0860 N   0  0  0  0  0  0  0  0  0  0  0  0
  185.1350  179.1240  144.8550 C   0  0  0  0  0  3  0  0  0  0  0  0
  181.6970  178.9880  143.9070 C   0  0  0  0  0  1  0  0  0  0  0  0
  183.9910  178.4660  143.0890 C   0  0  0  0  0  0  0  0  0  0  0  0
  185.2760  178.5770  143.5890 C   0  0  0  0  0  0  0  0  0  0  0  0
  183.1420  178.9240  144.0210 N   0  0  0  0  0  0  0  0  0  0  0  0
  183.5790  177.9790  141.8430 O   0  0  0  0  0  0  0  0  0  0  0  0
  183.5970  178.7630  140.6590 C   0  0  0  0  0  1  0  0  0  0  0  0
  1  4  1  0  0  0  0
  2  7  1  0  0  0  0
  3  1  2  0  0  0  0
  3  2  1  0  0  0  0
  4  7  2  0  0  0  0
  4 11  1  0  0  0  0
  5  8  1  0  0  0  0
  6  5  2  0  0  0  0
  6  3  1  0  0  0  0
  8  2  1  0  0  0  0
  9 11  2  0  0  0  0
 11 10  1  0  0  0  0
 12  6  1  0  0  0  0
 13 12  1  0  0  0  0
 14 13  1  0  0  0  0
 15 14  1  0  0  0  0
 16 15  1  0  0  0  0
 17 18  1  0  0  0  0
 17 16  1  0  0  0  0
 19 18  1  0  0  0  0
 19 21  1  0  0  0  0
 20 19  1  0  0  0  0
 21 24  2  0  0  0  0
 22 21  1  0  0  0  0
 23 20  1  0  0  0  0
 23 25  1  0  0  0  0
 25 22  1  0  0  0  0
 26 31  1  0  0  0  0
 26  5  1  0  0  0  0
 28 27  2  0  0  0  0
 29 32  1  0  0  0  0
 30 31  2  0  0  0  0
 30 32  1  0  0  0  0
 31 28  1  0  0  0  0
 32 27  1  0  0  0  0
 33 30  1  0  0  0  0
 34 33  1  0  0  0  0
M  END
>  <MODEL>
8

>  <REMARK>
 VINA RESULT:      -6.9      2.860      7.394
  Name = 
  12 active torsions:
  status: ('A' for Active; 'I' for Inactive)
    1  A    between atoms: N_1  and  C_14
    2  A    between atoms: O_7  and  C_25
    3  A    between atoms: C_9  and  C_12
    4  A    between atoms: C_10  and  N_13
    5  A    between atoms: C_10  and  C_22
    6  A    between atoms: N_13  and  C_30
    7  A    between atoms: C_14  and  C_15
    8  A    between atoms: C_15  and  C_29
    9  A    between atoms: C_20  and  C_21
   10  A    between atoms: C_20  and  C_26
   11  A    between atoms: C_22  and  C_33
   12  A    between atoms: C_29  and  C_33
                            x       y       z     vdW  Elec       q    Type
                         _______ _______ _______ _____ _____    ______ ____

>  <TORSDO>
F 12

$$$$
=
 OpenBabel10222415133D

 34 37  0  0  0  0  0  0  0  0999 V2000
  185.0520  178.4030  143.6070 C   0  0  0  0  0  3  0  0  0  0  0  0
  182.9180  178.9130  143.9830 N   0  0  0  0  0  0  0  0  0  0  0  0
  183.7970  178.5660  143.0570 C   0  0  0  0  0  0  0  0  0  0  0  0
  184.8320  178.6910  144.9650 C   0  0  0  0  0  0  0  0  0  0  0  0
  181.8960  178.7180  141.7320 C   0  0  0  0  0  0  0  0  0  0  0  0
  183.2750  178.4390  141.7550 C   0  0  0  0  0  0  0  0  0  0  0  0
  183.4900  179.0070  145.1860 C   0  0  0  0  0  3  0  0  0  0  0  0
  181.4180  179.0960  143.3130 S   0  0  0  0  0  0  0  0  0  0  0  0
  186.9320  178.0160  145.8250 O   0  0  0  0  0  0  0  0  0  0  0  0
  185.6720  179.3400  147.2020 O   0  0  0  0  0  1  0  0  0  0  0  0
  185.8660  178.6600  146.0070 C   0  0  0  0  0  0  0  0  0  0  0  0
  184.0180  178.0630  140.5910 N   0  0  0  0  0  2  0  0  0  0  0  0
  184.7610  179.0110  139.7760 C   0  0  0  0  0  2  0  0  0  0  0  0
  184.6720  178.6180  138.3100 C   0  0  0  0  0  2  0  0  0  0  0  0
  185.6920  177.5390  137.9610 C   0  0  0  0  0  2  0  0  0  0  0  0
  186.9890  178.1410  137.4470 C   0  0  0  0  0  2  0  0  0  0  0  0
  188.1810  177.3620  137.9680 C   0  0  0  0  0  2  0  0  0  0  0  0
  189.0470  178.2750  138.8170 C   0  0  0  0  0  2  0  0  0  0  0  0
  189.1530  177.7480  140.1710 N   0  0  0  0  0  0  0  0  0  0  0  0
  188.1170  178.1070  141.1360 C   0  0  0  0  0  2  0  0  0  0  0  0
  190.1220  176.7400  140.5030 C   0  0  0  0  0  0  0  0  0  0  0  0
  190.1710  176.2340  141.8050 O   0  0  0  0  0  0  0  0  0  0  0  0
  188.6260  177.9420  142.5650 C   0  0  0  0  0  2  0  0  0  0  0  0
  190.9560  176.3400  139.6470 O   0  0  0  0  0  0  0  0  0  0  0  0
  189.1390  176.5180  142.7470 C   0  0  0  0  0  2  0  0  0  0  0  0
  180.9880  178.6630  140.5480 C   0  0  0  0  0  2  0  0  0  0  0  0
  178.9480  175.6240  140.7370 N   0  0  0  0  0  0  0  0  0  0  0  0
  179.1930  176.9070  141.0840 C   0  0  0  0  0  3  0  0  0  0  0  0
  179.9590  173.9000  139.3190 C   0  0  0  0  0  1  0  0  0  0  0  0
  180.7640  176.2280  139.6930 C   0  0  0  0  0  0  0  0  0  0  0  0
  180.3470  177.3190  140.4340 C   0  0  0  0  0  0  0  0  0  0  0  0
  179.8960  175.2270  139.9040 N   0  0  0  0  0  0  0  0  0  0  0  0
  181.8760  176.1200  138.8500 O   0  0  0  0  0  0  0  0  0  0  0  0
  181.8050  176.3050  137.4440 C   0  0  0  0  0  1  0  0  0  0  0  0
  1  4  1  0  0  0  0
  2  7  1  0  0  0  0
  3  1  2  0  0  0  0
  3  2  1  0  0  0  0
  4  7  2  0  0  0  0
  4 11  1  0  0  0  0
  5  6  2  0  0  0  0
  5  8  1  0  0  0  0
  6  3  1  0  0  0  0
  8  2  1  0  0  0  0
  9 11  2  0  0  0  0
 11 10  1  0  0  0  0
 12  6  1  0  0  0  0
 13 12  1  0  0  0  0
 14 13  1  0  0  0  0
 15 14  1  0  0  0  0
 16 15  1  0  0  0  0
 16 17  1  0  0  0  0
 17 18  1  0  0  0  0
 18 19  1  0  0  0  0
 19 21  1  0  0  0  0
 19 20  1  0  0  0  0
 20 23  1  0  0  0  0
 21 22  1  0  0  0  0
 22 25  1  0  0  0  0
 23 25  1  0  0  0  0
 24 21  2  0  0  0  0
 26  5  1  0  0  0  0
 27 28  2  0  0  0  0
 29 32  1  0  0  0  0
 30 32  1  0  0  0  0
 30 31  2  0  0  0  0
 31 26  1  0  0  0  0
 31 28  1  0  0  0  0
 32 27  1  0  0  0  0
 33 30  1  0  0  0  0
 34 33  1  0  0  0  0
M  END
>  <MODEL>
9

>  <REMARK>
 VINA RESULT:      -6.9      2.553      5.632
  Name = 
  12 active torsions:
  status: ('A' for Active; 'I' for Inactive)
    1  A    between atoms: N_1  and  C_14
    2  A    between atoms: O_7  and  C_25
    3  A    between atoms: C_9  and  C_12
    4  A    between atoms: C_10  and  N_13
    5  A    between atoms: C_10  and  C_22
    6  A    between atoms: N_13  and  C_30
    7  A    between atoms: C_14  and  C_15
    8  A    between atoms: C_15  and  C_29
    9  A    between atoms: C_20  and  C_21
   10  A    between atoms: C_20  and  C_26
   11  A    between atoms: C_22  and  C_33
   12  A    between atoms: C_29  and  C_33
                            x       y       z     vdW  Elec       q    Type
                         _______ _______ _______ _____ _____    ______ ____

>  <TORSDO>
F 12

$$$$
