=
 OpenBabel10222417423D

 60 65  0  0  1  0  0  0  0  0999 V2000
  186.9480  177.6310  143.0950 C   0  0  0  0  0  0  0  0  0  0  0  0
  188.8470  176.6630  142.1960 N   0  0  0  0  0  0  0  0  0  0  0  0
  188.4030  177.5900  141.4120 C   0  0  0  0  0  0  0  0  0  0  0  0
  187.2200  178.2290  141.9460 C   0  0  0  0  0  0  0  0  0  0  0  0
  189.0800  178.0090  140.2220 N   0  0  0  0  0  2  0  0  0  0  0  0
  187.9560  176.5600  143.3500 C   0  0  0  0  0  2  0  0  0  0  0  0
  190.0620  176.6000  138.5580 C   0  0  0  0  0  0  0  0  0  0  0  0
  190.1550  177.3100  139.6440 N   0  0  0  0  0  0  0  0  0  0  0  0
  192.2590  173.9320  137.0060 C   0  0  0  0  0  3  0  0  0  0  0  0
  191.2690  175.8740  138.0900 C   0  0  0  0  0  0  0  0  0  0  0  0
  193.6860  175.6540  137.9210 C   0  0  0  0  0  3  0  0  0  0  0  0
  192.5580  176.3650  138.3390 C   0  0  0  0  0  3  0  0  0  0  0  0
  191.1330  174.6440  137.4260 C   0  0  0  0  0  3  0  0  0  0  0  0
  193.5430  174.4370  137.2530 C   0  0  0  0  0  0  0  0  0  0  0  0
  196.4850  173.4380  134.9620 C   0  0  0  0  0  2  0  0  0  0  0  0
  197.2680  173.5500  137.3610 C   0  0  0  0  0  2  0  0  0  0  0  0
  197.2920  172.7430  136.0660 C   0  0  0  0  0  2  0  0  0  0  0  0
  195.3020  174.2620  135.4870 C   0  0  0  0  0  2  0  0  0  0  0  0
  195.5810  172.6470  138.7970 O   0  0  0  0  0  1  0  0  0  0  0  0
  194.7660  173.7020  136.8050 C   0  0  1  0  0  3  0  0  0  0  0  0
  195.8430  173.6860  137.9060 C   0  0  2  0  0  3  0  0  0  0  0  0
  188.5570  177.4250  136.7480 C   0  0  0  0  0  1  0  0  0  0  0  0
  188.8490  176.5810  137.8530 O   0  0  0  0  0  0  0  0  0  0  0  0
  185.8710  177.9740  143.9830 C   0  0  0  0  0  0  0  0  0  0  0  0
  184.9670  178.2560  144.7300 C   0  0  0  0  0  0  0  0  0  0  0  0
  183.8700  178.5930  145.6410 C   0  0  0  0  0  2  0  0  0  0  0  0
  182.5990  178.5520  144.9340 N   0  0  0  0  0  2  0  0  0  0  0  0
  183.1550  180.2340  143.4060 O   0  0  0  0  0  0  0  0  0  0  0  0
  182.3050  179.3970  143.8190 C   0  0  0  0  0  0  0  0  0  0  0  0
  180.9820  179.2680  143.1380 C   0  0  2  0  0  3  0  0  0  0  0  0
  179.9790  178.6220  144.0420 C   0  0  0  0  0  0  0  0  0  0  0  0
  179.2010  179.3390  144.7210 O   0  0  0  0  0  1  0  0  0  0  0  0
  179.9100  177.2380  144.1440 O   0  0  0  0  0  0  0  0  0  0  0  0
  181.1190  178.5110  141.8220 C   0  0  0  0  0  2  0  0  0  0  0  0
  179.1380  177.5670  139.6140 O   0  0  0  0  0  1  0  0  0  0  0  0
  180.0610  178.5950  139.4180 C   0  0  2  0  0  3  0  0  0  0  0  0
  180.3930  179.2200  140.7230 C   0  0  0  0  0  0  0  0  0  0  0  0
  180.0200  180.4840  140.8120 C   0  0  0  0  0  3  0  0  0  0  0  0
  179.4080  179.7220  138.6240 C   0  0  1  0  0  3  0  0  0  0  0  0
  179.3480  180.9280  139.5610 C   0  0  0  0  0  2  0  0  0  0  0  0
  180.2630  180.0450  137.4090 C   0  0  0  0  0  2  0  0  0  0  0  0
  180.3120  178.9000  136.5160 N   0  0  0  0  0  1  0  0  0  0  0  0
  186.4790  179.3740  141.3400 C   0  0  0  0  0  2  0  0  0  0  0  0
  185.8730  178.9580  140.0850 N   0  0  0  0  0  2  0  0  0  0  0  0
  183.8930  177.7220  140.7690 C   0  0  0  0  0  1  0  0  0  0  0  0
  184.4300  179.0460  140.2400 C   0  0  2  0  0  3  0  0  0  0  0  0
  183.8050  179.3470  138.8900 C   0  0  0  0  0  2  0  0  0  0  0  0
  183.3500  178.0670  138.2070 C   0  0  0  0  0  2  0  0  0  0  0  0
  184.7280  177.3560  137.2600 S   0  0  0  0  0  0  0  0  0  0  0  0
  181.5580  173.9370  137.6620 F   0  0  0  0  0  0  0  0  0  0  0  0
  183.6280  176.3160  136.2270 C   0  0  1  0  0  3  0  0  0  0  0  0
  184.2630  174.9930  135.8190 C   0  0  2  0  0  3  0  0  0  0  0  0
  183.0940  174.9470  138.9670 F   0  0  0  0  0  0  0  0  0  0  0  0
  182.7060  174.7040  137.6580 C   0  0  0  0  0  0  0  0  0  0  0  0
  183.7930  173.9830  136.8630 C   0  0  2  0  0  3  0  0  0  0  0  0
  182.4350  175.9800  136.9950 N   0  0  0  0  0  2  0  0  0  0  0  0
  185.7800  175.0490  135.5550 C   0  0  0  0  0  2  0  0  0  0  0  0
  184.9060  173.4210  137.7200 C   0  0  0  0  0  3  0  0  0  0  0  0
  186.1410  173.2770  137.2260 C   0  0  0  0  0  3  0  0  0  0  0  0
  186.4340  173.6950  135.8170 C   0  0  0  0  0  2  0  0  0  0  0  0
  1  6  1  0  0  0  0
  1 24  1  0  0  0  0
  2  6  1  0  0  0  0
  3  4  1  0  0  0  0
  3  2  2  0  0  0  0
  4  1  2  0  0  0  0
  5  3  1  0  0  0  0
  7  8  2  0  0  0  0
  8  5  1  0  0  0  0
  9 14  2  0  0  0  0
  9 13  1  0  0  0  0
 10 12  1  0  0  0  0
 10  7  1  0  0  0  0
 11 12  2  0  0  0  0
 13 10  2  0  0  0  0
 14 11  1  0  0  0  0
 15 18  1  0  0  0  0
 15 17  1  0  0  0  0
 16 21  1  0  0  0  0
 17 16  1  0  0  0  0
 18 20  1  0  0  0  0
 20 14  1  1  0  0  0
 20 21  1  0  0  0  0
 21 19  1  1  0  0  0
 22 23  1  0  0  0  0
 23  7  1  0  0  0  0
 24 25  3  0  0  0  0
 25 26  1  0  0  0  0
 27 26  1  0  0  0  0
 28 29  2  0  0  0  0
 29 27  1  0  0  0  0
 30 34  1  6  0  0  0
 30 29  1  0  0  0  0
 30 31  1  0  0  0  0
 31 33  2  0  0  0  0
 31 32  1  0  0  0  0
 36 35  1  1  0  0  0
 36 37  1  0  0  0  0
 37 38  2  0  0  0  0
 37 34  1  0  0  0  0
 39 41  1  6  0  0  0
 39 36  1  0  0  0  0
 39 40  1  0  0  0  0
 40 38  1  0  0  0  0
 42 41  1  0  0  0  0
 43  4  1  0  0  0  0
 44 46  1  0  0  0  0
 44 43  1  0  0  0  0
 46 45  1  6  0  0  0
 47 46  1  0  0  0  0
 48 47  1  0  0  0  0
 49 48  1  0  0  0  0
 51 56  1  0  0  0  0
 51 49  1  1  0  0  0
 52 57  1  1  0  0  0
 52 51  1  0  0  0  0
 52 55  1  0  0  0  0
 54 50  1  0  0  0  0
 54 53  1  0  0  0  0
 55 54  1  0  0  0  0
 55 58  1  1  0  0  0
 56 54  1  0  0  0  0
 57 60  1  0  0  0  0
 59 58  2  0  0  0  0
 60 59  1  0  0  0  0
M  END
>  <MODEL>
1

>  <REMARK>
 VINA RESULT:      -7.0      0.000      0.000
  Name = 
  19 active torsions:
  status: ('A' for Active; 'I' for Inactive)
    1  A    between atoms: C_1  and  C_24
    2  A    between atoms: C_1  and  N_42
    3  A    between atoms: C_4  and  C_19
    4  A    between atoms: C_6  and  S_50
    5  A    between atoms: C_7  and  C_9
    6  A    between atoms: C_9  and  O_56
    7  A    between atoms: C_14  and  C_37
    8  A    between atoms: C_19  and  C_44
    9  A    between atoms: C_19  and  C_51
   10  A    between atoms: N_26  and  C_53
   11  A    between atoms: N_27  and  N_57
   12  A    between atoms: C_29  and  C_44
   13  A    between atoms: C_30  and  C_34
   14  A    between atoms: C_30  and  S_50
   15  A    between atoms: C_34  and  C_43
   16  A    between atoms: C_38  and  C_54
   17  A    between atoms: N_42  and  C_43
   18  A    between atoms: C_47  and  C_53
   19  A    between atoms: C_52  and  C_58
                            x       y       z     vdW  Elec       q    Type
                         _______ _______ _______ _____ _____    ______ ____

>  <TORSDO>
F 19

$$$$
=
 OpenBabel10222417423D

 60 65  0  0  1  0  0  0  0  0999 V2000
  186.9180  177.6440  143.1380 C   0  0  0  0  0  0  0  0  0  0  0  0
  188.8890  176.7180  142.3570 N   0  0  0  0  0  0  0  0  0  0  0  0
  188.3380  177.4410  141.4370 C   0  0  0  0  0  0  0  0  0  0  0  0
  187.1070  178.0490  141.8920 C   0  0  0  0  0  0  0  0  0  0  0  0
  188.9470  177.7010  140.1670 N   0  0  0  0  0  2  0  0  0  0  0  0
  188.0350  176.7390  143.5430 C   0  0  0  0  0  2  0  0  0  0  0  0
  190.2330  176.6540  138.4450 C   0  0  0  0  0  0  0  0  0  0  0  0
  190.0760  177.0160  139.6850 N   0  0  0  0  0  0  0  0  0  0  0  0
  193.8840  175.7430  137.9990 C   0  0  0  0  0  3  0  0  0  0  0  0
  191.4560  175.8920  138.0860 C   0  0  0  0  0  0  0  0  0  0  0  0
  192.5370  173.9640  137.0700 C   0  0  0  0  0  3  0  0  0  0  0  0
  191.3770  174.6550  137.4310 C   0  0  0  0  0  3  0  0  0  0  0  0
  192.7230  176.4310  138.3580 C   0  0  0  0  0  3  0  0  0  0  0  0
  193.7940  174.5020  137.3520 C   0  0  0  0  0  0  0  0  0  0  0  0
  196.5380  173.0500  135.0570 C   0  0  0  0  0  2  0  0  0  0  0  0
  197.5710  173.8840  137.2060 C   0  0  0  0  0  2  0  0  0  0  0  0
  197.5210  172.7430  136.1940 C   0  0  0  0  0  2  0  0  0  0  0  0
  195.3520  173.9250  135.4850 C   0  0  0  0  0  2  0  0  0  0  0  0
  196.1420  173.3390  139.0460 O   0  0  0  0  0  1  0  0  0  0  0  0
  195.0190  173.7370  136.9660 C   0  0  1  0  0  3  0  0  0  0  0  0
  196.2090  174.0930  137.8760 C   0  0  2  0  0  3  0  0  0  0  0  0
  189.1900  178.3280  136.9180 C   0  0  0  0  0  1  0  0  0  0  0  0
  189.2740  177.0320  137.4940 O   0  0  0  0  0  0  0  0  0  0  0  0
  185.8290  178.0370  143.9900 C   0  0  0  0  0  0  0  0  0  0  0  0
  184.9150  178.3600  144.7070 C   0  0  0  0  0  0  0  0  0  0  0  0
  183.8050  178.7480  145.5810 C   0  0  0  0  0  2  0  0  0  0  0  0
  182.5380  178.6040  144.8810 N   0  0  0  0  0  2  0  0  0  0  0  0
  182.8190  180.5030  143.5450 O   0  0  0  0  0  0  0  0  0  0  0  0
  182.1040  179.5140  143.8670 C   0  0  0  0  0  0  0  0  0  0  0  0
  180.7990  179.2720  143.1830 C   0  0  2  0  0  3  0  0  0  0  0  0
  179.8450  178.5630  144.0920 C   0  0  0  0  0  0  0  0  0  0  0  0
  179.1290  179.2270  144.8840 O   0  0  0  0  0  1  0  0  0  0  0  0
  179.7520  177.1760  144.0750 O   0  0  0  0  0  0  0  0  0  0  0  0
  181.0020  178.5080  141.8790 C   0  0  0  0  0  2  0  0  0  0  0  0
  180.1250  177.7910  138.9790 O   0  0  0  0  0  1  0  0  0  0  0  0
  180.8220  178.9580  139.2960 C   0  0  2  0  0  3  0  0  0  0  0  0
  180.5570  179.3280  140.7090 C   0  0  0  0  0  0  0  0  0  0  0  0
  179.9200  180.4770  140.8410 C   0  0  0  0  0  3  0  0  0  0  0  0
  180.2540  180.1240  138.4950 C   0  0  1  0  0  3  0  0  0  0  0  0
  179.6310  181.0800  139.5130 C   0  0  0  0  0  2  0  0  0  0  0  0
  181.3800  180.8190  137.7460 C   0  0  0  0  0  2  0  0  0  0  0  0
  181.3330  182.2500  137.9930 N   0  0  0  0  0  1  0  0  0  0  0  0
  186.2420  178.9890  141.1200 C   0  0  0  0  0  2  0  0  0  0  0  0
  186.3070  178.6640  139.7030 N   0  0  0  0  0  2  0  0  0  0  0  0
  184.0360  177.9240  140.1620 C   0  0  0  0  0  1  0  0  0  0  0  0
  184.9470  178.6600  139.1880 C   0  0  2  0  0  3  0  0  0  0  0  0
  184.9300  177.9570  137.8430 C   0  0  0  0  0  2  0  0  0  0  0  0
  183.8910  176.8480  137.8240 C   0  0  0  0  0  2  0  0  0  0  0  0
  184.2480  175.6970  136.4640 S   0  0  0  0  0  0  0  0  0  0  0  0
  188.3680  173.5520  135.9020 F   0  0  0  0  0  0  0  0  0  0  0  0
  185.5070  174.7770  137.4250 C   0  0  1  0  0  3  0  0  0  0  0  0
  185.2900  173.2700  137.4090 C   0  0  2  0  0  3  0  0  0  0  0  0
  186.7360  174.3940  134.5940 F   0  0  0  0  0  0  0  0  0  0  0  0
  187.0410  173.9320  135.8660 C   0  0  0  0  0  0  0  0  0  0  0  0
  186.1650  172.7490  136.2720 C   0  0  2  0  0  3  0  0  0  0  0  0
  186.8190  175.0090  136.8310 N   0  0  0  0  0  2  0  0  0  0  0  0
  183.8150  172.8210  137.3990 C   0  0  0  0  0  2  0  0  0  0  0  0
  185.3870  172.1430  135.1240 C   0  0  0  0  0  3  0  0  0  0  0  0
  184.2180  171.5290  135.3410 C   0  0  0  0  0  3  0  0  0  0  0  0
  183.6600  171.4570  136.7310 C   0  0  0  0  0  2  0  0  0  0  0  0
  1  6  1  0  0  0  0
  1 24  1  0  0  0  0
  2  6  1  0  0  0  0
  3  4  1  0  0  0  0
  3  2  2  0  0  0  0
  4  1  2  0  0  0  0
  5  3  1  0  0  0  0
  7  8  2  0  0  0  0
  8  5  1  0  0  0  0
  9 13  1  0  0  0  0
 10 13  2  0  0  0  0
 10  7  1  0  0  0  0
 11 14  1  0  0  0  0
 11 12  2  0  0  0  0
 12 10  1  0  0  0  0
 14  9  2  0  0  0  0
 15 18  1  0  0  0  0
 15 17  1  0  0  0  0
 16 21  1  0  0  0  0
 17 16  1  0  0  0  0
 18 20  1  0  0  0  0
 20 14  1  1  0  0  0
 20 21  1  0  0  0  0
 21 19  1  1  0  0  0
 22 23  1  0  0  0  0
 23  7  1  0  0  0  0
 24 25  3  0  0  0  0
 25 26  1  0  0  0  0
 27 26  1  0  0  0  0
 28 29  2  0  0  0  0
 29 27  1  0  0  0  0
 30 34  1  6  0  0  0
 30 29  1  0  0  0  0
 30 31  1  0  0  0  0
 31 32  1  0  0  0  0
 33 31  2  0  0  0  0
 36 35  1  6  0  0  0
 36 37  1  0  0  0  0
 37 38  2  0  0  0  0
 37 34  1  0  0  0  0
 39 41  1  1  0  0  0
 39 36  1  0  0  0  0
 39 40  1  0  0  0  0
 40 38  1  0  0  0  0
 41 42  1  0  0  0  0
 43  4  1  0  0  0  0
 44 43  1  0  0  0  0
 46 44  1  0  0  0  0
 46 45  1  1  0  0  0
 47 46  1  0  0  0  0
 48 47  1  0  0  0  0
 49 48  1  0  0  0  0
 51 49  1  6  0  0  0
 52 57  1  6  0  0  0
 52 51  1  0  0  0  0
 53 54  1  0  0  0  0
 54 50  1  0  0  0  0
 54 55  1  0  0  0  0
 54 56  1  0  0  0  0
 55 58  1  6  0  0  0
 55 52  1  0  0  0  0
 56 51  1  0  0  0  0
 58 59  2  0  0  0  0
 59 60  1  0  0  0  0
 60 57  1  0  0  0  0
M  END
>  <MODEL>
2

>  <REMARK>
 VINA RESULT:      -6.7      1.591      2.047
  Name = 
  19 active torsions:
  status: ('A' for Active; 'I' for Inactive)
    1  A    between atoms: C_1  and  C_24
    2  A    between atoms: C_1  and  N_42
    3  A    between atoms: C_4  and  C_19
    4  A    between atoms: C_6  and  S_50
    5  A    between atoms: C_7  and  C_9
    6  A    between atoms: C_9  and  O_56
    7  A    between atoms: C_14  and  C_37
    8  A    between atoms: C_19  and  C_44
    9  A    between atoms: C_19  and  C_51
   10  A    between atoms: N_26  and  C_53
   11  A    between atoms: N_27  and  N_57
   12  A    between atoms: C_29  and  C_44
   13  A    between atoms: C_30  and  C_34
   14  A    between atoms: C_30  and  S_50
   15  A    between atoms: C_34  and  C_43
   16  A    between atoms: C_38  and  C_54
   17  A    between atoms: N_42  and  C_43
   18  A    between atoms: C_47  and  C_53
   19  A    between atoms: C_52  and  C_58
                            x       y       z     vdW  Elec       q    Type
                         _______ _______ _______ _____ _____    ______ ____

>  <TORSDO>
F 19

$$$$
=
 OpenBabel10222417423D

 60 65  0  0  1  0  0  0  0  0999 V2000
  186.8140  177.8620  142.9390 C   0  0  0  0  0  0  0  0  0  0  0  0
  188.8630  176.9790  142.3310 N   0  0  0  0  0  0  0  0  0  0  0  0
  188.2820  177.5100  141.3050 C   0  0  0  0  0  0  0  0  0  0  0  0
  187.0000  178.0860  141.6470 C   0  0  0  0  0  0  0  0  0  0  0  0
  188.8980  177.6190  140.0170 N   0  0  0  0  0  2  0  0  0  0  0  0
  187.9830  177.1160  143.4900 C   0  0  0  0  0  2  0  0  0  0  0  0
  190.4970  176.8120  138.4320 C   0  0  0  0  0  0  0  0  0  0  0  0
  190.0850  176.9540  139.6580 N   0  0  0  0  0  0  0  0  0  0  0  0
  194.1710  175.8910  138.3300 C   0  0  0  0  0  3  0  0  0  0  0  0
  191.7450  176.0440  138.1960 C   0  0  0  0  0  0  0  0  0  0  0  0
  192.9090  174.1000  137.3100 C   0  0  0  0  0  3  0  0  0  0  0  0
  191.7240  174.7970  137.5550 C   0  0  0  0  0  3  0  0  0  0  0  0
  192.9840  176.5860  138.5730 C   0  0  0  0  0  3  0  0  0  0  0  0
  194.1370  174.6410  137.6960 C   0  0  0  0  0  0  0  0  0  0  0  0
  196.4200  171.5620  137.2410 C   0  0  0  0  0  2  0  0  0  0  0  0
  196.9600  173.2940  135.4840 C   0  0  0  0  0  2  0  0  0  0  0  0
  197.5330  172.3210  136.5100 C   0  0  0  0  0  2  0  0  0  0  0  0
  195.1200  172.3640  137.3920 C   0  0  0  0  0  2  0  0  0  0  0  0
  196.8780  175.4770  136.4610 O   0  0  0  0  0  1  0  0  0  0  0  0
  195.3900  173.8690  137.4330 C   0  0  1  0  0  3  0  0  0  0  0  0
  196.0940  174.3650  136.1570 C   0  0  2  0  0  3  0  0  0  0  0  0
  188.8220  176.7490  136.5850 C   0  0  0  0  0  1  0  0  0  0  0  0
  189.7790  177.4210  137.3920 O   0  0  0  0  0  0  0  0  0  0  0  0
  185.6800  178.2970  143.7080 C   0  0  0  0  0  0  0  0  0  0  0  0
  184.7270  178.6550  144.3550 C   0  0  0  0  0  0  0  0  0  0  0  0
  183.5690  179.0860  145.1420 C   0  0  0  0  0  2  0  0  0  0  0  0
  182.4320  179.3370  144.2700 N   0  0  0  0  0  2  0  0  0  0  0  0
  183.1430  177.8880  142.5770 O   0  0  0  0  0  0  0  0  0  0  0  0
  182.2750  178.7010  142.9990 C   0  0  0  0  0  0  0  0  0  0  0  0
  181.0620  179.0010  142.1820 C   0  0  2  0  0  3  0  0  0  0  0  0
  179.8980  178.1760  142.6320 C   0  0  0  0  0  0  0  0  0  0  0  0
  179.4980  177.2220  141.9170 O   0  0  0  0  0  0  0  0  0  0  0  0
  179.2510  178.4620  143.8280 O   0  0  0  0  0  1  0  0  0  0  0  0
  181.3450  178.8060  140.6970 C   0  0  0  0  0  2  0  0  0  0  0  0
  179.6070  178.5640  138.1260 O   0  0  0  0  0  1  0  0  0  0  0  0
  180.3950  179.6800  138.4070 C   0  0  2  0  0  3  0  0  0  0  0  0
  180.5840  179.7980  139.8760 C   0  0  0  0  0  0  0  0  0  0  0  0
  180.0450  180.8890  140.3890 C   0  0  0  0  0  3  0  0  0  0  0  0
  179.6370  180.9480  138.0290 C   0  0  1  0  0  3  0  0  0  0  0  0
  179.3770  181.6980  139.3350 C   0  0  0  0  0  2  0  0  0  0  0  0
  180.4960  181.7930  137.1020 C   0  0  0  0  0  2  0  0  0  0  0  0
  181.4510  182.5670  137.8770 N   0  0  0  0  0  1  0  0  0  0  0  0
  186.0870  178.8290  140.7310 C   0  0  0  0  0  2  0  0  0  0  0  0
  186.4740  178.5880  139.3500 N   0  0  0  0  0  2  0  0  0  0  0  0
  184.1940  179.4360  139.3530 C   0  0  0  0  0  1  0  0  0  0  0  0
  185.3030  178.8090  138.5170 C   0  0  2  0  0  3  0  0  0  0  0  0
  184.8310  177.4760  137.9630 C   0  0  0  0  0  2  0  0  0  0  0  0
  185.2070  177.3360  136.4970 C   0  0  0  0  0  2  0  0  0  0  0  0
  184.2240  176.0100  135.7380 S   0  0  0  0  0  0  0  0  0  0  0  0
  183.9010  171.7340  137.6120 F   0  0  0  0  0  0  0  0  0  0  0  0
  183.8890  175.1880  137.3410 C   0  0  1  0  0  3  0  0  0  0  0  0
  182.4200  174.8380  137.5390 C   0  0  2  0  0  3  0  0  0  0  0  0
  184.0130  172.6470  135.5540 F   0  0  0  0  0  0  0  0  0  0  0  0
  183.7190  172.8950  136.8860 C   0  0  0  0  0  0  0  0  0  0  0  0
  182.2860  173.3890  137.0740 C   0  0  2  0  0  3  0  0  0  0  0  0
  184.6220  173.9290  137.3910 N   0  0  0  0  0  2  0  0  0  0  0  0
  181.4200  175.8440  136.9380 C   0  0  0  0  0  2  0  0  0  0  0  0
  181.4140  173.2140  135.8510 C   0  0  0  0  0  3  0  0  0  0  0  0
  180.3850  174.0380  135.6220 C   0  0  0  0  0  3  0  0  0  0  0  0
  180.1040  175.1610  136.5740 C   0  0  0  0  0  2  0  0  0  0  0  0
  1  6  1  0  0  0  0
  1 24  1  0  0  0  0
  2  6  1  0  0  0  0
  3  4  1  0  0  0  0
  3  2  2  0  0  0  0
  4  1  2  0  0  0  0
  5  3  1  0  0  0  0
  7  8  2  0  0  0  0
  8  5  1  0  0  0  0
  9 13  1  0  0  0  0
 10  7  1  0  0  0  0
 10 13  2  0  0  0  0
 11 12  2  0  0  0  0
 11 14  1  0  0  0  0
 12 10  1  0  0  0  0
 14  9  2  0  0  0  0
 15 18  1  0  0  0  0
 16 21  1  0  0  0  0
 16 17  1  0  0  0  0
 17 15  1  0  0  0  0
 18 20  1  0  0  0  0
 20 14  1  6  0  0  0
 21 19  1  1  0  0  0
 21 20  1  0  0  0  0
 22 23  1  0  0  0  0
 23  7  1  0  0  0  0
 24 25  3  0  0  0  0
 25 26  1  0  0  0  0
 27 26  1  0  0  0  0
 28 29  2  0  0  0  0
 29 27  1  0  0  0  0
 30 34  1  6  0  0  0
 30 31  1  0  0  0  0
 30 29  1  0  0  0  0
 31 33  1  0  0  0  0
 32 31  2  0  0  0  0
 36 35  1  1  0  0  0
 36 37  1  0  0  0  0
 37 38  2  0  0  0  0
 37 34  1  0  0  0  0
 39 41  1  6  0  0  0
 39 36  1  0  0  0  0
 39 40  1  0  0  0  0
 40 38  1  0  0  0  0
 41 42  1  0  0  0  0
 43  4  1  0  0  0  0
 44 43  1  0  0  0  0
 46 44  1  0  0  0  0
 46 45  1  1  0  0  0
 47 46  1  0  0  0  0
 48 47  1  0  0  0  0
 49 48  1  0  0  0  0
 51 49  1  6  0  0  0
 51 56  1  0  0  0  0
 51 52  1  0  0  0  0
 52 57  1  6  0  0  0
 53 54  1  0  0  0  0
 54 55  1  0  0  0  0
 54 56  1  0  0  0  0
 54 50  1  0  0  0  0
 55 58  1  6  0  0  0
 55 52  1  0  0  0  0
 59 58  2  0  0  0  0
 59 60  1  0  0  0  0
 60 57  1  0  0  0  0
M  END
>  <MODEL>
3

>  <REMARK>
 VINA RESULT:      -5.8      1.626      2.327
  Name = 
  19 active torsions:
  status: ('A' for Active; 'I' for Inactive)
    1  A    between atoms: C_1  and  C_24
    2  A    between atoms: C_1  and  N_42
    3  A    between atoms: C_4  and  C_19
    4  A    between atoms: C_6  and  S_50
    5  A    between atoms: C_7  and  C_9
    6  A    between atoms: C_9  and  O_56
    7  A    between atoms: C_14  and  C_37
    8  A    between atoms: C_19  and  C_44
    9  A    between atoms: C_19  and  C_51
   10  A    between atoms: N_26  and  C_53
   11  A    between atoms: N_27  and  N_57
   12  A    between atoms: C_29  and  C_44
   13  A    between atoms: C_30  and  C_34
   14  A    between atoms: C_30  and  S_50
   15  A    between atoms: C_34  and  C_43
   16  A    between atoms: C_38  and  C_54
   17  A    between atoms: N_42  and  C_43
   18  A    between atoms: C_47  and  C_53
   19  A    between atoms: C_52  and  C_58
                            x       y       z     vdW  Elec       q    Type
                         _______ _______ _______ _____ _____    ______ ____

>  <TORSDO>
F 19

$$$$
=
 OpenBabel10222417423D

 60 65  0  0  1  0  0  0  0  0999 V2000
  186.7100  178.2670  138.1410 C   0  0  0  0  0  0  0  0  0  0  0  0
  188.6220  177.5070  137.0850 N   0  0  0  0  0  0  0  0  0  0  0  0
  188.7690  177.4560  138.3680 C   0  0  0  0  0  0  0  0  0  0  0  0
  187.5880  177.9130  139.0670 C   0  0  0  0  0  0  0  0  0  0  0  0
  189.9200  176.8960  139.0100 N   0  0  0  0  0  2  0  0  0  0  0  0
  187.3010  178.0560  136.7870 C   0  0  0  0  0  2  0  0  0  0  0  0
  191.3950  175.3760  137.9000 C   0  0  0  0  0  0  0  0  0  0  0  0
  191.1110  176.5680  138.3360 N   0  0  0  0  0  0  0  0  0  0  0  0
  194.0190  174.8120  135.2250 C   0  0  0  0  0  3  0  0  0  0  0  0
  192.7130  175.1630  137.2490 C   0  0  0  0  0  0  0  0  0  0  0  0
  195.1140  174.7920  137.3800 C   0  0  0  0  0  3  0  0  0  0  0  0
  193.8850  175.0250  138.0040 C   0  0  0  0  0  3  0  0  0  0  0  0
  192.7930  175.0450  135.8530 C   0  0  0  0  0  3  0  0  0  0  0  0
  195.1870  174.6850  135.9900 C   0  0  0  0  0  0  0  0  0  0  0  0
  198.8210  175.4020  134.9020 C   0  0  0  0  0  2  0  0  0  0  0  0
  198.6140  173.0030  135.6670 C   0  0  0  0  0  2  0  0  0  0  0  0
  199.1650  173.9390  134.5960 C   0  0  0  0  0  2  0  0  0  0  0  0
  197.4970  175.5800  135.6560 C   0  0  0  0  0  2  0  0  0  0  0  0
  196.5390  172.0940  134.8960 O   0  0  0  0  0  1  0  0  0  0  0  0
  196.5160  174.4480  135.3450 C   0  0  1  0  0  3  0  0  0  0  0  0
  197.0840  173.0690  135.7290 C   0  0  2  0  0  3  0  0  0  0  0  0
  189.7810  173.7470  136.9180 C   0  0  0  0  0  1  0  0  0  0  0  0
  190.4400  174.3550  138.0200 O   0  0  0  0  0  0  0  0  0  0  0  0
  185.3790  178.7500  138.3910 C   0  0  0  0  0  0  0  0  0  0  0  0
  184.2650  179.1590  138.6060 C   0  0  0  0  0  0  0  0  0  0  0  0
  182.9140  179.6590  138.8700 C   0  0  0  0  0  2  0  0  0  0  0  0
  181.9310  178.8580  138.1570 N   0  0  0  0  0  2  0  0  0  0  0  0
  182.4670  176.8560  139.2410 O   0  0  0  0  0  0  0  0  0  0  0  0
  181.7540  177.4590  138.3930 C   0  0  0  0  0  0  0  0  0  0  0  0
  180.7020  176.7210  137.6300 C   0  0  2  0  0  3  0  0  0  0  0  0
  180.3550  175.4350  138.3110 C   0  0  0  0  0  0  0  0  0  0  0  0
  180.7460  175.2270  139.4870 O   0  0  0  0  0  1  0  0  0  0  0  0
  179.6120  174.4650  137.6490 O   0  0  0  0  0  0  0  0  0  0  0  0
  181.1380  176.4920  136.1880 C   0  0  0  0  0  2  0  0  0  0  0  0
  181.8870  173.5210  135.6350 O   0  0  0  0  0  1  0  0  0  0  0  0
  182.5930  174.3300  136.5270 C   0  0  2  0  0  3  0  0  0  0  0  0
  182.4380  175.7540  136.1360 C   0  0  0  0  0  0  0  0  0  0  0  0
  183.5710  176.3260  135.7720 C   0  0  0  0  0  3  0  0  0  0  0  0
  184.0880  174.0670  136.3800 C   0  0  1  0  0  3  0  0  0  0  0  0
  184.7000  175.3610  135.8450 C   0  0  0  0  0  2  0  0  0  0  0  0
  184.6780  173.7320  137.7400 C   0  0  0  0  0  2  0  0  0  0  0  0
  185.8250  172.8540  137.5820 N   0  0  0  0  0  1  0  0  0  0  0  0
  187.3820  177.9340  140.5440 C   0  0  0  0  0  2  0  0  0  0  0  0
  186.3740  178.9260  140.8850 N   0  0  0  0  0  2  0  0  0  0  0  0
  184.3610  179.1320  142.2350 C   0  0  0  0  0  1  0  0  0  0  0  0
  185.7460  178.5080  142.1290 C   0  0  2  0  0  3  0  0  0  0  0  0
  186.6040  178.9690  143.2940 C   0  0  0  0  0  2  0  0  0  0  0  0
  186.5840  177.9460  144.4190 C   0  0  0  0  0  2  0  0  0  0  0  0
  187.9780  176.7970  144.2260 S   0  0  0  0  0  0  0  0  0  0  0  0
  192.4460  177.5530  143.0580 F   0  0  0  0  0  0  0  0  0  0  0  0
  189.2240  178.1400  144.1890 C   0  0  1  0  0  3  0  0  0  0  0  0
  190.0690  178.2090  145.4550 C   0  0  2  0  0  3  0  0  0  0  0  0
  191.0790  175.7860  143.3600 F   0  0  0  0  0  0  0  0  0  0  0  0
  191.2680  177.1310  143.6420 C   0  0  0  0  0  0  0  0  0  0  0  0
  191.3250  177.3990  145.1450 C   0  0  2  0  0  3  0  0  0  0  0  0
  190.1510  177.8970  143.0900 N   0  0  0  0  0  2  0  0  0  0  0  0
  189.3270  177.8490  146.7570 C   0  0  0  0  0  2  0  0  0  0  0  0
  191.4740  176.1480  145.9830 C   0  0  0  0  0  3  0  0  0  0  0  0
  190.9970  176.1030  147.2320 C   0  0  0  0  0  3  0  0  0  0  0  0
  190.2900  177.2950  147.8040 C   0  0  0  0  0  2  0  0  0  0  0  0
  1 24  1  0  0  0  0
  1  4  2  0  0  0  0
  2  3  2  0  0  0  0
  3  5  1  0  0  0  0
  3  4  1  0  0  0  0
  4 43  1  0  0  0  0
  6  2  1  0  0  0  0
  6  1  1  0  0  0  0
  7 23  1  0  0  0  0
  7  8  2  0  0  0  0
  8  5  1  0  0  0  0
  9 13  2  0  0  0  0
  9 14  1  0  0  0  0
 10  7  1  0  0  0  0
 10 12  2  0  0  0  0
 11 12  1  0  0  0  0
 13 10  1  0  0  0  0
 14 11  2  0  0  0  0
 15 18  1  0  0  0  0
 16 21  1  0  0  0  0
 17 15  1  0  0  0  0
 17 16  1  0  0  0  0
 20 18  1  0  0  0  0
 20 21  1  0  0  0  0
 20 14  1  1  0  0  0
 21 19  1  6  0  0  0
 22 23  1  0  0  0  0
 24 25  3  0  0  0  0
 25 26  1  0  0  0  0
 27 29  1  0  0  0  0
 27 26  1  0  0  0  0
 29 28  2  0  0  0  0
 30 34  1  6  0  0  0
 30 31  1  0  0  0  0
 30 29  1  0  0  0  0
 31 32  1  0  0  0  0
 33 31  2  0  0  0  0
 36 35  1  6  0  0  0
 37 34  1  0  0  0  0
 37 36  1  0  0  0  0
 38 40  1  0  0  0  0
 38 37  2  0  0  0  0
 39 36  1  0  0  0  0
 39 41  1  1  0  0  0
 40 39  1  0  0  0  0
 42 41  1  0  0  0  0
 43 44  1  0  0  0  0
 44 46  1  0  0  0  0
 46 45  1  1  0  0  0
 46 47  1  0  0  0  0
 47 48  1  0  0  0  0
 49 48  1  0  0  0  0
 50 54  1  0  0  0  0
 51 49  1  1  0  0  0
 51 52  1  0  0  0  0
 52 57  1  1  0  0  0
 53 54  1  0  0  0  0
 54 55  1  0  0  0  0
 55 52  1  0  0  0  0
 55 58  1  1  0  0  0
 56 54  1  0  0  0  0
 56 51  1  0  0  0  0
 57 60  1  0  0  0  0
 58 59  2  0  0  0  0
 59 60  1  0  0  0  0
M  END
>  <MODEL>
4

>  <REMARK>
 VINA RESULT:      -5.4      3.270      6.643
  Name = 
  19 active torsions:
  status: ('A' for Active; 'I' for Inactive)
    1  A    between atoms: C_1  and  C_24
    2  A    between atoms: C_1  and  N_42
    3  A    between atoms: C_4  and  C_19
    4  A    between atoms: C_6  and  S_50
    5  A    between atoms: C_7  and  C_9
    6  A    between atoms: C_9  and  O_56
    7  A    between atoms: C_14  and  C_37
    8  A    between atoms: C_19  and  C_44
    9  A    between atoms: C_19  and  C_51
   10  A    between atoms: N_26  and  C_53
   11  A    between atoms: N_27  and  N_57
   12  A    between atoms: C_29  and  C_44
   13  A    between atoms: C_30  and  C_34
   14  A    between atoms: C_30  and  S_50
   15  A    between atoms: C_34  and  C_43
   16  A    between atoms: C_38  and  C_54
   17  A    between atoms: N_42  and  C_43
   18  A    between atoms: C_47  and  C_53
   19  A    between atoms: C_52  and  C_58
                            x       y       z     vdW  Elec       q    Type
                         _______ _______ _______ _____ _____    ______ ____

>  <TORSDO>
F 19

$$$$
=
 OpenBabel10222417423D

 60 65  0  0  1  0  0  0  0  0999 V2000
  187.0750  178.0640  142.3060 C   0  0  0  0  0  0  0  0  0  0  0  0
  189.1480  177.4480  141.4860 N   0  0  0  0  0  0  0  0  0  0  0  0
  188.4070  177.9060  140.5310 C   0  0  0  0  0  0  0  0  0  0  0  0
  187.1040  178.3150  141.0060 C   0  0  0  0  0  0  0  0  0  0  0  0
  188.8740  178.0980  139.1910 N   0  0  0  0  0  2  0  0  0  0  0  0
  188.3780  177.4680  142.7270 C   0  0  0  0  0  2  0  0  0  0  0  0
  190.1960  176.8100  137.6700 C   0  0  0  0  0  0  0  0  0  0  0  0
  190.0930  177.5890  138.7060 N   0  0  0  0  0  0  0  0  0  0  0  0
  193.8730  175.9240  137.8930 C   0  0  0  0  0  3  0  0  0  0  0  0
  191.5440  176.3080  137.3000 C   0  0  0  0  0  0  0  0  0  0  0  0
  193.0940  175.3840  135.6690 C   0  0  0  0  0  3  0  0  0  0  0  0
  191.8130  175.8220  136.0130 C   0  0  0  0  0  3  0  0  0  0  0  0
  192.5910  176.3620  138.2330 C   0  0  0  0  0  3  0  0  0  0  0  0
  194.1290  175.4320  136.6050 C   0  0  0  0  0  0  0  0  0  0  0  0
  197.6170  175.4850  134.9520 C   0  0  0  0  0  2  0  0  0  0  0  0
  197.7870  174.5110  137.2770 C   0  0  0  0  0  2  0  0  0  0  0  0
  198.1970  174.3580  135.8150 C   0  0  0  0  0  2  0  0  0  0  0  0
  196.2700  176.0180  135.4560 C   0  0  0  0  0  2  0  0  0  0  0  0
  195.8980  173.1030  137.6940 O   0  0  0  0  0  1  0  0  0  0  0  0
  195.4890  174.9450  136.2160 C   0  0  1  0  0  3  0  0  0  0  0  0
  196.2650  174.4230  137.4390 C   0  0  2  0  0  3  0  0  0  0  0  0
  188.3760  175.2580  136.9610 C   0  0  0  0  0  1  0  0  0  0  0  0
  189.0480  176.5090  136.9210 O   0  0  0  0  0  0  0  0  0  0  0  0
  185.9780  178.3500  143.1900 C   0  0  0  0  0  0  0  0  0  0  0  0
  185.0560  178.5820  143.9310 C   0  0  0  0  0  0  0  0  0  0  0  0
  183.9360  178.8600  144.8340 C   0  0  0  0  0  2  0  0  0  0  0  0
  182.8290  179.4490  144.0960 N   0  0  0  0  0  2  0  0  0  0  0  0
  182.6930  177.7310  142.5150 O   0  0  0  0  0  0  0  0  0  0  0  0
  182.2480  178.8300  142.9450 C   0  0  0  0  0  0  0  0  0  0  0  0
  181.0970  179.4960  142.2650 C   0  0  2  0  0  3  0  0  0  0  0  0
  179.8770  179.4690  143.1320 C   0  0  0  0  0  0  0  0  0  0  0  0
  179.2630  180.5380  143.3760 O   0  0  0  0  0  0  0  0  0  0  0  0
  179.4270  178.2730  143.6780 O   0  0  0  0  0  1  0  0  0  0  0  0
  180.8300  178.8650  140.9040 C   0  0  0  0  0  2  0  0  0  0  0  0
  180.7930  178.9870  137.7930 O   0  0  0  0  0  1  0  0  0  0  0  0
  180.9950  180.1110  138.5960 C   0  0  2  0  0  3  0  0  0  0  0  0
  180.3650  179.8940  139.9230 C   0  0  0  0  0  0  0  0  0  0  0  0
  179.3720  180.7270  140.1760 C   0  0  0  0  0  3  0  0  0  0  0  0
  180.2330  181.2970  138.0140 C   0  0  1  0  0  3  0  0  0  0  0  0
  179.1520  181.6540  139.0340 C   0  0  0  0  0  2  0  0  0  0  0  0
  181.1840  182.4670  137.8280 C   0  0  0  0  0  2  0  0  0  0  0  0
  180.4310  183.6970  137.6480 N   0  0  0  0  0  1  0  0  0  0  0  0
  186.0190  178.9420  140.1960 C   0  0  0  0  0  2  0  0  0  0  0  0
  186.0820  178.4530  138.8280 N   0  0  0  0  0  2  0  0  0  0  0  0
  183.7910  178.0780  139.5550 C   0  0  0  0  0  1  0  0  0  0  0  0
  184.7170  178.2690  138.3610 C   0  0  2  0  0  3  0  0  0  0  0  0
  184.6610  177.0410  137.4700 C   0  0  0  0  0  2  0  0  0  0  0  0
  183.2250  176.5900  137.2580 C   0  0  0  0  0  2  0  0  0  0  0  0
  183.1670  174.7810  137.1040 S   0  0  0  0  0  0  0  0  0  0  0  0
  178.9310  176.0950  135.6140 F   0  0  0  0  0  0  0  0  0  0  0  0
  182.1570  174.8310  135.5770 C   0  0  1  0  0  3  0  0  0  0  0  0
  181.2840  173.5970  135.3940 C   0  0  2  0  0  3  0  0  0  0  0  0
  179.9810  175.7840  137.5840 F   0  0  0  0  0  0  0  0  0  0  0  0
  180.0000  175.4770  136.2320 C   0  0  0  0  0  0  0  0  0  0  0  0
  179.9270  173.9720  135.9840 C   0  0  2  0  0  3  0  0  0  0  0  0
  181.2480  175.9700  135.6470 N   0  0  0  0  0  2  0  0  0  0  0  0
  181.9060  172.2770  135.8910 C   0  0  0  0  0  2  0  0  0  0  0  0
  179.5450  173.1690  137.2080 C   0  0  0  0  0  3  0  0  0  0  0  0
  179.9580  171.9050  137.3510 C   0  0  0  0  0  3  0  0  0  0  0  0
  180.8240  171.2800  136.3000 C   0  0  0  0  0  2  0  0  0  0  0  0
  1  6  1  0  0  0  0
  1 24  1  0  0  0  0
  2  6  1  0  0  0  0
  3  4  1  0  0  0  0
  3  2  2  0  0  0  0
  4  1  2  0  0  0  0
  5  3  1  0  0  0  0
  7  8  2  0  0  0  0
  8  5  1  0  0  0  0
  9 13  1  0  0  0  0
 10  7  1  0  0  0  0
 10 13  2  0  0  0  0
 11 12  2  0  0  0  0
 11 14  1  0  0  0  0
 12 10  1  0  0  0  0
 14  9  2  0  0  0  0
 15 18  1  0  0  0  0
 15 17  1  0  0  0  0
 16 21  1  0  0  0  0
 17 16  1  0  0  0  0
 18 20  1  0  0  0  0
 20 14  1  1  0  0  0
 20 21  1  0  0  0  0
 21 19  1  6  0  0  0
 23 22  1  0  0  0  0
 23  7  1  0  0  0  0
 24 25  3  0  0  0  0
 25 26  1  0  0  0  0
 27 26  1  0  0  0  0
 28 29  2  0  0  0  0
 29 27  1  0  0  0  0
 30 34  1  6  0  0  0
 30 29  1  0  0  0  0
 30 31  1  0  0  0  0
 31 32  2  0  0  0  0
 31 33  1  0  0  0  0
 36 35  1  6  0  0  0
 36 37  1  0  0  0  0
 37 38  2  0  0  0  0
 37 34  1  0  0  0  0
 39 41  1  1  0  0  0
 39 36  1  0  0  0  0
 39 40  1  0  0  0  0
 40 38  1  0  0  0  0
 42 41  1  0  0  0  0
 43  4  1  0  0  0  0
 44 43  1  0  0  0  0
 46 44  1  0  0  0  0
 46 45  1  1  0  0  0
 47 46  1  0  0  0  0
 48 47  1  0  0  0  0
 49 48  1  0  0  0  0
 50 54  1  0  0  0  0
 51 56  1  0  0  0  0
 51 49  1  1  0  0  0
 52 51  1  0  0  0  0
 52 57  1  1  0  0  0
 52 55  1  0  0  0  0
 54 53  1  0  0  0  0
 55 54  1  0  0  0  0
 55 58  1  1  0  0  0
 56 54  1  0  0  0  0
 57 60  1  0  0  0  0
 58 59  2  0  0  0  0
 60 59  1  0  0  0  0
M  END
>  <MODEL>
5

>  <REMARK>
 VINA RESULT:      -5.3      1.989      2.457
  Name = 
  19 active torsions:
  status: ('A' for Active; 'I' for Inactive)
    1  A    between atoms: C_1  and  C_24
    2  A    between atoms: C_1  and  N_42
    3  A    between atoms: C_4  and  C_19
    4  A    between atoms: C_6  and  S_50
    5  A    between atoms: C_7  and  C_9
    6  A    between atoms: C_9  and  O_56
    7  A    between atoms: C_14  and  C_37
    8  A    between atoms: C_19  and  C_44
    9  A    between atoms: C_19  and  C_51
   10  A    between atoms: N_26  and  C_53
   11  A    between atoms: N_27  and  N_57
   12  A    between atoms: C_29  and  C_44
   13  A    between atoms: C_30  and  C_34
   14  A    between atoms: C_30  and  S_50
   15  A    between atoms: C_34  and  C_43
   16  A    between atoms: C_38  and  C_54
   17  A    between atoms: N_42  and  C_43
   18  A    between atoms: C_47  and  C_53
   19  A    between atoms: C_52  and  C_58
                            x       y       z     vdW  Elec       q    Type
                         _______ _______ _______ _____ _____    ______ ____

>  <TORSDO>
F 19

$$$$
=
 OpenBabel10222417423D

 60 65  0  0  1  0  0  0  0  0999 V2000
  188.5940  177.6360  141.5680 C   0  0  0  0  0  0  0  0  0  0  0  0
  186.7770  178.9860  141.0940 N   0  0  0  0  0  0  0  0  0  0  0  0
  187.0550  178.2380  140.0770 C   0  0  0  0  0  0  0  0  0  0  0  0
  188.1800  177.3670  140.3380 C   0  0  0  0  0  0  0  0  0  0  0  0
  186.2600  178.1950  138.8870 N   0  0  0  0  0  2  0  0  0  0  0  0
  187.7420  178.7110  142.1560 C   0  0  0  0  0  2  0  0  0  0  0  0
  183.9790  178.8300  138.5530 C   0  0  0  0  0  0  0  0  0  0  0  0
  185.2460  179.1220  138.5880 N   0  0  0  0  0  0  0  0  0  0  0  0
  181.1550  180.6550  136.8070 C   0  0  0  0  0  3  0  0  0  0  0  0
  183.0220  179.9000  138.1740 C   0  0  0  0  0  0  0  0  0  0  0  0
  182.2180  182.1900  138.3420 C   0  0  0  0  0  3  0  0  0  0  0  0
  183.1040  181.1830  138.7330 C   0  0  0  0  0  3  0  0  0  0  0  0
  182.0430  179.6510  137.2000 C   0  0  0  0  0  3  0  0  0  0  0  0
  181.2400  181.9320  137.3790 C   0  0  0  0  0  0  0  0  0  0  0  0
  179.2440  185.2230  137.6780 C   0  0  0  0  0  2  0  0  0  0  0  0
  180.1490  184.9800  135.3320 C   0  0  0  0  0  2  0  0  0  0  0  0
  178.9310  185.3310  136.1810 C   0  0  0  0  0  2  0  0  0  0  0  0
  180.2970  184.1580  138.0130 C   0  0  0  0  0  2  0  0  0  0  0  0
  179.9650  182.6980  134.6360 O   0  0  0  0  0  1  0  0  0  0  0  0
  180.2950  183.0230  136.9880 C   0  0  1  0  0  3  0  0  0  0  0  0
  180.5890  183.5310  135.5640 C   0  0  2  0  0  3  0  0  0  0  0  0
  183.2310  176.5210  137.9820 C   0  0  0  0  0  1  0  0  0  0  0  0
  183.5630  177.5400  138.9140 O   0  0  0  0  0  0  0  0  0  0  0  0
  189.6730  176.9760  142.2500 C   0  0  0  0  0  0  0  0  0  0  0  0
  190.5730  176.4190  142.8270 C   0  0  0  0  0  0  0  0  0  0  0  0
  191.6640  175.7400  143.5310 C   0  0  0  0  0  2  0  0  0  0  0  0
  191.4400  175.7830  144.9680 N   0  0  0  0  0  2  0  0  0  0  0  0
  192.0270  178.0350  145.2040 O   0  0  0  0  0  0  0  0  0  0  0  0
  191.6350  176.9660  145.7480 C   0  0  0  0  0  0  0  0  0  0  0  0
  191.3560  176.9230  147.2140 C   0  0  2  0  0  3  0  0  0  0  0  0
  192.4650  176.2380  147.9480 C   0  0  0  0  0  0  0  0  0  0  0  0
  192.9230  176.7490  149.0010 O   0  0  0  0  0  1  0  0  0  0  0  0
  192.9990  175.0480  147.4690 O   0  0  0  0  0  0  0  0  0  0  0  0
  190.0090  176.2640  147.4920 C   0  0  0  0  0  2  0  0  0  0  0  0
  188.4030  178.5930  148.7900 O   0  0  0  0  0  1  0  0  0  0  0  0
  187.8330  177.6790  147.9020 C   0  0  2  0  0  3  0  0  0  0  0  0
  188.8860  177.1270  147.0120 C   0  0  0  0  0  0  0  0  0  0  0  0
  188.7170  177.4410  145.7410 C   0  0  0  0  0  3  0  0  0  0  0  0
  186.8910  178.4100  146.9520 C   0  0  1  0  0  3  0  0  0  0  0  0
  187.5060  178.2850  145.5580 C   0  0  0  0  0  2  0  0  0  0  0  0
  185.5250  177.7450  146.9830 C   0  0  0  0  0  2  0  0  0  0  0  0
  184.5280  178.6280  146.4020 N   0  0  0  0  0  1  0  0  0  0  0  0
  188.7370  176.3340  139.4170 C   0  0  0  0  0  2  0  0  0  0  0  0
  188.2100  176.5360  138.0770 N   0  0  0  0  0  2  0  0  0  0  0  0
  189.0350  177.3920  135.9540 C   0  0  0  0  0  1  0  0  0  0  0  0
  189.3310  176.4970  137.1510 C   0  0  2  0  0  3  0  0  0  0  0  0
  189.5340  175.0680  136.6810 C   0  0  0  0  0  2  0  0  0  0  0  0
  189.8690  175.0270  135.1990 C   0  0  0  0  0  2  0  0  0  0  0  0
  191.6490  174.7360  134.9810 S   0  0  0  0  0  0  0  0  0  0  0  0
  194.1620  176.3510  138.5830 F   0  0  0  0  0  0  0  0  0  0  0  0
  191.9300  174.4240  136.7640 C   0  0  1  0  0  3  0  0  0  0  0  0
  193.0900  173.4750  137.0320 C   0  0  2  0  0  3  0  0  0  0  0  0
  194.1110  176.5990  136.3430 F   0  0  0  0  0  0  0  0  0  0  0  0
  193.7280  175.7870  137.4000 C   0  0  0  0  0  0  0  0  0  0  0  0
  194.2990  174.3760  137.2740 C   0  0  2  0  0  3  0  0  0  0  0  0
  192.2690  175.6830  137.4180 N   0  0  0  0  0  2  0  0  0  0  0  0
  193.2700  172.3520  135.9920 C   0  0  0  0  0  2  0  0  0  0  0  0
  195.3830  174.2460  136.2260 C   0  0  0  0  0  3  0  0  0  0  0  0
  195.5890  173.0830  135.5980 C   0  0  0  0  0  3  0  0  0  0  0  0
  194.7260  171.9000  135.9180 C   0  0  0  0  0  2  0  0  0  0  0  0
  1  6  1  0  0  0  0
  1 24  1  0  0  0  0
  2  6  1  0  0  0  0
  3  4  1  0  0  0  0
  3  2  2  0  0  0  0
  4  1  2  0  0  0  0
  5  3  1  0  0  0  0
  7  8  2  0  0  0  0
  7 23  1  0  0  0  0
  8  5  1  0  0  0  0
  9 13  2  0  0  0  0
  9 14  1  0  0  0  0
 10  7  1  0  0  0  0
 10 12  2  0  0  0  0
 11 12  1  0  0  0  0
 13 10  1  0  0  0  0
 14 11  2  0  0  0  0
 15 18  1  0  0  0  0
 16 21  1  0  0  0  0
 16 17  1  0  0  0  0
 17 15  1  0  0  0  0
 20 14  1  1  0  0  0
 20 18  1  0  0  0  0
 21 19  1  6  0  0  0
 21 20  1  0  0  0  0
 22 23  1  0  0  0  0
 24 25  3  0  0  0  0
 25 26  1  0  0  0  0
 26 27  1  0  0  0  0
 27 29  1  0  0  0  0
 28 29  2  0  0  0  0
 29 30  1  0  0  0  0
 30 34  1  6  0  0  0
 30 31  1  0  0  0  0
 31 32  1  0  0  0  0
 33 31  2  0  0  0  0
 36 35  1  1  0  0  0
 37 34  1  0  0  0  0
 37 36  1  0  0  0  0
 38 37  2  0  0  0  0
 39 41  1  6  0  0  0
 39 36  1  0  0  0  0
 40 38  1  0  0  0  0
 40 39  1  0  0  0  0
 42 41  1  0  0  0  0
 43  4  1  0  0  0  0
 44 43  1  0  0  0  0
 46 45  1  6  0  0  0
 46 44  1  0  0  0  0
 47 46  1  0  0  0  0
 48 47  1  0  0  0  0
 49 48  1  0  0  0  0
 51 49  1  6  0  0  0
 51 52  1  0  0  0  0
 51 56  1  0  0  0  0
 52 57  1  6  0  0  0
 52 55  1  0  0  0  0
 53 54  1  0  0  0  0
 54 56  1  0  0  0  0
 54 50  1  0  0  0  0
 55 58  1  6  0  0  0
 55 54  1  0  0  0  0
 59 60  1  0  0  0  0
 59 58  2  0  0  0  0
 60 57  1  0  0  0  0
M  END
>  <MODEL>
6

>  <REMARK>
 VINA RESULT:      -4.8      4.374     11.081
  Name = 
  19 active torsions:
  status: ('A' for Active; 'I' for Inactive)
    1  A    between atoms: C_1  and  C_24
    2  A    between atoms: C_1  and  N_42
    3  A    between atoms: C_4  and  C_19
    4  A    between atoms: C_6  and  S_50
    5  A    between atoms: C_7  and  C_9
    6  A    between atoms: C_9  and  O_56
    7  A    between atoms: C_14  and  C_37
    8  A    between atoms: C_19  and  C_44
    9  A    between atoms: C_19  and  C_51
   10  A    between atoms: N_26  and  C_53
   11  A    between atoms: N_27  and  N_57
   12  A    between atoms: C_29  and  C_44
   13  A    between atoms: C_30  and  C_34
   14  A    between atoms: C_30  and  S_50
   15  A    between atoms: C_34  and  C_43
   16  A    between atoms: C_38  and  C_54
   17  A    between atoms: N_42  and  C_43
   18  A    between atoms: C_47  and  C_53
   19  A    between atoms: C_52  and  C_58
                            x       y       z     vdW  Elec       q    Type
                         _______ _______ _______ _____ _____    ______ ____

>  <TORSDO>
F 19

$$$$
=
 OpenBabel10222417423D

 60 65  0  0  1  0  0  0  0  0999 V2000
  182.5020  178.8790  142.8980 C   0  0  0  0  0  0  0  0  0  0  0  0
  184.2200  178.8110  144.4450 N   0  0  0  0  0  0  0  0  0  0  0  0
  184.5910  178.2530  143.3390 C   0  0  0  0  0  0  0  0  0  0  0  0
  183.5460  178.2860  142.3390 C   0  0  0  0  0  0  0  0  0  0  0  0
  185.9200  177.7750  143.1020 N   0  0  0  0  0  2  0  0  0  0  0  0
  182.8340  179.2520  144.3040 C   0  0  0  0  0  2  0  0  0  0  0  0
  188.1410  177.3500  143.8810 C   0  0  0  0  0  0  0  0  0  0  0  0
  186.8920  177.6330  144.1090 N   0  0  0  0  0  0  0  0  0  0  0  0
  191.2540  176.6540  145.9250 C   0  0  0  0  0  3  0  0  0  0  0  0
  189.0460  177.1810  145.0450 C   0  0  0  0  0  0  0  0  0  0  0  0
  189.4300  177.1020  147.4460 C   0  0  0  0  0  3  0  0  0  0  0  0
  188.5730  177.2970  146.3590 C   0  0  0  0  0  3  0  0  0  0  0  0
  190.3950  176.8480  144.8410 C   0  0  0  0  0  3  0  0  0  0  0  0
  190.7720  176.7810  147.2360 C   0  0  0  0  0  0  0  0  0  0  0  0
  193.6450  175.3060  149.3500 C   0  0  0  0  0  2  0  0  0  0  0  0
  193.5620  177.8130  149.6490 C   0  0  0  0  0  2  0  0  0  0  0  0
  193.6890  176.4660  150.3530 C   0  0  0  0  0  2  0  0  0  0  0  0
  192.7910  175.5950  148.1090 C   0  0  0  0  0  2  0  0  0  0  0  0
  191.2820  178.5290  149.7690 O   0  0  0  0  0  1  0  0  0  0  0  0
  191.6710  176.5900  148.4150 C   0  0  1  0  0  3  0  0  0  0  0  0
  192.2180  177.9370  148.9230 C   0  0  2  0  0  3  0  0  0  0  0  0
  188.6420  178.3560  141.6540 C   0  0  0  0  0  1  0  0  0  0  0  0
  188.5910  177.2590  142.5550 O   0  0  0  0  0  0  0  0  0  0  0  0
  181.2500  179.1550  142.2470 C   0  0  0  0  0  0  0  0  0  0  0  0
  180.2030  179.3920  141.6990 C   0  0  0  0  0  0  0  0  0  0  0  0
  178.9320  179.6840  141.0300 C   0  0  0  0  0  2  0  0  0  0  0  0
  179.1700  180.4130  139.7940 N   0  0  0  0  0  2  0  0  0  0  0  0
  179.8570  178.5400  138.5740 O   0  0  0  0  0  0  0  0  0  0  0  0
  179.6280  179.7800  138.5960 C   0  0  0  0  0  0  0  0  0  0  0  0
  179.8210  180.6060  137.3660 C   0  0  2  0  0  3  0  0  0  0  0  0
  180.2350  179.7500  136.2100 C   0  0  0  0  0  0  0  0  0  0  0  0
  179.4390  179.5700  135.2540 O   0  0  0  0  0  0  0  0  0  0  0  0
  181.4860  179.1460  136.1920 O   0  0  0  0  0  1  0  0  0  0  0  0
  180.8210  181.7290  137.6170 C   0  0  0  0  0  2  0  0  0  0  0  0
  182.0930  184.5380  137.1870 O   0  0  0  0  0  1  0  0  0  0  0  0
  180.7750  184.3570  137.6100 C   0  0  2  0  0  3  0  0  0  0  0  0
  180.2780  183.0390  137.1390 C   0  0  0  0  0  0  0  0  0  0  0  0
  179.2790  183.1290  136.2810 C   0  0  0  0  0  3  0  0  0  0  0  0
  179.8710  185.3650  136.9070 C   0  0  1  0  0  3  0  0  0  0  0  0
  178.9360  184.5510  136.0130 C   0  0  0  0  0  2  0  0  0  0  0  0
  179.0680  186.1310  137.9450 C   0  0  0  0  0  2  0  0  0  0  0  0
  179.5810  185.8560  139.2760 N   0  0  0  0  0  1  0  0  0  0  0  0
  183.6450  177.7920  140.9350 C   0  0  0  0  0  2  0  0  0  0  0  0
  183.8230  178.9160  140.0290 N   0  0  0  0  0  2  0  0  0  0  0  0
  183.3170  177.0000  138.6180 C   0  0  0  0  0  1  0  0  0  0  0  0
  183.9540  178.3820  138.6830 C   0  0  2  0  0  3  0  0  0  0  0  0
  185.4270  178.2820  138.3320 C   0  0  0  0  0  2  0  0  0  0  0  0
  185.6250  177.5020  137.0420 C   0  0  0  0  0  2  0  0  0  0  0  0
  187.1840  176.5730  137.1220 S   0  0  0  0  0  0  0  0  0  0  0  0
  186.2300  172.2690  135.5540 F   0  0  0  0  0  0  0  0  0  0  0  0
  186.8590  175.6760  135.5580 C   0  0  1  0  0  3  0  0  0  0  0  0
  188.1150  175.0780  134.9370 C   0  0  2  0  0  3  0  0  0  0  0  0
  186.9230  173.2270  137.4730 F   0  0  0  0  0  0  0  0  0  0  0  0
  186.8100  173.3960  136.1010 C   0  0  0  0  0  0  0  0  0  0  0  0
  188.1660  173.6380  135.4400 C   0  0  2  0  0  3  0  0  0  0  0  0
  185.9640  174.5570  135.8300 N   0  0  0  0  0  2  0  0  0  0  0  0
  189.3970  175.9130  135.1210 C   0  0  0  0  0  2  0  0  0  0  0  0
  189.3460  173.3410  136.3390 C   0  0  0  0  0  3  0  0  0  0  0  0
  190.5070  173.9850  136.1760 C   0  0  0  0  0  3  0  0  0  0  0  0
  190.6380  175.0250  135.1050 C   0  0  0  0  0  2  0  0  0  0  0  0
  1  6  1  0  0  0  0
  3  2  2  0  0  0  0
  4  1  2  0  0  0  0
  4  3  1  0  0  0  0
  5  3  1  0  0  0  0
  5  8  1  0  0  0  0
  6  2  1  0  0  0  0
  7  8  2  0  0  0  0
  7 10  1  0  0  0  0
  9 14  1  0  0  0  0
 10 12  2  0  0  0  0
 12 11  1  0  0  0  0
 13 10  1  0  0  0  0
 13  9  2  0  0  0  0
 14 11  2  0  0  0  0
 15 17  1  0  0  0  0
 16 17  1  0  0  0  0
 18 20  1  0  0  0  0
 18 15  1  0  0  0  0
 20 14  1  6  0  0  0
 20 21  1  0  0  0  0
 21 16  1  0  0  0  0
 21 19  1  1  0  0  0
 22 23  1  0  0  0  0
 23  7  1  0  0  0  0
 24  1  1  0  0  0  0
 25 24  3  0  0  0  0
 26 25  1  0  0  0  0
 27 26  1  0  0  0  0
 28 29  2  0  0  0  0
 29 27  1  0  0  0  0
 30 34  1  1  0  0  0
 30 29  1  0  0  0  0
 31 30  1  0  0  0  0
 32 31  2  0  0  0  0
 33 31  1  0  0  0  0
 36 35  1  6  0  0  0
 37 36  1  0  0  0  0
 37 34  1  0  0  0  0
 38 37  2  0  0  0  0
 39 36  1  0  0  0  0
 39 41  1  1  0  0  0
 40 38  1  0  0  0  0
 40 39  1  0  0  0  0
 41 42  1  0  0  0  0
 43  4  1  0  0  0  0
 44 43  1  0  0  0  0
 46 45  1  1  0  0  0
 46 44  1  0  0  0  0
 47 46  1  0  0  0  0
 48 49  1  0  0  0  0
 48 47  1  0  0  0  0
 50 54  1  0  0  0  0
 51 56  1  0  0  0  0
 51 49  1  1  0  0  0
 52 57  1  1  0  0  0
 52 55  1  0  0  0  0
 52 51  1  0  0  0  0
 54 53  1  0  0  0  0
 55 54  1  0  0  0  0
 55 58  1  1  0  0  0
 56 54  1  0  0  0  0
 59 58  2  0  0  0  0
 60 57  1  0  0  0  0
 60 59  1  0  0  0  0
M  END
>  <MODEL>
7

>  <REMARK>
 VINA RESULT:      -4.5      4.138      7.192
  Name = 
  19 active torsions:
  status: ('A' for Active; 'I' for Inactive)
    1  A    between atoms: C_1  and  C_24
    2  A    between atoms: C_1  and  N_42
    3  A    between atoms: C_4  and  C_19
    4  A    between atoms: C_6  and  S_50
    5  A    between atoms: C_7  and  C_9
    6  A    between atoms: C_9  and  O_56
    7  A    between atoms: C_14  and  C_37
    8  A    between atoms: C_19  and  C_44
    9  A    between atoms: C_19  and  C_51
   10  A    between atoms: N_26  and  C_53
   11  A    between atoms: N_27  and  N_57
   12  A    between atoms: C_29  and  C_44
   13  A    between atoms: C_30  and  C_34
   14  A    between atoms: C_30  and  S_50
   15  A    between atoms: C_34  and  C_43
   16  A    between atoms: C_38  and  C_54
   17  A    between atoms: N_42  and  C_43
   18  A    between atoms: C_47  and  C_53
   19  A    between atoms: C_52  and  C_58
                            x       y       z     vdW  Elec       q    Type
                         _______ _______ _______ _____ _____    ______ ____

>  <TORSDO>
F 19

$$$$
