=
 OpenBabel10222418103D

 25 26  0  0  1  0  0  0  0  0999 V2000
  187.2550  177.3190  143.1580 C   0  0  0  0  0  2  0  0  0  0  0  0
  190.2330  177.4020  144.7020 C   0  0  0  0  0  0  0  0  0  0  0  0
  190.2800  178.4000  142.6610 N   0  0  0  0  0  2  0  0  0  0  0  0
  188.1050  177.6910  142.0740 N   0  0  0  0  0  0  0  0  0  0  0  0
  189.3050  176.6390  143.8150 C   0  0  1  0  0  3  0  0  0  0  0  0
  187.8890  176.7770  144.1520 N   0  0  0  0  0  2  0  0  0  0  0  0
  190.8390  178.3300  143.9630 C   0  0  0  0  0  0  0  0  0  0  0  0
  189.4090  177.4470  142.5780 C   0  0  2  0  0  3  0  0  0  0  0  0
  191.7800  179.3670  144.4770 C   0  0  0  0  0  1  0  0  0  0  0  0
  189.5620  177.4430  146.9910 N   0  0  0  0  0  2  0  0  0  0  0  0
  190.4650  177.1050  146.1310 C   0  0  0  0  0  0  0  0  0  0  0  0
  191.6370  176.3310  146.5880 C   0  0  0  0  0  0  0  0  0  0  0  0
  192.2220  176.5800  147.8620 N   0  0  0  0  0  1  0  0  0  0  0  0
  192.1560  175.4680  145.8320 O   0  0  0  0  0  0  0  0  0  0  0  0
  187.7480  178.6620  141.0440 C   0  0  0  0  0  2  0  0  0  0  0  0
  186.4710  178.2520  140.3180 C   0  0  2  0  0  3  0  0  0  0  0  0
  186.6120  178.4720  138.9460 O   0  0  0  0  0  1  0  0  0  0  0  0
  185.2560  179.0000  140.8590 C   0  0  1  0  0  3  0  0  0  0  0  0
  184.6930  179.8140  139.8730 O   0  0  0  0  0  1  0  0  0  0  0  0
  184.3000  178.0960  141.3290 O   0  0  0  0  0  0  0  0  0  0  0  0
  183.5740  178.8140  142.2830 C   0  0  0  0  0  2  0  0  0  0  0  0
  184.5120  179.3890  143.3280 C   0  0  0  0  0  2  0  0  0  0  0  0
  184.1600  178.8470  144.7010 C   0  0  0  0  0  2  0  0  0  0  0  0
  185.2860  179.1230  145.6830 C   0  0  0  0  0  2  0  0  0  0  0  0
  184.9680  178.5460  146.9780 N   0  0  0  0  0  1  0  0  0  0  0  0
  1  6  1  0  0  0  0
  2 11  1  0  0  0  0
  3  7  1  0  0  0  0
  4  8  1  0  0  0  0
  4  1  1  0  0  0  0
  5  6  1  1  0  0  0
  5  2  1  0  0  0  0
  7  9  1  0  0  0  0
  7  2  2  0  0  0  0
  8  3  1  1  0  0  0
  8  5  1  0  0  0  0
 11 12  1  0  0  0  0
 11 10  2  0  0  0  0
 12 13  1  0  0  0  0
 14 12  2  0  0  0  0
 15  4  1  0  0  0  0
 16 17  1  6  0  0  0
 16 18  1  0  0  0  0
 16 15  1  0  0  0  0
 18 19  1  6  0  0  0
 18 20  1  0  0  0  0
 20 21  1  0  0  0  0
 21 22  1  0  0  0  0
 22 23  1  0  0  0  0
 23 24  1  0  0  0  0
 24 25  1  0  0  0  0
M  END
>  <MODEL>
1

>  <REMARK>
 VINA RESULT:      -6.8      0.000      0.000
  Name = 
  10 active torsions:
  status: ('A' for Active; 'I' for Inactive)
    1  A    between atoms: C_1  and  C_15
    2  A    between atoms: C_2  and  C_18
    3  A    between atoms: C_3  and  N_11
    4  A    between atoms: C_3  and  C_21
    5  A    between atoms: C_8  and  C_18
    6  A    between atoms: C_10  and  C_21
    7  A    between atoms: C_10  and  O_25
    8  A    between atoms: C_12  and  C_15
    9  A    between atoms: C_12  and  C_20
   10  A    between atoms: C_20  and  O_25
                            x       y       z     vdW  Elec       q    Type
                         _______ _______ _______ _____ _____    ______ ____

>  <TORSDO>
F 10

$$$$
=
 OpenBabel10222418103D

 25 26  0  0  1  0  0  0  0  0999 V2000
  191.7690  177.7420  141.7290 C   0  0  0  0  0  2  0  0  0  0  0  0
  188.7500  177.6580  140.2670 C   0  0  0  0  0  0  0  0  0  0  0  0
  188.6230  177.6430  142.5350 N   0  0  0  0  0  2  0  0  0  0  0  0
  190.9490  177.3730  142.8360 N   0  0  0  0  0  0  0  0  0  0  0  0
  189.9180  176.8760  140.7710 C   0  0  1  0  0  3  0  0  0  0  0  0
  191.2140  177.5220  140.5760 N   0  0  0  0  0  2  0  0  0  0  0  0
  187.9900  177.9820  141.3110 C   0  0  0  0  0  0  0  0  0  0  0  0
  189.7150  177.0210  142.2310 C   0  0  2  0  0  3  0  0  0  0  0  0
  186.7710  178.8410  141.2620 C   0  0  0  0  0  1  0  0  0  0  0  0
  188.9490  179.0330  138.3270 N   0  0  0  0  0  2  0  0  0  0  0  0
  188.4800  177.9440  138.8430 C   0  0  0  0  0  0  0  0  0  0  0  0
  187.7970  176.9720  137.9660 C   0  0  0  0  0  0  0  0  0  0  0  0
  188.4960  175.8460  137.4430 N   0  0  0  0  0  1  0  0  0  0  0  0
  186.5940  177.1550  137.6380 O   0  0  0  0  0  0  0  0  0  0  0  0
  191.1290  177.8720  144.1960 C   0  0  0  0  0  2  0  0  0  0  0  0
  191.7170  176.7980  145.1050 C   0  0  2  0  0  3  0  0  0  0  0  0
  191.7930  175.5840  144.4190 O   0  0  0  0  0  1  0  0  0  0  0  0
  190.9020  176.6420  146.3860 C   0  0  1  0  0  3  0  0  0  0  0  0
  191.6970  176.8630  147.5130 O   0  0  0  0  0  1  0  0  0  0  0  0
  189.8240  177.5310  146.3850 O   0  0  0  0  0  0  0  0  0  0  0  0
  189.1460  177.2650  147.5780 C   0  0  0  0  0  2  0  0  0  0  0  0
  187.6940  177.6870  147.4570 C   0  0  0  0  0  2  0  0  0  0  0  0
  187.3000  177.7950  145.9950 C   0  0  0  0  0  2  0  0  0  0  0  0
  185.9880  178.5490  145.8560 C   0  0  0  0  0  2  0  0  0  0  0  0
  185.6720  179.2270  147.1020 N   0  0  0  0  0  1  0  0  0  0  0  0
  1  4  1  0  0  0  0
  2  7  2  0  0  0  0
  4 15  1  0  0  0  0
  5  2  1  6  0  0  0
  5  8  1  0  0  0  0
  6  5  1  0  0  0  0
  6  1  1  0  0  0  0
  7  3  1  0  0  0  0
  8  3  1  6  0  0  0
  8  4  1  0  0  0  0
  9  7  1  0  0  0  0
 10 11  2  0  0  0  0
 11  2  1  0  0  0  0
 12 11  1  0  0  0  0
 13 12  1  0  0  0  0
 14 12  2  0  0  0  0
 15 16  1  0  0  0  0
 16 17  1  6  0  0  0
 16 18  1  0  0  0  0
 18 19  1  1  0  0  0
 20 18  1  0  0  0  0
 20 21  1  0  0  0  0
 22 21  1  0  0  0  0
 23 22  1  0  0  0  0
 24 23  1  0  0  0  0
 24 25  1  0  0  0  0
M  END
>  <MODEL>
2

>  <REMARK>
 VINA RESULT:      -6.7      2.345      6.565
  Name = 
  10 active torsions:
  status: ('A' for Active; 'I' for Inactive)
    1  A    between atoms: C_1  and  C_15
    2  A    between atoms: C_2  and  C_18
    3  A    between atoms: C_3  and  N_11
    4  A    between atoms: C_3  and  C_21
    5  A    between atoms: C_8  and  C_18
    6  A    between atoms: C_10  and  C_21
    7  A    between atoms: C_10  and  O_25
    8  A    between atoms: C_12  and  C_15
    9  A    between atoms: C_12  and  C_20
   10  A    between atoms: C_20  and  O_25
                            x       y       z     vdW  Elec       q    Type
                         _______ _______ _______ _____ _____    ______ ____

>  <TORSDO>
F 10

$$$$
=
 OpenBabel10222418103D

 25 26  0  0  1  0  0  0  0  0999 V2000
  188.3580  177.4980  142.1960 C   0  0  0  0  0  2  0  0  0  0  0  0
  188.8770  177.7310  138.8890 C   0  0  0  0  0  0  0  0  0  0  0  0
  190.4040  176.4020  139.9210 N   0  0  0  0  0  2  0  0  0  0  0  0
  189.6770  176.9630  142.0960 N   0  0  0  0  0  0  0  0  0  0  0  0
  189.1330  178.3150  140.2400 C   0  0  1  0  0  3  0  0  0  0  0  0
  188.0100  178.2120  141.1690 N   0  0  0  0  0  2  0  0  0  0  0  0
  189.7070  176.7020  138.7220 C   0  0  0  0  0  0  0  0  0  0  0  0
  190.0770  177.3120  140.7810 C   0  0  2  0  0  3  0  0  0  0  0  0
  189.7220  175.7830  137.5480 C   0  0  0  0  0  1  0  0  0  0  0  0
  188.3490  179.0560  136.9760 N   0  0  0  0  0  2  0  0  0  0  0  0
  187.9140  178.2700  137.9070 C   0  0  0  0  0  0  0  0  0  0  0  0
  186.5000  177.8450  137.8840 C   0  0  0  0  0  0  0  0  0  0  0  0
  185.4940  178.6270  138.5210 N   0  0  0  0  0  1  0  0  0  0  0  0
  186.1770  176.7590  137.3330 O   0  0  0  0  0  0  0  0  0  0  0  0
  190.1630  175.8250  142.8710 C   0  0  0  0  0  2  0  0  0  0  0  0
  191.3890  176.2020  143.6960 C   0  0  2  0  0  3  0  0  0  0  0  0
  192.0670  175.0480  144.0960 O   0  0  0  0  0  1  0  0  0  0  0  0
  191.0080  177.0480  144.9080 C   0  0  1  0  0  3  0  0  0  0  0  0
  191.0090  178.4080  144.5860 O   0  0  0  0  0  1  0  0  0  0  0  0
  189.7490  176.6750  145.3830 O   0  0  0  0  0  0  0  0  0  0  0  0
  189.1670  177.8700  145.8170 C   0  0  0  0  0  2  0  0  0  0  0  0
  187.9470  177.5750  146.6690 C   0  0  0  0  0  2  0  0  0  0  0  0
  186.6820  177.9520  145.9200 C   0  0  0  0  0  2  0  0  0  0  0  0
  185.7260  178.6960  146.8370 C   0  0  0  0  0  2  0  0  0  0  0  0
  184.4330  178.8440  146.1910 N   0  0  0  0  0  1  0  0  0  0  0  0
  4  1  1  0  0  0  0
  4 15  1  0  0  0  0
  5  2  1  6  0  0  0
  5  8  1  0  0  0  0
  5  6  1  0  0  0  0
  6  1  1  0  0  0  0
  7  2  2  0  0  0  0
  7  3  1  0  0  0  0
  8  3  1  6  0  0  0
  8  4  1  0  0  0  0
  9  7  1  0  0  0  0
 10 11  2  0  0  0  0
 11  2  1  0  0  0  0
 12 11  1  0  0  0  0
 12 13  1  0  0  0  0
 14 12  2  0  0  0  0
 15 16  1  0  0  0  0
 16 17  1  1  0  0  0
 16 18  1  0  0  0  0
 18 19  1  6  0  0  0
 18 20  1  0  0  0  0
 20 21  1  0  0  0  0
 21 22  1  0  0  0  0
 23 22  1  0  0  0  0
 23 24  1  0  0  0  0
 25 24  1  0  0  0  0
M  END
>  <MODEL>
3

>  <REMARK>
 VINA RESULT:      -6.7      2.910      6.581
  Name = 
  10 active torsions:
  status: ('A' for Active; 'I' for Inactive)
    1  A    between atoms: C_1  and  C_15
    2  A    between atoms: C_2  and  C_18
    3  A    between atoms: C_3  and  N_11
    4  A    between atoms: C_3  and  C_21
    5  A    between atoms: C_8  and  C_18
    6  A    between atoms: C_10  and  C_21
    7  A    between atoms: C_10  and  O_25
    8  A    between atoms: C_12  and  C_15
    9  A    between atoms: C_12  and  C_20
   10  A    between atoms: C_20  and  O_25
                            x       y       z     vdW  Elec       q    Type
                         _______ _______ _______ _____ _____    ______ ____

>  <TORSDO>
F 10

$$$$
=
 OpenBabel10222418103D

 25 26  0  0  1  0  0  0  0  0999 V2000
  187.6640  177.6230  142.8440 C   0  0  0  0  0  2  0  0  0  0  0  0
  189.1820  178.1040  139.8910 C   0  0  0  0  0  0  0  0  0  0  0  0
  190.6100  177.3630  141.4960 N   0  0  0  0  0  2  0  0  0  0  0  0
  189.0340  177.5820  143.2400 N   0  0  0  0  0  0  0  0  0  0  0  0
  188.7450  178.7070  141.1850 C   0  0  1  0  0  3  0  0  0  0  0  0
  187.4730  178.1970  141.6950 N   0  0  0  0  0  2  0  0  0  0  0  0
  190.3110  177.4320  140.1100 C   0  0  0  0  0  0  0  0  0  0  0  0
  189.7220  178.0810  142.1040 C   0  0  2  0  0  3  0  0  0  0  0  0
  191.0360  176.6050  139.1030 C   0  0  0  0  0  1  0  0  0  0  0  0
  188.8950  179.2500  137.8180 N   0  0  0  0  0  2  0  0  0  0  0  0
  188.4960  178.2990  138.5970 C   0  0  0  0  0  0  0  0  0  0  0  0
  187.4530  177.3700  138.1160 C   0  0  0  0  0  0  0  0  0  0  0  0
  187.7940  176.0630  137.6630 N   0  0  0  0  0  1  0  0  0  0  0  0
  186.2510  177.7440  138.0650 O   0  0  0  0  0  0  0  0  0  0  0  0
  189.5740  176.6660  144.2410 C   0  0  0  0  0  2  0  0  0  0  0  0
  190.3670  177.4150  145.3060 C   0  0  2  0  0  3  0  0  0  0  0  0
  191.6260  177.7580  144.8070 O   0  0  0  0  0  1  0  0  0  0  0  0
  190.5020  176.5930  146.5840 C   0  0  1  0  0  3  0  0  0  0  0  0
  191.4970  177.1190  147.4120 O   0  0  0  0  0  1  0  0  0  0  0  0
  189.2850  176.5600  147.2690 O   0  0  0  0  0  0  0  0  0  0  0  0
  189.0600  177.8850  147.6520 C   0  0  0  0  0  2  0  0  0  0  0  0
  187.5730  178.1300  147.8310 C   0  0  0  0  0  2  0  0  0  0  0  0
  186.8310  177.8060  146.5470 C   0  0  0  0  0  2  0  0  0  0  0  0
  185.8850  178.9380  146.1840 C   0  0  0  0  0  2  0  0  0  0  0  0
  184.5300  178.6000  146.5840 N   0  0  0  0  0  1  0  0  0  0  0  0
  1  4  1  0  0  0  0
  2  7  2  0  0  0  0
  4 15  1  0  0  0  0
  5  2  1  6  0  0  0
  5  6  1  0  0  0  0
  5  8  1  0  0  0  0
  6  1  1  0  0  0  0
  7  3  1  0  0  0  0
  8  3  1  6  0  0  0
  8  4  1  0  0  0  0
  9  7  1  0  0  0  0
 10 11  2  0  0  0  0
 11  2  1  0  0  0  0
 12 11  1  0  0  0  0
 13 12  1  0  0  0  0
 14 12  2  0  0  0  0
 15 16  1  0  0  0  0
 16 17  1  6  0  0  0
 16 18  1  0  0  0  0
 18 20  1  0  0  0  0
 18 19  1  1  0  0  0
 20 21  1  0  0  0  0
 21 22  1  0  0  0  0
 23 22  1  0  0  0  0
 24 23  1  0  0  0  0
 24 25  1  0  0  0  0
M  END
>  <MODEL>
4

>  <REMARK>
 VINA RESULT:      -6.6      2.460      6.415
  Name = 
  10 active torsions:
  status: ('A' for Active; 'I' for Inactive)
    1  A    between atoms: C_1  and  C_15
    2  A    between atoms: C_2  and  C_18
    3  A    between atoms: C_3  and  N_11
    4  A    between atoms: C_3  and  C_21
    5  A    between atoms: C_8  and  C_18
    6  A    between atoms: C_10  and  C_21
    7  A    between atoms: C_10  and  O_25
    8  A    between atoms: C_12  and  C_15
    9  A    between atoms: C_12  and  C_20
   10  A    between atoms: C_20  and  O_25
                            x       y       z     vdW  Elec       q    Type
                         _______ _______ _______ _____ _____    ______ ____

>  <TORSDO>
F 10

$$$$
=
 OpenBabel10222418103D

 25 26  0  0  1  0  0  0  0  0999 V2000
  186.2570  178.1070  143.9290 C   0  0  0  0  0  2  0  0  0  0  0  0
  189.4760  177.6140  144.7380 C   0  0  0  0  0  0  0  0  0  0  0  0
  189.2120  178.3010  142.5880 N   0  0  0  0  0  2  0  0  0  0  0  0
  186.8590  178.1080  142.6350 N   0  0  0  0  0  0  0  0  0  0  0  0
  188.2070  177.0110  144.2330 C   0  0  1  0  0  3  0  0  0  0  0  0
  186.9920  177.5500  144.8420 N   0  0  0  0  0  2  0  0  0  0  0  0
  190.0590  178.2540  143.7260 C   0  0  0  0  0  0  0  0  0  0  0  0
  188.1620  177.6010  142.8760 C   0  0  2  0  0  3  0  0  0  0  0  0
  191.3040  179.0700  143.8190 C   0  0  0  0  0  1  0  0  0  0  0  0
  189.3060  177.9120  147.0990 N   0  0  0  0  0  2  0  0  0  0  0  0
  189.9990  177.4500  146.1100 C   0  0  0  0  0  0  0  0  0  0  0  0
  191.2220  176.6730  146.3930 C   0  0  0  0  0  0  0  0  0  0  0  0
  191.8370  176.7240  147.6770 N   0  0  0  0  0  1  0  0  0  0  0  0
  191.7590  175.9880  145.4820 O   0  0  0  0  0  0  0  0  0  0  0  0
  186.4690  179.0000  141.5470 C   0  0  0  0  0  2  0  0  0  0  0  0
  184.9850  178.8620  141.2240 C   0  0  2  0  0  3  0  0  0  0  0  0
  184.4930  177.6680  141.7540 O   0  0  0  0  0  1  0  0  0  0  0  0
  184.7320  178.9260  139.7200 C   0  0  1  0  0  3  0  0  0  0  0  0
  184.2640  180.1890  139.3480 O   0  0  0  0  0  1  0  0  0  0  0  0
  185.9040  178.6300  139.0190 O   0  0  0  0  0  0  0  0  0  0  0  0
  185.4740  177.9050  137.9040 C   0  0  0  0  0  2  0  0  0  0  0  0
  186.6690  177.3900  137.1250 C   0  0  0  0  0  2  0  0  0  0  0  0
  187.3550  178.5340  136.4010 C   0  0  0  0  0  2  0  0  0  0  0  0
  188.8260  178.5900  136.7760 C   0  0  0  0  0  2  0  0  0  0  0  0
  188.9820  179.2060  138.0830 N   0  0  0  0  0  1  0  0  0  0  0  0
  1  6  1  0  0  0  0
  2 11  1  0  0  0  0
  3  7  1  0  0  0  0
  4  8  1  0  0  0  0
  4  1  1  0  0  0  0
  5  2  1  1  0  0  0
  5  6  1  0  0  0  0
  7  9  1  0  0  0  0
  7  2  2  0  0  0  0
  8  3  1  1  0  0  0
  8  5  1  0  0  0  0
 11 12  1  0  0  0  0
 11 10  2  0  0  0  0
 12 13  1  0  0  0  0
 14 12  2  0  0  0  0
 15  4  1  0  0  0  0
 16 15  1  0  0  0  0
 16 17  1  6  0  0  0
 18 19  1  1  0  0  0
 18 16  1  0  0  0  0
 20 18  1  0  0  0  0
 21 20  1  0  0  0  0
 22 21  1  0  0  0  0
 23 24  1  0  0  0  0
 23 22  1  0  0  0  0
 24 25  1  0  0  0  0
M  END
>  <MODEL>
5

>  <REMARK>
 VINA RESULT:      -6.5      1.899      3.903
  Name = 
  10 active torsions:
  status: ('A' for Active; 'I' for Inactive)
    1  A    between atoms: C_1  and  C_15
    2  A    between atoms: C_2  and  C_18
    3  A    between atoms: C_3  and  N_11
    4  A    between atoms: C_3  and  C_21
    5  A    between atoms: C_8  and  C_18
    6  A    between atoms: C_10  and  C_21
    7  A    between atoms: C_10  and  O_25
    8  A    between atoms: C_12  and  C_15
    9  A    between atoms: C_12  and  C_20
   10  A    between atoms: C_20  and  O_25
                            x       y       z     vdW  Elec       q    Type
                         _______ _______ _______ _____ _____    ______ ____

>  <TORSDO>
F 10

$$$$
=
 OpenBabel10222418103D

 25 26  0  0  1  0  0  0  0  0999 V2000
  186.7840  177.5560  143.2870 C   0  0  0  0  0  2  0  0  0  0  0  0
  189.8480  177.5100  144.6530 C   0  0  0  0  0  0  0  0  0  0  0  0
  189.8500  178.3240  142.5320 N   0  0  0  0  0  2  0  0  0  0  0  0
  187.5930  177.7600  142.1300 N   0  0  0  0  0  0  0  0  0  0  0  0
  188.8080  176.7580  143.8890 C   0  0  1  0  0  3  0  0  0  0  0  0
  187.4320  177.0460  144.2900 N   0  0  0  0  0  2  0  0  0  0  0  0
  190.4820  178.3160  143.8030 C   0  0  0  0  0  0  0  0  0  0  0  0
  188.9010  177.4460  142.5820 C   0  0  2  0  0  3  0  0  0  0  0  0
  191.5340  179.3070  144.1700 C   0  0  0  0  0  1  0  0  0  0  0  0
  189.2610  177.6780  146.9600 N   0  0  0  0  0  2  0  0  0  0  0  0
  190.1440  177.3150  146.0880 C   0  0  0  0  0  0  0  0  0  0  0  0
  191.3590  176.6140  146.5480 C   0  0  0  0  0  0  0  0  0  0  0  0
  191.8710  176.8270  147.8600 N   0  0  0  0  0  1  0  0  0  0  0  0
  191.9800  175.8480  145.7640 O   0  0  0  0  0  0  0  0  0  0  0  0
  187.2530  178.6670  141.0380 C   0  0  0  0  0  2  0  0  0  0  0  0
  187.7750  178.1450  139.7030 C   0  0  2  0  0  3  0  0  0  0  0  0
  188.8850  178.8910  139.3020 O   0  0  0  0  0  1  0  0  0  0  0  0
  186.6910  178.1760  138.6290 C   0  0  1  0  0  3  0  0  0  0  0  0
  185.5300  178.7850  139.1120 O   0  0  0  0  0  1  0  0  0  0  0  0
  187.1480  178.8590  137.4990 O   0  0  0  0  0  0  0  0  0  0  0  0
  186.7620  178.0560  136.4220 C   0  0  0  0  0  2  0  0  0  0  0  0
  187.7040  176.8730  136.2910 C   0  0  0  0  0  2  0  0  0  0  0  0
  189.0570  177.3350  135.7830 C   0  0  0  0  0  2  0  0  0  0  0  0
  190.1710  176.5600  136.4670 C   0  0  0  0  0  2  0  0  0  0  0  0
  189.6410  175.8370  137.6110 N   0  0  0  0  0  1  0  0  0  0  0  0
  1  6  1  0  0  0  0
  2 11  1  0  0  0  0
  3  7  1  0  0  0  0
  4  8  1  0  0  0  0
  4  1  1  0  0  0  0
  5  6  1  1  0  0  0
  5  2  1  0  0  0  0
  7  9  1  0  0  0  0
  7  2  2  0  0  0  0
  8  3  1  1  0  0  0
  8  5  1  0  0  0  0
 11 12  1  0  0  0  0
 11 10  2  0  0  0  0
 12 13  1  0  0  0  0
 14 12  2  0  0  0  0
 15  4  1  0  0  0  0
 16 17  1  6  0  0  0
 16 15  1  0  0  0  0
 18 19  1  1  0  0  0
 18 16  1  0  0  0  0
 20 18  1  0  0  0  0
 21 20  1  0  0  0  0
 22 21  1  0  0  0  0
 23 22  1  0  0  0  0
 23 24  1  0  0  0  0
 24 25  1  0  0  0  0
M  END
>  <MODEL>
6

>  <REMARK>
 VINA RESULT:      -6.3      2.344      4.442
  Name = 
  10 active torsions:
  status: ('A' for Active; 'I' for Inactive)
    1  A    between atoms: C_1  and  C_15
    2  A    between atoms: C_2  and  C_18
    3  A    between atoms: C_3  and  N_11
    4  A    between atoms: C_3  and  C_21
    5  A    between atoms: C_8  and  C_18
    6  A    between atoms: C_10  and  C_21
    7  A    between atoms: C_10  and  O_25
    8  A    between atoms: C_12  and  C_15
    9  A    between atoms: C_12  and  C_20
   10  A    between atoms: C_20  and  O_25
                            x       y       z     vdW  Elec       q    Type
                         _______ _______ _______ _____ _____    ______ ____

>  <TORSDO>
F 10

$$$$
=
 OpenBabel10222418103D

 25 26  0  0  1  0  0  0  0  0999 V2000
  186.4960  177.5320  143.1150 C   0  0  0  0  0  2  0  0  0  0  0  0
  185.8380  178.7310  140.0510 C   0  0  0  0  0  0  0  0  0  0  0  0
  187.9870  178.0270  140.2700 N   0  0  0  0  0  2  0  0  0  0  0  0
  187.8180  177.6820  142.5990 N   0  0  0  0  0  0  0  0  0  0  0  0
  186.2650  179.0370  141.4490 C   0  0  1  0  0  3  0  0  0  0  0  0
  185.6080  178.2310  142.4760 N   0  0  0  0  0  2  0  0  0  0  0  0
  186.8930  178.2520  139.3940 C   0  0  0  0  0  0  0  0  0  0  0  0
  187.6310  178.4670  141.4330 C   0  0  2  0  0  3  0  0  0  0  0  0
  186.8820  177.7370  137.9940 C   0  0  0  0  0  1  0  0  0  0  0  0
  184.2070  180.1870  139.0950 N   0  0  0  0  0  2  0  0  0  0  0  0
  184.4910  178.9940  139.5050 C   0  0  0  0  0  0  0  0  0  0  0  0
  183.5040  177.9140  139.3040 C   0  0  0  0  0  0  0  0  0  0  0  0
  183.0530  177.1250  140.4010 N   0  0  0  0  0  1  0  0  0  0  0  0
  183.0810  177.6530  138.1460 O   0  0  0  0  0  0  0  0  0  0  0  0
  188.9050  176.7370  142.8360 C   0  0  0  0  0  2  0  0  0  0  0  0
  190.1570  177.4490  143.3370 C   0  0  2  0  0  3  0  0  0  0  0  0
  191.2610  177.0660  142.5710 O   0  0  0  0  0  1  0  0  0  0  0  0
  190.4060  177.1680  144.8160 C   0  0  1  0  0  3  0  0  0  0  0  0
  191.6760  177.6090  145.1990 O   0  0  0  0  0  1  0  0  0  0  0  0
  189.4320  177.7930  145.5980 O   0  0  0  0  0  0  0  0  0  0  0  0
  189.6560  177.3120  146.8910 C   0  0  0  0  0  2  0  0  0  0  0  0
  188.3340  177.1320  147.6160 C   0  0  0  0  0  2  0  0  0  0  0  0
  187.1820  177.5190  146.7070 C   0  0  0  0  0  2  0  0  0  0  0  0
  186.3530  178.6210  147.3460 C   0  0  0  0  0  2  0  0  0  0  0  0
  185.2690  179.0040  146.4560 N   0  0  0  0  0  1  0  0  0  0  0  0
  4 15  1  0  0  0  0
  4  1  1  0  0  0  0
  5  2  1  6  0  0  0
  5  6  1  0  0  0  0
  6  1  1  0  0  0  0
  7  2  2  0  0  0  0
  7  3  1  0  0  0  0
  8  3  1  6  0  0  0
  8  5  1  0  0  0  0
  8  4  1  0  0  0  0
  9  7  1  0  0  0  0
 10 11  2  0  0  0  0
 11  2  1  0  0  0  0
 12 11  1  0  0  0  0
 12 13  1  0  0  0  0
 14 12  2  0  0  0  0
 15 16  1  0  0  0  0
 16 17  1  6  0  0  0
 16 18  1  0  0  0  0
 18 19  1  1  0  0  0
 18 20  1  0  0  0  0
 20 21  1  0  0  0  0
 21 22  1  0  0  0  0
 23 24  1  0  0  0  0
 23 22  1  0  0  0  0
 25 24  1  0  0  0  0
M  END
>  <MODEL>
7

>  <REMARK>
 VINA RESULT:      -6.1      2.602      6.766
  Name = 
  10 active torsions:
  status: ('A' for Active; 'I' for Inactive)
    1  A    between atoms: C_1  and  C_15
    2  A    between atoms: C_2  and  C_18
    3  A    between atoms: C_3  and  N_11
    4  A    between atoms: C_3  and  C_21
    5  A    between atoms: C_8  and  C_18
    6  A    between atoms: C_10  and  C_21
    7  A    between atoms: C_10  and  O_25
    8  A    between atoms: C_12  and  C_15
    9  A    between atoms: C_12  and  C_20
   10  A    between atoms: C_20  and  O_25
                            x       y       z     vdW  Elec       q    Type
                         _______ _______ _______ _____ _____    ______ ____

>  <TORSDO>
F 10

$$$$
=
 OpenBabel10222418103D

 25 26  0  0  1  0  0  0  0  0999 V2000
  191.4870  177.4500  143.9300 C   0  0  0  0  0  2  0  0  0  0  0  0
  190.3880  176.9870  140.7930 C   0  0  0  0  0  0  0  0  0  0  0  0
  188.7270  177.5960  142.2190 N   0  0  0  0  0  2  0  0  0  0  0  0
  190.0770  177.4040  144.1460 N   0  0  0  0  0  0  0  0  0  0  0  0
  190.6910  176.3660  142.1170 C   0  0  1  0  0  3  0  0  0  0  0  0
  191.8550  176.9260  142.8000 N   0  0  0  0  0  2  0  0  0  0  0  0
  189.2040  177.5900  140.8820 C   0  0  0  0  0  0  0  0  0  0  0  0
  189.5700  176.9070  142.9180 C   0  0  2  0  0  3  0  0  0  0  0  0
  188.5660  178.4100  139.8120 C   0  0  0  0  0  1  0  0  0  0  0  0
  192.4470  177.3440  139.6410 N   0  0  0  0  0  2  0  0  0  0  0  0
  191.2440  176.8730  139.5940 C   0  0  0  0  0  0  0  0  0  0  0  0
  190.8100  176.1350  138.3910 C   0  0  0  0  0  0  0  0  0  0  0  0
  190.3260  176.8290  137.2450 N   0  0  0  0  0  1  0  0  0  0  0  0
  190.8250  174.8750  138.3850 O   0  0  0  0  0  0  0  0  0  0  0  0
  189.3620  178.2560  145.0920 C   0  0  0  0  0  2  0  0  0  0  0  0
  189.3860  177.6630  146.4970 C   0  0  2  0  0  3  0  0  0  0  0  0
  190.2390  176.5580  146.5320 O   0  0  0  0  0  1  0  0  0  0  0  0
  187.9850  177.2760  146.9640 C   0  0  1  0  0  3  0  0  0  0  0  0
  187.6980  177.8500  148.2040 O   0  0  0  0  0  1  0  0  0  0  0  0
  187.0330  177.6780  146.0240 O   0  0  0  0  0  0  0  0  0  0  0  0
  186.0520  178.3330  146.7730 C   0  0  0  0  0  2  0  0  0  0  0  0
  184.8620  178.6690  145.8940 C   0  0  0  0  0  2  0  0  0  0  0  0
  185.2890  178.7340  144.4390 C   0  0  0  0  0  2  0  0  0  0  0  0
  184.0790  178.9370  143.5420 C   0  0  0  0  0  2  0  0  0  0  0  0
  184.2470  178.1880  142.3070 N   0  0  0  0  0  1  0  0  0  0  0  0
  1  4  1  0  0  0  0
  2  7  2  0  0  0  0
  4 15  1  0  0  0  0
  5  2  1  6  0  0  0
  5  6  1  0  0  0  0
  5  8  1  0  0  0  0
  6  1  1  0  0  0  0
  7  3  1  0  0  0  0
  8  3  1  6  0  0  0
  8  4  1  0  0  0  0
  9  7  1  0  0  0  0
 11 10  2  0  0  0  0
 11  2  1  0  0  0  0
 12 11  1  0  0  0  0
 13 12  1  0  0  0  0
 14 12  2  0  0  0  0
 15 16  1  0  0  0  0
 16 17  1  6  0  0  0
 16 18  1  0  0  0  0
 18 19  1  1  0  0  0
 20 21  1  0  0  0  0
 20 18  1  0  0  0  0
 22 21  1  0  0  0  0
 23 22  1  0  0  0  0
 24 23  1  0  0  0  0
 25 24  1  0  0  0  0
M  END
>  <MODEL>
8

>  <REMARK>
 VINA RESULT:      -6.1      3.016      5.747
  Name = 
  10 active torsions:
  status: ('A' for Active; 'I' for Inactive)
    1  A    between atoms: C_1  and  C_15
    2  A    between atoms: C_2  and  C_18
    3  A    between atoms: C_3  and  N_11
    4  A    between atoms: C_3  and  C_21
    5  A    between atoms: C_8  and  C_18
    6  A    between atoms: C_10  and  C_21
    7  A    between atoms: C_10  and  O_25
    8  A    between atoms: C_12  and  C_15
    9  A    between atoms: C_12  and  C_20
   10  A    between atoms: C_20  and  O_25
                            x       y       z     vdW  Elec       q    Type
                         _______ _______ _______ _____ _____    ______ ____

>  <TORSDO>
F 10

$$$$
=
 OpenBabel10222418103D

 25 26  0  0  1  0  0  0  0  0999 V2000
  186.5210  178.5170  145.4690 C   0  0  0  0  0  2  0  0  0  0  0  0
  188.5270  177.1310  143.1630 C   0  0  0  0  0  0  0  0  0  0  0  0
  186.7530  178.2110  142.2410 N   0  0  0  0  0  2  0  0  0  0  0  0
  185.6870  178.5890  144.3140 N   0  0  0  0  0  0  0  0  0  0  0  0
  187.3670  176.9460  144.0860 C   0  0  1  0  0  3  0  0  0  0  0  0
  187.4850  177.6530  145.3600 N   0  0  0  0  0  2  0  0  0  0  0  0
  188.0920  177.7700  142.0790 C   0  0  0  0  0  0  0  0  0  0  0  0
  186.3440  177.7490  143.3780 C   0  0  2  0  0  3  0  0  0  0  0  0
  188.9450  178.2340  140.9460 C   0  0  0  0  0  1  0  0  0  0  0  0
  190.2500  175.5110  142.8480 N   0  0  0  0  0  2  0  0  0  0  0  0
  189.8900  176.6170  143.4110 C   0  0  0  0  0  0  0  0  0  0  0  0
  190.8880  177.3870  144.1810 C   0  0  0  0  0  0  0  0  0  0  0  0
  191.2320  178.7170  143.8040 N   0  0  0  0  0  1  0  0  0  0  0  0
  191.4760  176.8550  145.1600 O   0  0  0  0  0  0  0  0  0  0  0  0
  184.8180  179.7180  143.9960 C   0  0  0  0  0  2  0  0  0  0  0  0
  183.4100  179.5020  144.5410 C   0  0  2  0  0  3  0  0  0  0  0  0
  183.4760  179.0020  145.8440 O   0  0  0  0  0  1  0  0  0  0  0  0
  182.6010  178.5660  143.6470 C   0  0  1  0  0  3  0  0  0  0  0  0
  181.2390  178.6450  143.9480 O   0  0  0  0  0  1  0  0  0  0  0  0
  182.8080  178.8830  142.3020 O   0  0  0  0  0  0  0  0  0  0  0  0
  181.5790  178.6290  141.6870 C   0  0  0  0  0  2  0  0  0  0  0  0
  181.7760  178.4160  140.1970 C   0  0  0  0  0  2  0  0  0  0  0  0
  183.2240  178.0670  139.9060 C   0  0  0  0  0  2  0  0  0  0  0  0
  183.7150  178.8260  138.6840 C   0  0  0  0  0  2  0  0  0  0  0  0
  184.5540  179.9390  139.0960 N   0  0  0  0  0  1  0  0  0  0  0  0
  2 11  1  0  0  0  0
  4  1  1  0  0  0  0
  5  2  1  6  0  0  0
  5  6  1  0  0  0  0
  6  1  1  0  0  0  0
  7  3  1  0  0  0  0
  7  2  2  0  0  0  0
  8  3  1  6  0  0  0
  8  5  1  0  0  0  0
  8  4  1  0  0  0  0
  9  7  1  0  0  0  0
 10 11  2  0  0  0  0
 11 12  1  0  0  0  0
 12 14  2  0  0  0  0
 13 12  1  0  0  0  0
 15  4  1  0  0  0  0
 15 16  1  0  0  0  0
 16 17  1  1  0  0  0
 18 19  1  1  0  0  0
 18 16  1  0  0  0  0
 20 18  1  0  0  0  0
 21 20  1  0  0  0  0
 22 21  1  0  0  0  0
 23 22  1  0  0  0  0
 24 25  1  0  0  0  0
 24 23  1  0  0  0  0
M  END
>  <MODEL>
9

>  <REMARK>
 VINA RESULT:      -6.0      2.316      4.312
  Name = 
  10 active torsions:
  status: ('A' for Active; 'I' for Inactive)
    1  A    between atoms: C_1  and  C_15
    2  A    between atoms: C_2  and  C_18
    3  A    between atoms: C_3  and  N_11
    4  A    between atoms: C_3  and  C_21
    5  A    between atoms: C_8  and  C_18
    6  A    between atoms: C_10  and  C_21
    7  A    between atoms: C_10  and  O_25
    8  A    between atoms: C_12  and  C_15
    9  A    between atoms: C_12  and  C_20
   10  A    between atoms: C_20  and  O_25
                            x       y       z     vdW  Elec       q    Type
                         _______ _______ _______ _____ _____    ______ ____

>  <TORSDO>
F 10

$$$$
