=
 OpenBabel10222420113D

 27 32  0  0  1  0  0  0  0  0999 V2000
  189.5210  177.3980  141.5730 N   0  0  0  0  0  0  0  0  0  0  0  0
  187.9100  176.5380  143.1700 C   0  0  0  0  0  2  0  0  0  0  0  0
  184.1350  178.5600  145.9040 C   0  0  0  0  0  3  0  0  0  0  0  0
  186.8280  178.2520  145.3450 C   0  0  0  0  0  0  0  0  0  0  0  0
  191.1010  175.8590  144.4910 C   0  0  0  0  0  2  0  0  0  0  0  0
  192.6010  175.3680  146.4540 C   0  0  0  0  0  3  0  0  0  0  0  0
  190.5820  177.3550  142.5410 C   0  0  0  0  0  0  0  0  0  0  0  0
  186.3470  178.1660  146.6410 C   0  0  0  0  0  0  0  0  0  0  0  0
  191.1560  176.9730  146.9110 C   0  0  0  0  0  0  0  0  0  0  0  0
  185.0230  178.3210  146.9070 N   0  0  0  0  0  0  0  0  0  0  0  0
  188.3150  178.1490  145.2010 C   0  0  2  0  0  3  0  0  0  0  0  0
  188.7940  176.9260  144.3620 C   0  0  2  0  0  3  0  0  0  0  0  0
  185.9430  178.5350  144.3020 C   0  0  0  0  0  3  0  0  0  0  0  0
  190.2940  177.0590  143.9900 C   0  0  1  0  0  3  0  0  0  0  0  0
  188.1390  177.4910  142.0110 C   0  0  0  0  0  2  0  0  0  0  0  0
  191.7720  177.5670  142.1820 O   0  0  0  0  0  0  0  0  0  0  0  0
  187.5680  177.9900  147.9190 S   0  0  0  0  0  0  0  0  0  0  0  0
  189.9940  177.5560  146.8660 C   0  0  0  0  0  0  0  0  0  0  0  0
  184.5800  178.6760  144.5810 C   0  0  0  0  0  3  0  0  0  0  0  0
  192.7170  175.7720  147.8250 N   0  0  0  0  0  0  0  0  0  0  0  0
  191.6560  176.0920  145.8720 C   0  0  0  0  0  0  0  0  0  0  0  0
  191.8690  176.6800  148.0980 N   0  0  0  0  0  0  0  0  0  0  0  0
  188.8170  178.0620  146.6320 C   0  0  0  0  0  0  0  0  0  0  0  0
  189.8000  177.4410  140.1440 C   0  0  0  0  0  2  0  0  0  0  0  0
  188.6650  178.1290  139.4070 C   0  0  0  0  0  3  0  0  0  0  0  0
  188.2690  177.2890  138.2130 C   0  0  0  0  0  2  0  0  0  0  0  0
  189.1330  178.5170  138.0200 C   0  0  0  0  0  2  0  0  0  0  0  0
  1 15  1  0  0  0  0
  1  7  1  0  0  0  0
  3 10  1  0  0  0  0
  4  8  1  0  0  0  0
  5 21  1  0  0  0  0
  6 20  1  0  0  0  0
  7 14  1  0  0  0  0
  8 10  2  0  0  0  0
  8 17  1  0  0  0  0
  9 22  1  0  0  0  0
 11  4  1  1  0  0  0
 11 23  1  0  0  0  0
 12  2  1  6  0  0  0
 12 11  1  0  0  0  0
 13 19  1  0  0  0  0
 13  4  2  0  0  0  0
 14 12  1  0  0  0  0
 14  5  1  6  0  0  0
 15  2  1  0  0  0  0
 16  7  2  0  0  0  0
 18  9  2  0  0  0  0
 19  3  2  0  0  0  0
 20 22  2  0  0  0  0
 21  6  2  0  0  0  0
 21  9  1  0  0  0  0
 23 18  2  0  0  0  0
 23 17  1  0  0  0  0
 24  1  1  0  0  0  0
 25 24  1  0  0  0  0
 26 25  1  0  0  0  0
 27 26  1  0  0  0  0
 27 25  1  0  0  0  0
M  END
>  <MODEL>
1

>  <REMARK>
 VINA RESULT:     -10.4      0.000      0.000
  Name = 
  2 active torsions:
  status: ('A' for Active; 'I' for Inactive)
    1  A    between atoms: C_1  and  N_2
    2  A    between atoms: C_1  and  C_5
                            x       y       z     vdW  Elec       q    Type
                         _______ _______ _______ _____ _____    ______ ____

>  <TORSDO>
F 2

$$$$
=
 OpenBabel10222420113D

 27 32  0  0  1  0  0  0  0  0999 V2000
  190.8660  177.2210  144.3080 N   0  0  0  0  0  0  0  0  0  0  0  0
  190.0970  175.9890  142.3640 C   0  0  0  0  0  2  0  0  0  0  0  0
  190.9620  176.2630  137.3650 C   0  0  0  0  0  3  0  0  0  0  0  0
  189.8830  177.2880  139.6990 C   0  0  0  0  0  0  0  0  0  0  0  0
  187.2320  177.3360  143.9040 C   0  0  0  0  0  2  0  0  0  0  0  0
  184.8320  178.0920  143.7880 C   0  0  0  0  0  3  0  0  0  0  0  0
  189.6190  177.9260  144.4190 C   0  0  0  0  0  0  0  0  0  0  0  0
  189.1420  177.2240  138.5300 C   0  0  0  0  0  0  0  0  0  0  0  0
  185.9890  178.7720  142.0360 C   0  0  0  0  0  0  0  0  0  0  0  0
  189.6810  176.7220  137.3870 N   0  0  0  0  0  0  0  0  0  0  0  0
  189.2000  177.9420  140.8600 C   0  0  2  0  0  3  0  0  0  0  0  0
  188.9820  177.0050  142.0860 C   0  0  2  0  0  3  0  0  0  0  0  0
  191.2120  176.8590  139.6930 C   0  0  0  0  0  3  0  0  0  0  0  0
  188.5710  177.8180  143.3420 C   0  0  1  0  0  3  0  0  0  0  0  0
  191.2790  176.6710  143.0270 C   0  0  0  0  0  2  0  0  0  0  0  0
  189.3900  178.6470  145.4280 O   0  0  0  0  0  0  0  0  0  0  0  0
  187.5280  177.9620  138.5860 S   0  0  0  0  0  0  0  0  0  0  0  0
  186.8780  178.6470  141.0940 C   0  0  0  0  0  0  0  0  0  0  0  0
  191.7540  176.3270  138.5190 C   0  0  0  0  0  3  0  0  0  0  0  0
  183.9770  178.7600  142.8520 N   0  0  0  0  0  0  0  0  0  0  0  0
  186.0700  178.0900  143.3140 C   0  0  0  0  0  0  0  0  0  0  0  0
  184.6360  179.1320  141.8290 N   0  0  0  0  0  0  0  0  0  0  0  0
  187.8740  178.4140  140.2880 C   0  0  0  0  0  0  0  0  0  0  0  0
  191.7820  177.1180  145.4350 C   0  0  0  0  0  2  0  0  0  0  0  0
  191.2220  176.1740  146.4840 C   0  0  0  0  0  3  0  0  0  0  0  0
  191.4730  176.7570  147.8580 C   0  0  0  0  0  2  0  0  0  0  0  0
  192.3570  175.6430  147.3350 C   0  0  0  0  0  2  0  0  0  0  0  0
  1  7  1  0  0  0  0
  1 24  1  0  0  0  0
  2 15  1  0  0  0  0
  3 10  2  0  0  0  0
  3 19  1  0  0  0  0
  7 16  2  0  0  0  0
  8 17  1  0  0  0  0
  8  4  2  0  0  0  0
  9 21  1  0  0  0  0
 10  8  1  0  0  0  0
 11  4  1  6  0  0  0
 11 12  1  0  0  0  0
 12  2  1  1  0  0  0
 12 14  1  0  0  0  0
 13  4  1  0  0  0  0
 14  5  1  1  0  0  0
 14  7  1  0  0  0  0
 15  1  1  0  0  0  0
 17 23  1  0  0  0  0
 18  9  2  0  0  0  0
 19 13  2  0  0  0  0
 20  6  1  0  0  0  0
 21  6  2  0  0  0  0
 21  5  1  0  0  0  0
 22  9  1  0  0  0  0
 22 20  2  0  0  0  0
 23 11  1  0  0  0  0
 23 18  2  0  0  0  0
 24 25  1  0  0  0  0
 25 27  1  0  0  0  0
 25 26  1  0  0  0  0
 27 26  1  0  0  0  0
M  END
>  <MODEL>
2

>  <REMARK>
 VINA RESULT:      -9.1      2.874      7.326
  Name = 
  2 active torsions:
  status: ('A' for Active; 'I' for Inactive)
    1  A    between atoms: C_1  and  N_2
    2  A    between atoms: C_1  and  C_5
                            x       y       z     vdW  Elec       q    Type
                         _______ _______ _______ _____ _____    ______ ____

>  <TORSDO>
F 2

$$$$
=
 OpenBabel10222420113D

 27 32  0  0  1  0  0  0  0  0999 V2000
  190.3930  177.1690  144.6340 N   0  0  0  0  0  0  0  0  0  0  0  0
  189.0550  176.2230  142.8450 C   0  0  0  0  0  2  0  0  0  0  0  0
  188.5540  177.1290  137.8710 C   0  0  0  0  0  3  0  0  0  0  0  0
  188.2090  177.8660  140.5160 C   0  0  0  0  0  0  0  0  0  0  0  0
  186.7990  177.4290  145.2630 C   0  0  0  0  0  2  0  0  0  0  0  0
  184.5080  178.2550  145.9030 C   0  0  0  0  0  3  0  0  0  0  0  0
  189.2680  177.8850  145.1680 C   0  0  0  0  0  0  0  0  0  0  0  0
  187.1780  177.9750  139.5970 C   0  0  0  0  0  0  0  0  0  0  0  0
  185.1880  179.1290  143.9940 C   0  0  0  0  0  0  0  0  0  0  0  0
  187.3570  177.6130  138.2990 N   0  0  0  0  0  0  0  0  0  0  0  0
  187.9060  178.3790  141.8900 C   0  0  2  0  0  3  0  0  0  0  0  0
  187.9710  177.2950  143.0080 C   0  0  2  0  0  3  0  0  0  0  0  0
  189.4590  177.4070  140.0930 C   0  0  0  0  0  3  0  0  0  0  0  0
  187.9640  177.9460  144.4160 C   0  0  1  0  0  3  0  0  0  0  0  0
  190.4120  176.7820  143.2330 C   0  0  0  0  0  2  0  0  0  0  0  0
  189.3640  178.4730  146.2790 O   0  0  0  0  0  0  0  0  0  0  0  0
  185.6860  178.7410  140.1830 S   0  0  0  0  0  0  0  0  0  0  0  0
  185.7800  179.1060  142.8370 C   0  0  0  0  0  0  0  0  0  0  0  0
  189.6310  177.0210  138.7600 C   0  0  0  0  0  3  0  0  0  0  0  0
  183.4740  179.0620  145.3260 N   0  0  0  0  0  0  0  0  0  0  0  0
  185.5690  178.2840  145.1100 C   0  0  0  0  0  0  0  0  0  0  0  0
  183.8540  179.5480  144.2130 N   0  0  0  0  0  0  0  0  0  0  0  0
  186.5060  178.9560  141.7660 C   0  0  0  0  0  0  0  0  0  0  0  0
  191.5710  176.8950  145.4440 C   0  0  0  0  0  2  0  0  0  0  0  0
  191.1990  176.0430  146.6450 C   0  0  0  0  0  3  0  0  0  0  0  0
  191.7380  176.6940  147.9000 C   0  0  0  0  0  2  0  0  0  0  0  0
  192.4620  175.5110  147.2910 C   0  0  0  0  0  2  0  0  0  0  0  0
  1  7  1  0  0  0  0
  1 24  1  0  0  0  0
  2 15  1  0  0  0  0
  3 10  2  0  0  0  0
  3 19  1  0  0  0  0
  7 16  2  0  0  0  0
  8 17  1  0  0  0  0
  8  4  2  0  0  0  0
  9 22  1  0  0  0  0
  9 21  1  0  0  0  0
 10  8  1  0  0  0  0
 11  4  1  6  0  0  0
 11 12  1  0  0  0  0
 12  2  1  6  0  0  0
 12 14  1  0  0  0  0
 13  4  1  0  0  0  0
 14  7  1  0  0  0  0
 14  5  1  1  0  0  0
 15  1  1  0  0  0  0
 17 23  1  0  0  0  0
 18  9  2  0  0  0  0
 19 13  2  0  0  0  0
 20  6  1  0  0  0  0
 21  5  1  0  0  0  0
 21  6  2  0  0  0  0
 22 20  2  0  0  0  0
 23 11  1  0  0  0  0
 23 18  2  0  0  0  0
 24 25  1  0  0  0  0
 25 27  1  0  0  0  0
 25 26  1  0  0  0  0
 27 26  1  0  0  0  0
M  END
>  <MODEL>
3

>  <REMARK>
 VINA RESULT:      -9.1      2.438      6.724
  Name = 
  2 active torsions:
  status: ('A' for Active; 'I' for Inactive)
    1  A    between atoms: C_1  and  N_2
    2  A    between atoms: C_1  and  C_5
                            x       y       z     vdW  Elec       q    Type
                         _______ _______ _______ _____ _____    ______ ____

>  <TORSDO>
F 2

$$$$
=
 OpenBabel10222420113D

 27 32  0  0  1  0  0  0  0  0999 V2000
  190.7640  177.2420  140.5750 N   0  0  0  0  0  0  0  0  0  0  0  0
  190.6870  178.3420  142.7360 C   0  0  0  0  0  2  0  0  0  0  0  0
  191.2340  176.8320  147.5560 C   0  0  0  0  0  3  0  0  0  0  0  0
  189.8180  176.8870  145.1780 C   0  0  0  0  0  0  0  0  0  0  0  0
  187.5530  178.8700  141.2220 C   0  0  0  0  0  2  0  0  0  0  0  0
  185.0950  179.3900  141.3970 C   0  0  0  0  0  3  0  0  0  0  0  0
  189.3330  177.2750  140.4480 C   0  0  0  0  0  0  0  0  0  0  0  0
  189.1930  177.1080  146.3950 C   0  0  0  0  0  0  0  0  0  0  0  0
  185.7350  177.9420  142.9340 C   0  0  0  0  0  0  0  0  0  0  0  0
  189.8950  177.0770  147.5580 N   0  0  0  0  0  0  0  0  0  0  0  0
  188.9160  176.8640  143.9840 C   0  0  2  0  0  3  0  0  0  0  0  0
  189.2100  177.9780  142.9350 C   0  0  2  0  0  3  0  0  0  0  0  0
  191.1840  176.5960  145.1530 C   0  0  0  0  0  3  0  0  0  0  0  0
  188.4650  177.7020  141.6030 C   0  0  1  0  0  3  0  0  0  0  0  0
  191.3800  177.2890  141.8910 C   0  0  0  0  0  2  0  0  0  0  0  0
  188.7890  176.9450  139.3600 O   0  0  0  0  0  0  0  0  0  0  0  0
  187.4260  177.2860  146.3450 S   0  0  0  0  0  0  0  0  0  0  0  0
  186.5550  177.4490  143.8150 C   0  0  0  0  0  0  0  0  0  0  0  0
  191.9040  176.5820  146.3510 C   0  0  0  0  0  3  0  0  0  0  0  0
  184.0080  179.0840  142.2790 N   0  0  0  0  0  0  0  0  0  0  0  0
  186.1620  178.7000  141.7730 C   0  0  0  0  0  0  0  0  0  0  0  0
  184.3800  178.2680  143.1810 N   0  0  0  0  0  0  0  0  0  0  0  0
  187.5240  177.0190  144.5720 C   0  0  0  0  0  0  0  0  0  0  0  0
  191.6240  177.0690  139.4130 C   0  0  0  0  0  2  0  0  0  0  0  0
  191.1550  175.8900  138.5800 C   0  0  0  0  0  3  0  0  0  0  0  0
  192.3290  175.3310  137.8070 C   0  0  0  0  0  2  0  0  0  0  0  0
  191.3200  176.2190  137.1100 C   0  0  0  0  0  2  0  0  0  0  0  0
  1 15  1  0  0  0  0
  3 10  1  0  0  0  0
  4  8  1  0  0  0  0
  5 21  1  0  0  0  0
  6 21  2  0  0  0  0
  6 20  1  0  0  0  0
  7  1  1  0  0  0  0
  7 14  1  0  0  0  0
  8 10  2  0  0  0  0
  9 22  1  0  0  0  0
  9 18  2  0  0  0  0
 11 23  1  1  0  0  0
 11  4  1  0  0  0  0
 12  2  1  6  0  0  0
 12 11  1  0  0  0  0
 13  4  2  0  0  0  0
 13 19  1  0  0  0  0
 14  5  1  6  0  0  0
 14 12  1  0  0  0  0
 15  2  1  0  0  0  0
 16  7  2  0  0  0  0
 17  8  1  0  0  0  0
 18 23  2  0  0  0  0
 19  3  2  0  0  0  0
 20 22  2  0  0  0  0
 21  9  1  0  0  0  0
 23 17  1  0  0  0  0
 24  1  1  0  0  0  0
 25 24  1  0  0  0  0
 26 25  1  0  0  0  0
 27 26  1  0  0  0  0
 27 25  1  0  0  0  0
M  END
>  <MODEL>
4

>  <REMARK>
 VINA RESULT:      -8.7      2.245      5.333
  Name = 
  2 active torsions:
  status: ('A' for Active; 'I' for Inactive)
    1  A    between atoms: C_1  and  N_2
    2  A    between atoms: C_1  and  C_5
                            x       y       z     vdW  Elec       q    Type
                         _______ _______ _______ _____ _____    ______ ____

>  <TORSDO>
F 2

$$$$
=
 OpenBabel10222420113D

 27 32  0  0  1  0  0  0  0  0999 V2000
  186.6820  178.3240  145.5880 N   0  0  0  0  0  0  0  0  0  0  0  0
  187.2520  176.8280  143.7650 C   0  0  0  0  0  2  0  0  0  0  0  0
  190.9250  176.6760  140.2590 C   0  0  0  0  0  3  0  0  0  0  0  0
  188.6450  177.8190  141.3340 C   0  0  0  0  0  0  0  0  0  0  0  0
  184.0070  178.0260  143.1110 C   0  0  0  0  0  2  0  0  0  0  0  0
  182.1370  178.5180  141.4980 C   0  0  0  0  0  3  0  0  0  0  0  0
  185.6010  178.9060  144.8420 C   0  0  0  0  0  0  0  0  0  0  0  0
  188.7500  177.5610  139.9760 C   0  0  0  0  0  0  0  0  0  0  0  0
  184.0960  179.1290  140.6880 C   0  0  0  0  0  0  0  0  0  0  0  0
  189.8750  177.0020  139.4560 N   0  0  0  0  0  0  0  0  0  0  0  0
  187.3910  178.5150  141.7610 C   0  0  2  0  0  3  0  0  0  0  0  0
  186.5030  177.6920  142.7430 C   0  0  2  0  0  3  0  0  0  0  0  0
  189.7230  177.5290  142.1720 C   0  0  0  0  0  3  0  0  0  0  0  0
  185.4060  178.5820  143.3840 C   0  0  1  0  0  3  0  0  0  0  0  0
  187.7900  177.6910  144.8920 C   0  0  0  0  0  2  0  0  0  0  0  0
  184.8000  179.6990  145.4080 O   0  0  0  0  0  0  0  0  0  0  0  0
  187.4070  178.1330  138.9650 S   0  0  0  0  0  0  0  0  0  0  0  0
  185.3740  179.0000  140.4800 C   0  0  0  0  0  0  0  0  0  0  0  0
  190.8700  176.9380  141.6340 C   0  0  0  0  0  3  0  0  0  0  0  0
  181.9960  178.9970  140.1540 N   0  0  0  0  0  0  0  0  0  0  0  0
  183.4120  178.5940  141.8500 C   0  0  0  0  0  0  0  0  0  0  0  0
  183.1270  179.3270  139.6760 N   0  0  0  0  0  0  0  0  0  0  0  0
  186.6590  178.7880  140.4580 C   0  0  0  0  0  0  0  0  0  0  0  0
  186.7460  178.4300  147.0390 C   0  0  0  0  0  2  0  0  0  0  0  0
  187.8620  177.5560  147.5830 C   0  0  0  0  0  3  0  0  0  0  0  0
  187.9470  177.7380  149.0820 C   0  0  0  0  0  2  0  0  0  0  0  0
  188.9420  178.4360  148.1770 C   0  0  0  0  0  2  0  0  0  0  0  0
  1 24  1  0  0  0  0
  2 15  1  0  0  0  0
  3 19  1  0  0  0  0
  4 11  1  0  0  0  0
  4 13  1  0  0  0  0
  6 21  2  0  0  0  0
  7 16  2  0  0  0  0
  7  1  1  0  0  0  0
  8  4  2  0  0  0  0
  9 21  1  0  0  0  0
 10  8  1  0  0  0  0
 10  3  2  0  0  0  0
 11 23  1  6  0  0  0
 11 12  1  0  0  0  0
 12 14  1  0  0  0  0
 12  2  1  1  0  0  0
 14  5  1  1  0  0  0
 14  7  1  0  0  0  0
 15  1  1  0  0  0  0
 17  8  1  0  0  0  0
 17 23  1  0  0  0  0
 18  9  2  0  0  0  0
 19 13  2  0  0  0  0
 20  6  1  0  0  0  0
 21  5  1  0  0  0  0
 22 20  2  0  0  0  0
 22  9  1  0  0  0  0
 23 18  2  0  0  0  0
 24 25  1  0  0  0  0
 25 27  1  0  0  0  0
 25 26  1  0  0  0  0
 27 26  1  0  0  0  0
M  END
>  <MODEL>
5

>  <REMARK>
 VINA RESULT:      -8.5      3.561      8.028
  Name = 
  2 active torsions:
  status: ('A' for Active; 'I' for Inactive)
    1  A    between atoms: C_1  and  N_2
    2  A    between atoms: C_1  and  C_5
                            x       y       z     vdW  Elec       q    Type
                         _______ _______ _______ _____ _____    ______ ____

>  <TORSDO>
F 2

$$$$
=
 OpenBabel10222420113D

 27 32  0  0  1  0  0  0  0  0999 V2000
  186.0160  178.4910  141.7790 N   0  0  0  0  0  0  0  0  0  0  0  0
  187.0380  176.8830  143.2810 C   0  0  0  0  0  2  0  0  0  0  0  0
  188.9180  177.0640  147.9970 C   0  0  0  0  0  3  0  0  0  0  0  0
  189.0390  177.7230  145.3110 C   0  0  0  0  0  0  0  0  0  0  0  0
  189.0500  176.9900  140.3950 C   0  0  0  0  0  2  0  0  0  0  0  0
  191.2650  176.6220  139.2530 C   0  0  0  0  0  3  0  0  0  0  0  0
  187.2130  178.5960  140.9920 C   0  0  0  0  0  0  0  0  0  0  0  0
  190.1500  177.2430  145.9870 C   0  0  0  0  0  0  0  0  0  0  0  0
  191.5120  177.5780  141.2270 C   0  0  0  0  0  0  0  0  0  0  0  0
  190.0820  176.9250  147.3070 N   0  0  0  0  0  0  0  0  0  0  0  0
  189.2720  178.1170  143.8860 C   0  0  2  0  0  3  0  0  0  0  0  0
  188.4520  177.2900  142.8500 C   0  0  2  0  0  3  0  0  0  0  0  0
  187.8430  177.9110  146.0070 C   0  0  0  0  0  3  0  0  0  0  0  0
  188.4960  177.9510  141.4480 C   0  0  1  0  0  3  0  0  0  0  0  0
  186.0910  178.0640  143.1670 C   0  0  0  0  0  2  0  0  0  0  0  0
  187.1980  179.2320  139.9030 O   0  0  0  0  0  0  0  0  0  0  0  0
  191.6700  177.2140  145.0700 S   0  0  0  0  0  0  0  0  0  0  0  0
  191.2350  177.7670  142.4840 C   0  0  0  0  0  0  0  0  0  0  0  0
  187.7760  177.5650  147.3600 C   0  0  0  0  0  3  0  0  0  0  0  0
  192.6550  176.7700  139.5670 N   0  0  0  0  0  0  0  0  0  0  0  0
  190.5440  177.1130  140.2510 C   0  0  0  0  0  0  0  0  0  0  0  0
  192.8010  177.2980  140.7150 N   0  0  0  0  0  0  0  0  0  0  0  0
  190.7650  177.9170  143.6890 C   0  0  0  0  0  0  0  0  0  0  0  0
  184.7210  178.8930  141.2480 C   0  0  0  0  0  2  0  0  0  0  0  0
  183.6850  177.8150  141.5140 C   0  0  0  0  0  3  0  0  0  0  0  0
  183.0650  177.3900  140.2010 C   0  0  0  0  0  2  0  0  0  0  0  0
  182.3160  178.3310  141.1210 C   0  0  0  0  0  2  0  0  0  0  0  0
  1 15  1  0  0  0  0
  4  8  2  0  0  0  0
  4 13  1  0  0  0  0
  6 20  1  0  0  0  0
  6 21  2  0  0  0  0
  7 14  1  0  0  0  0
  7  1  1  0  0  0  0
  8 10  1  0  0  0  0
  9 18  2  0  0  0  0
 10  3  2  0  0  0  0
 11 23  1  6  0  0  0
 11  4  1  0  0  0  0
 12  2  1  1  0  0  0
 12 11  1  0  0  0  0
 13 19  2  0  0  0  0
 14  5  1  6  0  0  0
 14 12  1  0  0  0  0
 15  2  1  0  0  0  0
 16  7  2  0  0  0  0
 17  8  1  0  0  0  0
 18 23  2  0  0  0  0
 19  3  1  0  0  0  0
 20 22  2  0  0  0  0
 21  5  1  0  0  0  0
 21  9  1  0  0  0  0
 22  9  1  0  0  0  0
 23 17  1  0  0  0  0
 24 25  1  0  0  0  0
 24  1  1  0  0  0  0
 26 27  1  0  0  0  0
 26 25  1  0  0  0  0
 27 25  1  0  0  0  0
M  END
>  <MODEL>
6

>  <REMARK>
 VINA RESULT:      -8.5      2.619      4.936
  Name = 
  2 active torsions:
  status: ('A' for Active; 'I' for Inactive)
    1  A    between atoms: C_1  and  N_2
    2  A    between atoms: C_1  and  C_5
                            x       y       z     vdW  Elec       q    Type
                         _______ _______ _______ _____ _____    ______ ____

>  <TORSDO>
F 2

$$$$
=
 OpenBabel10222420113D

 27 32  0  0  1  0  0  0  0  0999 V2000
  185.4060  178.8920  143.6820 N   0  0  0  0  0  0  0  0  0  0  0  0
  186.8680  177.0540  144.2910 C   0  0  0  0  0  2  0  0  0  0  0  0
  190.8620  176.5150  147.3850 C   0  0  0  0  0  3  0  0  0  0  0  0
  189.6920  177.5280  145.0890 C   0  0  0  0  0  0  0  0  0  0  0  0
  187.1670  177.4700  140.8080 C   0  0  0  0  0  2  0  0  0  0  0  0
  188.4610  177.1710  138.6680 C   0  0  0  0  0  3  0  0  0  0  0  0
  186.0530  179.0530  142.4090 C   0  0  0  0  0  0  0  0  0  0  0  0
  190.9350  176.9160  145.0550 C   0  0  0  0  0  0  0  0  0  0  0  0
  189.7600  177.8390  140.3230 C   0  0  0  0  0  0  0  0  0  0  0  0
  191.5030  176.4240  146.1880 N   0  0  0  0  0  0  0  0  0  0  0  0
  189.2200  178.1020  143.7900 C   0  0  2  0  0  3  0  0  0  0  0  0
  187.9110  177.4570  143.2410 C   0  0  2  0  0  3  0  0  0  0  0  0
  189.0300  177.6680  146.3120 C   0  0  0  0  0  3  0  0  0  0  0  0
  187.3170  178.3010  142.0840 C   0  0  1  0  0  3  0  0  0  0  0  0
  186.1200  178.2770  144.7890 C   0  0  0  0  0  2  0  0  0  0  0  0
  185.5620  179.8320  141.5470 O   0  0  0  0  0  0  0  0  0  0  0  0
  191.7800  176.9500  143.4940 S   0  0  0  0  0  0  0  0  0  0  0  0
  190.1700  177.8670  141.5570 C   0  0  0  0  0  0  0  0  0  0  0  0
  189.6130  177.1440  147.4700 C   0  0  0  0  0  3  0  0  0  0  0  0
  189.8290  177.2190  138.2430 N   0  0  0  0  0  0  0  0  0  0  0  0
  188.3910  177.5510  139.9360 C   0  0  0  0  0  0  0  0  0  0  0  0
  190.5840  177.5800  139.2020 N   0  0  0  0  0  0  0  0  0  0  0  0
  190.3840  177.8710  142.8420 C   0  0  0  0  0  0  0  0  0  0  0  0
  184.0690  179.4140  143.9250 C   0  0  0  0  0  2  0  0  0  0  0  0
  183.0230  178.3720  143.5680 C   0  0  0  0  0  3  0  0  0  0  0  0
  182.1820  178.8880  142.4210 C   0  0  0  0  0  2  0  0  0  0  0  0
  181.6430  178.9380  143.8360 C   0  0  0  0  0  2  0  0  0  0  0  0
  1 24  1  0  0  0  0
  1 15  1  0  0  0  0
  2 15  1  0  0  0  0
  3 19  1  0  0  0  0
  4 13  1  0  0  0  0
  6 21  2  0  0  0  0
  7  1  1  0  0  0  0
  8  4  2  0  0  0  0
  8 10  1  0  0  0  0
  9 18  2  0  0  0  0
 10  3  2  0  0  0  0
 11 23  1  6  0  0  0
 11  4  1  0  0  0  0
 12 11  1  0  0  0  0
 12  2  1  1  0  0  0
 13 19  2  0  0  0  0
 14  5  1  6  0  0  0
 14  7  1  0  0  0  0
 14 12  1  0  0  0  0
 16  7  2  0  0  0  0
 17  8  1  0  0  0  0
 18 23  2  0  0  0  0
 20  6  1  0  0  0  0
 20 22  2  0  0  0  0
 21  9  1  0  0  0  0
 21  5  1  0  0  0  0
 22  9  1  0  0  0  0
 23 17  1  0  0  0  0
 25 27  1  0  0  0  0
 25 24  1  0  0  0  0
 26 25  1  0  0  0  0
 26 27  1  0  0  0  0
M  END
>  <MODEL>
7

>  <REMARK>
 VINA RESULT:      -8.4      2.438      6.174
  Name = 
  2 active torsions:
  status: ('A' for Active; 'I' for Inactive)
    1  A    between atoms: C_1  and  N_2
    2  A    between atoms: C_1  and  C_5
                            x       y       z     vdW  Elec       q    Type
                         _______ _______ _______ _____ _____    ______ ____

>  <TORSDO>
F 2

$$$$
=
 OpenBabel10222420113D

 27 32  0  0  1  0  0  0  0  0999 V2000
  191.4010  176.2050  145.8340 N   0  0  0  0  0  0  0  0  0  0  0  0
  189.9290  178.1160  145.5750 C   0  0  0  0  0  2  0  0  0  0  0  0
  184.9890  178.9810  146.3830 C   0  0  0  0  0  3  0  0  0  0  0  0
  187.0390  177.7680  144.9730 C   0  0  0  0  0  0  0  0  0  0  0  0
  191.2750  177.4390  142.3930 C   0  0  0  0  0  2  0  0  0  0  0  0
  191.1540  177.6000  139.8830 C   0  0  0  0  0  3  0  0  0  0  0  0
  191.4180  175.9600  144.4190 C   0  0  0  0  0  0  0  0  0  0  0  0
  185.9940  178.4030  144.3220 C   0  0  0  0  0  0  0  0  0  0  0  0
  189.1960  177.0910  140.7650 C   0  0  0  0  0  0  0  0  0  0  0  0
  184.9900  178.9940  145.0220 N   0  0  0  0  0  0  0  0  0  0  0  0
  188.0320  177.0850  144.0850 C   0  0  2  0  0  3  0  0  0  0  0  0
  189.4790  177.6560  144.1830 C   0  0  2  0  0  3  0  0  0  0  0  0
  187.0420  177.7090  146.3690 C   0  0  0  0  0  3  0  0  0  0  0  0
  190.4990  176.7120  143.4930 C   0  0  1  0  0  3  0  0  0  0  0  0
  190.2870  176.9190  146.4360 C   0  0  0  0  0  2  0  0  0  0  0  0
  192.2110  175.1060  143.9370 O   0  0  0  0  0  0  0  0  0  0  0  0
  185.9790  178.2680  142.5510 S   0  0  0  0  0  0  0  0  0  0  0  0
  188.2540  177.1680  141.6590 C   0  0  0  0  0  0  0  0  0  0  0  0
  186.0140  178.3330  147.0830 C   0  0  0  0  0  3  0  0  0  0  0  0
  190.1450  177.5500  138.8660 N   0  0  0  0  0  0  0  0  0  0  0  0
  190.6000  177.3180  141.0530 C   0  0  0  0  0  0  0  0  0  0  0  0
  189.0100  177.2810  139.3750 N   0  0  0  0  0  0  0  0  0  0  0  0
  187.4630  177.2680  142.6880 C   0  0  0  0  0  0  0  0  0  0  0  0
  192.4360  175.6730  146.7090 C   0  0  0  0  0  2  0  0  0  0  0  0
  192.0080  175.7850  148.1620 C   0  0  0  0  0  3  0  0  0  0  0  0
  192.6120  177.0370  148.7600 C   0  0  0  0  0  2  0  0  0  0  0  0
  193.2300  175.6850  149.0520 C   0  0  0  0  0  2  0  0  0  0  0  0
  1 15  1  0  0  0  0
  1 24  1  0  0  0  0
  2 15  1  0  0  0  0
  3 19  1  0  0  0  0
  4 13  1  0  0  0  0
  6 21  2  0  0  0  0
  7  1  1  0  0  0  0
  8  4  2  0  0  0  0
  8 10  1  0  0  0  0
  9 21  1  0  0  0  0
  9 18  2  0  0  0  0
 10  3  2  0  0  0  0
 11 23  1  6  0  0  0
 11 12  1  0  0  0  0
 11  4  1  0  0  0  0
 12  2  1  1  0  0  0
 13 19  2  0  0  0  0
 14  5  1  6  0  0  0
 14 12  1  0  0  0  0
 14  7  1  0  0  0  0
 16  7  2  0  0  0  0
 17 23  1  0  0  0  0
 17  8  1  0  0  0  0
 18 23  2  0  0  0  0
 20 22  2  0  0  0  0
 20  6  1  0  0  0  0
 21  5  1  0  0  0  0
 22  9  1  0  0  0  0
 24 25  1  0  0  0  0
 25 26  1  0  0  0  0
 25 27  1  0  0  0  0
 26 27  1  0  0  0  0
M  END
>  <MODEL>
8

>  <REMARK>
 VINA RESULT:      -8.3      1.882      5.797
  Name = 
  2 active torsions:
  status: ('A' for Active; 'I' for Inactive)
    1  A    between atoms: C_1  and  N_2
    2  A    between atoms: C_1  and  C_5
                            x       y       z     vdW  Elec       q    Type
                         _______ _______ _______ _____ _____    ______ ____

>  <TORSDO>
F 2

$$$$
=
 OpenBabel10222420113D

 27 32  0  0  1  0  0  0  0  0999 V2000
  184.3570  178.6650  141.2080 N   0  0  0  0  0  0  0  0  0  0  0  0
  186.6880  179.3320  141.3050 C   0  0  0  0  0  2  0  0  0  0  0  0
  191.0800  177.2620  139.8100 C   0  0  0  0  0  3  0  0  0  0  0  0
  188.8640  177.3140  141.4690 C   0  0  0  0  0  0  0  0  0  0  0  0
  185.5320  179.2180  144.6280 C   0  0  0  0  0  2  0  0  0  0  0  0
  185.9790  179.0070  147.0970 C   0  0  0  0  0  3  0  0  0  0  0  0
  184.3430  178.3240  142.6040 C   0  0  0  0  0  0  0  0  0  0  0  0
  190.1430  177.1530  141.9790 C   0  0  0  0  0  0  0  0  0  0  0  0
  187.1620  177.5580  145.9260 C   0  0  0  0  0  0  0  0  0  0  0  0
  191.2250  177.1250  141.1570 N   0  0  0  0  0  0  0  0  0  0  0  0
  187.7560  177.2400  142.4720 C   0  0  2  0  0  3  0  0  0  0  0  0
  186.9200  178.5490  142.6030 C   0  0  2  0  0  3  0  0  0  0  0  0
  188.6860  177.4180  140.0870 C   0  0  0  0  0  3  0  0  0  0  0  0
  185.6170  178.3000  143.4070 C   0  0  1  0  0  3  0  0  0  0  0  0
  185.6100  178.6640  140.4710 C   0  0  0  0  0  2  0  0  0  0  0  0
  183.2530  178.0400  143.1720 O   0  0  0  0  0  0  0  0  0  0  0  0
  190.2550  176.8430  143.7240 S   0  0  0  0  0  0  0  0  0  0  0  0
  187.8730  177.1730  144.9060 C   0  0  0  0  0  0  0  0  0  0  0  0
  189.8050  177.4060  139.2490 C   0  0  0  0  0  3  0  0  0  0  0  0
  186.8630  178.2730  147.9540 N   0  0  0  0  0  0  0  0  0  0  0  0
  186.1390  178.5850  145.8510 C   0  0  0  0  0  0  0  0  0  0  0  0
  187.5640  177.4540  147.2790 N   0  0  0  0  0  0  0  0  0  0  0  0
  188.4620  176.9080  143.7760 C   0  0  0  0  0  0  0  0  0  0  0  0
  183.1250  178.9290  140.4790 C   0  0  0  0  0  2  0  0  0  0  0  0
  183.4370  179.4700  139.0950 C   0  0  0  0  0  3  0  0  0  0  0  0
  182.3210  180.3950  138.6630 C   0  0  0  0  0  2  0  0  0  0  0  0
  182.3850  178.9830  138.1200 C   0  0  0  0  0  2  0  0  0  0  0  0
  1  7  1  0  0  0  0
  3 10  1  0  0  0  0
  4  8  1  0  0  0  0
  5 21  1  0  0  0  0
  6 20  1  0  0  0  0
  7 16  2  0  0  0  0
  7 14  1  0  0  0  0
  8 17  1  0  0  0  0
  9 22  1  0  0  0  0
 10  8  2  0  0  0  0
 11  4  1  6  0  0  0
 11 12  1  0  0  0  0
 11 23  1  0  0  0  0
 12  2  1  6  0  0  0
 12 14  1  0  0  0  0
 13  4  2  0  0  0  0
 14  5  1  1  0  0  0
 15  1  1  0  0  0  0
 15  2  1  0  0  0  0
 17 23  1  0  0  0  0
 18  9  2  0  0  0  0
 19  3  2  0  0  0  0
 19 13  1  0  0  0  0
 21  9  1  0  0  0  0
 21  6  2  0  0  0  0
 22 20  2  0  0  0  0
 23 18  2  0  0  0  0
 24  1  1  0  0  0  0
 25 24  1  0  0  0  0
 26 25  1  0  0  0  0
 27 26  1  0  0  0  0
 27 25  1  0  0  0  0
M  END
>  <MODEL>
9

>  <REMARK>
 VINA RESULT:      -8.2      3.369      5.879
  Name = 
  2 active torsions:
  status: ('A' for Active; 'I' for Inactive)
    1  A    between atoms: C_1  and  N_2
    2  A    between atoms: C_1  and  C_5
                            x       y       z     vdW  Elec       q    Type
                         _______ _______ _______ _____ _____    ______ ____

>  <TORSDO>
F 2

$$$$
