=
 OpenBabel10222420573D

 51 56  0  0  1  0  0  0  0  0999 V2000
  187.7110  177.8860  141.5930 C   0  0  1  0  0  3  0  0  0  0  0  0
  184.2410  178.8630  141.8210 C   0  0  0  0  0  3  0  0  0  0  0  0
  184.4870  176.6500  137.7410 C   0  0  2  0  0  3  0  0  0  0  0  0
  188.6310  176.4240  137.3530 C   0  0  0  0  0  2  0  0  0  0  0  0
  188.5650  176.7030  139.7860 N   0  0  1  0  0  0  0  0  0  0  0  0
  183.5320  176.1540  138.6750 O   0  0  0  0  0  0  0  0  0  0  0  0
  187.5240  177.5790  140.1750 N   0  0  0  0  0  2  0  0  0  0  0  0
  183.9100  179.2880  140.4240 C   0  0  0  0  0  2  0  0  0  0  0  0
  186.4650  177.6060  142.3620 C   0  0  0  0  0  3  0  0  0  0  0  0
  189.0650  178.6380  138.2250 C   0  0  0  0  0  2  0  0  0  0  0  0
  186.4160  178.6230  136.7470 O   0  0  0  0  0  0  0  0  0  0  0  0
  185.3570  178.2370  142.0960 C   0  0  0  0  0  0  0  0  0  0  0  0
  185.6520  178.8840  137.8760 C   0  0  0  0  0  3  0  0  0  0  0  0
  187.5250  179.4400  136.3980 C   0  0  0  0  0  2  0  0  0  0  0  0
  183.2390  177.0540  139.6710 N   0  0  0  0  0  0  0  0  0  0  0  0
  188.8220  177.0050  142.0840 C   0  0  1  0  0  3  0  0  0  0  0  0
  183.9220  178.1270  139.4850 C   0  0  0  0  0  0  0  0  0  0  0  0
  188.8460  178.7450  136.7250 C   0  0  2  0  0  3  0  0  0  0  0  0
  184.7550  178.0030  138.3030 C   0  0  0  0  0  0  0  0  0  0  0  0
  189.1900  177.1540  138.5340 C   0  0  2  0  0  3  0  0  0  0  0  0
  188.8790  177.3390  136.1740 C   0  0  0  0  0  2  0  0  0  0  0  0
  189.5750  176.7360  140.8270 C   0  0  0  0  0  2  0  0  0  0  0  0
  182.6720  177.2540  136.2810 C   0  0  0  0  0  0  0  0  0  0  0  0
  181.2270  179.1460  136.6550 C   0  0  0  0  0  1  0  0  0  0  0  0
  183.8570  176.7440  136.4020 C   0  0  0  0  0  3  0  0  0  0  0  0
  181.4680  177.7570  136.1830 C   0  0  0  0  0  0  0  0  0  0  0  0
  179.9940  176.7950  134.5940 O   0  0  0  0  0  0  0  0  0  0  0  0
  180.3360  176.8990  135.8070 C   0  0  0  0  0  0  0  0  0  0  0  0
  179.6250  176.2020  136.7980 O   0  0  0  0  0  0  0  0  0  0  0  0
  180.2790  175.5060  137.8540 C   0  0  1  0  0  3  0  0  0  0  0  0
  179.8960  177.2730  139.5770 C   0  0  0  0  0  1  0  0  0  0  0  0
  180.0540  174.9010  140.2900 C   0  0  0  0  0  1  0  0  0  0  0  0
  179.6190  175.8400  139.1880 C   0  0  0  0  0  3  0  0  0  0  0  0
  181.7310  173.5810  137.2660 C   0  0  0  0  0  2  0  0  0  0  0  0
  180.7390  173.7680  136.1400 C   0  0  0  0  0  2  0  0  0  0  0  0
  180.3000  174.0100  137.5620 C   0  0  0  0  0  3  0  0  0  0  0  0
  190.4450  177.0430  143.9940 C   0  0  0  0  0  0  0  0  0  0  0  0
  189.6520  177.7270  143.0290 N   0  0  0  0  0  2  0  0  0  0  0  0
  190.5160  175.7800  143.9780 O   0  0  0  0  0  0  0  0  0  0  0  0
  191.0920  177.8100  145.1100 C   0  0  2  0  0  3  0  0  0  0  0  0
  190.5650  176.4570  147.1380 C   0  0  0  0  0  0  0  0  0  0  0  0
  190.3310  177.6310  146.3470 N   0  0  0  0  0  0  0  0  0  0  0  0
  189.6040  175.8920  147.7360 O   0  0  0  0  0  0  0  0  0  0  0  0
  192.2410  175.7940  147.3250 S   0  0  0  0  0  1  0  0  0  0  0  0
  189.1550  178.4520  146.5910 C   0  0  0  0  0  2  0  0  0  0  0  0
  187.9140  177.7970  146.0060 C   0  0  0  0  0  2  0  0  0  0  0  0
  185.4920  178.2760  145.8600 C   0  0  0  0  0  1  0  0  0  0  0  0
  186.6800  178.2120  146.7970 C   0  0  0  0  0  2  0  0  0  0  0  0
  192.5890  179.5820  144.5730 O   0  0  0  0  0  0  0  0  0  0  0  0
  191.2540  179.2900  144.7550 C   0  0  0  0  0  3  0  0  0  0  0  0
  191.8070  179.4010  143.5020 O   0  0  0  0  0  0  0  0  0  0  0  0
  1 16  1  0  0  0  0
  1  9  1  1  0  0  0
  2 12  2  0  0  0  0
  3 25  1  6  0  0  0
  3 19  1  0  0  0  0
  3  6  1  0  0  0  0
  5  7  1  0  0  0  0
  5 22  1  1  0  0  0
  6 15  1  0  0  0  0
  7  1  1  0  0  0  0
  8  2  1  0  0  0  0
 10 20  1  0  0  0  0
 11 13  1  0  0  0  0
 12  9  2  0  0  0  0
 13 19  2  0  0  0  0
 14 18  1  0  0  0  0
 14 11  1  0  0  0  0
 16 38  1  1  0  0  0
 17 15  2  0  0  0  0
 17  8  1  0  0  0  0
 18 21  1  1  0  0  0
 18 10  1  0  0  0  0
 19 17  1  0  0  0  0
 20  4  1  6  0  0  0
 20  5  1  0  0  0  0
 21  4  1  0  0  0  0
 22 16  1  0  0  0  0
 23 25  2  0  0  0  0
 26 23  2  0  0  0  0
 26 24  1  0  0  0  0
 27 28  2  0  0  0  0
 28 26  1  0  0  0  0
 28 29  1  0  0  0  0
 30 29  1  6  0  0  0
 30 33  1  0  0  0  0
 33 31  1  0  0  0  0
 33 32  1  0  0  0  0
 34 36  1  0  0  0  0
 35 34  1  0  0  0  0
 35 36  1  0  0  0  0
 36 30  1  0  0  0  0
 38 37  1  0  0  0  0
 39 37  2  0  0  0  0
 40 37  1  6  0  0  0
 40 42  1  0  0  0  0
 41 44  1  0  0  0  0
 41 43  2  0  0  0  0
 42 45  1  0  0  0  0
 42 41  1  0  0  0  0
 46 45  1  0  0  0  0
 46 48  1  0  0  0  0
 47 48  1  0  0  0  0
 49 50  1  0  0  0  0
 50 40  1  0  0  0  0
 51 49  1  0  0  0  0
 51 50  1  0  0  0  0
M  END
>  <MODEL>
1

>  <REMARK>
 VINA RESULT:      -5.3      0.000      0.000
  Name = 
  13 active torsions:
  status: ('A' for Active; 'I' for Inactive)
    1  A    between atoms: O_2  and  C_40
    2  A    between atoms: O_2  and  C_48
    3  A    between atoms: C_3  and  N_16
    4  A    between atoms: C_3  and  C_38
    5  A    between atoms: C_7  and  C_33
    6  A    between atoms: C_11  and  C_37
    7  A    between atoms: N_16  and  C_37
    8  A    between atoms: N_22  and  C_34
    9  A    between atoms: C_31  and  C_37
   10  A    between atoms: C_35  and  C_40
   11  A    between atoms: C_38  and  C_47
   12  A    between atoms: C_40  and  C_41
   13  A    between atoms: C_44  and  C_48
                            x       y       z     vdW  Elec       q    Type
                         _______ _______ _______ _____ _____    ______ ____

>  <TORSDO>
F 13

$$$$
=
 OpenBabel10222420573D

 51 56  0  0  1  0  0  0  0  0999 V2000
  187.1030  177.6150  138.9540 C   0  0  1  0  0  3  0  0  0  0  0  0
  189.0650  177.2490  141.9640 C   0  0  0  0  0  3  0  0  0  0  0  0
  192.2320  177.0820  138.5670 C   0  0  2  0  0  3  0  0  0  0  0  0
  189.6830  176.6530  135.2970 C   0  0  0  0  0  2  0  0  0  0  0  0
  188.0500  177.6380  136.8330 N   0  0  1  0  0  0  0  0  0  0  0  0
  192.4300  178.0750  139.5700 O   0  0  0  0  0  0  0  0  0  0  0  0
  188.2540  177.1880  138.1590 N   0  0  0  0  0  2  0  0  0  0  0  0
  190.0840  176.2190  141.5880 C   0  0  0  0  0  2  0  0  0  0  0  0
  187.5440  178.3710  140.1610 C   0  0  0  0  0  3  0  0  0  0  0  0
  188.1480  175.1420  136.3990 C   0  0  0  0  0  2  0  0  0  0  0  0
  190.9580  174.6890  137.4480 O   0  0  0  0  0  0  0  0  0  0  0  0
  188.2980  177.8090  141.0630 C   0  0  0  0  0  0  0  0  0  0  0  0
  190.6690  175.1090  138.7390 C   0  0  0  0  0  3  0  0  0  0  0  0
  190.1750  173.6970  136.7990 C   0  0  0  0  0  2  0  0  0  0  0  0
  191.7100  177.8310  140.7140 N   0  0  0  0  0  0  0  0  0  0  0  0
  186.2730  178.5030  138.0730 C   0  0  1  0  0  3  0  0  0  0  0  0
  191.0380  176.7450  140.5670 C   0  0  0  0  0  0  0  0  0  0  0  0
  189.2530  174.3210  135.7520 C   0  0  2  0  0  3  0  0  0  0  0  0
  191.2740  176.1730  139.2550 C   0  0  0  0  0  0  0  0  0  0  0  0
  188.3030  176.5590  135.8680 C   0  0  2  0  0  3  0  0  0  0  0  0
  190.0120  175.2500  134.8350 C   0  0  0  0  0  2  0  0  0  0  0  0
  186.6570  178.0270  136.7140 C   0  0  0  0  0  2  0  0  0  0  0  0
  193.7590  175.9090  137.1220 C   0  0  0  0  0  0  0  0  0  0  0  0
  193.9450  176.3200  134.7550 C   0  0  0  0  0  1  0  0  0  0  0  0
  193.5200  176.3960  138.3000 C   0  0  0  0  0  3  0  0  0  0  0  0
  193.9750  175.4120  135.9320 C   0  0  0  0  0  0  0  0  0  0  0  0
  193.8430  173.4580  134.5940 O   0  0  0  0  0  0  0  0  0  0  0  0
  194.0420  173.9570  135.7390 C   0  0  0  0  0  0  0  0  0  0  0  0
  194.3180  173.1170  136.8310 O   0  0  0  0  0  0  0  0  0  0  0  0
  195.5830  172.4870  137.0040 C   0  0  1  0  0  3  0  0  0  0  0  0
  196.0940  171.0130  135.0540 C   0  0  0  0  0  1  0  0  0  0  0  0
  194.1430  170.4830  136.4950 C   0  0  0  0  0  1  0  0  0  0  0  0
  195.5380  171.0640  136.4580 C   0  0  0  0  0  3  0  0  0  0  0  0
  197.9670  173.1590  137.1600 C   0  0  0  0  0  2  0  0  0  0  0  0
  197.1290  174.4050  137.3250 C   0  0  0  0  0  2  0  0  0  0  0  0
  196.6800  173.3320  136.3660 C   0  0  0  0  0  3  0  0  0  0  0  0
  184.0320  179.2730  138.8880 C   0  0  0  0  0  0  0  0  0  0  0  0
  184.8620  178.2690  138.3130 N   0  0  0  0  0  2  0  0  0  0  0  0
  184.4930  180.4300  139.1090 O   0  0  0  0  0  0  0  0  0  0  0  0
  182.6490  178.9230  139.3540 C   0  0  2  0  0  3  0  0  0  0  0  0
  181.6510  179.0200  141.6370 C   0  0  0  0  0  0  0  0  0  0  0  0
  182.6790  178.5320  140.7640 N   0  0  0  0  0  0  0  0  0  0  0  0
  181.9280  179.3300  142.8330 O   0  0  0  0  0  0  0  0  0  0  0  0
  179.9400  179.1580  141.0560 S   0  0  0  0  0  1  0  0  0  0  0  0
  183.8870  177.9400  141.3190 C   0  0  0  0  0  2  0  0  0  0  0  0
  184.5770  178.9130  142.2600 C   0  0  0  0  0  2  0  0  0  0  0  0
  185.1390  178.9190  144.6690 C   0  0  0  0  0  1  0  0  0  0  0  0
  185.2890  178.1520  143.3720 C   0  0  0  0  0  2  0  0  0  0  0  0
  180.8510  178.3080  137.9190 O   0  0  0  0  0  0  0  0  0  0  0  0
  182.0190  177.8370  138.4790 C   0  0  0  0  0  3  0  0  0  0  0  0
  181.9650  178.2730  137.1770 O   0  0  0  0  0  0  0  0  0  0  0  0
  1  9  1  1  0  0  0
  3 25  1  1  0  0  0
  3 19  1  0  0  0  0
  3  6  1  0  0  0  0
  5 22  1  1  0  0  0
  5  7  1  0  0  0  0
  6 15  1  0  0  0  0
  7  1  1  0  0  0  0
  8  2  1  0  0  0  0
  9 12  2  0  0  0  0
 11 13  1  0  0  0  0
 12  2  2  0  0  0  0
 13 19  2  0  0  0  0
 14 11  1  0  0  0  0
 16 38  1  1  0  0  0
 16  1  1  0  0  0  0
 17 15  2  0  0  0  0
 17  8  1  0  0  0  0
 18 21  1  6  0  0  0
 18 10  1  0  0  0  0
 18 14  1  0  0  0  0
 19 17  1  0  0  0  0
 20  4  1  1  0  0  0
 20 10  1  0  0  0  0
 20  5  1  0  0  0  0
 21  4  1  0  0  0  0
 22 16  1  0  0  0  0
 23 25  2  0  0  0  0
 24 26  1  0  0  0  0
 26 23  2  0  0  0  0
 27 28  2  0  0  0  0
 28 26  1  0  0  0  0
 28 29  1  0  0  0  0
 29 30  1  0  0  0  0
 30 33  1  6  0  0  0
 31 33  1  0  0  0  0
 33 32  1  0  0  0  0
 34 35  1  0  0  0  0
 36 30  1  0  0  0  0
 36 34  1  0  0  0  0
 36 35  1  0  0  0  0
 37 39  2  0  0  0  0
 38 37  1  0  0  0  0
 40 37  1  6  0  0  0
 40 42  1  0  0  0  0
 41 43  2  0  0  0  0
 42 45  1  0  0  0  0
 42 41  1  0  0  0  0
 44 41  1  0  0  0  0
 45 46  1  0  0  0  0
 46 48  1  0  0  0  0
 48 47  1  0  0  0  0
 49 50  1  0  0  0  0
 50 40  1  0  0  0  0
 51 49  1  0  0  0  0
 51 50  1  0  0  0  0
M  END
>  <MODEL>
2

>  <REMARK>
 VINA RESULT:      -5.0      4.997      9.983
  Name = 
  13 active torsions:
  status: ('A' for Active; 'I' for Inactive)
    1  A    between atoms: O_2  and  C_40
    2  A    between atoms: O_2  and  C_48
    3  A    between atoms: C_3  and  N_16
    4  A    between atoms: C_3  and  C_38
    5  A    between atoms: C_7  and  C_33
    6  A    between atoms: C_11  and  C_37
    7  A    between atoms: N_16  and  C_37
    8  A    between atoms: N_22  and  C_34
    9  A    between atoms: C_31  and  C_37
   10  A    between atoms: C_35  and  C_40
   11  A    between atoms: C_38  and  C_47
   12  A    between atoms: C_40  and  C_41
   13  A    between atoms: C_44  and  C_48
                            x       y       z     vdW  Elec       q    Type
                         _______ _______ _______ _____ _____    ______ ____

>  <TORSDO>
F 13

$$$$
=
 OpenBabel10222420573D

 51 56  0  0  1  0  0  0  0  0999 V2000
  187.1310  177.6250  138.5820 C   0  0  1  0  0  3  0  0  0  0  0  0
  188.9690  177.2570  141.6700 C   0  0  0  0  0  3  0  0  0  0  0  0
  192.2660  177.0320  138.4020 C   0  0  2  0  0  3  0  0  0  0  0  0
  189.8440  176.6090  135.0360 C   0  0  0  0  0  2  0  0  0  0  0  0
  188.1620  177.6230  136.5000 N   0  0  1  0  0  0  0  0  0  0  0  0
  192.4350  178.0300  139.4060 O   0  0  0  0  0  0  0  0  0  0  0  0
  188.3090  177.1800  137.8360 N   0  0  0  0  0  2  0  0  0  0  0  0
  189.9890  176.2130  141.3410 C   0  0  0  0  0  2  0  0  0  0  0  0
  187.5330  178.3830  139.8000 C   0  0  0  0  0  3  0  0  0  0  0  0
  188.2490  175.1220  136.0860 C   0  0  0  0  0  2  0  0  0  0  0  0
  191.0100  174.6460  137.2490 O   0  0  0  0  0  0  0  0  0  0  0  0
  188.2440  177.8200  140.7350 C   0  0  0  0  0  0  0  0  0  0  0  0
  190.6750  175.0780  138.5250 C   0  0  0  0  0  3  0  0  0  0  0  0
  190.2420  173.6580  136.5760 C   0  0  0  0  0  2  0  0  0  0  0  0
  191.6680  177.8010  140.5220 N   0  0  0  0  0  0  0  0  0  0  0  0
  186.3470  178.5150  137.6630 C   0  0  1  0  0  3  0  0  0  0  0  0
  190.9900  176.7220  140.3560 C   0  0  0  0  0  0  0  0  0  0  0  0
  189.3690  174.2850  135.4890 C   0  0  2  0  0  3  0  0  0  0  0  0
  191.2710  176.1380  139.0570 C   0  0  0  0  0  0  0  0  0  0  0  0
  188.4410  176.5340  135.5530 C   0  0  2  0  0  3  0  0  0  0  0  0
  190.1750  175.1990  134.5960 C   0  0  0  0  0  2  0  0  0  0  0  0
  186.7790  178.0260  136.3230 C   0  0  0  0  0  2  0  0  0  0  0  0
  193.8240  175.8080  137.0350 C   0  0  0  0  0  0  0  0  0  0  0  0
  194.0780  176.1510  134.6630 C   0  0  0  0  0  1  0  0  0  0  0  0
  193.5550  176.3290  138.1910 C   0  0  0  0  0  3  0  0  0  0  0  0
  194.0690  175.2760  135.8650 C   0  0  0  0  0  0  0  0  0  0  0  0
  193.8030  173.2750  134.6200 O   0  0  0  0  0  0  0  0  0  0  0  0
  194.1300  173.8150  135.7150 C   0  0  0  0  0  0  0  0  0  0  0  0
  194.5420  173.0160  136.7950 O   0  0  0  0  0  0  0  0  0  0  0  0
  195.8090  172.3650  136.8180 C   0  0  1  0  0  3  0  0  0  0  0  0
  196.0180  173.6960  138.9210 C   0  0  0  0  0  1  0  0  0  0  0  0
  197.5340  174.1900  137.0180 C   0  0  0  0  0  1  0  0  0  0  0  0
  196.7640  173.1110  137.7440 C   0  0  0  0  0  3  0  0  0  0  0  0
  195.9990  170.0280  136.0060 C   0  0  0  0  0  2  0  0  0  0  0  0
  194.5510  170.2720  136.3630 C   0  0  0  0  0  2  0  0  0  0  0  0
  195.6370  170.8990  137.2000 C   0  0  0  0  0  3  0  0  0  0  0  0
  184.1460  179.1600  138.6710 C   0  0  0  0  0  0  0  0  0  0  0  0
  184.9250  178.2990  137.8490 N   0  0  0  0  0  2  0  0  0  0  0  0
  184.6650  180.1970  139.1790 O   0  0  0  0  0  0  0  0  0  0  0  0
  182.7450  178.7720  139.0450 C   0  0  2  0  0  3  0  0  0  0  0  0
  181.3760  178.5410  136.9740 C   0  0  0  0  0  0  0  0  0  0  0  0
  181.7950  179.3410  138.0880 N   0  0  0  0  0  0  0  0  0  0  0  0
  181.1800  179.0790  135.8450 O   0  0  0  0  0  0  0  0  0  0  0  0
  181.0810  176.7650  137.1770 S   0  0  0  0  0  1  0  0  0  0  0  0
  181.5430  180.7740  138.0940 C   0  0  0  0  0  2  0  0  0  0  0  0
  180.0590  181.0560  138.2640 C   0  0  0  0  0  2  0  0  0  0  0  0
  178.9310  182.0880  136.3200 C   0  0  0  0  0  1  0  0  0  0  0  0
  179.6950  182.3750  137.5950 C   0  0  0  0  0  2  0  0  0  0  0  0
  181.7030  178.1740  141.1020 O   0  0  0  0  0  0  0  0  0  0  0  0
  182.4130  179.1810  140.4820 C   0  0  0  0  0  3  0  0  0  0  0  0
  183.0110  178.3050  141.3560 O   0  0  0  0  0  0  0  0  0  0  0  0
  1  9  1  1  0  0  0
  3 25  1  1  0  0  0
  3 19  1  0  0  0  0
  3  6  1  0  0  0  0
  5 22  1  1  0  0  0
  5  7  1  0  0  0  0
  6 15  1  0  0  0  0
  7  1  1  0  0  0  0
  8  2  1  0  0  0  0
  9 12  2  0  0  0  0
 11 13  1  0  0  0  0
 12  2  2  0  0  0  0
 13 19  2  0  0  0  0
 14 11  1  0  0  0  0
 16 38  1  6  0  0  0
 16  1  1  0  0  0  0
 17 15  2  0  0  0  0
 17  8  1  0  0  0  0
 18 21  1  6  0  0  0
 18 10  1  0  0  0  0
 18 14  1  0  0  0  0
 19 17  1  0  0  0  0
 20  4  1  1  0  0  0
 20 10  1  0  0  0  0
 20  5  1  0  0  0  0
 21  4  1  0  0  0  0
 22 16  1  0  0  0  0
 23 25  2  0  0  0  0
 24 26  1  0  0  0  0
 26 23  2  0  0  0  0
 27 28  2  0  0  0  0
 28 26  1  0  0  0  0
 28 29  1  0  0  0  0
 30 29  1  1  0  0  0
 30 36  1  0  0  0  0
 30 33  1  0  0  0  0
 32 33  1  0  0  0  0
 33 31  1  0  0  0  0
 34 35  1  0  0  0  0
 34 36  1  0  0  0  0
 35 36  1  0  0  0  0
 37 39  2  0  0  0  0
 38 37  1  0  0  0  0
 40 37  1  6  0  0  0
 40 50  1  0  0  0  0
 41 44  1  0  0  0  0
 41 42  1  0  0  0  0
 42 45  1  0  0  0  0
 42 40  1  0  0  0  0
 43 41  2  0  0  0  0
 45 46  1  0  0  0  0
 47 48  1  0  0  0  0
 48 46  1  0  0  0  0
 49 51  1  0  0  0  0
 50 49  1  0  0  0  0
 50 51  1  0  0  0  0
M  END
>  <MODEL>
3

>  <REMARK>
 VINA RESULT:      -5.0      5.109     10.537
  Name = 
  13 active torsions:
  status: ('A' for Active; 'I' for Inactive)
    1  A    between atoms: O_2  and  C_40
    2  A    between atoms: O_2  and  C_48
    3  A    between atoms: C_3  and  N_16
    4  A    between atoms: C_3  and  C_38
    5  A    between atoms: C_7  and  C_33
    6  A    between atoms: C_11  and  C_37
    7  A    between atoms: N_16  and  C_37
    8  A    between atoms: N_22  and  C_34
    9  A    between atoms: C_31  and  C_37
   10  A    between atoms: C_35  and  C_40
   11  A    between atoms: C_38  and  C_47
   12  A    between atoms: C_40  and  C_41
   13  A    between atoms: C_44  and  C_48
                            x       y       z     vdW  Elec       q    Type
                         _______ _______ _______ _____ _____    ______ ____

>  <TORSDO>
F 13

$$$$
=
 OpenBabel10222420573D

 51 56  0  0  1  0  0  0  0  0999 V2000
  187.0910  177.4820  138.5420 C   0  0  1  0  0  3  0  0  0  0  0  0
  188.8910  177.1660  141.6580 C   0  0  0  0  0  3  0  0  0  0  0  0
  192.2470  177.0870  138.4430 C   0  0  2  0  0  3  0  0  0  0  0  0
  189.8980  176.5920  135.0360 C   0  0  0  0  0  2  0  0  0  0  0  0
  188.1550  177.5320  136.4780 N   0  0  1  0  0  0  0  0  0  0  0  0
  192.3620  178.0850  139.4550 O   0  0  0  0  0  0  0  0  0  0  0  0
  188.2970  177.0870  137.8130 N   0  0  0  0  0  2  0  0  0  0  0  0
  189.9560  176.1640  141.3400 C   0  0  0  0  0  2  0  0  0  0  0  0
  187.4440  178.2480  139.7710 C   0  0  0  0  0  3  0  0  0  0  0  0
  188.3450  175.0390  136.0510 C   0  0  0  0  0  2  0  0  0  0  0  0
  191.1030  174.6620  137.2570 O   0  0  0  0  0  0  0  0  0  0  0  0
  188.1610  177.7060  140.7140 C   0  0  0  0  0  0  0  0  0  0  0  0
  190.7300  175.0730  138.5290 C   0  0  0  0  0  3  0  0  0  0  0  0
  190.3840  173.6490  136.5650 C   0  0  0  0  0  2  0  0  0  0  0  0
  191.5860  177.8200  140.5570 N   0  0  0  0  0  0  0  0  0  0  0  0
  186.2890  178.3470  137.6150 C   0  0  1  0  0  3  0  0  0  0  0  0
  190.9520  176.7170  140.3740 C   0  0  0  0  0  0  0  0  0  0  0  0
  189.5050  174.2490  135.4680 C   0  0  2  0  0  3  0  0  0  0  0  0
  191.2770  176.1520  139.0770 C   0  0  0  0  0  0  0  0  0  0  0  0
  188.4910  176.4610  135.5290 C   0  0  2  0  0  3  0  0  0  0  0  0
  190.2900  175.1990  134.5940 C   0  0  0  0  0  2  0  0  0  0  0  0
  186.7610  177.8830  136.2800 C   0  0  0  0  0  2  0  0  0  0  0  0
  193.8780  175.9450  137.0910 C   0  0  0  0  0  0  0  0  0  0  0  0
  194.1720  176.3370  134.7310 C   0  0  0  0  0  1  0  0  0  0  0  0
  193.5650  176.4360  138.2490 C   0  0  0  0  0  3  0  0  0  0  0  0
  194.1690  175.4420  135.9190 C   0  0  0  0  0  0  0  0  0  0  0  0
  193.8780  173.4390  134.6820 O   0  0  0  0  0  0  0  0  0  0  0  0
  194.2870  173.9880  135.7460 C   0  0  0  0  0  0  0  0  0  0  0  0
  194.8450  173.2030  136.7700 O   0  0  0  0  0  0  0  0  0  0  0  0
  196.2350  172.9000  136.8210 C   0  0  1  0  0  3  0  0  0  0  0  0
  198.4670  173.7230  137.5820 C   0  0  0  0  0  1  0  0  0  0  0  0
  196.4690  174.1720  138.9840 C   0  0  0  0  0  1  0  0  0  0  0  0
  196.9820  173.9970  137.5730 C   0  0  0  0  0  3  0  0  0  0  0  0
  196.7620  170.5290  136.3130 C   0  0  0  0  0  2  0  0  0  0  0  0
  195.3850  170.5690  136.9340 C   0  0  0  0  0  2  0  0  0  0  0  0
  196.4480  171.5180  137.4270 C   0  0  0  0  0  3  0  0  0  0  0  0
  184.0780  178.8100  138.7010 C   0  0  0  0  0  0  0  0  0  0  0  0
  184.8730  178.0760  137.7760 N   0  0  0  0  0  2  0  0  0  0  0  0
  184.5750  179.7880  139.3310 O   0  0  0  0  0  0  0  0  0  0  0  0
  182.6890  178.3450  139.0270 C   0  0  2  0  0  3  0  0  0  0  0  0
  181.4650  180.4480  138.4790 C   0  0  0  0  0  0  0  0  0  0  0  0
  181.8690  179.4790  139.4560 N   0  0  0  0  0  0  0  0  0  0  0  0
  181.4040  181.6740  138.7870 O   0  0  0  0  0  0  0  0  0  0  0  0
  180.9980  179.9270  136.8070 S   0  0  0  0  0  1  0  0  0  0  0  0
  181.7460  179.7790  140.8750 C   0  0  0  0  0  2  0  0  0  0  0  0
  180.3240  179.5350  141.3520 C   0  0  0  0  0  2  0  0  0  0  0  0
  181.6160  178.9890  143.3890 C   0  0  0  0  0  1  0  0  0  0  0  0
  180.3350  178.7090  142.6330 C   0  0  0  0  0  2  0  0  0  0  0  0
  181.6410  176.3730  139.8560 O   0  0  0  0  0  0  0  0  0  0  0  0
  182.7010  177.2280  140.0730 C   0  0  0  0  0  3  0  0  0  0  0  0
  182.8640  176.0160  139.4460 O   0  0  0  0  0  0  0  0  0  0  0  0
  1  9  1  1  0  0  0
  3 25  1  1  0  0  0
  3 19  1  0  0  0  0
  3  6  1  0  0  0  0
  5 22  1  1  0  0  0
  5  7  1  0  0  0  0
  6 15  1  0  0  0  0
  7  1  1  0  0  0  0
  8  2  1  0  0  0  0
  9 12  2  0  0  0  0
 11 13  1  0  0  0  0
 12  2  2  0  0  0  0
 13 19  2  0  0  0  0
 14 11  1  0  0  0  0
 16 38  1  6  0  0  0
 16  1  1  0  0  0  0
 17 15  2  0  0  0  0
 17  8  1  0  0  0  0
 18 21  1  1  0  0  0
 18 10  1  0  0  0  0
 18 14  1  0  0  0  0
 19 17  1  0  0  0  0
 20  4  1  1  0  0  0
 20 10  1  0  0  0  0
 20  5  1  0  0  0  0
 21  4  1  0  0  0  0
 22 16  1  0  0  0  0
 23 25  2  0  0  0  0
 24 26  1  0  0  0  0
 26 23  2  0  0  0  0
 27 28  2  0  0  0  0
 28 26  1  0  0  0  0
 28 29  1  0  0  0  0
 30 29  1  1  0  0  0
 30 36  1  0  0  0  0
 30 33  1  0  0  0  0
 33 31  1  0  0  0  0
 33 32  1  0  0  0  0
 34 35  1  0  0  0  0
 34 36  1  0  0  0  0
 35 36  1  0  0  0  0
 37 39  2  0  0  0  0
 38 37  1  0  0  0  0
 40 37  1  1  0  0  0
 40 42  1  0  0  0  0
 40 50  1  0  0  0  0
 41 43  2  0  0  0  0
 41 42  1  0  0  0  0
 42 45  1  0  0  0  0
 44 41  1  0  0  0  0
 45 46  1  0  0  0  0
 46 48  1  0  0  0  0
 48 47  1  0  0  0  0
 49 50  1  0  0  0  0
 51 49  1  0  0  0  0
 51 50  1  0  0  0  0
M  END
>  <MODEL>
4

>  <REMARK>
 VINA RESULT:      -4.9      5.243     10.358
  Name = 
  13 active torsions:
  status: ('A' for Active; 'I' for Inactive)
    1  A    between atoms: O_2  and  C_40
    2  A    between atoms: O_2  and  C_48
    3  A    between atoms: C_3  and  N_16
    4  A    between atoms: C_3  and  C_38
    5  A    between atoms: C_7  and  C_33
    6  A    between atoms: C_11  and  C_37
    7  A    between atoms: N_16  and  C_37
    8  A    between atoms: N_22  and  C_34
    9  A    between atoms: C_31  and  C_37
   10  A    between atoms: C_35  and  C_40
   11  A    between atoms: C_38  and  C_47
   12  A    between atoms: C_40  and  C_41
   13  A    between atoms: C_44  and  C_48
                            x       y       z     vdW  Elec       q    Type
                         _______ _______ _______ _____ _____    ______ ____

>  <TORSDO>
F 13

$$$$
=
 OpenBabel10222420573D

 51 56  0  0  1  0  0  0  0  0999 V2000
  184.7550  177.9480  138.8490 C   0  0  1  0  0  3  0  0  0  0  0  0
  187.9940  178.2970  140.4090 C   0  0  0  0  0  3  0  0  0  0  0  0
  189.0070  176.9710  136.0710 C   0  0  2  0  0  3  0  0  0  0  0  0
  185.2000  175.8290  134.8150 C   0  0  0  0  0  2  0  0  0  0  0  0
  184.4920  177.3150  136.6300 N   0  0  1  0  0  0  0  0  0  0  0  0
  189.6010  178.1880  136.5180 O   0  0  0  0  0  0  0  0  0  0  0  0
  185.3770  177.2380  137.7320 N   0  0  0  0  0  2  0  0  0  0  0  0
  188.7650  177.1340  139.8670 C   0  0  0  0  0  2  0  0  0  0  0  0
  185.6820  178.9760  139.4030 C   0  0  0  0  0  3  0  0  0  0  0  0
  184.5670  174.7950  136.9090 C   0  0  0  0  0  2  0  0  0  0  0  0
  187.5490  174.4570  136.4610 O   0  0  0  0  0  0  0  0  0  0  0  0
  186.8320  178.6370  139.9100 C   0  0  0  0  0  0  0  0  0  0  0  0
  187.9180  175.2380  137.5470 C   0  0  0  0  0  3  0  0  0  0  0  0
  186.6310  173.3800  136.6010 C   0  0  0  0  0  2  0  0  0  0  0  0
  189.5830  178.3220  137.8840 N   0  0  0  0  0  0  0  0  0  0  0  0
  183.5220  178.6120  138.3080 C   0  0  1  0  0  3  0  0  0  0  0  0
  189.0230  177.2880  138.4040 C   0  0  0  0  0  0  0  0  0  0  0  0
  185.2570  173.7520  136.0450 C   0  0  2  0  0  3  0  0  0  0  0  0
  188.6090  176.3580  137.3690 C   0  0  0  0  0  0  0  0  0  0  0  0
  184.3120  175.9950  136.0090 C   0  0  2  0  0  3  0  0  0  0  0  0
  185.3660  174.3340  134.6550 C   0  0  0  0  0  2  0  0  0  0  0  0
  183.2040  177.7510  137.1340 C   0  0  0  0  0  2  0  0  0  0  0  0
  191.1310  175.8420  136.0040 C   0  0  0  0  0  0  0  0  0  0  0  0
  192.1600  174.8120  137.9250 C   0  0  0  0  0  1  0  0  0  0  0  0
  190.0340  176.1490  135.3870 C   0  0  0  0  0  3  0  0  0  0  0  0
  192.2390  175.5560  136.6400 C   0  0  0  0  0  0  0  0  0  0  0  0
  193.5420  176.9560  135.2380 O   0  0  0  0  0  0  0  0  0  0  0  0
  193.5150  176.1350  136.2000 C   0  0  0  0  0  0  0  0  0  0  0  0
  194.7100  175.7680  136.8420 O   0  0  0  0  0  0  0  0  0  0  0  0
  195.4220  174.5830  136.5000 C   0  0  1  0  0  3  0  0  0  0  0  0
  197.3560  173.7770  135.1410 C   0  0  0  0  0  1  0  0  0  0  0  0
  196.8750  176.2100  135.2400 C   0  0  0  0  0  1  0  0  0  0  0  0
  196.2730  174.8240  135.2580 C   0  0  0  0  0  3  0  0  0  0  0  0
  195.4090  173.1100  138.4980 C   0  0  0  0  0  2  0  0  0  0  0  0
  195.5810  174.5330  138.9780 C   0  0  0  0  0  2  0  0  0  0  0  0
  196.2390  174.1000  137.6930 C   0  0  0  0  0  3  0  0  0  0  0  0
  181.2110  179.2150  139.0660 C   0  0  0  0  0  0  0  0  0  0  0  0
  182.4530  178.5540  139.2860 N   0  0  0  0  0  2  0  0  0  0  0  0
  180.9810  179.7860  137.9610 O   0  0  0  0  0  0  0  0  0  0  0  0
  180.2260  179.3480  140.1910 C   0  0  2  0  0  3  0  0  0  0  0  0
  179.5510  177.4080  141.6030 C   0  0  0  0  0  0  0  0  0  0  0  0
  179.4760  178.1020  140.3510 N   0  0  0  0  0  0  0  0  0  0  0  0
  179.5620  176.1420  141.6280 O   0  0  0  0  0  0  0  0  0  0  0  0
  179.5870  178.3280  143.1630 S   0  0  0  0  0  1  0  0  0  0  0  0
  178.9400  177.4310  139.1750 C   0  0  0  0  0  2  0  0  0  0  0  0
  179.8430  176.2830  138.7570 C   0  0  0  0  0  2  0  0  0  0  0  0
  179.6910  173.8280  139.0220 C   0  0  0  0  0  1  0  0  0  0  0  0
  179.0080  175.0480  138.4410 C   0  0  0  0  0  2  0  0  0  0  0  0
  179.3290  181.3620  141.0940 O   0  0  0  0  0  0  0  0  0  0  0  0
  179.2950  180.5460  139.9830 C   0  0  0  0  0  3  0  0  0  0  0  0
  180.0310  181.7060  140.0070 O   0  0  0  0  0  0  0  0  0  0  0  0
  1  9  1  6  0  0  0
  3 25  1  1  0  0  0
  3  6  1  0  0  0  0
  3 19  1  0  0  0  0
  5 22  1  1  0  0  0
  5  7  1  0  0  0  0
  6 15  1  0  0  0  0
  7  1  1  0  0  0  0
  8  2  1  0  0  0  0
  9 12  2  0  0  0  0
 11 14  1  0  0  0  0
 11 13  1  0  0  0  0
 12  2  2  0  0  0  0
 15 17  2  0  0  0  0
 16  1  1  0  0  0  0
 16 38  1  1  0  0  0
 17  8  1  0  0  0  0
 18 21  1  6  0  0  0
 18 14  1  0  0  0  0
 18 10  1  0  0  0  0
 19 13  2  0  0  0  0
 19 17  1  0  0  0  0
 20  4  1  6  0  0  0
 20  5  1  0  0  0  0
 20 10  1  0  0  0  0
 21  4  1  0  0  0  0
 22 16  1  0  0  0  0
 23 26  2  0  0  0  0
 25 23  2  0  0  0  0
 26 24  1  0  0  0  0
 27 28  2  0  0  0  0
 28 26  1  0  0  0  0
 28 29  1  0  0  0  0
 30 33  1  6  0  0  0
 30 29  1  0  0  0  0
 30 36  1  0  0  0  0
 31 33  1  0  0  0  0
 32 33  1  0  0  0  0
 34 35  1  0  0  0  0
 36 34  1  0  0  0  0
 36 35  1  0  0  0  0
 37 38  1  0  0  0  0
 39 37  2  0  0  0  0
 40 37  1  6  0  0  0
 40 42  1  0  0  0  0
 41 43  2  0  0  0  0
 41 44  1  0  0  0  0
 42 41  1  0  0  0  0
 45 42  1  0  0  0  0
 46 45  1  0  0  0  0
 48 46  1  0  0  0  0
 48 47  1  0  0  0  0
 50 51  1  0  0  0  0
 50 40  1  0  0  0  0
 50 49  1  0  0  0  0
 51 49  1  0  0  0  0
M  END
>  <MODEL>
5

>  <REMARK>
 VINA RESULT:      -4.6      4.612     10.420
  Name = 
  13 active torsions:
  status: ('A' for Active; 'I' for Inactive)
    1  A    between atoms: O_2  and  C_40
    2  A    between atoms: O_2  and  C_48
    3  A    between atoms: C_3  and  N_16
    4  A    between atoms: C_3  and  C_38
    5  A    between atoms: C_7  and  C_33
    6  A    between atoms: C_11  and  C_37
    7  A    between atoms: N_16  and  C_37
    8  A    between atoms: N_22  and  C_34
    9  A    between atoms: C_31  and  C_37
   10  A    between atoms: C_35  and  C_40
   11  A    between atoms: C_38  and  C_47
   12  A    between atoms: C_40  and  C_41
   13  A    between atoms: C_44  and  C_48
                            x       y       z     vdW  Elec       q    Type
                         _______ _______ _______ _____ _____    ______ ____

>  <TORSDO>
F 13

$$$$
=
 OpenBabel10222420573D

 51 56  0  0  1  0  0  0  0  0999 V2000
  189.0330  174.9150  136.6220 C   0  0  1  0  0  3  0  0  0  0  0  0
  188.5230  178.4870  136.7990 C   0  0  0  0  0  3  0  0  0  0  0  0
  184.5220  176.7300  138.3820 C   0  0  2  0  0  3  0  0  0  0  0  0
  185.0520  172.7490  137.2690 C   0  0  0  0  0  2  0  0  0  0  0  0
  187.4190  173.3820  137.2830 N   0  0  1  0  0  0  0  0  0  0  0  0
  185.2030  177.6370  139.2460 O   0  0  0  0  0  0  0  0  0  0  0  0
  187.5990  174.7070  136.8200 N   0  0  0  0  0  2  0  0  0  0  0  0
  187.1040  178.6540  136.3520 C   0  0  0  0  0  2  0  0  0  0  0  0
  189.4970  176.1270  137.3540 C   0  0  0  0  0  3  0  0  0  0  0  0
  186.0790  173.2410  135.1340 C   0  0  0  0  0  2  0  0  0  0  0  0
  184.0510  175.3930  135.8150 O   0  0  0  0  0  0  0  0  0  0  0  0
  189.0160  177.3040  137.0730 C   0  0  0  0  0  0  0  0  0  0  0  0
  184.9920  176.4080  135.9240 C   0  0  0  0  0  3  0  0  0  0  0  0
  183.9860  174.5650  134.6610 C   0  0  0  0  0  2  0  0  0  0  0  0
  186.1410  178.3970  138.5920 N   0  0  0  0  0  0  0  0  0  0  0  0
  189.7260  173.6980  137.1600 C   0  0  1  0  0  3  0  0  0  0  0  0
  186.1500  178.0790  137.3470 C   0  0  0  0  0  0  0  0  0  0  0  0
  184.5720  173.1820  134.9430 C   0  0  2  0  0  3  0  0  0  0  0  0
  185.1770  177.0350  137.0800 C   0  0  0  0  0  0  0  0  0  0  0  0
  186.3540  172.7040  136.5310 C   0  0  2  0  0  3  0  0  0  0  0  0
  183.9910  172.5850  136.2030 C   0  0  0  0  0  2  0  0  0  0  0  0
  188.6580  172.6650  137.0480 C   0  0  0  0  0  2  0  0  0  0  0  0
  182.6750  178.1990  138.8580 C   0  0  0  0  0  0  0  0  0  0  0  0
  182.8470  180.6030  138.8760 C   0  0  0  0  0  1  0  0  0  0  0  0
  183.0810  177.0790  138.3470 C   0  0  0  0  0  3  0  0  0  0  0  0
  182.2840  179.3270  139.3930 C   0  0  0  0  0  0  0  0  0  0  0  0
  180.3760  179.9660  140.6480 O   0  0  0  0  0  0  0  0  0  0  0  0
  181.4650  179.3230  140.6130 C   0  0  0  0  0  0  0  0  0  0  0  0
  181.8970  178.6120  141.7450 O   0  0  0  0  0  0  0  0  0  0  0  0
  181.8190  179.1570  143.0580 C   0  0  1  0  0  3  0  0  0  0  0  0
  179.9390  177.5140  143.0460 C   0  0  0  0  0  1  0  0  0  0  0  0
  179.4950  179.8570  143.7340 C   0  0  0  0  0  1  0  0  0  0  0  0
  180.5110  178.7380  143.7210 C   0  0  0  0  0  3  0  0  0  0  0  0
  184.2110  179.6600  143.4860 C   0  0  0  0  0  2  0  0  0  0  0  0
  184.1290  178.2510  142.9440 C   0  0  0  0  0  2  0  0  0  0  0  0
  183.0480  178.7550  143.8660 C   0  0  0  0  0  3  0  0  0  0  0  0
  192.1940  173.6140  136.7320 C   0  0  0  0  0  0  0  0  0  0  0  0
  190.8570  173.3520  136.3200 N   0  0  0  0  0  2  0  0  0  0  0  0
  192.4260  174.0640  137.8920 O   0  0  0  0  0  0  0  0  0  0  0  0
  193.3200  173.4790  135.7490 C   0  0  2  0  0  3  0  0  0  0  0  0
  194.6290  171.8170  137.0680 C   0  0  0  0  0  0  0  0  0  0  0  0
  194.5520  173.1070  136.4450 N   0  0  0  0  0  0  0  0  0  0  0  0
  195.2430  171.6790  138.1660 O   0  0  0  0  0  0  0  0  0  0  0  0
  193.8890  170.3670  136.2740 S   0  0  0  0  0  1  0  0  0  0  0  0
  195.5320  174.1330  136.7670 C   0  0  0  0  0  2  0  0  0  0  0  0
  196.6300  174.1730  135.7170 C   0  0  0  0  0  2  0  0  0  0  0  0
  198.7330  174.4530  136.9870 C   0  0  0  0  0  1  0  0  0  0  0  0
  197.8750  173.4620  136.2310 C   0  0  0  0  0  2  0  0  0  0  0  0
  192.2670  175.2770  134.5940 O   0  0  0  0  0  0  0  0  0  0  0  0
  193.5000  174.7560  134.9240 C   0  0  0  0  0  3  0  0  0  0  0  0
  192.9580  175.8200  135.6030 O   0  0  0  0  0  0  0  0  0  0  0  0
  1  7  1  0  0  0  0
  1 16  1  0  0  0  0
  1  9  1  1  0  0  0
  2 12  2  0  0  0  0
  3 25  1  6  0  0  0
  3  6  1  0  0  0  0
  5 22  1  6  0  0  0
  7  5  1  0  0  0  0
  8  2  1  0  0  0  0
  8 17  1  0  0  0  0
 11 13  1  0  0  0  0
 12  9  2  0  0  0  0
 13 19  2  0  0  0  0
 14 11  1  0  0  0  0
 15  6  1  0  0  0  0
 16 38  1  6  0  0  0
 17 15  2  0  0  0  0
 18 14  1  1  0  0  0
 18 10  1  0  0  0  0
 18 21  1  0  0  0  0
 19 17  1  0  0  0  0
 19  3  1  0  0  0  0
 20 10  1  6  0  0  0
 20  4  1  0  0  0  0
 20  5  1  0  0  0  0
 21  4  1  0  0  0  0
 22 16  1  0  0  0  0
 23 26  2  0  0  0  0
 24 26  1  0  0  0  0
 25 23  2  0  0  0  0
 26 28  1  0  0  0  0
 28 27  2  0  0  0  0
 28 29  1  0  0  0  0
 30 29  1  6  0  0  0
 30 33  1  0  0  0  0
 30 36  1  0  0  0  0
 31 33  1  0  0  0  0
 33 32  1  0  0  0  0
 34 36  1  0  0  0  0
 35 34  1  0  0  0  0
 35 36  1  0  0  0  0
 37 39  2  0  0  0  0
 38 37  1  0  0  0  0
 40 42  1  0  0  0  0
 40 37  1  1  0  0  0
 41 43  2  0  0  0  0
 42 45  1  0  0  0  0
 42 41  1  0  0  0  0
 44 41  1  0  0  0  0
 46 48  1  0  0  0  0
 46 45  1  0  0  0  0
 48 47  1  0  0  0  0
 49 50  1  0  0  0  0
 49 51  1  0  0  0  0
 50 51  1  0  0  0  0
 50 40  1  0  0  0  0
M  END
>  <MODEL>
6

>  <REMARK>
 VINA RESULT:      -4.5      4.894      7.850
  Name = 
  13 active torsions:
  status: ('A' for Active; 'I' for Inactive)
    1  A    between atoms: O_2  and  C_40
    2  A    between atoms: O_2  and  C_48
    3  A    between atoms: C_3  and  N_16
    4  A    between atoms: C_3  and  C_38
    5  A    between atoms: C_7  and  C_33
    6  A    between atoms: C_11  and  C_37
    7  A    between atoms: N_16  and  C_37
    8  A    between atoms: N_22  and  C_34
    9  A    between atoms: C_31  and  C_37
   10  A    between atoms: C_35  and  C_40
   11  A    between atoms: C_38  and  C_47
   12  A    between atoms: C_40  and  C_41
   13  A    between atoms: C_44  and  C_48
                            x       y       z     vdW  Elec       q    Type
                         _______ _______ _______ _____ _____    ______ ____

>  <TORSDO>
F 13

$$$$
=
 OpenBabel10222420573D

 51 56  0  0  1  0  0  0  0  0999 V2000
  186.8410  177.7850  138.5790 C   0  0  1  0  0  3  0  0  0  0  0  0
  188.6270  177.4850  141.7040 C   0  0  0  0  0  3  0  0  0  0  0  0
  191.9400  176.9220  138.4930 C   0  0  2  0  0  3  0  0  0  0  0  0
  189.5310  176.4480  135.1240 C   0  0  0  0  0  2  0  0  0  0  0  0
  187.8900  177.6210  136.5130 N   0  0  1  0  0  0  0  0  0  0  0  0
  192.1500  177.9610  139.4460 O   0  0  0  0  0  0  0  0  0  0  0  0
  188.0010  177.2420  137.8720 N   0  0  0  0  0  2  0  0  0  0  0  0
  189.5960  176.3750  141.4420 C   0  0  0  0  0  2  0  0  0  0  0  0
  187.2700  178.5840  139.7610 C   0  0  0  0  0  3  0  0  0  0  0  0
  187.8520  175.1020  136.2290 C   0  0  0  0  0  2  0  0  0  0  0  0
  190.5740  174.5460  137.4490 O   0  0  0  0  0  0  0  0  0  0  0  0
  187.9420  178.0350  140.7330 C   0  0  0  0  0  0  0  0  0  0  0  0
  190.2480  175.0610  138.6970 C   0  0  0  0  0  3  0  0  0  0  0  0
  189.7620  173.5650  136.8180 C   0  0  0  0  0  2  0  0  0  0  0  0
  191.3620  177.8310  140.5630 N   0  0  0  0  0  0  0  0  0  0  0  0
  186.1130  178.6650  137.6060 C   0  0  1  0  0  3  0  0  0  0  0  0
  190.6300  176.7800  140.4440 C   0  0  0  0  0  0  0  0  0  0  0  0
  188.9330  174.1780  135.6910 C   0  0  2  0  0  3  0  0  0  0  0  0
  190.8940  176.1150  139.1810 C   0  0  0  0  0  0  0  0  0  0  0  0
  188.1220  176.4720  135.6270 C   0  0  2  0  0  3  0  0  0  0  0  0
  189.7930  175.0020  134.7620 C   0  0  0  0  0  2  0  0  0  0  0  0
  186.5320  178.0850  136.2980 C   0  0  0  0  0  2  0  0  0  0  0  0
  193.6450  175.8860  137.1470 C   0  0  0  0  0  0  0  0  0  0  0  0
  194.3830  176.7520  135.0220 C   0  0  0  0  0  1  0  0  0  0  0  0
  193.1920  176.1440  138.3340 C   0  0  0  0  0  3  0  0  0  0  0  0
  194.0770  175.6220  135.9410 C   0  0  0  0  0  0  0  0  0  0  0  0
  192.9650  173.6690  135.1850 O   0  0  0  0  0  0  0  0  0  0  0  0
  194.0640  174.2430  135.4350 C   0  0  0  0  0  0  0  0  0  0  0  0
  195.2740  173.5570  135.2390 O   0  0  0  0  0  0  0  0  0  0  0  0
  196.2500  173.4290  136.2680 C   0  0  1  0  0  3  0  0  0  0  0  0
  195.8460  173.4040  138.7330 C   0  0  0  0  0  1  0  0  0  0  0  0
  196.2810  171.2620  137.5550 C   0  0  0  0  0  1  0  0  0  0  0  0
  195.6720  172.6420  137.4400 C   0  0  0  0  0  3  0  0  0  0  0  0
  198.7200  173.6340  136.1610 C   0  0  0  0  0  2  0  0  0  0  0  0
  198.1880  173.7660  134.7520 C   0  0  0  0  0  2  0  0  0  0  0  0
  197.5240  172.8080  135.7090 C   0  0  0  0  0  3  0  0  0  0  0  0
  183.9460  179.4440  138.5940 C   0  0  0  0  0  0  0  0  0  0  0  0
  184.6800  178.5320  137.7850 N   0  0  0  0  0  2  0  0  0  0  0  0
  184.5200  180.4540  139.0950 O   0  0  0  0  0  0  0  0  0  0  0  0
  182.5230  179.1400  138.9630 C   0  0  2  0  0  3  0  0  0  0  0  0
  181.8870  178.8620  141.3580 C   0  0  0  0  0  0  0  0  0  0  0  0
  182.4830  178.3180  140.1720 N   0  0  0  0  0  0  0  0  0  0  0  0
  182.3780  178.5980  142.4940 O   0  0  0  0  0  0  0  0  0  0  0  0
  180.4040  179.8970  141.2490 S   0  0  0  0  0  1  0  0  0  0  0  0
  183.3090  177.1210  140.2540 C   0  0  0  0  0  2  0  0  0  0  0  0
  182.6810  175.9840  139.4660 C   0  0  0  0  0  2  0  0  0  0  0  0
  180.4150  175.1850  138.8780 C   0  0  0  0  0  1  0  0  0  0  0  0
  181.2930  175.6710  140.0110 C   0  0  0  0  0  2  0  0  0  0  0  0
  180.4970  178.9990  137.7180 O   0  0  0  0  0  0  0  0  0  0  0  0
  181.7710  178.4790  137.8050 C   0  0  0  0  0  3  0  0  0  0  0  0
  181.4400  179.4320  136.8720 O   0  0  0  0  0  0  0  0  0  0  0  0
  1  9  1  1  0  0  0
  3 25  1  1  0  0  0
  3 19  1  0  0  0  0
  3  6  1  0  0  0  0
  5 22  1  1  0  0  0
  5  7  1  0  0  0  0
  6 15  1  0  0  0  0
  7  1  1  0  0  0  0
  8  2  1  0  0  0  0
  9 12  2  0  0  0  0
 11 13  1  0  0  0  0
 12  2  2  0  0  0  0
 13 19  2  0  0  0  0
 14 11  1  0  0  0  0
 16 38  1  1  0  0  0
 16  1  1  0  0  0  0
 17 15  2  0  0  0  0
 17  8  1  0  0  0  0
 18 21  1  6  0  0  0
 18 10  1  0  0  0  0
 18 14  1  0  0  0  0
 19 17  1  0  0  0  0
 20  4  1  1  0  0  0
 20 10  1  0  0  0  0
 20  5  1  0  0  0  0
 21  4  1  0  0  0  0
 22 16  1  0  0  0  0
 23 25  2  0  0  0  0
 24 26  1  0  0  0  0
 26 23  2  0  0  0  0
 27 28  2  0  0  0  0
 28 26  1  0  0  0  0
 29 28  1  0  0  0  0
 30 29  1  6  0  0  0
 30 33  1  0  0  0  0
 33 32  1  0  0  0  0
 33 31  1  0  0  0  0
 35 36  1  0  0  0  0
 35 34  1  0  0  0  0
 36 34  1  0  0  0  0
 36 30  1  0  0  0  0
 37 39  2  0  0  0  0
 38 37  1  0  0  0  0
 40 37  1  6  0  0  0
 40 42  1  0  0  0  0
 41 43  2  0  0  0  0
 42 45  1  0  0  0  0
 42 41  1  0  0  0  0
 44 41  1  0  0  0  0
 46 48  1  0  0  0  0
 46 45  1  0  0  0  0
 47 48  1  0  0  0  0
 49 50  1  0  0  0  0
 50 40  1  0  0  0  0
 51 49  1  0  0  0  0
 51 50  1  0  0  0  0
M  END
>  <MODEL>
7

>  <REMARK>
 VINA RESULT:      -4.5      5.086     10.316
  Name = 
  13 active torsions:
  status: ('A' for Active; 'I' for Inactive)
    1  A    between atoms: O_2  and  C_40
    2  A    between atoms: O_2  and  C_48
    3  A    between atoms: C_3  and  N_16
    4  A    between atoms: C_3  and  C_38
    5  A    between atoms: C_7  and  C_33
    6  A    between atoms: C_11  and  C_37
    7  A    between atoms: N_16  and  C_37
    8  A    between atoms: N_22  and  C_34
    9  A    between atoms: C_31  and  C_37
   10  A    between atoms: C_35  and  C_40
   11  A    between atoms: C_38  and  C_47
   12  A    between atoms: C_40  and  C_41
   13  A    between atoms: C_44  and  C_48
                            x       y       z     vdW  Elec       q    Type
                         _______ _______ _______ _____ _____    ______ ____

>  <TORSDO>
F 13

$$$$
=
 OpenBabel10222420573D

 51 56  0  0  1  0  0  0  0  0999 V2000
  185.3810  177.0770  137.5680 C   0  0  1  0  0  3  0  0  0  0  0  0
  188.5620  178.4860  138.5400 C   0  0  0  0  0  3  0  0  0  0  0  0
  189.6470  175.6690  135.0050 C   0  0  2  0  0  3  0  0  0  0  0  0
  186.0500  173.5880  134.6810 C   0  0  0  0  0  2  0  0  0  0  0  0
  185.1600  175.5660  135.8180 N   0  0  1  0  0  0  0  0  0  0  0  0
  190.0410  177.0330  134.8740 O   0  0  0  0  0  0  0  0  0  0  0  0
  186.0790  176.0700  136.7690 N   0  0  0  0  0  2  0  0  0  0  0  0
  189.5010  177.3250  138.4300 C   0  0  0  0  0  2  0  0  0  0  0  0
  186.1370  178.3610  137.5760 C   0  0  0  0  0  3  0  0  0  0  0  0
  185.6680  173.4160  137.0630 C   0  0  0  0  0  2  0  0  0  0  0  0
  188.6480  173.3510  136.4990 O   0  0  0  0  0  0  0  0  0  0  0  0
  187.3440  178.4240  138.0620 C   0  0  0  0  0  0  0  0  0  0  0  0
  188.9140  174.5510  137.1450 C   0  0  0  0  0  3  0  0  0  0  0  0
  187.9310  172.3060  137.1420 C   0  0  0  0  0  2  0  0  0  0  0  0
  190.0430  177.7070  136.0700 N   0  0  0  0  0  0  0  0  0  0  0  0
  184.0370  177.2810  136.9310 C   0  0  1  0  0  3  0  0  0  0  0  0
  189.6830  176.9050  137.0080 C   0  0  0  0  0  0  0  0  0  0  0  0
  186.4970  172.2210  136.6210 C   0  0  2  0  0  3  0  0  0  0  0  0
  189.4000  175.5870  136.4720 C   0  0  0  0  0  0  0  0  0  0  0  0
  185.1860  174.0970  135.7910 C   0  0  2  0  0  3  0  0  0  0  0  0
  186.4620  172.1960  135.1100 C   0  0  0  0  0  2  0  0  0  0  0  0
  183.8320  175.9820  136.2310 C   0  0  0  0  0  2  0  0  0  0  0  0
  191.8630  174.7800  135.3130 C   0  0  0  0  0  0  0  0  0  0  0  0
  192.8760  174.4300  137.4720 C   0  0  0  0  0  1  0  0  0  0  0  0
  190.7770  174.7940  134.6060 C   0  0  0  0  0  3  0  0  0  0  0  0
  192.9560  174.7920  136.0320 C   0  0  0  0  0  0  0  0  0  0  0  0
  194.4360  176.5880  135.5730 O   0  0  0  0  0  0  0  0  0  0  0  0
  194.1990  175.3490  135.4790 C   0  0  0  0  0  0  0  0  0  0  0  0
  195.1190  174.5060  134.8350 O   0  0  0  0  0  0  0  0  0  0  0  0
  196.0260  173.6790  135.5580 C   0  0  1  0  0  3  0  0  0  0  0  0
  195.1240  171.6990  136.7840 C   0  0  0  0  0  1  0  0  0  0  0  0
  196.7100  171.3430  134.9080 C   0  0  0  0  0  1  0  0  0  0  0  0
  195.6020  172.2180  135.4480 C   0  0  0  0  0  3  0  0  0  0  0  0
  198.1940  174.7500  136.1150 C   0  0  0  0  0  2  0  0  0  0  0  0
  197.6780  175.3930  134.8480 C   0  0  0  0  0  2  0  0  0  0  0  0
  197.4520  173.9190  135.0770 C   0  0  0  0  0  3  0  0  0  0  0  0
  181.8800  178.2880  137.7140 C   0  0  0  0  0  0  0  0  0  0  0  0
  183.0240  177.4740  137.9510 N   0  0  0  0  0  2  0  0  0  0  0  0
  181.6760  178.7800  136.5670 O   0  0  0  0  0  0  0  0  0  0  0  0
  180.9850  178.6710  138.8570 C   0  0  2  0  0  3  0  0  0  0  0  0
  179.9140  176.4840  139.3910 C   0  0  0  0  0  0  0  0  0  0  0  0
  180.8160  177.5350  139.7630 N   0  0  0  0  0  0  0  0  0  0  0  0
  179.2110  175.9080  140.2730 O   0  0  0  0  0  0  0  0  0  0  0  0
  179.7990  175.9390  137.6670 S   0  0  0  0  0  1  0  0  0  0  0  0
  181.2960  177.6330  141.1340 C   0  0  0  0  0  2  0  0  0  0  0  0
  182.3360  178.7340  141.2580 C   0  0  0  0  0  2  0  0  0  0  0  0
  184.7530  179.2540  141.3310 C   0  0  0  0  0  1  0  0  0  0  0  0
  183.7380  178.1480  141.1390 C   0  0  0  0  0  2  0  0  0  0  0  0
  178.9440  179.7640  139.4130 O   0  0  0  0  0  0  0  0  0  0  0  0
  179.6390  179.2060  138.3610 C   0  0  0  0  0  3  0  0  0  0  0  0
  179.5880  180.5650  138.5560 O   0  0  0  0  0  0  0  0  0  0  0  0
  1  9  1  6  0  0  0
  3 25  1  1  0  0  0
  3 19  1  0  0  0  0
  4 21  1  0  0  0  0
  5 22  1  1  0  0  0
  5  7  1  0  0  0  0
  6  3  1  0  0  0  0
  6 15  1  0  0  0  0
  7  1  1  0  0  0  0
  8  2  1  0  0  0  0
  9 12  2  0  0  0  0
 11 14  1  0  0  0  0
 11 13  1  0  0  0  0
 12  2  2  0  0  0  0
 15 17  2  0  0  0  0
 16  1  1  0  0  0  0
 16 38  1  1  0  0  0
 17  8  1  0  0  0  0
 18 21  1  6  0  0  0
 18 10  1  0  0  0  0
 18 14  1  0  0  0  0
 19 17  1  0  0  0  0
 19 13  2  0  0  0  0
 20  4  1  6  0  0  0
 20  5  1  0  0  0  0
 20 10  1  0  0  0  0
 22 16  1  0  0  0  0
 23 26  2  0  0  0  0
 25 23  2  0  0  0  0
 26 24  1  0  0  0  0
 28 27  2  0  0  0  0
 28 26  1  0  0  0  0
 29 28  1  0  0  0  0
 30 29  1  6  0  0  0
 32 33  1  0  0  0  0
 33 30  1  0  0  0  0
 33 31  1  0  0  0  0
 35 36  1  0  0  0  0
 35 34  1  0  0  0  0
 36 30  1  0  0  0  0
 36 34  1  0  0  0  0
 37 38  1  0  0  0  0
 39 37  2  0  0  0  0
 40 37  1  6  0  0  0
 40 42  1  0  0  0  0
 41 42  1  0  0  0  0
 41 43  2  0  0  0  0
 42 45  1  0  0  0  0
 44 41  1  0  0  0  0
 45 46  1  0  0  0  0
 48 46  1  0  0  0  0
 48 47  1  0  0  0  0
 50 51  1  0  0  0  0
 50 40  1  0  0  0  0
 50 49  1  0  0  0  0
 51 49  1  0  0  0  0
M  END
>  <MODEL>
8

>  <REMARK>
 VINA RESULT:      -4.5      5.251     10.710
  Name = 
  13 active torsions:
  status: ('A' for Active; 'I' for Inactive)
    1  A    between atoms: O_2  and  C_40
    2  A    between atoms: O_2  and  C_48
    3  A    between atoms: C_3  and  N_16
    4  A    between atoms: C_3  and  C_38
    5  A    between atoms: C_7  and  C_33
    6  A    between atoms: C_11  and  C_37
    7  A    between atoms: N_16  and  C_37
    8  A    between atoms: N_22  and  C_34
    9  A    between atoms: C_31  and  C_37
   10  A    between atoms: C_35  and  C_40
   11  A    between atoms: C_38  and  C_47
   12  A    between atoms: C_40  and  C_41
   13  A    between atoms: C_44  and  C_48
                            x       y       z     vdW  Elec       q    Type
                         _______ _______ _______ _____ _____    ______ ____

>  <TORSDO>
F 13

$$$$
=
 OpenBabel10222420573D

 51 56  0  0  1  0  0  0  0  0999 V2000
  183.9490  177.0080  137.3230 C   0  0  1  0  0  3  0  0  0  0  0  0
  183.4520  174.0240  135.3480 C   0  0  0  0  0  3  0  0  0  0  0  0
  187.8440  173.6420  136.8220 C   0  0  2  0  0  3  0  0  0  0  0  0
  188.3980  177.5070  138.2820 C   0  0  0  0  0  2  0  0  0  0  0  0
  185.9510  177.4810  138.4010 N   0  0  1  0  0  0  0  0  0  0  0  0
  186.9730  172.5590  137.1370 O   0  0  0  0  0  0  0  0  0  0  0  0
  185.3920  176.7640  137.3170 N   0  0  0  0  0  2  0  0  0  0  0  0
  184.7500  173.8760  134.6170 C   0  0  0  0  0  2  0  0  0  0  0  0
  183.1950  175.7220  137.3170 C   0  0  0  0  0  3  0  0  0  0  0  0
  187.1910  178.6030  136.4940 C   0  0  0  0  0  2  0  0  0  0  0  0
  188.5650  176.1190  135.4260 O   0  0  0  0  0  0  0  0  0  0  0  0
  183.3200  174.8780  136.3320 C   0  0  0  0  0  0  0  0  0  0  0  0
  187.3850  175.4530  135.1260 C   0  0  0  0  0  3  0  0  0  0  0  0
  188.8130  177.4370  134.9560 C   0  0  0  0  0  2  0  0  0  0  0  0
  185.8350  172.5460  136.3680 N   0  0  0  0  0  0  0  0  0  0  0  0
  183.6440  177.7720  138.5780 C   0  0  1  0  0  3  0  0  0  0  0  0
  185.8660  173.5390  135.5510 C   0  0  0  0  0  0  0  0  0  0  0  0
  188.6460  178.4620  136.0780 C   0  0  2  0  0  3  0  0  0  0  0  0
  187.0790  174.3130  135.7350 C   0  0  0  0  0  0  0  0  0  0  0  0
  187.1320  178.2430  137.9710 C   0  0  2  0  0  3  0  0  0  0  0  0
  189.4200  178.0570  137.3110 C   0  0  0  0  0  2  0  0  0  0  0  0
  184.9520  178.4270  138.8610 C   0  0  0  0  0  2  0  0  0  0  0  0
  190.2180  173.7920  136.4550 C   0  0  0  0  0  0  0  0  0  0  0  0
  191.7380  174.9030  137.9600 C   0  0  0  0  0  1  0  0  0  0  0  0
  189.1290  173.1040  136.3140 C   0  0  0  0  0  3  0  0  0  0  0  0
  191.3030  174.5090  136.5930 C   0  0  0  0  0  0  0  0  0  0  0  0
  191.8040  176.3090  135.1320 O   0  0  0  0  0  0  0  0  0  0  0  0
  191.9640  175.0870  135.4150 C   0  0  0  0  0  0  0  0  0  0  0  0
  192.7660  174.2760  134.5940 O   0  0  0  0  0  0  0  0  0  0  0  0
  194.0180  173.7570  135.0300 C   0  0  1  0  0  3  0  0  0  0  0  0
  195.9070  175.3890  134.9430 C   0  0  0  0  0  1  0  0  0  0  0  0
  195.3360  174.3120  137.1050 C   0  0  0  0  0  1  0  0  0  0  0  0
  194.7910  174.8290  135.7930 C   0  0  0  0  0  3  0  0  0  0  0  0
  194.4620  171.3180  135.1310 C   0  0  0  0  0  2  0  0  0  0  0  0
  192.9640  171.5090  135.0670 C   0  0  0  0  0  2  0  0  0  0  0  0
  193.8030  172.4880  135.8470 C   0  0  0  0  0  3  0  0  0  0  0  0
  181.2510  178.5150  138.6120 C   0  0  0  0  0  0  0  0  0  0  0  0
  182.6220  178.7680  138.3220 N   0  0  0  0  0  2  0  0  0  0  0  0
  180.9110  177.4460  139.1960 O   0  0  0  0  0  0  0  0  0  0  0  0
  180.1940  179.4550  138.1090 C   0  0  2  0  0  3  0  0  0  0  0  0
  179.3840  181.4260  139.4030 C   0  0  0  0  0  0  0  0  0  0  0  0
  179.4340  180.0030  139.2330 N   0  0  0  0  0  0  0  0  0  0  0  0
  179.3950  181.9280  140.5650 O   0  0  0  0  0  0  0  0  0  0  0  0
  179.2600  182.5200  137.9640 S   0  0  0  0  0  1  0  0  0  0  0  0
  179.0220  179.1240  140.3160 C   0  0  0  0  0  2  0  0  0  0  0  0
  179.7710  179.4610  141.5950 C   0  0  0  0  0  2  0  0  0  0  0  0
  180.2090  178.7470  143.9220 C   0  0  0  0  0  1  0  0  0  0  0  0
  179.6930  178.2950  142.5720 C   0  0  0  0  0  2  0  0  0  0  0  0
  179.2910  179.4900  135.9050 O   0  0  0  0  0  0  0  0  0  0  0  0
  179.2800  178.7770  137.0850 C   0  0  0  0  0  3  0  0  0  0  0  0
  180.0250  178.3750  136.0030 O   0  0  0  0  0  0  0  0  0  0  0  0
  1  9  1  1  0  0  0
  1 16  1  0  0  0  0
  2 12  2  0  0  0  0
  3 25  1  6  0  0  0
  3  6  1  0  0  0  0
  5 22  1  6  0  0  0
  7  1  1  0  0  0  0
  7  5  1  0  0  0  0
  8  2  1  0  0  0  0
  8 17  1  0  0  0  0
 12  9  2  0  0  0  0
 13 11  1  0  0  0  0
 13 19  2  0  0  0  0
 14 11  1  0  0  0  0
 15  6  1  0  0  0  0
 16 38  1  6  0  0  0
 16 22  1  0  0  0  0
 17 19  1  0  0  0  0
 17 15  2  0  0  0  0
 18 14  1  6  0  0  0
 18 10  1  0  0  0  0
 18 21  1  0  0  0  0
 19  3  1  0  0  0  0
 20 10  1  6  0  0  0
 20  4  1  0  0  0  0
 20  5  1  0  0  0  0
 21  4  1  0  0  0  0
 23 26  2  0  0  0  0
 25 23  2  0  0  0  0
 26 24  1  0  0  0  0
 27 28  2  0  0  0  0
 28 26  1  0  0  0  0
 29 28  1  0  0  0  0
 30 29  1  1  0  0  0
 30 33  1  0  0  0  0
 30 36  1  0  0  0  0
 31 33  1  0  0  0  0
 33 32  1  0  0  0  0
 34 36  1  0  0  0  0
 35 34  1  0  0  0  0
 35 36  1  0  0  0  0
 37 39  2  0  0  0  0
 38 37  1  0  0  0  0
 40 37  1  1  0  0  0
 40 42  1  0  0  0  0
 41 43  2  0  0  0  0
 42 41  1  0  0  0  0
 42 45  1  0  0  0  0
 44 41  1  0  0  0  0
 45 46  1  0  0  0  0
 46 48  1  0  0  0  0
 48 47  1  0  0  0  0
 49 51  1  0  0  0  0
 49 50  1  0  0  0  0
 50 40  1  0  0  0  0
 51 50  1  0  0  0  0
M  END
>  <MODEL>
9

>  <REMARK>
 VINA RESULT:      -4.2      5.353     10.077
  Name = 
  13 active torsions:
  status: ('A' for Active; 'I' for Inactive)
    1  A    between atoms: O_2  and  C_40
    2  A    between atoms: O_2  and  C_48
    3  A    between atoms: C_3  and  N_16
    4  A    between atoms: C_3  and  C_38
    5  A    between atoms: C_7  and  C_33
    6  A    between atoms: C_11  and  C_37
    7  A    between atoms: N_16  and  C_37
    8  A    between atoms: N_22  and  C_34
    9  A    between atoms: C_31  and  C_37
   10  A    between atoms: C_35  and  C_40
   11  A    between atoms: C_38  and  C_47
   12  A    between atoms: C_40  and  C_41
   13  A    between atoms: C_44  and  C_48
                            x       y       z     vdW  Elec       q    Type
                         _______ _______ _______ _____ _____    ______ ____

>  <TORSDO>
F 13

$$$$
