=
 OpenBabel10222416573D

 28 32  0  0  1  0  0  0  0  0999 V2000
  185.7380  178.4790  146.9210 C   0  0  0  0  0  3  0  0  0  0  0  0
  186.3060  177.2280  146.3370 C   0  0  0  0  0  2  0  0  0  0  0  0
  187.3250  177.5850  145.2640 C   0  0  2  0  0  0  0  0  0  0  0  0
  184.4500  178.9660  144.9260 C   0  0  0  0  0  0  0  0  0  0  0  0
  184.7540  178.2040  142.6740 N   0  0  0  0  0  0  0  0  0  0  0  0
  186.7880  178.3350  144.0460 C   0  0  1  0  0  3  0  0  0  0  0  0
  184.9070  179.2280  146.2610 N   0  0  0  0  0  0  0  0  0  0  0  0
  187.1790  176.8600  143.9310 C   0  0  1  0  0  3  0  0  0  0  0  0
  182.5950  178.9310  143.3700 C   0  0  0  0  0  3  0  0  0  0  0  0
  183.4420  178.4140  142.3930 C   0  0  0  0  0  3  0  0  0  0  0  0
  183.1070  179.2100  144.6340 C   0  0  0  0  0  3  0  0  0  0  0  0
  185.2890  178.4550  143.9020 C   0  0  0  0  0  0  0  0  0  0  0  0
  188.4830  176.7510  143.1580 C   0  0  0  0  0  2  0  0  0  0  0  0
  188.2710  177.1620  141.7070 C   0  0  0  0  0  2  0  0  0  0  0  0
  189.5500  177.6530  141.0210 C   0  0  1  0  0  3  0  0  0  0  0  0
  192.0060  177.4240  140.7170 C   0  0  0  0  0  2  0  0  0  0  0  0
  190.7880  176.8620  141.4250 C   0  0  0  0  0  3  0  0  0  0  0  0
  191.7500  177.7680  142.1690 C   0  0  0  0  0  2  0  0  0  0  0  0
  188.8910  179.0060  139.1310 O   0  0  0  0  0  1  0  0  0  0  0  0
  189.3990  177.7590  139.5040 C   0  0  0  0  0  2  0  0  0  0  0  0
  188.6890  178.1280  145.7160 C   0  0  0  0  0  2  0  0  0  0  0  0
  189.1550  178.0030  148.1190 C   0  0  0  0  0  2  0  0  0  0  0  0
  189.2420  177.4190  146.9230 C   0  0  0  0  0  0  0  0  0  0  0  0
  191.9530  175.8060  145.1160 O   0  0  0  0  0  1  0  0  0  0  0  0
  191.3800  176.8770  145.8080 C   0  0  2  0  0  3  0  0  0  0  0  0
  191.6250  176.7980  147.3150 C   0  0  2  0  0  3  0  0  0  0  0  0
  192.4020  175.5650  147.7560 C   0  0  0  0  0  1  0  0  0  0  0  0
  190.2920  176.3630  146.7340 C   0  0  1  0  0  3  0  0  0  0  0  0
  2  1  1  0  0  0  0
  3 21  1  1  0  0  0
  3  2  1  0  0  0  0
  4  7  1  0  0  0  0
  5 12  1  0  0  0  0
  6 12  1  1  0  0  0
  6  3  1  0  0  0  0
  7  1  2  0  0  0  0
  8 13  1  6  0  0  0
  8  6  1  0  0  0  0
  8  3  1  0  0  0  0
  9 11  2  0  0  0  0
 10  5  2  0  0  0  0
 10  9  1  0  0  0  0
 11  4  1  0  0  0  0
 12  4  2  0  0  0  0
 14 13  1  0  0  0  0
 15 20  1  6  0  0  0
 15 17  1  0  0  0  0
 15 14  1  0  0  0  0
 16 17  1  0  0  0  0
 16 18  1  0  0  0  0
 17 18  1  0  0  0  0
 19 20  1  0  0  0  0
 21 23  1  0  0  0  0
 23 22  2  0  0  0  0
 25 24  1  6  0  0  0
 25 28  1  0  0  0  0
 25 26  1  0  0  0  0
 26 27  1  6  0  0  0
 28 23  1  1  0  0  0
 28 26  1  0  0  0  0
M  END
>  <MODEL>
1

>  <REMARK>
 VINA RESULT:      -9.0      0.000      0.000
  Name = 
  8 active torsions:
  status: ('A' for Active; 'I' for Inactive)
    1  A    between atoms: C_6  and  C_20
    2  A    between atoms: C_7  and  C_15
    3  A    between atoms: C_7  and  C_27
    4  A    between atoms: C_13  and  C_20
    5  A    between atoms: C_13  and  C_28
    6  A    between atoms: C_14  and  C_16
    7  A    between atoms: C_16  and  C_25
    8  A    between atoms: C_16  and  C_27
                            x       y       z     vdW  Elec       q    Type
                         _______ _______ _______ _____ _____    ______ ____

>  <TORSDO>
F 8

$$$$
=
 OpenBabel10222416573D

 28 32  0  0  1  0  0  0  0  0999 V2000
  191.3020  177.5890  142.3070 C   0  0  0  0  0  3  0  0  0  0  0  0
  190.2580  178.4830  142.8900 C   0  0  0  0  0  2  0  0  0  0  0  0
  188.9990  177.6760  143.1720 C   0  0  2  0  0  0  0  0  0  0  0  0
  190.1410  177.4210  140.1860 C   0  0  0  0  0  0  0  0  0  0  0  0
  187.8340  177.7990  139.6610 N   0  0  0  0  0  0  0  0  0  0  0  0
  188.3050  177.0620  141.9570 C   0  0  1  0  0  3  0  0  0  0  0  0
  191.2170  177.1380  141.0920 N   0  0  0  0  0  0  0  0  0  0  0  0
  187.6910  178.2720  142.6640 C   0  0  1  0  0  3  0  0  0  0  0  0
  189.4610  177.9860  137.9310 C   0  0  0  0  0  3  0  0  0  0  0  0
  188.1390  178.0600  138.3640 C   0  0  0  0  0  3  0  0  0  0  0  0
  190.4580  177.6610  138.8470 C   0  0  0  0  0  3  0  0  0  0  0  0
  188.7820  177.4870  140.5880 C   0  0  0  0  0  0  0  0  0  0  0  0
  186.4750  177.8200  143.4560 C   0  0  0  0  0  2  0  0  0  0  0  0
  185.6440  179.0240  143.8790 C   0  0  0  0  0  2  0  0  0  0  0  0
  184.2820  179.0990  143.1810 C   0  0  1  0  0  3  0  0  0  0  0  0
  182.9210  178.4690  141.2000 C   0  0  0  0  0  2  0  0  0  0  0  0
  184.1480  178.1210  142.0210 C   0  0  0  0  0  3  0  0  0  0  0  0
  184.2970  178.8670  140.7080 C   0  0  0  0  0  2  0  0  0  0  0  0
  183.5550  179.0670  145.4850 O   0  0  0  0  0  1  0  0  0  0  0  0
  183.1140  178.9990  144.1620 C   0  0  0  0  0  2  0  0  0  0  0  0
  189.0090  176.7150  144.3710 C   0  0  0  0  0  2  0  0  0  0  0  0
  190.8010  176.8150  146.0410 C   0  0  0  0  0  2  0  0  0  0  0  0
  189.6420  177.3070  145.6020 C   0  0  0  0  0  0  0  0  0  0  0  0
  186.4560  178.2630  147.0690 O   0  0  0  0  0  1  0  0  0  0  0  0
  187.4490  177.3350  146.7440 C   0  0  2  0  0  3  0  0  0  0  0  0
  188.5210  177.2210  147.8280 C   0  0  2  0  0  3  0  0  0  0  0  0
  188.3120  178.1560  149.0120 C   0  0  0  0  0  1  0  0  0  0  0  0
  188.7800  178.0490  146.5830 C   0  0  1  0  0  3  0  0  0  0  0  0
  1  2  1  0  0  0  0
  2  3  1  0  0  0  0
  3 21  1  1  0  0  0
  4 12  1  0  0  0  0
  4  7  1  0  0  0  0
  5 12  2  0  0  0  0
  6 12  1  6  0  0  0
  6  8  1  0  0  0  0
  6  3  1  0  0  0  0
  7  1  2  0  0  0  0
  8  3  1  0  0  0  0
  8 13  1  1  0  0  0
  9 10  2  0  0  0  0
  9 11  1  0  0  0  0
 10  5  1  0  0  0  0
 11  4  2  0  0  0  0
 13 14  1  0  0  0  0
 15 14  1  1  0  0  0
 15 20  1  0  0  0  0
 16 17  1  0  0  0  0
 17 15  1  0  0  0  0
 18 16  1  0  0  0  0
 18 17  1  0  0  0  0
 20 19  1  0  0  0  0
 21 23  1  0  0  0  0
 23 22  2  0  0  0  0
 25 24  1  1  0  0  0
 25 26  1  0  0  0  0
 26 27  1  1  0  0  0
 28 23  1  6  0  0  0
 28 25  1  0  0  0  0
 28 26  1  0  0  0  0
M  END
>  <MODEL>
2

>  <REMARK>
 VINA RESULT:      -8.7      2.791      5.870
  Name = 
  8 active torsions:
  status: ('A' for Active; 'I' for Inactive)
    1  A    between atoms: C_6  and  C_20
    2  A    between atoms: C_7  and  C_15
    3  A    between atoms: C_7  and  C_27
    4  A    between atoms: C_13  and  C_20
    5  A    between atoms: C_13  and  C_28
    6  A    between atoms: C_14  and  C_16
    7  A    between atoms: C_16  and  C_25
    8  A    between atoms: C_16  and  C_27
                            x       y       z     vdW  Elec       q    Type
                         _______ _______ _______ _____ _____    ______ ____

>  <TORSDO>
F 8

$$$$
=
 OpenBabel10222416573D

 28 32  0  0  1  0  0  0  0  0999 V2000
  191.1430  177.4960  143.7080 C   0  0  0  0  0  3  0  0  0  0  0  0
  189.9750  178.4230  143.6460 C   0  0  0  0  0  2  0  0  0  0  0  0
  188.7040  177.6240  143.3970 C   0  0  2  0  0  0  0  0  0  0  0  0
  191.0860  177.0740  141.3220 C   0  0  0  0  0  0  0  0  0  0  0  0
  189.2940  177.3420  139.7550 N   0  0  0  0  0  0  0  0  0  0  0  0
  188.6310  176.8680  142.0720 C   0  0  1  0  0  3  0  0  0  0  0  0
  191.6150  176.9150  142.6470 N   0  0  0  0  0  0  0  0  0  0  0  0
  187.7960  178.1320  142.2840 C   0  0  1  0  0  3  0  0  0  0  0  0
  191.5400  177.3780  138.9620 C   0  0  0  0  0  3  0  0  0  0  0  0
  190.1710  177.4680  138.7250 C   0  0  0  0  0  3  0  0  0  0  0  0
  191.9920  177.1750  140.2640 C   0  0  0  0  0  3  0  0  0  0  0  0
  189.6980  177.1530  141.0420 C   0  0  0  0  0  0  0  0  0  0  0  0
  186.3390  177.7410  142.4670 C   0  0  0  0  0  2  0  0  0  0  0  0
  185.4450  178.9670  142.3400 C   0  0  0  0  0  2  0  0  0  0  0  0
  183.9540  178.6530  142.5070 C   0  0  1  0  0  3  0  0  0  0  0  0
  181.9860  178.8310  144.0130 C   0  0  0  0  0  2  0  0  0  0  0  0
  183.2820  179.4930  143.5860 C   0  0  0  0  0  3  0  0  0  0  0  0
  183.2210  178.7030  144.8790 C   0  0  0  0  0  2  0  0  0  0  0  0
  183.0790  177.4190  140.6240 O   0  0  0  0  0  1  0  0  0  0  0  0
  183.1940  178.6930  141.1820 C   0  0  0  0  0  2  0  0  0  0  0  0
  188.1320  176.7980  144.5600 C   0  0  0  0  0  2  0  0  0  0  0  0
  186.8290  178.3970  145.8850 C   0  0  0  0  0  2  0  0  0  0  0  0
  187.9020  177.6080  145.8080 C   0  0  0  0  0  0  0  0  0  0  0  0
  189.4380  178.3870  149.0100 O   0  0  0  0  0  1  0  0  0  0  0  0
  188.7330  177.5540  148.1360 C   0  0  2  0  0  3  0  0  0  0  0  0
  189.6560  176.6610  147.3070 C   0  0  2  0  0  3  0  0  0  0  0  0
  191.1390  176.8810  147.5710 C   0  0  0  0  0  1  0  0  0  0  0  0
  189.0670  177.9220  146.7010 C   0  0  1  0  0  3  0  0  0  0  0  0
  2  1  1  0  0  0  0
  3  2  1  0  0  0  0
  3 21  1  1  0  0  0
  4  7  1  0  0  0  0
  5 12  2  0  0  0  0
  6 12  1  6  0  0  0
  6  8  1  0  0  0  0
  6  3  1  0  0  0  0
  7  1  2  0  0  0  0
  8 13  1  1  0  0  0
  8  3  1  0  0  0  0
  9 11  1  0  0  0  0
 10  9  2  0  0  0  0
 10  5  1  0  0  0  0
 11  4  2  0  0  0  0
 12  4  1  0  0  0  0
 14 13  1  0  0  0  0
 14 15  1  0  0  0  0
 15 20  1  6  0  0  0
 15 17  1  0  0  0  0
 16 18  1  0  0  0  0
 17 16  1  0  0  0  0
 17 18  1  0  0  0  0
 19 20  1  0  0  0  0
 21 23  1  0  0  0  0
 23 22  2  0  0  0  0
 25 24  1  1  0  0  0
 26 27  1  1  0  0  0
 26 25  1  0  0  0  0
 28 23  1  6  0  0  0
 28 26  1  0  0  0  0
 28 25  1  0  0  0  0
M  END
>  <MODEL>
3

>  <REMARK>
 VINA RESULT:      -8.2      2.598      5.957
  Name = 
  8 active torsions:
  status: ('A' for Active; 'I' for Inactive)
    1  A    between atoms: C_6  and  C_20
    2  A    between atoms: C_7  and  C_15
    3  A    between atoms: C_7  and  C_27
    4  A    between atoms: C_13  and  C_20
    5  A    between atoms: C_13  and  C_28
    6  A    between atoms: C_14  and  C_16
    7  A    between atoms: C_16  and  C_25
    8  A    between atoms: C_16  and  C_27
                            x       y       z     vdW  Elec       q    Type
                         _______ _______ _______ _____ _____    ______ ____

>  <TORSDO>
F 8

$$$$
=
 OpenBabel10222416573D

 28 32  0  0  1  0  0  0  0  0999 V2000
  186.8790  177.4300  144.3820 C   0  0  0  0  0  3  0  0  0  0  0  0
  187.6860  176.6220  143.4200 C   0  0  0  0  0  2  0  0  0  0  0  0
  188.6590  177.5330  142.6840 C   0  0  2  0  0  0  0  0  0  0  0  0
  185.5930  178.4720  142.6120 C   0  0  0  0  0  0  0  0  0  0  0  0
  186.1090  178.7360  140.2860 N   0  0  0  0  0  0  0  0  0  0  0  0
  188.0360  178.6170  141.8060 C   0  0  1  0  0  3  0  0  0  0  0  0
  185.9480  178.2420  143.9830 N   0  0  0  0  0  0  0  0  0  0  0  0
  188.6940  177.3930  141.1670 C   0  0  1  0  0  3  0  0  0  0  0  0
  183.8300  178.7790  140.9790 C   0  0  0  0  0  3  0  0  0  0  0  0
  184.7910  178.8360  139.9730 C   0  0  0  0  0  3  0  0  0  0  0  0
  184.2380  178.6020  142.2990 C   0  0  0  0  0  3  0  0  0  0  0  0
  186.5460  178.5520  141.5640 C   0  0  0  0  0  0  0  0  0  0  0  0
  190.0220  177.8060  140.5540 C   0  0  0  0  0  2  0  0  0  0  0  0
  190.5560  176.6980  139.6560 C   0  0  0  0  0  2  0  0  0  0  0  0
  189.8520  176.6240  138.2970 C   0  0  1  0  0  3  0  0  0  0  0  0
  189.0950  177.8220  136.2550 C   0  0  0  0  0  2  0  0  0  0  0  0
  189.6110  177.9920  137.6710 C   0  0  0  0  0  3  0  0  0  0  0  0
  188.1340  178.1620  137.3740 C   0  0  0  0  0  2  0  0  0  0  0  0
  190.8510  174.4510  137.9600 O   0  0  0  0  0  1  0  0  0  0  0  0
  190.5390  175.6580  137.3320 C   0  0  0  0  0  2  0  0  0  0  0  0
  189.8840  178.0530  143.4530 C   0  0  0  0  0  2  0  0  0  0  0  0
  191.4100  176.1400  143.3110 C   0  0  0  0  0  2  0  0  0  0  0  0
  190.6960  176.9560  144.0880 C   0  0  0  0  0  0  0  0  0  0  0  0
  191.4310  175.9900  147.5150 O   0  0  0  0  0  1  0  0  0  0  0  0
  191.3700  176.9120  146.4660 C   0  0  2  0  0  3  0  0  0  0  0  0
  190.0210  177.6280  146.3930 C   0  0  2  0  0  3  0  0  0  0  0  0
  189.0160  177.1710  147.4420 C   0  0  0  0  0  1  0  0  0  0  0  0
  190.3230  176.4710  145.4590 C   0  0  1  0  0  3  0  0  0  0  0  0
  2  1  1  0  0  0  0
  3  2  1  0  0  0  0
  3 21  1  1  0  0  0
  4  7  1  0  0  0  0
  5 12  1  0  0  0  0
  6 12  1  1  0  0  0
  6  3  1  0  0  0  0
  7  1  2  0  0  0  0
  8 13  1  6  0  0  0
  8  6  1  0  0  0  0
  8  3  1  0  0  0  0
  9 11  2  0  0  0  0
 10  5  2  0  0  0  0
 10  9  1  0  0  0  0
 11  4  1  0  0  0  0
 12  4  2  0  0  0  0
 14 13  1  0  0  0  0
 15 20  1  6  0  0  0
 15 14  1  0  0  0  0
 16 18  1  0  0  0  0
 16 17  1  0  0  0  0
 17 15  1  0  0  0  0
 18 17  1  0  0  0  0
 20 19  1  0  0  0  0
 21 23  1  0  0  0  0
 22 23  2  0  0  0  0
 25 24  1  1  0  0  0
 26 25  1  0  0  0  0
 26 27  1  1  0  0  0
 28 23  1  6  0  0  0
 28 26  1  0  0  0  0
 28 25  1  0  0  0  0
M  END
>  <MODEL>
4

>  <REMARK>
 VINA RESULT:      -8.2      2.039      3.368
  Name = 
  8 active torsions:
  status: ('A' for Active; 'I' for Inactive)
    1  A    between atoms: C_6  and  C_20
    2  A    between atoms: C_7  and  C_15
    3  A    between atoms: C_7  and  C_27
    4  A    between atoms: C_13  and  C_20
    5  A    between atoms: C_13  and  C_28
    6  A    between atoms: C_14  and  C_16
    7  A    between atoms: C_16  and  C_25
    8  A    between atoms: C_16  and  C_27
                            x       y       z     vdW  Elec       q    Type
                         _______ _______ _______ _____ _____    ______ ____

>  <TORSDO>
F 8

$$$$
=
 OpenBabel10222416573D

 28 32  0  0  1  0  0  0  0  0999 V2000
  191.4300  176.5480  143.0580 C   0  0  0  0  0  3  0  0  0  0  0  0
  190.0790  176.0460  142.6670 C   0  0  0  0  0  2  0  0  0  0  0  0
  189.1180  177.2190  142.5440 C   0  0  2  0  0  0  0  0  0  0  0  0
  190.7160  177.0530  145.3190 C   0  0  0  0  0  0  0  0  0  0  0  0
  188.5160  177.4320  146.1900 N   0  0  0  0  0  0  0  0  0  0  0  0
  188.8480  178.0080  143.8250 C   0  0  1  0  0  3  0  0  0  0  0  0
  191.6780  176.9860  144.2550 N   0  0  0  0  0  0  0  0  0  0  0  0
  187.7800  177.0700  143.2590 C   0  0  1  0  0  3  0  0  0  0  0  0
  190.2380  176.7080  147.6680 C   0  0  0  0  0  3  0  0  0  0  0  0
  188.9140  177.0700  147.4370 C   0  0  0  0  0  3  0  0  0  0  0  0
  191.1380  176.7070  146.6050 C   0  0  0  0  0  3  0  0  0  0  0  0
  189.3640  177.4340  145.1230 C   0  0  0  0  0  0  0  0  0  0  0  0
  186.6680  177.8990  142.6390 C   0  0  0  0  0  2  0  0  0  0  0  0
  185.6070  178.2230  143.6820 C   0  0  0  0  0  2  0  0  0  0  0  0
  184.3160  178.7890  143.0810 C   0  0  1  0  0  3  0  0  0  0  0  0
  182.5430  178.6230  141.3480 C   0  0  0  0  0  2  0  0  0  0  0  0
  183.8400  178.0210  141.8540 C   0  0  0  0  0  3  0  0  0  0  0  0
  183.8470  178.9400  140.6470 C   0  0  0  0  0  2  0  0  0  0  0  0
  183.7400  179.0930  145.4070 O   0  0  0  0  0  1  0  0  0  0  0  0
  183.2100  178.9610  144.1220 C   0  0  0  0  0  2  0  0  0  0  0  0
  189.2550  178.1410  141.3220 C   0  0  0  0  0  2  0  0  0  0  0  0
  190.1610  176.7680  139.5050 C   0  0  0  0  0  2  0  0  0  0  0  0
  189.1100  177.4160  140.0110 C   0  0  0  0  0  0  0  0  0  0  0  0
  187.7600  179.2940  137.2060 O   0  0  0  0  0  1  0  0  0  0  0  0
  188.6200  178.3510  137.7760 C   0  0  2  0  0  3  0  0  0  0  0  0
  188.0040  176.9520  137.8240 C   0  0  2  0  0  3  0  0  0  0  0  0
  186.5830  176.8780  137.2840 C   0  0  0  0  0  1  0  0  0  0  0  0
  188.0180  177.8250  139.0660 C   0  0  1  0  0  3  0  0  0  0  0  0
  1  7  2  0  0  0  0
  2  1  1  0  0  0  0
  3 21  1  6  0  0  0
  3  2  1  0  0  0  0
  3  8  1  0  0  0  0
  3  6  1  0  0  0  0
  4 11  1  0  0  0  0
  5 10  2  0  0  0  0
  6 12  1  1  0  0  0
  7  4  1  0  0  0  0
  8 13  1  6  0  0  0
  8  6  1  0  0  0  0
 10  9  1  0  0  0  0
 11  9  2  0  0  0  0
 12  4  2  0  0  0  0
 12  5  1  0  0  0  0
 13 14  1  0  0  0  0
 15 14  1  1  0  0  0
 15 20  1  0  0  0  0
 16 17  1  0  0  0  0
 17 15  1  0  0  0  0
 18 16  1  0  0  0  0
 18 17  1  0  0  0  0
 20 19  1  0  0  0  0
 22 23  2  0  0  0  0
 23 21  1  0  0  0  0
 25 24  1  6  0  0  0
 25 26  1  0  0  0  0
 25 28  1  0  0  0  0
 26 27  1  6  0  0  0
 26 28  1  0  0  0  0
 28 23  1  1  0  0  0
M  END
>  <MODEL>
5

>  <REMARK>
 VINA RESULT:      -8.1      2.604      7.230
  Name = 
  8 active torsions:
  status: ('A' for Active; 'I' for Inactive)
    1  A    between atoms: C_6  and  C_20
    2  A    between atoms: C_7  and  C_15
    3  A    between atoms: C_7  and  C_27
    4  A    between atoms: C_13  and  C_20
    5  A    between atoms: C_13  and  C_28
    6  A    between atoms: C_14  and  C_16
    7  A    between atoms: C_16  and  C_25
    8  A    between atoms: C_16  and  C_27
                            x       y       z     vdW  Elec       q    Type
                         _______ _______ _______ _____ _____    ______ ____

>  <TORSDO>
F 8

$$$$
=
 OpenBabel10222416573D

 28 32  0  0  1  0  0  0  0  0999 V2000
  186.7550  178.6290  140.7840 C   0  0  0  0  0  3  0  0  0  0  0  0
  187.9180  178.9360  141.6690 C   0  0  0  0  0  2  0  0  0  0  0  0
  188.3230  177.6820  142.4300 C   0  0  2  0  0  0  0  0  0  0  0  0
  185.2230  178.4710  142.6560 C   0  0  0  0  0  0  0  0  0  0  0  0
  185.6650  178.0660  144.9760 N   0  0  0  0  0  0  0  0  0  0  0  0
  187.2830  177.1120  143.3930 C   0  0  1  0  0  3  0  0  0  0  0  0
  185.5640  178.4320  141.2630 N   0  0  0  0  0  0  0  0  0  0  0  0
  188.5150  177.8410  143.9340 C   0  0  1  0  0  3  0  0  0  0  0  0
  183.6540  179.1840  144.3580 C   0  0  0  0  0  3  0  0  0  0  0  0
  184.5050  178.6750  145.3360 C   0  0  0  0  0  3  0  0  0  0  0  0
  184.0160  179.0740  143.0180 C   0  0  0  0  0  3  0  0  0  0  0  0
  186.0580  177.9480  143.6770 C   0  0  0  0  0  0  0  0  0  0  0  0
  189.4730  176.8230  144.5300 C   0  0  0  0  0  2  0  0  0  0  0  0
  190.5040  177.5200  145.4080 C   0  0  0  0  0  2  0  0  0  0  0  0
  190.1520  177.4930  146.8990 C   0  0  1  0  0  3  0  0  0  0  0  0
  188.3520  177.4170  148.6110 C   0  0  0  0  0  2  0  0  0  0  0  0
  188.6990  177.1190  147.1650 C   0  0  0  0  0  3  0  0  0  0  0  0
  187.9100  178.3650  147.5160 C   0  0  0  0  0  2  0  0  0  0  0  0
  192.2790  176.3520  146.9860 O   0  0  0  0  0  1  0  0  0  0  0  0
  191.1270  176.6490  147.7170 C   0  0  0  0  0  2  0  0  0  0  0  0
  189.0570  176.5740  141.6580 C   0  0  0  0  0  2  0  0  0  0  0  0
  191.3240  177.5060  141.6890 C   0  0  0  0  0  2  0  0  0  0  0  0
  190.3000  177.0580  140.9610 C   0  0  0  0  0  0  0  0  0  0  0  0
  191.1500  176.8890  137.4300 O   0  0  0  0  0  1  0  0  0  0  0  0
  190.6000  176.3700  138.6050 C   0  0  2  0  0  3  0  0  0  0  0  0
  189.1290  176.7500  138.7800 C   0  0  2  0  0  3  0  0  0  0  0  0
  188.5780  177.6360  137.6710 C   0  0  0  0  0  1  0  0  0  0  0  0
  190.2080  177.5080  139.5310 C   0  0  1  0  0  3  0  0  0  0  0  0
  1  7  2  0  0  0  0
  1  2  1  0  0  0  0
  2  3  1  0  0  0  0
  3 21  1  6  0  0  0
  3  6  1  0  0  0  0
  3  8  1  0  0  0  0
  4 11  2  0  0  0  0
  4 12  1  0  0  0  0
  5 10  1  0  0  0  0
  6 12  1  6  0  0  0
  6  8  1  0  0  0  0
  7  4  1  0  0  0  0
  8 13  1  1  0  0  0
  9 10  2  0  0  0  0
 11  9  1  0  0  0  0
 12  5  2  0  0  0  0
 13 14  1  0  0  0  0
 15 14  1  6  0  0  0
 15 17  1  0  0  0  0
 15 20  1  0  0  0  0
 17 18  1  0  0  0  0
 17 16  1  0  0  0  0
 18 16  1  0  0  0  0
 19 20  1  0  0  0  0
 23 21  1  0  0  0  0
 23 22  2  0  0  0  0
 25 24  1  6  0  0  0
 25 26  1  0  0  0  0
 25 28  1  0  0  0  0
 26 27  1  6  0  0  0
 26 28  1  0  0  0  0
 28 23  1  1  0  0  0
M  END
>  <MODEL>
6

>  <REMARK>
 VINA RESULT:      -8.1      1.464      5.881
  Name = 
  8 active torsions:
  status: ('A' for Active; 'I' for Inactive)
    1  A    between atoms: C_6  and  C_20
    2  A    between atoms: C_7  and  C_15
    3  A    between atoms: C_7  and  C_27
    4  A    between atoms: C_13  and  C_20
    5  A    between atoms: C_13  and  C_28
    6  A    between atoms: C_14  and  C_16
    7  A    between atoms: C_16  and  C_25
    8  A    between atoms: C_16  and  C_27
                            x       y       z     vdW  Elec       q    Type
                         _______ _______ _______ _____ _____    ______ ____

>  <TORSDO>
F 8

$$$$
=
 OpenBabel10222416573D

 28 32  0  0  1  0  0  0  0  0999 V2000
  191.2250  176.3140  143.9590 C   0  0  0  0  0  3  0  0  0  0  0  0
  189.9540  176.0550  143.2220 C   0  0  0  0  0  2  0  0  0  0  0  0
  189.3160  177.3790  142.8280 C   0  0  2  0  0  0  0  0  0  0  0  0
  190.0580  177.0950  145.9350 C   0  0  0  0  0  0  0  0  0  0  0  0
  187.8300  177.9450  146.1700 N   0  0  0  0  0  0  0  0  0  0  0  0
  188.8830  178.2880  143.9770 C   0  0  1  0  0  3  0  0  0  0  0  0
  191.2310  176.7750  145.1730 N   0  0  0  0  0  0  0  0  0  0  0  0
  187.8350  177.5360  143.1540 C   0  0  1  0  0  3  0  0  0  0  0  0
  188.9170  177.0040  148.0690 C   0  0  0  0  0  3  0  0  0  0  0  0
  187.8020  177.5970  147.4820 C   0  0  0  0  0  3  0  0  0  0  0  0
  190.0460  176.7610  147.2900 C   0  0  0  0  0  3  0  0  0  0  0  0
  188.9110  177.7130  145.3740 C   0  0  0  0  0  0  0  0  0  0  0  0
  187.1180  178.5200  142.2440 C   0  0  0  0  0  2  0  0  0  0  0  0
  185.8800  177.8730  141.6390 C   0  0  0  0  0  2  0  0  0  0  0  0
  184.5800  178.2590  142.3540 C   0  0  1  0  0  3  0  0  0  0  0  0
  183.5020  179.4560  144.2470 C   0  0  0  0  0  2  0  0  0  0  0  0
  184.7870  179.2890  143.4570 C   0  0  0  0  0  3  0  0  0  0  0  0
  184.6330  178.6220  144.8110 C   0  0  0  0  0  2  0  0  0  0  0  0
  183.9880  179.3800  140.2980 O   0  0  0  0  0  1  0  0  0  0  0  0
  183.4740  178.6650  141.3820 C   0  0  0  0  0  2  0  0  0  0  0  0
  189.9540  178.1750  141.6780 C   0  0  0  0  0  2  0  0  0  0  0  0
  191.4430  177.1270  140.0370 C   0  0  0  0  0  2  0  0  0  0  0  0
  190.1920  177.3480  140.4430 C   0  0  0  0  0  0  0  0  0  0  0  0
  187.4730  178.6280  138.3970 O   0  0  0  0  0  1  0  0  0  0  0  0
  188.8130  178.5640  138.7910 C   0  0  2  0  0  3  0  0  0  0  0  0
  189.5970  177.4980  138.0260 C   0  0  2  0  0  3  0  0  0  0  0  0
  188.7620  176.7060  137.0290 C   0  0  0  0  0  1  0  0  0  0  0  0
  189.0930  177.2150  139.4290 C   0  0  1  0  0  3  0  0  0  0  0  0
  1  7  2  0  0  0  0
  2  1  1  0  0  0  0
  3 21  1  6  0  0  0
  3  8  1  0  0  0  0
  3  2  1  0  0  0  0
  3  6  1  0  0  0  0
  4 11  1  0  0  0  0
  5 10  2  0  0  0  0
  6 12  1  1  0  0  0
  7  4  1  0  0  0  0
  8 13  1  6  0  0  0
  8  6  1  0  0  0  0
 10  9  1  0  0  0  0
 11  9  2  0  0  0  0
 12  4  2  0  0  0  0
 12  5  1  0  0  0  0
 14 13  1  0  0  0  0
 14 15  1  0  0  0  0
 15 20  1  6  0  0  0
 15 17  1  0  0  0  0
 16 18  1  0  0  0  0
 17 16  1  0  0  0  0
 17 18  1  0  0  0  0
 19 20  1  0  0  0  0
 22 23  2  0  0  0  0
 23 21  1  0  0  0  0
 25 24  1  6  0  0  0
 25 28  1  0  0  0  0
 26 27  1  6  0  0  0
 26 25  1  0  0  0  0
 26 28  1  0  0  0  0
 28 23  1  1  0  0  0
M  END
>  <MODEL>
7

>  <REMARK>
 VINA RESULT:      -8.0      2.341      6.585
  Name = 
  8 active torsions:
  status: ('A' for Active; 'I' for Inactive)
    1  A    between atoms: C_6  and  C_20
    2  A    between atoms: C_7  and  C_15
    3  A    between atoms: C_7  and  C_27
    4  A    between atoms: C_13  and  C_20
    5  A    between atoms: C_13  and  C_28
    6  A    between atoms: C_14  and  C_16
    7  A    between atoms: C_16  and  C_25
    8  A    between atoms: C_16  and  C_27
                            x       y       z     vdW  Elec       q    Type
                         _______ _______ _______ _____ _____    ______ ____

>  <TORSDO>
F 8

$$$$
=
 OpenBabel10222416573D

 28 32  0  0  1  0  0  0  0  0999 V2000
  184.2130  178.8030  140.2400 C   0  0  0  0  0  3  0  0  0  0  0  0
  184.3060  177.8590  141.3930 C   0  0  0  0  0  2  0  0  0  0  0  0
  185.0880  178.5130  142.5230 C   0  0  2  0  0  0  0  0  0  0  0  0
  186.5520  178.5230  139.6700 C   0  0  0  0  0  0  0  0  0  0  0  0
  188.3830  177.7600  141.0150 N   0  0  0  0  0  0  0  0  0  0  0  0
  186.5470  178.8550  142.2240 C   0  0  1  0  0  3  0  0  0  0  0  0
  185.2390  179.0710  139.4890 N   0  0  0  0  0  0  0  0  0  0  0  0
  186.2050  177.6780  143.1390 C   0  0  1  0  0  3  0  0  0  0  0  0
  188.5300  177.5720  138.6440 C   0  0  0  0  0  3  0  0  0  0  0  0
  189.0740  177.3730  139.9110 C   0  0  0  0  0  3  0  0  0  0  0  0
  187.2690  178.1530  138.5300 C   0  0  0  0  0  3  0  0  0  0  0  0
  187.1440  178.3220  140.9430 C   0  0  0  0  0  0  0  0  0  0  0  0
  186.5200  178.0570  144.5760 C   0  0  0  0  0  2  0  0  0  0  0  0
  187.4990  177.0610  145.1820 C   0  0  0  0  0  2  0  0  0  0  0  0
  188.5620  177.7150  146.0710 C   0  0  1  0  0  3  0  0  0  0  0  0
  189.3610  178.1130  148.3900 C   0  0  0  0  0  2  0  0  0  0  0  0
  188.5580  177.1840  147.4990 C   0  0  0  0  0  3  0  0  0  0  0  0
  187.8480  178.1700  148.4060 C   0  0  0  0  0  2  0  0  0  0  0  0
  190.0090  178.4680  144.2900 O   0  0  0  0  0  1  0  0  0  0  0  0
  189.9540  177.6820  145.4420 C   0  0  0  0  0  2  0  0  0  0  0  0
  184.3950  179.6170  143.3360 C   0  0  0  0  0  2  0  0  0  0  0  0
  183.3240  178.8320  145.3960 C   0  0  0  0  0  2  0  0  0  0  0  0
  183.1950  179.1280  144.1020 C   0  0  0  0  0  0  0  0  0  0  0  0
  179.8560  177.7150  143.8340 O   0  0  0  0  0  1  0  0  0  0  0  0
  180.7510  178.7580  144.0920 C   0  0  2  0  0  3  0  0  0  0  0  0
  181.0900  179.5600  142.8360 C   0  0  2  0  0  3  0  0  0  0  0  0
  180.4220  179.0460  141.5680 C   0  0  0  0  0  1  0  0  0  0  0  0
  182.0530  178.5070  143.3520 C   0  0  1  0  0  3  0  0  0  0  0  0
  1  2  1  0  0  0  0
  2  3  1  0  0  0  0
  3  8  1  0  0  0  0
  3 21  1  1  0  0  0
  4 12  1  0  0  0  0
  6 12  1  6  0  0  0
  6  3  1  0  0  0  0
  6  8  1  0  0  0  0
  7  4  1  0  0  0  0
  7  1  2  0  0  0  0
  8 13  1  1  0  0  0
  9 10  2  0  0  0  0
 10  5  1  0  0  0  0
 11  9  1  0  0  0  0
 11  4  2  0  0  0  0
 12  5  2  0  0  0  0
 13 14  1  0  0  0  0
 15 14  1  6  0  0  0
 15 17  1  0  0  0  0
 16 18  1  0  0  0  0
 17 16  1  0  0  0  0
 17 18  1  0  0  0  0
 19 20  1  0  0  0  0
 20 15  1  0  0  0  0
 21 23  1  0  0  0  0
 23 22  2  0  0  0  0
 25 24  1  6  0  0  0
 26 27  1  6  0  0  0
 26 28  1  0  0  0  0
 26 25  1  0  0  0  0
 28 25  1  0  0  0  0
 28 23  1  1  0  0  0
M  END
>  <MODEL>
8

>  <REMARK>
 VINA RESULT:      -7.9      2.692      7.152
  Name = 
  8 active torsions:
  status: ('A' for Active; 'I' for Inactive)
    1  A    between atoms: C_6  and  C_20
    2  A    between atoms: C_7  and  C_15
    3  A    between atoms: C_7  and  C_27
    4  A    between atoms: C_13  and  C_20
    5  A    between atoms: C_13  and  C_28
    6  A    between atoms: C_14  and  C_16
    7  A    between atoms: C_16  and  C_25
    8  A    between atoms: C_16  and  C_27
                            x       y       z     vdW  Elec       q    Type
                         _______ _______ _______ _____ _____    ______ ____

>  <TORSDO>
F 8

$$$$
=
 OpenBabel10222416573D

 28 32  0  0  1  0  0  0  0  0999 V2000
  184.9330  178.9050  145.7890 C   0  0  0  0  0  3  0  0  0  0  0  0
  185.7240  179.4440  144.6430 C   0  0  0  0  0  2  0  0  0  0  0  0
  186.1410  178.2980  143.7310 C   0  0  2  0  0  0  0  0  0  0  0  0
  186.8870  177.9170  146.8270 C   0  0  0  0  0  0  0  0  0  0  0  0
  188.9970  177.3070  145.8670 N   0  0  0  0  0  0  0  0  0  0  0  0
  187.0690  177.2510  144.3450 C   0  0  1  0  0  3  0  0  0  0  0  0
  185.4900  178.2320  146.7490 N   0  0  0  0  0  0  0  0  0  0  0  0
  187.6110  178.2590  143.3300 C   0  0  1  0  0  3  0  0  0  0  0  0
  188.8720  177.7470  148.2050 C   0  0  0  0  0  3  0  0  0  0  0  0
  189.6110  177.4090  147.0740 C   0  0  0  0  0  3  0  0  0  0  0  0
  187.5080  177.9960  148.0750 C   0  0  0  0  0  3  0  0  0  0  0  0
  187.6670  177.5520  145.6990 C   0  0  0  0  0  0  0  0  0  0  0  0
  187.8580  177.5510  142.0080 C   0  0  0  0  0  2  0  0  0  0  0  0
  188.0910  178.5680  140.9000 C   0  0  0  0  0  2  0  0  0  0  0  0
  189.3130  178.2520  140.0310 C   0  0  1  0  0  3  0  0  0  0  0  0
  191.2480  176.7610  139.5740 C   0  0  0  0  0  2  0  0  0  0  0  0
  190.1160  177.0600  140.5380 C   0  0  0  0  0  3  0  0  0  0  0  0
  191.5300  177.5020  140.8640 C   0  0  0  0  0  2  0  0  0  0  0  0
  188.9600  179.3760  137.9230 O   0  0  0  0  0  1  0  0  0  0  0  0
  188.9640  178.1280  138.5490 C   0  0  0  0  0  2  0  0  0  0  0  0
  185.0670  177.6580  142.8370 C   0  0  0  0  0  2  0  0  0  0  0  0
  182.8230  178.6350  142.6980 C   0  0  0  0  0  2  0  0  0  0  0  0
  184.0890  178.6550  142.2770 C   0  0  0  0  0  0  0  0  0  0  0  0
  185.4650  178.6980  138.9120 O   0  0  0  0  0  1  0  0  0  0  0  0
  184.5980  178.2180  139.8980 C   0  0  2  0  0  3  0  0  0  0  0  0
  183.2790  178.9890  139.9420 C   0  0  2  0  0  3  0  0  0  0  0  0
  183.1920  180.1340  138.9410 C   0  0  0  0  0  1  0  0  0  0  0  0
  184.3740  179.2920  140.9470 C   0  0  1  0  0  3  0  0  0  0  0  0
  1  7  2  0  0  0  0
  2  1  1  0  0  0  0
  3 21  1  6  0  0  0
  3  6  1  0  0  0  0
  3  2  1  0  0  0  0
  4 11  1  0  0  0  0
  5 10  2  0  0  0  0
  6 12  1  1  0  0  0
  7  4  1  0  0  0  0
  8 13  1  6  0  0  0
  8  3  1  0  0  0  0
  8  6  1  0  0  0  0
 10  9  1  0  0  0  0
 11  9  2  0  0  0  0
 12  5  1  0  0  0  0
 12  4  2  0  0  0  0
 14 13  1  0  0  0  0
 15 20  1  6  0  0  0
 15 17  1  0  0  0  0
 15 14  1  0  0  0  0
 16 17  1  0  0  0  0
 16 18  1  0  0  0  0
 17 18  1  0  0  0  0
 19 20  1  0  0  0  0
 23 22  2  0  0  0  0
 23 21  1  0  0  0  0
 25 24  1  6  0  0  0
 25 26  1  0  0  0  0
 25 28  1  0  0  0  0
 26 27  1  6  0  0  0
 26 28  1  0  0  0  0
 28 23  1  1  0  0  0
M  END
>  <MODEL>
9

>  <REMARK>
 VINA RESULT:      -7.8      2.209      5.806
  Name = 
  8 active torsions:
  status: ('A' for Active; 'I' for Inactive)
    1  A    between atoms: C_6  and  C_20
    2  A    between atoms: C_7  and  C_15
    3  A    between atoms: C_7  and  C_27
    4  A    between atoms: C_13  and  C_20
    5  A    between atoms: C_13  and  C_28
    6  A    between atoms: C_14  and  C_16
    7  A    between atoms: C_16  and  C_25
    8  A    between atoms: C_16  and  C_27
                            x       y       z     vdW  Elec       q    Type
                         _______ _______ _______ _____ _____    ______ ____

>  <TORSDO>
F 8

$$$$
