=
 OpenBabel10222417573D

 33 37  0  0  1  0  0  0  0  0999 V2000
  187.3640  177.6740  143.9140 C   0  0  0  0  0  0  0  0  0  0  0  0
  187.9230  178.0750  148.4720 C   0  0  0  0  0  3  0  0  0  0  0  0
  184.6360  178.3040  142.5180 C   0  0  0  0  0  0  0  0  0  0  0  0
  184.3150  178.4890  143.9020 C   0  0  0  0  0  0  0  0  0  0  0  0
  183.6110  178.4990  141.5580 C   0  0  0  0  0  0  0  0  0  0  0  0
  187.0550  177.6490  142.5720 C   0  0  0  0  0  3  0  0  0  0  0  0
  185.1590  178.3570  144.9970 C   0  0  0  0  0  3  0  0  0  0  0  0
  183.0110  178.8490  144.2560 C   0  0  0  0  0  3  0  0  0  0  0  0
  182.3190  178.8540  141.9570 C   0  0  0  0  0  3  0  0  0  0  0  0
  186.9210  178.1830  147.4920 C   0  0  0  0  0  3  0  0  0  0  0  0
  187.2690  177.9170  146.1660 C   0  0  0  0  0  0  0  0  0  0  0  0
  188.5530  177.5500  145.8170 C   0  0  0  0  0  0  0  0  0  0  0  0
  185.8520  177.9320  142.0230 N   0  0  0  0  0  0  0  0  0  0  0  0
  182.0180  179.0320  143.3000 C   0  0  0  0  0  0  0  0  0  0  0  0
  189.2380  177.7220  148.1130 C   0  0  0  0  0  3  0  0  0  0  0  0
  188.6130  177.3750  144.4420 C   0  0  0  0  0  0  0  0  0  0  0  0
  189.5670  177.4610  146.7720 C   0  0  0  0  0  3  0  0  0  0  0  0
  186.4920  178.0030  145.0260 C   0  0  0  0  0  0  0  0  0  0  0  0
  191.7930  177.5160  142.5210 N   0  0  0  0  0  1  0  0  0  0  0  0
  189.7820  177.0890  143.6560 N   0  0  0  0  0  0  0  0  0  0  0  0
  190.7030  179.2720  143.8470 N   0  0  0  0  0  1  0  0  0  0  0  0
  190.7030  177.9440  143.3280 C   0  0  0  0  0  0  0  0  0  0  0  0
  183.4110  177.1870  139.4300 C   0  0  0  0  0  0  0  0  0  0  0  0
  183.8760  178.3450  140.1530 N   0  0  0  0  0  0  0  0  0  0  0  0
  182.7410  176.3000  140.0290 O   0  0  0  0  0  0  0  0  0  0  0  0
  184.5420  179.4350  139.4500 C   0  0  0  0  0  1  0  0  0  0  0  0
  182.5500  177.3770  137.2220 C   0  0  0  0  0  0  0  0  0  0  0  0
  182.9780  175.9630  137.4620 O   0  0  0  0  0  0  0  0  0  0  0  0
  183.6700  177.0380  137.9550 C   0  0  2  0  0  3  0  0  0  0  0  0
  181.7150  178.2650  136.7030 C   0  0  0  0  0  2  0  0  0  0  0  0
  180.6350  179.3920  143.7170 C   0  0  0  0  0  2  0  0  0  0  0  0
  179.6810  179.2440  142.5470 C   0  0  0  0  0  2  0  0  0  0  0  0
  179.0890  180.5940  142.2050 C   0  0  0  0  0  1  0  0  0  0  0  0
  1 16  1  0  0  0  0
  1 18  1  0  0  0  0
  3  4  1  0  0  0  0
  4  8  1  0  0  0  0
  4  7  2  0  0  0  0
  5  9  2  0  0  0  0
  5  3  1  0  0  0  0
  6  1  2  0  0  0  0
  7 18  1  0  0  0  0
  9 14  1  0  0  0  0
 10  2  2  0  0  0  0
 11 10  1  0  0  0  0
 12 11  1  0  0  0  0
 12 17  1  0  0  0  0
 13  3  2  0  0  0  0
 13  6  1  0  0  0  0
 14 31  1  0  0  0  0
 14  8  2  0  0  0  0
 15  2  1  0  0  0  0
 16 12  2  0  0  0  0
 17 15  2  0  0  0  0
 18 11  2  0  0  0  0
 19 22  1  0  0  0  0
 20 16  1  0  0  0  0
 22 20  2  0  0  0  0
 22 21  1  0  0  0  0
 23 25  2  0  0  0  0
 23 24  1  0  0  0  0
 24  5  1  0  0  0  0
 26 24  1  0  0  0  0
 27 28  1  0  0  0  0
 27 29  1  0  0  0  0
 28 29  1  0  0  0  0
 29 23  1  1  0  0  0
 30 27  2  0  0  0  0
 32 31  1  0  0  0  0
 33 32  1  0  0  0  0
M  END
>  <MODEL>
1

>  <REMARK>
 VINA RESULT:     -10.3      0.000      0.000
  Name = 
  5 active torsions:
  status: ('A' for Active; 'I' for Inactive)
    1  A    between atoms: C_4  and  C_30
    2  A    between atoms: C_8  and  C_14
    3  A    between atoms: N_10  and  C_27
    4  A    between atoms: C_11  and  N_16
    5  A    between atoms: C_14  and  C_23
                            x       y       z     vdW  Elec       q    Type
                         _______ _______ _______ _____ _____    ______ ____

>  <TORSDO>
F 5

$$$$
=
 OpenBabel10222417573D

 33 37  0  0  1  0  0  0  0  0999 V2000
  187.3610  177.5330  144.1600 C   0  0  0  0  0  0  0  0  0  0  0  0
  187.9860  178.3640  148.6500 C   0  0  0  0  0  3  0  0  0  0  0  0
  184.6440  178.1270  142.7270 C   0  0  0  0  0  0  0  0  0  0  0  0
  184.3470  178.4630  144.0880 C   0  0  0  0  0  0  0  0  0  0  0  0
  183.6170  178.2670  141.7590 C   0  0  0  0  0  0  0  0  0  0  0  0
  187.0360  177.3860  142.8290 C   0  0  0  0  0  3  0  0  0  0  0  0
  185.1970  178.4070  145.1850 C   0  0  0  0  0  3  0  0  0  0  0  0
  183.0610  178.9080  144.4140 C   0  0  0  0  0  3  0  0  0  0  0  0
  182.3440  178.7110  142.1300 C   0  0  0  0  0  3  0  0  0  0  0  0
  186.9780  178.4130  147.6710 C   0  0  0  0  0  3  0  0  0  0  0  0
  187.3010  178.0020  146.3760 C   0  0  0  0  0  0  0  0  0  0  0  0
  188.5660  177.5510  146.0560 C   0  0  0  0  0  0  0  0  0  0  0  0
  185.8390  177.6610  142.2630 N   0  0  0  0  0  0  0  0  0  0  0  0
  182.0660  179.0340  143.4510 C   0  0  0  0  0  0  0  0  0  0  0  0
  189.2820  177.9240  148.3190 C   0  0  0  0  0  3  0  0  0  0  0  0
  188.6030  177.2380  144.7050 C   0  0  0  0  0  0  0  0  0  0  0  0
  189.5860  177.5180  147.0090 C   0  0  0  0  0  3  0  0  0  0  0  0
  186.5150  178.0050  145.2390 C   0  0  0  0  0  0  0  0  0  0  0  0
  191.7410  177.0640  142.7190 N   0  0  0  0  0  1  0  0  0  0  0  0
  189.7510  176.8290  143.9440 N   0  0  0  0  0  0  0  0  0  0  0  0
  190.6990  179.0040  143.8060 N   0  0  0  0  0  1  0  0  0  0  0  0
  190.6740  177.6170  143.4800 C   0  0  0  0  0  0  0  0  0  0  0  0
  184.7720  178.7540  139.5880 C   0  0  0  0  0  0  0  0  0  0  0  0
  183.8600  177.9620  140.3750 N   0  0  0  0  0  0  0  0  0  0  0  0
  185.3860  179.7210  140.1210 O   0  0  0  0  0  0  0  0  0  0  0  0
  183.2400  176.7710  139.8080 C   0  0  0  0  0  1  0  0  0  0  0  0
  186.3480  178.0020  137.9740 C   0  0  0  0  0  0  0  0  0  0  0  0
  185.8650  179.3660  137.5910 O   0  0  0  0  0  0  0  0  0  0  0  0
  185.0420  178.4210  138.1460 C   0  0  2  0  0  3  0  0  0  0  0  0
  187.3080  177.0970  138.0750 C   0  0  0  0  0  2  0  0  0  0  0  0
  180.7020  179.4890  143.8390 C   0  0  0  0  0  2  0  0  0  0  0  0
  179.7280  179.2520  142.7010 C   0  0  0  0  0  2  0  0  0  0  0  0
  179.1970  180.5800  142.2070 C   0  0  0  0  0  1  0  0  0  0  0  0
  1 16  1  0  0  0  0
  1 18  1  0  0  0  0
  3  4  1  0  0  0  0
  4  8  1  0  0  0  0
  4  7  2  0  0  0  0
  5  9  2  0  0  0  0
  5  3  1  0  0  0  0
  6  1  2  0  0  0  0
  7 18  1  0  0  0  0
  9 14  1  0  0  0  0
 10  2  2  0  0  0  0
 11 10  1  0  0  0  0
 12 11  1  0  0  0  0
 12 17  1  0  0  0  0
 13  3  2  0  0  0  0
 13  6  1  0  0  0  0
 14 31  1  0  0  0  0
 14  8  2  0  0  0  0
 15  2  1  0  0  0  0
 16 12  2  0  0  0  0
 17 15  2  0  0  0  0
 18 11  2  0  0  0  0
 19 22  1  0  0  0  0
 20 16  1  0  0  0  0
 22 21  1  0  0  0  0
 22 20  2  0  0  0  0
 23 25  2  0  0  0  0
 23 24  1  0  0  0  0
 24  5  1  0  0  0  0
 26 24  1  0  0  0  0
 27 30  2  0  0  0  0
 27 29  1  0  0  0  0
 28 27  1  0  0  0  0
 28 29  1  0  0  0  0
 29 23  1  1  0  0  0
 32 31  1  0  0  0  0
 33 32  1  0  0  0  0
M  END
>  <MODEL>
2

>  <REMARK>
 VINA RESULT:     -10.1      1.415      1.807
  Name = 
  5 active torsions:
  status: ('A' for Active; 'I' for Inactive)
    1  A    between atoms: C_4  and  C_30
    2  A    between atoms: C_8  and  C_14
    3  A    between atoms: N_10  and  C_27
    4  A    between atoms: C_11  and  N_16
    5  A    between atoms: C_14  and  C_23
                            x       y       z     vdW  Elec       q    Type
                         _______ _______ _______ _____ _____    ______ ____

>  <TORSDO>
F 5

$$$$
=
 OpenBabel10222417573D

 33 37  0  0  1  0  0  0  0  0999 V2000
  190.4220  177.1730  144.4340 C   0  0  0  0  0  0  0  0  0  0  0  0
  186.7920  178.2680  147.0530 C   0  0  0  0  0  3  0  0  0  0  0  0
  190.3010  177.2700  141.3090 C   0  0  0  0  0  0  0  0  0  0  0  0
  188.9570  177.6070  141.6730 C   0  0  0  0  0  0  0  0  0  0  0  0
  190.6290  177.2060  139.9310 C   0  0  0  0  0  0  0  0  0  0  0  0
  191.4250  176.9240  143.5220 C   0  0  0  0  0  3  0  0  0  0  0  0
  188.4250  177.7300  142.9510 C   0  0  0  0  0  3  0  0  0  0  0  0
  188.0200  177.8540  140.6650 C   0  0  0  0  0  3  0  0  0  0  0  0
  189.6590  177.4560  138.9550 C   0  0  0  0  0  3  0  0  0  0  0  0
  187.1430  178.1170  145.7010 C   0  0  0  0  0  3  0  0  0  0  0  0
  188.4460  177.7130  145.4020 C   0  0  0  0  0  0  0  0  0  0  0  0
  189.3680  177.4570  146.3980 C   0  0  0  0  0  0  0  0  0  0  0  0
  191.3140  176.9820  142.1760 N   0  0  0  0  0  0  0  0  0  0  0  0
  188.3590  177.7830  139.3180 C   0  0  0  0  0  0  0  0  0  0  0  0
  187.7380  178.0270  148.0680 C   0  0  0  0  0  3  0  0  0  0  0  0
  190.5740  177.1010  145.8120 C   0  0  0  0  0  0  0  0  0  0  0  0
  189.0450  177.6240  147.7450 C   0  0  0  0  0  3  0  0  0  0  0  0
  189.0460  177.5460  144.1680 C   0  0  0  0  0  0  0  0  0  0  0  0
  193.3420  175.7640  147.9040 N   0  0  0  0  0  1  0  0  0  0  0  0
  191.8200  176.8500  146.4830 N   0  0  0  0  0  0  0  0  0  0  0  0
  191.1080  174.8270  147.5050 N   0  0  0  0  0  1  0  0  0  0  0  0
  192.0600  175.8660  147.2950 C   0  0  0  0  0  0  0  0  0  0  0  0
  192.2240  175.7720  138.6330 C   0  0  0  0  0  0  0  0  0  0  0  0
  191.9650  176.8910  139.5040 N   0  0  0  0  0  0  0  0  0  0  0  0
  191.2640  175.0640  138.2170 O   0  0  0  0  0  0  0  0  0  0  0  0
  193.0460  177.7890  139.8910 C   0  0  0  0  0  1  0  0  0  0  0  0
  193.7020  175.4970  136.7900 C   0  0  0  0  0  0  0  0  0  0  0  0
  193.6500  174.2230  137.5740 O   0  0  0  0  0  0  0  0  0  0  0  0
  193.6200  175.4560  138.1690 C   0  0  2  0  0  3  0  0  0  0  0  0
  193.7660  176.1520  135.6410 C   0  0  0  0  0  2  0  0  0  0  0  0
  187.3290  178.0290  138.2720 C   0  0  0  0  0  2  0  0  0  0  0  0
  187.9770  178.6000  137.0240 C   0  0  0  0  0  2  0  0  0  0  0  0
  187.1780  178.1860  135.8080 C   0  0  0  0  0  1  0  0  0  0  0  0
  1 16  2  0  0  0  0
  2 15  1  0  0  0  0
  3  4  2  0  0  0  0
  3 13  1  0  0  0  0
  4  7  1  0  0  0  0
  5  3  1  0  0  0  0
  6  1  1  0  0  0  0
  7 18  2  0  0  0  0
  8  4  1  0  0  0  0
  9 14  1  0  0  0  0
  9  5  2  0  0  0  0
 10  2  2  0  0  0  0
 11 10  1  0  0  0  0
 11 12  2  0  0  0  0
 12 17  1  0  0  0  0
 13  6  2  0  0  0  0
 14  8  2  0  0  0  0
 16 12  1  0  0  0  0
 16 20  1  0  0  0  0
 17 15  2  0  0  0  0
 18  1  1  0  0  0  0
 18 11  1  0  0  0  0
 20 22  2  0  0  0  0
 22 21  1  0  0  0  0
 22 19  1  0  0  0  0
 23 24  1  0  0  0  0
 24 26  1  0  0  0  0
 24  5  1  0  0  0  0
 25 23  2  0  0  0  0
 27 28  1  0  0  0  0
 27 29  1  0  0  0  0
 28 29  1  0  0  0  0
 29 23  1  6  0  0  0
 30 27  2  0  0  0  0
 31 14  1  0  0  0  0
 32 31  1  0  0  0  0
 33 32  1  0  0  0  0
M  END
>  <MODEL>
3

>  <REMARK>
 VINA RESULT:      -9.3      4.593      6.893
  Name = 
  5 active torsions:
  status: ('A' for Active; 'I' for Inactive)
    1  A    between atoms: C_4  and  C_30
    2  A    between atoms: C_8  and  C_14
    3  A    between atoms: N_10  and  C_27
    4  A    between atoms: C_11  and  N_16
    5  A    between atoms: C_14  and  C_23
                            x       y       z     vdW  Elec       q    Type
                         _______ _______ _______ _____ _____    ______ ____

>  <TORSDO>
F 5

$$$$
=
 OpenBabel10222417573D

 33 37  0  0  1  0  0  0  0  0999 V2000
  183.7580  178.3170  142.0790 C   0  0  0  0  0  0  0  0  0  0  0  0
  179.5660  179.6020  143.4980 C   0  0  0  0  0  3  0  0  0  0  0  0
  186.1430  177.9570  144.0700 C   0  0  0  0  0  0  0  0  0  0  0  0
  185.0990  178.4240  144.9330 C   0  0  0  0  0  0  0  0  0  0  0  0
  187.4150  177.6870  144.6380 C   0  0  0  0  0  0  0  0  0  0  0  0
  185.0440  177.8970  141.8190 C   0  0  0  0  0  3  0  0  0  0  0  0
  183.7900  178.7420  144.5920 C   0  0  0  0  0  3  0  0  0  0  0  0
  185.3680  178.6020  146.2940 C   0  0  0  0  0  3  0  0  0  0  0  0
  187.6410  177.8830  146.0040 C   0  0  0  0  0  3  0  0  0  0  0  0
  180.8610  179.3950  144.0010 C   0  0  0  0  0  3  0  0  0  0  0  0
  181.8610  179.0140  143.1040 C   0  0  0  0  0  0  0  0  0  0  0  0
  181.5990  178.8500  141.7590 C   0  0  0  0  0  0  0  0  0  0  0  0
  186.0380  177.7580  142.7250 N   0  0  0  0  0  0  0  0  0  0  0  0
  186.6230  178.3350  146.8320 C   0  0  0  0  0  0  0  0  0  0  0  0
  179.2930  179.4150  142.1290 C   0  0  0  0  0  3  0  0  0  0  0  0
  182.7620  178.4480  141.1200 C   0  0  0  0  0  0  0  0  0  0  0  0
  180.3130  179.0280  141.2440 C   0  0  0  0  0  3  0  0  0  0  0  0
  183.1840  178.7010  143.3540 C   0  0  0  0  0  0  0  0  0  0  0  0
  183.4780  178.3050  137.4740 N   0  0  0  0  0  1  0  0  0  0  0  0
  182.9060  178.0730  139.7400 N   0  0  0  0  0  0  0  0  0  0  0  0
  184.0490  180.0550  139.0990 N   0  0  0  0  0  1  0  0  0  0  0  0
  183.4280  178.8070  138.8040 C   0  0  0  0  0  0  0  0  0  0  0  0
  189.7360  177.9270  143.7220 C   0  0  0  0  0  0  0  0  0  0  0  0
  188.4970  177.1990  143.8270 N   0  0  0  0  0  0  0  0  0  0  0  0
  189.8890  179.0030  144.3670 O   0  0  0  0  0  0  0  0  0  0  0  0
  188.3510  175.8960  143.1890 C   0  0  0  0  0  1  0  0  0  0  0  0
  191.6740  176.5520  143.6300 C   0  0  0  0  0  0  0  0  0  0  0  0
  192.0560  177.9630  143.3050 O   0  0  0  0  0  0  0  0  0  0  0  0
  190.8760  177.4040  142.8910 C   0  0  2  0  0  3  0  0  0  0  0  0
  191.9220  175.3850  144.2030 C   0  0  0  0  0  2  0  0  0  0  0  0
  186.8790  178.5580  148.2810 C   0  0  0  0  0  2  0  0  0  0  0  0
  187.9290  177.5850  148.7820 C   0  0  0  0  0  2  0  0  0  0  0  0
  189.2870  178.2530  148.7560 C   0  0  0  0  0  1  0  0  0  0  0  0
  1 18  1  0  0  0  0
  2 10  1  0  0  0  0
  3  5  2  0  0  0  0
  3  4  1  0  0  0  0
  4  8  2  0  0  0  0
  5  9  1  0  0  0  0
  6  1  1  0  0  0  0
  6 13  2  0  0  0  0
  7  4  1  0  0  0  0
  8 14  1  0  0  0  0
  9 14  2  0  0  0  0
 11 18  1  0  0  0  0
 11 10  2  0  0  0  0
 12 11  1  0  0  0  0
 13  3  1  0  0  0  0
 14 31  1  0  0  0  0
 15  2  2  0  0  0  0
 16 12  1  0  0  0  0
 16  1  2  0  0  0  0
 17 12  2  0  0  0  0
 17 15  1  0  0  0  0
 18  7  2  0  0  0  0
 19 22  1  0  0  0  0
 20 16  1  0  0  0  0
 22 21  1  0  0  0  0
 22 20  2  0  0  0  0
 23 24  1  0  0  0  0
 23 25  2  0  0  0  0
 24  5  1  0  0  0  0
 26 24  1  0  0  0  0
 27 30  2  0  0  0  0
 28 27  1  0  0  0  0
 29 28  1  0  0  0  0
 29 27  1  0  0  0  0
 29 23  1  1  0  0  0
 31 32  1  0  0  0  0
 33 32  1  0  0  0  0
M  END
>  <MODEL>
4

>  <REMARK>
 VINA RESULT:      -8.9      2.743      7.867
  Name = 
  5 active torsions:
  status: ('A' for Active; 'I' for Inactive)
    1  A    between atoms: C_4  and  C_30
    2  A    between atoms: C_8  and  C_14
    3  A    between atoms: N_10  and  C_27
    4  A    between atoms: C_11  and  N_16
    5  A    between atoms: C_14  and  C_23
                            x       y       z     vdW  Elec       q    Type
                         _______ _______ _______ _____ _____    ______ ____

>  <TORSDO>
F 5

$$$$
=
 OpenBabel10222417573D

 33 37  0  0  1  0  0  0  0  0999 V2000
  189.2800  176.8730  143.1830 C   0  0  0  0  0  0  0  0  0  0  0  0
  185.4920  178.6200  145.1430 C   0  0  0  0  0  3  0  0  0  0  0  0
  189.7830  177.0510  140.1010 C   0  0  0  0  0  0  0  0  0  0  0  0
  188.4830  177.6420  140.2280 C   0  0  0  0  0  0  0  0  0  0  0  0
  190.3510  176.9480  138.8050 C   0  0  0  0  0  0  0  0  0  0  0  0
  190.3720  176.4470  142.4610 C   0  0  0  0  0  3  0  0  0  0  0  0
  187.7500  177.8450  141.3900 C   0  0  0  0  0  3  0  0  0  0  0  0
  187.8230  178.0890  139.0790 C   0  0  0  0  0  3  0  0  0  0  0  0
  189.6530  177.4050  137.6830 C   0  0  0  0  0  3  0  0  0  0  0  0
  186.0610  178.4280  143.8730 C   0  0  0  0  0  3  0  0  0  0  0  0
  187.2950  177.7780  143.7980 C   0  0  0  0  0  0  0  0  0  0  0  0
  187.9410  177.3260  144.9310 C   0  0  0  0  0  0  0  0  0  0  0  0
  190.5360  176.5510  141.1220 N   0  0  0  0  0  0  0  0  0  0  0  0
  188.3960  177.9760  137.8170 C   0  0  0  0  0  0  0  0  0  0  0  0
  186.1610  178.1780  146.3000 C   0  0  0  0  0  3  0  0  0  0  0  0
  189.1460  176.7470  144.5600 C   0  0  0  0  0  0  0  0  0  0  0  0
  187.4030  177.5280  146.2030 C   0  0  0  0  0  3  0  0  0  0  0  0
  188.0780  177.5180  142.6890 C   0  0  0  0  0  0  0  0  0  0  0  0
  192.2000  176.2120  146.6110 N   0  0  0  0  0  1  0  0  0  0  0  0
  190.1690  176.2410  145.4340 N   0  0  0  0  0  0  0  0  0  0  0  0
  191.5160  178.1970  145.3380 N   0  0  0  0  0  1  0  0  0  0  0  0
  191.2690  176.8540  145.7490 C   0  0  0  0  0  0  0  0  0  0  0  0
  191.8280  175.0880  138.0030 C   0  0  0  0  0  0  0  0  0  0  0  0
  191.6590  176.3810  138.6160 N   0  0  0  0  0  0  0  0  0  0  0  0
  190.8160  174.4440  137.6050 O   0  0  0  0  0  0  0  0  0  0  0  0
  192.8210  177.1890  138.9670 C   0  0  0  0  0  1  0  0  0  0  0  0
  193.6430  174.7600  136.5020 C   0  0  0  0  0  0  0  0  0  0  0  0
  193.1220  173.4280  136.9420 O   0  0  0  0  0  0  0  0  0  0  0  0
  193.1980  174.5050  137.7850 C   0  0  2  0  0  3  0  0  0  0  0  0
  194.1410  175.5640  135.5750 C   0  0  0  0  0  2  0  0  0  0  0  0
  187.6530  178.4420  136.6140 C   0  0  0  0  0  2  0  0  0  0  0  0
  186.3060  177.7500  136.5300 C   0  0  0  0  0  2  0  0  0  0  0  0
  186.4900  176.3560  135.9710 C   0  0  0  0  0  1  0  0  0  0  0  0
  1 16  2  0  0  0  0
  2 15  1  0  0  0  0
  3  4  2  0  0  0  0
  3 13  1  0  0  0  0
  4  7  1  0  0  0  0
  5  3  1  0  0  0  0
  6  1  1  0  0  0  0
  7 18  2  0  0  0  0
  8  4  1  0  0  0  0
  9 14  1  0  0  0  0
  9  5  2  0  0  0  0
 10  2  2  0  0  0  0
 11 10  1  0  0  0  0
 11 12  2  0  0  0  0
 12 17  1  0  0  0  0
 13  6  2  0  0  0  0
 14  8  2  0  0  0  0
 16 12  1  0  0  0  0
 16 20  1  0  0  0  0
 17 15  2  0  0  0  0
 18  1  1  0  0  0  0
 18 11  1  0  0  0  0
 20 22  2  0  0  0  0
 21 22  1  0  0  0  0
 22 19  1  0  0  0  0
 23 24  1  0  0  0  0
 24  5  1  0  0  0  0
 24 26  1  0  0  0  0
 25 23  2  0  0  0  0
 27 28  1  0  0  0  0
 27 29  1  0  0  0  0
 28 29  1  0  0  0  0
 29 23  1  6  0  0  0
 30 27  2  0  0  0  0
 31 14  1  0  0  0  0
 32 31  1  0  0  0  0
 33 32  1  0  0  0  0
M  END
>  <MODEL>
5

>  <REMARK>
 VINA RESULT:      -8.8      4.382      6.888
  Name = 
  5 active torsions:
  status: ('A' for Active; 'I' for Inactive)
    1  A    between atoms: C_4  and  C_30
    2  A    between atoms: C_8  and  C_14
    3  A    between atoms: N_10  and  C_27
    4  A    between atoms: C_11  and  N_16
    5  A    between atoms: C_14  and  C_23
                            x       y       z     vdW  Elec       q    Type
                         _______ _______ _______ _____ _____    ______ ____

>  <TORSDO>
F 5

$$$$
=
 OpenBabel10222417573D

 33 37  0  0  1  0  0  0  0  0999 V2000
  185.0170  178.7020  140.8440 C   0  0  0  0  0  0  0  0  0  0  0  0
  183.8110  178.7410  145.2930 C   0  0  0  0  0  3  0  0  0  0  0  0
  187.9340  178.0490  139.9240 C   0  0  0  0  0  0  0  0  0  0  0  0
  188.0550  178.0170  141.3520 C   0  0  0  0  0  0  0  0  0  0  0  0
  189.0930  177.8000  139.1450 C   0  0  0  0  0  0  0  0  0  0  0  0
  185.5170  178.6050  139.5650 C   0  0  0  0  0  3  0  0  0  0  0  0
  187.0570  178.2240  142.2960 C   0  0  0  0  0  3  0  0  0  0  0  0
  189.3030  177.7490  141.9240 C   0  0  0  0  0  3  0  0  0  0  0  0
  190.3220  177.5410  139.7590 C   0  0  0  0  0  3  0  0  0  0  0  0
  184.9470  178.5760  144.4820 C   0  0  0  0  0  3  0  0  0  0  0  0
  184.7890  178.6930  143.0990 C   0  0  0  0  0  0  0  0  0  0  0  0
  183.5600  178.9690  142.5350 C   0  0  0  0  0  0  0  0  0  0  0  0
  186.7940  178.3180  139.2250 N   0  0  0  0  0  0  0  0  0  0  0  0
  190.4290  177.5110  141.1430 C   0  0  0  0  0  0  0  0  0  0  0  0
  182.5530  179.0020  144.7160 C   0  0  0  0  0  3  0  0  0  0  0  0
  183.6970  179.0020  141.1540 C   0  0  0  0  0  0  0  0  0  0  0  0
  182.4160  179.1120  143.3220 C   0  0  0  0  0  3  0  0  0  0  0  0
  185.7260  178.5240  142.0970 C   0  0  0  0  0  0  0  0  0  0  0  0
  180.9840  178.5070  138.6610 N   0  0  0  0  0  1  0  0  0  0  0  0
  182.6470  179.1580  140.1850 N   0  0  0  0  0  0  0  0  0  0  0  0
  182.1500  176.8390  140.0360 N   0  0  0  0  0  1  0  0  0  0  0  0
  181.9810  178.1940  139.6260 C   0  0  0  0  0  0  0  0  0  0  0  0
  188.8480  176.5760  136.9710 C   0  0  0  0  0  0  0  0  0  0  0  0
  189.0310  177.8010  137.7090 N   0  0  0  0  0  0  0  0  0  0  0  0
  188.7190  175.4830  137.5900 O   0  0  0  0  0  0  0  0  0  0  0  0
  189.0570  179.0830  137.0150 C   0  0  0  0  0  1  0  0  0  0  0  0
  187.4460  176.5030  135.0510 C   0  0  0  0  0  0  0  0  0  0  0  0
  188.3910  175.3430  135.0150 O   0  0  0  0  0  0  0  0  0  0  0  0
  188.7610  176.5810  135.4690 C   0  0  2  0  0  3  0  0  0  0  0  0
  186.2510  177.0340  134.8450 C   0  0  0  0  0  2  0  0  0  0  0  0
  191.7450  177.2530  141.7870 C   0  0  0  0  0  2  0  0  0  0  0  0
  191.6240  177.3770  143.2940 C   0  0  0  0  0  2  0  0  0  0  0  0
  191.6810  176.0000  143.9200 C   0  0  0  0  0  1  0  0  0  0  0  0
  1 16  1  0  0  0  0
  1 18  1  0  0  0  0
  3  4  1  0  0  0  0
  4  8  1  0  0  0  0
  4  7  2  0  0  0  0
  5  9  2  0  0  0  0
  5  3  1  0  0  0  0
  6  1  2  0  0  0  0
  9 14  1  0  0  0  0
 10  2  2  0  0  0  0
 11 10  1  0  0  0  0
 12 11  1  0  0  0  0
 12 17  1  0  0  0  0
 13  6  1  0  0  0  0
 13  3  2  0  0  0  0
 14 31  1  0  0  0  0
 14  8  2  0  0  0  0
 15  2  1  0  0  0  0
 16 12  2  0  0  0  0
 17 15  2  0  0  0  0
 18  7  1  0  0  0  0
 18 11  2  0  0  0  0
 19 22  1  0  0  0  0
 20 16  1  0  0  0  0
 22 21  1  0  0  0  0
 22 20  2  0  0  0  0
 23 25  2  0  0  0  0
 23 24  1  0  0  0  0
 24  5  1  0  0  0  0
 26 24  1  0  0  0  0
 27 29  1  0  0  0  0
 28 27  1  0  0  0  0
 28 29  1  0  0  0  0
 29 23  1  1  0  0  0
 30 27  2  0  0  0  0
 31 32  1  0  0  0  0
 32 33  1  0  0  0  0
M  END
>  <MODEL>
6

>  <REMARK>
 VINA RESULT:      -8.7      3.305      7.151
  Name = 
  5 active torsions:
  status: ('A' for Active; 'I' for Inactive)
    1  A    between atoms: C_4  and  C_30
    2  A    between atoms: C_8  and  C_14
    3  A    between atoms: N_10  and  C_27
    4  A    between atoms: C_11  and  N_16
    5  A    between atoms: C_14  and  C_23
                            x       y       z     vdW  Elec       q    Type
                         _______ _______ _______ _____ _____    ______ ____

>  <TORSDO>
F 5

$$$$
=
 OpenBabel10222417573D

 33 37  0  0  1  0  0  0  0  0999 V2000
  187.2740  177.8600  142.7360 C   0  0  0  0  0  0  0  0  0  0  0  0
  189.1100  177.1290  146.9000 C   0  0  0  0  0  3  0  0  0  0  0  0
  188.9600  177.6040  140.1140 C   0  0  0  0  0  0  0  0  0  0  0  0
  189.9440  177.3700  141.1280 C   0  0  0  0  0  0  0  0  0  0  0  0
  189.3720  177.5750  138.7570 C   0  0  0  0  0  0  0  0  0  0  0  0
  186.8630  177.9980  141.4290 C   0  0  0  0  0  3  0  0  0  0  0  0
  189.7600  177.3480  142.5050 C   0  0  0  0  0  3  0  0  0  0  0  0
  191.2680  177.1280  140.7490 C   0  0  0  0  0  3  0  0  0  0  0  0
  190.7080  177.3340  138.4230 C   0  0  0  0  0  3  0  0  0  0  0  0
  189.4870  177.1860  145.5470 C   0  0  0  0  0  3  0  0  0  0  0  0
  188.5030  177.4940  144.6050 C   0  0  0  0  0  0  0  0  0  0  0  0
  187.1990  177.7450  144.9790 C   0  0  0  0  0  0  0  0  0  0  0  0
  187.6400  177.8750  140.3290 N   0  0  0  0  0  0  0  0  0  0  0  0
  191.6540  177.1080  139.4130 C   0  0  0  0  0  0  0  0  0  0  0  0
  187.7750  177.3640  147.2800 C   0  0  0  0  0  3  0  0  0  0  0  0
  186.4440  177.9950  143.8420 C   0  0  0  0  0  0  0  0  0  0  0  0
  186.8010  177.6690  146.3150 C   0  0  0  0  0  3  0  0  0  0  0  0
  188.6050  177.5570  143.2280 C   0  0  0  0  0  0  0  0  0  0  0  0
  182.9870  179.3550  143.9650 N   0  0  0  0  0  1  0  0  0  0  0  0
  185.0240  178.2030  143.7750 N   0  0  0  0  0  0  0  0  0  0  0  0
  185.1210  180.5090  144.3450 N   0  0  0  0  0  1  0  0  0  0  0  0
  184.4060  179.3100  144.0550 C   0  0  0  0  0  0  0  0  0  0  0  0
  187.6410  176.6960  137.1690 C   0  0  0  0  0  0  0  0  0  0  0  0
  188.4260  177.7850  137.6940 N   0  0  0  0  0  0  0  0  0  0  0  0
  187.7660  175.5390  137.6600 O   0  0  0  0  0  0  0  0  0  0  0  0
  188.2050  179.1480  137.2230 C   0  0  0  0  0  1  0  0  0  0  0  0
  185.3480  176.8720  136.5680 C   0  0  0  0  0  0  0  0  0  0  0  0
  185.9740  175.7550  135.7940 O   0  0  0  0  0  0  0  0  0  0  0  0
  186.6370  176.9210  136.0730 C   0  0  2  0  0  3  0  0  0  0  0  0
  184.3280  177.3970  137.2300 C   0  0  0  0  0  2  0  0  0  0  0  0
  193.0770  176.8700  139.0480 C   0  0  0  0  0  2  0  0  0  0  0  0
  193.1750  176.3780  137.6160 C   0  0  0  0  0  2  0  0  0  0  0  0
  193.5890  174.9220  137.6110 C   0  0  0  0  0  1  0  0  0  0  0  0
  1 18  1  0  0  0  0
  1 16  1  0  0  0  0
  2 15  1  0  0  0  0
  3 13  2  0  0  0  0
  3  4  1  0  0  0  0
  4  7  2  0  0  0  0
  5  3  1  0  0  0  0
  6  1  2  0  0  0  0
  7 18  1  0  0  0  0
  8  4  1  0  0  0  0
  9  5  2  0  0  0  0
  9 14  1  0  0  0  0
 10  2  2  0  0  0  0
 11 12  1  0  0  0  0
 11 10  1  0  0  0  0
 12 17  1  0  0  0  0
 13  6  1  0  0  0  0
 14  8  2  0  0  0  0
 16 12  2  0  0  0  0
 17 15  2  0  0  0  0
 18 11  2  0  0  0  0
 19 22  1  0  0  0  0
 20 16  1  0  0  0  0
 20 22  2  0  0  0  0
 22 21  1  0  0  0  0
 23 25  2  0  0  0  0
 23 24  1  0  0  0  0
 24  5  1  0  0  0  0
 26 24  1  0  0  0  0
 27 30  2  0  0  0  0
 28 29  1  0  0  0  0
 28 27  1  0  0  0  0
 29 27  1  0  0  0  0
 29 23  1  1  0  0  0
 31 14  1  0  0  0  0
 32 31  1  0  0  0  0
 33 32  1  0  0  0  0
M  END
>  <MODEL>
7

>  <REMARK>
 VINA RESULT:      -8.6      3.309      6.642
  Name = 
  5 active torsions:
  status: ('A' for Active; 'I' for Inactive)
    1  A    between atoms: C_4  and  C_30
    2  A    between atoms: C_8  and  C_14
    3  A    between atoms: N_10  and  C_27
    4  A    between atoms: C_11  and  N_16
    5  A    between atoms: C_14  and  C_23
                            x       y       z     vdW  Elec       q    Type
                         _______ _______ _______ _____ _____    ______ ____

>  <TORSDO>
F 5

$$$$
=
 OpenBabel10222417573D

 33 37  0  0  1  0  0  0  0  0999 V2000
  186.9920  177.8740  143.2110 C   0  0  0  0  0  0  0  0  0  0  0  0
  191.2140  177.5010  145.0230 C   0  0  0  0  0  3  0  0  0  0  0  0
  186.5300  178.1350  140.1280 C   0  0  0  0  0  0  0  0  0  0  0  0
  187.9600  178.1250  140.2180 C   0  0  0  0  0  0  0  0  0  0  0  0
  185.9370  178.2530  138.8450 C   0  0  0  0  0  0  0  0  0  0  0  0
  185.8040  177.9450  142.5190 C   0  0  0  0  0  3  0  0  0  0  0  0
  188.7410  178.0140  141.3610 C   0  0  0  0  0  3  0  0  0  0  0  0
  188.7170  178.2370  139.0470 C   0  0  0  0  0  3  0  0  0  0  0  0
  186.7330  178.3670  137.7000 C   0  0  0  0  0  3  0  0  0  0  0  0
  190.5830  177.6940  143.7820 C   0  0  0  0  0  3  0  0  0  0  0  0
  189.1890  177.7720  143.7590 C   0  0  0  0  0  0  0  0  0  0  0  0
  188.4420  177.6740  144.9160 C   0  0  0  0  0  0  0  0  0  0  0  0
  185.6630  178.0570  141.1780 N   0  0  0  0  0  0  0  0  0  0  0  0
  188.1170  178.3560  137.7980 C   0  0  0  0  0  0  0  0  0  0  0  0
  190.4510  177.3800  146.2010 C   0  0  0  0  0  3  0  0  0  0  0  0
  187.0960  177.7610  144.5910 C   0  0  0  0  0  0  0  0  0  0  0  0
  189.0490  177.4590  146.1550 C   0  0  0  0  0  3  0  0  0  0  0  0
  188.3410  177.9030  142.6760 C   0  0  0  0  0  0  0  0  0  0  0  0
  184.2890  178.2530  146.9780 N   0  0  0  0  0  1  0  0  0  0  0  0
  185.9790  177.6060  145.4820 N   0  0  0  0  0  0  0  0  0  0  0  0
  185.6800  179.9340  145.8530 N   0  0  0  0  0  1  0  0  0  0  0  0
  185.3680  178.5670  146.1060 C   0  0  0  0  0  0  0  0  0  0  0  0
  183.7400  179.4610  138.8400 C   0  0  0  0  0  0  0  0  0  0  0  0
  184.5080  178.2500  138.6890 N   0  0  0  0  0  0  0  0  0  0  0  0
  184.3280  180.5500  139.0930 O   0  0  0  0  0  0  0  0  0  0  0  0
  183.8590  177.0120  138.2750 C   0  0  0  0  0  1  0  0  0  0  0  0
  181.7400  180.7440  138.7420 C   0  0  0  0  0  0  0  0  0  0  0  0
  181.6260  179.7370  139.8440 O   0  0  0  0  0  0  0  0  0  0  0  0
  182.2470  179.4610  138.6540 C   0  0  2  0  0  3  0  0  0  0  0  0
  181.5230  181.9520  138.2460 C   0  0  0  0  0  2  0  0  0  0  0  0
  188.9550  178.4970  136.5760 C   0  0  0  0  0  2  0  0  0  0  0  0
  188.9600  177.1980  135.7920 C   0  0  0  0  0  2  0  0  0  0  0  0
  190.1990  176.4030  136.1430 C   0  0  0  0  0  1  0  0  0  0  0  0
  1 16  2  0  0  0  0
  2 15  1  0  0  0  0
  3  4  2  0  0  0  0
  3 13  1  0  0  0  0
  4  7  1  0  0  0  0
  5  3  1  0  0  0  0
  6  1  1  0  0  0  0
  7 18  2  0  0  0  0
  8  4  1  0  0  0  0
  9 14  1  0  0  0  0
  9  5  2  0  0  0  0
 10  2  2  0  0  0  0
 11 10  1  0  0  0  0
 11 12  2  0  0  0  0
 12 17  1  0  0  0  0
 13  6  2  0  0  0  0
 14  8  2  0  0  0  0
 16 12  1  0  0  0  0
 16 20  1  0  0  0  0
 17 15  2  0  0  0  0
 18  1  1  0  0  0  0
 18 11  1  0  0  0  0
 20 22  2  0  0  0  0
 21 22  1  0  0  0  0
 22 19  1  0  0  0  0
 23 25  2  0  0  0  0
 24 23  1  0  0  0  0
 24  5  1  0  0  0  0
 26 24  1  0  0  0  0
 27 28  1  0  0  0  0
 29 27  1  0  0  0  0
 29 23  1  1  0  0  0
 29 28  1  0  0  0  0
 30 27  2  0  0  0  0
 31 14  1  0  0  0  0
 32 33  1  0  0  0  0
 32 31  1  0  0  0  0
M  END
>  <MODEL>
8

>  <REMARK>
 VINA RESULT:      -8.5      3.066      5.548
  Name = 
  5 active torsions:
  status: ('A' for Active; 'I' for Inactive)
    1  A    between atoms: C_4  and  C_30
    2  A    between atoms: C_8  and  C_14
    3  A    between atoms: N_10  and  C_27
    4  A    between atoms: C_11  and  N_16
    5  A    between atoms: C_14  and  C_23
                            x       y       z     vdW  Elec       q    Type
                         _______ _______ _______ _____ _____    ______ ____

>  <TORSDO>
F 5

$$$$
=
 OpenBabel10222417573D

 33 37  0  0  1  0  0  0  0  0999 V2000
  187.8860  177.7300  143.0830 C   0  0  0  0  0  0  0  0  0  0  0  0
  185.0900  178.6330  146.6340 C   0  0  0  0  0  3  0  0  0  0  0  0
  186.9930  178.1700  140.1170 C   0  0  0  0  0  0  0  0  0  0  0  0
  185.8020  178.5020  140.8420 C   0  0  0  0  0  0  0  0  0  0  0  0
  186.9620  178.2470  138.7010 C   0  0  0  0  0  0  0  0  0  0  0  0
  188.6140  177.5540  141.9270 C   0  0  0  0  0  3  0  0  0  0  0  0
  185.6150  178.5000  142.2190 C   0  0  0  0  0  3  0  0  0  0  0  0
  184.6580  178.8830  140.1340 C   0  0  0  0  0  3  0  0  0  0  0  0
  185.7940  178.6280  138.0330 C   0  0  0  0  0  3  0  0  0  0  0  0
  185.0830  178.6200  145.2280 C   0  0  0  0  0  3  0  0  0  0  0  0
  186.2460  178.2150  144.5700 C   0  0  0  0  0  0  0  0  0  0  0  0
  187.3730  177.8280  145.2680 C   0  0  0  0  0  0  0  0  0  0  0  0
  188.1730  177.7620  140.6650 N   0  0  0  0  0  0  0  0  0  0  0  0
  184.6460  178.9490  138.7450 C   0  0  0  0  0  0  0  0  0  0  0  0
  186.2450  178.2570  147.3460 C   0  0  0  0  0  3  0  0  0  0  0  0
  188.3730  177.5040  144.3630 C   0  0  0  0  0  0  0  0  0  0  0  0
  187.4060  177.8560  146.6640 C   0  0  0  0  0  3  0  0  0  0  0  0
  186.5090  178.1680  143.2140 C   0  0  0  0  0  0  0  0  0  0  0  0
  192.0490  177.4380  144.9160 N   0  0  0  0  0  1  0  0  0  0  0  0
  189.7320  177.1490  144.6670 N   0  0  0  0  0  0  0  0  0  0  0  0
  190.6000  179.3380  144.3470 N   0  0  0  0  0  1  0  0  0  0  0  0
  190.7560  177.9450  144.6070 C   0  0  0  0  0  0  0  0  0  0  0  0
  188.3480  176.6210  137.3890 C   0  0  0  0  0  0  0  0  0  0  0  0
  188.1300  177.9430  137.9190 N   0  0  0  0  0  0  0  0  0  0  0  0
  187.4930  175.7130  137.5930 O   0  0  0  0  0  0  0  0  0  0  0  0
  189.0440  179.0310  137.5890 C   0  0  0  0  0  1  0  0  0  0  0  0
  190.0760  175.0700  136.8760 C   0  0  0  0  0  0  0  0  0  0  0  0
  190.6900  176.3590  137.3260 O   0  0  0  0  0  0  0  0  0  0  0  0
  189.5590  176.3110  136.5530 C   0  0  2  0  0  3  0  0  0  0  0  0
  190.0520  173.7470  136.8350 C   0  0  0  0  0  2  0  0  0  0  0  0
  183.4020  179.3360  138.0250 C   0  0  0  0  0  2  0  0  0  0  0  0
  182.3310  179.7520  139.0160 C   0  0  0  0  0  2  0  0  0  0  0  0
  181.1250  178.8520  138.8620 C   0  0  0  0  0  1  0  0  0  0  0  0
  1 18  1  0  0  0  0
  1 16  1  0  0  0  0
  2 15  1  0  0  0  0
  3 13  2  0  0  0  0
  3  4  1  0  0  0  0
  4  7  2  0  0  0  0
  5  3  1  0  0  0  0
  6  1  2  0  0  0  0
  7 18  1  0  0  0  0
  8  4  1  0  0  0  0
  9  5  2  0  0  0  0
  9 14  1  0  0  0  0
 10  2  2  0  0  0  0
 11 10  1  0  0  0  0
 11 12  1  0  0  0  0
 12 17  1  0  0  0  0
 13  6  1  0  0  0  0
 14  8  2  0  0  0  0
 16 20  1  0  0  0  0
 16 12  2  0  0  0  0
 17 15  2  0  0  0  0
 18 11  2  0  0  0  0
 21 22  1  0  0  0  0
 22 20  2  0  0  0  0
 22 19  1  0  0  0  0
 23 25  2  0  0  0  0
 23 24  1  0  0  0  0
 24  5  1  0  0  0  0
 26 24  1  0  0  0  0
 27 28  1  0  0  0  0
 29 27  1  0  0  0  0
 29 28  1  0  0  0  0
 29 23  1  1  0  0  0
 30 27  2  0  0  0  0
 31 14  1  0  0  0  0
 31 32  1  0  0  0  0
 33 32  1  0  0  0  0
M  END
>  <MODEL>
9

>  <REMARK>
 VINA RESULT:      -8.2      3.253      4.337
  Name = 
  5 active torsions:
  status: ('A' for Active; 'I' for Inactive)
    1  A    between atoms: C_4  and  C_30
    2  A    between atoms: C_8  and  C_14
    3  A    between atoms: N_10  and  C_27
    4  A    between atoms: C_11  and  N_16
    5  A    between atoms: C_14  and  C_23
                            x       y       z     vdW  Elec       q    Type
                         _______ _______ _______ _____ _____    ______ ____

>  <TORSDO>
F 5

$$$$
