=
 OpenBabel10222415223D

 60 68  0  0  1  0  0  0  0  0999 V2000
  188.4900  176.4660  142.9960 C   0  0  1  0  0  3  0  0  0  0  0  0
  191.5170  174.7090  135.7140 C   0  0  1  0  0  3  0  0  0  0  0  0
  184.1770  178.3330  141.2380 C   0  0  0  0  0  2  0  0  0  0  0  0
  183.9910  178.8240  138.0200 C   0  0  0  0  0  2  0  0  0  0  0  0
  188.0540  176.5510  137.2660 C   0  0  0  0  0  0  0  0  0  0  0  0
  189.6900  176.6600  143.9540 C   0  0  2  0  0  3  0  0  0  0  0  0
  190.2200  176.7760  140.9820 C   0  0  1  0  0  3  0  0  0  0  0  0
  186.9910  173.4560  135.5890 C   0  0  0  0  0  1  0  0  0  0  0  0
  190.0470  174.4590  136.0910 C   0  0  0  0  0  2  0  0  0  0  0  0
  192.1110  175.9090  136.4000 C   0  0  0  0  0  0  0  0  0  0  0  0
  185.4510  175.0640  136.6950 C   0  0  0  0  0  0  0  0  0  0  0  0
  188.7870  176.8510  141.5540 C   0  0  0  0  0  0  0  0  0  0  0  0
  185.3210  178.4690  138.2870 O   0  0  0  0  0  0  0  0  0  0  0  0
  190.2440  176.6970  139.4650 C   0  0  1  0  0  3  0  0  0  0  0  0
  184.9890  177.8000  143.7440 C   0  0  0  0  0  0  0  0  0  0  0  0
  182.5930  179.7560  139.8600 C   0  0  0  0  0  2  0  0  0  0  0  0
  187.7750  177.2820  140.7880 C   0  0  0  0  0  3  0  0  0  0  0  0
  189.9340  177.6880  145.0370 C   0  0  2  0  0  0  0  0  0  0  0  0
  192.9790  176.7320  135.7000 O   0  0  0  0  0  1  0  0  0  0  0  0
  187.1380  176.7170  138.4110 C   0  0  1  0  0  3  0  0  0  0  0  0
  191.4180  178.6800  143.9680 C   0  0  2  0  0  0  0  0  0  0  0  0
  183.6420  180.0860  138.8040 C   0  0  0  0  0  2  0  0  0  0  0  0
  188.0300  175.1410  143.0910 O   0  0  0  0  0  1  0  0  0  0  0  0
  186.9040  177.2500  145.2180 C   0  0  0  0  0  2  0  0  0  0  0  0
  184.6350  178.0700  142.6180 C   0  0  0  0  0  0  0  0  0  0  0  0
  191.3470  178.1740  145.3680 C   0  0  0  0  0  2  0  0  0  0  0  0
  187.9010  177.6890  139.3340 C   0  0  2  0  0  3  0  0  0  0  0  0
  188.7390  178.2350  145.9120 C   0  0  0  0  0  2  0  0  0  0  0  0
  189.1900  177.3310  137.4220 O   0  0  0  0  0  0  0  0  0  0  0  0
  185.7980  177.1940  137.9460 C   0  0  0  0  0  0  0  0  0  0  0  0
  192.4070  179.6030  143.5130 O   0  0  0  0  0  1  0  0  0  0  0  0
  189.3380  177.7280  138.7700 C   0  0  2  0  0  0  0  0  0  0  0  0
  190.1310  178.0960  143.5610 C   0  0  2  0  0  0  0  0  0  0  0  0
  184.5260  174.2280  136.4820 O   0  0  0  0  0  0  0  0  0  0  0  0
  189.1120  175.4380  135.4070 C   0  0  0  0  0  2  0  0  0  0  0  0
  185.3930  177.4390  145.1060 C   0  0  0  0  0  2  0  0  0  0  0  0
  191.1850  177.8640  141.5630 C   0  0  0  0  0  2  0  0  0  0  0  0
  191.3900  177.5900  142.9990 N   0  0  1  0  0  0  0  0  0  0  0  0
  189.8990  179.1450  138.8260 C   0  0  0  0  0  1  0  0  0  0  0  0
  187.5830  178.4600  145.1650 O   0  0  0  0  0  0  0  0  0  0  0  0
  191.8500  176.2020  137.6480 C   0  0  0  0  0  0  0  0  0  0  0  0
  185.0440  176.3800  137.1920 C   0  0  0  0  0  3  0  0  0  0  0  0
  191.6270  176.5510  138.8860 C   0  0  0  0  0  3  0  0  0  0  0  0
  187.9160  175.6600  136.2820 C   0  0  0  0  0  0  0  0  0  0  0  0
  186.7900  174.7490  136.2390 N   0  0  0  0  0  0  0  0  0  0  0  0
  183.1920  179.4900  141.2470 C   0  0  0  0  0  2  0  0  0  0  0  0
  191.7340  172.4050  136.2900 O   0  0  0  0  0  0  0  0  0  0  0  0
  192.3270  173.4990  136.0320 C   0  0  0  0  0  0  0  0  0  0  0  0
  193.7140  173.5880  136.0390 O   0  0  0  0  0  0  0  0  0  0  0  0
  195.7400  175.4580  136.8280 O   0  0  0  0  0  0  0  0  0  0  0  0
  194.4200  173.5600  137.2320 N   0  0  0  0  0  2  0  0  0  0  0  0
  195.5470  174.4000  137.4880 C   0  0  0  0  0  0  0  0  0  0  0  0
  196.5030  173.9960  138.5750 C   0  0  2  0  0  3  0  0  0  0  0  0
  197.3550  175.0300  140.5600 O   0  0  0  0  0  1  0  0  0  0  0  0
  196.3800  174.8940  139.7600 C   0  0  0  0  0  0  0  0  0  0  0  0
  195.2240  175.6450  139.9730 O   0  0  0  0  0  0  0  0  0  0  0  0
  197.9510  174.0050  138.0630 C   0  0  0  0  0  2  0  0  0  0  0  0
  198.1810  171.5990  137.3290 O   0  0  0  0  0  1  0  0  0  0  0  0
  198.5860  173.3310  135.8580 O   0  0  0  0  0  0  0  0  0  0  0  0
  198.2130  172.9630  137.0120 C   0  0  0  0  0  0  0  0  0  0  0  0
  1 23  1  6  0  0  0
  1  6  1  0  0  0  0
  2 48  1  1  0  0  0
  2  9  1  0  0  0  0
  2 10  1  0  0  0  0
  3 46  1  0  0  0  0
  3 25  1  0  0  0  0
  4 13  1  0  0  0  0
  4 22  1  0  0  0  0
  5 29  1  0  0  0  0
  5 20  1  0  0  0  0
  6 18  1  0  0  0  0
  7 12  1  0  0  0  0
  7 37  1  0  0  0  0
  8 45  1  0  0  0  0
 10 41  2  0  0  0  0
 11 42  1  0  0  0  0
 12  1  1  0  0  0  0
 14  7  1  0  0  0  0
 15 36  1  0  0  0  0
 16 46  1  0  0  0  0
 17 12  2  0  0  0  0
 18 26  1  0  0  0  0
 18 28  1  0  0  0  0
 19 10  1  0  0  0  0
 20 27  1  0  0  0  0
 21 26  1  0  0  0  0
 22 16  1  0  0  0  0
 25 15  3  0  0  0  0
 27 17  1  0  0  0  0
 29 32  1  0  0  0  0
 30 13  1  0  0  0  0
 30 20  1  0  0  0  0
 31 21  1  0  0  0  0
 32 39  1  0  0  0  0
 32 27  1  0  0  0  0
 32 14  1  0  0  0  0
 33  6  1  0  0  0  0
 33 21  1  0  0  0  0
 33 18  1  0  0  0  0
 34 11  2  0  0  0  0
 35  9  1  0  0  0  0
 35 44  1  0  0  0  0
 36 24  1  0  0  0  0
 37 38  1  0  0  0  0
 38 33  1  0  0  0  0
 38 21  1  0  0  0  0
 40 24  1  0  0  0  0
 40 28  1  0  0  0  0
 41 43  2  0  0  0  0
 42 30  2  0  0  0  0
 43 14  1  0  0  0  0
 44  5  2  0  0  0  0
 45 44  1  0  0  0  0
 45 11  1  0  0  0  0
 48 49  1  0  0  0  0
 48 47  2  0  0  0  0
 49 51  1  0  0  0  0
 50 52  2  0  0  0  0
 51 52  1  0  0  0  0
 52 53  1  0  0  0  0
 53 55  1  0  0  0  0
 55 56  2  0  0  0  0
 55 54  1  0  0  0  0
 57 53  1  0  0  0  0
 59 60  2  0  0  0  0
 60 58  1  0  0  0  0
 60 57  1  0  0  0  0
M  END
>  <MODEL>
1

>  <REMARK>
 VINA RESULT:      -5.3      0.000      0.000
  Name = 
  7 active torsions:
  status: ('A' for Active; 'I' for Inactive)
    1  A    between atoms: C_2  and  C_36
    2  A    between atoms: C_3  and  C_20
    3  A    between atoms: C_3  and  C_22
    4  A    between atoms: C_3  and  C_23
    5  A    between atoms: O_4  and  N_11
    6  A    between atoms: O_4  and  C_36
    7  A    between atoms: C_20  and  C_58
                            x       y       z     vdW  Elec       q    Type
                         _______ _______ _______ _____ _____    ______ ____

>  <TORSDO>
F 7

$$$$
=
 OpenBabel10222415223D

 60 68  0  0  1  0  0  0  0  0999 V2000
  188.4490  176.4770  143.0620 C   0  0  1  0  0  3  0  0  0  0  0  0
  191.6230  174.7170  135.8430 C   0  0  1  0  0  3  0  0  0  0  0  0
  184.1720  178.3420  141.2150 C   0  0  0  0  0  2  0  0  0  0  0  0
  184.0510  178.8320  137.9950 C   0  0  0  0  0  2  0  0  0  0  0  0
  188.1280  176.5600  137.3240 C   0  0  0  0  0  0  0  0  0  0  0  0
  189.6290  176.6720  144.0430 C   0  0  2  0  0  3  0  0  0  0  0  0
  190.2190  176.7860  141.0830 C   0  0  1  0  0  3  0  0  0  0  0  0
  187.1000  173.4630  135.6270 C   0  0  0  0  0  1  0  0  0  0  0  0
  190.1450  174.4670  136.1910 C   0  0  0  0  0  2  0  0  0  0  0  0
  192.2020  175.9170  136.5400 C   0  0  0  0  0  0  0  0  0  0  0  0
  185.5380  175.0720  136.7010 C   0  0  0  0  0  0  0  0  0  0  0  0
  188.7750  176.8610  141.6260 C   0  0  0  0  0  0  0  0  0  0  0  0
  185.3760  178.4780  138.2880 O   0  0  0  0  0  0  0  0  0  0  0  0
  190.2740  176.7060  139.5660 C   0  0  1  0  0  3  0  0  0  0  0  0
  184.9330  177.8110  143.7380 C   0  0  0  0  0  0  0  0  0  0  0  0
  182.6160  179.7650  139.8060 C   0  0  0  0  0  2  0  0  0  0  0  0
  187.7790  177.2920  140.8390 C   0  0  0  0  0  3  0  0  0  0  0  0
  189.8510  177.6990  145.1310 C   0  0  2  0  0  0  0  0  0  0  0  0
  193.0850  176.7400  135.8580 O   0  0  0  0  0  1  0  0  0  0  0  0
  187.1900  176.7260  138.4500 C   0  0  1  0  0  3  0  0  0  0  0  0
  191.3560  178.6920  144.0920 C   0  0  2  0  0  0  0  0  0  0  0  0
  183.6860  180.0950  138.7700 C   0  0  0  0  0  2  0  0  0  0  0  0
  187.9870  175.1520  143.1480 O   0  0  0  0  0  1  0  0  0  0  0  0
  186.8180  177.2610  145.2510 C   0  0  0  0  0  2  0  0  0  0  0  0
  184.6010  178.0800  142.6050 C   0  0  0  0  0  0  0  0  0  0  0  0
  191.2570  178.1860  145.4900 C   0  0  0  0  0  2  0  0  0  0  0  0
  187.9340  177.6980  139.3870 C   0  0  2  0  0  3  0  0  0  0  0  0
  188.6390  178.2470  145.9810 C   0  0  0  0  0  2  0  0  0  0  0  0
  189.2610  177.3390  137.5020 O   0  0  0  0  0  0  0  0  0  0  0  0
  185.8590  177.2020  137.9580 C   0  0  0  0  0  0  0  0  0  0  0  0
  192.3540  179.6140  143.6560 O   0  0  0  0  0  1  0  0  0  0  0  0
  189.3820  177.7370  138.8530 C   0  0  2  0  0  0  0  0  0  0  0  0
  190.0780  178.1070  143.6590 C   0  0  2  0  0  0  0  0  0  0  0  0
  184.6170  174.2350  136.4700 O   0  0  0  0  0  0  0  0  0  0  0  0
  189.2240  175.4450  135.4870 C   0  0  0  0  0  2  0  0  0  0  0  0
  185.3100  177.4510  145.1080 C   0  0  0  0  0  2  0  0  0  0  0  0
  191.1720  177.8750  141.6820 C   0  0  0  0  0  2  0  0  0  0  0  0
  191.3480  177.6010  143.1220 N   0  0  1  0  0  0  0  0  0  0  0  0
  189.9420  179.1540  138.9200 C   0  0  0  0  0  1  0  0  0  0  0  0
  187.4980  178.4720  145.2100 O   0  0  0  0  0  0  0  0  0  0  0  0
  191.9160  176.2100  137.7830 C   0  0  0  0  0  0  0  0  0  0  0  0
  185.1210  176.3880  137.1890 C   0  0  0  0  0  3  0  0  0  0  0  0
  191.6680  176.5600  139.0160 C   0  0  0  0  0  3  0  0  0  0  0  0
  188.0100  175.6670  136.3370 C   0  0  0  0  0  0  0  0  0  0  0  0
  186.8860  174.7570  136.2720 N   0  0  0  0  0  0  0  0  0  0  0  0
  183.1870  179.4990  141.2040 C   0  0  0  0  0  2  0  0  0  0  0  0
  192.5200  173.1400  137.3910 O   0  0  0  0  0  0  0  0  0  0  0  0
  192.4260  173.5070  136.1770 C   0  0  0  0  0  0  0  0  0  0  0  0
  193.0570  172.8020  135.1580 O   0  0  0  0  0  0  0  0  0  0  0  0
  194.8850  170.9650  136.3840 O   0  0  0  0  0  0  0  0  0  0  0  0
  194.4370  172.8270  135.0280 N   0  0  0  0  0  2  0  0  0  0  0  0
  195.3060  172.0080  135.8110 C   0  0  0  0  0  0  0  0  0  0  0  0
  196.7470  172.4160  135.9350 C   0  0  2  0  0  3  0  0  0  0  0  0
  198.1160  170.7230  136.9310 O   0  0  0  0  0  1  0  0  0  0  0  0
  197.6490  171.2290  135.8660 C   0  0  0  0  0  0  0  0  0  0  0  0
  197.9410  170.6210  134.6460 O   0  0  0  0  0  0  0  0  0  0  0  0
  196.9910  173.1800  137.2450 C   0  0  0  0  0  2  0  0  0  0  0  0
  197.5000  175.5810  136.6480 O   0  0  0  0  0  0  0  0  0  0  0  0
  195.5150  175.0110  137.6790 O   0  0  0  0  0  1  0  0  0  0  0  0
  196.6080  174.6310  137.1630 C   0  0  0  0  0  0  0  0  0  0  0  0
  1 23  1  6  0  0  0
  1  6  1  0  0  0  0
  2 48  1  1  0  0  0
  2  9  1  0  0  0  0
  2 10  1  0  0  0  0
  3 25  1  0  0  0  0
  4 13  1  0  0  0  0
  4 22  1  0  0  0  0
  5 29  1  0  0  0  0
  5 20  1  0  0  0  0
  6 18  1  0  0  0  0
  7 12  1  0  0  0  0
  7 37  1  0  0  0  0
  8 45  1  0  0  0  0
 10 41  2  0  0  0  0
 11 42  1  0  0  0  0
 12  1  1  0  0  0  0
 14  7  1  0  0  0  0
 15 36  1  0  0  0  0
 16 46  1  0  0  0  0
 17 12  2  0  0  0  0
 18 26  1  0  0  0  0
 18 28  1  0  0  0  0
 19 10  1  0  0  0  0
 20 27  1  0  0  0  0
 21 26  1  0  0  0  0
 22 16  1  0  0  0  0
 25 15  3  0  0  0  0
 27 17  1  0  0  0  0
 29 32  1  0  0  0  0
 30 13  1  0  0  0  0
 30 20  1  0  0  0  0
 31 21  1  0  0  0  0
 32 39  1  0  0  0  0
 32 27  1  0  0  0  0
 32 14  1  0  0  0  0
 33  6  1  0  0  0  0
 33 21  1  0  0  0  0
 33 18  1  0  0  0  0
 34 11  2  0  0  0  0
 35  9  1  0  0  0  0
 35 44  1  0  0  0  0
 36 24  1  0  0  0  0
 37 38  1  0  0  0  0
 38 33  1  0  0  0  0
 38 21  1  0  0  0  0
 40 24  1  0  0  0  0
 40 28  1  0  0  0  0
 41 43  2  0  0  0  0
 42 30  2  0  0  0  0
 43 14  1  0  0  0  0
 44  5  2  0  0  0  0
 45 44  1  0  0  0  0
 45 11  1  0  0  0  0
 46  3  1  0  0  0  0
 48 47  2  0  0  0  0
 49 48  1  0  0  0  0
 51 49  1  0  0  0  0
 51 52  1  0  0  0  0
 52 53  1  0  0  0  0
 52 50  2  0  0  0  0
 53 57  1  0  0  0  0
 55 53  1  0  0  0  0
 55 54  1  0  0  0  0
 56 55  2  0  0  0  0
 58 60  2  0  0  0  0
 60 57  1  0  0  0  0
 60 59  1  0  0  0  0
M  END
>  <MODEL>
2

>  <REMARK>
 VINA RESULT:      -4.3      0.926      1.884
  Name = 
  7 active torsions:
  status: ('A' for Active; 'I' for Inactive)
    1  A    between atoms: C_2  and  C_36
    2  A    between atoms: C_3  and  C_20
    3  A    between atoms: C_3  and  C_22
    4  A    between atoms: C_3  and  C_23
    5  A    between atoms: O_4  and  N_11
    6  A    between atoms: O_4  and  C_36
    7  A    between atoms: C_20  and  C_58
                            x       y       z     vdW  Elec       q    Type
                         _______ _______ _______ _____ _____    ______ ____

>  <TORSDO>
F 7

$$$$
=
 OpenBabel10222415223D

 60 68  0  0  1  0  0  0  0  0999 V2000
  182.2110  176.6710  140.1110 C   0  0  1  0  0  3  0  0  0  0  0  0
  189.1620  176.6810  135.9930 C   0  0  1  0  0  3  0  0  0  0  0  0
  180.2010  172.8420  137.5670 C   0  0  0  0  0  2  0  0  0  0  0  0
  181.7790  171.8700  134.8850 C   0  0  0  0  0  2  0  0  0  0  0  0
  185.4960  174.5970  135.8760 C   0  0  0  0  0  0  0  0  0  0  0  0
  182.0120  178.0990  140.6730 C   0  0  2  0  0  3  0  0  0  0  0  0
  183.9950  177.7280  138.4250 C   0  0  1  0  0  3  0  0  0  0  0  0
  188.1080  172.1690  136.7750 C   0  0  0  0  0  1  0  0  0  0  0  0
  188.4590  175.3890  136.4440 C   0  0  0  0  0  2  0  0  0  0  0  0
  188.2060  177.7960  135.6700 C   0  0  0  0  0  0  0  0  0  0  0  0
  185.7020  171.6140  136.4860 C   0  0  0  0  0  0  0  0  0  0  0  0
  182.9740  176.6300  138.7950 C   0  0  0  0  0  0  0  0  0  0  0  0
  182.4230  173.0370  135.3170 O   0  0  0  0  0  0  0  0  0  0  0  0
  184.9930  177.2730  137.3730 C   0  0  1  0  0  3  0  0  0  0  0  0
  179.3580  174.1540  139.7560 C   0  0  0  0  0  0  0  0  0  0  0  0
  179.4270  171.4490  135.5940 C   0  0  0  0  0  2  0  0  0  0  0  0
  182.7250  175.6240  137.9460 C   0  0  0  0  0  3  0  0  0  0  0  0
  180.7730  178.9640  140.7590 C   0  0  2  0  0  0  0  0  0  0  0  0
  188.4700  178.6290  134.5940 O   0  0  0  0  0  1  0  0  0  0  0  0
  184.2860  174.1640  136.6000 C   0  0  1  0  0  3  0  0  0  0  0  0
  181.4190  180.2940  139.2950 C   0  0  2  0  0  0  0  0  0  0  0  0
  180.3140  172.1830  134.5940 C   0  0  0  0  0  2  0  0  0  0  0  0
  182.8260  175.8700  141.0890 O   0  0  0  0  0  1  0  0  0  0  0  0
  179.6410  176.1480  141.2010 C   0  0  0  0  0  2  0  0  0  0  0  0
  179.7210  173.5840  138.7510 C   0  0  0  0  0  0  0  0  0  0  0  0
  180.8600  180.4890  140.6630 C   0  0  0  0  0  2  0  0  0  0  0  0
  183.4070  175.4320  136.6060 C   0  0  2  0  0  3  0  0  0  0  0  0
  179.3570  178.3190  141.0270 C   0  0  0  0  0  2  0  0  0  0  0  0
  185.3780  175.9120  135.4530 O   0  0  0  0  0  0  0  0  0  0  0  0
  183.6790  172.9660  135.9400 C   0  0  0  0  0  0  0  0  0  0  0  0
  181.5200  181.3390  138.3280 O   0  0  0  0  0  1  0  0  0  0  0  0
  184.3490  176.5720  136.1630 C   0  0  2  0  0  0  0  0  0  0  0  0
  181.4990  178.8290  139.4020 C   0  0  2  0  0  0  0  0  0  0  0  0
  185.9840  170.4550  136.9060 O   0  0  0  0  0  0  0  0  0  0  0  0
  187.8320  174.6490  135.2790 C   0  0  0  0  0  2  0  0  0  0  0  0
  178.9320  174.8120  140.9950 C   0  0  0  0  0  2  0  0  0  0  0  0
  183.3380  179.1120  138.1000 C   0  0  0  0  0  2  0  0  0  0  0  0
  182.7230  179.6390  139.3350 N   0  0  1  0  0  0  0  0  0  0  0  0
  183.6240  177.5380  135.2330 C   0  0  0  0  0  1  0  0  0  0  0  0
  179.1700  177.1230  140.3310 O   0  0  0  0  0  0  0  0  0  0  0  0
  187.1310  178.0240  136.3810 C   0  0  0  0  0  0  0  0  0  0  0  0
  184.3540  171.8070  135.9500 C   0  0  0  0  0  3  0  0  0  0  0  0
  186.0430  178.3020  137.0460 C   0  0  0  0  0  3  0  0  0  0  0  0
  186.6300  173.9000  135.7690 C   0  0  0  0  0  0  0  0  0  0  0  0
  186.7690  172.5870  136.3650 N   0  0  0  0  0  0  0  0  0  0  0  0
  179.0070  172.3190  136.7850 C   0  0  0  0  0  2  0  0  0  0  0  0
  191.3350  176.7850  136.9700 O   0  0  0  0  0  0  0  0  0  0  0  0
  190.1130  177.1270  137.0500 C   0  0  0  0  0  0  0  0  0  0  0  0
  189.6490  177.9090  138.1010 O   0  0  0  0  0  0  0  0  0  0  0  0
  187.4840  178.5930  139.8530 O   0  0  0  0  0  0  0  0  0  0  0  0
  189.4120  177.3520  139.3480 N   0  0  0  0  0  2  0  0  0  0  0  0
  188.4330  177.8650  140.2540 C   0  0  0  0  0  0  0  0  0  0  0  0
  188.5580  177.5100  141.7100 C   0  0  2  0  0  3  0  0  0  0  0  0
  186.9710  177.1340  143.4640 O   0  0  0  0  0  1  0  0  0  0  0  0
  187.2980  177.8190  142.4480 C   0  0  0  0  0  0  0  0  0  0  0  0
  186.4980  178.8990  142.0770 O   0  0  0  0  0  0  0  0  0  0  0  0
  189.7370  178.2530  142.3570 C   0  0  0  0  0  2  0  0  0  0  0  0
  190.8690  177.8060  144.5700 O   0  0  0  0  0  1  0  0  0  0  0  0
  191.0600  176.3160  142.8170 O   0  0  0  0  0  0  0  0  0  0  0  0
  190.5530  177.3840  143.2720 C   0  0  0  0  0  0  0  0  0  0  0  0
  1  6  1  0  0  0  0
  1 23  1  1  0  0  0
  2  9  1  0  0  0  0
  2 48  1  1  0  0  0
  3 25  1  0  0  0  0
  4 13  1  0  0  0  0
  5 20  1  0  0  0  0
  6 18  1  0  0  0  0
  7 12  1  0  0  0  0
 10  2  1  0  0  0  0
 10 41  2  0  0  0  0
 11 34  2  0  0  0  0
 12  1  1  0  0  0  0
 13 30  1  0  0  0  0
 14  7  1  0  0  0  0
 15 36  1  0  0  0  0
 16 46  1  0  0  0  0
 17 12  2  0  0  0  0
 18 28  1  0  0  0  0
 19 10  1  0  0  0  0
 20 27  1  0  0  0  0
 21 38  1  0  0  0  0
 21 33  1  0  0  0  0
 21 26  1  0  0  0  0
 22  4  1  0  0  0  0
 22 16  1  0  0  0  0
 25 15  3  0  0  0  0
 26 18  1  0  0  0  0
 27 17  1  0  0  0  0
 29  5  1  0  0  0  0
 29 32  1  0  0  0  0
 30 42  2  0  0  0  0
 30 20  1  0  0  0  0
 31 21  1  0  0  0  0
 32 27  1  0  0  0  0
 32 14  1  0  0  0  0
 33  6  1  0  0  0  0
 33 18  1  0  0  0  0
 35 44  1  0  0  0  0
 35  9  1  0  0  0  0
 36 24  1  0  0  0  0
 37  7  1  0  0  0  0
 37 38  1  0  0  0  0
 38 33  1  0  0  0  0
 39 32  1  0  0  0  0
 40 28  1  0  0  0  0
 40 24  1  0  0  0  0
 41 43  2  0  0  0  0
 42 11  1  0  0  0  0
 43 14  1  0  0  0  0
 44  5  2  0  0  0  0
 44 45  1  0  0  0  0
 45 11  1  0  0  0  0
 45  8  1  0  0  0  0
 46  3  1  0  0  0  0
 47 48  2  0  0  0  0
 48 49  1  0  0  0  0
 49 51  1  0  0  0  0
 50 52  2  0  0  0  0
 51 52  1  0  0  0  0
 52 53  1  0  0  0  0
 53 57  1  0  0  0  0
 53 55  1  0  0  0  0
 55 54  1  0  0  0  0
 56 55  2  0  0  0  0
 57 60  1  0  0  0  0
 59 60  2  0  0  0  0
 60 58  1  0  0  0  0
M  END
>  <MODEL>
3

>  <REMARK>
 VINA RESULT:      -3.5      3.707      7.675
  Name = 
  7 active torsions:
  status: ('A' for Active; 'I' for Inactive)
    1  A    between atoms: C_2  and  C_36
    2  A    between atoms: C_3  and  C_20
    3  A    between atoms: C_3  and  C_22
    4  A    between atoms: C_3  and  C_23
    5  A    between atoms: O_4  and  N_11
    6  A    between atoms: O_4  and  C_36
    7  A    between atoms: C_20  and  C_58
                            x       y       z     vdW  Elec       q    Type
                         _______ _______ _______ _____ _____    ______ ____

>  <TORSDO>
F 7

$$$$
