=
 OpenBabel10222418263D

 26 28  0  0  1  0  0  0  0  0999 V2000
  190.3410  176.8380  146.7520 C   0  0  0  0  0  0  0  0  0  0  0  0
  189.0490  177.5130  147.6570 S   0  0  0  0  0  0  0  0  0  0  0  0
  186.8460  178.0800  145.9170 C   0  0  0  0  0  0  0  0  0  0  0  0
  186.7970  177.8600  144.5480 C   0  0  0  0  0  0  0  0  0  0  0  0
  190.0130  176.7150  145.3890 C   0  0  0  0  0  3  0  0  0  0  0  0
  185.7980  178.6610  146.6200 C   0  0  0  0  0  3  0  0  0  0  0  0
  184.6570  179.0260  145.8810 C   0  0  0  0  0  3  0  0  0  0  0  0
  184.5870  178.8120  144.4850 C   0  0  0  0  0  0  0  0  0  0  0  0
  188.0830  177.6340  146.3010 C   0  0  0  0  0  0  0  0  0  0  0  0
  185.6750  178.2200  143.8040 C   0  0  0  0  0  3  0  0  0  0  0  0
  188.7170  177.1820  145.1990 C   0  0  0  0  0  0  0  0  0  0  0  0
  187.9480  177.2990  144.0970 N   0  0  0  0  0  0  0  0  0  0  0  0
  192.1060  177.0780  148.3110 O   0  0  0  0  0  1  0  0  0  0  0  0
  192.3330  175.3690  146.8030 O   0  0  0  0  0  0  0  0  0  0  0  0
  191.6300  176.4440  147.3320 C   0  0  0  0  0  0  0  0  0  0  0  0
  188.3090  176.9840  142.7220 C   0  0  0  0  0  2  0  0  0  0  0  0
  188.8560  178.2240  142.0340 C   0  0  0  0  0  2  0  0  0  0  0  0
  188.9460  178.1870  139.5440 C   0  0  0  0  0  1  0  0  0  0  0  0
  188.0880  178.5000  140.7550 C   0  0  0  0  0  2  0  0  0  0  0  0
  183.4280  179.1970  143.8050 O   0  0  0  0  0  0  0  0  0  0  0  0
  182.8450  178.4280  142.7480 C   0  0  2  0  0  3  0  0  0  0  0  0
  183.0400  177.6440  140.3410 C   0  0  0  0  0  1  0  0  0  0  0  0
  183.5780  178.5810  141.4090 C   0  0  0  0  0  2  0  0  0  0  0  0
  181.4480  178.6110  142.6390 O   0  0  0  0  0  0  0  0  0  0  0  0
  180.8830  178.6270  143.9240 C   0  0  0  0  0  2  0  0  0  0  0  0
  179.6890  177.9080  143.9170 O   0  0  0  0  0  1  0  0  0  0  0  0
  1 15  1  0  0  0  0
  1  2  1  0  0  0  0
  3  9  1  0  0  0  0
  3  6  1  0  0  0  0
  4  3  2  0  0  0  0
  5  1  2  0  0  0  0
  7  6  2  0  0  0  0
  8  7  1  0  0  0  0
  9  2  1  0  0  0  0
 10  8  2  0  0  0  0
 10  4  1  0  0  0  0
 11  5  1  0  0  0  0
 11  9  2  0  0  0  0
 12  4  1  0  0  0  0
 12 11  1  0  0  0  0
 14 15  2  0  0  0  0
 15 13  1  0  0  0  0
 16 12  1  0  0  0  0
 17 16  1  0  0  0  0
 18 19  1  0  0  0  0
 19 17  1  0  0  0  0
 20  8  1  0  0  0  0
 21 23  1  6  0  0  0
 21 20  1  0  0  0  0
 22 23  1  0  0  0  0
 24 21  1  0  0  0  0
 24 25  1  0  0  0  0
 26 25  1  0  0  0  0
M  END
>  <MODEL>
1

>  <REMARK>
 VINA RESULT:      -7.8      0.000      0.000
  Name = 
  9 active torsions:
  status: ('A' for Active; 'I' for Inactive)
    1  A    between atoms: C_1  and  O_11
    2  A    between atoms: C_3  and  C_20
    3  A    between atoms: C_9  and  C_23
    4  A    between atoms: C_9  and  N_24
    5  A    between atoms: O_11  and  C_21
    6  A    between atoms: C_12  and  C_23
    7  A    between atoms: C_16  and  O_26
    8  A    between atoms: C_21  and  C_25
    9  A    between atoms: C_21  and  O_26
                            x       y       z     vdW  Elec       q    Type
                         _______ _______ _______ _____ _____    ______ ____

>  <TORSDO>
F 9

$$$$
=
 OpenBabel10222418263D

 26 28  0  0  1  0  0  0  0  0999 V2000
  190.3700  176.9400  146.8280 C   0  0  0  0  0  0  0  0  0  0  0  0
  188.9940  177.6490  147.5680 S   0  0  0  0  0  0  0  0  0  0  0  0
  186.9030  177.9430  145.6340 C   0  0  0  0  0  0  0  0  0  0  0  0
  186.9600  177.5840  144.2950 C   0  0  0  0  0  0  0  0  0  0  0  0
  190.1450  176.6660  145.4660 C   0  0  0  0  0  3  0  0  0  0  0  0
  185.7880  178.5490  146.1990 C   0  0  0  0  0  3  0  0  0  0  0  0
  184.6900  178.7880  145.3520 C   0  0  0  0  0  3  0  0  0  0  0  0
  184.7290  178.4310  143.9830 C   0  0  0  0  0  0  0  0  0  0  0  0
  188.1240  177.5920  146.1450 C   0  0  0  0  0  0  0  0  0  0  0  0
  185.8820  177.8190  143.4420 C   0  0  0  0  0  3  0  0  0  0  0  0
  188.8510  177.0570  145.1410 C   0  0  0  0  0  0  0  0  0  0  0  0
  188.1590  177.0290  143.9830 N   0  0  0  0  0  0  0  0  0  0  0  0
  192.0230  177.4250  148.4520 O   0  0  0  0  0  1  0  0  0  0  0  0
  192.3890  175.5530  147.1850 O   0  0  0  0  0  0  0  0  0  0  0  0
  191.6270  176.6610  147.5310 C   0  0  0  0  0  0  0  0  0  0  0  0
  188.6290  176.5910  142.6760 C   0  0  0  0  0  2  0  0  0  0  0  0
  189.2710  177.7560  141.9410 C   0  0  0  0  0  2  0  0  0  0  0  0
  191.7170  177.3470  142.1750 C   0  0  0  0  0  1  0  0  0  0  0  0
  190.5310  177.3020  141.2300 C   0  0  0  0  0  2  0  0  0  0  0  0
  183.6080  178.6970  143.1900 O   0  0  0  0  0  0  0  0  0  0  0  0
  183.6780  178.9000  141.7750 C   0  0  2  0  0  3  0  0  0  0  0  0
  181.7920  177.8170  140.4640 C   0  0  0  0  0  1  0  0  0  0  0  0
  183.2210  177.6810  140.9630 C   0  0  0  0  0  2  0  0  0  0  0  0
  184.9250  179.4130  141.3530 O   0  0  0  0  0  0  0  0  0  0  0  0
  185.1390  179.0610  140.0110 C   0  0  0  0  0  2  0  0  0  0  0  0
  184.6420  180.0640  139.1820 O   0  0  0  0  0  1  0  0  0  0  0  0
  1 15  1  0  0  0  0
  1  2  1  0  0  0  0
  3  9  1  0  0  0  0
  3  6  1  0  0  0  0
  4  3  2  0  0  0  0
  5  1  2  0  0  0  0
  7  6  2  0  0  0  0
  8  7  1  0  0  0  0
  9  2  1  0  0  0  0
 10  8  2  0  0  0  0
 10  4  1  0  0  0  0
 11  5  1  0  0  0  0
 11  9  2  0  0  0  0
 12  4  1  0  0  0  0
 12 11  1  0  0  0  0
 14 15  2  0  0  0  0
 15 13  1  0  0  0  0
 16 12  1  0  0  0  0
 17 16  1  0  0  0  0
 19 17  1  0  0  0  0
 19 18  1  0  0  0  0
 20  8  1  0  0  0  0
 21 23  1  6  0  0  0
 21 20  1  0  0  0  0
 22 23  1  0  0  0  0
 24 21  1  0  0  0  0
 25 24  1  0  0  0  0
 26 25  1  0  0  0  0
M  END
>  <MODEL>
2

>  <REMARK>
 VINA RESULT:      -7.7      1.463      2.242
  Name = 
  9 active torsions:
  status: ('A' for Active; 'I' for Inactive)
    1  A    between atoms: C_1  and  O_11
    2  A    between atoms: C_3  and  C_20
    3  A    between atoms: C_9  and  C_23
    4  A    between atoms: C_9  and  N_24
    5  A    between atoms: O_11  and  C_21
    6  A    between atoms: C_12  and  C_23
    7  A    between atoms: C_16  and  O_26
    8  A    between atoms: C_21  and  C_25
    9  A    between atoms: C_21  and  O_26
                            x       y       z     vdW  Elec       q    Type
                         _______ _______ _______ _____ _____    ______ ____

>  <TORSDO>
F 9

$$$$
=
 OpenBabel10222418263D

 26 28  0  0  1  0  0  0  0  0999 V2000
  191.0430  176.7150  146.1210 C   0  0  0  0  0  0  0  0  0  0  0  0
  191.5270  177.0570  144.5100 S   0  0  0  0  0  0  0  0  0  0  0  0
  189.2270  177.7040  142.9300 C   0  0  0  0  0  0  0  0  0  0  0  0
  187.9110  177.7400  143.3650 C   0  0  0  0  0  0  0  0  0  0  0  0
  189.6510  176.8420  146.2840 C   0  0  0  0  0  3  0  0  0  0  0  0
  189.5880  177.9500  141.6110 C   0  0  0  0  0  3  0  0  0  0  0  0
  188.5490  178.2480  140.7090 C   0  0  0  0  0  3  0  0  0  0  0  0
  187.2000  178.2890  141.1310 C   0  0  0  0  0  0  0  0  0  0  0  0
  189.9550  177.3690  144.0410 C   0  0  0  0  0  0  0  0  0  0  0  0
  186.8720  178.0310  142.4820 C   0  0  0  0  0  3  0  0  0  0  0  0
  189.0930  177.2170  145.0670 C   0  0  0  0  0  0  0  0  0  0  0  0
  187.8180  177.4470  144.6870 N   0  0  0  0  0  0  0  0  0  0  0  0
  192.6390  175.2690  147.1030 O   0  0  0  0  0  0  0  0  0  0  0  0
  192.1160  177.1420  148.3110 O   0  0  0  0  0  1  0  0  0  0  0  0
  191.9700  176.3330  147.1910 C   0  0  0  0  0  0  0  0  0  0  0  0
  186.6120  177.3150  145.4910 C   0  0  0  0  0  2  0  0  0  0  0  0
  186.6650  178.2790  146.6650 C   0  0  0  0  0  2  0  0  0  0  0  0
  184.5090  178.8030  145.5320 C   0  0  0  0  0  1  0  0  0  0  0  0
  185.4500  179.1880  146.6580 C   0  0  0  0  0  2  0  0  0  0  0  0
  186.2120  178.5900  140.1890 O   0  0  0  0  0  0  0  0  0  0  0  0
  184.9620  179.2000  140.5280 C   0  0  2  0  0  3  0  0  0  0  0  0
  183.1380  178.5920  142.1850 C   0  0  0  0  0  1  0  0  0  0  0  0
  183.8790  178.1880  140.9220 C   0  0  0  0  0  2  0  0  0  0  0  0
  184.5250  180.1330  139.5610 O   0  0  0  0  0  0  0  0  0  0  0  0
  183.4800  179.5670  138.8120 C   0  0  0  0  0  2  0  0  0  0  0  0
  182.4250  180.4730  138.7280 O   0  0  0  0  0  1  0  0  0  0  0  0
  1  5  2  0  0  0  0
  1 15  1  0  0  0  0
  2  1  1  0  0  0  0
  3  4  1  0  0  0  0
  3  9  1  0  0  0  0
  4 12  1  0  0  0  0
  6  3  2  0  0  0  0
  7  8  2  0  0  0  0
  7  6  1  0  0  0  0
  8 10  1  0  0  0  0
  9  2  1  0  0  0  0
  9 11  2  0  0  0  0
 10  4  2  0  0  0  0
 11  5  1  0  0  0  0
 12 11  1  0  0  0  0
 12 16  1  0  0  0  0
 13 15  2  0  0  0  0
 15 14  1  0  0  0  0
 16 17  1  0  0  0  0
 18 19  1  0  0  0  0
 19 17  1  0  0  0  0
 20 21  1  0  0  0  0
 20  8  1  0  0  0  0
 21 23  1  6  0  0  0
 23 22  1  0  0  0  0
 24 21  1  0  0  0  0
 25 24  1  0  0  0  0
 26 25  1  0  0  0  0
M  END
>  <MODEL>
3

>  <REMARK>
 VINA RESULT:      -7.6      2.175      4.050
  Name = 
  9 active torsions:
  status: ('A' for Active; 'I' for Inactive)
    1  A    between atoms: C_1  and  O_11
    2  A    between atoms: C_3  and  C_20
    3  A    between atoms: C_9  and  C_23
    4  A    between atoms: C_9  and  N_24
    5  A    between atoms: O_11  and  C_21
    6  A    between atoms: C_12  and  C_23
    7  A    between atoms: C_16  and  O_26
    8  A    between atoms: C_21  and  C_25
    9  A    between atoms: C_21  and  O_26
                            x       y       z     vdW  Elec       q    Type
                         _______ _______ _______ _____ _____    ______ ____

>  <TORSDO>
F 9

$$$$
=
 OpenBabel10222418263D

 26 28  0  0  1  0  0  0  0  0999 V2000
  183.0190  178.7950  143.1460 C   0  0  0  0  0  0  0  0  0  0  0  0
  183.2090  179.0110  144.8370 S   0  0  0  0  0  0  0  0  0  0  0  0
  185.9040  178.4020  145.5900 C   0  0  0  0  0  0  0  0  0  0  0  0
  186.9240  177.9880  144.7450 C   0  0  0  0  0  0  0  0  0  0  0  0
  184.2190  178.3850  142.5350 C   0  0  0  0  0  3  0  0  0  0  0  0
  186.0760  178.5350  146.9620 C   0  0  0  0  0  3  0  0  0  0  0  0
  187.3490  178.2320  147.4790 C   0  0  0  0  0  3  0  0  0  0  0  0
  188.4030  177.8070  146.6360 C   0  0  0  0  0  0  0  0  0  0  0  0
  184.8210  178.5850  144.7710 C   0  0  0  0  0  0  0  0  0  0  0  0
  188.1890  177.6820  145.2440 C   0  0  0  0  0  3  0  0  0  0  0  0
  185.2040  178.2870  143.5120 C   0  0  0  0  0  0  0  0  0  0  0  0
  186.5010  177.9210  143.4560 N   0  0  0  0  0  0  0  0  0  0  0  0
  181.5100  178.3670  141.3720 O   0  0  0  0  0  0  0  0  0  0  0  0
  180.8240  179.9160  142.9120 O   0  0  0  0  0  1  0  0  0  0  0  0
  181.7560  179.0070  142.4290 C   0  0  0  0  0  0  0  0  0  0  0  0
  187.2490  177.4640  142.2930 C   0  0  0  0  0  2  0  0  0  0  0  0
  187.8890  178.6510  141.5910 C   0  0  0  0  0  2  0  0  0  0  0  0
  189.9400  177.3540  141.0310 C   0  0  0  0  0  1  0  0  0  0  0  0
  188.7950  178.1770  140.4720 C   0  0  0  0  0  2  0  0  0  0  0  0
  189.6450  177.5190  147.2080 O   0  0  0  0  0  0  0  0  0  0  0  0
  190.6340  176.7040  146.5710 C   0  0  2  0  0  3  0  0  0  0  0  0
  192.6610  175.6320  147.6610 C   0  0  0  0  0  1  0  0  0  0  0  0
  191.1550  175.5710  147.4640 C   0  0  0  0  0  2  0  0  0  0  0  0
  191.6680  177.4600  145.9720 O   0  0  0  0  0  0  0  0  0  0  0  0
  191.4900  177.4630  144.5800 C   0  0  0  0  0  2  0  0  0  0  0  0
  191.3440  178.7750  144.1330 O   0  0  0  0  0  1  0  0  0  0  0  0
  1  2  1  0  0  0  0
  3  6  1  0  0  0  0
  4 10  1  0  0  0  0
  4  3  2  0  0  0  0
  5  1  2  0  0  0  0
  5 11  1  0  0  0  0
  6  7  2  0  0  0  0
  8 20  1  0  0  0  0
  8  7  1  0  0  0  0
  9  2  1  0  0  0  0
  9  3  1  0  0  0  0
 10  8  2  0  0  0  0
 11  9  2  0  0  0  0
 12 11  1  0  0  0  0
 12  4  1  0  0  0  0
 13 15  2  0  0  0  0
 15 14  1  0  0  0  0
 15  1  1  0  0  0  0
 16 12  1  0  0  0  0
 17 16  1  0  0  0  0
 19 18  1  0  0  0  0
 19 17  1  0  0  0  0
 21 20  1  0  0  0  0
 21 23  1  1  0  0  0
 23 22  1  0  0  0  0
 24 21  1  0  0  0  0
 25 24  1  0  0  0  0
 26 25  1  0  0  0  0
M  END
>  <MODEL>
4

>  <REMARK>
 VINA RESULT:      -7.5      2.006      7.472
  Name = 
  9 active torsions:
  status: ('A' for Active; 'I' for Inactive)
    1  A    between atoms: C_1  and  O_11
    2  A    between atoms: C_3  and  C_20
    3  A    between atoms: C_9  and  C_23
    4  A    between atoms: C_9  and  N_24
    5  A    between atoms: O_11  and  C_21
    6  A    between atoms: C_12  and  C_23
    7  A    between atoms: C_16  and  O_26
    8  A    between atoms: C_21  and  C_25
    9  A    between atoms: C_21  and  O_26
                            x       y       z     vdW  Elec       q    Type
                         _______ _______ _______ _____ _____    ______ ____

>  <TORSDO>
F 9

$$$$
=
 OpenBabel10222418263D

 26 28  0  0  1  0  0  0  0  0999 V2000
  185.0370  178.5630  143.7100 C   0  0  0  0  0  0  0  0  0  0  0  0
  185.2760  178.9240  142.0500 S   0  0  0  0  0  0  0  0  0  0  0  0
  187.8810  178.0540  141.2380 C   0  0  0  0  0  0  0  0  0  0  0  0
  188.8320  177.4380  142.0380 C   0  0  0  0  0  0  0  0  0  0  0  0
  186.1600  177.9250  144.2700 C   0  0  0  0  0  3  0  0  0  0  0  0
  188.1130  178.3670  139.9050 C   0  0  0  0  0  3  0  0  0  0  0  0
  189.3730  178.0270  139.3780 C   0  0  0  0  0  3  0  0  0  0  0  0
  190.3580  177.3990  140.1770 C   0  0  0  0  0  0  0  0  0  0  0  0
  186.8050  178.2560  142.0630 C   0  0  0  0  0  0  0  0  0  0  0  0
  190.0850  177.0980  141.5310 C   0  0  0  0  0  3  0  0  0  0  0  0
  187.1270  177.7780  143.2820 C   0  0  0  0  0  0  0  0  0  0  0  0
  188.3710  177.2560  143.3030 N   0  0  0  0  0  0  0  0  0  0  0  0
  182.7270  179.0650  143.8400 O   0  0  0  0  0  0  0  0  0  0  0  0
  183.8470  179.0030  145.8360 O   0  0  0  0  0  1  0  0  0  0  0  0
  183.8140  178.8880  144.4520 C   0  0  0  0  0  0  0  0  0  0  0  0
  189.0900  176.7120  144.4470 C   0  0  0  0  0  2  0  0  0  0  0  0
  189.6090  177.8450  145.3170 C   0  0  0  0  0  2  0  0  0  0  0  0
  190.6500  176.7510  147.2990 C   0  0  0  0  0  1  0  0  0  0  0  0
  189.4370  177.5040  146.7850 C   0  0  0  0  0  2  0  0  0  0  0  0
  191.5910  177.0870  139.5980 O   0  0  0  0  0  0  0  0  0  0  0  0
  191.7320  176.6200  138.2520 C   0  0  2  0  0  3  0  0  0  0  0  0
  189.9440  175.2390  137.0950 C   0  0  0  0  0  1  0  0  0  0  0  0
  191.1420  175.2220  138.0290 C   0  0  0  0  0  2  0  0  0  0  0  0
  193.0490  176.7520  137.7580 O   0  0  0  0  0  0  0  0  0  0  0  0
  193.6150  175.4770  137.6050 C   0  0  0  0  0  2  0  0  0  0  0  0
  194.6810  175.3310  138.4910 O   0  0  0  0  0  1  0  0  0  0  0  0
  1  5  2  0  0  0  0
  1 15  1  0  0  0  0
  2  9  1  0  0  0  0
  2  1  1  0  0  0  0
  3  4  1  0  0  0  0
  3  9  1  0  0  0  0
  4 12  1  0  0  0  0
  6  3  2  0  0  0  0
  7  6  1  0  0  0  0
  7  8  2  0  0  0  0
  8 10  1  0  0  0  0
  9 11  2  0  0  0  0
 10  4  2  0  0  0  0
 11 12  1  0  0  0  0
 11  5  1  0  0  0  0
 12 16  1  0  0  0  0
 13 15  2  0  0  0  0
 15 14  1  0  0  0  0
 16 17  1  0  0  0  0
 17 19  1  0  0  0  0
 19 18  1  0  0  0  0
 20  8  1  0  0  0  0
 21 23  1  1  0  0  0
 21 20  1  0  0  0  0
 22 23  1  0  0  0  0
 24 21  1  0  0  0  0
 25 24  1  0  0  0  0
 25 26  1  0  0  0  0
M  END
>  <MODEL>
5

>  <REMARK>
 VINA RESULT:      -7.4      3.735      8.145
  Name = 
  9 active torsions:
  status: ('A' for Active; 'I' for Inactive)
    1  A    between atoms: C_1  and  O_11
    2  A    between atoms: C_3  and  C_20
    3  A    between atoms: C_9  and  C_23
    4  A    between atoms: C_9  and  N_24
    5  A    between atoms: O_11  and  C_21
    6  A    between atoms: C_12  and  C_23
    7  A    between atoms: C_16  and  O_26
    8  A    between atoms: C_21  and  C_25
    9  A    between atoms: C_21  and  O_26
                            x       y       z     vdW  Elec       q    Type
                         _______ _______ _______ _____ _____    ______ ____

>  <TORSDO>
F 9

$$$$
=
 OpenBabel10222418263D

 26 28  0  0  1  0  0  0  0  0999 V2000
  188.6120  177.6210  138.1910 C   0  0  0  0  0  0  0  0  0  0  0  0
  190.1440  177.1460  138.8020 S   0  0  0  0  0  0  0  0  0  0  0  0
  190.2070  177.5200  141.6400 C   0  0  0  0  0  0  0  0  0  0  0  0
  189.1790  178.0120  142.4310 C   0  0  0  0  0  0  0  0  0  0  0  0
  187.7580  178.0670  139.2170 C   0  0  0  0  0  3  0  0  0  0  0  0
  191.4500  177.1760  142.1570 C   0  0  0  0  0  3  0  0  0  0  0  0
  191.6360  177.3430  143.5410 C   0  0  0  0  0  3  0  0  0  0  0  0
  190.6020  177.8450  144.3660 C   0  0  0  0  0  0  0  0  0  0  0  0
  189.6970  177.5080  140.3690 C   0  0  0  0  0  0  0  0  0  0  0  0
  189.3510  178.1860  143.8040 C   0  0  0  0  0  3  0  0  0  0  0  0
  188.4330  177.9760  140.4290 C   0  0  0  0  0  0  0  0  0  0  0  0
  188.0750  178.2900  141.6910 N   0  0  0  0  0  0  0  0  0  0  0  0
  188.9020  176.8570  135.9690 O   0  0  0  0  0  0  0  0  0  0  0  0
  187.1700  178.3180  136.3020 O   0  0  0  0  0  1  0  0  0  0  0  0
  188.2450  177.5730  136.7710 C   0  0  0  0  0  0  0  0  0  0  0  0
  186.8240  178.8840  142.1400 C   0  0  0  0  0  2  0  0  0  0  0  0
  185.9730  177.8330  142.8330 C   0  0  0  0  0  2  0  0  0  0  0  0
  185.9920  178.0540  145.3150 C   0  0  0  0  0  1  0  0  0  0  0  0
  185.2680  178.4320  144.0360 C   0  0  0  0  0  2  0  0  0  0  0  0
  190.8470  177.9900  145.7350 O   0  0  0  0  0  0  0  0  0  0  0  0
  190.7000  176.9230  146.6770 C   0  0  2  0  0  3  0  0  0  0  0  0
  188.9070  177.9770  148.1330 C   0  0  0  0  0  1  0  0  0  0  0  0
  189.2790  176.8040  147.2420 C   0  0  0  0  0  2  0  0  0  0  0  0
  191.6970  176.9310  147.6790 O   0  0  0  0  0  0  0  0  0  0  0  0
  192.3820  175.7060  147.6570 C   0  0  0  0  0  2  0  0  0  0  0  0
  192.3850  175.1970  146.3610 O   0  0  0  0  0  1  0  0  0  0  0  0
  1  2  1  0  0  0  0
  1  5  2  0  0  0  0
  2  9  1  0  0  0  0
  3  6  2  0  0  0  0
  3  4  1  0  0  0  0
  4 10  2  0  0  0  0
  5 11  1  0  0  0  0
  6  7  1  0  0  0  0
  7  8  2  0  0  0  0
  8 20  1  0  0  0  0
  9 11  2  0  0  0  0
  9  3  1  0  0  0  0
 10  8  1  0  0  0  0
 11 12  1  0  0  0  0
 12 16  1  0  0  0  0
 12  4  1  0  0  0  0
 13 15  2  0  0  0  0
 14 15  1  0  0  0  0
 15  1  1  0  0  0  0
 16 17  1  0  0  0  0
 17 19  1  0  0  0  0
 19 18  1  0  0  0  0
 20 21  1  0  0  0  0
 21 23  1  1  0  0  0
 21 24  1  0  0  0  0
 23 22  1  0  0  0  0
 25 24  1  0  0  0  0
 26 25  1  0  0  0  0
M  END
>  <MODEL>
6

>  <REMARK>
 VINA RESULT:      -7.4      3.956      8.197
  Name = 
  9 active torsions:
  status: ('A' for Active; 'I' for Inactive)
    1  A    between atoms: C_1  and  O_11
    2  A    between atoms: C_3  and  C_20
    3  A    between atoms: C_9  and  C_23
    4  A    between atoms: C_9  and  N_24
    5  A    between atoms: O_11  and  C_21
    6  A    between atoms: C_12  and  C_23
    7  A    between atoms: C_16  and  O_26
    8  A    between atoms: C_21  and  C_25
    9  A    between atoms: C_21  and  O_26
                            x       y       z     vdW  Elec       q    Type
                         _______ _______ _______ _____ _____    ______ ____

>  <TORSDO>
F 9

$$$$
=
 OpenBabel10222418263D

 26 28  0  0  1  0  0  0  0  0999 V2000
  191.0900  176.6920  145.4100 C   0  0  0  0  0  0  0  0  0  0  0  0
  191.8050  176.5040  143.8610 S   0  0  0  0  0  0  0  0  0  0  0  0
  189.9960  177.4360  141.8450 C   0  0  0  0  0  0  0  0  0  0  0  0
  188.7280  177.9590  142.0520 C   0  0  0  0  0  0  0  0  0  0  0  0
  189.8060  177.2610  145.3250 C   0  0  0  0  0  3  0  0  0  0  0  0
  190.5370  177.2620  140.5770 C   0  0  0  0  0  3  0  0  0  0  0  0
  189.7390  177.6460  139.4840 C   0  0  0  0  0  3  0  0  0  0  0  0
  188.4430  178.1800  139.6720 C   0  0  0  0  0  0  0  0  0  0  0  0
  190.4700  177.1570  143.1000 C   0  0  0  0  0  0  0  0  0  0  0  0
  187.9260  178.3400  140.9780 C   0  0  0  0  0  3  0  0  0  0  0  0
  189.5140  177.5030  143.9870 C   0  0  0  0  0  0  0  0  0  0  0  0
  188.4240  178.0100  143.3740 N   0  0  0  0  0  0  0  0  0  0  0  0
  192.4120  175.2360  146.7280 O   0  0  0  0  0  0  0  0  0  0  0  0
  191.6190  177.1010  147.7930 O   0  0  0  0  0  1  0  0  0  0  0  0
  191.7400  176.3000  146.6650 C   0  0  0  0  0  0  0  0  0  0  0  0
  187.1710  178.4270  143.9880 C   0  0  0  0  0  2  0  0  0  0  0  0
  186.5710  177.2730  144.7740 C   0  0  0  0  0  2  0  0  0  0  0  0
  185.0130  178.5700  146.2220 C   0  0  0  0  0  1  0  0  0  0  0  0
  186.2600  177.7060  146.1940 C   0  0  0  0  0  2  0  0  0  0  0  0
  187.6970  178.5420  138.5460 O   0  0  0  0  0  0  0  0  0  0  0  0
  186.4020  178.0050  138.2560 C   0  0  2  0  0  3  0  0  0  0  0  0
  187.5260  177.3130  136.0870 C   0  0  0  0  0  1  0  0  0  0  0  0
  186.4000  177.0340  137.0680 C   0  0  0  0  0  2  0  0  0  0  0  0
  185.4030  179.0000  138.1620 O   0  0  0  0  0  0  0  0  0  0  0  0
  184.5090  178.8590  139.2350 C   0  0  0  0  0  2  0  0  0  0  0  0
  184.8990  179.6960  140.2780 O   0  0  0  0  0  1  0  0  0  0  0  0
  1 15  1  0  0  0  0
  2  1  1  0  0  0  0
  3  4  1  0  0  0  0
  3  9  1  0  0  0  0
  4 12  1  0  0  0  0
  5  1  2  0  0  0  0
  6  3  2  0  0  0  0
  7  8  2  0  0  0  0
  7  6  1  0  0  0  0
  8 10  1  0  0  0  0
  9  2  1  0  0  0  0
  9 11  2  0  0  0  0
 10  4  2  0  0  0  0
 11  5  1  0  0  0  0
 12 11  1  0  0  0  0
 12 16  1  0  0  0  0
 15 13  2  0  0  0  0
 15 14  1  0  0  0  0
 16 17  1  0  0  0  0
 17 19  1  0  0  0  0
 19 18  1  0  0  0  0
 20  8  1  0  0  0  0
 21 23  1  6  0  0  0
 21 20  1  0  0  0  0
 22 23  1  0  0  0  0
 24 21  1  0  0  0  0
 24 25  1  0  0  0  0
 25 26  1  0  0  0  0
M  END
>  <MODEL>
7

>  <REMARK>
 VINA RESULT:      -7.3      2.650      4.993
  Name = 
  9 active torsions:
  status: ('A' for Active; 'I' for Inactive)
    1  A    between atoms: C_1  and  O_11
    2  A    between atoms: C_3  and  C_20
    3  A    between atoms: C_9  and  C_23
    4  A    between atoms: C_9  and  N_24
    5  A    between atoms: O_11  and  C_21
    6  A    between atoms: C_12  and  C_23
    7  A    between atoms: C_16  and  O_26
    8  A    between atoms: C_21  and  C_25
    9  A    between atoms: C_21  and  O_26
                            x       y       z     vdW  Elec       q    Type
                         _______ _______ _______ _____ _____    ______ ____

>  <TORSDO>
F 9

$$$$
=
 OpenBabel10222418263D

 26 28  0  0  1  0  0  0  0  0999 V2000
  188.4220  177.7140  146.6880 C   0  0  0  0  0  0  0  0  0  0  0  0
  186.8430  178.2420  147.1020 S   0  0  0  0  0  0  0  0  0  0  0  0
  185.2260  178.3920  144.7430 C   0  0  0  0  0  0  0  0  0  0  0  0
  185.6260  178.0970  143.4480 C   0  0  0  0  0  0  0  0  0  0  0  0
  188.5440  177.4750  145.3060 C   0  0  0  0  0  3  0  0  0  0  0  0
  183.9500  178.8520  145.0460 C   0  0  0  0  0  3  0  0  0  0  0  0
  183.0550  179.0080  143.9720 C   0  0  0  0  0  3  0  0  0  0  0  0
  183.4430  178.7140  142.6440 C   0  0  0  0  0  0  0  0  0  0  0  0
  186.3310  178.1520  145.5160 C   0  0  0  0  0  0  0  0  0  0  0  0
  184.7510  178.2510  142.3740 C   0  0  0  0  0  3  0  0  0  0  0  0
  187.3220  177.7390  144.6980 C   0  0  0  0  0  0  0  0  0  0  0  0
  186.9200  177.6860  143.4120 N   0  0  0  0  0  0  0  0  0  0  0  0
  190.4600  176.7530  147.4130 O   0  0  0  0  0  0  0  0  0  0  0  0
  189.4980  178.2510  148.8520 O   0  0  0  0  0  1  0  0  0  0  0  0
  189.5100  177.5430  147.6570 C   0  0  0  0  0  0  0  0  0  0  0  0
  187.7200  177.3550  142.2410 C   0  0  0  0  0  2  0  0  0  0  0  0
  188.0080  178.6140  141.4400 C   0  0  0  0  0  2  0  0  0  0  0  0
  189.6990  177.1840  140.2980 C   0  0  0  0  0  1  0  0  0  0  0  0
  188.6450  178.2600  140.1100 C   0  0  0  0  0  2  0  0  0  0  0  0
  182.5090  178.8910  141.6180 O   0  0  0  0  0  0  0  0  0  0  0  0
  182.2590  177.9110  140.6050 C   0  0  2  0  0  3  0  0  0  0  0  0
  183.0900  179.7610  139.0770 C   0  0  0  0  0  1  0  0  0  0  0  0
  182.8860  178.2650  139.2510 C   0  0  0  0  0  2  0  0  0  0  0  0
  180.8960  177.5530  140.5100 O   0  0  0  0  0  0  0  0  0  0  0  0
  180.1400  178.3810  141.3540 C   0  0  0  0  0  2  0  0  0  0  0  0
  179.4980  177.6040  142.3150 O   0  0  0  0  0  1  0  0  0  0  0  0
  1  2  1  0  0  0  0
  1 15  1  0  0  0  0
  3  6  1  0  0  0  0
  3  9  1  0  0  0  0
  4  3  2  0  0  0  0
  5  1  2  0  0  0  0
  7  6  2  0  0  0  0
  8  7  1  0  0  0  0
  9  2  1  0  0  0  0
 10  8  2  0  0  0  0
 10  4  1  0  0  0  0
 11  5  1  0  0  0  0
 11  9  2  0  0  0  0
 12  4  1  0  0  0  0
 12 11  1  0  0  0  0
 13 15  2  0  0  0  0
 15 14  1  0  0  0  0
 16 12  1  0  0  0  0
 17 16  1  0  0  0  0
 19 18  1  0  0  0  0
 19 17  1  0  0  0  0
 20  8  1  0  0  0  0
 21 23  1  6  0  0  0
 21 20  1  0  0  0  0
 22 23  1  0  0  0  0
 24 21  1  0  0  0  0
 24 25  1  0  0  0  0
 25 26  1  0  0  0  0
M  END
>  <MODEL>
8

>  <REMARK>
 VINA RESULT:      -7.2      1.509      2.153
  Name = 
  9 active torsions:
  status: ('A' for Active; 'I' for Inactive)
    1  A    between atoms: C_1  and  O_11
    2  A    between atoms: C_3  and  C_20
    3  A    between atoms: C_9  and  C_23
    4  A    between atoms: C_9  and  N_24
    5  A    between atoms: O_11  and  C_21
    6  A    between atoms: C_12  and  C_23
    7  A    between atoms: C_16  and  O_26
    8  A    between atoms: C_21  and  C_25
    9  A    between atoms: C_21  and  O_26
                            x       y       z     vdW  Elec       q    Type
                         _______ _______ _______ _____ _____    ______ ____

>  <TORSDO>
F 9

$$$$
=
 OpenBabel10222418263D

 26 28  0  0  1  0  0  0  0  0999 V2000
  190.7100  176.9920  139.1530 C   0  0  0  0  0  0  0  0  0  0  0  0
  189.1630  177.7310  139.0960 S   0  0  0  0  0  0  0  0  0  0  0  0
  187.9670  177.6690  141.6980 C   0  0  0  0  0  0  0  0  0  0  0  0
  188.5220  177.1280  142.8480 C   0  0  0  0  0  0  0  0  0  0  0  0
  191.0250  176.5450  140.4500 C   0  0  0  0  0  3  0  0  0  0  0  0
  186.6970  178.2310  141.6710 C   0  0  0  0  0  3  0  0  0  0  0  0
  185.9750  178.2360  142.8790 C   0  0  0  0  0  3  0  0  0  0  0  0
  186.5220  177.6890  144.0640 C   0  0  0  0  0  0  0  0  0  0  0  0
  188.9150  177.4790  140.7270 C   0  0  0  0  0  0  0  0  0  0  0  0
  187.8170  177.1240  144.0510 C   0  0  0  0  0  3  0  0  0  0  0  0
  189.9660  176.8530  141.2970 C   0  0  0  0  0  0  0  0  0  0  0  0
  189.7620  176.6280  142.6110 N   0  0  0  0  0  0  0  0  0  0  0  0
  191.1030  176.7620  136.8300 O   0  0  0  0  0  0  0  0  0  0  0  0
  192.9680  176.7830  138.1590 O   0  0  0  0  0  1  0  0  0  0  0  0
  191.5900  176.8410  137.9890 C   0  0  0  0  0  0  0  0  0  0  0  0
  190.6330  175.9200  143.5390 C   0  0  0  0  0  2  0  0  0  0  0  0
  191.1880  176.8910  144.5690 C   0  0  0  0  0  2  0  0  0  0  0  0
  191.1550  179.3430  144.1300 C   0  0  0  0  0  1  0  0  0  0  0  0
  191.8960  178.0420  143.8820 C   0  0  0  0  0  2  0  0  0  0  0  0
  185.7550  177.7220  145.2330 O   0  0  0  0  0  0  0  0  0  0  0  0
  185.2790  178.9350  145.8260 C   0  0  2  0  0  3  0  0  0  0  0  0
  187.0280  178.2580  147.5360 C   0  0  0  0  0  1  0  0  0  0  0  0
  185.9340  179.2480  147.1770 C   0  0  0  0  0  2  0  0  0  0  0  0
  183.8690  179.0140  145.8600 O   0  0  0  0  0  0  0  0  0  0  0  0
  183.3970  179.4130  144.6000 C   0  0  0  0  0  2  0  0  0  0  0  0
  182.2940  178.6380  144.2490 O   0  0  0  0  0  1  0  0  0  0  0  0
  1  5  2  0  0  0  0
  2  1  1  0  0  0  0
  2  9  1  0  0  0  0
  3  4  1  0  0  0  0
  4 10  2  0  0  0  0
  5 11  1  0  0  0  0
  6  3  2  0  0  0  0
  6  7  1  0  0  0  0
  7  8  2  0  0  0  0
  8 20  1  0  0  0  0
  9 11  2  0  0  0  0
  9  3  1  0  0  0  0
 10  8  1  0  0  0  0
 11 12  1  0  0  0  0
 12  4  1  0  0  0  0
 12 16  1  0  0  0  0
 13 15  2  0  0  0  0
 15 14  1  0  0  0  0
 15  1  1  0  0  0  0
 16 17  1  0  0  0  0
 19 18  1  0  0  0  0
 19 17  1  0  0  0  0
 20 21  1  0  0  0  0
 21 24  1  0  0  0  0
 21 23  1  1  0  0  0
 23 22  1  0  0  0  0
 25 24  1  0  0  0  0
 26 25  1  0  0  0  0
M  END
>  <MODEL>
9

>  <REMARK>
 VINA RESULT:      -7.0      3.621      5.612
  Name = 
  9 active torsions:
  status: ('A' for Active; 'I' for Inactive)
    1  A    between atoms: C_1  and  O_11
    2  A    between atoms: C_3  and  C_20
    3  A    between atoms: C_9  and  C_23
    4  A    between atoms: C_9  and  N_24
    5  A    between atoms: O_11  and  C_21
    6  A    between atoms: C_12  and  C_23
    7  A    between atoms: C_16  and  O_26
    8  A    between atoms: C_21  and  C_25
    9  A    between atoms: C_21  and  O_26
                            x       y       z     vdW  Elec       q    Type
                         _______ _______ _______ _____ _____    ______ ____

>  <TORSDO>
F 9

$$$$
