=
 OpenBabel10222420453D

 39 42  0  0  1  0  0  0  0  0999 V2000
  188.8230  177.2600  140.3560 C   0  0  2  0  0  3  0  0  0  0  0  0
  185.2630  179.7590  140.9340 O   0  0  0  0  0  0  0  0  0  0  0  0
  187.5620  178.0640  140.3920 C   0  0  0  0  0  0  0  0  0  0  0  0
  187.1390  178.6300  139.3470 O   0  0  0  0  0  0  0  0  0  0  0  0
  186.8590  178.1910  141.6340 N   0  0  0  0  0  2  0  0  0  0  0  0
  185.7130  179.0210  141.8500 C   0  0  0  0  0  0  0  0  0  0  0  0
  185.0370  179.0020  143.1780 C   0  0  0  0  0  2  0  0  0  0  0  0
  185.7920  178.1140  144.1540 C   0  0  0  0  0  2  0  0  0  0  0  0
  185.7520  178.6700  145.4350 O   0  0  0  0  0  0  0  0  0  0  0  0
  188.9660  177.0850  146.4110 C   0  0  0  0  0  3  0  0  0  0  0  0
  186.7860  178.4860  147.5640 C   0  0  0  0  0  3  0  0  0  0  0  0
  188.9550  177.3760  147.7150 C   0  0  0  0  0  3  0  0  0  0  0  0
  187.9380  177.6860  145.4880 C   0  0  0  0  0  2  0  0  0  0  0  0
  186.5930  177.8650  146.2050 C   0  0  2  0  0  3  0  0  0  0  0  0
  187.8830  178.2190  148.2800 C   0  0  0  0  0  3  0  0  0  0  0  0
  189.0160  176.1570  142.4530 O   0  0  0  0  0  0  0  0  0  0  0  0
  190.3250  178.0840  142.2270 N   0  0  0  0  0  2  0  0  0  0  0  0
  189.3900  177.1190  141.7300 C   0  0  0  0  0  0  0  0  0  0  0  0
  192.0230  177.2100  143.5790 O   0  0  0  0  0  1  0  0  0  0  0  0
  191.2970  179.4420  144.0200 C   0  0  0  0  0  1  0  0  0  0  0  0
  190.9090  178.0480  143.5630 C   0  0  1  0  0  3  0  0  0  0  0  0
  189.8050  177.8660  139.4630 N   0  0  0  0  0  2  0  0  0  0  0  0
  191.1770  176.1030  136.4570 C   0  0  0  0  0  3  0  0  0  0  0  0
  192.4390  175.7320  136.9210 C   0  0  0  0  0  3  0  0  0  0  0  0
  190.6760  177.1250  138.6010 C   0  0  0  0  0  0  0  0  0  0  0  0
  192.8260  176.0560  138.2190 C   0  0  0  0  0  3  0  0  0  0  0  0
  191.9510  176.7510  139.0520 C   0  0  0  0  0  3  0  0  0  0  0  0
  190.2780  176.8000  137.2810 C   0  0  0  0  0  0  0  0  0  0  0  0
  187.7740  175.0810  137.1200 N   0  0  0  0  0  0  0  0  0  0  0  0
  187.0830  178.2780  135.8650 C   0  0  0  0  0  3  0  0  0  0  0  0
  187.8610  176.3750  136.7170 C   0  0  0  0  0  0  0  0  0  0  0  0
  185.5650  176.3680  136.0750 C   0  0  0  0  0  0  0  0  0  0  0  0
  188.9330  177.1580  136.7540 C   0  0  0  0  0  0  0  0  0  0  0  0
  185.4910  175.0710  136.4870 N   0  0  0  0  0  0  0  0  0  0  0  0
  186.5810  174.4280  137.0060 C   0  0  0  0  0  0  0  0  0  0  0  0
  186.4680  173.0110  137.4360 C   0  0  0  0  0  1  0  0  0  0  0  0
  184.4160  177.0180  135.5430 N   0  0  0  0  0  1  0  0  0  0  0  0
  188.5330  178.4970  136.1960 C   0  0  0  0  0  2  0  0  0  0  0  0
  186.7840  177.0320  136.1950 C   0  0  0  0  0  0  0  0  0  0  0  0
  1 22  1  6  0  0  0
  1  3  1  0  0  0  0
  1 18  1  0  0  0  0
  2  6  2  0  0  0  0
  3  5  1  0  0  0  0
  4  3  2  0  0  0  0
  5  6  1  0  0  0  0
  6  7  1  0  0  0  0
  7  8  1  0  0  0  0
  8  9  1  0  0  0  0
 10 12  2  0  0  0  0
 11 15  2  0  0  0  0
 12 15  1  0  0  0  0
 13 14  1  0  0  0  0
 13 10  1  0  0  0  0
 14  9  1  6  0  0  0
 14 11  1  0  0  0  0
 17 21  1  0  0  0  0
 18 17  1  0  0  0  0
 18 16  2  0  0  0  0
 21 19  1  0  0  0  0
 21 20  1  6  0  0  0
 23 24  2  0  0  0  0
 23 28  1  0  0  0  0
 24 26  1  0  0  0  0
 25 27  1  0  0  0  0
 25 22  1  0  0  0  0
 26 27  2  0  0  0  0
 28 25  2  0  0  0  0
 30 39  2  0  0  0  0
 30 38  1  0  0  0  0
 31 33  2  0  0  0  0
 31 29  1  0  0  0  0
 32 39  1  0  0  0  0
 32 34  2  0  0  0  0
 33 28  1  0  0  0  0
 34 35  1  0  0  0  0
 35 29  2  0  0  0  0
 35 36  1  0  0  0  0
 37 32  1  0  0  0  0
 38 33  1  0  0  0  0
 39 31  1  0  0  0  0
M  END
>  <MODEL>
1

>  <REMARK>
 VINA RESULT:     -10.2      0.000      0.000
  Name = 
  10 active torsions:
  status: ('A' for Active; 'I' for Inactive)
    1  A    between atoms: C_1  and  C_9
    2  A    between atoms: C_1  and  C_22
    3  A    between atoms: C_1  and  N_31
    4  A    between atoms: C_2  and  C_34
    5  A    between atoms: C_2  and  C_35
    6  A    between atoms: C_13  and  N_31
    7  A    between atoms: C_15  and  C_33
    8  A    between atoms: N_18  and  C_37
    9  A    between atoms: C_25  and  O_32
   10  A    between atoms: O_32  and  C_34
                            x       y       z     vdW  Elec       q    Type
                         _______ _______ _______ _____ _____    ______ ____

>  <TORSDO>
F 10

$$$$
=
 OpenBabel10222420453D

 39 42  0  0  1  0  0  0  0  0999 V2000
  185.1340  178.8440  140.7420 C   0  0  2  0  0  3  0  0  0  0  0  0
  181.1170  177.8270  139.2980 O   0  0  0  0  0  0  0  0  0  0  0  0
  183.7750  178.3560  140.3520 C   0  0  0  0  0  0  0  0  0  0  0  0
  183.5510  177.1190  140.2420 O   0  0  0  0  0  0  0  0  0  0  0  0
  182.7450  179.3160  140.0900 N   0  0  0  0  0  2  0  0  0  0  0  0
  181.4380  179.0090  139.5940 C   0  0  0  0  0  0  0  0  0  0  0  0
  180.4400  180.1040  139.4360 C   0  0  0  0  0  2  0  0  0  0  0  0
  180.6920  180.8810  138.1540 C   0  0  0  0  0  2  0  0  0  0  0  0
  181.1970  182.1490  138.4550 O   0  0  0  0  0  0  0  0  0  0  0  0
  181.0800  185.0630  136.1550 C   0  0  0  0  0  3  0  0  0  0  0  0
  180.5200  182.2820  136.1850 C   0  0  0  0  0  3  0  0  0  0  0  0
  180.6570  184.4400  135.0510 C   0  0  0  0  0  3  0  0  0  0  0  0
  181.4820  184.2680  137.3700 C   0  0  0  0  0  2  0  0  0  0  0  0
  180.6300  182.9990  137.5050 C   0  0  2  0  0  3  0  0  0  0  0  0
  180.4950  182.9730  135.0400 C   0  0  0  0  0  3  0  0  0  0  0  0
  185.6570  178.7370  138.4250 O   0  0  0  0  0  0  0  0  0  0  0  0
  187.4780  178.4330  139.8620 N   0  0  0  0  0  2  0  0  0  0  0  0
  186.0910  178.6800  139.6060 C   0  0  0  0  0  0  0  0  0  0  0  0
  188.8650  179.4560  138.2780 O   0  0  0  0  0  1  0  0  0  0  0  0
  189.6920  177.5030  139.3760 C   0  0  0  0  0  1  0  0  0  0  0  0
  188.4810  178.2310  138.8220 C   0  0  1  0  0  3  0  0  0  0  0  0
  185.6250  178.1390  141.9220 N   0  0  0  0  0  2  0  0  0  0  0  0
  185.3880  178.3060  145.6560 C   0  0  0  0  0  3  0  0  0  0  0  0
  184.0860  178.7780  145.8170 C   0  0  0  0  0  3  0  0  0  0  0  0
  185.1100  178.3290  143.2450 C   0  0  0  0  0  0  0  0  0  0  0  0
  183.2930  179.0310  144.7010 C   0  0  0  0  0  3  0  0  0  0  0  0
  183.8040  178.8100  143.4220 C   0  0  0  0  0  3  0  0  0  0  0  0
  185.9210  178.0730  144.3770 C   0  0  0  0  0  0  0  0  0  0  0  0
  188.1130  177.9430  146.4830 N   0  0  0  0  0  0  0  0  0  0  0  0
  189.2860  176.5670  143.4820 C   0  0  0  0  0  3  0  0  0  0  0  0
  188.2290  177.4980  145.2050 C   0  0  0  0  0  0  0  0  0  0  0  0
  190.4680  176.7900  145.6150 C   0  0  0  0  0  0  0  0  0  0  0  0
  187.3080  177.5480  144.2500 C   0  0  0  0  0  0  0  0  0  0  0  0
  190.3360  177.2380  146.8960 N   0  0  0  0  0  2  0  0  0  0  0  0
  189.1730  177.8090  147.3330 C   0  0  0  0  0  0  0  0  0  0  0  0
  189.0660  178.2950  148.7320 C   0  0  0  0  0  1  0  0  0  0  0  0
  191.6870  176.1950  145.1860 N   0  0  0  0  0  1  0  0  0  0  0  0
  187.9080  176.9390  143.0120 C   0  0  0  0  0  3  0  0  0  0  0  0
  189.3840  176.9270  144.7510 C   0  0  0  0  0  0  0  0  0  0  0  0
  1 18  1  6  0  0  0
  1 22  1  0  0  0  0
  2  6  2  0  0  0  0
  3  1  1  0  0  0  0
  4  3  2  0  0  0  0
  5  3  1  0  0  0  0
  6  5  1  0  0  0  0
  7  6  1  0  0  0  0
  8  9  1  0  0  0  0
  8  7  1  0  0  0  0
 10 13  1  0  0  0  0
 11 14  1  0  0  0  0
 12 10  2  0  0  0  0
 13 14  1  0  0  0  0
 14  9  1  1  0  0  0
 15 12  1  0  0  0  0
 15 11  2  0  0  0  0
 16 18  2  0  0  0  0
 18 17  1  0  0  0  0
 19 21  1  0  0  0  0
 21 20  1  1  0  0  0
 21 17  1  0  0  0  0
 22 25  1  0  0  0  0
 23 24  1  0  0  0  0
 25 27  2  0  0  0  0
 25 28  1  0  0  0  0
 26 24  2  0  0  0  0
 27 26  1  0  0  0  0
 28 23  2  0  0  0  0
 29 35  2  0  0  0  0
 30 39  1  0  0  0  0
 31 29  1  0  0  0  0
 32 34  1  0  0  0  0
 33 28  1  0  0  0  0
 33 31  2  0  0  0  0
 34 35  1  0  0  0  0
 35 36  1  0  0  0  0
 37 32  1  0  0  0  0
 38 30  2  0  0  0  0
 38 33  1  0  0  0  0
 39 31  1  0  0  0  0
 39 32  2  0  0  0  0
M  END
>  <MODEL>
2

>  <REMARK>
 VINA RESULT:     -10.2      4.293      9.434
  Name = 
  10 active torsions:
  status: ('A' for Active; 'I' for Inactive)
    1  A    between atoms: C_1  and  C_9
    2  A    between atoms: C_1  and  C_22
    3  A    between atoms: C_1  and  N_31
    4  A    between atoms: C_2  and  C_34
    5  A    between atoms: C_2  and  C_35
    6  A    between atoms: C_13  and  N_31
    7  A    between atoms: C_15  and  C_33
    8  A    between atoms: N_18  and  C_37
    9  A    between atoms: C_25  and  O_32
   10  A    between atoms: O_32  and  C_34
                            x       y       z     vdW  Elec       q    Type
                         _______ _______ _______ _____ _____    ______ ____

>  <TORSDO>
F 10

$$$$
=
 OpenBabel10222420453D

 39 42  0  0  1  0  0  0  0  0999 V2000
  189.3640  177.4160  139.9590 C   0  0  2  0  0  3  0  0  0  0  0  0
  193.5520  176.9720  138.7280 O   0  0  0  0  0  0  0  0  0  0  0  0
  190.8280  177.2400  139.7080 C   0  0  0  0  0  0  0  0  0  0  0  0
  191.6720  177.6690  140.5430 O   0  0  0  0  0  0  0  0  0  0  0  0
  191.2500  176.5950  138.5000 N   0  0  0  0  0  2  0  0  0  0  0  0
  192.6070  176.4630  138.0680 C   0  0  0  0  0  0  0  0  0  0  0  0
  192.9070  175.7030  136.8210 C   0  0  0  0  0  2  0  0  0  0  0  0
  194.3030  175.1040  136.8790 C   0  0  0  0  0  2  0  0  0  0  0  0
  194.3130  173.9930  137.7260 O   0  0  0  0  0  0  0  0  0  0  0  0
  197.9790  174.5280  137.4750 C   0  0  0  0  0  3  0  0  0  0  0  0
  195.9150  174.4430  139.4180 C   0  0  0  0  0  3  0  0  0  0  0  0
  198.2440  174.7690  138.7630 C   0  0  0  0  0  3  0  0  0  0  0  0
  196.5540  174.4300  136.9960 C   0  0  0  0  0  2  0  0  0  0  0  0
  195.6520  173.8150  138.0740 C   0  0  2  0  0  3  0  0  0  0  0  0
  197.1450  174.8530  139.7450 C   0  0  0  0  0  3  0  0  0  0  0  0
  189.0320  179.3020  138.5490 O   0  0  0  0  0  0  0  0  0  0  0  0
  187.7320  177.4300  138.0170 N   0  0  0  0  0  2  0  0  0  0  0  0
  188.7180  178.1080  138.8040 C   0  0  0  0  0  0  0  0  0  0  0  0
  187.7750  177.8950  135.7240 O   0  0  0  0  0  1  0  0  0  0  0  0
  185.6590  177.3970  136.7120 C   0  0  0  0  0  1  0  0  0  0  0  0
  187.0260  178.0310  136.8910 C   0  0  1  0  0  3  0  0  0  0  0  0
  189.1300  178.1620  141.1910 N   0  0  0  0  0  2  0  0  0  0  0  0
  186.7360  177.6150  144.0180 C   0  0  0  0  0  3  0  0  0  0  0  0
  185.5420  178.0470  143.4410 C   0  0  0  0  0  3  0  0  0  0  0  0
  187.9200  178.0960  141.9560 C   0  0  0  0  0  0  0  0  0  0  0  0
  185.5300  178.5060  142.1260 C   0  0  0  0  0  3  0  0  0  0  0  0
  186.7140  178.5330  141.3900 C   0  0  0  0  0  3  0  0  0  0  0  0
  187.9380  177.6310  143.2930 C   0  0  0  0  0  0  0  0  0  0  0  0
  188.7430  177.7530  146.2250 N   0  0  0  0  0  0  0  0  0  0  0  0
  191.2620  176.1610  144.3830 C   0  0  0  0  0  3  0  0  0  0  0  0
  189.4880  177.2030  145.2310 C   0  0  0  0  0  0  0  0  0  0  0  0
  191.1910  176.6060  146.7900 C   0  0  0  0  0  0  0  0  0  0  0  0
  189.1860  177.1410  143.9400 C   0  0  0  0  0  0  0  0  0  0  0  0
  190.4300  177.1570  147.7770 N   0  0  0  0  0  2  0  0  0  0  0  0
  189.2170  177.7270  147.5050 C   0  0  0  0  0  0  0  0  0  0  0  0
  188.4180  178.3280  148.6020 C   0  0  0  0  0  1  0  0  0  0  0  0
  192.4480  176.0150  147.0990 N   0  0  0  0  0  1  0  0  0  0  0  0
  190.3240  176.4460  143.2430 C   0  0  0  0  0  3  0  0  0  0  0  0
  190.7030  176.6330  145.4850 C   0  0  0  0  0  0  0  0  0  0  0  0
  1 18  1  6  0  0  0
  1 22  1  0  0  0  0
  3  1  1  0  0  0  0
  3  4  2  0  0  0  0
  5  3  1  0  0  0  0
  6  5  1  0  0  0  0
  6  2  2  0  0  0  0
  7  8  1  0  0  0  0
  7  6  1  0  0  0  0
  8  9  1  0  0  0  0
 10 12  2  0  0  0  0
 11 15  2  0  0  0  0
 12 15  1  0  0  0  0
 13 10  1  0  0  0  0
 13 14  1  0  0  0  0
 14  9  1  6  0  0  0
 14 11  1  0  0  0  0
 16 18  2  0  0  0  0
 17 18  1  0  0  0  0
 19 21  1  0  0  0  0
 21 20  1  6  0  0  0
 21 17  1  0  0  0  0
 22 25  1  0  0  0  0
 24 23  1  0  0  0  0
 25 28  1  0  0  0  0
 26 24  2  0  0  0  0
 27 25  2  0  0  0  0
 27 26  1  0  0  0  0
 28 33  1  0  0  0  0
 28 23  2  0  0  0  0
 29 35  2  0  0  0  0
 30 39  1  0  0  0  0
 31 39  1  0  0  0  0
 31 29  1  0  0  0  0
 32 37  1  0  0  0  0
 32 34  1  0  0  0  0
 33 31  2  0  0  0  0
 35 34  1  0  0  0  0
 35 36  1  0  0  0  0
 38 33  1  0  0  0  0
 38 30  2  0  0  0  0
 39 32  2  0  0  0  0
M  END
>  <MODEL>
3

>  <REMARK>
 VINA RESULT:     -10.0      3.096      9.495
  Name = 
  10 active torsions:
  status: ('A' for Active; 'I' for Inactive)
    1  A    between atoms: C_1  and  C_9
    2  A    between atoms: C_1  and  C_22
    3  A    between atoms: C_1  and  N_31
    4  A    between atoms: C_2  and  C_34
    5  A    between atoms: C_2  and  C_35
    6  A    between atoms: C_13  and  N_31
    7  A    between atoms: C_15  and  C_33
    8  A    between atoms: N_18  and  C_37
    9  A    between atoms: C_25  and  O_32
   10  A    between atoms: O_32  and  C_34
                            x       y       z     vdW  Elec       q    Type
                         _______ _______ _______ _____ _____    ______ ____

>  <TORSDO>
F 10

$$$$
=
 OpenBabel10222420453D

 39 42  0  0  1  0  0  0  0  0999 V2000
  185.7820  179.0000  140.9450 C   0  0  2  0  0  3  0  0  0  0  0  0
  182.1230  179.1350  138.5270 O   0  0  0  0  0  0  0  0  0  0  0  0
  184.6290  179.1290  140.0000 C   0  0  0  0  0  0  0  0  0  0  0  0
  184.5090  180.1600  139.2820 O   0  0  0  0  0  0  0  0  0  0  0  0
  183.6630  178.0750  139.9420 N   0  0  0  0  0  2  0  0  0  0  0  0
  182.4510  178.1090  139.1810 C   0  0  0  0  0  0  0  0  0  0  0  0
  181.5690  176.9080  139.1550 C   0  0  0  0  0  2  0  0  0  0  0  0
  180.6700  176.8740  140.3810 C   0  0  0  0  0  2  0  0  0  0  0  0
  179.4010  177.3620  140.0560 O   0  0  0  0  0  0  0  0  0  0  0  0
  179.8360  179.0590  143.3310 C   0  0  0  0  0  3  0  0  0  0  0  0
  179.3550  179.6710  140.6040 C   0  0  0  0  0  3  0  0  0  0  0  0
  179.7400  180.3280  142.9230 C   0  0  0  0  0  3  0  0  0  0  0  0
  179.9160  177.9400  142.3260 C   0  0  0  0  0  2  0  0  0  0  0  0
  179.0900  178.2640  141.0740 C   0  0  2  0  0  3  0  0  0  0  0  0
  179.6220  180.6400  141.4850 C   0  0  0  0  0  3  0  0  0  0  0  0
  188.1500  178.9650  140.7310 O   0  0  0  0  0  0  0  0  0  0  0  0
  186.9790  178.1620  138.8710 N   0  0  0  0  0  2  0  0  0  0  0  0
  187.0390  178.7060  140.1950 C   0  0  0  0  0  0  0  0  0  0  0  0
  188.2850  176.4930  137.8780 O   0  0  0  0  0  1  0  0  0  0  0  0
  188.0460  178.5580  136.7020 C   0  0  0  0  0  1  0  0  0  0  0  0
  188.1480  177.8690  138.0500 C   0  0  1  0  0  3  0  0  0  0  0  0
  185.5310  177.9620  141.9390 N   0  0  0  0  0  2  0  0  0  0  0  0
  185.3680  178.2990  145.6650 C   0  0  0  0  0  3  0  0  0  0  0  0
  184.0720  178.7860  145.8310 C   0  0  0  0  0  3  0  0  0  0  0  0
  185.0420  178.2140  143.2620 C   0  0  0  0  0  0  0  0  0  0  0  0
  183.2580  178.9920  144.7190 C   0  0  0  0  0  3  0  0  0  0  0  0
  183.7430  178.7100  143.4420 C   0  0  0  0  0  3  0  0  0  0  0  0
  185.8750  178.0060  144.3890 C   0  0  0  0  0  0  0  0  0  0  0  0
  188.1010  177.9430  146.4610 N   0  0  0  0  0  0  0  0  0  0  0  0
  189.2160  176.4460  143.4970 C   0  0  0  0  0  3  0  0  0  0  0  0
  188.1920  177.4480  145.2000 C   0  0  0  0  0  0  0  0  0  0  0  0
  190.4350  176.7430  145.6000 C   0  0  0  0  0  0  0  0  0  0  0  0
  187.2560  177.4670  144.2590 C   0  0  0  0  0  0  0  0  0  0  0  0
  190.3270  177.2400  146.8650 N   0  0  0  0  0  2  0  0  0  0  0  0
  189.1740  177.8340  147.2980 C   0  0  0  0  0  0  0  0  0  0  0  0
  189.0930  178.3740  148.6790 C   0  0  0  0  0  1  0  0  0  0  0  0
  191.6430  176.1240  145.1740 N   0  0  0  0  0  1  0  0  0  0  0  0
  187.8320  176.8070  143.0360 C   0  0  0  0  0  3  0  0  0  0  0  0
  189.3370  176.8540  144.7500 C   0  0  0  0  0  0  0  0  0  0  0  0
  1  3  1  6  0  0  0
  1 22  1  0  0  0  0
  2  6  2  0  0  0  0
  4  3  2  0  0  0  0
  5  3  1  0  0  0  0
  6  5  1  0  0  0  0
  7  6  1  0  0  0  0
  7  8  1  0  0  0  0
  9  8  1  0  0  0  0
 11 14  1  0  0  0  0
 11 15  2  0  0  0  0
 12 10  2  0  0  0  0
 13 10  1  0  0  0  0
 14  9  1  6  0  0  0
 14 13  1  0  0  0  0
 15 12  1  0  0  0  0
 17 18  1  0  0  0  0
 18 16  2  0  0  0  0
 18  1  1  0  0  0  0
 19 21  1  0  0  0  0
 21 20  1  6  0  0  0
 21 17  1  0  0  0  0
 22 25  1  0  0  0  0
 23 24  1  0  0  0  0
 25 27  2  0  0  0  0
 25 28  1  0  0  0  0
 26 24  2  0  0  0  0
 27 26  1  0  0  0  0
 28 23  2  0  0  0  0
 29 35  2  0  0  0  0
 30 39  1  0  0  0  0
 31 29  1  0  0  0  0
 32 34  1  0  0  0  0
 33 28  1  0  0  0  0
 33 31  2  0  0  0  0
 34 35  1  0  0  0  0
 35 36  1  0  0  0  0
 37 32  1  0  0  0  0
 38 30  2  0  0  0  0
 38 33  1  0  0  0  0
 39 31  1  0  0  0  0
 39 32  2  0  0  0  0
M  END
>  <MODEL>
4

>  <REMARK>
 VINA RESULT:      -9.9      3.481      8.454
  Name = 
  10 active torsions:
  status: ('A' for Active; 'I' for Inactive)
    1  A    between atoms: C_1  and  C_9
    2  A    between atoms: C_1  and  C_22
    3  A    between atoms: C_1  and  N_31
    4  A    between atoms: C_2  and  C_34
    5  A    between atoms: C_2  and  C_35
    6  A    between atoms: C_13  and  N_31
    7  A    between atoms: C_15  and  C_33
    8  A    between atoms: N_18  and  C_37
    9  A    between atoms: C_25  and  O_32
   10  A    between atoms: O_32  and  C_34
                            x       y       z     vdW  Elec       q    Type
                         _______ _______ _______ _____ _____    ______ ____

>  <TORSDO>
F 10

$$$$
=
 OpenBabel10222420453D

 39 42  0  0  1  0  0  0  0  0999 V2000
  186.8980  177.8650  139.2330 C   0  0  2  0  0  3  0  0  0  0  0  0
  190.9420  177.5450  140.9060 O   0  0  0  0  0  0  0  0  0  0  0  0
  188.2940  177.9260  139.7680 C   0  0  0  0  0  0  0  0  0  0  0  0
  189.1530  178.6670  139.2160 O   0  0  0  0  0  0  0  0  0  0  0  0
  188.6370  177.1160  140.8980 N   0  0  0  0  0  2  0  0  0  0  0  0
  189.9530  176.9770  141.4430 C   0  0  0  0  0  0  0  0  0  0  0  0
  190.1540  176.1550  142.6700 C   0  0  0  0  0  2  0  0  0  0  0  0
  189.8860  176.9790  143.9190 C   0  0  0  0  0  2  0  0  0  0  0  0
  188.5460  176.8530  144.2970 O   0  0  0  0  0  0  0  0  0  0  0  0
  186.8670  178.2160  147.3160 C   0  0  0  0  0  3  0  0  0  0  0  0
  189.4100  177.2960  146.4620 C   0  0  0  0  0  3  0  0  0  0  0  0
  187.8950  178.1650  148.1680 C   0  0  0  0  0  3  0  0  0  0  0  0
  186.9740  177.5800  145.9550 C   0  0  0  0  0  2  0  0  0  0  0  0
  188.4050  177.6820  145.4090 C   0  0  2  0  0  3  0  0  0  0  0  0
  189.1760  177.5620  147.7520 C   0  0  0  0  0  3  0  0  0  0  0  0
  186.8450  178.9390  137.1130 O   0  0  0  0  0  0  0  0  0  0  0  0
  186.9730  176.6040  137.0330 N   0  0  0  0  0  2  0  0  0  0  0  0
  186.9130  177.8480  137.7400 C   0  0  0  0  0  0  0  0  0  0  0  0
  188.2290  176.1370  135.1150 O   0  0  0  0  0  1  0  0  0  0  0  0
  185.9410  175.4560  135.1310 C   0  0  0  0  0  1  0  0  0  0  0  0
  186.9620  176.4850  135.5790 C   0  0  1  0  0  3  0  0  0  0  0  0
  186.1020  178.9870  139.7190 N   0  0  0  0  0  2  0  0  0  0  0  0
  183.1230  178.4140  141.9150 C   0  0  0  0  0  3  0  0  0  0  0  0
  183.6380  178.7760  143.1590 C   0  0  0  0  0  3  0  0  0  0  0  0
  185.2510  178.9330  140.8700 C   0  0  0  0  0  0  0  0  0  0  0  0
  184.9560  179.2140  143.2670 C   0  0  0  0  0  3  0  0  0  0  0  0
  185.7580  179.2890  142.1290 C   0  0  0  0  0  3  0  0  0  0  0  0
  183.9130  178.4840  140.7560 C   0  0  0  0  0  0  0  0  0  0  0  0
  182.2360  180.1790  138.8650 N   0  0  0  0  0  0  0  0  0  0  0  0
  182.6910  176.9900  137.4890 C   0  0  0  0  0  3  0  0  0  0  0  0
  182.6020  178.8900  138.6440 C   0  0  0  0  0  0  0  0  0  0  0  0
  181.4760  178.8940  136.5430 C   0  0  0  0  0  0  0  0  0  0  0  0
  183.3170  178.1080  139.4440 C   0  0  0  0  0  0  0  0  0  0  0  0
  181.1200  180.1890  136.7760 N   0  0  0  0  0  0  0  0  0  0  0  0
  181.4940  180.8310  137.9240 C   0  0  0  0  0  0  0  0  0  0  0  0
  181.0810  182.2390  138.1520 C   0  0  0  0  0  1  0  0  0  0  0  0
  181.0790  178.2470  135.3380 N   0  0  0  0  0  1  0  0  0  0  0  0
  183.4520  176.7720  138.7670 C   0  0  0  0  0  2  0  0  0  0  0  0
  182.2360  178.2320  137.5050 C   0  0  0  0  0  0  0  0  0  0  0  0
  1 18  1  6  0  0  0
  1 22  1  0  0  0  0
  1  3  1  0  0  0  0
  2  6  2  0  0  0  0
  3  5  1  0  0  0  0
  4  3  2  0  0  0  0
  5  6  1  0  0  0  0
  6  7  1  0  0  0  0
  7  8  1  0  0  0  0
  8  9  1  0  0  0  0
 10 12  2  0  0  0  0
 11 15  2  0  0  0  0
 13 10  1  0  0  0  0
 14  9  1  6  0  0  0
 14 13  1  0  0  0  0
 14 11  1  0  0  0  0
 15 12  1  0  0  0  0
 16 18  2  0  0  0  0
 17 18  1  0  0  0  0
 19 21  1  0  0  0  0
 21 20  1  1  0  0  0
 21 17  1  0  0  0  0
 22 25  1  0  0  0  0
 23 24  1  0  0  0  0
 24 26  2  0  0  0  0
 25 27  2  0  0  0  0
 27 26  1  0  0  0  0
 28 25  1  0  0  0  0
 28 23  2  0  0  0  0
 30 39  2  0  0  0  0
 30 38  1  0  0  0  0
 31 29  1  0  0  0  0
 31 33  2  0  0  0  0
 32 34  2  0  0  0  0
 32 39  1  0  0  0  0
 33 28  1  0  0  0  0
 34 35  1  0  0  0  0
 35 36  1  0  0  0  0
 35 29  2  0  0  0  0
 37 32  1  0  0  0  0
 38 33  1  0  0  0  0
 39 31  1  0  0  0  0
M  END
>  <MODEL>
5

>  <REMARK>
 VINA RESULT:      -9.8      2.884      6.266
  Name = 
  10 active torsions:
  status: ('A' for Active; 'I' for Inactive)
    1  A    between atoms: C_1  and  C_9
    2  A    between atoms: C_1  and  C_22
    3  A    between atoms: C_1  and  N_31
    4  A    between atoms: C_2  and  C_34
    5  A    between atoms: C_2  and  C_35
    6  A    between atoms: C_13  and  N_31
    7  A    between atoms: C_15  and  C_33
    8  A    between atoms: N_18  and  C_37
    9  A    between atoms: C_25  and  O_32
   10  A    between atoms: O_32  and  C_34
                            x       y       z     vdW  Elec       q    Type
                         _______ _______ _______ _____ _____    ______ ____

>  <TORSDO>
F 10

$$$$
=
 OpenBabel10222420453D

 39 42  0  0  1  0  0  0  0  0999 V2000
  188.9660  177.8290  143.3070 C   0  0  2  0  0  3  0  0  0  0  0  0
  190.5690  176.0030  139.6530 O   0  0  0  0  0  0  0  0  0  0  0  0
  189.4480  177.0550  142.1200 C   0  0  0  0  0  0  0  0  0  0  0  0
  189.8570  175.8690  142.2580 O   0  0  0  0  0  0  0  0  0  0  0  0
  189.4540  177.6910  140.8370 N   0  0  0  0  0  2  0  0  0  0  0  0
  189.9950  177.1250  139.6390 C   0  0  0  0  0  0  0  0  0  0  0  0
  189.8670  177.8700  138.3550 C   0  0  0  0  0  2  0  0  0  0  0  0
  188.5280  177.5820  137.6960 C   0  0  0  0  0  2  0  0  0  0  0  0
  187.6310  178.6220  137.9610 O   0  0  0  0  0  0  0  0  0  0  0  0
  186.0540  177.5020  134.7900 C   0  0  0  0  0  3  0  0  0  0  0  0
  185.6200  177.4170  137.5920 C   0  0  0  0  0  3  0  0  0  0  0  0
  184.9980  176.8600  135.2980 C   0  0  0  0  0  3  0  0  0  0  0  0
  187.1510  177.9970  135.6960 C   0  0  0  0  0  2  0  0  0  0  0  0
  186.5870  178.4390  137.0540 C   0  0  2  0  0  3  0  0  0  0  0  0
  184.8510  176.7080  136.7590 C   0  0  0  0  0  3  0  0  0  0  0  0
  190.7800  178.9630  144.3460 O   0  0  0  0  0  0  0  0  0  0  0  0
  190.2650  176.8730  145.2650 N   0  0  0  0  0  2  0  0  0  0  0  0
  190.0470  177.9370  144.3310 C   0  0  0  0  0  0  0  0  0  0  0  0
  190.7650  177.1270  147.5380 O   0  0  0  0  0  1  0  0  0  0  0  0
  192.0550  175.5510  146.2900 C   0  0  0  0  0  1  0  0  0  0  0  0
  191.3120  176.8740  146.2810 C   0  0  1  0  0  3  0  0  0  0  0  0
  187.7790  177.2100  143.8880 N   0  0  0  0  0  2  0  0  0  0  0  0
  185.0050  178.9510  145.7040 C   0  0  0  0  0  3  0  0  0  0  0  0
  185.4590  178.8700  147.0200 C   0  0  0  0  0  3  0  0  0  0  0  0
  186.9960  177.7960  144.9350 C   0  0  0  0  0  0  0  0  0  0  0  0
  186.6760  178.2540  147.3010 C   0  0  0  0  0  3  0  0  0  0  0  0
  187.4370  177.7170  146.2640 C   0  0  0  0  0  3  0  0  0  0  0  0
  185.7570  178.4200  144.6440 C   0  0  0  0  0  0  0  0  0  0  0  0
  182.8780  178.5830  143.6760 N   0  0  0  0  0  0  0  0  0  0  0  0
  185.0500  178.7850  140.9350 C   0  0  0  0  0  3  0  0  0  0  0  0
  183.9760  178.6290  142.8780 C   0  0  0  0  0  0  0  0  0  0  0  0
  182.6030  178.8660  140.9430 C   0  0  0  0  0  0  0  0  0  0  0  0
  185.2460  178.5460  143.2520 C   0  0  0  0  0  0  0  0  0  0  0  0
  181.5100  178.8230  141.7570 N   0  0  0  0  0  0  0  0  0  0  0  0
  181.6400  178.6840  143.1110 C   0  0  0  0  0  0  0  0  0  0  0  0
  180.4280  178.6300  143.9690 C   0  0  0  0  0  1  0  0  0  0  0  0
  182.4430  179.0170  139.5370 N   0  0  0  0  0  1  0  0  0  0  0  0
  186.0910  178.6410  142.0100 C   0  0  0  0  0  2  0  0  0  0  0  0
  183.8650  178.7650  141.5230 C   0  0  0  0  0  0  0  0  0  0  0  0
  1  3  1  6  0  0  0
  1 22  1  0  0  0  0
  1 18  1  0  0  0  0
  3  4  2  0  0  0  0
  5  3  1  0  0  0  0
  6  2  2  0  0  0  0
  6  5  1  0  0  0  0
  7  6  1  0  0  0  0
  8  9  1  0  0  0  0
  8  7  1  0  0  0  0
 10 12  2  0  0  0  0
 10 13  1  0  0  0  0
 12 15  1  0  0  0  0
 13 14  1  0  0  0  0
 14 11  1  0  0  0  0
 14  9  1  1  0  0  0
 15 11  2  0  0  0  0
 17 21  1  0  0  0  0
 18 16  2  0  0  0  0
 18 17  1  0  0  0  0
 21 20  1  1  0  0  0
 21 19  1  0  0  0  0
 22 25  1  0  0  0  0
 23 24  1  0  0  0  0
 24 26  2  0  0  0  0
 25 27  2  0  0  0  0
 27 26  1  0  0  0  0
 28 25  1  0  0  0  0
 28 23  2  0  0  0  0
 30 39  2  0  0  0  0
 30 38  1  0  0  0  0
 31 33  2  0  0  0  0
 31 29  1  0  0  0  0
 32 39  1  0  0  0  0
 32 34  2  0  0  0  0
 33 28  1  0  0  0  0
 34 35  1  0  0  0  0
 35 29  2  0  0  0  0
 35 36  1  0  0  0  0
 37 32  1  0  0  0  0
 38 33  1  0  0  0  0
 39 31  1  0  0  0  0
M  END
>  <MODEL>
6

>  <REMARK>
 VINA RESULT:      -9.8      2.498      7.775
  Name = 
  10 active torsions:
  status: ('A' for Active; 'I' for Inactive)
    1  A    between atoms: C_1  and  C_9
    2  A    between atoms: C_1  and  C_22
    3  A    between atoms: C_1  and  N_31
    4  A    between atoms: C_2  and  C_34
    5  A    between atoms: C_2  and  C_35
    6  A    between atoms: C_13  and  N_31
    7  A    between atoms: C_15  and  C_33
    8  A    between atoms: N_18  and  C_37
    9  A    between atoms: C_25  and  O_32
   10  A    between atoms: O_32  and  C_34
                            x       y       z     vdW  Elec       q    Type
                         _______ _______ _______ _____ _____    ______ ____

>  <TORSDO>
F 10

$$$$
=
 OpenBabel10222420453D

 39 42  0  0  1  0  0  0  0  0999 V2000
  185.8980  178.9810  140.9940 C   0  0  2  0  0  3  0  0  0  0  0  0
  182.2620  178.7850  138.5460 O   0  0  0  0  0  0  0  0  0  0  0  0
  184.7470  179.0020  140.0380 C   0  0  0  0  0  0  0  0  0  0  0  0
  184.5560  180.0050  139.2960 O   0  0  0  0  0  0  0  0  0  0  0  0
  183.8640  177.8760  139.9960 N   0  0  0  0  0  2  0  0  0  0  0  0
  182.6600  177.8010  139.2250 C   0  0  0  0  0  0  0  0  0  0  0  0
  181.8720  176.5360  139.2200 C   0  0  0  0  0  2  0  0  0  0  0  0
  182.5820  175.4640  138.4090 C   0  0  0  0  0  2  0  0  0  0  0  0
  182.8970  175.9540  137.1390 O   0  0  0  0  0  0  0  0  0  0  0  0
  186.4960  175.0780  136.8690 C   0  0  0  0  0  3  0  0  0  0  0  0
  183.9900  173.8670  137.4210 C   0  0  0  0  0  3  0  0  0  0  0  0
  186.4190  173.7810  137.1830 C   0  0  0  0  0  3  0  0  0  0  0  0
  185.2910  175.9700  137.0210 C   0  0  0  0  0  2  0  0  0  0  0  0
  183.9960  175.2030  136.7240 C   0  0  2  0  0  3  0  0  0  0  0  0
  185.1310  173.1910  137.5970 C   0  0  0  0  0  3  0  0  0  0  0  0
  188.2710  178.9320  140.8670 O   0  0  0  0  0  0  0  0  0  0  0  0
  187.1640  178.3810  138.8800 N   0  0  0  0  0  2  0  0  0  0  0  0
  187.1800  178.7590  140.2620 C   0  0  0  0  0  0  0  0  0  0  0  0
  189.0580  179.3680  137.9220 O   0  0  0  0  0  1  0  0  0  0  0  0
  189.2570  177.1200  138.7040 C   0  0  0  0  0  1  0  0  0  0  0  0
  188.3610  178.1700  138.0740 C   0  0  1  0  0  3  0  0  0  0  0  0
  185.7130  177.9540  142.0140 N   0  0  0  0  0  2  0  0  0  0  0  0
  185.4720  178.2730  145.7380 C   0  0  0  0  0  3  0  0  0  0  0  0
  184.1800  178.7780  145.8770 C   0  0  0  0  0  3  0  0  0  0  0  0
  185.1990  178.2060  143.3280 C   0  0  0  0  0  0  0  0  0  0  0  0
  183.3940  179.0010  144.7490 C   0  0  0  0  0  3  0  0  0  0  0  0
  183.9030  178.7200  143.4820 C   0  0  0  0  0  3  0  0  0  0  0  0
  186.0030  177.9800  144.4710 C   0  0  0  0  0  0  0  0  0  0  0  0
  188.1780  177.8620  146.5950 N   0  0  0  0  0  0  0  0  0  0  0  0
  189.3420  176.3790  143.6430 C   0  0  0  0  0  3  0  0  0  0  0  0
  188.2920  177.3790  145.3310 C   0  0  0  0  0  0  0  0  0  0  0  0
  190.5140  176.6370  145.7780 C   0  0  0  0  0  0  0  0  0  0  0  0
  187.3790  177.4220  144.3690 C   0  0  0  0  0  0  0  0  0  0  0  0
  190.3830  177.1220  147.0450 N   0  0  0  0  0  2  0  0  0  0  0  0
  189.2290  177.7300  147.4560 C   0  0  0  0  0  0  0  0  0  0  0  0
  189.1230  178.2570  148.8410 C   0  0  0  0  0  1  0  0  0  0  0  0
  191.7230  176.0040  145.3740 N   0  0  0  0  0  1  0  0  0  0  0  0
  187.9740  176.7660  143.1530 C   0  0  0  0  0  3  0  0  0  0  0  0
  189.4380  176.7720  144.9020 C   0  0  0  0  0  0  0  0  0  0  0  0
  1  3  1  6  0  0  0
  1 22  1  0  0  0  0
  2  6  2  0  0  0  0
  4  3  2  0  0  0  0
  5  3  1  0  0  0  0
  6  5  1  0  0  0  0
  7  6  1  0  0  0  0
  8  7  1  0  0  0  0
  9  8  1  0  0  0  0
 10 13  1  0  0  0  0
 10 12  2  0  0  0  0
 11 15  2  0  0  0  0
 12 15  1  0  0  0  0
 14 13  1  0  0  0  0
 14  9  1  1  0  0  0
 14 11  1  0  0  0  0
 17 18  1  0  0  0  0
 18 16  2  0  0  0  0
 18  1  1  0  0  0  0
 19 21  1  0  0  0  0
 21 20  1  1  0  0  0
 21 17  1  0  0  0  0
 22 25  1  0  0  0  0
 23 24  1  0  0  0  0
 25 27  2  0  0  0  0
 25 28  1  0  0  0  0
 26 24  2  0  0  0  0
 27 26  1  0  0  0  0
 28 23  2  0  0  0  0
 29 35  2  0  0  0  0
 30 39  1  0  0  0  0
 31 29  1  0  0  0  0
 32 34  1  0  0  0  0
 33 28  1  0  0  0  0
 33 31  2  0  0  0  0
 34 35  1  0  0  0  0
 35 36  1  0  0  0  0
 37 32  1  0  0  0  0
 38 30  2  0  0  0  0
 38 33  1  0  0  0  0
 39 31  1  0  0  0  0
 39 32  2  0  0  0  0
M  END
>  <MODEL>
7

>  <REMARK>
 VINA RESULT:      -9.7      2.585      8.615
  Name = 
  10 active torsions:
  status: ('A' for Active; 'I' for Inactive)
    1  A    between atoms: C_1  and  C_9
    2  A    between atoms: C_1  and  C_22
    3  A    between atoms: C_1  and  N_31
    4  A    between atoms: C_2  and  C_34
    5  A    between atoms: C_2  and  C_35
    6  A    between atoms: C_13  and  N_31
    7  A    between atoms: C_15  and  C_33
    8  A    between atoms: N_18  and  C_37
    9  A    between atoms: C_25  and  O_32
   10  A    between atoms: O_32  and  C_34
                            x       y       z     vdW  Elec       q    Type
                         _______ _______ _______ _____ _____    ______ ____

>  <TORSDO>
F 10

$$$$
=
 OpenBabel10222420453D

 39 42  0  0  1  0  0  0  0  0999 V2000
  186.3240  178.1890  140.5600 C   0  0  2  0  0  3  0  0  0  0  0  0
  184.8410  179.7230  144.3940 O   0  0  0  0  0  0  0  0  0  0  0  0
  185.6710  178.7520  141.7830 C   0  0  0  0  0  0  0  0  0  0  0  0
  184.9070  179.7530  141.6910 O   0  0  0  0  0  0  0  0  0  0  0  0
  185.9450  178.1490  143.0520 N   0  0  0  0  0  2  0  0  0  0  0  0
  185.4930  178.6470  144.3150 C   0  0  0  0  0  0  0  0  0  0  0  0
  185.7920  177.8760  145.5550 C   0  0  0  0  0  2  0  0  0  0  0  0
  187.2500  177.4470  145.5830 C   0  0  0  0  0  2  0  0  0  0  0  0
  187.8330  177.8120  146.8000 O   0  0  0  0  0  0  0  0  0  0  0  0
  191.3310  176.5680  146.8740 C   0  0  0  0  0  3  0  0  0  0  0  0
  189.4520  177.6900  145.0700 C   0  0  0  0  0  3  0  0  0  0  0  0
  191.6420  176.7420  145.5860 C   0  0  0  0  0  3  0  0  0  0  0  0
  189.9130  176.7510  147.3460 C   0  0  0  0  0  2  0  0  0  0  0  0
  189.2040  177.8530  146.5470 C   0  0  2  0  0  3  0  0  0  0  0  0
  190.6170  177.2030  144.6290 C   0  0  0  0  0  3  0  0  0  0  0  0
  188.3200  179.1640  141.4050 O   0  0  0  0  0  0  0  0  0  0  0  0
  188.6420  177.3580  139.9520 N   0  0  0  0  0  2  0  0  0  0  0  0
  187.8100  178.2690  140.6790 C   0  0  0  0  0  0  0  0  0  0  0  0
  190.5690  176.6950  141.1030 O   0  0  0  0  0  1  0  0  0  0  0  0
  190.6720  176.7600  138.7180 C   0  0  0  0  0  1  0  0  0  0  0  0
  190.1000  177.3770  139.9810 C   0  0  1  0  0  3  0  0  0  0  0  0
  185.8740  178.8840  139.3590 N   0  0  0  0  0  2  0  0  0  0  0  0
  183.6670  177.2680  136.8010 C   0  0  0  0  0  3  0  0  0  0  0  0
  184.5870  177.0040  135.7860 C   0  0  0  0  0  3  0  0  0  0  0  0
  185.4290  178.2270  138.1660 C   0  0  0  0  0  0  0  0  0  0  0  0
  185.9250  177.3510  135.9530 C   0  0  0  0  0  3  0  0  0  0  0  0
  186.3430  177.9610  137.1340 C   0  0  0  0  0  3  0  0  0  0  0  0
  184.0660  177.8790  138.0000 C   0  0  0  0  0  0  0  0  0  0  0  0
  182.1730  180.2370  138.3310 N   0  0  0  0  0  0  0  0  0  0  0  0
  181.6480  177.9400  140.9230 C   0  0  0  0  0  3  0  0  0  0  0  0
  182.2390  179.1650  139.1610 C   0  0  0  0  0  0  0  0  0  0  0  0
  180.4910  180.0590  140.5140 C   0  0  0  0  0  0  0  0  0  0  0  0
  183.0560  178.1230  139.0660 C   0  0  0  0  0  0  0  0  0  0  0  0
  180.4330  181.1280  139.6700 N   0  0  0  0  0  2  0  0  0  0  0  0
  181.2630  181.2220  138.5870 C   0  0  0  0  0  0  0  0  0  0  0  0
  181.1800  182.4040  137.6920 C   0  0  0  0  0  1  0  0  0  0  0  0
  179.6140  179.9810  141.6320 N   0  0  0  0  0  1  0  0  0  0  0  0
  182.7540  177.2040  140.2180 C   0  0  0  0  0  3  0  0  0  0  0  0
  181.4200  179.0550  140.2490 C   0  0  0  0  0  0  0  0  0  0  0  0
  1 22  1  6  0  0  0
  1 18  1  0  0  0  0
  1  3  1  0  0  0  0
  3  5  1  0  0  0  0
  4  3  2  0  0  0  0
  5  6  1  0  0  0  0
  6  2  2  0  0  0  0
  6  7  1  0  0  0  0
  7  8  1  0  0  0  0
  8  9  1  0  0  0  0
 10 13  1  0  0  0  0
 11 14  1  0  0  0  0
 12 10  2  0  0  0  0
 14  9  1  6  0  0  0
 14 13  1  0  0  0  0
 15 11  2  0  0  0  0
 15 12  1  0  0  0  0
 17 21  1  0  0  0  0
 17 18  1  0  0  0  0
 18 16  2  0  0  0  0
 21 20  1  6  0  0  0
 21 19  1  0  0  0  0
 23 28  1  0  0  0  0
 24 26  1  0  0  0  0
 24 23  2  0  0  0  0
 25 22  1  0  0  0  0
 26 27  2  0  0  0  0
 27 25  1  0  0  0  0
 28 25  2  0  0  0  0
 28 33  1  0  0  0  0
 29 35  2  0  0  0  0
 29 31  1  0  0  0  0
 31 39  1  0  0  0  0
 32 37  1  0  0  0  0
 33 31  2  0  0  0  0
 33 38  1  0  0  0  0
 34 32  1  0  0  0  0
 35 34  1  0  0  0  0
 36 35  1  0  0  0  0
 38 30  2  0  0  0  0
 39 32  2  0  0  0  0
 39 30  1  0  0  0  0
M  END
>  <MODEL>
8

>  <REMARK>
 VINA RESULT:      -9.6      3.251      5.572
  Name = 
  10 active torsions:
  status: ('A' for Active; 'I' for Inactive)
    1  A    between atoms: C_1  and  C_9
    2  A    between atoms: C_1  and  C_22
    3  A    between atoms: C_1  and  N_31
    4  A    between atoms: C_2  and  C_34
    5  A    between atoms: C_2  and  C_35
    6  A    between atoms: C_13  and  N_31
    7  A    between atoms: C_15  and  C_33
    8  A    between atoms: N_18  and  C_37
    9  A    between atoms: C_25  and  O_32
   10  A    between atoms: O_32  and  C_34
                            x       y       z     vdW  Elec       q    Type
                         _______ _______ _______ _____ _____    ______ ____

>  <TORSDO>
F 10

$$$$
=
 OpenBabel10222420453D

 39 42  0  0  1  0  0  0  0  0999 V2000
  186.5550  178.2060  140.8470 C   0  0  2  0  0  3  0  0  0  0  0  0
  185.2940  179.3760  144.8830 O   0  0  0  0  0  0  0  0  0  0  0  0
  185.9810  178.6670  142.1490 C   0  0  0  0  0  0  0  0  0  0  0  0
  185.3030  179.7310  142.2020 O   0  0  0  0  0  0  0  0  0  0  0  0
  186.2290  177.8930  143.3270 N   0  0  0  0  0  2  0  0  0  0  0  0
  185.8500  178.2690  144.6550 C   0  0  0  0  0  0  0  0  0  0  0  0
  186.1090  177.3300  145.7830 C   0  0  0  0  0  2  0  0  0  0  0  0
  187.2120  177.8620  146.6830 C   0  0  0  0  0  2  0  0  0  0  0  0
  188.2700  178.3470  145.9080 O   0  0  0  0  0  0  0  0  0  0  0  0
  191.4620  176.6800  144.9990 C   0  0  0  0  0  3  0  0  0  0  0  0
  189.7210  176.9990  147.2160 C   0  0  0  0  0  3  0  0  0  0  0  0
  191.7610  176.1420  146.1850 C   0  0  0  0  0  3  0  0  0  0  0  0
  190.3160  177.6500  144.8710 C   0  0  0  0  0  2  0  0  0  0  0  0
  189.1810  177.2930  145.8400 C   0  0  2  0  0  3  0  0  0  0  0  0
  190.9190  176.4230  147.3640 C   0  0  0  0  0  3  0  0  0  0  0  0
  188.6020  179.1730  141.5750 O   0  0  0  0  0  0  0  0  0  0  0  0
  188.8320  177.3630  140.1090 N   0  0  0  0  0  2  0  0  0  0  0  0
  188.0470  178.2800  140.8810 C   0  0  0  0  0  0  0  0  0  0  0  0
  190.8210  176.9730  141.2790 O   0  0  0  0  0  1  0  0  0  0  0  0
  190.7950  176.4750  138.9440 C   0  0  0  0  0  1  0  0  0  0  0  0
  190.2890  177.3760  140.0550 C   0  0  1  0  0  3  0  0  0  0  0  0
  186.0350  178.9950  139.7350 N   0  0  0  0  0  2  0  0  0  0  0  0
  183.8970  177.5840  137.0030 C   0  0  0  0  0  3  0  0  0  0  0  0
  182.6220  177.8720  137.4900 C   0  0  0  0  0  3  0  0  0  0  0  0
  184.8900  178.6300  138.9550 C   0  0  0  0  0  0  0  0  0  0  0  0
  182.4740  178.5340  138.7060 C   0  0  0  0  0  3  0  0  0  0  0  0
  183.6020  178.9070  139.4350 C   0  0  0  0  0  3  0  0  0  0  0  0
  185.0460  177.9550  137.7200 C   0  0  0  0  0  0  0  0  0  0  0  0
  186.3240  175.2430  137.1990 N   0  0  0  0  0  0  0  0  0  0  0  0
  188.5180  177.7850  136.1990 C   0  0  0  0  0  3  0  0  0  0  0  0
  186.8990  176.4440  136.9300 C   0  0  0  0  0  0  0  0  0  0  0  0
  188.8420  175.3600  136.0710 C   0  0  0  0  0  0  0  0  0  0  0  0
  186.3890  177.6480  137.1530 C   0  0  0  0  0  0  0  0  0  0  0  0
  188.2500  174.1630  136.3420 N   0  0  0  0  0  0  0  0  0  0  0  0
  187.0030  174.0980  136.9000 C   0  0  0  0  0  0  0  0  0  0  0  0
  186.3920  172.7770  137.1930 C   0  0  0  0  0  1  0  0  0  0  0  0
  190.1380  175.4030  135.4850 N   0  0  0  0  0  1  0  0  0  0  0  0
  187.4020  178.6610  136.6940 C   0  0  0  0  0  2  0  0  0  0  0  0
  188.1450  176.5280  136.3750 C   0  0  0  0  0  0  0  0  0  0  0  0
  1 22  1  6  0  0  0
  1 18  1  0  0  0  0
  1  3  1  0  0  0  0
  3  4  2  0  0  0  0
  3  5  1  0  0  0  0
  5  6  1  0  0  0  0
  6  2  2  0  0  0  0
  6  7  1  0  0  0  0
  7  8  1  0  0  0  0
  9  8  1  0  0  0  0
 10 12  2  0  0  0  0
 11 15  2  0  0  0  0
 12 15  1  0  0  0  0
 13 10  1  0  0  0  0
 13 14  1  0  0  0  0
 14  9  1  1  0  0  0
 14 11  1  0  0  0  0
 17 18  1  0  0  0  0
 18 16  2  0  0  0  0
 21 20  1  6  0  0  0
 21 17  1  0  0  0  0
 21 19  1  0  0  0  0
 23 24  2  0  0  0  0
 23 28  1  0  0  0  0
 24 26  1  0  0  0  0
 25 27  1  0  0  0  0
 25 22  1  0  0  0  0
 26 27  2  0  0  0  0
 28 25  2  0  0  0  0
 30 39  2  0  0  0  0
 30 38  1  0  0  0  0
 31 33  2  0  0  0  0
 31 29  1  0  0  0  0
 32 34  2  0  0  0  0
 32 39  1  0  0  0  0
 33 28  1  0  0  0  0
 34 35  1  0  0  0  0
 35 36  1  0  0  0  0
 35 29  2  0  0  0  0
 37 32  1  0  0  0  0
 38 33  1  0  0  0  0
 39 31  1  0  0  0  0
M  END
>  <MODEL>
9

>  <REMARK>
 VINA RESULT:      -9.5      1.906      4.264
  Name = 
  10 active torsions:
  status: ('A' for Active; 'I' for Inactive)
    1  A    between atoms: C_1  and  C_9
    2  A    between atoms: C_1  and  C_22
    3  A    between atoms: C_1  and  N_31
    4  A    between atoms: C_2  and  C_34
    5  A    between atoms: C_2  and  C_35
    6  A    between atoms: C_13  and  N_31
    7  A    between atoms: C_15  and  C_33
    8  A    between atoms: N_18  and  C_37
    9  A    between atoms: C_25  and  O_32
   10  A    between atoms: O_32  and  C_34
                            x       y       z     vdW  Elec       q    Type
                         _______ _______ _______ _____ _____    ______ ____

>  <TORSDO>
F 10

$$$$
