=
 OpenBabel10222420503D

 68 78  0  0  1  0  0  0  0  0999 V2000
  181.5590  176.3010  139.3570 C   0  0  0  0  0  0  0  0  0  0  0  0
  181.6830  171.4490  137.7920 F   0  0  0  0  0  0  0  0  0  0  0  0
  186.3210  176.7760  140.9840 O   0  0  0  0  0  0  0  0  0  0  0  0
  180.3930  175.4730  139.2860 N   0  0  0  0  0  2  0  0  0  0  0  0
  186.7740  178.0900  140.7510 C   0  0  2  0  0  0  0  0  0  0  0  0
  183.9340  176.6700  138.8410 C   0  0  2  0  0  3  0  0  0  0  0  0
  183.7630  178.0900  139.1580 N   0  0  0  0  0  0  0  0  0  0  0  0
  184.8360  175.6110  135.3880 C   0  0  0  0  0  3  0  0  0  0  0  0
  182.2380  179.7720  139.7890 O   0  0  0  0  0  0  0  0  0  0  0  0
  184.5850  180.2540  138.8220 F   0  0  0  0  0  0  0  0  0  0  0  0
  181.4930  177.5540  140.1640 C   0  0  0  0  0  2  0  0  0  0  0  0
  184.9580  178.9690  139.1760 C   0  0  2  0  0  0  0  0  0  0  0  0
  187.0730  177.3710  142.0150 C   0  0  0  0  0  2  0  0  0  0  0  0
  187.3430  178.9310  138.5380 O   0  0  0  0  0  0  0  0  0  0  0  0
  186.0430  178.5450  138.1240 C   0  0  1  0  0  3  0  0  0  0  0  0
  186.5760  177.1020  136.1750 N   0  0  0  0  0  0  0  0  0  0  0  0
  182.4950  178.5430  139.6780 C   0  0  0  0  0  0  0  0  0  0  0  0
  179.2920  173.4610  138.6380 N   0  0  0  0  0  0  0  0  0  0  0  0
  179.5830  172.3630  137.8680 O   0  0  0  0  0  0  0  0  0  0  0  0
  184.6660  176.5510  137.5870 N   0  0  0  0  0  0  0  0  0  0  0  0
  185.5880  179.0470  140.5930 C   0  0  1  0  0  3  0  0  0  0  0  0
  186.3040  175.8350  135.4870 C   0  0  0  0  0  2  0  0  0  0  0  0
  186.0260  177.1010  137.5510 C   0  0  2  0  0  3  0  0  0  0  0  0
  182.6600  175.9410  138.7730 N   0  0  0  0  0  0  0  0  0  0  0  0
  187.7790  178.0910  139.5940 C   0  0  1  0  0  3  0  0  0  0  0  0
  180.3230  174.2280  138.5850 C   0  0  0  0  0  0  0  0  0  0  0  0
  180.8830  172.4630  137.2980 C   0  0  1  0  0  3  0  0  0  0  0  0
  181.3380  173.7120  137.7950 O   0  0  0  0  0  0  0  0  0  0  0  0
  184.0790  175.9330  136.4290 C   0  0  0  0  0  3  0  0  0  0  0  0
  189.9850  176.4020  140.2480 O   0  0  0  0  0  0  0  0  0  0  0  0
  189.0830  178.5470  140.0500 N   0  0  0  0  0  2  0  0  0  0  0  0
  191.3860  178.1550  140.8310 N   0  0  0  0  0  1  0  0  0  0  0  0
  190.1410  177.6440  140.3730 C   0  0  0  0  0  0  0  0  0  0  0  0
  184.5960  179.1280  141.7640 C   0  0  0  0  0  2  0  0  0  0  0  0
  185.2270  179.7030  143.0270 C   0  0  0  0  0  2  0  0  0  0  0  0
  183.1460  178.6060  144.0020 C   0  0  0  0  0  1  0  0  0  0  0  0
  184.4700  179.3030  144.2930 C   0  0  1  0  0  3  0  0  0  0  0  0
  185.2830  178.6010  145.2140 O   0  0  0  0  0  0  0  0  0  0  0  0
  185.8550  179.5080  146.1340 C   0  0  1  0  0  3  0  0  0  0  0  0
  185.6160  179.0660  147.4500 O   0  0  0  0  0  0  0  0  0  0  0  0
  186.9290  178.8860  146.9710 C   0  0  1  0  0  3  0  0  0  0  0  0
  188.5840  177.2080  146.6580 C   0  0  0  0  0  0  0  0  0  0  0  0
  187.2170  177.4080  146.6570 C   0  0  1  0  0  3  0  0  0  0  0  0
  189.7930  177.3310  146.1200 C   0  0  0  0  0  3  0  0  0  0  0  0
  187.6840  176.7330  147.7570 O   0  0  0  0  0  0  0  0  0  0  0  0
  189.9970  178.0190  144.8080 C   0  0  1  0  0  3  0  0  0  0  0  0
  191.4170  178.5630  144.6720 C   0  0  0  0  0  2  0  0  0  0  0  0
  191.4270  179.7390  143.9150 O   0  0  0  0  0  1  0  0  0  0  0  0
  190.7720  176.1990  143.8050 C   0  0  0  0  0  1  0  0  0  0  0  0
  189.7300  177.1290  143.7650 O   0  0  0  0  0  0  0  0  0  0  0  0
  188.0270  177.3300  136.1780 C   0  0  0  0  0  2  0  0  0  0  0  0
  188.8560  176.0900  135.8160 C   0  0  0  0  0  2  0  0  0  0  0  0
  189.6360  175.5680  137.0210 C   0  0  0  0  0  2  0  0  0  0  0  0
  196.4540  171.9760  135.1900 C   0  0  0  0  0  2  0  0  0  0  0  0
  194.6240  172.2740  136.7040 O   0  0  0  0  0  0  0  0  0  0  0  0
  196.2310  174.3520  135.8600 C   0  0  0  0  0  2  0  0  0  0  0  0
  190.2490  172.8990  136.4540 O   0  0  0  0  0  0  0  0  0  0  0  0
  191.1910  173.7280  136.3430 C   0  0  0  0  0  0  0  0  0  0  0  0
  195.0510  174.3820  138.5750 C   0  0  0  0  0  1  0  0  0  0  0  0
  190.9880  175.1060  136.6830 N   0  0  0  0  0  0  0  0  0  0  0  0
  195.8470  173.3120  134.8140 C   0  0  2  0  0  3  0  0  0  0  0  0
  193.5900  173.2300  136.9180 C   0  0  1  0  0  3  0  0  0  0  0  0
  195.0340  175.2230  136.2330 C   0  0  0  0  0  2  0  0  0  0  0  0
  194.9600  172.1720  135.3320 C   0  0  1  0  0  3  0  0  0  0  0  0
  194.1780  174.6010  137.3450 C   0  0  2  0  0  0  0  0  0  0  0  0
  193.1060  175.6030  137.7940 C   0  0  0  0  0  2  0  0  0  0  0  0
  192.5060  173.2630  135.8180 C   0  0  0  0  0  2  0  0  0  0  0  0
  192.1320  176.0150  136.6990 C   0  0  0  0  0  2  0  0  0  0  0  0
  1 11  1  0  0  0  0
  3 13  1  0  0  0  0
  4  1  1  0  0  0  0
  5  3  1  0  0  0  0
  5 13  1  1  0  0  0
  6 24  1  6  0  0  0
  6  7  1  0  0  0  0
  7 12  1  0  0  0  0
  7 17  1  0  0  0  0
  8 22  1  0  0  0  0
  8 29  2  0  0  0  0
 12 10  1  6  0  0  0
 12 21  1  0  0  0  0
 14 25  1  0  0  0  0
 15 14  1  1  0  0  0
 15 12  1  0  0  0  0
 16 51  1  0  0  0  0
 17  9  2  0  0  0  0
 17 11  1  0  0  0  0
 19 18  1  0  0  0  0
 20  6  1  0  0  0  0
 21  5  1  0  0  0  0
 21 34  1  1  0  0  0
 22 16  1  0  0  0  0
 23 16  1  6  0  0  0
 23 20  1  0  0  0  0
 23 15  1  0  0  0  0
 24  1  2  0  0  0  0
 25 31  1  1  0  0  0
 25  5  1  0  0  0  0
 26 18  2  0  0  0  0
 26  4  1  0  0  0  0
 27  2  1  1  0  0  0
 27 28  1  0  0  0  0
 27 19  1  0  0  0  0
 28 26  1  0  0  0  0
 29 20  1  0  0  0  0
 30 33  2  0  0  0  0
 31 33  1  0  0  0  0
 33 32  1  0  0  0  0
 34 35  1  0  0  0  0
 35 37  1  0  0  0  0
 37 36  1  6  0  0  0
 37 38  1  0  0  0  0
 39 38  1  6  0  0  0
 39 41  1  0  0  0  0
 39 40  1  0  0  0  0
 41 40  1  1  0  0  0
 42 45  1  0  0  0  0
 43 42  1  6  0  0  0
 43 41  1  0  0  0  0
 43 45  1  0  0  0  0
 44 42  2  0  0  0  0
 46 47  1  6  0  0  0
 46 44  1  0  0  0  0
 48 47  1  0  0  0  0
 50 49  1  0  0  0  0
 50 46  1  0  0  0  0
 52 51  1  0  0  0  0
 52 53  1  0  0  0  0
 55 62  1  0  0  0  0
 56 63  1  0  0  0  0
 58 57  2  0  0  0  0
 58 60  1  0  0  0  0
 60 68  1  0  0  0  0
 60 53  1  0  0  0  0
 61 54  1  1  0  0  0
 61 64  1  0  0  0  0
 61 56  1  0  0  0  0
 62 67  1  6  0  0  0
 62 65  1  0  0  0  0
 63 65  1  0  0  0  0
 64 54  1  1  0  0  0
 64 55  1  0  0  0  0
 65 66  1  0  0  0  0
 65 59  1  1  0  0  0
 67 58  1  0  0  0  0
 68 66  1  0  0  0  0
M  END
>  <MODEL>
1

>  <REMARK>
 VINA RESULT:      -5.5      0.000      0.000
  Name = 
  14 active torsions:
  status: ('A' for Active; 'I' for Inactive)
    1  A    between atoms: C_3  and  C_31
    2  A    between atoms: C_4  and  O_64
    3  A    between atoms: C_14  and  C_58
    4  A    between atoms: C_18  and  C_31
    5  A    between atoms: C_21  and  C_48
    6  A    between atoms: C_21  and  O_64
    7  A    between atoms: N_26  and  C_47
    8  A    between atoms: O_30  and  C_31
    9  A    between atoms: N_39  and  C_50
   10  A    between atoms: C_43  and  C_48
   11  A    between atoms: C_43  and  C_51
   12  A    between atoms: N_45  and  C_62
   13  A    between atoms: C_47  and  C_49
   14  A    between atoms: C_49  and  C_50
                            x       y       z     vdW  Elec       q    Type
                         _______ _______ _______ _____ _____    ______ ____

>  <TORSDO>
F 14

$$$$
=
 OpenBabel10222420503D

 68 78  0  0  1  0  0  0  0  0999 V2000
  191.0560  177.0860  141.9260 C   0  0  0  0  0  0  0  0  0  0  0  0
  188.1060  176.4530  146.0370 F   0  0  0  0  0  0  0  0  0  0  0  0
  188.3570  174.4660  138.5490 O   0  0  0  0  0  0  0  0  0  0  0  0
  191.5570  177.1580  143.2660 N   0  0  0  0  0  2  0  0  0  0  0  0
  188.4770  175.0640  137.2790 C   0  0  2  0  0  0  0  0  0  0  0  0
  189.1500  176.9830  140.3760 C   0  0  2  0  0  3  0  0  0  0  0  0
  190.0520  177.3310  139.2740 N   0  0  0  0  0  0  0  0  0  0  0  0
  186.3880  179.2840  141.3400 C   0  0  0  0  0  3  0  0  0  0  0  0
  192.2560  177.9100  138.6740 O   0  0  0  0  0  0  0  0  0  0  0  0
  190.2130  178.2520  137.1300 F   0  0  0  0  0  0  0  0  0  0  0  0
  192.0310  176.9110  140.8110 C   0  0  0  0  0  2  0  0  0  0  0  0
  189.5260  177.3180  137.8870 C   0  0  2  0  0  0  0  0  0  0  0  0
  188.5190  173.5910  137.4580 C   0  0  0  0  0  2  0  0  0  0  0  0
  187.3790  177.1540  136.6810 O   0  0  0  0  0  0  0  0  0  0  0  0
  188.0170  177.7400  137.8030 C   0  0  1  0  0  3  0  0  0  0  0  0
  186.0690  178.6910  139.0130 N   0  0  0  0  0  0  0  0  0  0  0  0
  191.4680  177.4360  139.5360 C   0  0  0  0  0  0  0  0  0  0  0  0
  191.2210  177.2330  145.6240 N   0  0  0  0  0  0  0  0  0  0  0  0
  190.1570  177.3720  146.4810 O   0  0  0  0  0  0  0  0  0  0  0  0
  187.9530  177.8080  140.2830 N   0  0  0  0  0  0  0  0  0  0  0  0
  189.7350  175.9350  137.2110 C   0  0  1  0  0  3  0  0  0  0  0  0
  185.4030  178.8570  140.3090 C   0  0  0  0  0  2  0  0  0  0  0  0
  187.1310  177.6600  139.0770 C   0  0  2  0  0  3  0  0  0  0  0  0
  189.7790  177.1240  141.6970 N   0  0  0  0  0  0  0  0  0  0  0  0
  187.1660  175.7720  136.9180 C   0  0  1  0  0  3  0  0  0  0  0  0
  190.7400  177.2850  144.4330 C   0  0  0  0  0  0  0  0  0  0  0  0
  188.9360  177.5240  145.7660 C   0  0  1  0  0  3  0  0  0  0  0  0
  189.3650  177.4630  144.4150 O   0  0  0  0  0  0  0  0  0  0  0  0
  187.5950  178.7350  141.3230 C   0  0  0  0  0  3  0  0  0  0  0  0
  185.1970  173.7040  136.9090 O   0  0  0  0  0  0  0  0  0  0  0  0
  186.5740  175.1760  135.7290 N   0  0  0  0  0  2  0  0  0  0  0  0
  185.0770  173.5820  134.5970 N   0  0  0  0  0  1  0  0  0  0  0  0
  185.6010  174.1340  135.7970 C   0  0  0  0  0  0  0  0  0  0  0  0
  191.0770  175.2450  137.4970 C   0  0  0  0  0  2  0  0  0  0  0  0
  191.3610  174.0970  136.5360 C   0  0  0  0  0  2  0  0  0  0  0  0
  192.6680  175.9800  135.4260 C   0  0  0  0  0  1  0  0  0  0  0  0
  192.3200  174.4960  135.4140 C   0  0  1  0  0  3  0  0  0  0  0  0
  193.4540  173.6530  135.3420 O   0  0  0  0  0  0  0  0  0  0  0  0
  193.3330  172.6090  136.2860 C   0  0  1  0  0  3  0  0  0  0  0  0
  193.4380  171.3640  135.6330 O   0  0  0  0  0  0  0  0  0  0  0  0
  194.5660  171.7640  136.3770 C   0  0  1  0  0  3  0  0  0  0  0  0
  196.8380  172.4500  136.2330 C   0  0  0  0  0  0  0  0  0  0  0  0
  195.7190  172.2040  135.4600 C   0  0  1  0  0  3  0  0  0  0  0  0
  197.5360  173.1810  137.0960 C   0  0  0  0  0  3  0  0  0  0  0  0
  196.6910  171.2410  135.3620 O   0  0  0  0  0  0  0  0  0  0  0  0
  197.0030  174.4690  137.6390 C   0  0  1  0  0  3  0  0  0  0  0  0
  196.1890  174.2500  138.9110 C   0  0  0  0  0  2  0  0  0  0  0  0
  195.0800  175.1000  138.9430 O   0  0  0  0  0  1  0  0  0  0  0  0
  198.9890  174.5850  138.6190 C   0  0  0  0  0  1  0  0  0  0  0  0
  198.0610  175.3420  137.8980 O   0  0  0  0  0  0  0  0  0  0  0  0
  185.0530  178.3530  138.0060 C   0  0  0  0  0  2  0  0  0  0  0  0
  183.6500  178.1260  138.5840 C   0  0  0  0  0  2  0  0  0  0  0  0
  182.5830  178.1630  137.4930 C   0  0  0  0  0  2  0  0  0  0  0  0
  179.1390  171.5740  134.7600 C   0  0  0  0  0  2  0  0  0  0  0  0
  178.9600  173.6750  135.8940 O   0  0  0  0  0  0  0  0  0  0  0  0
  180.6850  171.6760  136.6960 C   0  0  0  0  0  2  0  0  0  0  0  0
  180.6530  177.7460  135.5110 O   0  0  0  0  0  0  0  0  0  0  0  0
  181.1420  176.7160  136.0470 C   0  0  0  0  0  0  0  0  0  0  0  0
  179.4560  173.4820  138.6950 C   0  0  0  0  0  1  0  0  0  0  0  0
  182.0830  176.8340  137.1220 N   0  0  0  0  0  0  0  0  0  0  0  0
  180.5510  171.9070  135.1950 C   0  0  2  0  0  3  0  0  0  0  0  0
  179.8420  174.6090  136.5070 C   0  0  1  0  0  3  0  0  0  0  0  0
  181.4490  172.8170  137.3620 C   0  0  0  0  0  2  0  0  0  0  0  0
  179.5760  173.0230  134.7980 C   0  0  1  0  0  3  0  0  0  0  0  0
  180.5370  173.9900  137.7490 C   0  0  2  0  0  0  0  0  0  0  0  0
  181.3310  175.0140  138.5690 C   0  0  0  0  0  2  0  0  0  0  0  0
  180.7530  175.3750  135.5230 C   0  0  0  0  0  2  0  0  0  0  0  0
  182.5130  175.6310  137.8320 C   0  0  0  0  0  2  0  0  0  0  0  0
  1  4  1  0  0  0  0
  4 26  1  0  0  0  0
  5 13  1  6  0  0  0
  5  3  1  0  0  0  0
  6 24  1  1  0  0  0
  7 17  1  0  0  0  0
  7  6  1  0  0  0  0
  9 17  2  0  0  0  0
 11  1  1  0  0  0  0
 12 10  1  6  0  0  0
 12  7  1  0  0  0  0
 13  3  1  0  0  0  0
 14 25  1  0  0  0  0
 15 14  1  6  0  0  0
 15 12  1  0  0  0  0
 15 23  1  0  0  0  0
 16 22  1  0  0  0  0
 17 11  1  0  0  0  0
 18 19  1  0  0  0  0
 20  6  1  0  0  0  0
 20 29  1  0  0  0  0
 21  5  1  0  0  0  0
 21 34  1  1  0  0  0
 21 12  1  0  0  0  0
 22  8  1  0  0  0  0
 23 16  1  6  0  0  0
 23 20  1  0  0  0  0
 24  1  2  0  0  0  0
 25 31  1  6  0  0  0
 25  5  1  0  0  0  0
 26 18  2  0  0  0  0
 27  2  1  1  0  0  0
 27 19  1  0  0  0  0
 28 26  1  0  0  0  0
 28 27  1  0  0  0  0
 29  8  2  0  0  0  0
 31 33  1  0  0  0  0
 32 33  1  0  0  0  0
 33 30  2  0  0  0  0
 35 34  1  0  0  0  0
 37 36  1  1  0  0  0
 37 35  1  0  0  0  0
 38 37  1  0  0  0  0
 39 38  1  6  0  0  0
 39 41  1  0  0  0  0
 40 39  1  0  0  0  0
 41 40  1  6  0  0  0
 42 44  2  0  0  0  0
 43 45  1  6  0  0  0
 43 42  1  0  0  0  0
 43 41  1  0  0  0  0
 45 42  1  0  0  0  0
 46 44  1  1  0  0  0
 46 50  1  0  0  0  0
 46 47  1  0  0  0  0
 47 48  1  0  0  0  0
 50 49  1  0  0  0  0
 51 52  1  0  0  0  0
 51 16  1  0  0  0  0
 53 52  1  0  0  0  0
 55 62  1  0  0  0  0
 56 63  1  0  0  0  0
 57 58  2  0  0  0  0
 58 60  1  0  0  0  0
 60 53  1  0  0  0  0
 60 68  1  0  0  0  0
 61 54  1  6  0  0  0
 61 56  1  0  0  0  0
 62 67  1  6  0  0  0
 62 65  1  0  0  0  0
 63 65  1  0  0  0  0
 64 54  1  6  0  0  0
 64 61  1  0  0  0  0
 64 55  1  0  0  0  0
 65 66  1  0  0  0  0
 65 59  1  1  0  0  0
 67 58  1  0  0  0  0
 68 66  1  0  0  0  0
M  END
>  <MODEL>
2

>  <REMARK>
 VINA RESULT:      -5.3      2.757     10.726
  Name = 
  14 active torsions:
  status: ('A' for Active; 'I' for Inactive)
    1  A    between atoms: C_3  and  C_31
    2  A    between atoms: C_4  and  O_64
    3  A    between atoms: C_14  and  C_58
    4  A    between atoms: C_18  and  C_31
    5  A    between atoms: C_21  and  C_48
    6  A    between atoms: C_21  and  O_64
    7  A    between atoms: N_26  and  C_47
    8  A    between atoms: O_30  and  C_31
    9  A    between atoms: N_39  and  C_50
   10  A    between atoms: C_43  and  C_48
   11  A    between atoms: C_43  and  C_51
   12  A    between atoms: N_45  and  C_62
   13  A    between atoms: C_47  and  C_49
   14  A    between atoms: C_49  and  C_50
                            x       y       z     vdW  Elec       q    Type
                         _______ _______ _______ _____ _____    ______ ____

>  <TORSDO>
F 14

$$$$
=
 OpenBabel10222420503D

 68 78  0  0  1  0  0  0  0  0999 V2000
  189.2740  178.2740  140.9180 C   0  0  0  0  0  0  0  0  0  0  0  0
  187.6780  176.5150  145.4310 F   0  0  0  0  0  0  0  0  0  0  0  0
  187.0070  174.9380  137.8720 O   0  0  0  0  0  0  0  0  0  0  0  0
  189.9910  178.4900  142.1390 N   0  0  0  0  0  2  0  0  0  0  0  0
  186.6370  175.5690  136.6670 C   0  0  2  0  0  0  0  0  0  0  0  0
  187.2410  177.5260  139.7560 C   0  0  2  0  0  3  0  0  0  0  0  0
  187.7080  178.2030  138.5420 N   0  0  0  0  0  0  0  0  0  0  0  0
  184.1220  178.6460  141.4500 C   0  0  0  0  0  3  0  0  0  0  0  0
  189.3890  179.5560  137.5950 O   0  0  0  0  0  0  0  0  0  0  0  0
  187.0770  179.1720  136.5100 F   0  0  0  0  0  0  0  0  0  0  0  0
  189.9880  178.4910  139.6270 C   0  0  0  0  0  2  0  0  0  0  0  0
  186.9370  178.0340  137.2870 C   0  0  2  0  0  0  0  0  0  0  0  0
  187.2280  174.2080  136.6880 C   0  0  0  0  0  2  0  0  0  0  0  0
  184.7780  177.1330  136.4990 O   0  0  0  0  0  0  0  0  0  0  0  0
  185.3950  177.8830  137.5330 C   0  0  1  0  0  3  0  0  0  0  0  0
  183.5420  178.0340  139.1790 N   0  0  0  0  0  0  0  0  0  0  0  0
  189.0190  178.8080  138.5400 C   0  0  0  0  0  0  0  0  0  0  0  0
  190.1600  178.3810  144.5130 N   0  0  0  0  0  0  0  0  0  0  0  0
  189.3230  178.1040  145.5660 O   0  0  0  0  0  0  0  0  0  0  0  0
  185.8410  177.8620  139.9740 N   0  0  0  0  0  0  0  0  0  0  0  0
  187.4670  176.8380  136.4490 C   0  0  1  0  0  3  0  0  0  0  0  0
  183.1530  177.9160  140.5880 C   0  0  0  0  0  2  0  0  0  0  0  0
  184.8850  177.4560  138.9370 C   0  0  2  0  0  3  0  0  0  0  0  0
  188.0470  177.8520  140.9400 N   0  0  0  0  0  0  0  0  0  0  0  0
  185.1170  175.7630  136.6340 C   0  0  1  0  0  3  0  0  0  0  0  0
  189.4490  178.2830  143.4460 C   0  0  0  0  0  0  0  0  0  0  0  0
  188.0040  177.8210  145.1140 C   0  0  1  0  0  3  0  0  0  0  0  0
  188.1290  177.9520  143.7070 O   0  0  0  0  0  0  0  0  0  0  0  0
  185.4120  178.5710  141.1490 C   0  0  0  0  0  3  0  0  0  0  0  0
  183.4470  173.4610  136.8820 O   0  0  0  0  0  0  0  0  0  0  0  0
  184.5320  175.0220  135.5260 N   0  0  0  0  0  2  0  0  0  0  0  0
  183.1890  173.1800  134.5940 N   0  0  0  0  0  1  0  0  0  0  0  0
  183.7140  173.8690  135.7210 C   0  0  0  0  0  0  0  0  0  0  0  0
  188.9940  176.6750  136.4050 C   0  0  0  0  0  2  0  0  0  0  0  0
  189.4740  176.0130  135.1180 C   0  0  0  0  0  2  0  0  0  0  0  0
  190.2850  173.6400  134.6690 C   0  0  0  0  0  1  0  0  0  0  0  0
  190.5610  174.9670  135.3690 C   0  0  1  0  0  3  0  0  0  0  0  0
  191.8620  175.4670  135.1310 O   0  0  0  0  0  0  0  0  0  0  0  0
  192.6170  175.4190  136.3240 C   0  0  1  0  0  3  0  0  0  0  0  0
  192.8080  174.0770  136.7130 O   0  0  0  0  0  0  0  0  0  0  0  0
  193.9300  174.7190  136.1530 C   0  0  1  0  0  3  0  0  0  0  0  0
  195.3360  173.4140  134.7480 C   0  0  0  0  0  0  0  0  0  0  0  0
  194.2120  174.2170  134.7260 C   0  0  1  0  0  3  0  0  0  0  0  0
  196.6480  173.2260  134.8390 C   0  0  0  0  0  3  0  0  0  0  0  0
  193.9470  172.8770  134.5940 O   0  0  0  0  0  0  0  0  0  0  0  0
  197.5910  174.3760  135.0040 C   0  0  1  0  0  3  0  0  0  0  0  0
  197.0070  175.4590  135.9080 C   0  0  0  0  0  2  0  0  0  0  0  0
  197.8770  175.7450  136.9640 O   0  0  0  0  0  1  0  0  0  0  0  0
  198.7980  172.5400  135.3060 C   0  0  0  0  0  1  0  0  0  0  0  0
  198.8000  173.9190  135.5340 O   0  0  0  0  0  0  0  0  0  0  0  0
  182.5200  177.3760  138.3540 C   0  0  0  0  0  2  0  0  0  0  0  0
  181.0790  177.7380  138.7380 C   0  0  0  0  0  2  0  0  0  0  0  0
  180.2510  178.1150  137.5110 C   0  0  0  0  0  2  0  0  0  0  0  0
  179.6900  185.7190  135.3660 C   0  0  0  0  0  2  0  0  0  0  0  0
  180.9830  183.7100  135.5140 O   0  0  0  0  0  0  0  0  0  0  0  0
  179.8030  184.9040  137.7040 C   0  0  0  0  0  2  0  0  0  0  0  0
  180.3280  179.3620  135.0090 O   0  0  0  0  0  0  0  0  0  0  0  0
  180.0950  180.1040  136.0000 C   0  0  0  0  0  0  0  0  0  0  0  0
  182.3650  183.4480  137.9940 C   0  0  0  0  0  1  0  0  0  0  0  0
  180.1090  179.5650  137.3280 N   0  0  0  0  0  0  0  0  0  0  0  0
  178.9910  184.8790  136.4140 C   0  0  2  0  0  3  0  0  0  0  0  0
  180.9150  182.4740  136.2170 C   0  0  1  0  0  3  0  0  0  0  0  0
  179.8990  183.5100  138.3200 C   0  0  0  0  0  2  0  0  0  0  0  0
  179.6920  184.2120  135.2230 C   0  0  1  0  0  3  0  0  0  0  0  0
  181.0650  182.6920  137.7460 C   0  0  2  0  0  0  0  0  0  0  0  0
  181.2130  181.3820  138.5310 C   0  0  0  0  0  2  0  0  0  0  0  0
  179.7700  181.5400  135.7680 C   0  0  0  0  0  2  0  0  0  0  0  0
  179.9950  180.4710  138.4690 C   0  0  0  0  0  2  0  0  0  0  0  0
  1 24  2  0  0  0  0
  1  4  1  0  0  0  0
  4 26  1  0  0  0  0
  5 13  1  6  0  0  0
  5  3  1  0  0  0  0
  6 20  1  0  0  0  0
  6 24  1  1  0  0  0
  7  6  1  0  0  0  0
  9 17  2  0  0  0  0
 11  1  1  0  0  0  0
 12 10  1  6  0  0  0
 12 15  1  0  0  0  0
 12  7  1  0  0  0  0
 13  3  1  0  0  0  0
 14 25  1  0  0  0  0
 15 14  1  6  0  0  0
 15 23  1  0  0  0  0
 16 22  1  0  0  0  0
 17  7  1  0  0  0  0
 17 11  1  0  0  0  0
 18 19  1  0  0  0  0
 20 29  1  0  0  0  0
 21 34  1  1  0  0  0
 21  5  1  0  0  0  0
 21 12  1  0  0  0  0
 22  8  1  0  0  0  0
 23 16  1  1  0  0  0
 23 20  1  0  0  0  0
 25 31  1  6  0  0  0
 25  5  1  0  0  0  0
 26 28  1  0  0  0  0
 26 18  2  0  0  0  0
 27  2  1  6  0  0  0
 27 19  1  0  0  0  0
 28 27  1  0  0  0  0
 29  8  2  0  0  0  0
 31 33  1  0  0  0  0
 32 33  1  0  0  0  0
 33 30  2  0  0  0  0
 35 37  1  0  0  0  0
 35 34  1  0  0  0  0
 37 36  1  6  0  0  0
 38 37  1  0  0  0  0
 39 38  1  6  0  0  0
 39 40  1  0  0  0  0
 41 39  1  0  0  0  0
 41 40  1  1  0  0  0
 42 44  2  0  0  0  0
 43 45  1  1  0  0  0
 43 42  1  0  0  0  0
 43 41  1  0  0  0  0
 45 42  1  0  0  0  0
 46 44  1  1  0  0  0
 46 50  1  0  0  0  0
 46 47  1  0  0  0  0
 47 48  1  0  0  0  0
 49 50  1  0  0  0  0
 51 52  1  0  0  0  0
 51 16  1  0  0  0  0
 53 52  1  0  0  0  0
 55 62  1  0  0  0  0
 56 63  1  0  0  0  0
 57 58  2  0  0  0  0
 58 60  1  0  0  0  0
 60 53  1  0  0  0  0
 60 68  1  0  0  0  0
 61 54  1  6  0  0  0
 61 56  1  0  0  0  0
 62 67  1  1  0  0  0
 62 65  1  0  0  0  0
 64 54  1  6  0  0  0
 64 55  1  0  0  0  0
 64 61  1  0  0  0  0
 65 59  1  1  0  0  0
 65 63  1  0  0  0  0
 65 66  1  0  0  0  0
 67 58  1  0  0  0  0
 68 66  1  0  0  0  0
M  END
>  <MODEL>
3

>  <REMARK>
 VINA RESULT:      -4.7      3.525     11.360
  Name = 
  14 active torsions:
  status: ('A' for Active; 'I' for Inactive)
    1  A    between atoms: C_3  and  C_31
    2  A    between atoms: C_4  and  O_64
    3  A    between atoms: C_14  and  C_58
    4  A    between atoms: C_18  and  C_31
    5  A    between atoms: C_21  and  C_48
    6  A    between atoms: C_21  and  O_64
    7  A    between atoms: N_26  and  C_47
    8  A    between atoms: O_30  and  C_31
    9  A    between atoms: N_39  and  C_50
   10  A    between atoms: C_43  and  C_48
   11  A    between atoms: C_43  and  C_51
   12  A    between atoms: N_45  and  C_62
   13  A    between atoms: C_47  and  C_49
   14  A    between atoms: C_49  and  C_50
                            x       y       z     vdW  Elec       q    Type
                         _______ _______ _______ _____ _____    ______ ____

>  <TORSDO>
F 14

$$$$
=
 OpenBabel10222420503D

 68 78  0  0  1  0  0  0  0  0999 V2000
  190.6070  177.2680  141.9410 C   0  0  0  0  0  0  0  0  0  0  0  0
  187.8030  176.3150  146.0930 F   0  0  0  0  0  0  0  0  0  0  0  0
  187.8290  174.8460  138.4820 O   0  0  0  0  0  0  0  0  0  0  0  0
  191.1520  177.2560  143.2660 N   0  0  0  0  0  2  0  0  0  0  0  0
  187.8980  175.5310  137.2520 C   0  0  2  0  0  0  0  0  0  0  0  0
  188.6520  177.2440  140.4500 C   0  0  2  0  0  3  0  0  0  0  0  0
  189.5130  177.6780  139.3460 N   0  0  0  0  0  0  0  0  0  0  0  0
  185.8960  179.4340  141.6590 C   0  0  0  0  0  3  0  0  0  0  0  0
  191.6880  178.3280  138.7160 O   0  0  0  0  0  0  0  0  0  0  0  0
  189.5900  178.7460  137.2660 F   0  0  0  0  0  0  0  0  0  0  0  0
  191.5460  177.1820  140.7860 C   0  0  0  0  0  2  0  0  0  0  0  0
  188.9410  177.7520  137.9800 C   0  0  2  0  0  0  0  0  0  0  0  0
  187.9640  174.0500  137.3290 C   0  0  0  0  0  2  0  0  0  0  0  0
  186.7560  177.6400  136.8350 O   0  0  0  0  0  0  0  0  0  0  0  0
  187.4250  178.1570  137.9740 C   0  0  1  0  0  3  0  0  0  0  0  0
  185.5060  178.9960  139.3080 N   0  0  0  0  0  0  0  0  0  0  0  0
  190.9350  177.7850  139.5680 C   0  0  0  0  0  0  0  0  0  0  0  0
  190.8930  177.1650  145.6330 N   0  0  0  0  0  0  0  0  0  0  0  0
  189.8570  177.2310  146.5310 O   0  0  0  0  0  0  0  0  0  0  0  0
  187.4420  178.0550  140.4530 N   0  0  0  0  0  0  0  0  0  0  0  0
  189.1430  176.4220  137.2040 C   0  0  1  0  0  3  0  0  0  0  0  0
  184.8820  179.0640  140.6340 C   0  0  0  0  0  2  0  0  0  0  0  0
  186.5820  177.9780  139.2670 C   0  0  2  0  0  3  0  0  0  0  0  0
  189.3230  177.3030  141.7560 N   0  0  0  0  0  0  0  0  0  0  0  0
  186.5680  176.2430  136.9830 C   0  0  1  0  0  3  0  0  0  0  0  0
  190.3720  177.2910  144.4640 C   0  0  0  0  0  0  0  0  0  0  0  0
  188.6120  177.4130  145.8680 C   0  0  1  0  0  3  0  0  0  0  0  0
  188.9950  177.4500  144.5030 O   0  0  0  0  0  0  0  0  0  0  0  0
  187.1080  178.9040  141.5640 C   0  0  0  0  0  3  0  0  0  0  0  0
  184.4720  174.3060  136.9100 O   0  0  0  0  0  0  0  0  0  0  0  0
  185.9450  175.7210  135.7770 N   0  0  0  0  0  2  0  0  0  0  0  0
  184.3530  174.2590  134.5950 N   0  0  0  0  0  1  0  0  0  0  0  0
  184.9070  174.7410  135.8120 C   0  0  0  0  0  0  0  0  0  0  0  0
  190.5030  175.7330  137.3980 C   0  0  0  0  0  2  0  0  0  0  0  0
  191.1380  175.3100  136.0780 C   0  0  0  0  0  2  0  0  0  0  0  0
  191.0140  172.9850  135.0440 C   0  0  0  0  0  1  0  0  0  0  0  0
  191.6500  173.8700  136.1110 C   0  0  1  0  0  3  0  0  0  0  0  0
  193.0630  173.7950  136.1320 O   0  0  0  0  0  0  0  0  0  0  0  0
  193.5880  174.8990  136.8410 C   0  0  1  0  0  3  0  0  0  0  0  0
  193.3570  174.7320  138.2210 O   0  0  0  0  0  0  0  0  0  0  0  0
  194.6800  174.5130  137.7890 C   0  0  1  0  0  3  0  0  0  0  0  0
  196.4040  172.8780  137.6770 C   0  0  0  0  0  0  0  0  0  0  0  0
  195.0330  173.0150  137.7920 C   0  0  1  0  0  3  0  0  0  0  0  0
  197.5380  172.9210  136.9880 C   0  0  0  0  0  3  0  0  0  0  0  0
  195.6580  172.6390  138.9540 O   0  0  0  0  0  0  0  0  0  0  0  0
  197.5570  173.2870  135.5380 C   0  0  1  0  0  3  0  0  0  0  0  0
  197.1120  174.7300  135.3150 C   0  0  0  0  0  2  0  0  0  0  0  0
  198.1210  175.6230  135.6880 O   0  0  0  0  0  1  0  0  0  0  0  0
  199.1800  171.7870  135.3500 C   0  0  0  0  0  1  0  0  0  0  0  0
  198.8420  173.1030  135.0240 O   0  0  0  0  0  0  0  0  0  0  0  0
  184.4630  178.7130  138.3130 C   0  0  0  0  0  2  0  0  0  0  0  0
  183.1180  179.3920  138.6080 C   0  0  0  0  0  2  0  0  0  0  0  0
  182.2780  178.5700  139.5840 C   0  0  0  0  0  2  0  0  0  0  0  0
  179.6170  171.6420  136.8180 C   0  0  0  0  0  2  0  0  0  0  0  0
  181.3970  173.2270  137.0340 O   0  0  0  0  0  0  0  0  0  0  0  0
  178.9310  173.8700  135.9750 C   0  0  0  0  0  2  0  0  0  0  0  0
  183.0030  175.9290  140.1500 O   0  0  0  0  0  0  0  0  0  0  0  0
  182.0310  176.0900  139.3650 C   0  0  0  0  0  0  0  0  0  0  0  0
  181.3770  175.2180  134.9920 C   0  0  0  0  0  1  0  0  0  0  0  0
  181.6350  177.4070  138.9610 N   0  0  0  0  0  0  0  0  0  0  0  0
  178.9390  172.9450  137.1860 C   0  0  2  0  0  3  0  0  0  0  0  0
  181.5380  174.5960  137.3990 C   0  0  1  0  0  3  0  0  0  0  0  0
  179.3070  175.2960  136.3700 C   0  0  0  0  0  2  0  0  0  0  0  0
  180.3330  172.6110  137.7340 C   0  0  1  0  0  3  0  0  0  0  0  0
  180.8250  175.5230  136.3790 C   0  0  2  0  0  0  0  0  0  0  0  0
  181.1240  177.0110  136.6040 C   0  0  0  0  0  2  0  0  0  0  0  0
  181.2770  174.8940  138.8920 C   0  0  0  0  0  2  0  0  0  0  0  0
  180.6120  177.5620  137.9290 C   0  0  0  0  0  2  0  0  0  0  0  0
  1  4  1  0  0  0  0
  4 26  1  0  0  0  0
  5 13  1  6  0  0  0
  5  3  1  0  0  0  0
  6 20  1  0  0  0  0
  6 24  1  1  0  0  0
  7 17  1  0  0  0  0
  7  6  1  0  0  0  0
  9 17  2  0  0  0  0
 11  1  1  0  0  0  0
 12 10  1  6  0  0  0
 12  7  1  0  0  0  0
 13  3  1  0  0  0  0
 14 25  1  0  0  0  0
 15 14  1  6  0  0  0
 15 12  1  0  0  0  0
 15 23  1  0  0  0  0
 16 22  1  0  0  0  0
 17 11  1  0  0  0  0
 18 19  1  0  0  0  0
 20 29  1  0  0  0  0
 21  5  1  0  0  0  0
 21 34  1  1  0  0  0
 21 12  1  0  0  0  0
 22  8  1  0  0  0  0
 23 16  1  1  0  0  0
 23 20  1  0  0  0  0
 24  1  2  0  0  0  0
 25 31  1  6  0  0  0
 25  5  1  0  0  0  0
 26 28  1  0  0  0  0
 26 18  2  0  0  0  0
 27  2  1  6  0  0  0
 27 19  1  0  0  0  0
 28 27  1  0  0  0  0
 29  8  2  0  0  0  0
 31 33  1  0  0  0  0
 32 33  1  0  0  0  0
 33 30  2  0  0  0  0
 35 37  1  0  0  0  0
 35 34  1  0  0  0  0
 37 36  1  6  0  0  0
 37 38  1  0  0  0  0
 39 38  1  6  0  0  0
 39 41  1  0  0  0  0
 39 40  1  0  0  0  0
 41 43  1  0  0  0  0
 41 40  1  1  0  0  0
 42 45  1  0  0  0  0
 43 42  1  6  0  0  0
 43 45  1  0  0  0  0
 44 42  2  0  0  0  0
 46 47  1  1  0  0  0
 46 44  1  0  0  0  0
 47 48  1  0  0  0  0
 50 49  1  0  0  0  0
 50 46  1  0  0  0  0
 51 52  1  0  0  0  0
 51 16  1  0  0  0  0
 52 53  1  0  0  0  0
 54 61  1  0  0  0  0
 55 62  1  0  0  0  0
 55 64  1  0  0  0  0
 56 63  1  0  0  0  0
 58 57  2  0  0  0  0
 60 58  1  0  0  0  0
 60 53  1  0  0  0  0
 61 56  1  6  0  0  0
 61 64  1  0  0  0  0
 62 67  1  1  0  0  0
 63 65  1  0  0  0  0
 64 54  1  6  0  0  0
 65 59  1  6  0  0  0
 65 66  1  0  0  0  0
 65 62  1  0  0  0  0
 66 68  1  0  0  0  0
 67 58  1  0  0  0  0
 68 60  1  0  0  0  0
M  END
>  <MODEL>
4

>  <REMARK>
 VINA RESULT:      -4.4      2.549     10.556
  Name = 
  14 active torsions:
  status: ('A' for Active; 'I' for Inactive)
    1  A    between atoms: C_3  and  C_31
    2  A    between atoms: C_4  and  O_64
    3  A    between atoms: C_14  and  C_58
    4  A    between atoms: C_18  and  C_31
    5  A    between atoms: C_21  and  C_48
    6  A    between atoms: C_21  and  O_64
    7  A    between atoms: N_26  and  C_47
    8  A    between atoms: O_30  and  C_31
    9  A    between atoms: N_39  and  C_50
   10  A    between atoms: C_43  and  C_48
   11  A    between atoms: C_43  and  C_51
   12  A    between atoms: N_45  and  C_62
   13  A    between atoms: C_47  and  C_49
   14  A    between atoms: C_49  and  C_50
                            x       y       z     vdW  Elec       q    Type
                         _______ _______ _______ _____ _____    ______ ____

>  <TORSDO>
F 14

$$$$
=
 OpenBabel10222420503D

 68 78  0  0  1  0  0  0  0  0999 V2000
  182.1480  177.4430  140.8390 C   0  0  0  0  0  0  0  0  0  0  0  0
  181.7770  173.8720  137.2170 F   0  0  0  0  0  0  0  0  0  0  0  0
  186.6790  176.2450  142.7320 O   0  0  0  0  0  0  0  0  0  0  0  0
  180.8940  176.9670  140.3360 N   0  0  0  0  0  2  0  0  0  0  0  0
  187.3410  177.4150  143.1550 C   0  0  2  0  0  0  0  0  0  0  0  0
  184.5980  177.5540  140.6680 C   0  0  2  0  0  3  0  0  0  0  0  0
  184.5920  178.6870  141.5970 N   0  0  0  0  0  0  0  0  0  0  0  0
  185.7760  178.0000  137.1660 C   0  0  0  0  0  3  0  0  0  0  0  0
  183.2550  180.1610  142.8580 O   0  0  0  0  0  0  0  0  0  0  0  0
  185.7510  180.5780  142.3390 F   0  0  0  0  0  0  0  0  0  0  0  0
  182.1580  178.1910  142.1290 C   0  0  0  0  0  2  0  0  0  0  0  0
  185.8880  179.2260  142.0770 C   0  0  2  0  0  0  0  0  0  0  0  0
  187.3690  176.1660  143.9570 C   0  0  0  0  0  2  0  0  0  0  0  0
  188.3050  179.0330  141.6120 O   0  0  0  0  0  0  0  0  0  0  0  0
  187.0270  179.1220  141.0030 C   0  0  1  0  0  3  0  0  0  0  0  0
  187.5950  178.6300  138.6360 N   0  0  0  0  0  0  0  0  0  0  0  0
  183.3450  179.0880  142.2050 C   0  0  0  0  0  0  0  0  0  0  0  0
  179.6090  175.7010  138.7790 N   0  0  0  0  0  0  0  0  0  0  0  0
  179.8370  175.0280  137.6040 O   0  0  0  0  0  0  0  0  0  0  0  0
  185.4600  177.8740  139.5390 N   0  0  0  0  0  0  0  0  0  0  0  0
  186.3350  178.5440  143.3990 C   0  0  1  0  0  3  0  0  0  0  0  0
  187.2360  177.8790  137.4290 C   0  0  0  0  0  2  0  0  0  0  0  0
  186.8780  178.1170  139.8270 C   0  0  2  0  0  3  0  0  0  0  0  0
  183.2520  177.1830  140.2090 N   0  0  0  0  0  0  0  0  0  0  0  0
  188.4770  177.7460  142.1800 C   0  0  1  0  0  3  0  0  0  0  0  0
  180.7370  176.2040  139.1370 C   0  0  0  0  0  0  0  0  0  0  0  0
  181.2010  175.1280  137.2090 C   0  0  1  0  0  3  0  0  0  0  0  0
  181.7610  175.9150  138.2480 O   0  0  0  0  0  0  0  0  0  0  0  0
  184.9450  177.9580  138.1990 C   0  0  0  0  0  3  0  0  0  0  0  0
  190.1060  175.4200  142.4730 O   0  0  0  0  0  0  0  0  0  0  0  0
  189.7630  177.6970  142.8580 N   0  0  0  0  0  2  0  0  0  0  0  0
  191.7630  176.5130  143.6720 N   0  0  0  0  0  1  0  0  0  0  0  0
  190.5210  176.4950  142.9790 C   0  0  0  0  0  0  0  0  0  0  0  0
  185.2220  178.2770  144.4240 C   0  0  0  0  0  2  0  0  0  0  0  0
  185.1160  179.3790  145.4720 C   0  0  0  0  0  2  0  0  0  0  0  0
  184.6090  177.7220  147.3400 C   0  0  0  0  0  1  0  0  0  0  0  0
  185.4740  178.8890  146.8760 C   0  0  1  0  0  3  0  0  0  0  0  0
  186.8610  178.6570  147.0330 O   0  0  0  0  0  0  0  0  0  0  0  0
  187.1290  178.2470  148.3580 C   0  0  1  0  0  3  0  0  0  0  0  0
  187.7390  176.9760  148.3490 O   0  0  0  0  0  0  0  0  0  0  0  0
  188.5910  178.0640  148.6240 C   0  0  1  0  0  3  0  0  0  0  0  0
  190.1270  177.2100  147.0220 C   0  0  0  0  0  0  0  0  0  0  0  0
  189.5080  178.3770  147.4290 C   0  0  1  0  0  3  0  0  0  0  0  0
  191.0170  176.2350  147.1700 C   0  0  0  0  0  3  0  0  0  0  0  0
  189.0160  177.8610  146.2570 O   0  0  0  0  0  0  0  0  0  0  0  0
  191.9520  176.2030  148.3370 C   0  0  1  0  0  3  0  0  0  0  0  0
  193.1800  175.3420  148.0510 C   0  0  0  0  0  2  0  0  0  0  0  0
  193.1780  174.9000  146.7250 O   0  0  0  0  0  1  0  0  0  0  0  0
  193.1900  177.3650  149.7640 C   0  0  0  0  0  1  0  0  0  0  0  0
  192.3500  177.5030  148.6560 O   0  0  0  0  0  0  0  0  0  0  0  0
  189.0520  178.5580  138.8160 C   0  0  0  0  0  2  0  0  0  0  0  0
  189.7540  177.5930  137.8510 C   0  0  0  0  0  2  0  0  0  0  0  0
  190.3460  176.3950  138.5910 C   0  0  0  0  0  2  0  0  0  0  0  0
  195.5470  171.9090  134.6450 C   0  0  0  0  0  2  0  0  0  0  0  0
  194.2360  172.2990  136.6100 O   0  0  0  0  0  0  0  0  0  0  0  0
  196.0340  174.1390  135.6110 C   0  0  0  0  0  2  0  0  0  0  0  0
  190.1850  173.7890  137.5890 O   0  0  0  0  0  0  0  0  0  0  0  0
  191.2390  174.4280  137.3270 C   0  0  0  0  0  0  0  0  0  0  0  0
  195.5560  173.9470  138.5270 C   0  0  0  0  0  1  0  0  0  0  0  0
  191.4400  175.7430  137.8600 N   0  0  0  0  0  0  0  0  0  0  0  0
  195.1910  173.3800  134.5940 C   0  0  2  0  0  3  0  0  0  0  0  0
  193.5270  173.3880  137.1930 C   0  0  1  0  0  3  0  0  0  0  0  0
  195.1890  175.1510  136.3800 C   0  0  0  0  0  2  0  0  0  0  0  0
  194.2120  172.3630  135.1960 C   0  0  1  0  0  3  0  0  0  0  0  0
  194.4950  174.5300  137.6020 C   0  0  2  0  0  0  0  0  0  0  0  0
  193.8150  175.6320  138.4250 C   0  0  0  0  0  2  0  0  0  0  0  0
  192.2540  173.8110  136.4270 C   0  0  0  0  0  2  0  0  0  0  0  0
  192.7330  176.4000  137.6770 C   0  0  0  0  0  2  0  0  0  0  0  0
  1 11  1  0  0  0  0
  3  5  1  0  0  0  0
  3 13  1  0  0  0  0
  4  1  1  0  0  0  0
  5 21  1  0  0  0  0
  5 13  1  1  0  0  0
  6 24  1  6  0  0  0
  6  7  1  0  0  0  0
  7 12  1  0  0  0  0
  7 17  1  0  0  0  0
  8 22  1  0  0  0  0
  8 29  2  0  0  0  0
 11 17  1  0  0  0  0
 12 10  1  1  0  0  0
 12 21  1  0  0  0  0
 14 25  1  0  0  0  0
 15 14  1  1  0  0  0
 15 12  1  0  0  0  0
 16 51  1  0  0  0  0
 17  9  2  0  0  0  0
 18 26  2  0  0  0  0
 19 18  1  0  0  0  0
 20 23  1  0  0  0  0
 20  6  1  0  0  0  0
 21 34  1  6  0  0  0
 22 16  1  0  0  0  0
 23 16  1  6  0  0  0
 23 15  1  0  0  0  0
 24  1  2  0  0  0  0
 25 31  1  1  0  0  0
 25  5  1  0  0  0  0
 26  4  1  0  0  0  0
 27  2  1  1  0  0  0
 27 19  1  0  0  0  0
 27 28  1  0  0  0  0
 28 26  1  0  0  0  0
 29 20  1  0  0  0  0
 30 33  2  0  0  0  0
 31 33  1  0  0  0  0
 33 32  1  0  0  0  0
 34 35  1  0  0  0  0
 35 37  1  0  0  0  0
 37 38  1  0  0  0  0
 37 36  1  6  0  0  0
 39 38  1  6  0  0  0
 39 41  1  0  0  0  0
 40 39  1  0  0  0  0
 41 40  1  6  0  0  0
 42 44  2  0  0  0  0
 42 43  1  0  0  0  0
 43 45  1  6  0  0  0
 43 41  1  0  0  0  0
 45 42  1  0  0  0  0
 46 44  1  6  0  0  0
 46 50  1  0  0  0  0
 47 46  1  0  0  0  0
 48 47  1  0  0  0  0
 50 49  1  0  0  0  0
 52 53  1  0  0  0  0
 52 51  1  0  0  0  0
 55 62  1  0  0  0  0
 56 63  1  0  0  0  0
 58 57  2  0  0  0  0
 58 60  1  0  0  0  0
 60 53  1  0  0  0  0
 61 54  1  6  0  0  0
 61 64  1  0  0  0  0
 61 56  1  0  0  0  0
 62 67  1  6  0  0  0
 62 65  1  0  0  0  0
 63 65  1  0  0  0  0
 64 54  1  6  0  0  0
 64 55  1  0  0  0  0
 65 66  1  0  0  0  0
 65 59  1  1  0  0  0
 67 58  1  0  0  0  0
 68 60  1  0  0  0  0
 68 66  1  0  0  0  0
M  END
>  <MODEL>
5

>  <REMARK>
 VINA RESULT:      -3.9      2.063      2.733
  Name = 
  14 active torsions:
  status: ('A' for Active; 'I' for Inactive)
    1  A    between atoms: C_3  and  C_31
    2  A    between atoms: C_4  and  O_64
    3  A    between atoms: C_14  and  C_58
    4  A    between atoms: C_18  and  C_31
    5  A    between atoms: C_21  and  C_48
    6  A    between atoms: C_21  and  O_64
    7  A    between atoms: N_26  and  C_47
    8  A    between atoms: O_30  and  C_31
    9  A    between atoms: N_39  and  C_50
   10  A    between atoms: C_43  and  C_48
   11  A    between atoms: C_43  and  C_51
   12  A    between atoms: N_45  and  C_62
   13  A    between atoms: C_47  and  C_49
   14  A    between atoms: C_49  and  C_50
                            x       y       z     vdW  Elec       q    Type
                         _______ _______ _______ _____ _____    ______ ____

>  <TORSDO>
F 14

$$$$
=
 OpenBabel10222420503D

 68 78  0  0  1  0  0  0  0  0999 V2000
  182.9680  175.3520  135.5070 C   0  0  0  0  0  0  0  0  0  0  0  0
  180.1670  179.6080  135.2850 F   0  0  0  0  0  0  0  0  0  0  0  0
  187.5930  177.3910  135.4350 O   0  0  0  0  0  0  0  0  0  0  0  0
  181.6340  175.3830  134.9850 N   0  0  0  0  0  2  0  0  0  0  0  0
  188.4690  176.6090  136.2140 C   0  0  2  0  0  0  0  0  0  0  0  0
  184.8000  176.4600  136.7150 C   0  0  2  0  0  3  0  0  0  0  0  0
  185.4580  175.1600  136.8720 N   0  0  0  0  0  0  0  0  0  0  0  0
  183.6210  178.3440  139.7010 C   0  0  0  0  0  3  0  0  0  0  0  0
  185.2980  172.8410  136.4860 O   0  0  0  0  0  0  0  0  0  0  0  0
  186.9790  173.9070  138.1330 F   0  0  0  0  0  0  0  0  0  0  0  0
  183.8270  174.1740  135.1920 C   0  0  0  0  0  2  0  0  0  0  0  0
  186.8150  175.1110  137.4680 C   0  0  2  0  0  0  0  0  0  0  0  0
  188.8780  177.1740  134.9040 C   0  0  0  0  0  2  0  0  0  0  0  0
  188.4160  176.5730  138.6490 O   0  0  0  0  0  0  0  0  0  0  0  0
  187.0460  176.2210  138.5520 C   0  0  1  0  0  3  0  0  0  0  0  0
  186.0040  177.9870  139.9540 N   0  0  0  0  0  0  0  0  0  0  0  0
  184.8810  174.0020  136.2310 C   0  0  0  0  0  0  0  0  0  0  0  0
  179.5670  176.5020  134.5940 N   0  0  0  0  0  0  0  0  0  0  0  0
  178.9720  177.6750  134.9860 O   0  0  0  0  0  0  0  0  0  0  0  0
  184.8140  177.1540  137.9960 N   0  0  0  0  0  0  0  0  0  0  0  0
  187.9190  175.1890  136.3790 C   0  0  1  0  0  3  0  0  0  0  0  0
  184.9210  178.9690  140.0690 C   0  0  0  0  0  2  0  0  0  0  0  0
  186.1260  177.4740  138.5690 C   0  0  2  0  0  3  0  0  0  0  0  0
  183.4300  176.3500  136.1960 N   0  0  0  0  0  0  0  0  0  0  0  0
  188.7920  177.3450  137.5200 C   0  0  1  0  0  3  0  0  0  0  0  0
  180.7150  176.4630  135.1720 C   0  0  0  0  0  0  0  0  0  0  0  0
  179.8120  178.4070  135.8720 C   0  0  1  0  0  3  0  0  0  0  0  0
  180.9530  177.5710  135.9710 O   0  0  0  0  0  0  0  0  0  0  0  0
  183.5960  177.5020  138.6770 C   0  0  0  0  0  3  0  0  0  0  0  0
  190.7970  175.5460  138.4650 O   0  0  0  0  0  0  0  0  0  0  0  0
  190.2150  177.6360  137.6020 N   0  0  0  0  0  2  0  0  0  0  0  0
  192.5390  177.0480  138.1690 N   0  0  0  0  0  1  0  0  0  0  0  0
  191.1640  176.6920  138.0970 C   0  0  0  0  0  0  0  0  0  0  0  0
  187.6490  174.3920  135.0930 C   0  0  0  0  0  2  0  0  0  0  0  0
  188.8780  173.6330  134.6060 C   0  0  0  0  0  2  0  0  0  0  0  0
  188.9600  171.7620  136.3330 C   0  0  0  0  0  1  0  0  0  0  0  0
  189.6580  172.9870  135.7510 C   0  0  1  0  0  3  0  0  0  0  0  0
  191.0150  172.7560  135.4230 O   0  0  0  0  0  0  0  0  0  0  0  0
  191.5710  173.9190  134.8450 C   0  0  1  0  0  3  0  0  0  0  0  0
  191.7020  174.9220  135.8270 O   0  0  0  0  0  0  0  0  0  0  0  0
  192.8960  174.2840  135.4370 C   0  0  1  0  0  3  0  0  0  0  0  0
  194.2410  174.0160  137.3790 C   0  0  0  0  0  0  0  0  0  0  0  0
  193.4040  173.3230  136.5250 C   0  0  1  0  0  3  0  0  0  0  0  0
  195.3920  174.6110  137.6750 C   0  0  0  0  0  3  0  0  0  0  0  0
  192.8510  173.6000  137.7500 O   0  0  0  0  0  0  0  0  0  0  0  0
  196.5190  174.6620  136.6930 C   0  0  1  0  0  3  0  0  0  0  0  0
  196.2100  175.6010  135.5300 C   0  0  0  0  0  2  0  0  0  0  0  0
  197.0610  176.7100  135.5470 O   0  0  0  0  0  1  0  0  0  0  0  0
  198.2550  173.9080  137.8500 C   0  0  0  0  0  1  0  0  0  0  0  0
  197.6850  175.0780  137.3390 O   0  0  0  0  0  0  0  0  0  0  0  0
  187.2540  178.6140  140.4050 C   0  0  0  0  0  2  0  0  0  0  0  0
  187.3230  178.8500  141.9200 C   0  0  0  0  0  2  0  0  0  0  0  0
  187.0170  177.5730  142.7000 C   0  0  0  0  0  2  0  0  0  0  0  0
  192.4270  175.8850  148.2340 C   0  0  0  0  0  2  0  0  0  0  0  0
  191.2680  177.5110  146.9140 O   0  0  0  0  0  0  0  0  0  0  0  0
  192.6660  175.4020  145.8140 C   0  0  0  0  0  2  0  0  0  0  0  0
  187.1520  178.1760  145.4280 O   0  0  0  0  0  0  0  0  0  0  0  0
  188.0680  177.4440  144.9670 C   0  0  0  0  0  0  0  0  0  0  0  0
  192.5040  177.9930  144.3900 C   0  0  0  0  0  1  0  0  0  0  0  0
  188.1210  177.1430  143.5670 N   0  0  0  0  0  0  0  0  0  0  0  0
  191.8520  175.1080  147.0680 C   0  0  2  0  0  3  0  0  0  0  0  0
  190.4630  177.5220  145.7390 C   0  0  1  0  0  3  0  0  0  0  0  0
  191.7560  175.6300  144.6090 C   0  0  0  0  0  2  0  0  0  0  0  0
  191.0980  176.3120  147.6470 C   0  0  1  0  0  3  0  0  0  0  0  0
  191.2840  177.0860  144.4960 C   0  0  2  0  0  0  0  0  0  0  0  0
  190.5280  177.2840  143.1750 C   0  0  0  0  0  2  0  0  0  0  0  0
  189.0730  176.8680  145.9050 C   0  0  0  0  0  2  0  0  0  0  0  0
  189.2770  176.4270  143.0320 C   0  0  0  0  0  2  0  0  0  0  0  0
  1 24  2  0  0  0  0
  3  5  1  0  0  0  0
  4 26  1  0  0  0  0
  4  1  1  0  0  0  0
  5 13  1  6  0  0  0
  5 21  1  0  0  0  0
  5 25  1  0  0  0  0
  6 24  1  1  0  0  0
  6  7  1  0  0  0  0
  6 20  1  0  0  0  0
  7 12  1  0  0  0  0
  8 22  1  0  0  0  0
 11  1  1  0  0  0  0
 11 17  1  0  0  0  0
 12 10  1  1  0  0  0
 12 15  1  0  0  0  0
 13  3  1  0  0  0  0
 15 23  1  0  0  0  0
 15 14  1  6  0  0  0
 16 22  1  0  0  0  0
 16 51  1  0  0  0  0
 17  9  2  0  0  0  0
 17  7  1  0  0  0  0
 18 19  1  0  0  0  0
 18 26  2  0  0  0  0
 19 27  1  0  0  0  0
 20 29  1  0  0  0  0
 21 34  1  6  0  0  0
 21 12  1  0  0  0  0
 23 20  1  1  0  0  0
 23 16  1  0  0  0  0
 25 31  1  1  0  0  0
 25 14  1  0  0  0  0
 26 28  1  0  0  0  0
 27  2  1  6  0  0  0
 27 28  1  0  0  0  0
 29  8  2  0  0  0  0
 31 33  1  0  0  0  0
 33 32  1  0  0  0  0
 33 30  2  0  0  0  0
 35 34  1  0  0  0  0
 35 37  1  0  0  0  0
 37 36  1  6  0  0  0
 38 37  1  0  0  0  0
 39 38  1  1  0  0  0
 39 41  1  0  0  0  0
 39 40  1  0  0  0  0
 41 40  1  1  0  0  0
 41 43  1  0  0  0  0
 42 44  2  0  0  0  0
 42 45  1  0  0  0  0
 43 42  1  1  0  0  0
 43 45  1  0  0  0  0
 46 47  1  6  0  0  0
 46 50  1  0  0  0  0
 46 44  1  0  0  0  0
 47 48  1  0  0  0  0
 50 49  1  0  0  0  0
 51 52  1  0  0  0  0
 52 53  1  0  0  0  0
 53 60  1  0  0  0  0
 55 64  1  0  0  0  0
 58 57  2  0  0  0  0
 58 67  1  0  0  0  0
 60 58  1  0  0  0  0
 61 56  1  6  0  0  0
 61 64  1  0  0  0  0
 61 54  1  0  0  0  0
 62 67  1  1  0  0  0
 62 55  1  0  0  0  0
 63 56  1  0  0  0  0
 64 54  1  1  0  0  0
 65 59  1  6  0  0  0
 65 63  1  0  0  0  0
 65 62  1  0  0  0  0
 66 65  1  0  0  0  0
 68 66  1  0  0  0  0
 68 60  1  0  0  0  0
M  END
>  <MODEL>
6

>  <REMARK>
 VINA RESULT:      -3.8      2.632      8.392
  Name = 
  14 active torsions:
  status: ('A' for Active; 'I' for Inactive)
    1  A    between atoms: C_3  and  C_31
    2  A    between atoms: C_4  and  O_64
    3  A    between atoms: C_14  and  C_58
    4  A    between atoms: C_18  and  C_31
    5  A    between atoms: C_21  and  C_48
    6  A    between atoms: C_21  and  O_64
    7  A    between atoms: N_26  and  C_47
    8  A    between atoms: O_30  and  C_31
    9  A    between atoms: N_39  and  C_50
   10  A    between atoms: C_43  and  C_48
   11  A    between atoms: C_43  and  C_51
   12  A    between atoms: N_45  and  C_62
   13  A    between atoms: C_47  and  C_49
   14  A    between atoms: C_49  and  C_50
                            x       y       z     vdW  Elec       q    Type
                         _______ _______ _______ _____ _____    ______ ____

>  <TORSDO>
F 14

$$$$
=
 OpenBabel10222420503D

 68 78  0  0  1  0  0  0  0  0999 V2000
  191.1290  177.0980  142.3330 C   0  0  0  0  0  0  0  0  0  0  0  0
  187.9150  176.3670  146.2250 F   0  0  0  0  0  0  0  0  0  0  0  0
  188.7510  174.4130  138.7700 O   0  0  0  0  0  0  0  0  0  0  0  0
  191.5320  177.1790  143.7050 N   0  0  0  0  0  2  0  0  0  0  0  0
  188.9420  175.0180  137.5120 C   0  0  2  0  0  0  0  0  0  0  0  0
  189.3410  176.9460  140.6520 C   0  0  2  0  0  3  0  0  0  0  0  0
  190.3080  177.3220  139.6170 N   0  0  0  0  0  0  0  0  0  0  0  0
  186.4520  179.1640  141.4220 C   0  0  0  0  0  3  0  0  0  0  0  0
  192.5310  177.9660  139.1740 O   0  0  0  0  0  0  0  0  0  0  0  0
  190.5930  178.2550  137.4910 F   0  0  0  0  0  0  0  0  0  0  0  0
  192.1850  176.9530  141.2890 C   0  0  0  0  0  2  0  0  0  0  0  0
  189.8810  177.2990  138.1960 C   0  0  2  0  0  0  0  0  0  0  0  0
  189.0140  173.5470  137.6920 C   0  0  0  0  0  2  0  0  0  0  0  0
  187.8300  177.0780  136.8410 O   0  0  0  0  0  0  0  0  0  0  0  0
  188.3710  177.6780  138.0070 C   0  0  1  0  0  3  0  0  0  0  0  0
  186.3150  178.5690  139.0770 N   0  0  0  0  0  0  0  0  0  0  0  0
  191.6980  177.4670  139.9780 C   0  0  0  0  0  0  0  0  0  0  0  0
  191.0280  177.2370  146.0330 N   0  0  0  0  0  0  0  0  0  0  0  0
  189.9030  177.3430  146.8130 O   0  0  0  0  0  0  0  0  0  0  0  0
  188.1300  177.7360  140.4760 N   0  0  0  0  0  0  0  0  0  0  0  0
  190.1770  175.9250  137.5350 C   0  0  1  0  0  3  0  0  0  0  0  0
  185.5550  178.7120  140.3230 C   0  0  0  0  0  2  0  0  0  0  0  0
  187.3990  177.5690  139.2140 C   0  0  2  0  0  3  0  0  0  0  0  0
  189.8710  177.0990  142.0140 N   0  0  0  0  0  0  0  0  0  0  0  0
  187.6410  175.6900  137.0600 C   0  0  1  0  0  3  0  0  0  0  0  0
  190.6310  177.2790  144.8110 C   0  0  0  0  0  0  0  0  0  0  0  0
  188.7320  177.4620  146.0140 C   0  0  1  0  0  3  0  0  0  0  0  0
  189.2560  177.4180  144.6960 O   0  0  0  0  0  0  0  0  0  0  0  0
  187.6730  178.6490  141.4890 C   0  0  0  0  0  3  0  0  0  0  0  0
  185.7050  173.5970  136.9090 O   0  0  0  0  0  0  0  0  0  0  0  0
  187.1520  175.0810  135.8330 N   0  0  0  0  0  2  0  0  0  0  0  0
  185.7670  173.4640  134.5940 N   0  0  0  0  0  1  0  0  0  0  0  0
  186.1890  174.0280  135.8300 C   0  0  0  0  0  0  0  0  0  0  0  0
  191.5150  175.2730  137.9140 C   0  0  0  0  0  2  0  0  0  0  0  0
  192.6540  175.6960  136.9930 C   0  0  0  0  0  2  0  0  0  0  0  0
  192.4830  174.2480  134.9050 C   0  0  0  0  0  1  0  0  0  0  0  0
  193.2350  174.5230  136.2030 C   0  0  1  0  0  3  0  0  0  0  0  0
  194.6350  174.6240  136.0300 O   0  0  0  0  0  0  0  0  0  0  0  0
  195.2140  173.3360  136.0620 C   0  0  1  0  0  3  0  0  0  0  0  0
  196.1120  173.1910  134.9860 O   0  0  0  0  0  0  0  0  0  0  0  0
  196.6980  173.3710  136.2540 C   0  0  1  0  0  3  0  0  0  0  0  0
  198.1230  174.8030  137.5100 C   0  0  0  0  0  0  0  0  0  0  0  0
  197.2960  174.7810  136.4030 C   0  0  1  0  0  3  0  0  0  0  0  0
  198.3350  174.8110  138.8210 C   0  0  0  0  0  3  0  0  0  0  0  0
  198.6350  174.8030  136.1030 O   0  0  0  0  0  0  0  0  0  0  0  0
  197.2010  174.8030  139.7960 C   0  0  1  0  0  3  0  0  0  0  0  0
  197.4370  175.7800  140.9440 C   0  0  0  0  0  2  0  0  0  0  0  0
  198.1850  175.1790  141.9610 O   0  0  0  0  0  1  0  0  0  0  0  0
  195.1070  174.1290  139.5090 C   0  0  0  0  0  1  0  0  0  0  0  0
  196.0130  175.1260  139.1360 O   0  0  0  0  0  0  0  0  0  0  0  0
  185.3840  178.2060  138.0000 C   0  0  0  0  0  2  0  0  0  0  0  0
  184.1960  179.1660  137.8510 C   0  0  0  0  0  2  0  0  0  0  0  0
  182.8650  178.4170  137.8770 C   0  0  0  0  0  2  0  0  0  0  0  0
  178.9450  179.9690  144.5820 C   0  0  0  0  0  2  0  0  0  0  0  0
  180.7810  180.4260  143.1160 O   0  0  0  0  0  0  0  0  0  0  0  0
  180.2690  177.9190  144.1490 C   0  0  0  0  0  2  0  0  0  0  0  0
  181.4890  180.6880  138.7540 O   0  0  0  0  0  0  0  0  0  0  0  0
  181.4450  179.6770  139.5060 C   0  0  0  0  0  0  0  0  0  0  0  0
  183.0530  178.7780  143.6190 C   0  0  0  0  0  1  0  0  0  0  0  0
  182.1800  178.4930  139.1720 N   0  0  0  0  0  0  0  0  0  0  0  0
  179.0640  178.7390  143.7060 C   0  0  2  0  0  3  0  0  0  0  0  0
  181.4280  179.7850  142.0210 C   0  0  1  0  0  3  0  0  0  0  0  0
  181.0730  177.4300  142.9460 C   0  0  0  0  0  2  0  0  0  0  0  0
  179.3970  180.1280  143.1460 C   0  0  1  0  0  3  0  0  0  0  0  0
  182.1050  178.4620  142.4690 C   0  0  2  0  0  0  0  0  0  0  0  0
  182.9930  177.8410  141.3830 C   0  0  0  0  0  2  0  0  0  0  0  0
  180.5890  179.7210  140.7260 C   0  0  0  0  0  2  0  0  0  0  0  0
  182.2420  177.3950  140.1350 C   0  0  0  0  0  2  0  0  0  0  0  0
  1  4  1  0  0  0  0
  4 26  1  0  0  0  0
  5 21  1  0  0  0  0
  5 13  1  6  0  0  0
  5  3  1  0  0  0  0
  6 24  1  1  0  0  0
  7 17  1  0  0  0  0
  7  6  1  0  0  0  0
  8 29  2  0  0  0  0
  9 17  2  0  0  0  0
 11  1  1  0  0  0  0
 12 10  1  6  0  0  0
 12  7  1  0  0  0  0
 13  3  1  0  0  0  0
 14 25  1  0  0  0  0
 15 14  1  6  0  0  0
 15 12  1  0  0  0  0
 15 23  1  0  0  0  0
 16 22  1  0  0  0  0
 17 11  1  0  0  0  0
 18 19  1  0  0  0  0
 20  6  1  0  0  0  0
 20 29  1  0  0  0  0
 21 34  1  1  0  0  0
 21 12  1  0  0  0  0
 22  8  1  0  0  0  0
 23 16  1  6  0  0  0
 23 20  1  0  0  0  0
 24  1  2  0  0  0  0
 25 31  1  6  0  0  0
 25  5  1  0  0  0  0
 26 18  2  0  0  0  0
 27  2  1  6  0  0  0
 27 19  1  0  0  0  0
 28 26  1  0  0  0  0
 28 27  1  0  0  0  0
 32 33  1  0  0  0  0
 33 31  1  0  0  0  0
 33 30  2  0  0  0  0
 35 34  1  0  0  0  0
 37 36  1  6  0  0  0
 37 35  1  0  0  0  0
 38 37  1  0  0  0  0
 39 38  1  6  0  0  0
 39 41  1  0  0  0  0
 40 39  1  0  0  0  0
 41 40  1  6  0  0  0
 41 43  1  0  0  0  0
 42 44  2  0  0  0  0
 43 45  1  6  0  0  0
 43 42  1  0  0  0  0
 45 42  1  0  0  0  0
 46 44  1  6  0  0  0
 46 47  1  0  0  0  0
 47 48  1  0  0  0  0
 50 49  1  0  0  0  0
 50 46  1  0  0  0  0
 51 16  1  0  0  0  0
 52 53  1  0  0  0  0
 52 51  1  0  0  0  0
 53 60  1  0  0  0  0
 55 64  1  0  0  0  0
 57 58  2  0  0  0  0
 58 67  1  0  0  0  0
 60 58  1  0  0  0  0
 60 68  1  0  0  0  0
 61 56  1  1  0  0  0
 61 54  1  0  0  0  0
 62 67  1  6  0  0  0
 62 65  1  0  0  0  0
 62 55  1  0  0  0  0
 63 56  1  0  0  0  0
 64 61  1  0  0  0  0
 64 54  1  1  0  0  0
 65 63  1  0  0  0  0
 65 59  1  1  0  0  0
 66 65  1  0  0  0  0
 68 66  1  0  0  0  0
M  END
>  <MODEL>
7

>  <REMARK>
 VINA RESULT:      -3.7      2.915     11.177
  Name = 
  14 active torsions:
  status: ('A' for Active; 'I' for Inactive)
    1  A    between atoms: C_3  and  C_31
    2  A    between atoms: C_4  and  O_64
    3  A    between atoms: C_14  and  C_58
    4  A    between atoms: C_18  and  C_31
    5  A    between atoms: C_21  and  C_48
    6  A    between atoms: C_21  and  O_64
    7  A    between atoms: N_26  and  C_47
    8  A    between atoms: O_30  and  C_31
    9  A    between atoms: N_39  and  C_50
   10  A    between atoms: C_43  and  C_48
   11  A    between atoms: C_43  and  C_51
   12  A    between atoms: N_45  and  C_62
   13  A    between atoms: C_47  and  C_49
   14  A    between atoms: C_49  and  C_50
                            x       y       z     vdW  Elec       q    Type
                         _______ _______ _______ _____ _____    ______ ____

>  <TORSDO>
F 14

$$$$
=
 OpenBabel10222420503D

 68 78  0  0  1  0  0  0  0  0999 V2000
  185.2520  174.0680  135.4990 C   0  0  0  0  0  0  0  0  0  0  0  0
  187.8490  170.0920  137.3580 F   0  0  0  0  0  0  0  0  0  0  0  0
  184.2660  176.5130  139.8120 O   0  0  0  0  0  0  0  0  0  0  0  0
  185.3350  172.8060  134.8270 N   0  0  0  0  0  2  0  0  0  0  0  0
  184.2670  177.9030  139.5810 C   0  0  2  0  0  0  0  0  0  0  0  0
  186.0120  175.5730  137.2880 C   0  0  2  0  0  3  0  0  0  0  0  0
  185.3690  176.6920  136.5940 N   0  0  0  0  0  0  0  0  0  0  0  0
  189.7070  175.5180  137.7400 C   0  0  0  0  0  3  0  0  0  0  0  0
  184.1690  177.3620  134.6800 O   0  0  0  0  0  0  0  0  0  0  0  0
  185.3350  179.0110  136.2900 F   0  0  0  0  0  0  0  0  0  0  0  0
  184.1880  175.0260  135.0820 C   0  0  0  0  0  2  0  0  0  0  0  0
  185.3310  178.0190  137.2560 C   0  0  2  0  0  0  0  0  0  0  0  0
  183.2500  177.2530  140.4450 C   0  0  0  0  0  2  0  0  0  0  0  0
  186.2990  179.1900  139.2020 O   0  0  0  0  0  0  0  0  0  0  0  0
  186.5960  178.2940  138.1430 C   0  0  1  0  0  3  0  0  0  0  0  0
  188.8710  177.5360  138.7870 N   0  0  0  0  0  0  0  0  0  0  0  0
  184.5850  176.4240  135.4120 C   0  0  0  0  0  0  0  0  0  0  0  0
  186.2440  170.6150  134.5950 N   0  0  0  0  0  0  0  0  0  0  0  0
  187.2710  169.8920  135.1500 O   0  0  0  0  0  0  0  0  0  0  0  0
  187.3540  175.9760  137.6880 N   0  0  0  0  0  0  0  0  0  0  0  0
  184.0370  178.2010  138.0960 C   0  0  1  0  0  3  0  0  0  0  0  0
  189.7740  176.3910  138.9440 C   0  0  0  0  0  2  0  0  0  0  0  0
  187.4640  177.0990  138.6250 C   0  0  2  0  0  3  0  0  0  0  0  0
  186.0550  174.3460  136.4800 N   0  0  0  0  0  0  0  0  0  0  0  0
  185.5290  178.5250  140.1900 C   0  0  1  0  0  3  0  0  0  0  0  0
  186.2750  171.7760  135.1470 C   0  0  0  0  0  0  0  0  0  0  0  0
  187.9860  170.6640  136.1080 C   0  0  1  0  0  3  0  0  0  0  0  0
  187.2980  171.9040  136.0740 O   0  0  0  0  0  0  0  0  0  0  0  0
  188.5230  175.3090  137.1800 C   0  0  0  0  0  3  0  0  0  0  0  0
  184.9050  177.8600  142.8950 O   0  0  0  0  0  0  0  0  0  0  0  0
  185.1770  179.4770  141.2320 N   0  0  0  0  0  2  0  0  0  0  0  0
  184.5090  180.0550  143.5310 N   0  0  0  0  0  1  0  0  0  0  0  0
  184.8630  179.0740  142.5650 C   0  0  0  0  0  0  0  0  0  0  0  0
  182.7470  177.6540  137.4660 C   0  0  0  0  0  2  0  0  0  0  0  0
  181.8350  178.7600  136.9480 C   0  0  0  0  0  2  0  0  0  0  0  0
  179.8290  178.9890  135.3950 C   0  0  0  0  0  1  0  0  0  0  0  0
  180.4450  178.2450  136.5750 C   0  0  1  0  0  3  0  0  0  0  0  0
  180.4060  176.8380  136.4330 O   0  0  0  0  0  0  0  0  0  0  0  0
  179.0860  176.3740  136.6300 C   0  0  1  0  0  3  0  0  0  0  0  0
  179.0710  174.9650  136.6270 O   0  0  0  0  0  0  0  0  0  0  0  0
  178.9310  175.5780  137.8880 C   0  0  1  0  0  3  0  0  0  0  0  0
  179.9150  175.7070  140.0490 C   0  0  0  0  0  0  0  0  0  0  0  0
  180.2140  175.4410  138.7260 C   0  0  1  0  0  3  0  0  0  0  0  0
  179.6120  176.5330  141.0450 C   0  0  0  0  0  3  0  0  0  0  0  0
  180.1830  174.3290  139.5290 O   0  0  0  0  0  0  0  0  0  0  0  0
  179.4870  178.0070  140.8270 C   0  0  1  0  0  3  0  0  0  0  0  0
  179.5550  178.7790  142.1420 C   0  0  0  0  0  2  0  0  0  0  0  0
  180.8130  178.6380  142.7350 O   0  0  0  0  0  1  0  0  0  0  0  0
  180.4860  179.8360  140.0680 C   0  0  0  0  0  1  0  0  0  0  0  0
  180.5000  178.4420  139.9700 O   0  0  0  0  0  0  0  0  0  0  0  0
  189.0270  178.4180  139.9530 C   0  0  0  0  0  2  0  0  0  0  0  0
  190.3750  178.2710  140.6710 C   0  0  0  0  0  2  0  0  0  0  0  0
  190.3740  177.0760  141.6240 C   0  0  0  0  0  2  0  0  0  0  0  0
  188.3410  178.1270  149.2060 C   0  0  0  0  0  2  0  0  0  0  0  0
  188.7460  176.6490  147.3680 O   0  0  0  0  0  0  0  0  0  0  0  0
  186.9290  178.7230  147.2580 C   0  0  0  0  0  2  0  0  0  0  0  0
  191.6150  176.3220  144.0130 O   0  0  0  0  0  0  0  0  0  0  0  0
  190.5710  177.0190  144.1180 C   0  0  0  0  0  0  0  0  0  0  0  0
  186.4420  176.2260  145.7420 C   0  0  0  0  0  1  0  0  0  0  0  0
  189.8270  177.3900  142.9490 N   0  0  0  0  0  0  0  0  0  0  0  0
  188.2460  179.0000  147.9730 C   0  0  2  0  0  3  0  0  0  0  0  0
  188.8690  176.7510  145.9530 C   0  0  1  0  0  3  0  0  0  0  0  0
  187.1340  178.6160  145.7490 C   0  0  0  0  0  2  0  0  0  0  0  0
  189.2200  177.8160  148.0140 C   0  0  1  0  0  3  0  0  0  0  0  0
  187.5310  177.2000  145.3070 C   0  0  2  0  0  0  0  0  0  0  0  0
  187.5440  177.1210  143.7750 C   0  0  0  0  0  2  0  0  0  0  0  0
  190.1410  177.4810  145.4680 C   0  0  0  0  0  2  0  0  0  0  0  0
  188.5370  178.0600  143.1050 C   0  0  0  0  0  2  0  0  0  0  0  0
  1 24  2  0  0  0  0
  3 13  1  0  0  0  0
  4 26  1  0  0  0  0
  4  1  1  0  0  0  0
  5  3  1  0  0  0  0
  5 25  1  0  0  0  0
  5 13  1  1  0  0  0
  6 24  1  6  0  0  0
  6 20  1  0  0  0  0
  7 12  1  0  0  0  0
  7  6  1  0  0  0  0
  8 22  1  0  0  0  0
  9 17  2  0  0  0  0
 11 17  1  0  0  0  0
 11  1  1  0  0  0  0
 12 10  1  6  0  0  0
 12 21  1  0  0  0  0
 12 15  1  0  0  0  0
 14 25  1  0  0  0  0
 15 23  1  0  0  0  0
 15 14  1  1  0  0  0
 16 22  1  0  0  0  0
 16 51  1  0  0  0  0
 17  7  1  0  0  0  0
 18 26  2  0  0  0  0
 18 19  1  0  0  0  0
 19 27  1  0  0  0  0
 21 34  1  6  0  0  0
 21  5  1  0  0  0  0
 23 20  1  6  0  0  0
 23 16  1  0  0  0  0
 25 31  1  1  0  0  0
 26 28  1  0  0  0  0
 27  2  1  1  0  0  0
 28 27  1  0  0  0  0
 29 20  1  0  0  0  0
 29  8  2  0  0  0  0
 31 33  1  0  0  0  0
 33 30  2  0  0  0  0
 33 32  1  0  0  0  0
 35 34  1  0  0  0  0
 37 36  1  6  0  0  0
 37 35  1  0  0  0  0
 38 37  1  0  0  0  0
 39 38  1  1  0  0  0
 39 41  1  0  0  0  0
 40 39  1  0  0  0  0
 41 40  1  6  0  0  0
 41 43  1  0  0  0  0
 42 44  2  0  0  0  0
 43 45  1  1  0  0  0
 43 42  1  0  0  0  0
 45 42  1  0  0  0  0
 46 44  1  1  0  0  0
 46 47  1  0  0  0  0
 47 48  1  0  0  0  0
 50 49  1  0  0  0  0
 50 46  1  0  0  0  0
 51 52  1  0  0  0  0
 52 53  1  0  0  0  0
 53 60  1  0  0  0  0
 55 64  1  0  0  0  0
 57 58  2  0  0  0  0
 58 67  1  0  0  0  0
 60 68  1  0  0  0  0
 60 58  1  0  0  0  0
 61 56  1  6  0  0  0
 61 64  1  0  0  0  0
 61 54  1  0  0  0  0
 62 67  1  1  0  0  0
 62 55  1  0  0  0  0
 63 56  1  0  0  0  0
 64 54  1  1  0  0  0
 65 59  1  1  0  0  0
 65 63  1  0  0  0  0
 65 62  1  0  0  0  0
 66 65  1  0  0  0  0
 68 66  1  0  0  0  0
M  END
>  <MODEL>
8

>  <REMARK>
 VINA RESULT:      -3.1      3.322      8.594
  Name = 
  14 active torsions:
  status: ('A' for Active; 'I' for Inactive)
    1  A    between atoms: C_3  and  C_31
    2  A    between atoms: C_4  and  O_64
    3  A    between atoms: C_14  and  C_58
    4  A    between atoms: C_18  and  C_31
    5  A    between atoms: C_21  and  C_48
    6  A    between atoms: C_21  and  O_64
    7  A    between atoms: N_26  and  C_47
    8  A    between atoms: O_30  and  C_31
    9  A    between atoms: N_39  and  C_50
   10  A    between atoms: C_43  and  C_48
   11  A    between atoms: C_43  and  C_51
   12  A    between atoms: N_45  and  C_62
   13  A    between atoms: C_47  and  C_49
   14  A    between atoms: C_49  and  C_50
                            x       y       z     vdW  Elec       q    Type
                         _______ _______ _______ _____ _____    ______ ____

>  <TORSDO>
F 14

$$$$
=
 OpenBabel10222420503D

 68 78  0  0  1  0  0  0  0  0999 V2000
  191.1530  177.0740  142.3780 C   0  0  0  0  0  0  0  0  0  0  0  0
  187.9190  176.3680  146.2580 F   0  0  0  0  0  0  0  0  0  0  0  0
  188.7370  174.4590  138.7900 O   0  0  0  0  0  0  0  0  0  0  0  0
  191.5540  177.1380  143.7520 N   0  0  0  0  0  2  0  0  0  0  0  0
  188.9410  175.0720  137.5370 C   0  0  2  0  0  0  0  0  0  0  0  0
  189.3660  176.9660  140.6930 C   0  0  2  0  0  3  0  0  0  0  0  0
  190.3420  177.3340  139.6630 N   0  0  0  0  0  0  0  0  0  0  0  0
  186.5150  179.2280  141.4740 C   0  0  0  0  0  3  0  0  0  0  0  0
  192.5770  177.9430  139.2300 O   0  0  0  0  0  0  0  0  0  0  0  0
  190.6480  178.2790  137.5450 F   0  0  0  0  0  0  0  0  0  0  0  0
  192.2080  176.9200  141.3360 C   0  0  0  0  0  2  0  0  0  0  0  0
  189.9180  177.3300  138.2410 C   0  0  2  0  0  0  0  0  0  0  0  0
  188.9870  173.5970  137.7050 C   0  0  0  0  0  2  0  0  0  0  0  0
  187.8670  177.1550  136.8800 O   0  0  0  0  0  0  0  0  0  0  0  0
  188.4150  177.7360  138.0520 C   0  0  1  0  0  3  0  0  0  0  0  0
  186.3730  178.6550  139.1250 N   0  0  0  0  0  0  0  0  0  0  0  0
  191.7340  177.4520  140.0280 C   0  0  0  0  0  0  0  0  0  0  0  0
  191.0470  177.1850  146.0790 N   0  0  0  0  0  0  0  0  0  0  0  0
  189.9220  177.3040  146.8580 O   0  0  0  0  0  0  0  0  0  0  0  0
  188.1700  177.7790  140.5210 N   0  0  0  0  0  0  0  0  0  0  0  0
  190.1910  175.9570  137.5690 C   0  0  1  0  0  3  0  0  0  0  0  0
  185.6130  178.8010  140.3710 C   0  0  0  0  0  2  0  0  0  0  0  0
  187.4390  177.6340  139.2560 C   0  0  2  0  0  3  0  0  0  0  0  0
  189.8960  177.1000  142.0570 N   0  0  0  0  0  0  0  0  0  0  0  0
  187.6530  175.7690  137.0880 C   0  0  1  0  0  3  0  0  0  0  0  0
  190.6530  177.2440  144.8570 C   0  0  0  0  0  0  0  0  0  0  0  0
  188.7550  177.4500  146.0570 C   0  0  1  0  0  3  0  0  0  0  0  0
  189.2810  177.4080  144.7410 O   0  0  0  0  0  0  0  0  0  0  0  0
  187.7270  178.6920  141.5400 C   0  0  0  0  0  3  0  0  0  0  0  0
  186.0180  173.4350  136.9120 O   0  0  0  0  0  0  0  0  0  0  0  0
  187.1560  175.1790  135.8540 N   0  0  0  0  0  2  0  0  0  0  0  0
  185.9140  173.4640  134.5950 N   0  0  0  0  0  1  0  0  0  0  0  0
  186.3510  174.0000  135.8380 C   0  0  0  0  0  0  0  0  0  0  0  0
  191.5170  175.2780  137.9460 C   0  0  0  0  0  2  0  0  0  0  0  0
  192.5500  175.3500  136.8270 C   0  0  0  0  0  2  0  0  0  0  0  0
  192.2480  173.4110  135.2020 C   0  0  0  0  0  1  0  0  0  0  0  0
  193.0320  173.9680  136.3860 C   0  0  1  0  0  3  0  0  0  0  0  0
  194.4340  173.9130  136.2050 O   0  0  0  0  0  0  0  0  0  0  0  0
  194.7620  174.3050  134.8880 C   0  0  1  0  0  3  0  0  0  0  0  0
  194.9580  175.7000  134.8420 O   0  0  0  0  0  0  0  0  0  0  0  0
  196.1260  174.9130  134.7860 C   0  0  1  0  0  3  0  0  0  0  0  0
  197.9000  174.0080  136.0860 C   0  0  0  0  0  0  0  0  0  0  0  0
  196.9080  174.9700  136.1100 C   0  0  1  0  0  3  0  0  0  0  0  0
  198.3220  172.7500  136.1440 C   0  0  0  0  0  3  0  0  0  0  0  0
  198.1730  175.4730  135.9360 O   0  0  0  0  0  0  0  0  0  0  0  0
  197.3680  171.6150  136.3440 C   0  0  1  0  0  3  0  0  0  0  0  0
  196.7320  171.1750  135.0280 C   0  0  0  0  0  2  0  0  0  0  0  0
  195.3620  171.4520  135.0220 O   0  0  0  0  0  1  0  0  0  0  0  0
  198.8680  170.0350  135.9240 C   0  0  0  0  0  1  0  0  0  0  0  0
  198.0370  170.5380  136.9290 O   0  0  0  0  0  0  0  0  0  0  0  0
  185.4380  178.3160  138.0430 C   0  0  0  0  0  2  0  0  0  0  0  0
  184.2230  179.2500  137.9520 C   0  0  0  0  0  2  0  0  0  0  0  0
  182.9120  178.4680  138.0030 C   0  0  0  0  0  2  0  0  0  0  0  0
  178.9550  179.9300  144.7070 C   0  0  0  0  0  2  0  0  0  0  0  0
  180.7030  180.5100  143.1780 O   0  0  0  0  0  0  0  0  0  0  0  0
  180.4940  178.0200  144.3490 C   0  0  0  0  0  2  0  0  0  0  0  0
  181.3050  180.6150  138.7940 O   0  0  0  0  0  0  0  0  0  0  0  0
  181.3860  179.6480  139.5970 C   0  0  0  0  0  0  0  0  0  0  0  0
  183.1540  179.1540  143.7130 C   0  0  0  0  0  1  0  0  0  0  0  0
  182.2440  178.5370  139.3080 N   0  0  0  0  0  0  0  0  0  0  0  0
  179.1960  178.6760  143.8920 C   0  0  2  0  0  3  0  0  0  0  0  0
  181.4000  179.8870  142.1030 C   0  0  1  0  0  3  0  0  0  0  0  0
  181.3270  177.5600  143.1550 C   0  0  0  0  0  2  0  0  0  0  0  0
  179.3620  180.0620  143.2550 C   0  0  1  0  0  3  0  0  0  0  0  0
  182.2280  178.6740  142.6030 C   0  0  2  0  0  0  0  0  0  0  0  0
  183.1620  178.0980  141.5300 C   0  0  0  0  0  2  0  0  0  0  0  0
  180.5520  179.6610  140.8320 C   0  0  0  0  0  2  0  0  0  0  0  0
  182.4460  177.5050  140.3240 C   0  0  0  0  0  2  0  0  0  0  0  0
  1  4  1  0  0  0  0
  4 26  1  0  0  0  0
  5 21  1  0  0  0  0
  5 13  1  6  0  0  0
  5  3  1  0  0  0  0
  6 24  1  1  0  0  0
  7 17  1  0  0  0  0
  7  6  1  0  0  0  0
  8 29  2  0  0  0  0
  9 17  2  0  0  0  0
 11  1  1  0  0  0  0
 12 10  1  6  0  0  0
 12  7  1  0  0  0  0
 13  3  1  0  0  0  0
 14 25  1  0  0  0  0
 15 14  1  6  0  0  0
 15 12  1  0  0  0  0
 15 23  1  0  0  0  0
 16 22  1  0  0  0  0
 17 11  1  0  0  0  0
 18 19  1  0  0  0  0
 20  6  1  0  0  0  0
 20 29  1  0  0  0  0
 21 34  1  1  0  0  0
 21 12  1  0  0  0  0
 22  8  1  0  0  0  0
 23 16  1  6  0  0  0
 23 20  1  0  0  0  0
 24  1  2  0  0  0  0
 25 31  1  6  0  0  0
 25  5  1  0  0  0  0
 26 18  2  0  0  0  0
 27  2  1  6  0  0  0
 27 19  1  0  0  0  0
 28 26  1  0  0  0  0
 28 27  1  0  0  0  0
 32 33  1  0  0  0  0
 33 31  1  0  0  0  0
 33 30  2  0  0  0  0
 35 34  1  0  0  0  0
 37 36  1  6  0  0  0
 37 35  1  0  0  0  0
 38 37  1  0  0  0  0
 39 38  1  1  0  0  0
 40 39  1  0  0  0  0
 41 40  1  1  0  0  0
 41 39  1  0  0  0  0
 41 43  1  0  0  0  0
 42 43  1  0  0  0  0
 42 44  2  0  0  0  0
 43 45  1  6  0  0  0
 44 46  1  0  0  0  0
 45 42  1  0  0  0  0
 46 47  1  6  0  0  0
 46 50  1  0  0  0  0
 48 47  1  0  0  0  0
 49 50  1  0  0  0  0
 51 16  1  0  0  0  0
 52 53  1  0  0  0  0
 52 51  1  0  0  0  0
 53 60  1  0  0  0  0
 55 64  1  0  0  0  0
 57 58  2  0  0  0  0
 58 67  1  0  0  0  0
 60 58  1  0  0  0  0
 60 68  1  0  0  0  0
 61 56  1  1  0  0  0
 61 54  1  0  0  0  0
 62 67  1  6  0  0  0
 62 65  1  0  0  0  0
 62 55  1  0  0  0  0
 63 56  1  0  0  0  0
 64 61  1  0  0  0  0
 64 54  1  1  0  0  0
 65 63  1  0  0  0  0
 65 59  1  1  0  0  0
 66 65  1  0  0  0  0
 68 66  1  0  0  0  0
M  END
>  <MODEL>
9

>  <REMARK>
 VINA RESULT:      -3.0      2.958     11.548
  Name = 
  14 active torsions:
  status: ('A' for Active; 'I' for Inactive)
    1  A    between atoms: C_3  and  C_31
    2  A    between atoms: C_4  and  O_64
    3  A    between atoms: C_14  and  C_58
    4  A    between atoms: C_18  and  C_31
    5  A    between atoms: C_21  and  C_48
    6  A    between atoms: C_21  and  O_64
    7  A    between atoms: N_26  and  C_47
    8  A    between atoms: O_30  and  C_31
    9  A    between atoms: N_39  and  C_50
   10  A    between atoms: C_43  and  C_48
   11  A    between atoms: C_43  and  C_51
   12  A    between atoms: N_45  and  C_62
   13  A    between atoms: C_47  and  C_49
   14  A    between atoms: C_49  and  C_50
                            x       y       z     vdW  Elec       q    Type
                         _______ _______ _______ _____ _____    ______ ____

>  <TORSDO>
F 14

$$$$
