=
 OpenBabel10222415383D

 40 49  0  0  1  0  0  0  0  0999 V2000
  188.5940  177.8890  148.8260 O   0  0  0  0  0  1  0  0  0  0  0  0
  186.0180  178.0980  143.3970 C   0  0  0  0  0  0  0  0  0  0  0  0
  188.4050  176.6340  144.8260 N   0  0  0  0  0  0  0  0  0  0  0  0
  186.2540  178.2560  147.0770 N   0  0  0  0  0  0  0  0  0  0  0  0
  187.3030  177.1210  145.4200 C   0  0  0  0  0  0  0  0  0  0  0  0
  188.4550  176.4110  143.5310 N   0  0  0  0  0  0  0  0  0  0  0  0
  184.7180  178.3300  142.8330 C   0  0  0  0  0  3  0  0  0  0  0  0
  186.9880  178.3680  142.4520 C   0  0  0  0  0  0  0  0  0  0  0  0
  187.3310  177.5040  146.7930 C   0  0  0  0  0  0  0  0  0  0  0  0
  188.5380  177.4570  147.5040 C   0  0  0  0  0  0  0  0  0  0  0  0
  185.5310  178.9990  140.4980 C   0  0  0  0  0  3  0  0  0  0  0  0
  184.4690  178.7460  141.4450 C   0  0  0  0  0  0  0  0  0  0  0  0
  188.7140  177.3550  140.9280 C   0  0  1  0  0  3  0  0  0  0  0  0
  186.2350  177.7780  144.8390 C   0  0  0  0  0  0  0  0  0  0  0  0
  189.8820  176.9030  141.7030 N   0  0  0  0  0  2  0  0  0  0  0  0
  190.8380  176.5960  144.2800 S   0  0  0  0  0  0  0  0  0  0  0  0
  189.6940  176.4290  143.0320 C   0  0  0  0  0  0  0  0  0  0  0  0
  188.0640  178.6220  141.5570 C   0  0  1  0  0  3  0  0  0  0  0  0
  186.7440  178.7960  141.0800 C   0  0  0  0  0  0  0  0  0  0  0  0
  189.7120  177.0450  146.8140 C   0  0  0  0  0  0  0  0  0  0  0  0
  185.5840  178.4160  145.9000 C   0  0  0  0  0  3  0  0  0  0  0  0
  189.6070  176.6880  145.4470 C   0  0  0  0  0  0  0  0  0  0  0  0
  181.4200  179.4070  139.7900 C   0  0  0  0  0  0  0  0  0  0  0  0
  182.7660  179.3900  139.8290 N   0  0  0  0  0  0  0  0  0  0  0  0
  182.0590  178.6300  141.7650 N   0  0  0  0  0  0  0  0  0  0  0  0
  180.9700  178.9190  141.0270 C   0  0  0  0  0  0  0  0  0  0  0  0
  183.1110  178.9170  141.0160 N   0  0  0  0  0  0  0  0  0  0  0  0
  180.7070  179.9900  138.5930 C   0  0  0  0  0  3  0  0  0  0  0  0
  180.0640  181.3240  138.8970 C   0  0  0  0  0  2  0  0  0  0  0  0
  181.3360  181.2620  138.0680 C   0  0  0  0  0  2  0  0  0  0  0  0
  178.9310  179.7940  142.3120 C   0  0  0  0  0  1  0  0  0  0  0  0
  179.6040  178.7060  141.5490 C   0  0  0  0  0  0  0  0  0  0  0  0
  179.0100  177.6060  141.4220 O   0  0  0  0  0  0  0  0  0  0  0  0
  192.0320  177.1500  147.9790 N   0  0  0  0  0  0  0  0  0  0  0  0
  191.0000  177.1030  147.4610 C   0  0  0  0  0  0  0  0  0  0  0  0
  189.1640  177.6340  139.5030 C   0  0  0  0  0  2  0  0  0  0  0  0
  188.8350  177.0600  137.1170 C   0  0  1  0  0  3  0  0  0  0  0  0
  187.7070  177.3450  136.1450 C   0  0  0  0  0  2  0  0  0  0  0  0
  187.7090  177.9680  137.5260 C   0  0  1  0  0  3  0  0  0  0  0  0
  188.2480  176.9460  138.5100 C   0  0  2  0  0  3  0  0  0  0  0  0
  2 14  1  0  0  0  0
  3  5  1  0  0  0  0
  3 22  1  0  0  0  0
  5  9  1  0  0  0  0
  6  3  1  0  0  0  0
  7  2  1  0  0  0  0
  8  2  2  0  0  0  0
  9  4  1  0  0  0  0
  9 10  2  0  0  0  0
 10  1  1  0  0  0  0
 11 19  2  0  0  0  0
 11 12  1  0  0  0  0
 12  7  2  0  0  0  0
 13 36  1  6  0  0  0
 13 18  1  0  0  0  0
 13 15  1  0  0  0  0
 14  5  2  0  0  0  0
 14 21  1  0  0  0  0
 15 17  1  0  0  0  0
 16 22  1  0  0  0  0
 17  6  2  0  0  0  0
 17 16  1  0  0  0  0
 18 19  1  6  0  0  0
 18  8  1  0  0  0  0
 19  8  1  0  0  0  0
 20 35  1  0  0  0  0
 20 10  1  0  0  0  0
 21  4  2  0  0  0  0
 22 20  2  0  0  0  0
 23 24  2  0  0  0  0
 23 26  1  0  0  0  0
 24 27  1  0  0  0  0
 26 32  1  0  0  0  0
 26 25  2  0  0  0  0
 27 12  1  0  0  0  0
 27 25  1  0  0  0  0
 28 29  1  0  0  0  0
 28 23  1  0  0  0  0
 30 28  1  0  0  0  0
 30 29  1  0  0  0  0
 32 31  1  0  0  0  0
 33 32  2  0  0  0  0
 35 34  3  0  0  0  0
 37 38  1  6  0  0  0
 37 39  1  0  0  0  0
 37 40  1  0  0  0  0
 39 38  1  6  0  0  0
 39 40  1  0  0  0  0
 40 36  1  1  0  0  0
M  END
>  <MODEL>
1

>  <REMARK>
 VINA RESULT:     -10.3      0.000      0.000
  Name = 
  6 active torsions:
  status: ('A' for Active; 'I' for Inactive)
    1  A    between atoms: C_5  and  C_15
    2  A    between atoms: C_17  and  C_22
    3  A    between atoms: C_17  and  C_27
    4  A    between atoms: C_19  and  C_28
    5  A    between atoms: C_24  and  N_38
    6  A    between atoms: C_26  and  C_37
                            x       y       z     vdW  Elec       q    Type
                         _______ _______ _______ _____ _____    ______ ____

>  <TORSDO>
F 6

$$$$
=
 OpenBabel10222415383D

 40 49  0  0  1  0  0  0  0  0999 V2000
  188.5420  177.8750  148.7450 O   0  0  0  0  0  1  0  0  0  0  0  0
  185.9640  178.1030  143.3180 C   0  0  0  0  0  0  0  0  0  0  0  0
  188.3570  176.6400  144.7390 N   0  0  0  0  0  0  0  0  0  0  0  0
  186.2000  178.2430  146.9990 N   0  0  0  0  0  0  0  0  0  0  0  0
  187.2530  177.1200  145.3360 C   0  0  0  0  0  0  0  0  0  0  0  0
  188.4070  176.4240  143.4430 N   0  0  0  0  0  0  0  0  0  0  0  0
  184.6630  178.3340  142.7560 C   0  0  0  0  0  3  0  0  0  0  0  0
  186.9330  178.3820  142.3750 C   0  0  0  0  0  0  0  0  0  0  0  0
  187.2800  177.4960  146.7110 C   0  0  0  0  0  0  0  0  0  0  0  0
  188.4880  177.4490  147.4220 C   0  0  0  0  0  0  0  0  0  0  0  0
  185.4730  179.0180  140.4250 C   0  0  0  0  0  3  0  0  0  0  0  0
  184.4120  178.7570  141.3710 C   0  0  0  0  0  0  0  0  0  0  0  0
  188.6610  177.3830  140.8450 C   0  0  1  0  0  3  0  0  0  0  0  0
  186.1830  177.7760  144.7590 C   0  0  0  0  0  0  0  0  0  0  0  0
  189.8310  176.9310  141.6170 N   0  0  0  0  0  2  0  0  0  0  0  0
  190.7890  176.6130  144.1930 S   0  0  0  0  0  0  0  0  0  0  0  0
  189.6450  176.4490  142.9440 C   0  0  0  0  0  0  0  0  0  0  0  0
  188.0070  178.6440  141.4810 C   0  0  1  0  0  3  0  0  0  0  0  0
  186.6870  178.8170  141.0060 C   0  0  0  0  0  0  0  0  0  0  0  0
  189.6630  177.0450  146.7290 C   0  0  0  0  0  0  0  0  0  0  0  0
  185.5290  178.4070  145.8240 C   0  0  0  0  0  3  0  0  0  0  0  0
  189.5580  176.6950  145.3600 C   0  0  0  0  0  0  0  0  0  0  0  0
  180.9180  179.1200  141.0090 C   0  0  0  0  0  0  0  0  0  0  0  0
  182.0180  178.9450  141.7670 N   0  0  0  0  0  0  0  0  0  0  0  0
  182.6900  179.0690  139.6800 N   0  0  0  0  0  0  0  0  0  0  0  0
  181.3500  179.2010  139.6750 C   0  0  0  0  0  0  0  0  0  0  0  0
  183.0530  178.9250  140.9430 N   0  0  0  0  0  0  0  0  0  0  0  0
  179.5490  179.0890  141.6460 C   0  0  0  0  0  3  0  0  0  0  0  0
  179.5890  178.6200  143.0820 C   0  0  0  0  0  2  0  0  0  0  0  0
  179.3750  180.0900  142.7660 C   0  0  0  0  0  2  0  0  0  0  0  0
  180.9040  180.5640  137.5500 C   0  0  0  0  0  1  0  0  0  0  0  0
  180.5960  179.3950  138.4200 C   0  0  0  0  0  0  0  0  0  0  0  0
  179.6510  178.6350  138.0900 O   0  0  0  0  0  0  0  0  0  0  0  0
  191.9830  177.1510  147.8940 N   0  0  0  0  0  0  0  0  0  0  0  0
  190.9500  177.1040  147.3760 C   0  0  0  0  0  0  0  0  0  0  0  0
  189.1100  177.6710  139.4210 C   0  0  0  0  0  2  0  0  0  0  0  0
  188.7600  177.1520  137.0260 C   0  0  1  0  0  3  0  0  0  0  0  0
  187.6000  177.4140  136.0840 C   0  0  0  0  0  2  0  0  0  0  0  0
  187.6020  177.9950  137.4830 C   0  0  1  0  0  3  0  0  0  0  0  0
  188.2060  176.9710  138.4250 C   0  0  2  0  0  3  0  0  0  0  0  0
  2 14  1  0  0  0  0
  3  5  1  0  0  0  0
  3 22  1  0  0  0  0
  5  9  1  0  0  0  0
  6  3  1  0  0  0  0
  7  2  1  0  0  0  0
  8  2  2  0  0  0  0
  9  4  1  0  0  0  0
  9 10  2  0  0  0  0
 10  1  1  0  0  0  0
 11 19  2  0  0  0  0
 11 12  1  0  0  0  0
 12  7  2  0  0  0  0
 13 36  1  6  0  0  0
 13 18  1  0  0  0  0
 13 15  1  0  0  0  0
 14  5  2  0  0  0  0
 14 21  1  0  0  0  0
 15 17  1  0  0  0  0
 16 22  1  0  0  0  0
 17  6  2  0  0  0  0
 17 16  1  0  0  0  0
 18 19  1  6  0  0  0
 18  8  1  0  0  0  0
 19  8  1  0  0  0  0
 20 35  1  0  0  0  0
 20 10  1  0  0  0  0
 21  4  2  0  0  0  0
 22 20  2  0  0  0  0
 23 28  1  0  0  0  0
 23 24  2  0  0  0  0
 25 27  1  0  0  0  0
 26 25  2  0  0  0  0
 26 23  1  0  0  0  0
 27 12  1  0  0  0  0
 27 24  1  0  0  0  0
 28 30  1  0  0  0  0
 28 29  1  0  0  0  0
 30 29  1  0  0  0  0
 31 32  1  0  0  0  0
 32 26  1  0  0  0  0
 33 32  2  0  0  0  0
 35 34  3  0  0  0  0
 37 38  1  6  0  0  0
 37 39  1  0  0  0  0
 37 40  1  0  0  0  0
 39 38  1  6  0  0  0
 39 40  1  0  0  0  0
 40 36  1  1  0  0  0
M  END
>  <MODEL>
2

>  <REMARK>
 VINA RESULT:     -10.1      0.677      1.792
  Name = 
  6 active torsions:
  status: ('A' for Active; 'I' for Inactive)
    1  A    between atoms: C_5  and  C_15
    2  A    between atoms: C_17  and  C_22
    3  A    between atoms: C_17  and  C_27
    4  A    between atoms: C_19  and  C_28
    5  A    between atoms: C_24  and  N_38
    6  A    between atoms: C_26  and  C_37
                            x       y       z     vdW  Elec       q    Type
                         _______ _______ _______ _____ _____    ______ ____

>  <TORSDO>
F 6

$$$$
=
 OpenBabel10222415383D

 40 49  0  0  1  0  0  0  0  0999 V2000
  185.9220  179.1280  148.0910 O   0  0  0  0  0  1  0  0  0  0  0  0
  185.4270  178.3680  142.1480 C   0  0  0  0  0  0  0  0  0  0  0  0
  187.0730  177.1880  144.5520 N   0  0  0  0  0  0  0  0  0  0  0  0
  184.3680  179.1720  145.5910 N   0  0  0  0  0  0  0  0  0  0  0  0
  185.8630  177.7670  144.6280 C   0  0  0  0  0  0  0  0  0  0  0  0
  187.5590  176.7400  143.4160 N   0  0  0  0  0  0  0  0  0  0  0  0
  184.4230  178.4930  141.1290 C   0  0  0  0  0  3  0  0  0  0  0  0
  186.6810  178.4720  141.5780 C   0  0  0  0  0  0  0  0  0  0  0  0
  185.4310  178.3860  145.8370 C   0  0  0  0  0  0  0  0  0  0  0  0
  186.3080  178.4690  146.9280 C   0  0  0  0  0  0  0  0  0  0  0  0
  186.0400  178.7440  139.1590 C   0  0  0  0  0  3  0  0  0  0  0  0
  184.7000  178.6570  139.6950 C   0  0  0  0  0  0  0  0  0  0  0  0
  188.7680  177.2130  140.9570 C   0  0  1  0  0  3  0  0  0  0  0  0
  185.1070  178.3080  143.6050 C   0  0  0  0  0  0  0  0  0  0  0  0
  189.5620  176.9090  142.1590 N   0  0  0  0  0  2  0  0  0  0  0  0
  189.5360  177.0640  144.9210 S   0  0  0  0  0  0  0  0  0  0  0  0
  188.8930  176.6750  143.3940 C   0  0  0  0  0  0  0  0  0  0  0  0
  188.0150  178.5690  141.0940 C   0  0  1  0  0  3  0  0  0  0  0  0
  186.9580  178.6520  140.1580 C   0  0  0  0  0  0  0  0  0  0  0  0
  187.6220  177.9470  146.7780 C   0  0  0  0  0  0  0  0  0  0  0  0
  184.1630  179.1200  144.2440 C   0  0  0  0  0  3  0  0  0  0  0  0
  187.9820  177.3550  145.5420 C   0  0  0  0  0  0  0  0  0  0  0  0
  181.8110  179.4610  137.8300 C   0  0  0  0  0  0  0  0  0  0  0  0
  182.6890  179.7130  138.8200 N   0  0  0  0  0  0  0  0  0  0  0  0
  183.3460  177.8630  137.8350 N   0  0  0  0  0  0  0  0  0  0  0  0
  182.2340  178.2790  137.2010 C   0  0  0  0  0  0  0  0  0  0  0  0
  183.5910  178.7450  138.7900 N   0  0  0  0  0  0  0  0  0  0  0  0
  180.5930  180.3380  137.6590 C   0  0  0  0  0  3  0  0  0  0  0  0
  180.8660  181.7820  138.0110 C   0  0  0  0  0  2  0  0  0  0  0  0
  180.7300  181.3640  136.5570 C   0  0  0  0  0  2  0  0  0  0  0  0
  182.0160  177.9430  134.6680 C   0  0  0  0  0  1  0  0  0  0  0  0
  181.6700  177.5320  136.0570 C   0  0  0  0  0  0  0  0  0  0  0  0
  180.8510  176.5930  136.2180 O   0  0  0  0  0  0  0  0  0  0  0  0
  189.3900  178.2640  148.6560 N   0  0  0  0  0  0  0  0  0  0  0  0
  188.6030  178.1230  147.8200 C   0  0  0  0  0  0  0  0  0  0  0  0
  189.7040  177.2390  139.7590 C   0  0  0  0  0  2  0  0  0  0  0  0
  190.0480  176.3840  137.4600 C   0  0  1  0  0  3  0  0  0  0  0  0
  189.4770  176.8030  136.1200 C   0  0  0  0  0  2  0  0  0  0  0  0
  189.2040  177.6240  137.3630 C   0  0  1  0  0  3  0  0  0  0  0  0
  189.0150  176.6750  138.5310 C   0  0  2  0  0  3  0  0  0  0  0  0
  2 14  1  0  0  0  0
  3  5  1  0  0  0  0
  3 22  1  0  0  0  0
  4  9  1  0  0  0  0
  5  9  1  0  0  0  0
  6  3  1  0  0  0  0
  7  2  2  0  0  0  0
  8  2  1  0  0  0  0
  9 10  2  0  0  0  0
 10  1  1  0  0  0  0
 11 12  2  0  0  0  0
 11 19  1  0  0  0  0
 12  7  1  0  0  0  0
 13 36  1  6  0  0  0
 13 18  1  0  0  0  0
 13 15  1  0  0  0  0
 14 21  1  0  0  0  0
 14  5  2  0  0  0  0
 15 17  1  0  0  0  0
 16 22  1  0  0  0  0
 17  6  2  0  0  0  0
 17 16  1  0  0  0  0
 18 19  1  6  0  0  0
 18  8  1  0  0  0  0
 19  8  2  0  0  0  0
 20 10  1  0  0  0  0
 20 35  1  0  0  0  0
 21  4  2  0  0  0  0
 22 20  2  0  0  0  0
 23 24  2  0  0  0  0
 25 27  1  0  0  0  0
 26 23  1  0  0  0  0
 26 25  2  0  0  0  0
 27 24  1  0  0  0  0
 27 12  1  0  0  0  0
 28 23  1  0  0  0  0
 28 29  1  0  0  0  0
 30 28  1  0  0  0  0
 30 29  1  0  0  0  0
 31 32  1  0  0  0  0
 32 33  2  0  0  0  0
 32 26  1  0  0  0  0
 35 34  3  0  0  0  0
 37 38  1  6  0  0  0
 37 40  1  0  0  0  0
 39 38  1  6  0  0  0
 39 37  1  0  0  0  0
 39 40  1  0  0  0  0
 40 36  1  1  0  0  0
M  END
>  <MODEL>
3

>  <REMARK>
 VINA RESULT:      -9.0      2.051      2.642
  Name = 
  6 active torsions:
  status: ('A' for Active; 'I' for Inactive)
    1  A    between atoms: C_5  and  C_15
    2  A    between atoms: C_17  and  C_22
    3  A    between atoms: C_17  and  C_27
    4  A    between atoms: C_19  and  C_28
    5  A    between atoms: C_24  and  N_38
    6  A    between atoms: C_26  and  C_37
                            x       y       z     vdW  Elec       q    Type
                         _______ _______ _______ _____ _____    ______ ____

>  <TORSDO>
F 6

$$$$
=
 OpenBabel10222415383D

 40 49  0  0  1  0  0  0  0  0999 V2000
  188.3740  178.1310  148.2910 O   0  0  0  0  0  1  0  0  0  0  0  0
  186.8180  177.9990  142.4850 C   0  0  0  0  0  0  0  0  0  0  0  0
  188.8090  176.5400  144.4330 N   0  0  0  0  0  0  0  0  0  0  0  0
  186.4110  178.4680  146.1230 N   0  0  0  0  0  0  0  0  0  0  0  0
  187.6550  177.1350  144.7780 C   0  0  0  0  0  0  0  0  0  0  0  0
  189.0700  176.2000  143.1900 N   0  0  0  0  0  0  0  0  0  0  0  0
  185.6570  178.2500  141.6780 C   0  0  0  0  0  3  0  0  0  0  0  0
  187.9560  178.1320  141.7140 C   0  0  0  0  0  0  0  0  0  0  0  0
  187.4670  177.6360  146.0990 C   0  0  0  0  0  0  0  0  0  0  0  0
  188.5230  177.5870  147.0190 C   0  0  0  0  0  0  0  0  0  0  0  0
  186.9140  178.6650  139.4860 C   0  0  0  0  0  3  0  0  0  0  0  0
  185.6870  178.5550  140.2410 C   0  0  0  0  0  0  0  0  0  0  0  0
  189.8490  176.8960  140.6120 C   0  0  1  0  0  3  0  0  0  0  0  0
  186.7550  177.7960  143.9630 C   0  0  0  0  0  0  0  0  0  0  0  0
  190.8280  176.4510  141.6190 N   0  0  0  0  0  2  0  0  0  0  0  0
  191.2910  176.3210  144.3430 S   0  0  0  0  0  0  0  0  0  0  0  0
  190.3760  176.1070  142.9240 C   0  0  0  0  0  0  0  0  0  0  0  0
  189.1880  178.2470  141.0130 C   0  0  1  0  0  3  0  0  0  0  0  0
  187.9890  178.4500  140.2930 C   0  0  0  0  0  0  0  0  0  0  0  0
  189.7690  177.0520  146.5880 C   0  0  0  0  0  0  0  0  0  0  0  0
  185.9720  178.5600  144.8360 C   0  0  0  0  0  3  0  0  0  0  0  0
  189.8820  176.5830  145.2560 C   0  0  0  0  0  0  0  0  0  0  0  0
  182.7970  178.4730  138.2120 C   0  0  0  0  0  0  0  0  0  0  0  0
  183.9790  177.9650  138.6090 N   0  0  0  0  0  0  0  0  0  0  0  0
  183.6260  179.7740  139.8030 N   0  0  0  0  0  0  0  0  0  0  0  0
  182.5720  179.6290  138.9780 C   0  0  0  0  0  0  0  0  0  0  0  0
  184.4410  178.7610  139.5600 N   0  0  0  0  0  0  0  0  0  0  0  0
  182.0520  177.8430  137.0590 C   0  0  0  0  0  3  0  0  0  0  0  0
  182.5660  176.4610  136.7250 C   0  0  0  0  0  2  0  0  0  0  0  0
  181.2410  176.6280  137.4490 C   0  0  0  0  0  2  0  0  0  0  0  0
  180.4020  180.4840  140.0430 C   0  0  0  0  0  1  0  0  0  0  0  0
  181.4460  180.5860  138.9850 C   0  0  0  0  0  0  0  0  0  0  0  0
  181.3050  181.4490  138.0830 O   0  0  0  0  0  0  0  0  0  0  0  0
  191.8490  177.1340  148.1430 N   0  0  0  0  0  0  0  0  0  0  0  0
  190.9230  177.0970  147.4510 C   0  0  0  0  0  0  0  0  0  0  0  0
  190.5620  177.0230  139.2750 C   0  0  0  0  0  2  0  0  0  0  0  0
  190.7360  176.1720  136.9570 C   0  0  1  0  0  3  0  0  0  0  0  0
  189.7170  176.0260  135.8440 C   0  0  0  0  0  2  0  0  0  0  0  0
  189.3550  176.7390  137.1310 C   0  0  1  0  0  3  0  0  0  0  0  0
  190.0210  176.0120  138.2840 C   0  0  2  0  0  3  0  0  0  0  0  0
  2 14  1  0  0  0  0
  3  5  1  0  0  0  0
  3 22  1  0  0  0  0
  5  9  1  0  0  0  0
  6  3  1  0  0  0  0
  7  2  2  0  0  0  0
  8  2  1  0  0  0  0
  9  4  1  0  0  0  0
  9 10  2  0  0  0  0
 10  1  1  0  0  0  0
 11 12  2  0  0  0  0
 11 19  1  0  0  0  0
 12  7  1  0  0  0  0
 13 36  1  6  0  0  0
 13 18  1  0  0  0  0
 13 15  1  0  0  0  0
 14  5  2  0  0  0  0
 14 21  1  0  0  0  0
 15 17  1  0  0  0  0
 16 22  1  0  0  0  0
 17  6  2  0  0  0  0
 17 16  1  0  0  0  0
 18 19  1  6  0  0  0
 18  8  1  0  0  0  0
 19  8  2  0  0  0  0
 20 10  1  0  0  0  0
 20 35  1  0  0  0  0
 21  4  2  0  0  0  0
 22 20  2  0  0  0  0
 23 24  2  0  0  0  0
 23 26  1  0  0  0  0
 24 27  1  0  0  0  0
 26 32  1  0  0  0  0
 26 25  2  0  0  0  0
 27 25  1  0  0  0  0
 27 12  1  0  0  0  0
 28 30  1  0  0  0  0
 28 23  1  0  0  0  0
 29 28  1  0  0  0  0
 29 30  1  0  0  0  0
 32 31  1  0  0  0  0
 33 32  2  0  0  0  0
 35 34  3  0  0  0  0
 37 38  1  6  0  0  0
 37 39  1  0  0  0  0
 37 40  1  0  0  0  0
 39 38  1  6  0  0  0
 39 40  1  0  0  0  0
 40 36  1  1  0  0  0
M  END
>  <MODEL>
4

>  <REMARK>
 VINA RESULT:      -8.8      1.754      2.196
  Name = 
  6 active torsions:
  status: ('A' for Active; 'I' for Inactive)
    1  A    between atoms: C_5  and  C_15
    2  A    between atoms: C_17  and  C_22
    3  A    between atoms: C_17  and  C_27
    4  A    between atoms: C_19  and  C_28
    5  A    between atoms: C_24  and  N_38
    6  A    between atoms: C_26  and  C_37
                            x       y       z     vdW  Elec       q    Type
                         _______ _______ _______ _____ _____    ______ ____

>  <TORSDO>
F 6

$$$$
=
 OpenBabel10222415383D

 40 49  0  0  1  0  0  0  0  0999 V2000
  193.9390  177.3140  139.8450 O   0  0  0  0  0  1  0  0  0  0  0  0
  187.9490  177.7240  140.1560 C   0  0  0  0  0  0  0  0  0  0  0  0
  190.1290  176.1640  138.5150 N   0  0  0  0  0  0  0  0  0  0  0  0
  191.4450  177.7850  141.3380 N   0  0  0  0  0  0  0  0  0  0  0  0
  190.2760  176.6640  139.7530 C   0  0  0  0  0  0  0  0  0  0  0  0
  188.9440  175.9710  137.9790 N   0  0  0  0  0  0  0  0  0  0  0  0
  186.9410  178.0040  141.1400 C   0  0  0  0  0  3  0  0  0  0  0  0
  187.4530  177.9930  138.8960 C   0  0  0  0  0  0  0  0  0  0  0  0
  191.5680  177.0120  140.2440 C   0  0  0  0  0  0  0  0  0  0  0  0
  192.6830  176.9160  139.4000 C   0  0  0  0  0  0  0  0  0  0  0  0
  185.1140  178.7090  139.4900 C   0  0  0  0  0  3  0  0  0  0  0  0
  185.5770  178.4610  140.8360 C   0  0  0  0  0  0  0  0  0  0  0  0
  186.6680  176.9730  136.7350 C   0  0  1  0  0  3  0  0  0  0  0  0
  189.3540  177.3630  140.5090 C   0  0  0  0  0  0  0  0  0  0  0  0
  187.8130  176.4720  135.9560 N   0  0  0  0  0  2  0  0  0  0  0  0
  190.5490  176.0760  136.0580 S   0  0  0  0  0  0  0  0  0  0  0  0
  188.9540  175.9700  136.6440 C   0  0  0  0  0  0  0  0  0  0  0  0
  187.0430  178.2410  137.5570 C   0  0  1  0  0  3  0  0  0  0  0  0
  186.1070  178.4610  138.5930 C   0  0  0  0  0  0  0  0  0  0  0  0
  192.4780  176.4910  138.0580 C   0  0  0  0  0  0  0  0  0  0  0  0
  190.1080  177.9920  141.5070 C   0  0  0  0  0  3  0  0  0  0  0  0
  191.1620  176.1710  137.6390 C   0  0  0  0  0  0  0  0  0  0  0  0
  183.9280  178.9580  143.9190 C   0  0  0  0  0  0  0  0  0  0  0  0
  185.0430  178.7500  143.1930 N   0  0  0  0  0  0  0  0  0  0  0  0
  183.3630  178.8180  141.7800 N   0  0  0  0  0  0  0  0  0  0  0  0
  182.8550  179.0030  143.0130 C   0  0  0  0  0  0  0  0  0  0  0  0
  184.6700  178.6780  141.9250 N   0  0  0  0  0  0  0  0  0  0  0  0
  184.0030  178.9910  145.4270 C   0  0  0  0  0  3  0  0  0  0  0  0
  184.9160  177.9230  145.9840 C   0  0  0  0  0  2  0  0  0  0  0  0
  185.3640  179.3750  145.9620 C   0  0  0  0  0  2  0  0  0  0  0  0
  180.6350  178.2160  144.0270 C   0  0  0  0  0  1  0  0  0  0  0  0
  181.4080  179.2100  143.2320 C   0  0  0  0  0  0  0  0  0  0  0  0
  180.7910  180.1730  142.7110 O   0  0  0  0  0  0  0  0  0  0  0  0
  194.4400  176.5060  136.3540 N   0  0  0  0  0  0  0  0  0  0  0  0
  193.5670  176.5000  137.1130 C   0  0  0  0  0  0  0  0  0  0  0  0
  185.5300  177.2760  135.7720 C   0  0  0  0  0  2  0  0  0  0  0  0
  184.4590  175.4400  137.0420 C   0  0  1  0  0  3  0  0  0  0  0  0
  183.3280  174.4880  136.7030 C   0  0  0  0  0  2  0  0  0  0  0  0
  183.8890  175.4240  135.6510 C   0  0  1  0  0  3  0  0  0  0  0  0
  184.2170  176.7480  136.3160 C   0  0  2  0  0  3  0  0  0  0  0  0
  2 14  1  0  0  0  0
  2  7  1  0  0  0  0
  3  5  1  0  0  0  0
  4 21  2  0  0  0  0
  5  9  1  0  0  0  0
  5 14  2  0  0  0  0
  6  3  1  0  0  0  0
  8  2  2  0  0  0  0
  9  4  1  0  0  0  0
 10  1  1  0  0  0  0
 10  9  2  0  0  0  0
 11 12  1  0  0  0  0
 12  7  2  0  0  0  0
 12 27  1  0  0  0  0
 13 36  1  6  0  0  0
 13 18  1  0  0  0  0
 14 21  1  0  0  0  0
 15 17  1  0  0  0  0
 15 13  1  0  0  0  0
 16 17  1  0  0  0  0
 16 22  1  0  0  0  0
 17  6  2  0  0  0  0
 18 19  1  1  0  0  0
 18  8  1  0  0  0  0
 19  8  1  0  0  0  0
 19 11  2  0  0  0  0
 20 10  1  0  0  0  0
 22 20  2  0  0  0  0
 22  3  1  0  0  0  0
 23 28  1  0  0  0  0
 24 23  2  0  0  0  0
 25 27  1  0  0  0  0
 25 26  2  0  0  0  0
 26 32  1  0  0  0  0
 26 23  1  0  0  0  0
 27 24  1  0  0  0  0
 28 30  1  0  0  0  0
 28 29  1  0  0  0  0
 30 29  1  0  0  0  0
 32 31  1  0  0  0  0
 33 32  2  0  0  0  0
 34 35  3  0  0  0  0
 35 20  1  0  0  0  0
 37 38  1  1  0  0  0
 39 40  1  0  0  0  0
 39 38  1  1  0  0  0
 39 37  1  0  0  0  0
 40 36  1  6  0  0  0
 40 37  1  0  0  0  0
M  END
>  <MODEL>
5

>  <REMARK>
 VINA RESULT:      -7.8      3.630      6.245
  Name = 
  6 active torsions:
  status: ('A' for Active; 'I' for Inactive)
    1  A    between atoms: C_5  and  C_15
    2  A    between atoms: C_17  and  C_22
    3  A    between atoms: C_17  and  C_27
    4  A    between atoms: C_19  and  C_28
    5  A    between atoms: C_24  and  N_38
    6  A    between atoms: C_26  and  C_37
                            x       y       z     vdW  Elec       q    Type
                         _______ _______ _______ _____ _____    ______ ____

>  <TORSDO>
F 6

$$$$
=
 OpenBabel10222415383D

 40 49  0  0  1  0  0  0  0  0999 V2000
  187.6630  177.3070  145.2240 O   0  0  0  0  0  1  0  0  0  0  0  0
  190.0620  176.8550  139.7300 C   0  0  0  0  0  0  0  0  0  0  0  0
  187.8230  178.4980  141.2040 N   0  0  0  0  0  0  0  0  0  0  0  0
  189.9210  176.7580  143.4170 N   0  0  0  0  0  0  0  0  0  0  0  0
  188.9060  177.9440  141.7740 C   0  0  0  0  0  0  0  0  0  0  0  0
  187.7520  178.7090  139.9080 N   0  0  0  0  0  0  0  0  0  0  0  0
  191.3270  176.5270  139.1340 C   0  0  0  0  0  3  0  0  0  0  0  0
  189.0500  176.6410  138.8160 C   0  0  0  0  0  0  0  0  0  0  0  0
  188.8900  177.5800  143.1530 C   0  0  0  0  0  0  0  0  0  0  0  0
  187.7100  177.7190  143.8960 C   0  0  0  0  0  0  0  0  0  0  0  0
  190.4030  175.8880  136.8320 C   0  0  0  0  0  3  0  0  0  0  0  0
  191.5070  176.0780  137.7460 C   0  0  0  0  0  0  0  0  0  0  0  0
  187.3550  177.7540  137.3270 C   0  0  1  0  0  3  0  0  0  0  0  0
  189.9090  177.2070  141.1730 C   0  0  0  0  0  0  0  0  0  0  0  0
  186.2430  178.2950  138.1270 N   0  0  0  0  0  2  0  0  0  0  0  0
  185.3840  178.6980  140.7250 S   0  0  0  0  0  0  0  0  0  0  0  0
  186.5020  178.7710  139.4440 C   0  0  0  0  0  0  0  0  0  0  0  0
  187.9340  176.4520  137.9550 C   0  0  1  0  0  3  0  0  0  0  0  0
  189.2240  176.1810  137.4450 C   0  0  0  0  0  0  0  0  0  0  0  0
  186.5480  178.2030  143.2330 C   0  0  0  0  0  0  0  0  0  0  0  0
  190.5450  176.5380  142.2250 C   0  0  0  0  0  3  0  0  0  0  0  0
  186.6390  178.5350  141.8590 C   0  0  0  0  0  0  0  0  0  0  0  0
  194.6000  175.8320  136.0600 C   0  0  0  0  0  0  0  0  0  0  0  0
  193.3420  176.3010  136.1630 N   0  0  0  0  0  0  0  0  0  0  0  0
  193.6960  175.0300  137.9180 N   0  0  0  0  0  0  0  0  0  0  0  0
  194.8260  175.0210  137.1850 C   0  0  0  0  0  0  0  0  0  0  0  0
  192.8370  175.8080  137.2820 N   0  0  0  0  0  0  0  0  0  0  0  0
  195.4230  176.1360  134.8310 C   0  0  0  0  0  3  0  0  0  0  0  0
  195.5950  177.6210  134.6030 C   0  0  0  0  0  2  0  0  0  0  0  0
  196.7520  176.7920  135.1330 C   0  0  0  0  0  2  0  0  0  0  0  0
  195.9030  172.7890  137.8420 C   0  0  0  0  0  1  0  0  0  0  0  0
  196.0170  174.2550  137.6070 C   0  0  0  0  0  0  0  0  0  0  0  0
  197.1170  174.8160  137.8360 O   0  0  0  0  0  0  0  0  0  0  0  0
  184.2600  178.2730  144.4630 N   0  0  0  0  0  0  0  0  0  0  0  0
  185.2790  178.2420  143.9160 C   0  0  0  0  0  0  0  0  0  0  0  0
  186.8460  177.4890  135.9180 C   0  0  0  0  0  2  0  0  0  0  0  0
  185.1630  175.6800  135.7630 C   0  0  1  0  0  3  0  0  0  0  0  0
  183.9810  175.4620  134.8380 C   0  0  0  0  0  2  0  0  0  0  0  0
  184.9500  176.6010  134.5950 C   0  0  1  0  0  3  0  0  0  0  0  0
  185.3630  177.1720  135.9380 C   0  0  2  0  0  3  0  0  0  0  0  0
  2 14  1  0  0  0  0
  3  5  1  0  0  0  0
  3 22  1  0  0  0  0
  5  9  1  0  0  0  0
  6  3  1  0  0  0  0
  7  2  1  0  0  0  0
  8  2  2  0  0  0  0
  9  4  1  0  0  0  0
  9 10  2  0  0  0  0
 10  1  1  0  0  0  0
 11 19  2  0  0  0  0
 11 12  1  0  0  0  0
 12  7  2  0  0  0  0
 13 36  1  6  0  0  0
 13 18  1  0  0  0  0
 13 15  1  0  0  0  0
 14  5  2  0  0  0  0
 14 21  1  0  0  0  0
 15 17  1  0  0  0  0
 16 22  1  0  0  0  0
 17  6  2  0  0  0  0
 17 16  1  0  0  0  0
 18 19  1  6  0  0  0
 18  8  1  0  0  0  0
 19  8  1  0  0  0  0
 20 10  1  0  0  0  0
 20 35  1  0  0  0  0
 21  4  2  0  0  0  0
 22 20  2  0  0  0  0
 23 24  2  0  0  0  0
 23 26  1  0  0  0  0
 24 27  1  0  0  0  0
 26 32  1  0  0  0  0
 26 25  2  0  0  0  0
 27 12  1  0  0  0  0
 27 25  1  0  0  0  0
 28 30  1  0  0  0  0
 28 23  1  0  0  0  0
 29 28  1  0  0  0  0
 29 30  1  0  0  0  0
 32 33  2  0  0  0  0
 32 31  1  0  0  0  0
 35 34  3  0  0  0  0
 37 38  1  1  0  0  0
 37 40  1  0  0  0  0
 39 38  1  1  0  0  0
 39 37  1  0  0  0  0
 39 40  1  0  0  0  0
 40 36  1  6  0  0  0
M  END
>  <MODEL>
6

>  <REMARK>
 VINA RESULT:      -7.8      4.662      9.324
  Name = 
  6 active torsions:
  status: ('A' for Active; 'I' for Inactive)
    1  A    between atoms: C_5  and  C_15
    2  A    between atoms: C_17  and  C_22
    3  A    between atoms: C_17  and  C_27
    4  A    between atoms: C_19  and  C_28
    5  A    between atoms: C_24  and  N_38
    6  A    between atoms: C_26  and  C_37
                            x       y       z     vdW  Elec       q    Type
                         _______ _______ _______ _____ _____    ______ ____

>  <TORSDO>
F 6

$$$$
=
 OpenBabel10222415383D

 40 49  0  0  1  0  0  0  0  0999 V2000
  190.3990  176.2370  139.8120 O   0  0  0  0  0  1  0  0  0  0  0  0
  184.9860  178.8550  139.8260 C   0  0  0  0  0  0  0  0  0  0  0  0
  187.4110  178.4310  141.7800 N   0  0  0  0  0  0  0  0  0  0  0  0
  188.1800  177.6160  138.4530 N   0  0  0  0  0  0  0  0  0  0  0  0
  187.4670  178.4440  140.4380 C   0  0  0  0  0  0  0  0  0  0  0  0
  186.3910  178.9350  142.4380 N   0  0  0  0  0  0  0  0  0  0  0  0
  184.0970  179.4890  138.8930 C   0  0  0  0  0  3  0  0  0  0  0  0
  184.2670  178.3890  140.9080 C   0  0  0  0  0  0  0  0  0  0  0  0
  188.5050  177.7480  139.7510 C   0  0  0  0  0  0  0  0  0  0  0  0
  189.4210  176.9730  140.4750 C   0  0  0  0  0  0  0  0  0  0  0  0
  181.9580  179.1530  140.2600 C   0  0  0  0  0  3  0  0  0  0  0  0
  182.6500  179.6520  139.0930 C   0  0  0  0  0  0  0  0  0  0  0  0
  183.7720  178.7330  143.3500 C   0  0  1  0  0  3  0  0  0  0  0  0
  186.4320  178.6160  139.5390 C   0  0  0  0  0  0  0  0  0  0  0  0
  184.9090  178.2900  144.1730 N   0  0  0  0  0  2  0  0  0  0  0  0
  187.5090  177.3540  144.0270 S   0  0  0  0  0  0  0  0  0  0  0  0
  186.2310  178.4150  143.6580 C   0  0  0  0  0  0  0  0  0  0  0  0
  183.6220  177.8680  142.0640 C   0  0  1  0  0  3  0  0  0  0  0  0
  182.8300  178.5350  141.1020 C   0  0  0  0  0  0  0  0  0  0  0  0
  189.2660  176.8880  141.8860 C   0  0  0  0  0  0  0  0  0  0  0  0
  186.9320  178.1470  138.3190 C   0  0  0  0  0  3  0  0  0  0  0  0
  188.2050  177.6000  142.4970 C   0  0  0  0  0  0  0  0  0  0  0  0
  180.8060  180.6920  136.2670 C   0  0  0  0  0  0  0  0  0  0  0  0
  181.4780  179.7550  136.9630 N   0  0  0  0  0  0  0  0  0  0  0  0
  181.5340  181.5990  138.1540 N   0  0  0  0  0  0  0  0  0  0  0  0
  180.8410  181.8710  137.0310 C   0  0  0  0  0  0  0  0  0  0  0  0
  181.8910  180.3280  138.0810 N   0  0  0  0  0  0  0  0  0  0  0  0
  180.2840  180.3790  134.8850 C   0  0  0  0  0  3  0  0  0  0  0  0
  180.2500  178.8940  134.6020 C   0  0  0  0  0  2  0  0  0  0  0  0
  178.9610  179.6460  134.8850 C   0  0  0  0  0  2  0  0  0  0  0  0
  181.1800  184.3590  136.5170 C   0  0  0  0  0  1  0  0  0  0  0  0
  180.2700  183.2100  136.7780 C   0  0  0  0  0  0  0  0  0  0  0  0
  179.0340  183.4250  136.8380 O   0  0  0  0  0  0  0  0  0  0  0  0
  190.7670  175.2930  143.2840 N   0  0  0  0  0  0  0  0  0  0  0  0
  190.0990  176.0030  142.6620 C   0  0  0  0  0  0  0  0  0  0  0  0
  182.5110  178.6570  144.1970 C   0  0  0  0  0  2  0  0  0  0  0  0
  180.3700  179.7890  143.6810 C   0  0  1  0  0  3  0  0  0  0  0  0
  178.9350  179.2970  143.6570 C   0  0  0  0  0  2  0  0  0  0  0  0
  180.0460  178.4050  144.1720 C   0  0  1  0  0  3  0  0  0  0  0  0
  181.2770  178.6310  143.3150 C   0  0  2  0  0  3  0  0  0  0  0  0
  1 10  1  0  0  0  0
  2  8  1  0  0  0  0
  3  6  1  0  0  0  0
  3 22  1  0  0  0  0
  4  9  1  0  0  0  0
  5  3  1  0  0  0  0
  6 17  2  0  0  0  0
  7 12  1  0  0  0  0
  7  2  2  0  0  0  0
  8 19  2  0  0  0  0
  9  5  1  0  0  0  0
  9 10  2  0  0  0  0
 10 20  1  0  0  0  0
 11 19  1  0  0  0  0
 12 11  2  0  0  0  0
 13 15  1  0  0  0  0
 13 36  1  1  0  0  0
 14  2  1  0  0  0  0
 14  5  2  0  0  0  0
 17 16  1  0  0  0  0
 17 15  1  0  0  0  0
 18  8  1  6  0  0  0
 18 13  1  0  0  0  0
 19 18  1  0  0  0  0
 20 22  2  0  0  0  0
 20 35  1  0  0  0  0
 21  4  2  0  0  0  0
 21 14  1  0  0  0  0
 22 16  1  0  0  0  0
 23 24  2  0  0  0  0
 23 26  1  0  0  0  0
 24 27  1  0  0  0  0
 26 25  2  0  0  0  0
 27 25  1  0  0  0  0
 27 12  1  0  0  0  0
 28 23  1  0  0  0  0
 29 30  1  0  0  0  0
 29 28  1  0  0  0  0
 30 28  1  0  0  0  0
 31 32  1  0  0  0  0
 32 33  2  0  0  0  0
 32 26  1  0  0  0  0
 35 34  3  0  0  0  0
 37 38  1  6  0  0  0
 37 39  1  0  0  0  0
 39 38  1  6  0  0  0
 40 37  1  0  0  0  0
 40 39  1  0  0  0  0
 40 36  1  1  0  0  0
M  END
>  <MODEL>
7

>  <REMARK>
 VINA RESULT:      -7.6      3.111      6.105
  Name = 
  6 active torsions:
  status: ('A' for Active; 'I' for Inactive)
    1  A    between atoms: C_5  and  C_15
    2  A    between atoms: C_17  and  C_22
    3  A    between atoms: C_17  and  C_27
    4  A    between atoms: C_19  and  C_28
    5  A    between atoms: C_24  and  N_38
    6  A    between atoms: C_26  and  C_37
                            x       y       z     vdW  Elec       q    Type
                         _______ _______ _______ _____ _____    ______ ____

>  <TORSDO>
F 6

$$$$
=
 OpenBabel10222415383D

 40 49  0  0  1  0  0  0  0  0999 V2000
  187.7040  177.3720  145.1110 O   0  0  0  0  0  1  0  0  0  0  0  0
  190.0580  176.7840  139.6100 C   0  0  0  0  0  0  0  0  0  0  0  0
  187.8310  178.4620  141.0610 N   0  0  0  0  0  0  0  0  0  0  0  0
  189.9480  176.7780  143.2990 N   0  0  0  0  0  0  0  0  0  0  0  0
  188.9180  177.9220  141.6360 C   0  0  0  0  0  0  0  0  0  0  0  0
  187.7500  178.6410  139.7610 N   0  0  0  0  0  0  0  0  0  0  0  0
  191.3180  176.4400  139.0120 C   0  0  0  0  0  3  0  0  0  0  0  0
  189.0380  176.5470  138.7100 C   0  0  0  0  0  0  0  0  0  0  0  0
  188.9140  177.5930  143.0230 C   0  0  0  0  0  0  0  0  0  0  0  0
  187.7400  177.7500  143.7720 C   0  0  0  0  0  0  0  0  0  0  0  0
  190.3760  175.7450  136.7340 C   0  0  0  0  0  3  0  0  0  0  0  0
  191.4870  175.9570  137.6340 C   0  0  0  0  0  0  0  0  0  0  0  0
  187.3310  177.6220  137.2070 C   0  0  1  0  0  3  0  0  0  0  0  0
  189.9170  177.1710  141.0450 C   0  0  0  0  0  0  0  0  0  0  0  0
  186.2260  178.1830  138.0020 N   0  0  0  0  0  2  0  0  0  0  0  0
  185.3880  178.6510  140.5970 S   0  0  0  0  0  0  0  0  0  0  0  0
  186.4950  178.6910  139.3050 C   0  0  0  0  0  0  0  0  0  0  0  0
  187.9150  176.3360  137.8630 C   0  0  1  0  0  3  0  0  0  0  0  0
  189.2020  176.0530  137.3490 C   0  0  0  0  0  0  0  0  0  0  0  0
  186.5730  178.2180  143.1070 C   0  0  0  0  0  0  0  0  0  0  0  0
  190.5610  176.5280  142.1080 C   0  0  0  0  0  3  0  0  0  0  0  0
  186.6520  178.5150  141.7240 C   0  0  0  0  0  0  0  0  0  0  0  0
  194.6730  174.6570  136.8390 C   0  0  0  0  0  0  0  0  0  0  0  0
  193.4730  174.5630  137.4440 N   0  0  0  0  0  0  0  0  0  0  0  0
  193.5210  176.5030  136.4150 N   0  0  0  0  0  0  0  0  0  0  0  0
  194.7010  175.8970  136.1800 C   0  0  0  0  0  0  0  0  0  0  0  0
  192.8130  175.6760  137.1660 N   0  0  0  0  0  0  0  0  0  0  0  0
  195.7100  173.5790  137.0450 C   0  0  0  0  0  3  0  0  0  0  0  0
  196.4620  173.7400  138.3460 C   0  0  0  0  0  2  0  0  0  0  0  0
  195.4080  172.6560  138.2050 C   0  0  0  0  0  2  0  0  0  0  0  0
  196.7620  175.6850  134.6700 C   0  0  0  0  0  1  0  0  0  0  0  0
  195.7470  176.5340  135.3540 C   0  0  0  0  0  0  0  0  0  0  0  0
  195.8480  177.7830  135.2590 O   0  0  0  0  0  0  0  0  0  0  0  0
  184.2950  178.3190  144.3530 N   0  0  0  0  0  0  0  0  0  0  0  0
  185.3090  178.2740  143.7990 C   0  0  0  0  0  0  0  0  0  0  0  0
  186.8110  177.3220  135.8100 C   0  0  0  0  0  2  0  0  0  0  0  0
  185.0050  175.6320  135.9130 C   0  0  1  0  0  3  0  0  0  0  0  0
  183.8310  175.3350  135.0000 C   0  0  0  0  0  2  0  0  0  0  0  0
  184.8850  176.3460  134.5960 C   0  0  1  0  0  3  0  0  0  0  0  0
  185.3090  177.1150  135.8340 C   0  0  2  0  0  3  0  0  0  0  0  0
  2 14  1  0  0  0  0
  3  5  1  0  0  0  0
  3 22  1  0  0  0  0
  5  9  1  0  0  0  0
  6  3  1  0  0  0  0
  7  2  1  0  0  0  0
  8  2  2  0  0  0  0
  9  4  1  0  0  0  0
  9 10  2  0  0  0  0
 10  1  1  0  0  0  0
 11 19  2  0  0  0  0
 11 12  1  0  0  0  0
 12  7  2  0  0  0  0
 13 36  1  6  0  0  0
 13 18  1  0  0  0  0
 13 15  1  0  0  0  0
 14  5  2  0  0  0  0
 14 21  1  0  0  0  0
 15 17  1  0  0  0  0
 16 22  1  0  0  0  0
 17  6  2  0  0  0  0
 17 16  1  0  0  0  0
 18 19  1  6  0  0  0
 18  8  1  0  0  0  0
 19  8  1  0  0  0  0
 20 10  1  0  0  0  0
 20 35  1  0  0  0  0
 21  4  2  0  0  0  0
 22 20  2  0  0  0  0
 23 28  1  0  0  0  0
 23 24  2  0  0  0  0
 25 27  1  0  0  0  0
 26 25  2  0  0  0  0
 26 23  1  0  0  0  0
 27 24  1  0  0  0  0
 27 12  1  0  0  0  0
 28 30  1  0  0  0  0
 28 29  1  0  0  0  0
 30 29  1  0  0  0  0
 31 32  1  0  0  0  0
 32 26  1  0  0  0  0
 33 32  2  0  0  0  0
 35 34  3  0  0  0  0
 37 38  1  1  0  0  0
 39 38  1  1  0  0  0
 39 40  1  0  0  0  0
 39 37  1  0  0  0  0
 40 36  1  6  0  0  0
 40 37  1  0  0  0  0
M  END
>  <MODEL>
8

>  <REMARK>
 VINA RESULT:      -7.5      4.830      9.503
  Name = 
  6 active torsions:
  status: ('A' for Active; 'I' for Inactive)
    1  A    between atoms: C_5  and  C_15
    2  A    between atoms: C_17  and  C_22
    3  A    between atoms: C_17  and  C_27
    4  A    between atoms: C_19  and  C_28
    5  A    between atoms: C_24  and  N_38
    6  A    between atoms: C_26  and  C_37
                            x       y       z     vdW  Elec       q    Type
                         _______ _______ _______ _____ _____    ______ ____

>  <TORSDO>
F 6

$$$$
=
 OpenBabel10222415383D

 40 49  0  0  1  0  0  0  0  0999 V2000
  191.4380  176.2520  136.3970 O   0  0  0  0  0  1  0  0  0  0  0  0
  187.7430  177.6580  140.9260 C   0  0  0  0  0  0  0  0  0  0  0  0
  190.8020  177.8430  140.2270 N   0  0  0  0  0  0  0  0  0  0  0  0
  188.8100  177.0670  137.4420 N   0  0  0  0  0  0  0  0  0  0  0  0
  189.7880  177.8090  139.3470 C   0  0  0  0  0  0  0  0  0  0  0  0
  190.6140  178.1460  141.4920 N   0  0  0  0  0  0  0  0  0  0  0  0
  186.3730  178.0470  141.1140 C   0  0  0  0  0  3  0  0  0  0  0  0
  188.2290  177.0960  142.0900 C   0  0  0  0  0  0  0  0  0  0  0  0
  189.9950  177.3220  138.0240 C   0  0  0  0  0  0  0  0  0  0  0  0
  191.2420  176.7900  137.6640 C   0  0  0  0  0  0  0  0  0  0  0  0
  186.2010  177.3230  143.5640 C   0  0  0  0  0  3  0  0  0  0  0  0
  185.6280  177.9070  142.3730 C   0  0  0  0  0  0  0  0  0  0  0  0
  189.7750  177.4320  144.0460 C   0  0  1  0  0  3  0  0  0  0  0  0
  188.4330  177.7190  139.6040 C   0  0  0  0  0  0  0  0  0  0  0  0
  191.1780  177.2760  143.6250 N   0  0  0  0  0  2  0  0  0  0  0  0
  192.7900  176.9090  141.4080 S   0  0  0  0  0  0  0  0  0  0  0  0
  191.5540  177.6580  142.3050 C   0  0  0  0  0  0  0  0  0  0  0  0
  188.8260  176.5010  143.2350 C   0  0  1  0  0  3  0  0  0  0  0  0
  187.4870  176.9420  143.3350 C   0  0  0  0  0  0  0  0  0  0  0  0
  192.2620  176.7360  138.6540 C   0  0  0  0  0  0  0  0  0  0  0  0
  187.8620  177.3150  138.3910 C   0  0  0  0  0  3  0  0  0  0  0  0
  191.9780  177.2310  139.9510 C   0  0  0  0  0  0  0  0  0  0  0  0
  182.3700  179.0010  143.1840 C   0  0  0  0  0  0  0  0  0  0  0  0
  183.6030  178.5910  143.5370 N   0  0  0  0  0  0  0  0  0  0  0  0
  183.5330  178.5930  141.3420 N   0  0  0  0  0  0  0  0  0  0  0  0
  182.3270  179.0040  141.7800 C   0  0  0  0  0  0  0  0  0  0  0  0
  184.2690  178.3630  142.4170 N   0  0  0  0  0  0  0  0  0  0  0  0
  181.3240  179.2520  144.2440 C   0  0  0  0  0  3  0  0  0  0  0  0
  179.9480  179.4730  143.6590 C   0  0  0  0  0  2  0  0  0  0  0  0
  180.2830  178.1590  144.3450 C   0  0  0  0  0  2  0  0  0  0  0  0
  180.7060  178.3390  139.9080 C   0  0  0  0  0  1  0  0  0  0  0  0
  181.2450  179.3670  140.8420 C   0  0  0  0  0  0  0  0  0  0  0  0
  180.8050  180.5410  140.7610 O   0  0  0  0  0  0  0  0  0  0  0  0
  194.5240  175.5580  138.1540 N   0  0  0  0  0  0  0  0  0  0  0  0
  193.5170  176.0820  138.3770 C   0  0  0  0  0  0  0  0  0  0  0  0
  189.6850  177.1260  145.5330 C   0  0  0  0  0  2  0  0  0  0  0  0
  189.0020  178.0040  147.7450 C   0  0  1  0  0  3  0  0  0  0  0  0
  187.6430  178.2260  148.3800 C   0  0  0  0  0  2  0  0  0  0  0  0
  187.7640  177.5130  147.0480 C   0  0  1  0  0  3  0  0  0  0  0  0
  188.8640  178.1830  146.2450 C   0  0  2  0  0  3  0  0  0  0  0  0
  1 10  1  0  0  0  0
  2  7  2  0  0  0  0
  2  8  1  0  0  0  0
  3  6  1  0  0  0  0
  4  9  1  0  0  0  0
  4 21  2  0  0  0  0
  5 14  2  0  0  0  0
  5  3  1  0  0  0  0
  6 17  2  0  0  0  0
  7 12  1  0  0  0  0
  8 19  2  0  0  0  0
  9  5  1  0  0  0  0
 10  9  2  0  0  0  0
 10 20  1  0  0  0  0
 12 27  1  0  0  0  0
 12 11  2  0  0  0  0
 13 36  1  1  0  0  0
 14  2  1  0  0  0  0
 15 13  1  0  0  0  0
 16 17  1  0  0  0  0
 17 15  1  0  0  0  0
 18  8  1  6  0  0  0
 18 19  1  0  0  0  0
 18 13  1  0  0  0  0
 19 11  1  0  0  0  0
 20 22  2  0  0  0  0
 21 14  1  0  0  0  0
 22  3  1  0  0  0  0
 22 16  1  0  0  0  0
 23 24  2  0  0  0  0
 23 28  1  0  0  0  0
 25 26  2  0  0  0  0
 25 27  1  0  0  0  0
 26 23  1  0  0  0  0
 27 24  1  0  0  0  0
 28 30  1  0  0  0  0
 29 28  1  0  0  0  0
 29 30  1  0  0  0  0
 31 32  1  0  0  0  0
 32 26  1  0  0  0  0
 33 32  2  0  0  0  0
 34 35  3  0  0  0  0
 35 20  1  0  0  0  0
 37 38  1  1  0  0  0
 39 37  1  0  0  0  0
 39 38  1  1  0  0  0
 40 36  1  6  0  0  0
 40 39  1  0  0  0  0
 40 37  1  0  0  0  0
M  END
>  <MODEL>
9

>  <REMARK>
 VINA RESULT:      -7.4      3.048      6.420
  Name = 
  6 active torsions:
  status: ('A' for Active; 'I' for Inactive)
    1  A    between atoms: C_5  and  C_15
    2  A    between atoms: C_17  and  C_22
    3  A    between atoms: C_17  and  C_27
    4  A    between atoms: C_19  and  C_28
    5  A    between atoms: C_24  and  N_38
    6  A    between atoms: C_26  and  C_37
                            x       y       z     vdW  Elec       q    Type
                         _______ _______ _______ _____ _____    ______ ____

>  <TORSDO>
F 6

$$$$
