=
 OpenBabel10222417083D

 25 29  0  0  1  0  0  0  0  0999 V2000
  188.8170  178.5040  139.7260 C   0  0  0  0  0  0  0  0  0  0  0  0
  187.0610  177.3660  142.8660 N   0  0  0  0  0  0  0  0  0  0  0  0
  187.5910  176.4000  143.7460 N   0  0  0  0  0  2  0  0  0  0  0  0
  189.9600  177.6950  139.8870 C   0  0  0  0  0  3  0  0  0  0  0  0
  189.0520  176.8310  141.9330 C   0  0  0  0  0  0  0  0  0  0  0  0
  187.7880  178.4560  140.6920 C   0  0  0  0  0  3  0  0  0  0  0  0
  190.0870  176.8440  140.9970 C   0  0  0  0  0  3  0  0  0  0  0  0
  188.9120  176.0350  143.1850 C   0  0  1  0  0  3  0  0  0  0  0  0
  187.9460  177.6010  141.7850 C   0  0  0  0  0  0  0  0  0  0  0  0
  191.2140  177.2310  145.8720 C   0  0  2  0  0  3  0  0  0  0  0  0
  191.0940  176.9460  147.1240 N   0  0  0  0  0  2  0  0  0  0  0  0
  188.9830  177.1040  146.3120 N   0  0  0  0  0  0  0  0  0  0  0  0
  189.8990  177.4210  145.2290 C   0  0  2  0  0  3  0  0  0  0  0  0
  192.0940  176.4770  145.0530 N   0  0  0  0  0  2  0  0  0  0  0  0
  189.9940  176.3770  144.1610 C   0  0  2  0  0  3  0  0  0  0  0  0
  191.2490  175.9510  144.0320 C   0  0  0  0  0  2  0  0  0  0  0  0
  189.6940  176.9060  147.3740 C   0  0  0  0  0  3  0  0  0  0  0  0
  184.8270  178.1220  142.1010 C   0  0  0  0  0  3  0  0  0  0  0  0
  185.7960  178.0090  143.1100 C   0  0  0  0  0  0  0  0  0  0  0  0
  185.5190  178.5380  144.3790 C   0  0  0  0  0  3  0  0  0  0  0  0
  183.3400  179.2730  143.6240 C   0  0  0  0  0  3  0  0  0  0  0  0
  183.6050  178.7500  142.3560 C   0  0  0  0  0  3  0  0  0  0  0  0
  184.2970  179.1680  144.6360 C   0  0  0  0  0  3  0  0  0  0  0  0
  189.0530  178.8940  137.2960 C   0  0  0  0  0  1  0  0  0  0  0  0
  188.7300  179.3370  138.6080 O   0  0  0  0  0  0  0  0  0  0  0  0
  1  4  2  0  0  0  0
  1  6  1  0  0  0  0
  2 19  1  0  0  0  0
  2  3  1  0  0  0  0
  4  7  1  0  0  0  0
  6  9  2  0  0  0  0
  7  5  2  0  0  0  0
  8  5  1  6  0  0  0
  8  3  1  0  0  0  0
  8 15  1  0  0  0  0
  9  5  1  0  0  0  0
  9  2  1  0  0  0  0
 10 14  1  6  0  0  0
 10 11  1  0  0  0  0
 11 17  1  0  0  0  0
 12 17  2  0  0  0  0
 13 10  1  0  0  0  0
 13 12  1  1  0  0  0
 15 16  1  6  0  0  0
 15 13  1  0  0  0  0
 16 14  1  0  0  0  0
 18 22  2  0  0  0  0
 18 19  1  0  0  0  0
 19 20  2  0  0  0  0
 20 23  1  0  0  0  0
 21 23  2  0  0  0  0
 22 21  1  0  0  0  0
 24 25  1  0  0  0  0
 25  1  1  0  0  0  0
M  END
>  <MODEL>
1

>  <REMARK>
 VINA RESULT:      -9.0      0.000      0.000
  Name = 
  3 active torsions:
  status: ('A' for Active; 'I' for Inactive)
    1  A    between atoms: C_1  and  O_18
    2  A    between atoms: N_5  and  C_13
    3  A    between atoms: C_19  and  C_22
                            x       y       z     vdW  Elec       q    Type
                         _______ _______ _______ _____ _____    ______ ____

>  <TORSDO>
F 3

$$$$
=
 OpenBabel10222417083D

 25 29  0  0  1  0  0  0  0  0999 V2000
  190.5390  177.0000  146.7060 C   0  0  0  0  0  0  0  0  0  0  0  0
  189.0000  177.0400  143.2620 N   0  0  0  0  0  0  0  0  0  0  0  0
  187.6120  176.9460  143.0290 N   0  0  0  0  0  2  0  0  0  0  0  0
  189.3250  176.8970  147.4170 C   0  0  0  0  0  3  0  0  0  0  0  0
  188.1180  176.9190  145.3420 C   0  0  0  0  0  0  0  0  0  0  0  0
  190.5180  177.0570  145.2960 C   0  0  0  0  0  3  0  0  0  0  0  0
  188.0970  176.8520  146.7360 C   0  0  0  0  0  3  0  0  0  0  0  0
  186.9890  176.8870  144.3710 C   0  0  1  0  0  3  0  0  0  0  0  0
  189.2800  177.0130  144.6500 C   0  0  0  0  0  0  0  0  0  0  0  0
  184.6480  179.7960  144.2790 C   0  0  2  0  0  3  0  0  0  0  0  0
  183.3940  179.7220  143.9900 N   0  0  0  0  0  2  0  0  0  0  0  0
  184.4240  178.1560  142.7160 N   0  0  0  0  0  0  0  0  0  0  0  0
  185.4500  178.8590  143.4680 C   0  0  2  0  0  3  0  0  0  0  0  0
  185.0660  179.8050  145.6350 N   0  0  0  0  0  2  0  0  0  0  0  0
  186.0820  178.0620  144.5650 C   0  0  2  0  0  3  0  0  0  0  0  0
  185.9270  178.6730  145.7380 C   0  0  0  0  0  2  0  0  0  0  0  0
  183.2910  178.7150  142.9900 C   0  0  0  0  0  3  0  0  0  0  0  0
  191.3200  177.3200  142.4340 C   0  0  0  0  0  3  0  0  0  0  0  0
  189.9470  177.1740  142.1860 C   0  0  0  0  0  0  0  0  0  0  0  0
  189.4950  177.1610  140.8570 C   0  0  0  0  0  3  0  0  0  0  0  0
  191.7640  177.4340  140.0590 C   0  0  0  0  0  3  0  0  0  0  0  0
  192.2250  177.4490  141.3760 C   0  0  0  0  0  3  0  0  0  0  0  0
  190.3990  177.2910  139.7980 C   0  0  0  0  0  3  0  0  0  0  0  0
  192.4380  175.8680  147.8130 C   0  0  0  0  0  1  0  0  0  0  0  0
  191.7380  177.0410  147.4210 O   0  0  0  0  0  0  0  0  0  0  0  0
  1  4  1  0  0  0  0
  1 25  1  0  0  0  0
  2  9  1  0  0  0  0
  3  2  1  0  0  0  0
  5  7  1  0  0  0  0
  6  1  2  0  0  0  0
  7  4  2  0  0  0  0
  8  3  1  6  0  0  0
  8 15  1  0  0  0  0
  8  5  1  0  0  0  0
  9  6  1  0  0  0  0
  9  5  2  0  0  0  0
 10 11  1  1  0  0  0
 10 14  1  0  0  0  0
 12 17  2  0  0  0  0
 13 12  1  6  0  0  0
 13 10  1  0  0  0  0
 13 15  1  0  0  0  0
 14 16  1  0  0  0  0
 15 16  1  6  0  0  0
 17 11  1  0  0  0  0
 19 18  1  0  0  0  0
 19  2  1  0  0  0  0
 20 19  2  0  0  0  0
 21 22  1  0  0  0  0
 22 18  2  0  0  0  0
 23 21  2  0  0  0  0
 23 20  1  0  0  0  0
 25 24  1  0  0  0  0
M  END
>  <MODEL>
2

>  <REMARK>
 VINA RESULT:      -8.2      2.682      6.711
  Name = 
  3 active torsions:
  status: ('A' for Active; 'I' for Inactive)
    1  A    between atoms: C_1  and  O_18
    2  A    between atoms: N_5  and  C_13
    3  A    between atoms: C_19  and  C_22
                            x       y       z     vdW  Elec       q    Type
                         _______ _______ _______ _____ _____    ______ ____

>  <TORSDO>
F 3

$$$$
=
 OpenBabel10222417083D

 25 29  0  0  1  0  0  0  0  0999 V2000
  188.9340  177.1960  145.2470 C   0  0  0  0  0  0  0  0  0  0  0  0
  186.8180  178.5980  142.4570 N   0  0  0  0  0  0  0  0  0  0  0  0
  187.3470  179.0310  141.2220 N   0  0  0  0  0  2  0  0  0  0  0  0
  190.1670  177.2900  144.5690 C   0  0  0  0  0  3  0  0  0  0  0  0
  189.0350  178.1910  142.6540 C   0  0  0  0  0  0  0  0  0  0  0  0
  187.7510  177.6150  144.6030 C   0  0  0  0  0  3  0  0  0  0  0  0
  190.2280  177.7940  143.2590 C   0  0  0  0  0  3  0  0  0  0  0  0
  188.8000  178.7600  141.2970 C   0  0  1  0  0  3  0  0  0  0  0  0
  187.8460  178.1090  143.3000 C   0  0  0  0  0  0  0  0  0  0  0  0
  189.3490  176.5630  138.3280 C   0  0  2  0  0  3  0  0  0  0  0  0
  189.7730  176.9700  137.1800 N   0  0  0  0  0  2  0  0  0  0  0  0
  188.4960  178.6490  138.0080 N   0  0  0  0  0  0  0  0  0  0  0  0
  188.4480  177.5490  138.9560 C   0  0  2  0  0  3  0  0  0  0  0  0
  190.2590  176.0110  139.2660 N   0  0  0  0  0  2  0  0  0  0  0  0
  189.1940  177.7860  140.2310 C   0  0  2  0  0  3  0  0  0  0  0  0
  190.1260  176.8530  140.4100 C   0  0  0  0  0  2  0  0  0  0  0  0
  189.1980  178.2570  136.9950 C   0  0  0  0  0  3  0  0  0  0  0  0
  184.9340  178.9890  144.0190 C   0  0  0  0  0  3  0  0  0  0  0  0
  185.4080  178.6490  142.7430 C   0  0  0  0  0  0  0  0  0  0  0  0
  184.4820  178.3530  141.7310 C   0  0  0  0  0  3  0  0  0  0  0  0
  182.6490  178.7360  143.2650 C   0  0  0  0  0  3  0  0  0  0  0  0
  183.5610  179.0320  144.2790 C   0  0  0  0  0  3  0  0  0  0  0  0
  183.1090  178.3950  141.9900 C   0  0  0  0  0  3  0  0  0  0  0  0
  188.9550  177.5250  147.6970 C   0  0  0  0  0  1  0  0  0  0  0  0
  188.9170  176.6890  146.5490 O   0  0  0  0  0  0  0  0  0  0  0  0
  1 25  1  0  0  0  0
  2 19  1  0  0  0  0
  2  9  1  0  0  0  0
  3  2  1  0  0  0  0
  4  1  2  0  0  0  0
  5  7  2  0  0  0  0
  5  9  1  0  0  0  0
  6  1  1  0  0  0  0
  7  4  1  0  0  0  0
  8  3  1  1  0  0  0
  8  5  1  0  0  0  0
  9  6  2  0  0  0  0
 10 11  1  6  0  0  0
 10 13  1  0  0  0  0
 10 14  1  0  0  0  0
 13 12  1  6  0  0  0
 13 15  1  0  0  0  0
 14 16  1  0  0  0  0
 15 16  1  1  0  0  0
 15  8  1  0  0  0  0
 17 11  1  0  0  0  0
 17 12  2  0  0  0  0
 18 22  1  0  0  0  0
 19 18  2  0  0  0  0
 20 23  2  0  0  0  0
 20 19  1  0  0  0  0
 21 22  2  0  0  0  0
 23 21  1  0  0  0  0
 25 24  1  0  0  0  0
M  END
>  <MODEL>
3

>  <REMARK>
 VINA RESULT:      -8.1      2.871      5.547
  Name = 
  3 active torsions:
  status: ('A' for Active; 'I' for Inactive)
    1  A    between atoms: C_1  and  O_18
    2  A    between atoms: N_5  and  C_13
    3  A    between atoms: C_19  and  C_22
                            x       y       z     vdW  Elec       q    Type
                         _______ _______ _______ _____ _____    ______ ____

>  <TORSDO>
F 3

$$$$
=
 OpenBabel10222417083D

 25 29  0  0  1  0  0  0  0  0999 V2000
  188.3170  177.1250  145.1450 C   0  0  0  0  0  0  0  0  0  0  0  0
  186.4640  178.5790  142.1970 N   0  0  0  0  0  0  0  0  0  0  0  0
  187.1050  179.0400  141.0270 N   0  0  0  0  0  2  0  0  0  0  0  0
  189.6080  177.2390  144.5880 C   0  0  0  0  0  3  0  0  0  0  0  0
  188.6550  178.1760  142.5940 C   0  0  0  0  0  0  0  0  0  0  0  0
  187.1970  177.5530  144.4000 C   0  0  0  0  0  3  0  0  0  0  0  0
  189.7890  177.7710  143.3010 C   0  0  0  0  0  3  0  0  0  0  0  0
  188.5460  178.7740  141.2330 C   0  0  1  0  0  3  0  0  0  0  0  0
  187.4110  178.0750  143.1230 C   0  0  0  0  0  0  0  0  0  0  0  0
  189.3630  176.6180  138.2950 C   0  0  2  0  0  3  0  0  0  0  0  0
  189.8260  177.0500  137.1720 N   0  0  0  0  0  2  0  0  0  0  0  0
  188.4220  178.6600  137.9330 N   0  0  0  0  0  0  0  0  0  0  0  0
  188.3810  177.5550  138.8760 C   0  0  2  0  0  3  0  0  0  0  0  0
  190.2480  176.1090  139.2810 N   0  0  0  0  0  2  0  0  0  0  0  0
  189.0450  177.8250  140.1890 C   0  0  2  0  0  3  0  0  0  0  0  0
  190.0130  176.9390  140.4160 C   0  0  0  0  0  2  0  0  0  0  0  0
  189.1960  178.3080  136.9580 C   0  0  0  0  0  3  0  0  0  0  0  0
  184.1760  178.3550  141.2710 C   0  0  0  0  0  3  0  0  0  0  0  0
  185.0340  178.6170  142.3500 C   0  0  0  0  0  0  0  0  0  0  0  0
  184.4770  178.9250  143.6010 C   0  0  0  0  0  3  0  0  0  0  0  0
  182.2460  178.7050  142.6870 C   0  0  0  0  0  3  0  0  0  0  0  0
  182.7890  178.3980  141.4380 C   0  0  0  0  0  3  0  0  0  0  0  0
  183.0890  178.9690  143.7690 C   0  0  0  0  0  3  0  0  0  0  0  0
  188.7910  177.1730  147.5700 C   0  0  0  0  0  1  0  0  0  0  0  0
  188.1810  176.5890  146.4280 O   0  0  0  0  0  0  0  0  0  0  0  0
  1 25  1  0  0  0  0
  2 19  1  0  0  0  0
  2  9  1  0  0  0  0
  3  2  1  0  0  0  0
  4  1  1  0  0  0  0
  5  9  2  0  0  0  0
  5  7  1  0  0  0  0
  6  1  2  0  0  0  0
  7  4  2  0  0  0  0
  8  3  1  6  0  0  0
  8  5  1  0  0  0  0
  9  6  1  0  0  0  0
 10 11  1  6  0  0  0
 10 13  1  0  0  0  0
 10 14  1  0  0  0  0
 13 12  1  6  0  0  0
 13 15  1  0  0  0  0
 14 16  1  0  0  0  0
 15 16  1  1  0  0  0
 15  8  1  0  0  0  0
 17 11  1  0  0  0  0
 17 12  2  0  0  0  0
 18 22  2  0  0  0  0
 18 19  1  0  0  0  0
 19 20  2  0  0  0  0
 20 23  1  0  0  0  0
 21 23  2  0  0  0  0
 22 21  1  0  0  0  0
 25 24  1  0  0  0  0
M  END
>  <MODEL>
4

>  <REMARK>
 VINA RESULT:      -7.9      2.963      5.499
  Name = 
  3 active torsions:
  status: ('A' for Active; 'I' for Inactive)
    1  A    between atoms: C_1  and  O_18
    2  A    between atoms: N_5  and  C_13
    3  A    between atoms: C_19  and  C_22
                            x       y       z     vdW  Elec       q    Type
                         _______ _______ _______ _____ _____    ______ ____

>  <TORSDO>
F 3

$$$$
=
 OpenBabel10222417083D

 25 29  0  0  1  0  0  0  0  0999 V2000
  190.3570  176.9270  145.3540 C   0  0  0  0  0  0  0  0  0  0  0  0
  187.7020  178.3540  143.0850 N   0  0  0  0  0  0  0  0  0  0  0  0
  187.9680  178.8440  141.7890 N   0  0  0  0  0  2  0  0  0  0  0  0
  191.4300  177.0820  144.4530 C   0  0  0  0  0  3  0  0  0  0  0  0
  189.9230  178.0100  142.8310 C   0  0  0  0  0  0  0  0  0  0  0  0
  189.0600  177.3300  144.9690 C   0  0  0  0  0  3  0  0  0  0  0  0
  191.2220  177.6310  143.1770 C   0  0  0  0  0  3  0  0  0  0  0  0
  189.4140  178.6160  141.5690 C   0  0  1  0  0  3  0  0  0  0  0  0
  188.8860  177.8690  143.6920 C   0  0  0  0  0  0  0  0  0  0  0  0
  189.4360  176.5510  138.4580 C   0  0  2  0  0  3  0  0  0  0  0  0
  189.6540  177.0090  137.2720 N   0  0  0  0  0  2  0  0  0  0  0  0
  188.5420  178.6440  138.3810 N   0  0  0  0  0  0  0  0  0  0  0  0
  188.6590  177.5040  139.2750 C   0  0  2  0  0  3  0  0  0  0  0  0
  190.4940  175.9650  139.1990 N   0  0  0  0  0  2  0  0  0  0  0  0
  189.6150  177.6910  140.4100 C   0  0  2  0  0  3  0  0  0  0  0  0
  190.5630  176.7560  140.3840 C   0  0  0  0  0  2  0  0  0  0  0  0
  189.0570  178.3000  137.2460 C   0  0  0  0  0  3  0  0  0  0  0  0
  185.2380  178.2680  142.8230 C   0  0  0  0  0  3  0  0  0  0  0  0
  186.3750  178.3510  143.6430 C   0  0  0  0  0  0  0  0  0  0  0  0
  186.2040  178.4330  145.0330 C   0  0  0  0  0  3  0  0  0  0  0  0
  183.7990  178.3500  144.7670 C   0  0  0  0  0  3  0  0  0  0  0  0
  183.9570  178.2670  143.3820 C   0  0  0  0  0  3  0  0  0  0  0  0
  184.9230  178.4340  145.5930 C   0  0  0  0  0  3  0  0  0  0  0  0
  191.9110  176.0070  147.0420 C   0  0  0  0  0  1  0  0  0  0  0  0
  190.6080  176.3770  146.6130 O   0  0  0  0  0  0  0  0  0  0  0  0
  1 25  1  0  0  0  0
  2 19  1  0  0  0  0
  2  9  1  0  0  0  0
  3  2  1  0  0  0  0
  4  1  2  0  0  0  0
  5  7  2  0  0  0  0
  5  9  1  0  0  0  0
  6  1  1  0  0  0  0
  7  4  1  0  0  0  0
  8  3  1  1  0  0  0
  8  5  1  0  0  0  0
  9  6  2  0  0  0  0
 10 11  1  6  0  0  0
 10 14  1  0  0  0  0
 10 13  1  0  0  0  0
 13 12  1  6  0  0  0
 13 15  1  0  0  0  0
 14 16  1  0  0  0  0
 15 16  1  1  0  0  0
 15  8  1  0  0  0  0
 17 11  1  0  0  0  0
 17 12  2  0  0  0  0
 18 22  2  0  0  0  0
 18 19  1  0  0  0  0
 19 20  2  0  0  0  0
 20 23  1  0  0  0  0
 21 23  2  0  0  0  0
 22 21  1  0  0  0  0
 25 24  1  0  0  0  0
M  END
>  <MODEL>
5

>  <REMARK>
 VINA RESULT:      -7.7      2.851      5.458
  Name = 
  3 active torsions:
  status: ('A' for Active; 'I' for Inactive)
    1  A    between atoms: C_1  and  O_18
    2  A    between atoms: N_5  and  C_13
    3  A    between atoms: C_19  and  C_22
                            x       y       z     vdW  Elec       q    Type
                         _______ _______ _______ _____ _____    ______ ____

>  <TORSDO>
F 3

$$$$
=
 OpenBabel10222417083D

 25 29  0  0  1  0  0  0  0  0999 V2000
  189.2190  177.0390  144.3510 C   0  0  0  0  0  0  0  0  0  0  0  0
  186.5840  178.5840  142.1370 N   0  0  0  0  0  0  0  0  0  0  0  0
  186.8410  179.0480  140.8300 N   0  0  0  0  0  2  0  0  0  0  0  0
  190.2750  177.1290  143.4200 C   0  0  0  0  0  3  0  0  0  0  0  0
  188.7770  178.1210  141.8290 C   0  0  0  0  0  0  0  0  0  0  0  0
  187.9360  177.5060  143.9950 C   0  0  0  0  0  3  0  0  0  0  0  0
  190.0620  177.6770  142.1450 C   0  0  0  0  0  3  0  0  0  0  0  0
  188.2670  178.7430  140.5740 C   0  0  1  0  0  3  0  0  0  0  0  0
  187.7570  178.0430  142.7180 C   0  0  0  0  0  0  0  0  0  0  0  0
  188.0670  176.6120  137.5140 C   0  0  2  0  0  3  0  0  0  0  0  0
  188.1650  177.0500  136.3050 N   0  0  0  0  0  2  0  0  0  0  0  0
  187.1120  178.6790  137.4790 N   0  0  0  0  0  0  0  0  0  0  0  0
  187.3400  177.5620  138.3800 C   0  0  2  0  0  3  0  0  0  0  0  0
  189.2030  176.0700  138.1680 N   0  0  0  0  0  2  0  0  0  0  0  0
  188.3890  177.7980  139.4200 C   0  0  2  0  0  3  0  0  0  0  0  0
  189.3570  176.8880  139.3260 C   0  0  0  0  0  2  0  0  0  0  0  0
  187.5320  178.3240  136.3080 C   0  0  0  0  0  3  0  0  0  0  0  0
  184.1130  178.5200  141.9510 C   0  0  0  0  0  3  0  0  0  0  0  0
  185.2730  178.6550  142.7280 C   0  0  0  0  0  0  0  0  0  0  0  0
  185.1440  178.8670  144.1090 C   0  0  0  0  0  3  0  0  0  0  0  0
  182.7320  178.8040  143.9180 C   0  0  0  0  0  3  0  0  0  0  0  0
  182.8480  178.5930  142.5420 C   0  0  0  0  0  3  0  0  0  0  0  0
  183.8800  178.9420  144.7020 C   0  0  0  0  0  3  0  0  0  0  0  0
  189.2210  177.1880  146.8180 C   0  0  0  0  0  1  0  0  0  0  0  0
  189.4730  176.4870  145.6080 O   0  0  0  0  0  0  0  0  0  0  0  0
  1 25  1  0  0  0  0
  2  9  1  0  0  0  0
  2 19  1  0  0  0  0
  3  2  1  0  0  0  0
  4  1  2  0  0  0  0
  5  7  2  0  0  0  0
  5  9  1  0  0  0  0
  6  1  1  0  0  0  0
  7  4  1  0  0  0  0
  8  3  1  1  0  0  0
  8  5  1  0  0  0  0
  9  6  2  0  0  0  0
 10 11  1  6  0  0  0
 10 14  1  0  0  0  0
 10 13  1  0  0  0  0
 11 17  1  0  0  0  0
 13 12  1  6  0  0  0
 13 15  1  0  0  0  0
 14 16  1  0  0  0  0
 15 16  1  1  0  0  0
 15  8  1  0  0  0  0
 17 12  2  0  0  0  0
 18 22  2  0  0  0  0
 18 19  1  0  0  0  0
 19 20  2  0  0  0  0
 20 23  1  0  0  0  0
 21 23  2  0  0  0  0
 22 21  1  0  0  0  0
 25 24  1  0  0  0  0
M  END
>  <MODEL>
6

>  <REMARK>
 VINA RESULT:      -7.7      2.912      5.737
  Name = 
  3 active torsions:
  status: ('A' for Active; 'I' for Inactive)
    1  A    between atoms: C_1  and  O_18
    2  A    between atoms: N_5  and  C_13
    3  A    between atoms: C_19  and  C_22
                            x       y       z     vdW  Elec       q    Type
                         _______ _______ _______ _____ _____    ______ ____

>  <TORSDO>
F 3

$$$$
=
 OpenBabel10222417083D

 25 29  0  0  1  0  0  0  0  0999 V2000
  189.3520  177.0730  141.6930 C   0  0  0  0  0  0  0  0  0  0  0  0
  186.2270  178.5960  143.1570 N   0  0  0  0  0  0  0  0  0  0  0  0
  185.2640  179.2850  142.3890 N   0  0  0  0  0  2  0  0  0  0  0  0
  189.0900  177.4370  140.3560 C   0  0  0  0  0  3  0  0  0  0  0  0
  187.0350  178.4650  141.0480 C   0  0  0  0  0  0  0  0  0  0  0  0
  188.4320  177.4240  142.7040 C   0  0  0  0  0  3  0  0  0  0  0  0
  187.9230  178.1430  140.0210 C   0  0  0  0  0  3  0  0  0  0  0  0
  185.7420  179.2040  140.9910 C   0  0  1  0  0  3  0  0  0  0  0  0
  187.2800  178.1240  142.3370 C   0  0  0  0  0  0  0  0  0  0  0  0
  183.4790  177.6690  138.4460 C   0  0  2  0  0  3  0  0  0  0  0  0
  183.8600  176.8610  137.5160 N   0  0  0  0  0  2  0  0  0  0  0  0
  185.5640  178.3270  137.8090 N   0  0  0  0  0  0  0  0  0  0  0  0
  184.4840  178.7210  138.6980 C   0  0  2  0  0  3  0  0  0  0  0  0
  182.9420  177.1570  139.6550 N   0  0  0  0  0  2  0  0  0  0  0  0
  184.7430  178.4710  140.1500 C   0  0  2  0  0  3  0  0  0  0  0  0
  183.8080  177.6740  140.6640 C   0  0  0  0  0  2  0  0  0  0  0  0
  185.1470  177.3170  137.1170 C   0  0  0  0  0  3  0  0  0  0  0  0
  187.1510  177.9750  145.3720 C   0  0  0  0  0  3  0  0  0  0  0  0
  186.0800  178.4110  144.5770 C   0  0  0  0  0  0  0  0  0  0  0  0
  184.8430  178.6690  145.1880 C   0  0  0  0  0  3  0  0  0  0  0  0
  185.7540  178.0590  147.3460 C   0  0  0  0  0  3  0  0  0  0  0  0
  186.9900  177.8000  146.7490 C   0  0  0  0  0  3  0  0  0  0  0  0
  184.6800  178.4930  146.5650 C   0  0  0  0  0  3  0  0  0  0  0  0
  190.8710  175.9710  143.3030 C   0  0  0  0  0  1  0  0  0  0  0  0
  190.5240  176.3700  141.9840 O   0  0  0  0  0  0  0  0  0  0  0  0
  1 25  1  0  0  0  0
  1  6  1  0  0  0  0
  2 19  1  0  0  0  0
  3  2  1  0  0  0  0
  4  1  2  0  0  0  0
  5  9  1  0  0  0  0
  7  4  1  0  0  0  0
  7  5  2  0  0  0  0
  8  5  1  1  0  0  0
  8  3  1  0  0  0  0
  9  6  2  0  0  0  0
  9  2  1  0  0  0  0
 10 11  1  1  0  0  0
 10 13  1  0  0  0  0
 10 14  1  0  0  0  0
 13 12  1  6  0  0  0
 13 15  1  0  0  0  0
 14 16  1  0  0  0  0
 15 16  1  1  0  0  0
 15  8  1  0  0  0  0
 17 11  1  0  0  0  0
 17 12  2  0  0  0  0
 18 22  1  0  0  0  0
 19 20  1  0  0  0  0
 19 18  2  0  0  0  0
 20 23  2  0  0  0  0
 22 21  2  0  0  0  0
 23 21  1  0  0  0  0
 25 24  1  0  0  0  0
M  END
>  <MODEL>
7

>  <REMARK>
 VINA RESULT:      -7.4      2.939      6.311
  Name = 
  3 active torsions:
  status: ('A' for Active; 'I' for Inactive)
    1  A    between atoms: C_1  and  O_18
    2  A    between atoms: N_5  and  C_13
    3  A    between atoms: C_19  and  C_22
                            x       y       z     vdW  Elec       q    Type
                         _______ _______ _______ _____ _____    ______ ____

>  <TORSDO>
F 3

$$$$
=
 OpenBabel10222417083D

 25 29  0  0  1  0  0  0  0  0999 V2000
  190.0320  176.8960  143.8080 C   0  0  0  0  0  0  0  0  0  0  0  0
  187.2680  178.3630  141.7010 N   0  0  0  0  0  0  0  0  0  0  0  0
  187.4430  178.7680  140.3610 N   0  0  0  0  0  2  0  0  0  0  0  0
  191.0270  176.9390  142.8090 C   0  0  0  0  0  3  0  0  0  0  0  0
  189.4340  177.8710  141.2740 C   0  0  0  0  0  0  0  0  0  0  0  0
  188.7310  177.3570  143.5140 C   0  0  0  0  0  3  0  0  0  0  0  0
  190.7350  177.4330  141.5270 C   0  0  0  0  0  3  0  0  0  0  0  0
  188.8480  178.4420  140.0290 C   0  0  1  0  0  3  0  0  0  0  0  0
  188.4730  177.8390  142.2290 C   0  0  0  0  0  0  0  0  0  0  0  0
  189.5060  176.1420  137.1610 C   0  0  2  0  0  3  0  0  0  0  0  0
  190.3260  175.1480  137.1890 N   0  0  0  0  0  2  0  0  0  0  0  0
  191.2430  176.7540  138.5000 N   0  0  0  0  0  0  0  0  0  0  0  0
  190.0160  177.2910  137.9360 C   0  0  2  0  0  3  0  0  0  0  0  0
  188.1220  175.9280  137.3900 N   0  0  0  0  0  2  0  0  0  0  0  0
  188.8920  177.4480  138.9110 C   0  0  2  0  0  3  0  0  0  0  0  0
  187.8280  176.7500  138.5180 C   0  0  0  0  0  2  0  0  0  0  0  0
  191.4130  175.5720  138.0040 C   0  0  0  0  0  3  0  0  0  0  0  0
  184.7940  178.5240  141.6520 C   0  0  0  0  0  3  0  0  0  0  0  0
  185.9980  178.4700  142.3710 C   0  0  0  0  0  0  0  0  0  0  0  0
  185.9540  178.5230  143.7720 C   0  0  0  0  0  3  0  0  0  0  0  0
  183.5390  178.6800  143.7140 C   0  0  0  0  0  3  0  0  0  0  0  0
  183.5710  178.6280  142.3190 C   0  0  0  0  0  3  0  0  0  0  0  0
  184.7310  178.6290  144.4410 C   0  0  0  0  0  3  0  0  0  0  0  0
  191.5610  176.7580  145.7460 C   0  0  0  0  0  1  0  0  0  0  0  0
  190.3640  176.3980  145.0700 O   0  0  0  0  0  0  0  0  0  0  0  0
  1 25  1  0  0  0  0
  2  9  1  0  0  0  0
  2 19  1  0  0  0  0
  3  2  1  0  0  0  0
  4  1  2  0  0  0  0
  5  7  2  0  0  0  0
  5  9  1  0  0  0  0
  6  1  1  0  0  0  0
  7  4  1  0  0  0  0
  8  3  1  1  0  0  0
  8  5  1  0  0  0  0
  9  6  2  0  0  0  0
 10 11  1  1  0  0  0
 10 14  1  0  0  0  0
 10 13  1  0  0  0  0
 11 17  1  0  0  0  0
 13 12  1  1  0  0  0
 13 15  1  0  0  0  0
 14 16  1  0  0  0  0
 15 16  1  6  0  0  0
 15  8  1  0  0  0  0
 17 12  2  0  0  0  0
 18 22  2  0  0  0  0
 18 19  1  0  0  0  0
 19 20  2  0  0  0  0
 20 23  1  0  0  0  0
 21 23  2  0  0  0  0
 22 21  1  0  0  0  0
 25 24  1  0  0  0  0
M  END
>  <MODEL>
8

>  <REMARK>
 VINA RESULT:      -7.4      2.980      5.512
  Name = 
  3 active torsions:
  status: ('A' for Active; 'I' for Inactive)
    1  A    between atoms: C_1  and  O_18
    2  A    between atoms: N_5  and  C_13
    3  A    between atoms: C_19  and  C_22
                            x       y       z     vdW  Elec       q    Type
                         _______ _______ _______ _____ _____    ______ ____

>  <TORSDO>
F 3

$$$$
=
 OpenBabel10222417083D

 25 29  0  0  1  0  0  0  0  0999 V2000
  190.2030  176.8470  143.6440 C   0  0  0  0  0  0  0  0  0  0  0  0
  187.4740  178.2620  141.4560 N   0  0  0  0  0  0  0  0  0  0  0  0
  187.6720  178.6350  140.1090 N   0  0  0  0  0  2  0  0  0  0  0  0
  191.2140  176.8660  142.6610 C   0  0  0  0  0  3  0  0  0  0  0  0
  189.6480  177.7600  141.0780 C   0  0  0  0  0  0  0  0  0  0  0  0
  188.9060  177.3010  143.3180 C   0  0  0  0  0  3  0  0  0  0  0  0
  190.9440  177.3280  141.3630 C   0  0  0  0  0  3  0  0  0  0  0  0
  189.0830  178.3000  139.8090 C   0  0  1  0  0  3  0  0  0  0  0  0
  188.6710  177.7520  142.0170 C   0  0  0  0  0  0  0  0  0  0  0  0
  189.7810  175.9450  136.9960 C   0  0  2  0  0  3  0  0  0  0  0  0
  190.6280  174.9740  137.0430 N   0  0  0  0  0  2  0  0  0  0  0  0
  191.5110  176.6360  138.3060 N   0  0  0  0  0  0  0  0  0  0  0  0
  190.2660  177.1260  137.7370 C   0  0  2  0  0  3  0  0  0  0  0  0
  188.4050  175.7010  137.2410 N   0  0  0  0  0  2  0  0  0  0  0  0
  189.1450  177.2790  138.7170 C   0  0  2  0  0  3  0  0  0  0  0  0
  188.0980  176.5440  138.3500 C   0  0  0  0  0  2  0  0  0  0  0  0
  191.7080  175.4470  137.8390 C   0  0  0  0  0  3  0  0  0  0  0  0
  186.0700  178.3230  143.4980 C   0  0  0  0  0  3  0  0  0  0  0  0
  186.1940  178.3850  142.1010 C   0  0  0  0  0  0  0  0  0  0  0  0
  185.0390  178.5700  141.3260 C   0  0  0  0  0  3  0  0  0  0  0  0
  183.6760  178.6270  143.3250 C   0  0  0  0  0  3  0  0  0  0  0  0
  184.8180  178.4440  144.1070 C   0  0  0  0  0  3  0  0  0  0  0  0
  183.7860  178.6900  141.9340 C   0  0  0  0  0  3  0  0  0  0  0  0
  191.6420  176.8390  145.6540 C   0  0  0  0  0  1  0  0  0  0  0  0
  190.5130  176.3800  144.9230 O   0  0  0  0  0  0  0  0  0  0  0  0
  1 25  1  0  0  0  0
  2  9  1  0  0  0  0
  2 19  1  0  0  0  0
  3  2  1  0  0  0  0
  4  1  2  0  0  0  0
  5  7  2  0  0  0  0
  5  9  1  0  0  0  0
  6  1  1  0  0  0  0
  7  4  1  0  0  0  0
  8  3  1  1  0  0  0
  8  5  1  0  0  0  0
  9  6  2  0  0  0  0
 10 11  1  1  0  0  0
 10 14  1  0  0  0  0
 10 13  1  0  0  0  0
 11 17  1  0  0  0  0
 13 12  1  1  0  0  0
 13 15  1  0  0  0  0
 14 16  1  0  0  0  0
 15 16  1  6  0  0  0
 15  8  1  0  0  0  0
 17 12  2  0  0  0  0
 18 22  1  0  0  0  0
 19 18  2  0  0  0  0
 20 23  2  0  0  0  0
 20 19  1  0  0  0  0
 21 22  2  0  0  0  0
 23 21  1  0  0  0  0
 25 24  1  0  0  0  0
M  END
>  <MODEL>
9

>  <REMARK>
 VINA RESULT:      -7.4      3.104      5.665
  Name = 
  3 active torsions:
  status: ('A' for Active; 'I' for Inactive)
    1  A    between atoms: C_1  and  O_18
    2  A    between atoms: N_5  and  C_13
    3  A    between atoms: C_19  and  C_22
                            x       y       z     vdW  Elec       q    Type
                         _______ _______ _______ _____ _____    ______ ____

>  <TORSDO>
F 3

$$$$
