=
 OpenBabel10222418343D

 65 69  0  0  1  0  0  0  0  0999 V2000
  188.0150  177.7210  138.5600 C   0  0  0  0  0  0  0  0  0  0  0  0
  186.7930  177.9070  136.3380 C   0  0  0  0  0  1  0  0  0  0  0  0
  189.1740  177.1530  138.2400 C   0  0  0  0  0  0  0  0  0  0  0  0
  186.8620  178.0620  137.8160 C   0  0  0  0  0  0  0  0  0  0  0  0
  188.0550  177.8970  139.9180 C   0  0  0  0  0  0  0  0  0  0  0  0
  186.9480  178.3940  140.5850 C   0  0  0  0  0  0  0  0  0  0  0  0
  189.9400  176.9610  139.4410 N   0  0  0  0  0  0  0  0  0  0  0  0
  185.7720  178.5480  138.4960 N   0  0  0  0  0  0  0  0  0  0  0  0
  185.4120  179.0420  142.0270 C   0  0  0  0  0  0  0  0  0  0  0  0
  184.8610  179.0930  140.6610 C   0  0  0  0  0  0  0  0  0  0  0  0
  189.2790  177.4040  140.4380 N   0  0  0  0  0  0  0  0  0  0  0  0
  186.6780  178.6090  142.0030 C   0  0  0  0  0  3  0  0  0  0  0  0
  185.8260  178.7010  139.8540 C   0  0  0  0  0  0  0  0  0  0  0  0
  184.6630  179.3530  143.2760 C   0  0  0  0  0  2  0  0  0  0  0  0
  184.7940  178.2570  144.2220 N   0  0  0  0  0  2  0  0  0  0  0  0
  185.6580  178.7270  145.2890 C   0  0  0  0  0  2  0  0  0  0  0  0
  186.0890  177.6030  146.1020 N   0  0  0  0  0  2  0  0  0  0  0  0
  186.7350  178.1550  147.2800 C   0  0  0  0  0  2  0  0  0  0  0  0
  188.6860  177.9270  148.6800 O   0  0  0  0  0  1  0  0  0  0  0  0
  187.9400  177.3040  147.6740 C   0  0  2  0  0  3  0  0  0  0  0  0
  188.7870  177.0020  146.5190 N   0  0  0  0  0  2  0  0  0  0  0  0
  189.5710  178.1770  146.1400 C   0  0  0  0  0  2  0  0  0  0  0  0
  190.7880  177.7880  145.2960 C   0  0  1  0  0  3  0  0  0  0  0  0
  191.9180  176.4600  147.1420 N   0  0  0  0  0  0  0  0  0  0  0  0
  192.5010  175.2350  147.6630 C   0  0  0  0  0  1  0  0  0  0  0  0
  191.8340  177.5430  147.9530 O   0  0  0  0  0  1  0  0  0  0  0  0
  191.5990  175.5510  145.0140 O   0  0  0  0  0  0  0  0  0  0  0  0
  191.4440  176.5320  145.7910 C   0  0  0  0  0  0  0  0  0  0  0  0
  190.4640  177.6880  143.8110 C   0  0  0  0  0  2  0  0  0  0  0  0
  192.2610  177.2470  142.3190 O   0  0  0  0  0  1  0  0  0  0  0  0
  191.5940  178.2740  142.9870 C   0  0  0  0  0  2  0  0  0  0  0  0
  189.5560  176.6050  136.9020 C   0  0  2  0  0  3  0  0  0  0  0  0
  189.1500  175.2690  136.8140 O   0  0  0  0  0  0  0  0  0  0  0  0
  188.2450  175.2290  135.7490 C   0  0  0  0  0  1  0  0  0  0  0  0
  191.0650  176.6970  136.7120 C   0  0  0  0  0  2  0  0  0  0  0  0
  191.7270  174.3190  137.1900 C   0  0  0  0  0  2  0  0  0  0  0  0
  193.9660  174.7390  136.4530 C   0  0  1  0  0  3  0  0  0  0  0  0
  193.1630  174.3100  137.6580 C   0  0  0  0  0  2  0  0  0  0  0  0
  191.6400  175.4100  136.1320 C   0  0  2  0  0  3  0  0  0  0  0  0
  193.0640  175.6710  135.6640 C   0  0  0  0  0  2  0  0  0  0  0  0
  195.1250  175.4220  136.8680 O   0  0  0  0  0  0  0  0  0  0  0  0
  195.9890  173.7200  135.5490 O   0  0  0  0  0  1  0  0  0  0  0  0
  196.2790  174.6540  136.5580 C   0  0  2  0  0  0  0  0  0  0  0  0
  197.2210  172.7910  137.6720 O   0  0  0  0  0  0  0  0  0  0  0  0
  196.7120  173.8950  137.7870 C   0  0  0  0  0  0  0  0  0  0  0  0
  196.5130  174.5850  139.4320 S   0  0  0  0  0  1  0  0  0  0  0  0
  198.7160  175.0540  136.1090 O   0  0  0  0  0  1  0  0  0  0  0  0
  197.4180  175.5490  136.1330 C   0  0  0  0  0  0  0  0  0  0  0  0
  197.1990  176.7270  135.7450 O   0  0  0  0  0  0  0  0  0  0  0  0
  183.4720  179.4650  140.2680 C   0  0  0  0  0  2  0  0  0  0  0  0
  183.1960  179.0970  138.5120 S   0  0  0  0  0  0  0  0  0  0  0  0
  181.6070  178.3060  138.8870 C   0  0  0  0  0  2  0  0  0  0  0  0
  181.5280  175.6400  139.8390 O   0  0  0  0  0  0  0  0  0  0  0  0
  181.3650  175.8220  138.6000 C   0  0  0  0  0  0  0  0  0  0  0  0
  181.4350  177.1360  138.0460 N   0  0  0  0  0  2  0  0  0  0  0  0
  181.0940  174.6520  137.6950 C   0  0  2  0  0  3  0  0  0  0  0  0
  181.9920  172.9960  136.2300 C   0  0  0  0  0  2  0  0  0  0  0  0
  182.3410  174.0640  137.1740 N   0  0  0  0  0  0  0  0  0  0  0  0
  184.3650  174.4730  135.8510 C   0  0  0  0  0  2  0  0  0  0  0  0
  183.2630  172.3730  135.6600 C   0  0  0  0  0  2  0  0  0  0  0  0
  184.0230  173.3890  134.9330 N   0  0  0  0  0  2  0  0  0  0  0  0
  183.0860  175.0840  136.4230 C   0  0  0  0  0  2  0  0  0  0  0  0
  179.0330  174.5960  136.4830 O   0  0  0  0  0  0  0  0  0  0  0  0
  180.5930  176.1090  135.6690 N   0  0  0  0  0  1  0  0  0  0  0  0
  180.1780  175.1050  136.5890 C   0  0  0  0  0  0  0  0  0  0  0  0
  1  5  1  0  0  0  0
  2  4  1  0  0  0  0
  3  1  2  0  0  0  0
  3  7  1  0  0  0  0
  4  8  2  0  0  0  0
  4  1  1  0  0  0  0
  5 11  1  0  0  0  0
  5  6  2  0  0  0  0
  6 12  1  0  0  0  0
  7 11  2  0  0  0  0
  8 13  1  0  0  0  0
  9 14  1  0  0  0  0
 10  9  1  0  0  0  0
 12  9  2  0  0  0  0
 13  6  1  0  0  0  0
 13 10  2  0  0  0  0
 14 15  1  0  0  0  0
 15 16  1  0  0  0  0
 16 17  1  0  0  0  0
 17 18  1  0  0  0  0
 18 20  1  0  0  0  0
 20 19  1  1  0  0  0
 21 20  1  0  0  0  0
 22 21  1  0  0  0  0
 23 29  1  6  0  0  0
 23 28  1  0  0  0  0
 23 22  1  0  0  0  0
 24 25  1  0  0  0  0
 24 26  1  0  0  0  0
 27 28  2  0  0  0  0
 28 24  1  0  0  0  0
 30 31  1  0  0  0  0
 31 29  1  0  0  0  0
 32 35  1  1  0  0  0
 32  3  1  0  0  0  0
 33 32  1  0  0  0  0
 34 33  1  0  0  0  0
 36 38  1  0  0  0  0
 37 41  1  1  0  0  0
 37 38  1  0  0  0  0
 39 35  1  1  0  0  0
 39 36  1  0  0  0  0
 40 39  1  0  0  0  0
 40 37  1  0  0  0  0
 43 42  1  6  0  0  0
 43 41  1  0  0  0  0
 43 45  1  0  0  0  0
 44 45  2  0  0  0  0
 45 46  1  0  0  0  0
 47 48  1  0  0  0  0
 48 43  1  0  0  0  0
 49 48  2  0  0  0  0
 50 10  1  0  0  0  0
 51 52  1  0  0  0  0
 51 50  1  0  0  0  0
 54 53  2  0  0  0  0
 55 54  1  0  0  0  0
 55 52  1  0  0  0  0
 56 65  1  6  0  0  0
 56 54  1  0  0  0  0
 57 58  1  0  0  0  0
 58 56  1  0  0  0  0
 59 62  1  0  0  0  0
 60 57  1  0  0  0  0
 61 60  1  0  0  0  0
 61 59  1  0  0  0  0
 62 58  1  0  0  0  0
 63 65  2  0  0  0  0
 64 65  1  0  0  0  0
M  END
>  <MODEL>
1

>  <REMARK>
 VINA RESULT:      -6.7      0.000      0.000
  Name = 
  27 active torsions:
  status: ('A' for Active; 'I' for Inactive)
    1  A    between atoms: C_4  and  C_12
    2  A    between atoms: N_9  and  C_25
    3  A    between atoms: N_9  and  C_52
    4  A    between atoms: C_11  and  C_36
    5  A    between atoms: C_11  and  S_62
    6  A    between atoms: C_12  and  C_23
    7  A    between atoms: C_12  and  O_42
    8  A    between atoms: C_14  and  N_21
    9  A    between atoms: C_14  and  C_33
   10  A    between atoms: C_14  and  C_40
   11  A    between atoms: C_15  and  C_54
   12  A    between atoms: C_15  and  C_65
   13  A    between atoms: C_19  and  C_27
   14  A    between atoms: C_19  and  C_31
   15  A    between atoms: C_19  and  O_43
   16  A    between atoms: C_23  and  C_55
   17  A    between atoms: C_25  and  C_29
   18  A    between atoms: C_34  and  O_43
   19  A    between atoms: C_48  and  N_49
   20  A    between atoms: C_48  and  C_53
   21  A    between atoms: N_49  and  C_59
   22  A    between atoms: C_52  and  N_61
   23  A    between atoms: C_53  and  N_61
   24  A    between atoms: C_54  and  C_57
   25  A    between atoms: C_54  and  C_59
   26  A    between atoms: C_60  and  S_62
   27  A    between atoms: C_60  and  N_63
                            x       y       z     vdW  Elec       q    Type
                         _______ _______ _______ _____ _____    ______ ____

>  <TORSDO>
F 27

$$$$
=
 OpenBabel10222418343D

 65 69  0  0  1  0  0  0  0  0999 V2000
  188.1160  177.6380  138.0310 C   0  0  0  0  0  0  0  0  0  0  0  0
  186.9580  177.9700  135.7920 C   0  0  0  0  0  1  0  0  0  0  0  0
  189.2500  177.0200  137.7150 C   0  0  0  0  0  0  0  0  0  0  0  0
  187.0000  178.0680  137.2760 C   0  0  0  0  0  0  0  0  0  0  0  0
  188.1350  177.7620  139.3950 C   0  0  0  0  0  0  0  0  0  0  0  0
  187.0410  178.2940  140.0570 C   0  0  0  0  0  0  0  0  0  0  0  0
  189.9770  176.7420  138.9240 N   0  0  0  0  0  0  0  0  0  0  0  0
  185.9230  178.5870  137.9500 N   0  0  0  0  0  0  0  0  0  0  0  0
  185.5090  178.9710  141.4890 C   0  0  0  0  0  0  0  0  0  0  0  0
  184.9930  179.1020  140.1150 C   0  0  0  0  0  0  0  0  0  0  0  0
  189.3180  177.1850  139.9220 N   0  0  0  0  0  0  0  0  0  0  0  0
  186.7490  178.4710  141.4750 C   0  0  0  0  0  3  0  0  0  0  0  0
  185.9540  178.6880  139.3140 C   0  0  0  0  0  0  0  0  0  0  0  0
  184.7490  179.2780  142.7330 C   0  0  0  0  0  2  0  0  0  0  0  0
  184.9200  178.2040  143.6990 N   0  0  0  0  0  2  0  0  0  0  0  0
  184.9650  178.8250  145.0100 C   0  0  0  0  0  2  0  0  0  0  0  0
  185.3290  177.8350  146.0090 N   0  0  0  0  0  2  0  0  0  0  0  0
  186.2390  178.4840  146.9360 C   0  0  0  0  0  2  0  0  0  0  0  0
  188.2600  178.1020  148.1960 O   0  0  0  0  0  1  0  0  0  0  0  0
  187.5100  177.6540  147.1040 C   0  0  2  0  0  3  0  0  0  0  0  0
  188.3220  177.6610  145.8860 N   0  0  0  0  0  2  0  0  0  0  0  0
  189.7110  177.9950  146.2000 C   0  0  0  0  0  2  0  0  0  0  0  0
  190.6880  177.1180  145.4130 C   0  0  1  0  0  3  0  0  0  0  0  0
  191.6220  176.9240  143.0600 N   0  0  0  0  0  0  0  0  0  0  0  0
  191.9600  177.4960  141.7670 C   0  0  0  0  0  1  0  0  0  0  0  0
  191.8250  175.6000  143.2650 O   0  0  0  0  0  1  0  0  0  0  0  0
  190.9790  178.9880  143.9450 O   0  0  0  0  0  0  0  0  0  0  0  0
  191.0890  177.7420  144.1100 C   0  0  0  0  0  0  0  0  0  0  0  0
  191.9110  176.7230  146.2310 C   0  0  0  0  0  2  0  0  0  0  0  0
  191.1930  175.1310  147.8430 O   0  0  0  0  0  1  0  0  0  0  0  0
  191.5200  176.4760  147.6750 C   0  0  0  0  0  2  0  0  0  0  0  0
  189.6340  176.5010  136.3650 C   0  0  2  0  0  3  0  0  0  0  0  0
  189.0860  175.2250  136.1860 O   0  0  0  0  0  0  0  0  0  0  0  0
  188.5150  175.2460  134.9100 C   0  0  0  0  0  1  0  0  0  0  0  0
  191.1510  176.4310  136.2440 C   0  0  0  0  0  2  0  0  0  0  0  0
  191.7930  174.3190  137.4480 C   0  0  0  0  0  2  0  0  0  0  0  0
  193.9660  174.3460  136.4460 C   0  0  1  0  0  3  0  0  0  0  0  0
  193.2640  174.3900  137.7820 C   0  0  0  0  0  2  0  0  0  0  0  0
  191.6390  174.9950  136.0930 C   0  0  2  0  0  3  0  0  0  0  0  0
  193.0220  175.0070  135.4580 C   0  0  0  0  0  2  0  0  0  0  0  0
  195.1750  175.0660  136.5170 O   0  0  0  0  0  0  0  0  0  0  0  0
  196.1560  173.8060  138.2000 O   0  0  0  0  0  1  0  0  0  0  0  0
  196.2420  174.1910  136.8510 C   0  0  2  0  0  0  0  0  0  0  0  0
  198.0730  175.4940  137.5930 O   0  0  0  0  0  0  0  0  0  0  0  0
  197.5530  174.9110  136.6550 C   0  0  0  0  0  0  0  0  0  0  0  0
  198.3860  174.9200  135.0650 S   0  0  0  0  0  1  0  0  0  0  0  0
  195.9000  173.1050  134.6140 O   0  0  0  0  0  0  0  0  0  0  0  0
  196.2360  172.9750  135.9560 C   0  0  0  0  0  0  0  0  0  0  0  0
  196.5890  171.8500  136.3980 O   0  0  0  0  0  1  0  0  0  0  0  0
  183.6350  179.5630  139.7070 C   0  0  0  0  0  2  0  0  0  0  0  0
  183.1480  178.7770  138.1450 S   0  0  0  0  0  0  0  0  0  0  0  0
  182.5890  177.2900  139.0230 C   0  0  0  0  0  2  0  0  0  0  0  0
  181.0580  176.7430  136.7040 O   0  0  0  0  0  0  0  0  0  0  0  0
  181.9840  175.9340  136.9970 C   0  0  0  0  0  0  0  0  0  0  0  0
  182.7680  176.1270  138.1750 N   0  0  0  0  0  2  0  0  0  0  0  0
  182.2710  174.7610  136.1020 C   0  0  2  0  0  3  0  0  0  0  0  0
  180.6550  173.7020  137.5050 C   0  0  0  0  0  2  0  0  0  0  0  0
  181.8860  173.4860  136.7350 N   0  0  0  0  0  0  0  0  0  0  0  0
  181.1480  171.1800  136.3410 C   0  0  0  0  0  2  0  0  0  0  0  0
  180.2190  172.3970  138.1630 C   0  0  0  0  0  2  0  0  0  0  0  0
  179.9390  171.3980  137.1330 N   0  0  0  0  0  2  0  0  0  0  0  0
  181.5800  172.4950  135.6930 C   0  0  0  0  0  2  0  0  0  0  0  0
  184.4790  173.8440  136.0870 O   0  0  0  0  0  0  0  0  0  0  0  0
  184.2640  175.8660  134.9700 N   0  0  0  0  0  1  0  0  0  0  0  0
  183.7290  174.7880  135.7300 C   0  0  0  0  0  0  0  0  0  0  0  0
  1  5  1  0  0  0  0
  2  4  1  0  0  0  0
  3  1  2  0  0  0  0
  3  7  1  0  0  0  0
  4  8  2  0  0  0  0
  4  1  1  0  0  0  0
  5 11  1  0  0  0  0
  5  6  2  0  0  0  0
  6 12  1  0  0  0  0
  7 11  2  0  0  0  0
  8 13  1  0  0  0  0
  9 14  1  0  0  0  0
 10  9  1  0  0  0  0
 12  9  2  0  0  0  0
 13  6  1  0  0  0  0
 13 10  2  0  0  0  0
 14 15  1  0  0  0  0
 15 16  1  0  0  0  0
 16 17  1  0  0  0  0
 17 18  1  0  0  0  0
 18 20  1  0  0  0  0
 20 19  1  1  0  0  0
 21 22  1  0  0  0  0
 21 20  1  0  0  0  0
 23 22  1  1  0  0  0
 23 29  1  0  0  0  0
 24 26  1  0  0  0  0
 24 28  1  0  0  0  0
 25 24  1  0  0  0  0
 27 28  2  0  0  0  0
 28 23  1  0  0  0  0
 29 31  1  0  0  0  0
 31 30  1  0  0  0  0
 32 35  1  1  0  0  0
 32  3  1  0  0  0  0
 33 32  1  0  0  0  0
 34 33  1  0  0  0  0
 36 38  1  0  0  0  0
 37 41  1  1  0  0  0
 37 38  1  0  0  0  0
 39 35  1  1  0  0  0
 39 36  1  0  0  0  0
 40 39  1  0  0  0  0
 40 37  1  0  0  0  0
 41 43  1  0  0  0  0
 43 42  1  1  0  0  0
 45 43  1  0  0  0  0
 45 44  2  0  0  0  0
 46 45  1  0  0  0  0
 47 48  2  0  0  0  0
 48 49  1  0  0  0  0
 48 43  1  0  0  0  0
 50 10  1  0  0  0  0
 51 52  1  0  0  0  0
 51 50  1  0  0  0  0
 53 54  2  0  0  0  0
 54 55  1  0  0  0  0
 55 52  1  0  0  0  0
 56 65  1  1  0  0  0
 56 58  1  0  0  0  0
 56 54  1  0  0  0  0
 57 60  1  0  0  0  0
 58 57  1  0  0  0  0
 59 61  1  0  0  0  0
 61 60  1  0  0  0  0
 62 59  1  0  0  0  0
 62 58  1  0  0  0  0
 64 65  1  0  0  0  0
 65 63  2  0  0  0  0
M  END
>  <MODEL>
2

>  <REMARK>
 VINA RESULT:      -6.7      1.555      2.568
  Name = 
  27 active torsions:
  status: ('A' for Active; 'I' for Inactive)
    1  A    between atoms: C_4  and  C_12
    2  A    between atoms: N_9  and  C_25
    3  A    between atoms: N_9  and  C_52
    4  A    between atoms: C_11  and  C_36
    5  A    between atoms: C_11  and  S_62
    6  A    between atoms: C_12  and  C_23
    7  A    between atoms: C_12  and  O_42
    8  A    between atoms: C_14  and  N_21
    9  A    between atoms: C_14  and  C_33
   10  A    between atoms: C_14  and  C_40
   11  A    between atoms: C_15  and  C_54
   12  A    between atoms: C_15  and  C_65
   13  A    between atoms: C_19  and  C_27
   14  A    between atoms: C_19  and  C_31
   15  A    between atoms: C_19  and  O_43
   16  A    between atoms: C_23  and  C_55
   17  A    between atoms: C_25  and  C_29
   18  A    between atoms: C_34  and  O_43
   19  A    between atoms: C_48  and  N_49
   20  A    between atoms: C_48  and  C_53
   21  A    between atoms: N_49  and  C_59
   22  A    between atoms: C_52  and  N_61
   23  A    between atoms: C_53  and  N_61
   24  A    between atoms: C_54  and  C_57
   25  A    between atoms: C_54  and  C_59
   26  A    between atoms: C_60  and  S_62
   27  A    between atoms: C_60  and  N_63
                            x       y       z     vdW  Elec       q    Type
                         _______ _______ _______ _____ _____    ______ ____

>  <TORSDO>
F 27

$$$$
=
 OpenBabel10222418343D

 65 69  0  0  1  0  0  0  0  0999 V2000
  187.9560  177.4620  139.1800 C   0  0  0  0  0  0  0  0  0  0  0  0
  187.8850  176.9730  136.6860 C   0  0  0  0  0  1  0  0  0  0  0  0
  189.1730  177.0720  139.5470 C   0  0  0  0  0  0  0  0  0  0  0  0
  187.2530  177.4270  137.9540 C   0  0  0  0  0  0  0  0  0  0  0  0
  187.3530  177.9070  140.3260 C   0  0  0  0  0  0  0  0  0  0  0  0
  186.0270  178.3080  140.3010 C   0  0  0  0  0  0  0  0  0  0  0  0
  189.3120  177.2670  140.9640 N   0  0  0  0  0  0  0  0  0  0  0  0
  185.9380  177.8220  137.9490 N   0  0  0  0  0  0  0  0  0  0  0  0
  183.9540  178.9260  140.7220 C   0  0  0  0  0  0  0  0  0  0  0  0
  184.0920  178.6030  139.2910 C   0  0  0  0  0  0  0  0  0  0  0  0
  188.2340  177.7660  141.4280 N   0  0  0  0  0  0  0  0  0  0  0  0
  185.1180  178.7430  141.3550 C   0  0  0  0  0  3  0  0  0  0  0  0
  185.3480  178.2470  139.1070 C   0  0  0  0  0  0  0  0  0  0  0  0
  182.6920  179.3310  141.4010 C   0  0  0  0  0  2  0  0  0  0  0  0
  182.5840  178.6650  142.6900 N   0  0  0  0  0  2  0  0  0  0  0  0
  183.1280  179.5780  143.6780 C   0  0  0  0  0  2  0  0  0  0  0  0
  183.5730  178.8310  144.8420 N   0  0  0  0  0  2  0  0  0  0  0  0
  184.9660  179.1790  145.0610 C   0  0  0  0  0  2  0  0  0  0  0  0
  185.6150  178.5360  147.2930 O   0  0  0  0  0  1  0  0  0  0  0  0
  185.6410  178.1390  145.9520 C   0  0  2  0  0  3  0  0  0  0  0  0
  187.0140  177.8710  145.5230 N   0  0  0  0  0  2  0  0  0  0  0  0
  187.9670  178.4520  146.4680 C   0  0  0  0  0  2  0  0  0  0  0  0
  189.4050  178.0490  146.1290 C   0  0  1  0  0  3  0  0  0  0  0  0
  191.2640  176.5310  146.9600 N   0  0  0  0  0  0  0  0  0  0  0  0
  191.7480  175.4360  147.7840 C   0  0  0  0  0  1  0  0  0  0  0  0
  192.1480  177.2210  146.2000 O   0  0  0  0  0  1  0  0  0  0  0  0
  189.0400  176.1790  147.5820 O   0  0  0  0  0  0  0  0  0  0  0  0
  189.8720  176.8750  146.9390 C   0  0  0  0  0  0  0  0  0  0  0  0
  189.6100  177.8050  144.6400 C   0  0  0  0  0  2  0  0  0  0  0  0
  191.5110  179.0960  144.0340 O   0  0  0  0  0  1  0  0  0  0  0  0
  190.1190  179.0640  143.9670 C   0  0  0  0  0  2  0  0  0  0  0  0
  190.1710  176.3520  138.6950 C   0  0  2  0  0  3  0  0  0  0  0  0
  191.1940  175.8470  139.5060 O   0  0  0  0  0  0  0  0  0  0  0  0
  191.8700  176.9720  139.9880 C   0  0  0  0  0  1  0  0  0  0  0  0
  190.7570  177.3050  137.6610 C   0  0  0  0  0  2  0  0  0  0  0  0
  190.7940  175.1660  136.3400 C   0  0  0  0  0  2  0  0  0  0  0  0
  193.1150  174.8440  136.8280 C   0  0  1  0  0  3  0  0  0  0  0  0
  191.7560  174.2120  137.0080 C   0  0  0  0  0  2  0  0  0  0  0  0
  191.4010  176.5530  136.5020 C   0  0  2  0  0  3  0  0  0  0  0  0
  192.8770  176.3430  136.8090 C   0  0  0  0  0  2  0  0  0  0  0  0
  193.9510  174.5000  137.9080 O   0  0  0  0  0  0  0  0  0  0  0  0
  195.4180  174.4630  136.1110 O   0  0  0  0  0  1  0  0  0  0  0  0
  195.1950  174.0170  137.4250 C   0  0  2  0  0  0  0  0  0  0  0  0
  194.9770  171.8920  138.4430 O   0  0  0  0  0  0  0  0  0  0  0  0
  195.1670  172.5090  137.4070 C   0  0  0  0  0  0  0  0  0  0  0  0
  195.3900  171.5870  135.8820 S   0  0  0  0  0  1  0  0  0  0  0  0
  196.1730  174.3880  139.7070 O   0  0  0  0  0  1  0  0  0  0  0  0
  196.3240  174.4540  138.3270 C   0  0  0  0  0  0  0  0  0  0  0  0
  197.4260  174.8250  137.8430 O   0  0  0  0  0  0  0  0  0  0  0  0
  183.0160  178.6210  138.2590 C   0  0  0  0  0  2  0  0  0  0  0  0
  183.0070  177.0600  137.3330 S   0  0  0  0  0  0  0  0  0  0  0  0
  181.5460  176.4840  138.2420 C   0  0  0  0  0  2  0  0  0  0  0  0
  181.0900  175.0450  135.8460 O   0  0  0  0  0  0  0  0  0  0  0  0
  181.2630  174.3760  136.9040 C   0  0  0  0  0  0  0  0  0  0  0  0
  181.4570  175.0380  138.1540 N   0  0  0  0  0  2  0  0  0  0  0  0
  181.2700  172.8740  136.8550 C   0  0  2  0  0  3  0  0  0  0  0  0
  183.6370  172.8580  136.5510 C   0  0  0  0  0  2  0  0  0  0  0  0
  182.3660  172.3610  136.0120 N   0  0  0  0  0  0  0  0  0  0  0  0
  183.5550  170.3560  135.2500 C   0  0  0  0  0  2  0  0  0  0  0  0
  184.7960  172.3340  135.7090 C   0  0  0  0  0  2  0  0  0  0  0  0
  184.8220  170.8720  135.7650 N   0  0  0  0  0  2  0  0  0  0  0  0
  182.4010  170.8940  136.0950 C   0  0  0  0  0  2  0  0  0  0  0  0
  179.6350  172.4830  135.1540 O   0  0  0  0  0  0  0  0  0  0  0  0
  178.9740  171.8650  137.2900 N   0  0  0  0  0  1  0  0  0  0  0  0
  179.9230  172.4040  136.3760 C   0  0  0  0  0  0  0  0  0  0  0  0
  1  3  2  0  0  0  0
  1  5  1  0  0  0  0
  2  4  1  0  0  0  0
  3  7  1  0  0  0  0
  4  1  1  0  0  0  0
  5 11  1  0  0  0  0
  6  5  2  0  0  0  0
  6 12  1  0  0  0  0
  7 11  2  0  0  0  0
  8  4  2  0  0  0  0
  8 13  1  0  0  0  0
  9 12  2  0  0  0  0
  9 14  1  0  0  0  0
 10  9  1  0  0  0  0
 13 10  2  0  0  0  0
 13  6  1  0  0  0  0
 14 15  1  0  0  0  0
 15 16  1  0  0  0  0
 16 17  1  0  0  0  0
 17 18  1  0  0  0  0
 18 20  1  0  0  0  0
 20 19  1  1  0  0  0
 21 20  1  0  0  0  0
 21 22  1  0  0  0  0
 23 29  1  6  0  0  0
 23 22  1  0  0  0  0
 23 28  1  0  0  0  0
 24 25  1  0  0  0  0
 26 24  1  0  0  0  0
 28 24  1  0  0  0  0
 28 27  2  0  0  0  0
 31 30  1  0  0  0  0
 31 29  1  0  0  0  0
 32 35  1  6  0  0  0
 32 33  1  0  0  0  0
 32  3  1  0  0  0  0
 33 34  1  0  0  0  0
 36 39  1  0  0  0  0
 36 38  1  0  0  0  0
 37 38  1  0  0  0  0
 37 41  1  1  0  0  0
 39 40  1  0  0  0  0
 39 35  1  1  0  0  0
 40 37  1  0  0  0  0
 43 42  1  6  0  0  0
 43 41  1  0  0  0  0
 43 48  1  0  0  0  0
 45 43  1  0  0  0  0
 45 44  2  0  0  0  0
 46 45  1  0  0  0  0
 48 47  1  0  0  0  0
 49 48  2  0  0  0  0
 50 10  1  0  0  0  0
 51 52  1  0  0  0  0
 51 50  1  0  0  0  0
 53 54  2  0  0  0  0
 54 55  1  0  0  0  0
 55 52  1  0  0  0  0
 56 65  1  6  0  0  0
 56 54  1  0  0  0  0
 58 62  1  0  0  0  0
 58 57  1  0  0  0  0
 58 56  1  0  0  0  0
 59 61  1  0  0  0  0
 59 62  1  0  0  0  0
 60 61  1  0  0  0  0
 60 57  1  0  0  0  0
 63 65  2  0  0  0  0
 65 64  1  0  0  0  0
M  END
>  <MODEL>
3

>  <REMARK>
 VINA RESULT:      -5.7      1.822      2.483
  Name = 
  27 active torsions:
  status: ('A' for Active; 'I' for Inactive)
    1  A    between atoms: C_4  and  C_12
    2  A    between atoms: N_9  and  C_25
    3  A    between atoms: N_9  and  C_52
    4  A    between atoms: C_11  and  C_36
    5  A    between atoms: C_11  and  S_62
    6  A    between atoms: C_12  and  C_23
    7  A    between atoms: C_12  and  O_42
    8  A    between atoms: C_14  and  N_21
    9  A    between atoms: C_14  and  C_33
   10  A    between atoms: C_14  and  C_40
   11  A    between atoms: C_15  and  C_54
   12  A    between atoms: C_15  and  C_65
   13  A    between atoms: C_19  and  C_27
   14  A    between atoms: C_19  and  C_31
   15  A    between atoms: C_19  and  O_43
   16  A    between atoms: C_23  and  C_55
   17  A    between atoms: C_25  and  C_29
   18  A    between atoms: C_34  and  O_43
   19  A    between atoms: C_48  and  N_49
   20  A    between atoms: C_48  and  C_53
   21  A    between atoms: N_49  and  C_59
   22  A    between atoms: C_52  and  N_61
   23  A    between atoms: C_53  and  N_61
   24  A    between atoms: C_54  and  C_57
   25  A    between atoms: C_54  and  C_59
   26  A    between atoms: C_60  and  S_62
   27  A    between atoms: C_60  and  N_63
                            x       y       z     vdW  Elec       q    Type
                         _______ _______ _______ _____ _____    ______ ____

>  <TORSDO>
F 27

$$$$
=
 OpenBabel10222418343D

 65 69  0  0  1  0  0  0  0  0999 V2000
  189.0080  177.0940  138.9380 C   0  0  0  0  0  0  0  0  0  0  0  0
  190.1850  176.9310  141.1860 C   0  0  0  0  0  1  0  0  0  0  0  0
  189.9080  176.6350  138.0730 C   0  0  0  0  0  0  0  0  0  0  0  0
  189.0280  177.3190  140.3330 C   0  0  0  0  0  0  0  0  0  0  0  0
  187.9190  177.4420  138.1830 C   0  0  0  0  0  0  0  0  0  0  0  0
  186.8250  178.0430  138.7820 C   0  0  0  0  0  0  0  0  0  0  0  0
  189.3580  176.7190  136.7470 N   0  0  0  0  0  0  0  0  0  0  0  0
  187.9370  177.9220  140.9090 N   0  0  0  0  0  0  0  0  0  0  0  0
  184.9570  179.0940  139.2990 C   0  0  0  0  0  0  0  0  0  0  0  0
  185.7730  178.9100  140.5120 C   0  0  0  0  0  0  0  0  0  0  0  0
  188.1770  177.1950  136.8110 N   0  0  0  0  0  0  0  0  0  0  0  0
  185.5850  178.5820  138.2340 C   0  0  0  0  0  3  0  0  0  0  0  0
  186.8660  178.2760  140.1360 C   0  0  0  0  0  0  0  0  0  0  0  0
  183.6520  179.8070  139.2320 C   0  0  0  0  0  2  0  0  0  0  0  0
  182.5590  178.8480  139.2080 N   0  0  0  0  0  2  0  0  0  0  0  0
  182.1960  178.6630  137.8150 C   0  0  0  0  0  2  0  0  0  0  0  0
  180.9520  177.9180  137.7270 N   0  0  0  0  0  2  0  0  0  0  0  0
  180.9050  177.0360  138.8800 C   0  0  0  0  0  2  0  0  0  0  0  0
  179.3410  175.2920  139.4540 O   0  0  0  0  0  1  0  0  0  0  0  0
  180.2800  175.6960  138.4990 C   0  0  2  0  0  3  0  0  0  0  0  0
  181.2970  174.6610  138.3090 N   0  0  0  0  0  2  0  0  0  0  0  0
  181.6340  174.5310  136.8910 C   0  0  0  0  0  2  0  0  0  0  0  0
  183.0210  173.9090  136.7030 C   0  0  1  0  0  3  0  0  0  0  0  0
  182.3640  171.5490  136.0360 N   0  0  0  0  0  0  0  0  0  0  0  0
  182.2860  170.4690  135.0660 C   0  0  0  0  0  1  0  0  0  0  0  0
  181.8210  171.3670  137.2640 O   0  0  0  0  0  1  0  0  0  0  0  0
  183.5850  172.9220  134.5940 O   0  0  0  0  0  0  0  0  0  0  0  0
  183.0090  172.7860  135.7080 C   0  0  0  0  0  0  0  0  0  0  0  0
  184.0840  174.9420  136.3520 C   0  0  0  0  0  2  0  0  0  0  0  0
  185.3890  173.5150  137.7340 O   0  0  0  0  0  1  0  0  0  0  0  0
  185.2540  174.8370  137.3100 C   0  0  0  0  0  2  0  0  0  0  0  0
  191.3300  176.2830  138.3730 C   0  0  2  0  0  3  0  0  0  0  0  0
  192.1120  177.4440  138.3460 O   0  0  0  0  0  0  0  0  0  0  0  0
  192.7770  177.4670  139.5750 C   0  0  0  0  0  1  0  0  0  0  0  0
  191.8500  175.2890  137.3410 C   0  0  0  0  0  2  0  0  0  0  0  0
  193.4150  175.4640  135.3810 C   0  0  0  0  0  2  0  0  0  0  0  0
  194.9500  173.9390  136.4040 C   0  0  1  0  0  3  0  0  0  0  0  0
  194.0810  174.1230  135.1830 C   0  0  0  0  0  2  0  0  0  0  0  0
  193.2630  175.6370  136.8860 C   0  0  2  0  0  3  0  0  0  0  0  0
  194.2430  174.6680  137.5310 C   0  0  0  0  0  2  0  0  0  0  0  0
  195.0650  172.5690  136.7080 O   0  0  0  0  0  0  0  0  0  0  0  0
  196.2220  172.9460  138.6840 O   0  0  0  0  0  1  0  0  0  0  0  0
  196.2680  172.3290  137.4230 C   0  0  2  0  0  0  0  0  0  0  0  0
  198.2060  173.6710  137.2180 O   0  0  0  0  0  0  0  0  0  0  0  0
  197.4250  172.9200  136.6560 C   0  0  0  0  0  0  0  0  0  0  0  0
  197.6950  172.5320  134.9240 S   0  0  0  0  0  1  0  0  0  0  0  0
  195.4640  170.0020  137.9160 O   0  0  0  0  0  1  0  0  0  0  0  0
  196.5140  170.8460  137.5720 C   0  0  0  0  0  0  0  0  0  0  0  0
  197.6480  170.3560  137.3320 O   0  0  0  0  0  0  0  0  0  0  0  0
  185.4560  179.3900  141.8880 C   0  0  0  0  0  2  0  0  0  0  0  0
  184.9110  178.0060  142.9270 S   0  0  0  0  0  0  0  0  0  0  0  0
  184.7390  179.1000  144.3640 C   0  0  0  0  0  2  0  0  0  0  0  0
  185.9310  177.2250  146.1200 O   0  0  0  0  0  0  0  0  0  0  0  0
  186.5890  178.2680  145.8470 C   0  0  0  0  0  0  0  0  0  0  0  0
  186.0320  179.2750  145.0010 N   0  0  0  0  0  2  0  0  0  0  0  0
  187.9700  178.4580  146.4080 C   0  0  2  0  0  3  0  0  0  0  0  0
  190.2630  177.8350  146.1770 C   0  0  0  0  0  2  0  0  0  0  0  0
  189.0110  178.0550  145.4440 N   0  0  0  0  0  0  0  0  0  0  0  0
  189.7260  176.3340  143.8500 C   0  0  0  0  0  2  0  0  0  0  0  0
  191.3600  177.4020  145.2100 C   0  0  0  0  0  2  0  0  0  0  0  0
  190.9830  176.1420  144.5710 N   0  0  0  0  0  2  0  0  0  0  0  0
  188.6360  176.7750  144.8270 C   0  0  0  0  0  2  0  0  0  0  0  0
  187.7290  178.2440  148.7770 O   0  0  0  0  0  0  0  0  0  0  0  0
  188.5420  176.3490  147.7130 N   0  0  0  0  0  1  0  0  0  0  0  0
  188.0710  177.6930  147.7000 C   0  0  0  0  0  0  0  0  0  0  0  0
  1  4  2  0  0  0  0
  3 32  1  0  0  0  0
  3  1  1  0  0  0  0
  4  8  1  0  0  0  0
  4  2  1  0  0  0  0
  5  6  1  0  0  0  0
  5  1  1  0  0  0  0
  6 13  1  0  0  0  0
  7 11  1  0  0  0  0
  7  3  2  0  0  0  0
  9 10  2  0  0  0  0
 10 50  1  0  0  0  0
 11  5  2  0  0  0  0
 12  6  2  0  0  0  0
 12  9  1  0  0  0  0
 13 10  1  0  0  0  0
 13  8  2  0  0  0  0
 14  9  1  0  0  0  0
 15 14  1  0  0  0  0
 16 15  1  0  0  0  0
 17 16  1  0  0  0  0
 17 18  1  0  0  0  0
 20 18  1  0  0  0  0
 20 19  1  1  0  0  0
 21 20  1  0  0  0  0
 22 21  1  0  0  0  0
 23 29  1  6  0  0  0
 23 22  1  0  0  0  0
 24 26  1  0  0  0  0
 25 24  1  0  0  0  0
 27 28  2  0  0  0  0
 28 24  1  0  0  0  0
 28 23  1  0  0  0  0
 29 31  1  0  0  0  0
 31 30  1  0  0  0  0
 32 35  1  6  0  0  0
 33 32  1  0  0  0  0
 33 34  1  0  0  0  0
 36 39  1  0  0  0  0
 37 41  1  1  0  0  0
 37 40  1  0  0  0  0
 38 36  1  0  0  0  0
 38 37  1  0  0  0  0
 39 35  1  1  0  0  0
 39 40  1  0  0  0  0
 41 43  1  0  0  0  0
 43 48  1  0  0  0  0
 43 42  1  1  0  0  0
 45 44  2  0  0  0  0
 45 43  1  0  0  0  0
 46 45  1  0  0  0  0
 48 47  1  0  0  0  0
 49 48  2  0  0  0  0
 50 51  1  0  0  0  0
 51 52  1  0  0  0  0
 52 55  1  0  0  0  0
 54 53  2  0  0  0  0
 55 54  1  0  0  0  0
 56 54  1  6  0  0  0
 56 65  1  0  0  0  0
 58 57  1  0  0  0  0
 58 56  1  0  0  0  0
 59 61  1  0  0  0  0
 59 62  1  0  0  0  0
 60 57  1  0  0  0  0
 61 60  1  0  0  0  0
 62 58  1  0  0  0  0
 65 64  1  0  0  0  0
 65 63  2  0  0  0  0
M  END
>  <MODEL>
4

>  <REMARK>
 VINA RESULT:      -5.2      2.211      8.581
  Name = 
  27 active torsions:
  status: ('A' for Active; 'I' for Inactive)
    1  A    between atoms: C_4  and  C_12
    2  A    between atoms: N_9  and  C_25
    3  A    between atoms: N_9  and  C_52
    4  A    between atoms: C_11  and  C_36
    5  A    between atoms: C_11  and  S_62
    6  A    between atoms: C_12  and  C_23
    7  A    between atoms: C_12  and  O_42
    8  A    between atoms: C_14  and  N_21
    9  A    between atoms: C_14  and  C_33
   10  A    between atoms: C_14  and  C_40
   11  A    between atoms: C_15  and  C_54
   12  A    between atoms: C_15  and  C_65
   13  A    between atoms: C_19  and  C_27
   14  A    between atoms: C_19  and  C_31
   15  A    between atoms: C_19  and  O_43
   16  A    between atoms: C_23  and  C_55
   17  A    between atoms: C_25  and  C_29
   18  A    between atoms: C_34  and  O_43
   19  A    between atoms: C_48  and  N_49
   20  A    between atoms: C_48  and  C_53
   21  A    between atoms: N_49  and  C_59
   22  A    between atoms: C_52  and  N_61
   23  A    between atoms: C_53  and  N_61
   24  A    between atoms: C_54  and  C_57
   25  A    between atoms: C_54  and  C_59
   26  A    between atoms: C_60  and  S_62
   27  A    between atoms: C_60  and  N_63
                            x       y       z     vdW  Elec       q    Type
                         _______ _______ _______ _____ _____    ______ ____

>  <TORSDO>
F 27

$$$$
=
 OpenBabel10222418343D

 65 69  0  0  1  0  0  0  0  0999 V2000
  188.1940  177.7140  142.9250 C   0  0  0  0  0  0  0  0  0  0  0  0
  186.1000  178.7990  141.9760 C   0  0  0  0  0  1  0  0  0  0  0  0
  187.9620  177.6630  144.2330 C   0  0  0  0  0  0  0  0  0  0  0  0
  187.4690  178.2350  141.8280 C   0  0  0  0  0  0  0  0  0  0  0  0
  189.4440  177.1800  142.7530 C   0  0  0  0  0  0  0  0  0  0  0  0
  190.0250  177.1660  141.4960 C   0  0  0  0  0  0  0  0  0  0  0  0
  189.1130  177.0970  144.8830 N   0  0  0  0  0  0  0  0  0  0  0  0
  188.0630  178.2190  140.5900 N   0  0  0  0  0  0  0  0  0  0  0  0
  191.3360  177.0410  139.7290 C   0  0  0  0  0  0  0  0  0  0  0  0
  190.0520  177.6560  139.3480 C   0  0  0  0  0  0  0  0  0  0  0  0
  189.9920  176.8070  144.0060 N   0  0  0  0  0  0  0  0  0  0  0  0
  191.3430  176.7460  141.0330 C   0  0  0  0  0  3  0  0  0  0  0  0
  189.3180  177.6960  140.4420 C   0  0  0  0  0  0  0  0  0  0  0  0
  192.5000  176.8350  138.8230 C   0  0  0  0  0  2  0  0  0  0  0  0
  192.7960  175.4160  138.7070 N   0  0  0  0  0  2  0  0  0  0  0  0
  192.3710  175.0060  137.3810 C   0  0  0  0  0  2  0  0  0  0  0  0
  192.9630  175.8810  136.3850 N   0  0  0  0  0  2  0  0  0  0  0  0
  194.2210  175.2760  135.9830 C   0  0  0  0  0  2  0  0  0  0  0  0
  193.1600  173.1350  136.3180 O   0  0  0  0  0  1  0  0  0  0  0  0
  193.9860  173.8630  135.4550 C   0  0  2  0  0  3  0  0  0  0  0  0
  195.2480  173.1540  135.2330 N   0  0  0  0  0  2  0  0  0  0  0  0
  196.3830  174.0250  135.5400 C   0  0  0  0  0  2  0  0  0  0  0  0
  197.2200  173.4640  136.6940 C   0  0  1  0  0  3  0  0  0  0  0  0
  196.2820  174.1460  138.9530 N   0  0  0  0  0  0  0  0  0  0  0  0
  196.3010  174.9730  140.1480 C   0  0  0  0  0  1  0  0  0  0  0  0
  195.3590  173.1600  138.8520 O   0  0  0  0  0  1  0  0  0  0  0  0
  198.0200  175.3410  137.9490 O   0  0  0  0  0  0  0  0  0  0  0  0
  197.2170  174.3700  137.8900 C   0  0  0  0  0  0  0  0  0  0  0  0
  196.8130  172.0480  137.0790 C   0  0  0  0  0  2  0  0  0  0  0  0
  199.1780  171.8500  136.9370 O   0  0  0  0  0  1  0  0  0  0  0  0
  197.9960  171.1090  136.9480 C   0  0  0  0  0  2  0  0  0  0  0  0
  186.8040  178.2760  144.9550 C   0  0  2  0  0  3  0  0  0  0  0  0
  186.7100  177.7210  146.2370 O   0  0  0  0  0  0  0  0  0  0  0  0
  186.6640  178.8130  147.1070 C   0  0  0  0  0  1  0  0  0  0  0  0
  185.5140  178.0160  144.1860 C   0  0  0  0  0  2  0  0  0  0  0  0
  183.4560  178.9400  145.2970 C   0  0  0  0  0  2  0  0  0  0  0  0
  182.3750  179.2200  143.1800 C   0  0  1  0  0  3  0  0  0  0  0  0
  182.2490  178.5010  144.5020 C   0  0  0  0  0  2  0  0  0  0  0  0
  184.5570  179.1990  144.2780 C   0  0  2  0  0  3  0  0  0  0  0  0
  183.8650  179.3800  142.9350 C   0  0  0  0  0  2  0  0  0  0  0  0
  181.7960  178.4450  142.1570 O   0  0  0  0  0  0  0  0  0  0  0  0
  180.3220  180.2280  142.3470 O   0  0  0  0  0  1  0  0  0  0  0  0
  180.7590  179.1780  141.5210 C   0  0  2  0  0  0  0  0  0  0  0  0
  179.0580  177.6830  142.2060 O   0  0  0  0  0  0  0  0  0  0  0  0
  179.5870  178.2630  141.2710 C   0  0  0  0  0  0  0  0  0  0  0  0
  178.9310  178.0130  139.6180 S   0  0  0  0  0  1  0  0  0  0  0  0
  180.6650  180.8820  139.6790 O   0  0  0  0  0  1  0  0  0  0  0  0
  181.2260  179.7170  140.1890 C   0  0  0  0  0  0  0  0  0  0  0  0
  182.1600  179.1540  139.5610 O   0  0  0  0  0  0  0  0  0  0  0  0
  189.6700  178.1790  138.0050 C   0  0  0  0  0  2  0  0  0  0  0  0
  188.6930  176.9430  137.1040 S   0  0  0  0  0  0  0  0  0  0  0  0
  187.2110  177.9850  137.2030 C   0  0  0  0  0  2  0  0  0  0  0  0
  186.4680  176.6840  134.8000 O   0  0  0  0  0  0  0  0  0  0  0  0
  185.7330  176.5040  135.8120 C   0  0  0  0  0  0  0  0  0  0  0  0
  186.0260  177.1620  137.0450 N   0  0  0  0  0  2  0  0  0  0  0  0
  184.5430  175.5900  135.7270 C   0  0  2  0  0  3  0  0  0  0  0  0
  183.1050  177.4840  135.9310 C   0  0  0  0  0  2  0  0  0  0  0  0
  183.3810  176.1390  136.4500 N   0  0  0  0  0  0  0  0  0  0  0  0
  180.9810  175.8950  136.8920 C   0  0  0  0  0  2  0  0  0  0  0  0
  181.8970  178.0780  136.6480 C   0  0  0  0  0  2  0  0  0  0  0  0
  180.7200  177.2460  136.3990 N   0  0  0  0  0  2  0  0  0  0  0  0
  182.1980  175.3130  136.1730 C   0  0  0  0  0  2  0  0  0  0  0  0
  185.6890  174.1510  137.2550 O   0  0  0  0  0  0  0  0  0  0  0  0
  184.4740  173.0480  135.6140 N   0  0  0  0  0  1  0  0  0  0  0  0
  184.9420  174.2350  136.2470 C   0  0  0  0  0  0  0  0  0  0  0  0
  1  3  2  0  0  0  0
  3  7  1  0  0  0  0
  3 32  1  0  0  0  0
  4  2  1  0  0  0  0
  4  1  1  0  0  0  0
  5  1  1  0  0  0  0
  5 11  1  0  0  0  0
  6  5  2  0  0  0  0
  8  4  2  0  0  0  0
  9 12  2  0  0  0  0
 10  9  1  0  0  0  0
 10 13  2  0  0  0  0
 11  7  2  0  0  0  0
 12  6  1  0  0  0  0
 13  8  1  0  0  0  0
 13  6  1  0  0  0  0
 14  9  1  0  0  0  0
 15 14  1  0  0  0  0
 16 15  1  0  0  0  0
 17 16  1  0  0  0  0
 18 17  1  0  0  0  0
 20 18  1  0  0  0  0
 20 19  1  1  0  0  0
 21 20  1  0  0  0  0
 21 22  1  0  0  0  0
 23 22  1  6  0  0  0
 23 29  1  0  0  0  0
 23 28  1  0  0  0  0
 24 25  1  0  0  0  0
 26 24  1  0  0  0  0
 28 27  2  0  0  0  0
 28 24  1  0  0  0  0
 30 31  1  0  0  0  0
 31 29  1  0  0  0  0
 32 35  1  6  0  0  0
 32 33  1  0  0  0  0
 33 34  1  0  0  0  0
 37 41  1  6  0  0  0
 37 38  1  0  0  0  0
 38 36  1  0  0  0  0
 39 35  1  6  0  0  0
 39 36  1  0  0  0  0
 40 37  1  0  0  0  0
 40 39  1  0  0  0  0
 43 41  1  0  0  0  0
 43 42  1  1  0  0  0
 45 43  1  0  0  0  0
 45 44  2  0  0  0  0
 46 45  1  0  0  0  0
 47 48  1  0  0  0  0
 48 43  1  0  0  0  0
 49 48  2  0  0  0  0
 50 10  1  0  0  0  0
 51 52  1  0  0  0  0
 51 50  1  0  0  0  0
 53 54  2  0  0  0  0
 54 55  1  0  0  0  0
 55 52  1  0  0  0  0
 56 54  1  1  0  0  0
 56 65  1  0  0  0  0
 56 58  1  0  0  0  0
 57 58  1  0  0  0  0
 57 60  1  0  0  0  0
 61 60  1  0  0  0  0
 61 59  1  0  0  0  0
 62 58  1  0  0  0  0
 62 59  1  0  0  0  0
 64 65  1  0  0  0  0
 65 63  2  0  0  0  0
M  END
>  <MODEL>
5

>  <REMARK>
 VINA RESULT:      -5.2      2.856     10.440
  Name = 
  27 active torsions:
  status: ('A' for Active; 'I' for Inactive)
    1  A    between atoms: C_4  and  C_12
    2  A    between atoms: N_9  and  C_25
    3  A    between atoms: N_9  and  C_52
    4  A    between atoms: C_11  and  C_36
    5  A    between atoms: C_11  and  S_62
    6  A    between atoms: C_12  and  C_23
    7  A    between atoms: C_12  and  O_42
    8  A    between atoms: C_14  and  N_21
    9  A    between atoms: C_14  and  C_33
   10  A    between atoms: C_14  and  C_40
   11  A    between atoms: C_15  and  C_54
   12  A    between atoms: C_15  and  C_65
   13  A    between atoms: C_19  and  C_27
   14  A    between atoms: C_19  and  C_31
   15  A    between atoms: C_19  and  O_43
   16  A    between atoms: C_23  and  C_55
   17  A    between atoms: C_25  and  C_29
   18  A    between atoms: C_34  and  O_43
   19  A    between atoms: C_48  and  N_49
   20  A    between atoms: C_48  and  C_53
   21  A    between atoms: N_49  and  C_59
   22  A    between atoms: C_52  and  N_61
   23  A    between atoms: C_53  and  N_61
   24  A    between atoms: C_54  and  C_57
   25  A    between atoms: C_54  and  C_59
   26  A    between atoms: C_60  and  S_62
   27  A    between atoms: C_60  and  N_63
                            x       y       z     vdW  Elec       q    Type
                         _______ _______ _______ _____ _____    ______ ____

>  <TORSDO>
F 27

$$$$
=
 OpenBabel10222418343D

 65 69  0  0  1  0  0  0  0  0999 V2000
  188.5310  177.4550  140.5180 C   0  0  0  0  0  0  0  0  0  0  0  0
  188.4700  178.0520  138.0480 C   0  0  0  0  0  1  0  0  0  0  0  0
  189.6750  176.7920  140.6580 C   0  0  0  0  0  0  0  0  0  0  0  0
  187.8650  178.0210  139.4070 C   0  0  0  0  0  0  0  0  0  0  0  0
  187.9570  177.4630  141.7620 C   0  0  0  0  0  0  0  0  0  0  0  0
  186.6970  178.0090  141.9410 C   0  0  0  0  0  0  0  0  0  0  0  0
  189.7960  176.3660  142.0250 N   0  0  0  0  0  0  0  0  0  0  0  0
  186.6140  178.5520  139.6020 N   0  0  0  0  0  0  0  0  0  0  0  0
  184.7110  178.6640  142.6360 C   0  0  0  0  0  0  0  0  0  0  0  0
  184.8480  178.9440  141.1970 C   0  0  0  0  0  0  0  0  0  0  0  0
  188.7800  176.7650  142.6830 N   0  0  0  0  0  0  0  0  0  0  0  0
  185.8220  178.0850  143.1050 C   0  0  0  0  0  3  0  0  0  0  0  0
  186.0510  178.5350  140.8480 C   0  0  0  0  0  0  0  0  0  0  0  0
  183.4930  178.9140  143.4570 C   0  0  0  0  0  2  0  0  0  0  0  0
  183.6920  178.4180  144.8090 N   0  0  0  0  0  2  0  0  0  0  0  0
  184.7940  179.1760  145.3740 C   0  0  0  0  0  2  0  0  0  0  0  0
  185.1500  178.6300  146.6720 N   0  0  0  0  0  2  0  0  0  0  0  0
  186.5840  178.7980  146.8230 C   0  0  0  0  0  2  0  0  0  0  0  0
  187.8730  178.1070  148.7410 O   0  0  0  0  0  1  0  0  0  0  0  0
  187.1750  177.6400  147.6220 C   0  0  2  0  0  3  0  0  0  0  0  0
  188.0400  176.7990  146.7930 N   0  0  0  0  0  2  0  0  0  0  0  0
  189.4180  176.8420  147.2840 C   0  0  0  0  0  2  0  0  0  0  0  0
  190.4230  176.8230  146.1290 C   0  0  1  0  0  3  0  0  0  0  0  0
  191.2560  178.2430  144.1960 N   0  0  0  0  0  0  0  0  0  0  0  0
  191.2230  179.4520  143.3900 C   0  0  0  0  0  1  0  0  0  0  0  0
  192.1020  177.2440  143.8450 O   0  0  0  0  0  1  0  0  0  0  0  0
  189.6920  179.0680  145.7220 O   0  0  0  0  0  0  0  0  0  0  0  0
  190.4170  178.1050  145.3500 C   0  0  0  0  0  0  0  0  0  0  0  0
  191.8310  176.4640  146.5840 C   0  0  0  0  0  2  0  0  0  0  0  0
  192.8530  175.6890  148.5850 O   0  0  0  0  0  1  0  0  0  0  0  0
  191.7760  175.4700  147.7260 C   0  0  0  0  0  2  0  0  0  0  0  0
  190.5940  176.3640  139.5580 C   0  0  2  0  0  3  0  0  0  0  0  0
  191.8990  176.2620  140.0570 O   0  0  0  0  0  0  0  0  0  0  0  0
  192.2940  177.5770  140.3220 C   0  0  0  0  0  1  0  0  0  0  0  0
  190.5560  177.3780  138.4220 C   0  0  0  0  0  2  0  0  0  0  0  0
  190.2370  175.3060  137.0340 C   0  0  0  0  0  2  0  0  0  0  0  0
  192.5980  175.1070  136.6940 C   0  0  1  0  0  3  0  0  0  0  0  0
  191.4070  174.3840  137.2790 C   0  0  0  0  0  2  0  0  0  0  0  0
  190.8030  176.7190  137.0700 C   0  0  2  0  0  3  0  0  0  0  0  0
  192.3030  176.5880  136.8500 C   0  0  0  0  0  2  0  0  0  0  0  0
  193.7630  174.7670  137.4090 O   0  0  0  0  0  0  0  0  0  0  0  0
  194.4190  174.6300  135.1870 O   0  0  0  0  0  1  0  0  0  0  0  0
  194.7690  174.3200  136.5120 C   0  0  2  0  0  0  0  0  0  0  0  0
  194.2480  172.0990  135.8830 O   0  0  0  0  0  0  0  0  0  0  0  0
  194.8990  172.8210  136.6210 C   0  0  0  0  0  0  0  0  0  0  0  0
  196.0090  172.0630  137.8110 S   0  0  0  0  0  1  0  0  0  0  0  0
  196.7150  175.8120  135.9730 O   0  0  0  0  0  0  0  0  0  0  0  0
  196.1050  174.9330  136.8590 C   0  0  0  0  0  0  0  0  0  0  0  0
  196.6480  174.7010  137.9710 O   0  0  0  0  0  1  0  0  0  0  0  0
  183.8140  179.5280  140.2940 C   0  0  0  0  0  2  0  0  0  0  0  0
  183.5090  178.4200  138.8890 S   0  0  0  0  0  0  0  0  0  0  0  0
  182.1350  177.6230  139.7640 C   0  0  0  0  0  2  0  0  0  0  0  0
  180.7070  176.5710  137.5570 O   0  0  0  0  0  0  0  0  0  0  0  0
  181.3740  175.7600  138.2600 C   0  0  0  0  0  0  0  0  0  0  0  0
  182.0840  176.2160  139.4120 N   0  0  0  0  0  2  0  0  0  0  0  0
  181.4280  174.3050  137.8870 C   0  0  2  0  0  3  0  0  0  0  0  0
  183.7960  174.5680  137.7470 C   0  0  0  0  0  2  0  0  0  0  0  0
  182.6220  173.9930  137.0800 N   0  0  0  0  0  0  0  0  0  0  0  0
  184.0700  172.2070  136.2270 C   0  0  0  0  0  2  0  0  0  0  0  0
  185.0540  174.2510  136.9440 C   0  0  0  0  0  2  0  0  0  0  0  0
  185.2390  172.8020  136.8720 N   0  0  0  0  0  2  0  0  0  0  0  0
  182.8150  172.5370  137.0340 C   0  0  0  0  0  2  0  0  0  0  0  0
  180.1720  173.7520  135.9290 O   0  0  0  0  0  0  0  0  0  0  0  0
  178.9310  173.8160  137.8880 N   0  0  0  0  0  1  0  0  0  0  0  0
  180.1540  173.9460  137.1710 C   0  0  0  0  0  0  0  0  0  0  0  0
  1  3  2  0  0  0  0
  1  5  1  0  0  0  0
  2  4  1  0  0  0  0
  3  7  1  0  0  0  0
  4  8  2  0  0  0  0
  4  1  1  0  0  0  0
  5  6  2  0  0  0  0
  5 11  1  0  0  0  0
  6 12  1  0  0  0  0
  7 11  2  0  0  0  0
  8 13  1  0  0  0  0
  9 12  2  0  0  0  0
  9 14  1  0  0  0  0
 10  9  1  0  0  0  0
 13 10  2  0  0  0  0
 13  6  1  0  0  0  0
 14 15  1  0  0  0  0
 15 16  1  0  0  0  0
 16 17  1  0  0  0  0
 17 18  1  0  0  0  0
 18 20  1  0  0  0  0
 20 19  1  1  0  0  0
 21 22  1  0  0  0  0
 21 20  1  0  0  0  0
 23 29  1  1  0  0  0
 23 22  1  0  0  0  0
 24 28  1  0  0  0  0
 25 24  1  0  0  0  0
 26 24  1  0  0  0  0
 28 27  2  0  0  0  0
 28 23  1  0  0  0  0
 29 31  1  0  0  0  0
 31 30  1  0  0  0  0
 32 35  1  6  0  0  0
 32 33  1  0  0  0  0
 32  3  1  0  0  0  0
 33 34  1  0  0  0  0
 36 39  1  0  0  0  0
 36 38  1  0  0  0  0
 37 40  1  0  0  0  0
 37 38  1  0  0  0  0
 37 41  1  1  0  0  0
 39 35  1  1  0  0  0
 40 39  1  0  0  0  0
 43 42  1  6  0  0  0
 43 45  1  0  0  0  0
 43 48  1  0  0  0  0
 43 41  1  0  0  0  0
 44 45  2  0  0  0  0
 45 46  1  0  0  0  0
 47 48  2  0  0  0  0
 48 49  1  0  0  0  0
 50 10  1  0  0  0  0
 51 52  1  0  0  0  0
 51 50  1  0  0  0  0
 53 54  2  0  0  0  0
 54 55  1  0  0  0  0
 55 52  1  0  0  0  0
 56 65  1  6  0  0  0
 56 54  1  0  0  0  0
 58 57  1  0  0  0  0
 58 56  1  0  0  0  0
 59 61  1  0  0  0  0
 59 62  1  0  0  0  0
 60 57  1  0  0  0  0
 61 60  1  0  0  0  0
 62 58  1  0  0  0  0
 63 65  2  0  0  0  0
 65 64  1  0  0  0  0
M  END
>  <MODEL>
6

>  <REMARK>
 VINA RESULT:      -4.8      1.622      2.584
  Name = 
  27 active torsions:
  status: ('A' for Active; 'I' for Inactive)
    1  A    between atoms: C_4  and  C_12
    2  A    between atoms: N_9  and  C_25
    3  A    between atoms: N_9  and  C_52
    4  A    between atoms: C_11  and  C_36
    5  A    between atoms: C_11  and  S_62
    6  A    between atoms: C_12  and  C_23
    7  A    between atoms: C_12  and  O_42
    8  A    between atoms: C_14  and  N_21
    9  A    between atoms: C_14  and  C_33
   10  A    between atoms: C_14  and  C_40
   11  A    between atoms: C_15  and  C_54
   12  A    between atoms: C_15  and  C_65
   13  A    between atoms: C_19  and  C_27
   14  A    between atoms: C_19  and  C_31
   15  A    between atoms: C_19  and  O_43
   16  A    between atoms: C_23  and  C_55
   17  A    between atoms: C_25  and  C_29
   18  A    between atoms: C_34  and  O_43
   19  A    between atoms: C_48  and  N_49
   20  A    between atoms: C_48  and  C_53
   21  A    between atoms: N_49  and  C_59
   22  A    between atoms: C_52  and  N_61
   23  A    between atoms: C_53  and  N_61
   24  A    between atoms: C_54  and  C_57
   25  A    between atoms: C_54  and  C_59
   26  A    between atoms: C_60  and  S_62
   27  A    between atoms: C_60  and  N_63
                            x       y       z     vdW  Elec       q    Type
                         _______ _______ _______ _____ _____    ______ ____

>  <TORSDO>
F 27

$$$$
=
 OpenBabel10222418343D

 65 69  0  0  1  0  0  0  0  0999 V2000
  186.9870  177.9380  140.3050 C   0  0  0  0  0  0  0  0  0  0  0  0
  188.9800  176.9150  141.5070 C   0  0  0  0  0  1  0  0  0  0  0  0
  187.4160  178.1000  139.0570 C   0  0  0  0  0  0  0  0  0  0  0  0
  187.5990  177.4690  141.4910 C   0  0  0  0  0  0  0  0  0  0  0  0
  185.7050  178.4220  140.3180 C   0  0  0  0  0  0  0  0  0  0  0  0
  184.9980  178.4780  141.5070 C   0  0  0  0  0  0  0  0  0  0  0  0
  186.3700  178.7170  138.2870 N   0  0  0  0  0  0  0  0  0  0  0  0
  186.8850  177.5380  142.6610 N   0  0  0  0  0  0  0  0  0  0  0  0
  183.5810  178.8350  143.1570 C   0  0  0  0  0  0  0  0  0  0  0  0
  184.8150  178.2300  143.6880 C   0  0  0  0  0  0  0  0  0  0  0  0
  185.3530  178.9060  139.0320 N   0  0  0  0  0  0  0  0  0  0  0  0
  183.6770  179.0040  141.8340 C   0  0  0  0  0  3  0  0  0  0  0  0
  185.6120  178.0390  142.6560 C   0  0  0  0  0  0  0  0  0  0  0  0
  182.4110  179.2720  143.9690 C   0  0  0  0  0  2  0  0  0  0  0  0
  181.2120  179.2880  143.1470 N   0  0  0  0  0  2  0  0  0  0  0  0
  180.1690  178.6350  143.9170 C   0  0  0  0  0  2  0  0  0  0  0  0
  179.2860  177.9040  143.0250 N   0  0  0  0  0  2  0  0  0  0  0  0
  179.0040  178.7780  141.8990 C   0  0  0  0  0  2  0  0  0  0  0  0
  179.8910  176.9110  140.6570 O   0  0  0  0  0  1  0  0  0  0  0  0
  178.9930  177.9810  140.5970 C   0  0  2  0  0  3  0  0  0  0  0  0
  179.2850  178.8330  139.4430 N   0  0  0  0  0  2  0  0  0  0  0  0
  180.5230  179.5820  139.6610 C   0  0  0  0  0  2  0  0  0  0  0  0
  181.2280  179.8910  138.3370 C   0  0  1  0  0  3  0  0  0  0  0  0
  180.7270  182.2470  137.5330 N   0  0  0  0  0  0  0  0  0  0  0  0
  181.0370  183.6650  137.4580 C   0  0  0  0  0  1  0  0  0  0  0  0
  179.6000  181.7900  136.9370 O   0  0  0  0  0  1  0  0  0  0  0  0
  182.6910  181.7540  138.6990 O   0  0  0  0  0  0  0  0  0  0  0  0
  181.6010  181.3400  138.2180 C   0  0  0  0  0  0  0  0  0  0  0  0
  182.4320  178.9930  138.0900 C   0  0  0  0  0  2  0  0  0  0  0  0
  183.1220  177.0860  136.8500 O   0  0  0  0  0  1  0  0  0  0  0  0
  182.0020  177.7200  137.3890 C   0  0  0  0  0  2  0  0  0  0  0  0
  188.8100  177.8830  138.5610 C   0  0  2  0  0  3  0  0  0  0  0  0
  189.6100  178.9690  138.9350 O   0  0  0  0  0  0  0  0  0  0  0  0
  189.2670  179.9990  138.0540 C   0  0  0  0  0  1  0  0  0  0  0  0
  188.8080  177.7440  137.0440 C   0  0  0  0  0  2  0  0  0  0  0  0
  189.3010  175.4010  137.8110 C   0  0  0  0  0  2  0  0  0  0  0  0
  191.3710  175.3870  136.6090 C   0  0  1  0  0  3  0  0  0  0  0  0
  190.7930  175.2660  138.0000 C   0  0  0  0  0  2  0  0  0  0  0  0
  189.1120  176.3150  136.6090 C   0  0  2  0  0  3  0  0  0  0  0  0
  190.4290  176.3010  135.8460 C   0  0  0  0  0  2  0  0  0  0  0  0
  192.6560  175.9590  136.6730 O   0  0  0  0  0  0  0  0  0  0  0  0
  192.9440  174.3880  134.9890 O   0  0  0  0  0  1  0  0  0  0  0  0
  193.5890  175.1350  135.9890 C   0  0  2  0  0  0  0  0  0  0  0  0
  194.1010  172.9650  136.7840 O   0  0  0  0  0  0  0  0  0  0  0  0
  194.2050  174.1680  136.9690 C   0  0  0  0  0  0  0  0  0  0  0  0
  195.1110  174.7440  138.4080 S   0  0  0  0  0  1  0  0  0  0  0  0
  194.8490  177.2950  135.7700 O   0  0  0  0  0  1  0  0  0  0  0  0
  194.6980  175.9660  135.3910 C   0  0  0  0  0  0  0  0  0  0  0  0
  195.5270  175.4540  134.5940 O   0  0  0  0  0  0  0  0  0  0  0  0
  185.1290  177.9370  145.1160 C   0  0  0  0  0  2  0  0  0  0  0  0
  185.6710  179.4470  145.9640 S   0  0  0  0  0  0  0  0  0  0  0  0
  187.3110  179.3360  145.1940 C   0  0  0  0  0  2  0  0  0  0  0  0
  190.0750  178.9310  144.7300 O   0  0  0  0  0  0  0  0  0  0  0  0
  189.5500  178.3160  145.7020 C   0  0  0  0  0  0  0  0  0  0  0  0
  188.1530  178.4420  145.9680 N   0  0  0  0  0  2  0  0  0  0  0  0
  190.3960  177.4470  146.5900 C   0  0  2  0  0  3  0  0  0  0  0  0
  190.8520  176.4050  144.4920 C   0  0  0  0  0  2  0  0  0  0  0  0
  190.7400  176.1710  145.9370 N   0  0  0  0  0  0  0  0  0  0  0  0
  192.4360  174.4150  145.7110 C   0  0  0  0  0  2  0  0  0  0  0  0
  191.2220  175.1050  143.7850 C   0  0  0  0  0  2  0  0  0  0  0  0
  192.5200  174.6360  144.2680 N   0  0  0  0  0  2  0  0  0  0  0  0
  192.0570  175.7210  146.4080 C   0  0  0  0  0  2  0  0  0  0  0  0
  188.9840  176.1930  148.0570 O   0  0  0  0  0  0  0  0  0  0  0  0
  189.7460  178.2030  148.9320 N   0  0  0  0  0  1  0  0  0  0  0  0
  189.6660  177.2370  147.8890 C   0  0  0  0  0  0  0  0  0  0  0  0
  1  5  1  0  0  0  0
  1  4  2  0  0  0  0
  3  1  1  0  0  0  0
  4  2  1  0  0  0  0
  4  8  1  0  0  0  0
  5  6  1  0  0  0  0
  6 12  2  0  0  0  0
  6 13  1  0  0  0  0
  7 11  1  0  0  0  0
  7  3  2  0  0  0  0
  9 10  2  0  0  0  0
  9 14  1  0  0  0  0
 10 50  1  0  0  0  0
 11  5  2  0  0  0  0
 12  9  1  0  0  0  0
 13  8  2  0  0  0  0
 13 10  1  0  0  0  0
 15 16  1  0  0  0  0
 15 14  1  0  0  0  0
 17 16  1  0  0  0  0
 18 17  1  0  0  0  0
 20 19  1  1  0  0  0
 20 18  1  0  0  0  0
 21 22  1  0  0  0  0
 21 20  1  0  0  0  0
 23 29  1  1  0  0  0
 23 22  1  0  0  0  0
 24 28  1  0  0  0  0
 25 24  1  0  0  0  0
 26 24  1  0  0  0  0
 28 23  1  0  0  0  0
 28 27  2  0  0  0  0
 30 31  1  0  0  0  0
 31 29  1  0  0  0  0
 32 35  1  6  0  0  0
 32 33  1  0  0  0  0
 32  3  1  0  0  0  0
 34 33  1  0  0  0  0
 36 38  1  0  0  0  0
 37 41  1  1  0  0  0
 37 38  1  0  0  0  0
 39 35  1  1  0  0  0
 39 36  1  0  0  0  0
 40 37  1  0  0  0  0
 40 39  1  0  0  0  0
 43 42  1  6  0  0  0
 43 41  1  0  0  0  0
 43 45  1  0  0  0  0
 44 45  2  0  0  0  0
 45 46  1  0  0  0  0
 48 47  1  0  0  0  0
 48 43  1  0  0  0  0
 49 48  2  0  0  0  0
 50 51  1  0  0  0  0
 52 51  1  0  0  0  0
 52 55  1  0  0  0  0
 53 54  2  0  0  0  0
 54 55  1  0  0  0  0
 56 54  1  6  0  0  0
 56 65  1  0  0  0  0
 57 58  1  0  0  0  0
 58 62  1  0  0  0  0
 58 56  1  0  0  0  0
 59 62  1  0  0  0  0
 60 61  1  0  0  0  0
 60 57  1  0  0  0  0
 61 59  1  0  0  0  0
 65 63  2  0  0  0  0
 65 64  1  0  0  0  0
M  END
>  <MODEL>
7

>  <REMARK>
 VINA RESULT:      -4.4      2.850      8.842
  Name = 
  27 active torsions:
  status: ('A' for Active; 'I' for Inactive)
    1  A    between atoms: C_4  and  C_12
    2  A    between atoms: N_9  and  C_25
    3  A    between atoms: N_9  and  C_52
    4  A    between atoms: C_11  and  C_36
    5  A    between atoms: C_11  and  S_62
    6  A    between atoms: C_12  and  C_23
    7  A    between atoms: C_12  and  O_42
    8  A    between atoms: C_14  and  N_21
    9  A    between atoms: C_14  and  C_33
   10  A    between atoms: C_14  and  C_40
   11  A    between atoms: C_15  and  C_54
   12  A    between atoms: C_15  and  C_65
   13  A    between atoms: C_19  and  C_27
   14  A    between atoms: C_19  and  C_31
   15  A    between atoms: C_19  and  O_43
   16  A    between atoms: C_23  and  C_55
   17  A    between atoms: C_25  and  C_29
   18  A    between atoms: C_34  and  O_43
   19  A    between atoms: C_48  and  N_49
   20  A    between atoms: C_48  and  C_53
   21  A    between atoms: N_49  and  C_59
   22  A    between atoms: C_52  and  N_61
   23  A    between atoms: C_53  and  N_61
   24  A    between atoms: C_54  and  C_57
   25  A    between atoms: C_54  and  C_59
   26  A    between atoms: C_60  and  S_62
   27  A    between atoms: C_60  and  N_63
                            x       y       z     vdW  Elec       q    Type
                         _______ _______ _______ _____ _____    ______ ____

>  <TORSDO>
F 27

$$$$
=
 OpenBabel10222418343D

 65 69  0  0  1  0  0  0  0  0999 V2000
  186.5670  178.1080  140.1660 C   0  0  0  0  0  0  0  0  0  0  0  0
  188.5640  176.9840  141.2660 C   0  0  0  0  0  1  0  0  0  0  0  0
  186.9690  178.3240  138.9180 C   0  0  0  0  0  0  0  0  0  0  0  0
  187.1960  177.5660  141.3110 C   0  0  0  0  0  0  0  0  0  0  0  0
  185.2960  178.6160  140.2350 C   0  0  0  0  0  0  0  0  0  0  0  0
  184.6180  178.6260  141.4420 C   0  0  0  0  0  0  0  0  0  0  0  0
  185.9200  179.0000  138.2050 N   0  0  0  0  0  0  0  0  0  0  0  0
  186.5100  177.5900  142.5010 N   0  0  0  0  0  0  0  0  0  0  0  0
  183.2480  178.9280  143.1420 C   0  0  0  0  0  0  0  0  0  0  0  0
  184.4810  178.2710  143.6110 C   0  0  0  0  0  0  0  0  0  0  0  0
  184.9250  179.1720  138.9840 N   0  0  0  0  0  0  0  0  0  0  0  0
  183.3170  179.1610  141.8270 C   0  0  0  0  0  3  0  0  0  0  0  0
  185.2490  178.1170  142.5520 C   0  0  0  0  0  0  0  0  0  0  0  0
  182.1070  179.3460  144.0030 C   0  0  0  0  0  2  0  0  0  0  0  0
  180.9240  179.5720  143.1880 N   0  0  0  0  0  2  0  0  0  0  0  0
  179.9050  178.6560  143.6680 C   0  0  0  0  0  2  0  0  0  0  0  0
  179.3590  177.9020  142.5540 N   0  0  0  0  0  2  0  0  0  0  0  0
  178.9880  178.8660  141.5320 C   0  0  0  0  0  2  0  0  0  0  0  0
  180.5120  177.4620  140.2980 O   0  0  0  0  0  1  0  0  0  0  0  0
  179.4970  178.4150  140.1650 C   0  0  2  0  0  3  0  0  0  0  0  0
  179.9580  179.5490  139.3620 N   0  0  0  0  0  2  0  0  0  0  0  0
  181.3080  179.2990  138.8550 C   0  0  0  0  0  2  0  0  0  0  0  0
  181.3520  179.3770  137.3260 C   0  0  1  0  0  3  0  0  0  0  0  0
  182.1380  177.3320  136.0420 N   0  0  0  0  0  0  0  0  0  0  0  0
  181.9070  176.0180  135.4650 C   0  0  0  0  0  1  0  0  0  0  0  0
  183.3770  177.8760  135.9610 O   0  0  0  0  0  1  0  0  0  0  0  0
  179.9050  177.5800  136.6820 O   0  0  0  0  0  0  0  0  0  0  0  0
  181.0750  178.0510  136.6820 C   0  0  0  0  0  0  0  0  0  0  0  0
  180.4390  180.4600  136.7680 C   0  0  0  0  0  2  0  0  0  0  0  0
  180.8320  182.1270  135.1190 O   0  0  0  0  0  1  0  0  0  0  0  0
  180.7900  180.7470  135.3210 C   0  0  0  0  0  2  0  0  0  0  0  0
  188.3470  178.1040  138.3780 C   0  0  2  0  0  3  0  0  0  0  0  0
  189.2340  178.9960  138.9920 O   0  0  0  0  0  0  0  0  0  0  0  0
  190.3860  178.2470  139.2530 C   0  0  0  0  0  1  0  0  0  0  0  0
  188.3570  178.3260  136.8700 C   0  0  0  0  0  2  0  0  0  0  0  0
  188.4080  175.8170  137.0280 C   0  0  0  0  0  2  0  0  0  0  0  0
  190.6570  175.7580  136.2100 C   0  0  1  0  0  3  0  0  0  0  0  0
  189.8080  175.3920  137.4040 C   0  0  0  0  0  2  0  0  0  0  0  0
  188.5690  177.0210  136.1110 C   0  0  2  0  0  3  0  0  0  0  0  0
  189.9980  176.9780  135.5900 C   0  0  0  0  0  2  0  0  0  0  0  0
  191.9630  176.0740  136.6290 O   0  0  0  0  0  0  0  0  0  0  0  0
  192.3780  175.0410  134.5940 O   0  0  0  0  0  1  0  0  0  0  0  0
  192.9100  175.3500  135.8560 C   0  0  2  0  0  0  0  0  0  0  0  0
  192.4090  173.1530  136.5780 O   0  0  0  0  0  0  0  0  0  0  0  0
  193.2330  174.0540  136.5570 C   0  0  0  0  0  0  0  0  0  0  0  0
  194.8200  173.7920  137.3540 S   0  0  0  0  0  1  0  0  0  0  0  0
  195.1450  175.7360  134.7810 O   0  0  0  0  0  0  0  0  0  0  0  0
  194.1910  176.1350  135.7090 C   0  0  0  0  0  0  0  0  0  0  0  0
  194.3810  177.1840  136.3780 O   0  0  0  0  0  1  0  0  0  0  0  0
  184.8210  177.8990  145.0150 C   0  0  0  0  0  2  0  0  0  0  0  0
  185.6500  179.2810  145.8480 S   0  0  0  0  0  0  0  0  0  0  0  0
  187.1720  178.9890  144.9050 C   0  0  0  0  0  2  0  0  0  0  0  0
  189.9560  178.8210  144.4180 O   0  0  0  0  0  0  0  0  0  0  0  0
  189.5030  178.2120  145.4280 C   0  0  0  0  0  0  0  0  0  0  0  0
  188.1040  178.2200  145.7100 N   0  0  0  0  0  2  0  0  0  0  0  0
  190.4380  177.4750  146.3460 C   0  0  2  0  0  3  0  0  0  0  0  0
  190.9060  176.2350  144.3610 C   0  0  0  0  0  2  0  0  0  0  0  0
  190.7790  176.1410  145.8200 N   0  0  0  0  0  0  0  0  0  0  0  0
  192.4630  174.3590  145.7800 C   0  0  0  0  0  2  0  0  0  0  0  0
  191.2740  174.8720  143.7840 C   0  0  0  0  0  2  0  0  0  0  0  0
  192.5630  174.4410  144.3240 N   0  0  0  0  0  2  0  0  0  0  0  0
  192.0870  175.7270  146.3460 C   0  0  0  0  0  2  0  0  0  0  0  0
  190.1090  178.2550  148.5820 O   0  0  0  0  0  0  0  0  0  0  0  0
  188.8680  176.3770  148.0210 N   0  0  0  0  0  1  0  0  0  0  0  0
  189.8070  177.4000  147.7100 C   0  0  0  0  0  0  0  0  0  0  0  0
  1  5  1  0  0  0  0
  1  4  2  0  0  0  0
  2  4  1  0  0  0  0
  3  1  1  0  0  0  0
  4  8  1  0  0  0  0
  5  6  1  0  0  0  0
  6 12  2  0  0  0  0
  6 13  1  0  0  0  0
  7  3  2  0  0  0  0
  7 11  1  0  0  0  0
  8 13  2  0  0  0  0
  9 10  2  0  0  0  0
  9 14  1  0  0  0  0
 10 50  1  0  0  0  0
 11  5  2  0  0  0  0
 12  9  1  0  0  0  0
 13 10  1  0  0  0  0
 15 16  1  0  0  0  0
 15 14  1  0  0  0  0
 17 16  1  0  0  0  0
 18 17  1  0  0  0  0
 20 19  1  1  0  0  0
 20 18  1  0  0  0  0
 21 20  1  0  0  0  0
 22 21  1  0  0  0  0
 23 29  1  6  0  0  0
 23 22  1  0  0  0  0
 24 28  1  0  0  0  0
 25 24  1  0  0  0  0
 26 24  1  0  0  0  0
 28 27  2  0  0  0  0
 28 23  1  0  0  0  0
 30 31  1  0  0  0  0
 31 29  1  0  0  0  0
 32 35  1  6  0  0  0
 32  3  1  0  0  0  0
 32 33  1  0  0  0  0
 33 34  1  0  0  0  0
 36 38  1  0  0  0  0
 37 41  1  1  0  0  0
 37 38  1  0  0  0  0
 39 35  1  1  0  0  0
 39 36  1  0  0  0  0
 40 39  1  0  0  0  0
 40 37  1  0  0  0  0
 43 42  1  6  0  0  0
 43 45  1  0  0  0  0
 43 41  1  0  0  0  0
 45 44  2  0  0  0  0
 45 46  1  0  0  0  0
 47 48  2  0  0  0  0
 48 43  1  0  0  0  0
 48 49  1  0  0  0  0
 50 51  1  0  0  0  0
 52 55  1  0  0  0  0
 52 51  1  0  0  0  0
 53 54  2  0  0  0  0
 54 55  1  0  0  0  0
 56 54  1  6  0  0  0
 56 65  1  0  0  0  0
 57 58  1  0  0  0  0
 58 56  1  0  0  0  0
 58 62  1  0  0  0  0
 59 62  1  0  0  0  0
 60 61  1  0  0  0  0
 60 57  1  0  0  0  0
 61 59  1  0  0  0  0
 65 64  1  0  0  0  0
 65 63  2  0  0  0  0
M  END
>  <MODEL>
8

>  <REMARK>
 VINA RESULT:      -4.3      2.713      9.001
  Name = 
  27 active torsions:
  status: ('A' for Active; 'I' for Inactive)
    1  A    between atoms: C_4  and  C_12
    2  A    between atoms: N_9  and  C_25
    3  A    between atoms: N_9  and  C_52
    4  A    between atoms: C_11  and  C_36
    5  A    between atoms: C_11  and  S_62
    6  A    between atoms: C_12  and  C_23
    7  A    between atoms: C_12  and  O_42
    8  A    between atoms: C_14  and  N_21
    9  A    between atoms: C_14  and  C_33
   10  A    between atoms: C_14  and  C_40
   11  A    between atoms: C_15  and  C_54
   12  A    between atoms: C_15  and  C_65
   13  A    between atoms: C_19  and  C_27
   14  A    between atoms: C_19  and  C_31
   15  A    between atoms: C_19  and  O_43
   16  A    between atoms: C_23  and  C_55
   17  A    between atoms: C_25  and  C_29
   18  A    between atoms: C_34  and  O_43
   19  A    between atoms: C_48  and  N_49
   20  A    between atoms: C_48  and  C_53
   21  A    between atoms: N_49  and  C_59
   22  A    between atoms: C_52  and  N_61
   23  A    between atoms: C_53  and  N_61
   24  A    between atoms: C_54  and  C_57
   25  A    between atoms: C_54  and  C_59
   26  A    between atoms: C_60  and  S_62
   27  A    between atoms: C_60  and  N_63
                            x       y       z     vdW  Elec       q    Type
                         _______ _______ _______ _____ _____    ______ ____

>  <TORSDO>
F 27

$$$$
=
 OpenBabel10222418343D

 65 69  0  0  1  0  0  0  0  0999 V2000
  188.0160  177.3890  141.5960 C   0  0  0  0  0  0  0  0  0  0  0  0
  189.0130  175.6180  143.1240 C   0  0  0  0  0  1  0  0  0  0  0  0
  188.9240  177.5300  140.6360 C   0  0  0  0  0  0  0  0  0  0  0  0
  187.9600  176.6100  142.7750 C   0  0  0  0  0  0  0  0  0  0  0  0
  187.0190  178.2780  141.2910 C   0  0  0  0  0  0  0  0  0  0  0  0
  185.9480  178.4410  142.1540 C   0  0  0  0  0  0  0  0  0  0  0  0
  188.4780  178.5490  139.7250 N   0  0  0  0  0  0  0  0  0  0  0  0
  186.8950  176.7910  143.6220 N   0  0  0  0  0  0  0  0  0  0  0  0
  184.1590  179.0780  143.2720 C   0  0  0  0  0  0  0  0  0  0  0  0
  184.8680  178.0320  144.0290 C   0  0  0  0  0  0  0  0  0  0  0  0
  187.3460  178.9920  140.1100 N   0  0  0  0  0  0  0  0  0  0  0  0
  184.8070  179.3490  142.1330 C   0  0  0  0  0  3  0  0  0  0  0  0
  185.9180  177.6950  143.3080 C   0  0  0  0  0  0  0  0  0  0  0  0
  182.9350  179.7970  143.7240 C   0  0  0  0  0  2  0  0  0  0  0  0
  181.9280  179.7770  142.6740 N   0  0  0  0  0  2  0  0  0  0  0  0
  181.3700  178.4380  142.6570 C   0  0  0  0  0  2  0  0  0  0  0  0
  181.2480  177.9750  141.2850 N   0  0  0  0  0  2  0  0  0  0  0  0
  180.0890  178.6390  140.7160 C   0  0  0  0  0  2  0  0  0  0  0  0
  179.6910  179.8810  138.6870 O   0  0  0  0  0  1  0  0  0  0  0  0
  180.1920  178.6770  139.1930 C   0  0  2  0  0  3  0  0  0  0  0  0
  179.5080  177.5380  138.5780 N   0  0  0  0  0  2  0  0  0  0  0  0
  180.0750  177.2530  137.2600 C   0  0  0  0  0  2  0  0  0  0  0  0
  181.1580  176.1730  137.3400 C   0  0  1  0  0  3  0  0  0  0  0  0
  183.6310  175.8250  136.8820 N   0  0  0  0  0  0  0  0  0  0  0  0
  184.9550  176.3290  136.5580 C   0  0  0  0  0  1  0  0  0  0  0  0
  183.4530  174.4880  137.0160 O   0  0  0  0  0  1  0  0  0  0  0  0
  182.7130  177.9680  137.0270 O   0  0  0  0  0  0  0  0  0  0  0  0
  182.5280  176.7210  137.0690 C   0  0  0  0  0  0  0  0  0  0  0  0
  181.1250  175.4070  138.6560 C   0  0  0  0  0  2  0  0  0  0  0  0
  180.9420  173.0900  138.1550 O   0  0  0  0  0  1  0  0  0  0  0  0
  180.2030  174.2080  138.5420 C   0  0  0  0  0  2  0  0  0  0  0  0
  190.2830  176.9050  140.5980 C   0  0  2  0  0  3  0  0  0  0  0  0
  191.2580  177.9070  140.6630 O   0  0  0  0  0  0  0  0  0  0  0  0
  192.1160  177.5190  141.6960 C   0  0  0  0  0  1  0  0  0  0  0  0
  190.4530  176.1040  139.3130 C   0  0  0  0  0  2  0  0  0  0  0  0
  190.6900  176.7160  136.8860 C   0  0  0  0  0  2  0  0  0  0  0  0
  192.8850  175.7640  136.8070 C   0  0  1  0  0  3  0  0  0  0  0  0
  191.5060  175.6440  136.2030 C   0  0  0  0  0  2  0  0  0  0  0  0
  191.2790  176.8640  138.2820 C   0  0  2  0  0  3  0  0  0  0  0  0
  192.6750  176.2610  138.2260 C   0  0  0  0  0  2  0  0  0  0  0  0
  193.5130  174.5030  136.8220 O   0  0  0  0  0  0  0  0  0  0  0  0
  194.4500  175.2440  134.8330 O   0  0  0  0  0  1  0  0  0  0  0  0
  194.6860  174.5350  136.0230 C   0  0  2  0  0  0  0  0  0  0  0  0
  194.2860  172.2100  135.8390 O   0  0  0  0  0  0  0  0  0  0  0  0
  195.0740  173.1250  135.6560 C   0  0  0  0  0  0  0  0  0  0  0  0
  196.6760  172.7520  134.9360 S   0  0  0  0  0  1  0  0  0  0  0  0
  196.1260  174.7180  138.0720 O   0  0  0  0  0  1  0  0  0  0  0  0
  195.8340  175.1540  136.7850 C   0  0  0  0  0  0  0  0  0  0  0  0
  196.5670  176.0240  136.2460 O   0  0  0  0  0  0  0  0  0  0  0  0
  184.5030  177.4930  145.3710 C   0  0  0  0  0  2  0  0  0  0  0  0
  184.7450  178.7630  146.6450 S   0  0  0  0  0  0  0  0  0  0  0  0
  186.3500  179.2260  145.9350 C   0  0  0  0  0  2  0  0  0  0  0  0
  188.9330  178.5300  145.0050 O   0  0  0  0  0  0  0  0  0  0  0  0
  188.7110  178.4250  146.2440 C   0  0  0  0  0  0  0  0  0  0  0  0
  187.4190  178.7200  146.7760 N   0  0  0  0  0  2  0  0  0  0  0  0
  189.8100  177.9920  147.1730 C   0  0  2  0  0  3  0  0  0  0  0  0
  191.3020  177.0320  145.5760 C   0  0  0  0  0  2  0  0  0  0  0  0
  190.4390  176.7360  146.7260 N   0  0  0  0  0  0  0  0  0  0  0  0
  191.9830  174.9270  147.3260 C   0  0  0  0  0  2  0  0  0  0  0  0
  191.9800  175.7530  145.0950 C   0  0  0  0  0  2  0  0  0  0  0  0
  192.8200  175.2120  146.1620 N   0  0  0  0  0  2  0  0  0  0  0  0
  191.3010  176.2120  147.7940 C   0  0  0  0  0  2  0  0  0  0  0  0
  189.7010  178.6030  149.4830 O   0  0  0  0  0  0  0  0  0  0  0  0
  188.1940  176.9590  148.8450 N   0  0  0  0  0  1  0  0  0  0  0  0
  189.2450  177.8760  148.5630 C   0  0  0  0  0  0  0  0  0  0  0  0
  1  4  2  0  0  0  0
  3  1  1  0  0  0  0
  4  2  1  0  0  0  0
  4  8  1  0  0  0  0
  5  1  1  0  0  0  0
  5  6  1  0  0  0  0
  6 13  1  0  0  0  0
  7 11  1  0  0  0  0
  7  3  2  0  0  0  0
  9 14  1  0  0  0  0
  9 10  2  0  0  0  0
 10 50  1  0  0  0  0
 11  5  2  0  0  0  0
 12  6  2  0  0  0  0
 12  9  1  0  0  0  0
 13  8  2  0  0  0  0
 13 10  1  0  0  0  0
 15 14  1  0  0  0  0
 16 15  1  0  0  0  0
 17 16  1  0  0  0  0
 18 17  1  0  0  0  0
 20 19  1  6  0  0  0
 20 18  1  0  0  0  0
 21 20  1  0  0  0  0
 22 21  1  0  0  0  0
 23 22  1  1  0  0  0
 23 29  1  0  0  0  0
 24 26  1  0  0  0  0
 24 28  1  0  0  0  0
 25 24  1  0  0  0  0
 27 28  2  0  0  0  0
 28 23  1  0  0  0  0
 30 31  1  0  0  0  0
 31 29  1  0  0  0  0
 32 35  1  6  0  0  0
 32  3  1  0  0  0  0
 32 33  1  0  0  0  0
 33 34  1  0  0  0  0
 36 39  1  0  0  0  0
 37 41  1  1  0  0  0
 37 40  1  0  0  0  0
 38 37  1  0  0  0  0
 38 36  1  0  0  0  0
 39 35  1  1  0  0  0
 40 39  1  0  0  0  0
 43 42  1  6  0  0  0
 43 48  1  0  0  0  0
 43 41  1  0  0  0  0
 45 44  2  0  0  0  0
 45 43  1  0  0  0  0
 46 45  1  0  0  0  0
 48 47  1  0  0  0  0
 49 48  2  0  0  0  0
 50 51  1  0  0  0  0
 52 51  1  0  0  0  0
 52 55  1  0  0  0  0
 53 54  2  0  0  0  0
 54 55  1  0  0  0  0
 56 54  1  6  0  0  0
 56 65  1  0  0  0  0
 57 58  1  0  0  0  0
 58 56  1  0  0  0  0
 58 62  1  0  0  0  0
 59 62  1  0  0  0  0
 60 57  1  0  0  0  0
 60 61  1  0  0  0  0
 61 59  1  0  0  0  0
 65 64  1  0  0  0  0
 65 63  2  0  0  0  0
M  END
>  <MODEL>
9

>  <REMARK>
 VINA RESULT:      -4.3      2.359      8.967
  Name = 
  27 active torsions:
  status: ('A' for Active; 'I' for Inactive)
    1  A    between atoms: C_4  and  C_12
    2  A    between atoms: N_9  and  C_25
    3  A    between atoms: N_9  and  C_52
    4  A    between atoms: C_11  and  C_36
    5  A    between atoms: C_11  and  S_62
    6  A    between atoms: C_12  and  C_23
    7  A    between atoms: C_12  and  O_42
    8  A    between atoms: C_14  and  N_21
    9  A    between atoms: C_14  and  C_33
   10  A    between atoms: C_14  and  C_40
   11  A    between atoms: C_15  and  C_54
   12  A    between atoms: C_15  and  C_65
   13  A    between atoms: C_19  and  C_27
   14  A    between atoms: C_19  and  C_31
   15  A    between atoms: C_19  and  O_43
   16  A    between atoms: C_23  and  C_55
   17  A    between atoms: C_25  and  C_29
   18  A    between atoms: C_34  and  O_43
   19  A    between atoms: C_48  and  N_49
   20  A    between atoms: C_48  and  C_53
   21  A    between atoms: N_49  and  C_59
   22  A    between atoms: C_52  and  N_61
   23  A    between atoms: C_53  and  N_61
   24  A    between atoms: C_54  and  C_57
   25  A    between atoms: C_54  and  C_59
   26  A    between atoms: C_60  and  S_62
   27  A    between atoms: C_60  and  N_63
                            x       y       z     vdW  Elec       q    Type
                         _______ _______ _______ _____ _____    ______ ____

>  <TORSDO>
F 27

$$$$
