=
 OpenBabel10222417503D

 53 56  0  0  1  0  0  0  0  0999 V2000
  188.6060  177.5090  141.6230 C   0  0  1  0  0  3  0  0  0  0  0  0
  185.9150  177.5760  137.6810 C   0  0  0  0  0  0  0  0  0  0  0  0
  184.4830  177.6750  138.1080 C   0  0  0  0  0  1  0  0  0  0  0  0
  186.1730  177.0730  136.5160 N   0  0  0  0  0  0  0  0  0  0  0  0
  188.7590  178.1140  136.5250 S   0  0  0  0  0  0  0  0  0  0  0  0
  186.9680  178.3020  138.4760 C   0  0  1  0  0  3  0  0  0  0  0  0
  186.8410  178.2450  139.9780 C   0  0  0  0  0  2  0  0  0  0  0  0
  189.1800  178.3700  139.2770 C   0  0  0  0  0  2  0  0  0  0  0  0
  188.2560  178.5090  140.5010 C   0  0  2  0  0  3  0  0  0  0  0  0
  188.3180  177.7260  138.2280 C   0  0  2  0  0  3  0  0  0  0  0  0
  187.4980  176.9190  135.9110 C   0  0  1  0  0  3  0  0  0  0  0  0
  188.0120  175.4940  136.0980 C   0  0  0  0  0  2  0  0  0  0  0  0
  189.2820  175.3180  135.4020 N   0  0  0  0  0  2  0  0  0  0  0  0
  189.7980  172.9480  135.2160 C   0  0  0  0  0  1  0  0  0  0  0  0
  189.9650  174.2070  136.0490 C   0  0  1  0  0  3  0  0  0  0  0  0
  191.4380  174.5510  136.2770 C   0  0  1  0  0  3  0  0  0  0  0  0
  193.3530  173.7110  135.5500 C   0  0  0  0  0  1  0  0  0  0  0  0
  192.1730  174.3150  135.1110 O   0  0  0  0  0  0  0  0  0  0  0  0
  191.5880  175.9440  136.6860 N   0  0  0  0  0  2  0  0  0  0  0  0
  191.6840  175.9630  138.1410 C   0  0  0  0  0  2  0  0  0  0  0  0
  193.1000  176.3010  138.5680 C   0  0  1  0  0  3  0  0  0  0  0  0
  193.8000  176.8200  137.4800 O   0  0  0  0  0  1  0  0  0  0  0  0
  193.0880  177.3250  139.6880 C   0  0  0  0  0  1  0  0  0  0  0  0
  190.0610  177.3980  141.8350 N   0  0  0  0  0  2  0  0  0  0  0  0
  190.4720  177.9900  143.1090 C   0  0  2  0  0  3  0  0  0  0  0  0
  191.6710  178.6980  142.9550 O   0  0  0  0  0  1  0  0  0  0  0  0
  190.6610  176.9010  144.1410 C   0  0  0  0  0  2  0  0  0  0  0  0
  190.7420  177.4820  145.4050 O   0  0  0  0  0  0  0  0  0  0  0  0
  190.6780  176.4190  146.3130 C   0  0  1  0  0  3  0  0  0  0  0  0
  192.1420  175.5390  147.9540 O   0  0  0  0  0  0  0  0  0  0  0  0
  191.8630  176.4870  147.2290 C   0  0  0  0  0  3  0  0  0  0  0  0
  189.3920  176.5210  147.1250 C   0  0  0  0  0  2  0  0  0  0  0  0
  188.9490  177.9740  147.2340 C   0  0  0  0  0  3  0  0  0  0  0  0
  187.5090  178.0250  147.7050 C   0  0  0  0  0  2  0  0  0  0  0  0
  188.6370  178.2770  148.6860 C   0  0  0  0  0  2  0  0  0  0  0  0
  187.8700  177.7750  142.9530 C   0  0  0  0  0  2  0  0  0  0  0  0
  186.3760  178.0130  142.8000 C   0  0  0  0  0  2  0  0  0  0  0  0
  185.7790  178.3090  144.1630 C   0  0  0  0  0  2  0  0  0  0  0  0
  184.4990  179.1000  144.0090 C   0  0  0  0  0  2  0  0  0  0  0  0
  183.5540  178.6710  145.0220 N   0  0  0  0  0  2  0  0  0  0  0  0
  182.2260  179.0020  144.5350 C   0  0  0  0  0  2  0  0  0  0  0  0
  182.3070  179.4120  143.2060 O   0  0  0  0  0  0  0  0  0  0  0  0
  181.3760  178.6210  142.5300 C   0  0  0  0  0  2  0  0  0  0  0  0
  180.0700  180.7550  142.6000 O   0  0  0  0  0  1  0  0  0  0  0  0
  179.9180  179.4000  140.5440 C   0  0  1  0  0  3  0  0  0  0  0  0
  179.0310  177.4470  141.5920 O   0  0  0  0  0  1  0  0  0  0  0  0
  180.2270  179.4910  142.0300 C   0  0  1  0  0  0  0  0  0  0  0  0
  178.9310  178.8400  141.5710 C   0  0  1  0  0  3  0  0  0  0  0  0
  179.4380  180.6200  140.0600 O   0  0  0  0  0  0  0  0  0  0  0  0
  180.4960  181.1600  139.3260 C   0  0  1  0  0  3  0  0  0  0  0  0
  181.3070  180.1350  138.8420 O   0  0  0  0  0  1  0  0  0  0  0  0
  179.1410  181.2260  137.3480 O   0  0  0  0  0  1  0  0  0  0  0  0
  179.9640  181.9970  138.1720 C   0  0  0  0  0  2  0  0  0  0  0  0
  1 24  1  0  0  0  0
  1 36  1  1  0  0  0
  2  3  1  0  0  0  0
  2  6  1  0  0  0  0
  4  2  2  0  0  0  0
  5 10  1  0  0  0  0
  6  7  1  1  0  0  0
  7  9  1  0  0  0  0
  8  9  1  0  0  0  0
  9  1  1  1  0  0  0
 10  6  1  0  0  0  0
 10  8  1  1  0  0  0
 11 12  1  1  0  0  0
 11  4  1  0  0  0  0
 11  5  1  0  0  0  0
 13 15  1  0  0  0  0
 13 12  1  0  0  0  0
 15 14  1  6  0  0  0
 15 16  1  0  0  0  0
 16 18  1  6  0  0  0
 16 19  1  0  0  0  0
 18 17  1  0  0  0  0
 19 20  1  0  0  0  0
 20 21  1  0  0  0  0
 21 23  1  1  0  0  0
 22 21  1  0  0  0  0
 24 25  1  0  0  0  0
 25 26  1  6  0  0  0
 25 27  1  0  0  0  0
 27 28  1  0  0  0  0
 28 29  1  0  0  0  0
 29 32  1  1  0  0  0
 29 31  1  0  0  0  0
 31 30  2  0  0  0  0
 32 33  1  0  0  0  0
 33 34  1  0  0  0  0
 33 35  1  0  0  0  0
 34 35  1  0  0  0  0
 37 36  1  0  0  0  0
 37 38  1  0  0  0  0
 39 38  1  0  0  0  0
 39 40  1  0  0  0  0
 41 40  1  0  0  0  0
 42 41  1  0  0  0  0
 43 42  1  0  0  0  0
 45 49  1  1  0  0  0
 45 48  1  0  0  0  0
 45 47  1  0  0  0  0
 47 43  1  0  0  0  0
 47 44  1  1  0  0  0
 48 46  1  6  0  0  0
 48 47  1  0  0  0  0
 50 51  1  6  0  0  0
 50 49  1  0  0  0  0
 52 53  1  0  0  0  0
 53 50  1  0  0  0  0
M  END
>  <MODEL>
1

>  <REMARK>
 VINA RESULT:      -5.9      0.000      0.000
  Name = 
  29 active torsions:
  status: ('A' for Active; 'I' for Inactive)
    1  A    between atoms: C_3  and  N_46
    2  A    between atoms: C_3  and  C_53
    3  A    between atoms: C_4  and  C_18
    4  A    between atoms: C_4  and  N_32
    5  A    between atoms: C_5  and  C_20
    6  A    between atoms: C_5  and  C_38
    7  A    between atoms: C_8  and  O_19
    8  A    between atoms: C_9  and  C_10
    9  A    between atoms: C_10  and  C_29
   10  A    between atoms: C_13  and  O_19
   11  A    between atoms: C_13  and  C_36
   12  A    between atoms: O_15  and  C_29
   13  A    between atoms: O_15  and  C_51
   14  A    between atoms: C_16  and  C_20
   15  A    between atoms: C_16  and  C_23
   16  A    between atoms: C_21  and  O_34
   17  A    between atoms: C_21  and  N_45
   18  A    between atoms: C_23  and  C_43
   19  A    between atoms: C_23  and  N_50
   20  A    between atoms: C_25  and  N_32
   21  A    between atoms: C_25  and  O_47
   22  A    between atoms: C_25  and  C_49
   23  A    between atoms: C_26  and  O_34
   24  A    between atoms: C_26  and  C_40
   25  A    between atoms: C_29  and  C_41
   26  A    between atoms: C_30  and  N_50
   27  A    between atoms: C_30  and  C_51
   28  A    between atoms: C_38  and  N_45
   29  A    between atoms: N_46  and  C_49
                            x       y       z     vdW  Elec       q    Type
                         _______ _______ _______ _____ _____    ______ ____

>  <TORSDO>
F 29

$$$$
=
 OpenBabel10222417503D

 53 56  0  0  1  0  0  0  0  0999 V2000
  185.0490  178.3620  140.9650 C   0  0  1  0  0  3  0  0  0  0  0  0
  180.8520  176.6640  139.4540 C   0  0  0  0  0  0  0  0  0  0  0  0
  179.9850  176.4510  140.6570 C   0  0  0  0  0  1  0  0  0  0  0  0
  180.5920  175.9820  138.3840 N   0  0  0  0  0  0  0  0  0  0  0  0
  182.1220  177.6890  136.7990 S   0  0  0  0  0  0  0  0  0  0  0  0
  181.7970  177.8370  139.4300 C   0  0  1  0  0  3  0  0  0  0  0  0
  182.5510  178.1240  140.7040 C   0  0  0  0  0  2  0  0  0  0  0  0
  183.8550  178.7360  138.7280 C   0  0  0  0  0  2  0  0  0  0  0  0
  183.7910  178.9050  140.2560 C   0  0  2  0  0  3  0  0  0  0  0  0
  182.8810  177.6300  138.4320 C   0  0  2  0  0  3  0  0  0  0  0  0
  181.3010  176.0690  137.1060 C   0  0  1  0  0  3  0  0  0  0  0  0
  182.3270  174.9450  136.9830 C   0  0  0  0  0  2  0  0  0  0  0  0
  181.7800  173.8420  136.2000 N   0  0  0  0  0  2  0  0  0  0  0  0
  180.8020  171.9430  137.3620 C   0  0  0  0  0  1  0  0  0  0  0  0
  182.0900  172.6180  136.9240 C   0  0  1  0  0  3  0  0  0  0  0  0
  182.9540  171.6970  136.0610 C   0  0  1  0  0  3  0  0  0  0  0  0
  182.3230  169.7350  135.2520 C   0  0  0  0  0  1  0  0  0  0  0  0
  182.1770  171.1100  135.0570 O   0  0  0  0  0  0  0  0  0  0  0  0
  184.0630  172.4340  135.4640 N   0  0  0  0  0  2  0  0  0  0  0  0
  185.2600  171.6140  135.6090 C   0  0  0  0  0  2  0  0  0  0  0  0
  186.3990  172.4460  136.1680 C   0  0  1  0  0  3  0  0  0  0  0  0
  186.0650  172.8890  137.4460 O   0  0  0  0  0  1  0  0  0  0  0  0
  187.6730  171.6230  136.2420 C   0  0  0  0  0  1  0  0  0  0  0  0
  186.2650  179.1060  140.5880 N   0  0  0  0  0  2  0  0  0  0  0  0
  187.4750  178.3050  140.7800 C   0  0  2  0  0  3  0  0  0  0  0  0
  188.3180  178.9100  141.7210 O   0  0  0  0  0  1  0  0  0  0  0  0
  188.2080  178.1660  139.4650 C   0  0  0  0  0  2  0  0  0  0  0  0
  187.3610  178.5580  138.4290 O   0  0  0  0  0  0  0  0  0  0  0  0
  187.2500  177.4420  137.5920 C   0  0  1  0  0  3  0  0  0  0  0  0
  187.3350  178.1290  135.3270 O   0  0  0  0  0  0  0  0  0  0  0  0
  186.6310  177.8650  136.2940 C   0  0  0  0  0  3  0  0  0  0  0  0
  188.6350  176.8580  137.3360 C   0  0  0  0  0  2  0  0  0  0  0  0
  188.5370  175.3600  137.0770 C   0  0  0  0  0  3  0  0  0  0  0  0
  189.2240  175.0320  135.7670 C   0  0  0  0  0  2  0  0  0  0  0  0
  189.9350  174.7760  137.0810 C   0  0  0  0  0  2  0  0  0  0  0  0
  184.9120  178.2630  142.4990 C   0  0  0  0  0  2  0  0  0  0  0  0
  184.8600  179.6080  143.2060 C   0  0  0  0  0  2  0  0  0  0  0  0
  183.5720  179.6990  144.0030 C   0  0  0  0  0  2  0  0  0  0  0  0
  183.5090  178.5820  145.0200 C   0  0  0  0  0  2  0  0  0  0  0  0
  184.2300  178.9870  146.2120 N   0  0  0  0  0  2  0  0  0  0  0  0
  185.3280  178.0530  146.3850 C   0  0  0  0  0  2  0  0  0  0  0  0
  186.5290  178.7560  146.4620 O   0  0  0  0  0  0  0  0  0  0  0  0
  187.1100  178.3430  147.6620 C   0  0  0  0  0  2  0  0  0  0  0  0
  187.9540  176.0250  147.2390 O   0  0  0  0  0  1  0  0  0  0  0  0
  189.3530  177.9020  146.4570 C   0  0  1  0  0  3  0  0  0  0  0  0
  189.6720  178.8920  148.6050 O   0  0  0  0  0  1  0  0  0  0  0  0
  188.2580  177.3800  147.3750 C   0  0  1  0  0  0  0  0  0  0  0  0
  189.6410  177.6630  147.9410 C   0  0  1  0  0  3  0  0  0  0  0  0
  189.9100  176.8620  145.7060 O   0  0  0  0  0  0  0  0  0  0  0  0
  190.0130  177.3680  144.4080 C   0  0  1  0  0  3  0  0  0  0  0  0
  191.2900  177.8870  144.2050 O   0  0  0  0  0  1  0  0  0  0  0  0
  188.3580  175.9870  143.3560 O   0  0  0  0  0  1  0  0  0  0  0  0
  189.7240  176.2730  143.3920 C   0  0  0  0  0  2  0  0  0  0  0  0
  1 36  1  1  0  0  0
  2  3  1  0  0  0  0
  4  2  2  0  0  0  0
  5 11  1  0  0  0  0
  5 10  1  0  0  0  0
  6  2  1  0  0  0  0
  6  7  1  1  0  0  0
  8  9  1  0  0  0  0
  9  7  1  0  0  0  0
  9  1  1  1  0  0  0
 10  8  1  6  0  0  0
 10  6  1  0  0  0  0
 11 12  1  1  0  0  0
 11  4  1  0  0  0  0
 13 15  1  0  0  0  0
 13 12  1  0  0  0  0
 15 14  1  6  0  0  0
 16 18  1  6  0  0  0
 16 15  1  0  0  0  0
 18 17  1  0  0  0  0
 19 20  1  0  0  0  0
 19 16  1  0  0  0  0
 20 21  1  0  0  0  0
 21 23  1  1  0  0  0
 21 22  1  0  0  0  0
 24 25  1  0  0  0  0
 24  1  1  0  0  0  0
 25 26  1  1  0  0  0
 27 25  1  0  0  0  0
 28 27  1  0  0  0  0
 29 31  1  6  0  0  0
 29 28  1  0  0  0  0
 30 31  2  0  0  0  0
 32 29  1  0  0  0  0
 33 35  1  0  0  0  0
 33 32  1  0  0  0  0
 34 33  1  0  0  0  0
 34 35  1  0  0  0  0
 36 37  1  0  0  0  0
 37 38  1  0  0  0  0
 38 39  1  0  0  0  0
 39 40  1  0  0  0  0
 40 41  1  0  0  0  0
 41 42  1  0  0  0  0
 42 43  1  0  0  0  0
 45 49  1  6  0  0  0
 45 47  1  0  0  0  0
 45 48  1  0  0  0  0
 47 44  1  6  0  0  0
 47 43  1  0  0  0  0
 47 48  1  0  0  0  0
 48 46  1  1  0  0  0
 50 51  1  6  0  0  0
 50 49  1  0  0  0  0
 52 53  1  0  0  0  0
 53 50  1  0  0  0  0
M  END
>  <MODEL>
2

>  <REMARK>
 VINA RESULT:      -5.7      3.906      8.487
  Name = 
  29 active torsions:
  status: ('A' for Active; 'I' for Inactive)
    1  A    between atoms: C_3  and  N_46
    2  A    between atoms: C_3  and  C_53
    3  A    between atoms: C_4  and  C_18
    4  A    between atoms: C_4  and  N_32
    5  A    between atoms: C_5  and  C_20
    6  A    between atoms: C_5  and  C_38
    7  A    between atoms: C_8  and  O_19
    8  A    between atoms: C_9  and  C_10
    9  A    between atoms: C_10  and  C_29
   10  A    between atoms: C_13  and  O_19
   11  A    between atoms: C_13  and  C_36
   12  A    between atoms: O_15  and  C_29
   13  A    between atoms: O_15  and  C_51
   14  A    between atoms: C_16  and  C_20
   15  A    between atoms: C_16  and  C_23
   16  A    between atoms: C_21  and  O_34
   17  A    between atoms: C_21  and  N_45
   18  A    between atoms: C_23  and  C_43
   19  A    between atoms: C_23  and  N_50
   20  A    between atoms: C_25  and  N_32
   21  A    between atoms: C_25  and  O_47
   22  A    between atoms: C_25  and  C_49
   23  A    between atoms: C_26  and  O_34
   24  A    between atoms: C_26  and  C_40
   25  A    between atoms: C_29  and  C_41
   26  A    between atoms: C_30  and  N_50
   27  A    between atoms: C_30  and  C_51
   28  A    between atoms: C_38  and  N_45
   29  A    between atoms: N_46  and  C_49
                            x       y       z     vdW  Elec       q    Type
                         _______ _______ _______ _____ _____    ______ ____

>  <TORSDO>
F 29

$$$$
=
 OpenBabel10222417503D

 53 56  0  0  1  0  0  0  0  0999 V2000
  185.2810  178.4730  138.2180 C   0  0  1  0  0  3  0  0  0  0  0  0
  187.4350  174.4190  136.9090 C   0  0  0  0  0  0  0  0  0  0  0  0
  186.6050  173.2780  137.4110 C   0  0  0  0  0  1  0  0  0  0  0  0
  188.6930  174.2080  136.6810 N   0  0  0  0  0  0  0  0  0  0  0  0
  188.9120  176.5270  135.1510 S   0  0  0  0  0  0  0  0  0  0  0  0
  186.7480  175.6700  136.4280 C   0  0  1  0  0  3  0  0  0  0  0  0
  185.5840  176.1630  137.2520 C   0  0  0  0  0  2  0  0  0  0  0  0
  186.7840  178.0110  136.1930 C   0  0  0  0  0  2  0  0  0  0  0  0
  185.4770  177.6550  136.9240 C   0  0  2  0  0  3  0  0  0  0  0  0
  187.6810  176.8290  136.4310 C   0  0  2  0  0  3  0  0  0  0  0  0
  189.6570  175.1810  136.1650 C   0  0  1  0  0  3  0  0  0  0  0  0
  190.4690  175.7900  137.3050 C   0  0  0  0  0  2  0  0  0  0  0  0
  191.4760  174.8430  137.7730 N   0  0  0  0  0  2  0  0  0  0  0  0
  193.0310  176.5430  138.5520 C   0  0  0  0  0  1  0  0  0  0  0  0
  192.7740  175.4540  137.5250 C   0  0  1  0  0  3  0  0  0  0  0  0
  193.8700  174.3870  137.5350 C   0  0  1  0  0  3  0  0  0  0  0  0
  193.5910  172.3640  136.6810 C   0  0  0  0  0  1  0  0  0  0  0  0
  193.8690  173.6850  136.3260 O   0  0  0  0  0  0  0  0  0  0  0  0
  195.1800  174.9900  137.7580 N   0  0  0  0  0  2  0  0  0  0  0  0
  195.9060  174.9340  136.4950 C   0  0  0  0  0  2  0  0  0  0  0  0
  197.3700  174.6190  136.7470 C   0  0  1  0  0  3  0  0  0  0  0  0
  198.1580  175.6490  136.2370 O   0  0  0  0  0  1  0  0  0  0  0  0
  197.6350  174.4780  138.2360 C   0  0  0  0  0  1  0  0  0  0  0  0
  183.8700  178.8400  138.4350 N   0  0  0  0  0  2  0  0  0  0  0  0
  183.2150  177.9420  139.3880 C   0  0  2  0  0  3  0  0  0  0  0  0
  182.5100  176.9400  138.7110 O   0  0  0  0  0  1  0  0  0  0  0  0
  182.2600  178.7290  140.2570 C   0  0  0  0  0  2  0  0  0  0  0  0
  180.9520  178.4450  139.8670 O   0  0  0  0  0  0  0  0  0  0  0  0
  180.1370  179.2620  140.6580 C   0  0  1  0  0  3  0  0  0  0  0  0
  179.6060  181.4450  139.9090 O   0  0  0  0  0  0  0  0  0  0  0  0
  179.4230  180.2410  139.7760 C   0  0  0  0  0  3  0  0  0  0  0  0
  179.1220  178.4010  141.4010 C   0  0  0  0  0  2  0  0  0  0  0  0
  179.0370  178.8260  142.8620 C   0  0  0  0  0  3  0  0  0  0  0  0
  180.2740  178.3490  143.5960 C   0  0  0  0  0  2  0  0  0  0  0  0
  180.1660  179.7940  143.1500 C   0  0  0  0  0  2  0  0  0  0  0  0
  185.8830  177.8120  139.4750 C   0  0  0  0  0  2  0  0  0  0  0  0
  187.0230  178.5960  140.1050 C   0  0  0  0  0  2  0  0  0  0  0  0
  186.5560  179.1730  141.4290 C   0  0  0  0  0  2  0  0  0  0  0  0
  185.7650  178.1390  142.1970 C   0  0  0  0  0  2  0  0  0  0  0  0
  186.3400  177.9890  143.5190 N   0  0  0  0  0  2  0  0  0  0  0  0
  187.4420  177.0500  143.4030 C   0  0  0  0  0  2  0  0  0  0  0  0
  188.5120  177.4890  144.1800 O   0  0  0  0  0  0  0  0  0  0  0  0
  189.5230  177.7830  143.2640 C   0  0  0  0  0  2  0  0  0  0  0  0
  191.8030  178.5260  143.9820 O   0  0  0  0  0  1  0  0  0  0  0  0
  190.8860  176.4940  145.0410 C   0  0  1  0  0  3  0  0  0  0  0  0
  190.6420  175.2450  143.0220 O   0  0  0  0  0  1  0  0  0  0  0  0
  190.8840  177.4800  143.8830 C   0  0  1  0  0  0  0  0  0  0  0  0
  191.5090  176.1060  143.6970 C   0  0  1  0  0  3  0  0  0  0  0  0
  191.9030  176.7970  145.9500 O   0  0  0  0  0  0  0  0  0  0  0  0
  191.3670  176.4990  147.2050 C   0  0  1  0  0  3  0  0  0  0  0  0
  192.3360  176.6890  148.1890 O   0  0  0  0  0  1  0  0  0  0  0  0
  189.0020  176.6020  147.5930 O   0  0  0  0  0  1  0  0  0  0  0  0
  190.1580  177.3790  147.4840 C   0  0  0  0  0  2  0  0  0  0  0  0
  1 24  1  0  0  0  0
  1 36  1  1  0  0  0
  2  3  1  0  0  0  0
  4  2  2  0  0  0  0
  5 11  1  0  0  0  0
  5 10  1  0  0  0  0
  6 10  1  0  0  0  0
  6  2  1  0  0  0  0
  6  7  1  1  0  0  0
  8  9  1  0  0  0  0
  9  7  1  0  0  0  0
  9  1  1  1  0  0  0
 10  8  1  6  0  0  0
 11  4  1  0  0  0  0
 11 12  1  1  0  0  0
 12 13  1  0  0  0  0
 15 16  1  0  0  0  0
 15 13  1  0  0  0  0
 15 14  1  1  0  0  0
 16 18  1  6  0  0  0
 16 19  1  0  0  0  0
 18 17  1  0  0  0  0
 20 21  1  0  0  0  0
 20 19  1  0  0  0  0
 21 23  1  1  0  0  0
 22 21  1  0  0  0  0
 24 25  1  0  0  0  0
 25 26  1  6  0  0  0
 25 27  1  0  0  0  0
 28 27  1  0  0  0  0
 28 29  1  0  0  0  0
 29 31  1  6  0  0  0
 29 32  1  0  0  0  0
 31 30  2  0  0  0  0
 32 33  1  0  0  0  0
 33 35  1  0  0  0  0
 33 34  1  0  0  0  0
 35 34  1  0  0  0  0
 36 37  1  0  0  0  0
 37 38  1  0  0  0  0
 38 39  1  0  0  0  0
 39 40  1  0  0  0  0
 41 40  1  0  0  0  0
 41 42  1  0  0  0  0
 43 47  1  0  0  0  0
 43 42  1  0  0  0  0
 45 49  1  1  0  0  0
 47 44  1  1  0  0  0
 47 45  1  0  0  0  0
 48 46  1  6  0  0  0
 48 47  1  0  0  0  0
 48 45  1  0  0  0  0
 49 50  1  0  0  0  0
 50 53  1  0  0  0  0
 50 51  1  1  0  0  0
 53 52  1  0  0  0  0
M  END
>  <MODEL>
3

>  <REMARK>
 VINA RESULT:      -5.5      2.096      8.506
  Name = 
  29 active torsions:
  status: ('A' for Active; 'I' for Inactive)
    1  A    between atoms: C_3  and  N_46
    2  A    between atoms: C_3  and  C_53
    3  A    between atoms: C_4  and  C_18
    4  A    between atoms: C_4  and  N_32
    5  A    between atoms: C_5  and  C_20
    6  A    between atoms: C_5  and  C_38
    7  A    between atoms: C_8  and  O_19
    8  A    between atoms: C_9  and  C_10
    9  A    between atoms: C_10  and  C_29
   10  A    between atoms: C_13  and  O_19
   11  A    between atoms: C_13  and  C_36
   12  A    between atoms: O_15  and  C_29
   13  A    between atoms: O_15  and  C_51
   14  A    between atoms: C_16  and  C_20
   15  A    between atoms: C_16  and  C_23
   16  A    between atoms: C_21  and  O_34
   17  A    between atoms: C_21  and  N_45
   18  A    between atoms: C_23  and  C_43
   19  A    between atoms: C_23  and  N_50
   20  A    between atoms: C_25  and  N_32
   21  A    between atoms: C_25  and  O_47
   22  A    between atoms: C_25  and  C_49
   23  A    between atoms: C_26  and  O_34
   24  A    between atoms: C_26  and  C_40
   25  A    between atoms: C_29  and  C_41
   26  A    between atoms: C_30  and  N_50
   27  A    between atoms: C_30  and  C_51
   28  A    between atoms: C_38  and  N_45
   29  A    between atoms: N_46  and  C_49
                            x       y       z     vdW  Elec       q    Type
                         _______ _______ _______ _____ _____    ______ ____

>  <TORSDO>
F 29

$$$$
=
 OpenBabel10222417503D

 53 56  0  0  1  0  0  0  0  0999 V2000
  185.7880  178.2380  143.7750 C   0  0  1  0  0  3  0  0  0  0  0  0
  190.5540  178.5020  143.7090 C   0  0  0  0  0  0  0  0  0  0  0  0
  190.9550  179.7160  144.4900 C   0  0  0  0  0  1  0  0  0  0  0  0
  191.3780  178.0470  142.8200 N   0  0  0  0  0  0  0  0  0  0  0  0
  190.0590  175.5940  142.7040 S   0  0  0  0  0  0  0  0  0  0  0  0
  189.3620  177.7000  144.1620 C   0  0  1  0  0  3  0  0  0  0  0  0
  188.1540  178.4810  144.6160 C   0  0  0  0  0  2  0  0  0  0  0  0
  187.5190  176.3550  143.5890 C   0  0  0  0  0  2  0  0  0  0  0  0
  186.9770  177.5150  144.4430 C   0  0  2  0  0  3  0  0  0  0  0  0
  188.8280  176.8620  143.0550 C   0  0  2  0  0  3  0  0  0  0  0  0
  191.1820  176.8630  141.9800 C   0  0  1  0  0  3  0  0  0  0  0  0
  190.6760  177.2630  140.5970 C   0  0  0  0  0  2  0  0  0  0  0  0
  190.6290  176.0990  139.7180 N   0  0  0  0  0  2  0  0  0  0  0  0
  192.5320  176.4260  138.2380 C   0  0  0  0  0  1  0  0  0  0  0  0
  191.0270  176.5560  138.3940 C   0  0  1  0  0  3  0  0  0  0  0  0
  190.2700  175.7770  137.3160 C   0  0  1  0  0  3  0  0  0  0  0  0
  190.9900  173.7450  136.8120 C   0  0  0  0  0  1  0  0  0  0  0  0
  190.1510  174.4340  137.6890 O   0  0  0  0  0  0  0  0  0  0  0  0
  188.9470  176.3500  137.0930 N   0  0  0  0  0  2  0  0  0  0  0  0
  187.9780  175.2680  137.2110 C   0  0  0  0  0  2  0  0  0  0  0  0
  186.6930  175.6350  136.4920 C   0  0  1  0  0  3  0  0  0  0  0  0
  186.1540  176.7850  137.0660 O   0  0  0  0  0  1  0  0  0  0  0  0
  186.9620  175.8920  135.0200 C   0  0  0  0  0  1  0  0  0  0  0  0
  185.3810  179.4440  144.5190 N   0  0  0  0  0  2  0  0  0  0  0  0
  184.1140  179.2460  145.2260 C   0  0  2  0  0  3  0  0  0  0  0  0
  184.3250  178.5430  146.4190 O   0  0  0  0  0  1  0  0  0  0  0  0
  183.1570  178.4720  144.3490 C   0  0  0  0  0  2  0  0  0  0  0  0
  182.2530  179.3610  143.7680 O   0  0  0  0  0  0  0  0  0  0  0  0
  181.2140  178.5690  143.2690 C   0  0  1  0  0  3  0  0  0  0  0  0
  179.4300  179.7240  144.3150 O   0  0  0  0  0  0  0  0  0  0  0  0
  180.0380  178.6670  144.1950 C   0  0  0  0  0  3  0  0  0  0  0  0
  180.8200  179.0600  141.8810 C   0  0  0  0  0  2  0  0  0  0  0  0
  179.5100  178.4170  141.4440 C   0  0  0  0  0  3  0  0  0  0  0  0
  179.0970  178.9840  140.1000 C   0  0  0  0  0  2  0  0  0  0  0  0
  179.7600  177.6230  140.1780 C   0  0  0  0  0  2  0  0  0  0  0  0
  186.0060  178.5550  142.2810 C   0  0  0  0  0  2  0  0  0  0  0  0
  184.7640  178.3840  141.4210 C   0  0  0  0  0  2  0  0  0  0  0  0
  185.1000  178.7430  139.9860 C   0  0  0  0  0  2  0  0  0  0  0  0
  183.9580  179.5110  139.3610 C   0  0  0  0  0  2  0  0  0  0  0  0
  183.4760  178.7820  138.2040 N   0  0  0  0  0  2  0  0  0  0  0  0
  182.1060  179.2070  137.9700 C   0  0  0  0  0  2  0  0  0  0  0  0
  181.4830  178.3110  137.1030 O   0  0  0  0  0  0  0  0  0  0  0  0
  182.4030  177.2740  136.9370 C   0  0  0  0  0  2  0  0  0  0  0  0
  180.4690  175.7590  136.4570 O   0  0  0  0  0  1  0  0  0  0  0  0
  182.5980  174.7040  137.1250 C   0  0  1  0  0  3  0  0  0  0  0  0
  182.7520  175.7700  139.2540 O   0  0  0  0  0  1  0  0  0  0  0  0
  181.6990  175.9300  137.0960 C   0  0  1  0  0  0  0  0  0  0  0  0
  181.8540  175.1440  138.3880 C   0  0  1  0  0  3  0  0  0  0  0  0
  181.9500  173.5980  136.5680 O   0  0  0  0  0  0  0  0  0  0  0  0
  182.9690  172.8270  136.0030 C   0  0  1  0  0  3  0  0  0  0  0  0
  183.9500  173.6600  135.4690 O   0  0  0  0  0  1  0  0  0  0  0  0
  184.8080  172.4040  137.4840 O   0  0  0  0  0  1  0  0  0  0  0  0
  183.5760  171.9080  137.0530 C   0  0  0  0  0  2  0  0  0  0  0  0
  1 36  1  6  0  0  0
  1 24  1  0  0  0  0
  2  6  1  0  0  0  0
  2  3  1  0  0  0  0
  4  2  2  0  0  0  0
  5 10  1  0  0  0  0
  6  7  1  6  0  0  0
  8  9  1  0  0  0  0
  9  1  1  6  0  0  0
  9  7  1  0  0  0  0
 10  8  1  1  0  0  0
 10  6  1  0  0  0  0
 11 12  1  6  0  0  0
 11  5  1  0  0  0  0
 11  4  1  0  0  0  0
 13 12  1  0  0  0  0
 15 14  1  6  0  0  0
 15 13  1  0  0  0  0
 16 19  1  1  0  0  0
 16 18  1  0  0  0  0
 16 15  1  0  0  0  0
 17 18  1  0  0  0  0
 19 20  1  0  0  0  0
 21 23  1  6  0  0  0
 21 22  1  0  0  0  0
 21 20  1  0  0  0  0
 24 25  1  0  0  0  0
 25 26  1  1  0  0  0
 27 25  1  0  0  0  0
 28 27  1  0  0  0  0
 29 32  1  6  0  0  0
 29 28  1  0  0  0  0
 29 31  1  0  0  0  0
 31 30  2  0  0  0  0
 33 32  1  0  0  0  0
 34 35  1  0  0  0  0
 34 33  1  0  0  0  0
 35 33  1  0  0  0  0
 37 36  1  0  0  0  0
 38 37  1  0  0  0  0
 39 38  1  0  0  0  0
 40 39  1  0  0  0  0
 41 40  1  0  0  0  0
 42 41  1  0  0  0  0
 43 47  1  0  0  0  0
 43 42  1  0  0  0  0
 45 49  1  6  0  0  0
 45 48  1  0  0  0  0
 47 44  1  6  0  0  0
 47 45  1  0  0  0  0
 47 48  1  0  0  0  0
 48 46  1  1  0  0  0
 50 51  1  1  0  0  0
 50 49  1  0  0  0  0
 50 53  1  0  0  0  0
 53 52  1  0  0  0  0
M  END
>  <MODEL>
4

>  <REMARK>
 VINA RESULT:      -5.5      3.225      7.332
  Name = 
  29 active torsions:
  status: ('A' for Active; 'I' for Inactive)
    1  A    between atoms: C_3  and  N_46
    2  A    between atoms: C_3  and  C_53
    3  A    between atoms: C_4  and  C_18
    4  A    between atoms: C_4  and  N_32
    5  A    between atoms: C_5  and  C_20
    6  A    between atoms: C_5  and  C_38
    7  A    between atoms: C_8  and  O_19
    8  A    between atoms: C_9  and  C_10
    9  A    between atoms: C_10  and  C_29
   10  A    between atoms: C_13  and  O_19
   11  A    between atoms: C_13  and  C_36
   12  A    between atoms: O_15  and  C_29
   13  A    between atoms: O_15  and  C_51
   14  A    between atoms: C_16  and  C_20
   15  A    between atoms: C_16  and  C_23
   16  A    between atoms: C_21  and  O_34
   17  A    between atoms: C_21  and  N_45
   18  A    between atoms: C_23  and  C_43
   19  A    between atoms: C_23  and  N_50
   20  A    between atoms: C_25  and  N_32
   21  A    between atoms: C_25  and  O_47
   22  A    between atoms: C_25  and  C_49
   23  A    between atoms: C_26  and  O_34
   24  A    between atoms: C_26  and  C_40
   25  A    between atoms: C_29  and  C_41
   26  A    between atoms: C_30  and  N_50
   27  A    between atoms: C_30  and  C_51
   28  A    between atoms: C_38  and  N_45
   29  A    between atoms: N_46  and  C_49
                            x       y       z     vdW  Elec       q    Type
                         _______ _______ _______ _____ _____    ______ ____

>  <TORSDO>
F 29

$$$$
=
 OpenBabel10222417503D

 53 56  0  0  1  0  0  0  0  0999 V2000
  187.8170  178.5400  140.0550 C   0  0  1  0  0  3  0  0  0  0  0  0
  187.1760  177.2560  135.5030 C   0  0  0  0  0  0  0  0  0  0  0  0
  186.9480  178.5020  134.7040 C   0  0  0  0  0  1  0  0  0  0  0  0
  186.7230  176.1360  135.0330 N   0  0  0  0  0  0  0  0  0  0  0  0
  188.3360  174.6450  136.7480 S   0  0  0  0  0  0  0  0  0  0  0  0
  188.1430  177.2910  136.6570 C   0  0  1  0  0  3  0  0  0  0  0  0
  188.0890  178.5080  137.5470 C   0  0  0  0  0  2  0  0  0  0  0  0
  188.7390  176.5070  138.7940 C   0  0  0  0  0  2  0  0  0  0  0  0
  188.6850  178.0430  138.8800 C   0  0  2  0  0  3  0  0  0  0  0  0
  187.8920  176.1680  137.6010 C   0  0  2  0  0  3  0  0  0  0  0  0
  186.8690  174.8150  135.6470 C   0  0  1  0  0  3  0  0  0  0  0  0
  185.6060  174.4380  136.4180 C   0  0  0  0  0  2  0  0  0  0  0  0
  184.4220  174.6810  135.6000 N   0  0  0  0  0  2  0  0  0  0  0  0
  183.5750  176.8830  136.1910 C   0  0  0  0  0  1  0  0  0  0  0  0
  183.4690  175.3890  136.4420 C   0  0  1  0  0  3  0  0  0  0  0  0
  182.0520  174.8670  136.1910 C   0  0  1  0  0  3  0  0  0  0  0  0
  181.2410  173.0340  135.2510 C   0  0  0  0  0  1  0  0  0  0  0  0
  182.0240  173.4740  136.3190 O   0  0  0  0  0  0  0  0  0  0  0  0
  181.1040  175.4710  137.1210 N   0  0  0  0  0  2  0  0  0  0  0  0
  181.4260  174.9770  138.4540 C   0  0  0  0  0  2  0  0  0  0  0  0
  181.4220  176.1210  139.4510 C   0  0  1  0  0  3  0  0  0  0  0  0
  182.7110  176.3090  139.9450 O   0  0  0  0  0  1  0  0  0  0  0  0
  180.9500  177.4030  138.7870 C   0  0  0  0  0  1  0  0  0  0  0  0
  186.5860  177.7430  140.2120 N   0  0  0  0  0  2  0  0  0  0  0  0
  185.4000  178.5920  140.3390 C   0  0  2  0  0  3  0  0  0  0  0  0
  185.4000  179.5830  139.3490 O   0  0  0  0  0  1  0  0  0  0  0  0
  185.3830  179.2440  141.7030 C   0  0  0  0  0  2  0  0  0  0  0  0
  184.7470  178.3930  142.6060 O   0  0  0  0  0  0  0  0  0  0  0  0
  183.7180  179.1500  143.1760 C   0  0  1  0  0  3  0  0  0  0  0  0
  181.3790  179.3350  142.8550 O   0  0  0  0  0  0  0  0  0  0  0  0
  182.4200  178.7800  142.5240 C   0  0  0  0  0  3  0  0  0  0  0  0
  183.6450  178.8620  144.6720 C   0  0  0  0  0  2  0  0  0  0  0  0
  184.9740  178.3090  145.1700 C   0  0  0  0  0  3  0  0  0  0  0  0
  185.6780  179.3670  145.9970 C   0  0  0  0  0  2  0  0  0  0  0  0
  184.9320  178.2400  146.6830 C   0  0  0  0  0  2  0  0  0  0  0  0
  188.5780  178.6560  141.3930 C   0  0  0  0  0  2  0  0  0  0  0  0
  188.3900  177.4660  142.3190 C   0  0  0  0  0  2  0  0  0  0  0  0
  189.6610  176.6360  142.3250 C   0  0  0  0  0  2  0  0  0  0  0  0
  190.8660  177.5300  142.1340 C   0  0  0  0  0  2  0  0  0  0  0  0
  191.8490  176.8310  141.3280 N   0  0  0  0  0  2  0  0  0  0  0  0
  192.3230  177.7680  140.3250 C   0  0  0  0  0  2  0  0  0  0  0  0
  193.2630  177.1400  139.5090 O   0  0  0  0  0  0  0  0  0  0  0  0
  192.5330  176.6750  138.4140 C   0  0  0  0  0  2  0  0  0  0  0  0
  194.2020  176.5650  136.5520 O   0  0  0  0  0  1  0  0  0  0  0  0
  194.1230  174.6590  138.1180 C   0  0  1  0  0  3  0  0  0  0  0  0
  191.8480  174.0740  137.6910 O   0  0  0  0  0  1  0  0  0  0  0  0
  193.4430  175.8670  137.4940 C   0  0  1  0  0  0  0  0  0  0  0  0
  193.0310  174.4680  137.0620 C   0  0  1  0  0  3  0  0  0  0  0  0
  195.3730  174.4350  137.5360 O   0  0  0  0  0  0  0  0  0  0  0  0
  196.1060  173.7450  138.5040 C   0  0  1  0  0  3  0  0  0  0  0  0
  196.3680  172.4490  138.0630 O   0  0  0  0  0  1  0  0  0  0  0  0
  197.2470  175.3600  139.8620 O   0  0  0  0  0  1  0  0  0  0  0  0
  197.4100  174.4720  138.7970 C   0  0  0  0  0  2  0  0  0  0  0  0
  1 24  1  0  0  0  0
  1 36  1  1  0  0  0
  2  6  1  0  0  0  0
  3  2  1  0  0  0  0
  4  2  2  0  0  0  0
  4 11  1  0  0  0  0
  5 10  1  0  0  0  0
  6  7  1  1  0  0  0
  6 10  1  0  0  0  0
  7  9  1  0  0  0  0
  8  9  1  0  0  0  0
  9  1  1  1  0  0  0
 10  8  1  1  0  0  0
 11 12  1  1  0  0  0
 11  5  1  0  0  0  0
 13 12  1  0  0  0  0
 13 15  1  0  0  0  0
 15 14  1  6  0  0  0
 16 18  1  1  0  0  0
 16 15  1  0  0  0  0
 16 19  1  0  0  0  0
 17 18  1  0  0  0  0
 19 20  1  0  0  0  0
 20 21  1  0  0  0  0
 21 23  1  6  0  0  0
 21 22  1  0  0  0  0
 24 25  1  0  0  0  0
 25 26  1  6  0  0  0
 25 27  1  0  0  0  0
 27 28  1  0  0  0  0
 28 29  1  0  0  0  0
 29 31  1  6  0  0  0
 29 32  1  0  0  0  0
 31 30  2  0  0  0  0
 32 33  1  0  0  0  0
 33 34  1  0  0  0  0
 33 35  1  0  0  0  0
 34 35  1  0  0  0  0
 36 37  1  0  0  0  0
 37 38  1  0  0  0  0
 39 38  1  0  0  0  0
 40 39  1  0  0  0  0
 41 40  1  0  0  0  0
 42 41  1  0  0  0  0
 43 42  1  0  0  0  0
 45 49  1  6  0  0  0
 47 44  1  6  0  0  0
 47 45  1  0  0  0  0
 47 43  1  0  0  0  0
 48 47  1  0  0  0  0
 48 46  1  1  0  0  0
 48 45  1  0  0  0  0
 49 50  1  0  0  0  0
 50 51  1  6  0  0  0
 50 53  1  0  0  0  0
 53 52  1  0  0  0  0
M  END
>  <MODEL>
5

>  <REMARK>
 VINA RESULT:      -5.4      3.206      9.802
  Name = 
  29 active torsions:
  status: ('A' for Active; 'I' for Inactive)
    1  A    between atoms: C_3  and  N_46
    2  A    between atoms: C_3  and  C_53
    3  A    between atoms: C_4  and  C_18
    4  A    between atoms: C_4  and  N_32
    5  A    between atoms: C_5  and  C_20
    6  A    between atoms: C_5  and  C_38
    7  A    between atoms: C_8  and  O_19
    8  A    between atoms: C_9  and  C_10
    9  A    between atoms: C_10  and  C_29
   10  A    between atoms: C_13  and  O_19
   11  A    between atoms: C_13  and  C_36
   12  A    between atoms: O_15  and  C_29
   13  A    between atoms: O_15  and  C_51
   14  A    between atoms: C_16  and  C_20
   15  A    between atoms: C_16  and  C_23
   16  A    between atoms: C_21  and  O_34
   17  A    between atoms: C_21  and  N_45
   18  A    between atoms: C_23  and  C_43
   19  A    between atoms: C_23  and  N_50
   20  A    between atoms: C_25  and  N_32
   21  A    between atoms: C_25  and  O_47
   22  A    between atoms: C_25  and  C_49
   23  A    between atoms: C_26  and  O_34
   24  A    between atoms: C_26  and  C_40
   25  A    between atoms: C_29  and  C_41
   26  A    between atoms: C_30  and  N_50
   27  A    between atoms: C_30  and  C_51
   28  A    between atoms: C_38  and  N_45
   29  A    between atoms: N_46  and  C_49
                            x       y       z     vdW  Elec       q    Type
                         _______ _______ _______ _____ _____    ______ ____

>  <TORSDO>
F 29

$$$$
=
 OpenBabel10222417503D

 53 56  0  0  1  0  0  0  0  0999 V2000
  190.7670  175.9000  138.0440 C   0  0  1  0  0  3  0  0  0  0  0  0
  186.9080  176.5380  135.3080 C   0  0  0  0  0  0  0  0  0  0  0  0
  187.0660  177.8440  134.5940 C   0  0  0  0  0  1  0  0  0  0  0  0
  185.7110  176.0720  135.4760 N   0  0  0  0  0  0  0  0  0  0  0  0
  186.6730  173.5210  136.0560 S   0  0  0  0  0  0  0  0  0  0  0  0
  188.1260  175.6870  135.5570 C   0  0  1  0  0  3  0  0  0  0  0  0
  189.3740  176.4060  136.0030 C   0  0  0  0  0  2  0  0  0  0  0  0
  189.2470  174.1530  136.9440 C   0  0  0  0  0  2  0  0  0  0  0  0
  190.2040  175.3380  136.7220 C   0  0  2  0  0  3  0  0  0  0  0  0
  187.8830  174.7130  136.6550 C   0  0  2  0  0  3  0  0  0  0  0  0
  185.3540  174.8060  136.1190 C   0  0  1  0  0  3  0  0  0  0  0  0
  184.9380  175.0390  137.5700 C   0  0  0  0  0  2  0  0  0  0  0  0
  183.5540  174.6260  137.7720 N   0  0  0  0  0  2  0  0  0  0  0  0
  181.8800  175.4610  136.2180 C   0  0  0  0  0  1  0  0  0  0  0  0
  182.7210  175.7740  137.4430 C   0  0  1  0  0  3  0  0  0  0  0  0
  181.8580  176.1630  138.6450 C   0  0  1  0  0  3  0  0  0  0  0  0
  180.0060  175.0480  139.1230 C   0  0  0  0  0  1  0  0  0  0  0  0
  181.3910  175.0160  139.2940 O   0  0  0  0  0  0  0  0  0  0  0  0
  182.6130  176.9910  139.5800 N   0  0  0  0  0  2  0  0  0  0  0  0
  181.8090  178.1750  139.8590 C   0  0  0  0  0  2  0  0  0  0  0  0
  182.5680  179.4280  139.4610 C   0  0  1  0  0  3  0  0  0  0  0  0
  183.4600  179.1220  138.4350 O   0  0  0  0  0  1  0  0  0  0  0  0
  181.6080  180.5020  138.9830 C   0  0  0  0  0  1  0  0  0  0  0  0
  192.0350  176.6260  137.8450 N   0  0  0  0  0  2  0  0  0  0  0  0
  193.1630  175.7120  137.6590 C   0  0  2  0  0  3  0  0  0  0  0  0
  194.1500  175.9510  138.6220 O   0  0  0  0  0  1  0  0  0  0  0  0
  193.7500  175.9000  136.2790 C   0  0  0  0  0  2  0  0  0  0  0  0
  195.1230  176.1140  136.3950 O   0  0  0  0  0  0  0  0  0  0  0  0
  195.7170  175.2690  135.4520 C   0  0  1  0  0  3  0  0  0  0  0  0
  197.7720  175.9940  136.3790 O   0  0  0  0  0  0  0  0  0  0  0  0
  197.1690  175.1060  135.7880 C   0  0  0  0  0  3  0  0  0  0  0  0
  195.0250  173.9100  135.4800 C   0  0  0  0  0  2  0  0  0  0  0  0
  195.9180  172.8760  136.1550 C   0  0  0  0  0  3  0  0  0  0  0  0
  195.2970  172.4650  137.4750 C   0  0  0  0  0  2  0  0  0  0  0  0
  195.1540  171.5720  136.2580 C   0  0  0  0  0  2  0  0  0  0  0  0
  189.7590  176.7530  138.8430 C   0  0  0  0  0  2  0  0  0  0  0  0
  190.0090  176.7700  140.3420 C   0  0  0  0  0  2  0  0  0  0  0  0
  191.2180  177.6410  140.6330 C   0  0  0  0  0  2  0  0  0  0  0  0
  191.9850  177.0880  141.8130 C   0  0  0  0  0  2  0  0  0  0  0  0
  191.0750  176.9150  142.9290 N   0  0  0  0  0  2  0  0  0  0  0  0
  191.4540  177.8830  143.9440 C   0  0  0  0  0  2  0  0  0  0  0  0
  190.3500  178.1780  144.7400 O   0  0  0  0  0  0  0  0  0  0  0  0
  189.2700  178.2160  143.8560 C   0  0  0  0  0  2  0  0  0  0  0  0
  187.8330  178.1130  145.9030 O   0  0  0  0  0  1  0  0  0  0  0  0
  186.7370  177.7200  143.7270 C   0  0  1  0  0  3  0  0  0  0  0  0
  188.0520  175.8230  143.1200 O   0  0  0  0  0  1  0  0  0  0  0  0
  188.0050  177.7460  144.5670 C   0  0  1  0  0  0  0  0  0  0  0  0
  187.3790  176.4110  144.1930 C   0  0  1  0  0  3  0  0  0  0  0  0
  185.6130  177.9890  144.5130 O   0  0  0  0  0  0  0  0  0  0  0  0
  184.7840  178.7700  143.7040 C   0  0  1  0  0  3  0  0  0  0  0  0
  184.5480  178.1140  142.4980 O   0  0  0  0  0  1  0  0  0  0  0  0
  182.4410  179.2370  143.4870 O   0  0  0  0  0  1  0  0  0  0  0  0
  183.4680  179.0490  144.4150 C   0  0  0  0  0  2  0  0  0  0  0  0
  1 36  1  6  0  0  0
  2  4  2  0  0  0  0
  2  6  1  0  0  0  0
  3  2  1  0  0  0  0
  4 11  1  0  0  0  0
  5 11  1  0  0  0  0
  5 10  1  0  0  0  0
  6  7  1  1  0  0  0
  6 10  1  0  0  0  0
  7  9  1  0  0  0  0
  9  8  1  0  0  0  0
  9  1  1  1  0  0  0
 10  8  1  6  0  0  0
 11 12  1  1  0  0  0
 12 13  1  0  0  0  0
 15 14  1  6  0  0  0
 15 13  1  0  0  0  0
 15 16  1  0  0  0  0
 16 18  1  1  0  0  0
 16 19  1  0  0  0  0
 17 18  1  0  0  0  0
 19 20  1  0  0  0  0
 21 23  1  6  0  0  0
 21 20  1  0  0  0  0
 22 21  1  0  0  0  0
 24  1  1  0  0  0  0
 25 24  1  0  0  0  0
 25 26  1  1  0  0  0
 27 28  1  0  0  0  0
 27 25  1  0  0  0  0
 29 32  1  1  0  0  0
 29 31  1  0  0  0  0
 29 28  1  0  0  0  0
 31 30  2  0  0  0  0
 32 33  1  0  0  0  0
 33 35  1  0  0  0  0
 33 34  1  0  0  0  0
 35 34  1  0  0  0  0
 36 37  1  0  0  0  0
 37 38  1  0  0  0  0
 38 39  1  0  0  0  0
 39 40  1  0  0  0  0
 40 41  1  0  0  0  0
 41 42  1  0  0  0  0
 43 47  1  0  0  0  0
 43 42  1  0  0  0  0
 45 48  1  0  0  0  0
 45 49  1  1  0  0  0
 45 47  1  0  0  0  0
 47 44  1  1  0  0  0
 48 46  1  6  0  0  0
 48 47  1  0  0  0  0
 50 51  1  6  0  0  0
 50 53  1  0  0  0  0
 50 49  1  0  0  0  0
 52 53  1  0  0  0  0
M  END
>  <MODEL>
6

>  <REMARK>
 VINA RESULT:      -5.1      2.708      8.662
  Name = 
  29 active torsions:
  status: ('A' for Active; 'I' for Inactive)
    1  A    between atoms: C_3  and  N_46
    2  A    between atoms: C_3  and  C_53
    3  A    between atoms: C_4  and  C_18
    4  A    between atoms: C_4  and  N_32
    5  A    between atoms: C_5  and  C_20
    6  A    between atoms: C_5  and  C_38
    7  A    between atoms: C_8  and  O_19
    8  A    between atoms: C_9  and  C_10
    9  A    between atoms: C_10  and  C_29
   10  A    between atoms: C_13  and  O_19
   11  A    between atoms: C_13  and  C_36
   12  A    between atoms: O_15  and  C_29
   13  A    between atoms: O_15  and  C_51
   14  A    between atoms: C_16  and  C_20
   15  A    between atoms: C_16  and  C_23
   16  A    between atoms: C_21  and  O_34
   17  A    between atoms: C_21  and  N_45
   18  A    between atoms: C_23  and  C_43
   19  A    between atoms: C_23  and  N_50
   20  A    between atoms: C_25  and  N_32
   21  A    between atoms: C_25  and  O_47
   22  A    between atoms: C_25  and  C_49
   23  A    between atoms: C_26  and  O_34
   24  A    between atoms: C_26  and  C_40
   25  A    between atoms: C_29  and  C_41
   26  A    between atoms: C_30  and  N_50
   27  A    between atoms: C_30  and  C_51
   28  A    between atoms: C_38  and  N_45
   29  A    between atoms: N_46  and  C_49
                            x       y       z     vdW  Elec       q    Type
                         _______ _______ _______ _____ _____    ______ ____

>  <TORSDO>
F 29

$$$$
=
 OpenBabel10222417503D

 53 56  0  0  1  0  0  0  0  0999 V2000
  185.4660  178.3710  141.7170 C   0  0  1  0  0  3  0  0  0  0  0  0
  180.9970  177.5280  140.2690 C   0  0  0  0  0  0  0  0  0  0  0  0
  180.1190  177.5110  141.4820 C   0  0  0  0  0  1  0  0  0  0  0  0
  180.5930  176.8960  139.2120 N   0  0  0  0  0  0  0  0  0  0  0  0
  182.4170  178.2370  137.5860 S   0  0  0  0  0  0  0  0  0  0  0  0
  182.1570  178.4870  140.2170 C   0  0  1  0  0  3  0  0  0  0  0  0
  182.9690  178.6360  141.4800 C   0  0  0  0  0  2  0  0  0  0  0  0
  184.3460  178.9440  139.4830 C   0  0  0  0  0  2  0  0  0  0  0  0
  184.3340  179.1460  141.0090 C   0  0  2  0  0  3  0  0  0  0  0  0
  183.1670  178.0520  139.2140 C   0  0  2  0  0  3  0  0  0  0  0  0
  181.2910  176.8190  137.9270 C   0  0  1  0  0  3  0  0  0  0  0  0
  182.0690  175.5110  137.8150 C   0  0  0  0  0  2  0  0  0  0  0  0
  181.4070  174.6050  136.8830 N   0  0  0  0  0  2  0  0  0  0  0  0
  179.9570  173.2950  138.3320 C   0  0  0  0  0  1  0  0  0  0  0  0
  181.2680  173.3270  137.5670 C   0  0  1  0  0  3  0  0  0  0  0  0
  181.3730  172.1770  136.5630 C   0  0  1  0  0  3  0  0  0  0  0  0
  180.7670  171.3640  134.5950 C   0  0  0  0  0  1  0  0  0  0  0  0
  180.4610  172.3640  135.5190 O   0  0  0  0  0  0  0  0  0  0  0  0
  182.7270  172.0760  136.0280 N   0  0  0  0  0  2  0  0  0  0  0  0
  183.6300  171.8930  137.1590 C   0  0  0  0  0  2  0  0  0  0  0  0
  185.0410  172.2930  136.7710 C   0  0  1  0  0  3  0  0  0  0  0  0
  185.2410  172.0290  135.4170 O   0  0  0  0  0  1  0  0  0  0  0  0
  185.2650  173.7720  137.0300 C   0  0  0  0  0  1  0  0  0  0  0  0
  186.7890  178.9760  141.4750 N   0  0  0  0  0  2  0  0  0  0  0  0
  187.8260  177.9590  141.2880 C   0  0  2  0  0  3  0  0  0  0  0  0
  188.9740  178.2920  142.0190 O   0  0  0  0  0  1  0  0  0  0  0  0
  188.1780  177.8520  139.8220 C   0  0  0  0  0  2  0  0  0  0  0  0
  189.4940  177.4070  139.7020 O   0  0  0  0  0  0  0  0  0  0  0  0
  189.6460  177.0400  138.3600 C   0  0  1  0  0  3  0  0  0  0  0  0
  190.6400  174.9190  138.0060 O   0  0  0  0  0  0  0  0  0  0  0  0
  190.8150  176.1100  138.2380 C   0  0  0  0  0  3  0  0  0  0  0  0
  188.3790  176.3420  137.8770 C   0  0  0  0  0  2  0  0  0  0  0  0
  188.2000  176.5510  136.3780 C   0  0  0  0  0  3  0  0  0  0  0  0
  187.0620  177.5230  136.1410 C   0  0  0  0  0  2  0  0  0  0  0  0
  188.4980  178.0010  136.0530 C   0  0  0  0  0  2  0  0  0  0  0  0
  185.2260  178.1480  143.2250 C   0  0  0  0  0  2  0  0  0  0  0  0
  185.0870  179.4300  144.0290 C   0  0  0  0  0  2  0  0  0  0  0  0
  184.3580  179.1270  145.3250 C   0  0  0  0  0  2  0  0  0  0  0  0
  185.0990  178.0630  146.1020 C   0  0  0  0  0  2  0  0  0  0  0  0
  185.9700  178.7030  147.0680 N   0  0  0  0  0  2  0  0  0  0  0  0
  187.2860  178.1070  146.9200 C   0  0  0  0  0  2  0  0  0  0  0  0
  188.2280  178.8890  147.5850 O   0  0  0  0  0  0  0  0  0  0  0  0
  188.8790  178.0080  148.4510 C   0  0  0  0  0  2  0  0  0  0  0  0
  189.0080  175.7230  147.4370 O   0  0  0  0  0  1  0  0  0  0  0  0
  190.4620  177.4720  146.4800 C   0  0  1  0  0  3  0  0  0  0  0  0
  191.6620  177.9330  148.4910 O   0  0  0  0  0  1  0  0  0  0  0  0
  189.6320  176.9550  147.6440 C   0  0  1  0  0  0  0  0  0  0  0  0
  191.1490  176.8900  147.7170 C   0  0  1  0  0  3  0  0  0  0  0  0
  190.5050  176.5350  145.4440 O   0  0  0  0  0  0  0  0  0  0  0  0
  191.3920  177.0700  144.5070 C   0  0  1  0  0  3  0  0  0  0  0  0
  191.4030  176.2780  143.3610 O   0  0  0  0  0  1  0  0  0  0  0  0
  192.1040  179.3390  144.1850 O   0  0  0  0  0  1  0  0  0  0  0  0
  190.9910  178.4950  144.1560 C   0  0  0  0  0  2  0  0  0  0  0  0
  1 36  1  1  0  0  0
  2  3  1  0  0  0  0
  4  2  2  0  0  0  0
  5 11  1  0  0  0  0
  5 10  1  0  0  0  0
  6  2  1  0  0  0  0
  6  7  1  1  0  0  0
  8  9  1  0  0  0  0
  9  7  1  0  0  0  0
  9  1  1  1  0  0  0
 10  8  1  6  0  0  0
 10  6  1  0  0  0  0
 11 12  1  1  0  0  0
 11  4  1  0  0  0  0
 13 15  1  0  0  0  0
 13 12  1  0  0  0  0
 15 14  1  6  0  0  0
 16 18  1  6  0  0  0
 16 15  1  0  0  0  0
 17 18  1  0  0  0  0
 19 16  1  0  0  0  0
 19 20  1  0  0  0  0
 21 23  1  6  0  0  0
 21 20  1  0  0  0  0
 22 21  1  0  0  0  0
 24  1  1  0  0  0  0
 25 24  1  0  0  0  0
 25 26  1  1  0  0  0
 27 25  1  0  0  0  0
 28 27  1  0  0  0  0
 29 32  1  1  0  0  0
 29 28  1  0  0  0  0
 30 31  2  0  0  0  0
 31 29  1  0  0  0  0
 33 32  1  0  0  0  0
 34 33  1  0  0  0  0
 35 34  1  0  0  0  0
 35 33  1  0  0  0  0
 36 37  1  0  0  0  0
 37 38  1  0  0  0  0
 38 39  1  0  0  0  0
 39 40  1  0  0  0  0
 41 40  1  0  0  0  0
 41 42  1  0  0  0  0
 42 43  1  0  0  0  0
 45 49  1  6  0  0  0
 45 47  1  0  0  0  0
 45 48  1  0  0  0  0
 47 44  1  6  0  0  0
 47 48  1  0  0  0  0
 47 43  1  0  0  0  0
 48 46  1  1  0  0  0
 50 51  1  6  0  0  0
 50 49  1  0  0  0  0
 53 52  1  0  0  0  0
 53 50  1  0  0  0  0
M  END
>  <MODEL>
7

>  <REMARK>
 VINA RESULT:      -5.1      3.962      8.859
  Name = 
  29 active torsions:
  status: ('A' for Active; 'I' for Inactive)
    1  A    between atoms: C_3  and  N_46
    2  A    between atoms: C_3  and  C_53
    3  A    between atoms: C_4  and  C_18
    4  A    between atoms: C_4  and  N_32
    5  A    between atoms: C_5  and  C_20
    6  A    between atoms: C_5  and  C_38
    7  A    between atoms: C_8  and  O_19
    8  A    between atoms: C_9  and  C_10
    9  A    between atoms: C_10  and  C_29
   10  A    between atoms: C_13  and  O_19
   11  A    between atoms: C_13  and  C_36
   12  A    between atoms: O_15  and  C_29
   13  A    between atoms: O_15  and  C_51
   14  A    between atoms: C_16  and  C_20
   15  A    between atoms: C_16  and  C_23
   16  A    between atoms: C_21  and  O_34
   17  A    between atoms: C_21  and  N_45
   18  A    between atoms: C_23  and  C_43
   19  A    between atoms: C_23  and  N_50
   20  A    between atoms: C_25  and  N_32
   21  A    between atoms: C_25  and  O_47
   22  A    between atoms: C_25  and  C_49
   23  A    between atoms: C_26  and  O_34
   24  A    between atoms: C_26  and  C_40
   25  A    between atoms: C_29  and  C_41
   26  A    between atoms: C_30  and  N_50
   27  A    between atoms: C_30  and  C_51
   28  A    between atoms: C_38  and  N_45
   29  A    between atoms: N_46  and  C_49
                            x       y       z     vdW  Elec       q    Type
                         _______ _______ _______ _____ _____    ______ ____

>  <TORSDO>
F 29

$$$$
=
 OpenBabel10222417503D

 53 56  0  0  1  0  0  0  0  0999 V2000
  185.7710  178.7430  142.7890 C   0  0  1  0  0  3  0  0  0  0  0  0
  190.5300  178.6470  143.1490 C   0  0  0  0  0  0  0  0  0  0  0  0
  190.9480  179.8150  143.9890 C   0  0  0  0  0  1  0  0  0  0  0  0
  191.3940  178.1430  142.3260 N   0  0  0  0  0  0  0  0  0  0  0  0
  189.9130  175.8000  142.0410 S   0  0  0  0  0  0  0  0  0  0  0  0
  189.2460  177.9310  143.4780 C   0  0  1  0  0  3  0  0  0  0  0  0
  188.0630  178.7940  143.8410 C   0  0  0  0  0  2  0  0  0  0  0  0
  187.3670  176.7380  142.7150 C   0  0  0  0  0  2  0  0  0  0  0  0
  186.8390  177.9230  143.5430 C   0  0  2  0  0  3  0  0  0  0  0  0
  188.7530  177.1520  142.3100 C   0  0  2  0  0  3  0  0  0  0  0  0
  191.1870  176.9910  141.4470 C   0  0  1  0  0  3  0  0  0  0  0  0
  190.8380  177.4490  140.0340 C   0  0  0  0  0  2  0  0  0  0  0  0
  190.5830  176.2970  139.1760 N   0  0  0  0  0  2  0  0  0  0  0  0
  192.2630  176.1440  137.4240 C   0  0  0  0  0  1  0  0  0  0  0  0
  190.9080  176.7040  137.8170 C   0  0  1  0  0  3  0  0  0  0  0  0
  189.8040  176.2610  136.8540 C   0  0  1  0  0  3  0  0  0  0  0  0
  189.2560  174.1170  136.8570 C   0  0  0  0  0  1  0  0  0  0  0  0
  190.1360  175.0310  136.2760 O   0  0  0  0  0  0  0  0  0  0  0  0
  188.5230  176.1580  137.5440 N   0  0  0  0  0  2  0  0  0  0  0  0
  187.7240  177.3130  137.1540 C   0  0  0  0  0  2  0  0  0  0  0  0
  186.6290  176.8910  136.1910 C   0  0  1  0  0  3  0  0  0  0  0  0
  185.4070  176.8720  136.8590 O   0  0  0  0  0  1  0  0  0  0  0  0
  186.5450  177.8590  135.0240 C   0  0  0  0  0  1  0  0  0  0  0  0
  184.7980  177.8820  142.0920 N   0  0  0  0  0  2  0  0  0  0  0  0
  184.5740  178.3190  140.7120 C   0  0  2  0  0  3  0  0  0  0  0  0
  185.4380  179.3730  140.3870 O   0  0  0  0  0  1  0  0  0  0  0  0
  183.1420  178.7730  140.5470 C   0  0  0  0  0  2  0  0  0  0  0  0
  182.2980  177.8440  141.1540 O   0  0  0  0  0  0  0  0  0  0  0  0
  181.0690  177.9670  140.4970 C   0  0  1  0  0  3  0  0  0  0  0  0
  180.5160  176.6020  138.6410 O   0  0  0  0  0  0  0  0  0  0  0  0
  180.7290  176.6600  139.8470 C   0  0  0  0  0  3  0  0  0  0  0  0
  179.9880  178.3380  141.5060 C   0  0  0  0  0  2  0  0  0  0  0  0
  180.6110  178.9910  142.7330 C   0  0  0  0  0  3  0  0  0  0  0  0
  179.5160  179.5900  143.5930 C   0  0  0  0  0  2  0  0  0  0  0  0
  180.1320  178.2560  143.9680 C   0  0  0  0  0  2  0  0  0  0  0  0
  185.0550  179.7960  143.6620 C   0  0  0  0  0  2  0  0  0  0  0  0
  183.6830  179.3660  144.1540 C   0  0  0  0  0  2  0  0  0  0  0  0
  183.7850  178.9520  145.6100 C   0  0  0  0  0  2  0  0  0  0  0  0
  185.1190  179.3810  146.1800 C   0  0  0  0  0  2  0  0  0  0  0  0
  185.4300  178.5530  147.3290 N   0  0  0  0  0  2  0  0  0  0  0  0
  186.6230  177.7930  147.0000 C   0  0  0  0  0  2  0  0  0  0  0  0
  187.4130  177.6510  148.1390 O   0  0  0  0  0  0  0  0  0  0  0  0
  188.3900  176.7190  147.7830 C   0  0  0  0  0  2  0  0  0  0  0  0
  189.9080  178.6200  148.3730 O   0  0  0  0  0  1  0  0  0  0  0  0
  190.9630  176.4850  147.7280 C   0  0  1  0  0  3  0  0  0  0  0  0
  190.0090  176.3800  145.5430 O   0  0  0  0  0  1  0  0  0  0  0  0
  189.7510  177.4030  147.7070 C   0  0  1  0  0  0  0  0  0  0  0  0
  190.6030  177.2550  146.4550 C   0  0  1  0  0  3  0  0  0  0  0  0
  192.0480  177.1060  148.3520 O   0  0  0  0  0  0  0  0  0  0  0  0
  192.8570  176.0590  148.7990 C   0  0  1  0  0  3  0  0  0  0  0  0
  193.4530  175.4250  147.7100 O   0  0  0  0  0  1  0  0  0  0  0  0
  193.5900  177.8640  150.2000 O   0  0  0  0  0  1  0  0  0  0  0  0
  193.9250  176.5860  149.7470 C   0  0  0  0  0  2  0  0  0  0  0  0
  1 36  1  1  0  0  0
  2  6  1  0  0  0  0
  2  3  1  0  0  0  0
  4  2  2  0  0  0  0
  5 10  1  0  0  0  0
  6  7  1  6  0  0  0
  8  9  1  0  0  0  0
  9  1  1  6  0  0  0
  9  7  1  0  0  0  0
 10  8  1  1  0  0  0
 10  6  1  0  0  0  0
 11 12  1  6  0  0  0
 11  5  1  0  0  0  0
 11  4  1  0  0  0  0
 13 12  1  0  0  0  0
 15 14  1  6  0  0  0
 15 13  1  0  0  0  0
 16 18  1  1  0  0  0
 16 19  1  0  0  0  0
 16 15  1  0  0  0  0
 18 17  1  0  0  0  0
 20 19  1  0  0  0  0
 21 23  1  6  0  0  0
 21 22  1  0  0  0  0
 21 20  1  0  0  0  0
 24  1  1  0  0  0  0
 25 26  1  1  0  0  0
 25 24  1  0  0  0  0
 27 25  1  0  0  0  0
 27 28  1  0  0  0  0
 29 31  1  1  0  0  0
 29 28  1  0  0  0  0
 29 32  1  0  0  0  0
 30 31  2  0  0  0  0
 32 33  1  0  0  0  0
 33 34  1  0  0  0  0
 33 35  1  0  0  0  0
 34 35  1  0  0  0  0
 36 37  1  0  0  0  0
 37 38  1  0  0  0  0
 38 39  1  0  0  0  0
 39 40  1  0  0  0  0
 41 40  1  0  0  0  0
 41 42  1  0  0  0  0
 43 42  1  0  0  0  0
 45 49  1  1  0  0  0
 47 45  1  0  0  0  0
 47 43  1  0  0  0  0
 47 44  1  1  0  0  0
 48 46  1  6  0  0  0
 48 47  1  0  0  0  0
 48 45  1  0  0  0  0
 49 50  1  0  0  0  0
 50 51  1  6  0  0  0
 50 53  1  0  0  0  0
 53 52  1  0  0  0  0
M  END
>  <MODEL>
8

>  <REMARK>
 VINA RESULT:      -4.9      2.467      9.057
  Name = 
  29 active torsions:
  status: ('A' for Active; 'I' for Inactive)
    1  A    between atoms: C_3  and  N_46
    2  A    between atoms: C_3  and  C_53
    3  A    between atoms: C_4  and  C_18
    4  A    between atoms: C_4  and  N_32
    5  A    between atoms: C_5  and  C_20
    6  A    between atoms: C_5  and  C_38
    7  A    between atoms: C_8  and  O_19
    8  A    between atoms: C_9  and  C_10
    9  A    between atoms: C_10  and  C_29
   10  A    between atoms: C_13  and  O_19
   11  A    between atoms: C_13  and  C_36
   12  A    between atoms: O_15  and  C_29
   13  A    between atoms: O_15  and  C_51
   14  A    between atoms: C_16  and  C_20
   15  A    between atoms: C_16  and  C_23
   16  A    between atoms: C_21  and  O_34
   17  A    between atoms: C_21  and  N_45
   18  A    between atoms: C_23  and  C_43
   19  A    between atoms: C_23  and  N_50
   20  A    between atoms: C_25  and  N_32
   21  A    between atoms: C_25  and  O_47
   22  A    between atoms: C_25  and  C_49
   23  A    between atoms: C_26  and  O_34
   24  A    between atoms: C_26  and  C_40
   25  A    between atoms: C_29  and  C_41
   26  A    between atoms: C_30  and  N_50
   27  A    between atoms: C_30  and  C_51
   28  A    between atoms: C_38  and  N_45
   29  A    between atoms: N_46  and  C_49
                            x       y       z     vdW  Elec       q    Type
                         _______ _______ _______ _____ _____    ______ ____

>  <TORSDO>
F 29

$$$$
=
 OpenBabel10222417503D

 53 56  0  0  1  0  0  0  0  0999 V2000
  186.8380  178.2750  138.8790 C   0  0  1  0  0  3  0  0  0  0  0  0
  187.1730  175.0590  135.3680 C   0  0  0  0  0  0  0  0  0  0  0  0
  185.9330  174.2190  135.3980 C   0  0  0  0  0  1  0  0  0  0  0  0
  188.2380  174.5590  134.8270 N   0  0  0  0  0  0  0  0  0  0  0  0
  189.4340  177.0670  134.6160 S   0  0  0  0  0  0  0  0  0  0  0  0
  187.0740  176.5250  135.7030 C   0  0  1  0  0  3  0  0  0  0  0  0
  186.1920  176.8940  136.8700 C   0  0  0  0  0  2  0  0  0  0  0  0
  188.0750  178.4370  136.6390 C   0  0  0  0  0  2  0  0  0  0  0  0
  186.7170  178.2540  137.3410 C   0  0  2  0  0  3  0  0  0  0  0  0
  188.4000  177.0760  136.0910 C   0  0  2  0  0  3  0  0  0  0  0  0
  189.5310  175.2290  134.6760 C   0  0  1  0  0  3  0  0  0  0  0  0
  190.4890  174.8050  135.7870 C   0  0  0  0  0  2  0  0  0  0  0  0
  191.8670  174.8430  135.3100 N   0  0  0  0  0  2  0  0  0  0  0  0
  193.0320  172.9160  136.2290 C   0  0  0  0  0  1  0  0  0  0  0  0
  192.7050  174.3880  136.4100 C   0  0  1  0  0  3  0  0  0  0  0  0
  193.9680  175.2470  136.5030 C   0  0  1  0  0  3  0  0  0  0  0  0
  192.9600  176.5920  137.9430 C   0  0  0  0  0  1  0  0  0  0  0  0
  194.0890  175.7870  137.7880 O   0  0  0  0  0  0  0  0  0  0  0  0
  195.1550  174.4630  136.1790 N   0  0  0  0  0  2  0  0  0  0  0  0
  196.2710  175.3930  136.0510 C   0  0  0  0  0  2  0  0  0  0  0  0
  197.5760  174.6920  136.3790 C   0  0  1  0  0  3  0  0  0  0  0  0
  198.1390  175.2690  137.5150 O   0  0  0  0  0  1  0  0  0  0  0  0
  197.3370  173.2150  136.6360 C   0  0  0  0  0  1  0  0  0  0  0  0
  185.5300  178.1160  139.5420 N   0  0  0  0  0  2  0  0  0  0  0  0
  184.9650  179.4040  139.9490 C   0  0  2  0  0  3  0  0  0  0  0  0
  184.7740  179.4380  141.3360 O   0  0  0  0  0  1  0  0  0  0  0  0
  183.6410  179.6230  139.2530 C   0  0  0  0  0  2  0  0  0  0  0  0
  182.8820  178.4560  139.3440 O   0  0  0  0  0  0  0  0  0  0  0  0
  182.3500  178.2540  138.0660 C   0  0  1  0  0  3  0  0  0  0  0  0
  181.3830  176.3110  139.0140 O   0  0  0  0  0  0  0  0  0  0  0  0
  181.3290  177.1580  138.1300 C   0  0  0  0  0  3  0  0  0  0  0  0
  181.6950  179.5420  137.5780 C   0  0  0  0  0  2  0  0  0  0  0  0
  180.1800  179.3790  137.5290 C   0  0  0  0  0  3  0  0  0  0  0  0
  179.5240  180.7240  137.7630 C   0  0  0  0  0  2  0  0  0  0  0  0
  179.6470  180.1740  136.3550 C   0  0  0  0  0  2  0  0  0  0  0  0
  187.8710  177.2770  139.4420 C   0  0  0  0  0  2  0  0  0  0  0  0
  189.2080  177.9030  139.8040 C   0  0  0  0  0  2  0  0  0  0  0  0
  189.3290  177.9750  141.3150 C   0  0  0  0  0  2  0  0  0  0  0  0
  188.1270  177.3260  141.9640 C   0  0  0  0  0  2  0  0  0  0  0  0
  188.5840  176.3850  142.9690 N   0  0  0  0  0  2  0  0  0  0  0  0
  190.0250  176.2700  142.8250 C   0  0  0  0  0  2  0  0  0  0  0  0
  190.5130  175.3500  143.7500 O   0  0  0  0  0  0  0  0  0  0  0  0
  191.7070  175.9070  144.2130 C   0  0  0  0  0  2  0  0  0  0  0  0
  191.6000  178.2800  145.0020 O   0  0  0  0  0  1  0  0  0  0  0  0
  190.2240  176.6220  146.2050 C   0  0  1  0  0  3  0  0  0  0  0  0
  192.0410  175.2370  146.8950 O   0  0  0  0  0  1  0  0  0  0  0  0
  191.4100  176.9300  145.3040 C   0  0  1  0  0  0  0  0  0  0  0  0
  191.6480  176.5700  146.7630 C   0  0  1  0  0  3  0  0  0  0  0  0
  189.6030  177.7990  146.6310 O   0  0  0  0  0  0  0  0  0  0  0  0
  188.3200  177.4100  147.0250 C   0  0  1  0  0  3  0  0  0  0  0  0
  188.3050  177.1530  148.3950 O   0  0  0  0  0  1  0  0  0  0  0  0
  186.7530  178.2710  145.4260 O   0  0  0  0  0  1  0  0  0  0  0  0
  187.3130  178.4980  146.6850 C   0  0  0  0  0  2  0  0  0  0  0  0
  1 36  1  1  0  0  0
  1 24  1  0  0  0  0
  2  3  1  0  0  0  0
  2  6  1  0  0  0  0
  4  2  2  0  0  0  0
  5 11  1  0  0  0  0
  5 10  1  0  0  0  0
  6 10  1  0  0  0  0
  6  7  1  1  0  0  0
  7  9  1  0  0  0  0
  8  9  1  0  0  0  0
  9  1  1  1  0  0  0
 10  8  1  6  0  0  0
 11  4  1  0  0  0  0
 11 12  1  1  0  0  0
 13 12  1  0  0  0  0
 13 15  1  0  0  0  0
 15 14  1  6  0  0  0
 15 16  1  0  0  0  0
 16 19  1  1  0  0  0
 16 18  1  0  0  0  0
 18 17  1  0  0  0  0
 20 19  1  0  0  0  0
 20 21  1  0  0  0  0
 21 23  1  1  0  0  0
 21 22  1  0  0  0  0
 24 25  1  0  0  0  0
 25 26  1  1  0  0  0
 27 28  1  0  0  0  0
 27 25  1  0  0  0  0
 29 32  1  1  0  0  0
 29 31  1  0  0  0  0
 29 28  1  0  0  0  0
 31 30  2  0  0  0  0
 33 32  1  0  0  0  0
 33 34  1  0  0  0  0
 35 33  1  0  0  0  0
 35 34  1  0  0  0  0
 36 37  1  0  0  0  0
 37 38  1  0  0  0  0
 38 39  1  0  0  0  0
 39 40  1  0  0  0  0
 41 40  1  0  0  0  0
 41 42  1  0  0  0  0
 42 43  1  0  0  0  0
 43 47  1  0  0  0  0
 45 49  1  1  0  0  0
 45 48  1  0  0  0  0
 47 44  1  6  0  0  0
 47 45  1  0  0  0  0
 47 48  1  0  0  0  0
 48 46  1  6  0  0  0
 49 50  1  0  0  0  0
 50 51  1  1  0  0  0
 52 53  1  0  0  0  0
 53 50  1  0  0  0  0
M  END
>  <MODEL>
9

>  <REMARK>
 VINA RESULT:      -4.8      2.548      8.476
  Name = 
  29 active torsions:
  status: ('A' for Active; 'I' for Inactive)
    1  A    between atoms: C_3  and  N_46
    2  A    between atoms: C_3  and  C_53
    3  A    between atoms: C_4  and  C_18
    4  A    between atoms: C_4  and  N_32
    5  A    between atoms: C_5  and  C_20
    6  A    between atoms: C_5  and  C_38
    7  A    between atoms: C_8  and  O_19
    8  A    between atoms: C_9  and  C_10
    9  A    between atoms: C_10  and  C_29
   10  A    between atoms: C_13  and  O_19
   11  A    between atoms: C_13  and  C_36
   12  A    between atoms: O_15  and  C_29
   13  A    between atoms: O_15  and  C_51
   14  A    between atoms: C_16  and  C_20
   15  A    between atoms: C_16  and  C_23
   16  A    between atoms: C_21  and  O_34
   17  A    between atoms: C_21  and  N_45
   18  A    between atoms: C_23  and  C_43
   19  A    between atoms: C_23  and  N_50
   20  A    between atoms: C_25  and  N_32
   21  A    between atoms: C_25  and  O_47
   22  A    between atoms: C_25  and  C_49
   23  A    between atoms: C_26  and  O_34
   24  A    between atoms: C_26  and  C_40
   25  A    between atoms: C_29  and  C_41
   26  A    between atoms: C_30  and  N_50
   27  A    between atoms: C_30  and  C_51
   28  A    between atoms: C_38  and  N_45
   29  A    between atoms: N_46  and  C_49
                            x       y       z     vdW  Elec       q    Type
                         _______ _______ _______ _____ _____    ______ ____

>  <TORSDO>
F 29

$$$$
