=
 OpenBabel10222415273D

 31 34  0  0  1  0  0  0  0  0999 V2000
  187.7450  177.9210  147.0740 C   0  0  2  0  0  3  0  0  0  0  0  0
  187.9380  177.6140  145.6280 N   0  0  0  0  0  0  0  0  0  0  0  0
  188.2750  176.7670  147.8980 C   0  0  0  0  0  1  0  0  0  0  0  0
  186.6350  177.5240  146.3550 C   0  0  2  0  0  3  0  0  0  0  0  0
  188.1200  177.4320  143.2040 C   0  0  0  0  0  3  0  0  0  0  0  0
  188.8880  177.3170  142.0420 C   0  0  0  0  0  3  0  0  0  0  0  0
  190.2830  177.2640  142.1210 C   0  0  0  0  0  0  0  0  0  0  0  0
  190.9030  177.3280  143.3800 C   0  0  0  0  0  3  0  0  0  0  0  0
  188.7390  177.4950  144.4550 C   0  0  0  0  0  0  0  0  0  0  0  0
  190.1390  177.4440  144.5510 C   0  0  0  0  0  0  0  0  0  0  0  0
  190.5340  176.7330  139.7940 C   0  0  0  0  0  3  0  0  0  0  0  0
  191.0420  177.1460  140.9130 N   0  0  0  0  0  0  0  0  0  0  0  0
  191.1830  175.2890  137.8990 C   0  0  0  0  0  2  0  0  0  0  0  0
  193.3860  175.9150  137.9690 C   0  0  0  0  0  2  0  0  0  0  0  0
  192.5120  174.8140  137.5930 N   0  0  0  0  0  2  0  0  0  0  0  0
  191.3710  176.6280  138.5620 C   0  0  2  0  0  3  0  0  0  0  0  0
  192.7260  176.7540  138.8790 O   0  0  0  0  0  0  0  0  0  0  0  0
  191.6970  176.5510  146.2570 C   0  0  0  0  0  1  0  0  0  0  0  0
  190.7460  177.5090  145.8110 O   0  0  0  0  0  0  0  0  0  0  0  0
  185.8680  179.7560  146.7210 O   0  0  0  0  0  0  0  0  0  0  0  0
  185.7720  178.7090  146.0230 C   0  0  0  0  0  0  0  0  0  0  0  0
  183.0870  178.6410  142.6700 C   0  0  0  0  0  0  0  0  0  0  0  0
  184.4480  178.3590  142.4920 C   0  0  0  0  0  3  0  0  0  0  0  0
  183.4910  178.9660  145.0430 C   0  0  0  0  0  3  0  0  0  0  0  0
  185.3230  178.3800  143.5810 C   0  0  0  0  0  3  0  0  0  0  0  0
  182.6150  178.9450  143.9550 C   0  0  0  0  0  3  0  0  0  0  0  0
  184.8520  178.6830  144.8670 C   0  0  0  0  0  0  0  0  0  0  0  0
  182.1640  178.6180  141.5220 C   0  0  0  0  0  0  0  0  0  0  0  0
  182.4460  177.9350  140.5000 O   0  0  0  0  0  0  0  0  0  0  0  0
  180.9480  179.3690  141.5650 N   0  0  0  0  0  2  0  0  0  0  0  0
  180.0060  179.3760  140.4580 C   0  0  0  0  0  1  0  0  0  0  0  0
  1  3  1  1  0  0  0
  2  4  1  0  0  0  0
  2  1  1  0  0  0  0
  4 21  1  6  0  0  0
  4  1  1  0  0  0  0
  5  9  1  0  0  0  0
  6  7  1  0  0  0  0
  6  5  2  0  0  0  0
  7  8  2  0  0  0  0
  8 10  1  0  0  0  0
  9 10  2  0  0  0  0
  9  2  1  0  0  0  0
 10 19  1  0  0  0  0
 11 12  2  0  0  0  0
 12  7  1  0  0  0  0
 13 16  1  0  0  0  0
 14 17  1  0  0  0  0
 15 13  1  0  0  0  0
 15 14  1  0  0  0  0
 16 17  1  0  0  0  0
 16 11  1  1  0  0  0
 19 18  1  0  0  0  0
 21 20  2  0  0  0  0
 22 26  1  0  0  0  0
 23 22  2  0  0  0  0
 23 25  1  0  0  0  0
 25 27  2  0  0  0  0
 26 24  2  0  0  0  0
 27 24  1  0  0  0  0
 27 21  1  0  0  0  0
 28 30  1  0  0  0  0
 28 22  1  0  0  0  0
 29 28  2  0  0  0  0
 31 30  1  0  0  0  0
M  END
>  <MODEL>
1

>  <REMARK>
 VINA RESULT:      -9.3      0.000      0.000
  Name = 
  7 active torsions:
  status: ('A' for Active; 'I' for Inactive)
    1  A    between atoms: N_3  and  C_18
    2  A    between atoms: C_5  and  C_10
    3  A    between atoms: C_6  and  N_29
    4  A    between atoms: C_12  and  C_28
    5  A    between atoms: O_21  and  C_25
    6  A    between atoms: C_22  and  C_24
    7  A    between atoms: C_22  and  C_27
                            x       y       z     vdW  Elec       q    Type
                         _______ _______ _______ _____ _____    ______ ____

>  <TORSDO>
F 7

$$$$
=
 OpenBabel10222415273D

 31 34  0  0  1  0  0  0  0  0999 V2000
  189.9170  176.6880  145.0710 C   0  0  2  0  0  3  0  0  0  0  0  0
  188.7030  177.3950  144.5700 N   0  0  0  0  0  0  0  0  0  0  0  0
  190.5260  177.4930  146.1990 C   0  0  0  0  0  1  0  0  0  0  0  0
  190.0280  177.3750  143.8780 C   0  0  2  0  0  3  0  0  0  0  0  0
  186.6360  178.1320  143.5080 C   0  0  0  0  0  3  0  0  0  0  0  0
  185.2960  178.5180  143.5830 C   0  0  0  0  0  3  0  0  0  0  0  0
  184.6440  178.5660  144.8180 C   0  0  0  0  0  0  0  0  0  0  0  0
  185.3490  178.2210  145.9830 C   0  0  0  0  0  3  0  0  0  0  0  0
  187.3370  177.7890  144.6680 C   0  0  0  0  0  0  0  0  0  0  0  0
  186.6960  177.8310  145.9160 C   0  0  0  0  0  0  0  0  0  0  0  0
  182.4530  178.8080  143.8680 C   0  0  0  0  0  3  0  0  0  0  0  0
  183.2700  178.9670  144.8620 N   0  0  0  0  0  0  0  0  0  0  0  0
  180.0970  178.0700  143.8350 C   0  0  0  0  0  2  0  0  0  0  0  0
  179.3810  179.8760  142.6220 C   0  0  0  0  0  2  0  0  0  0  0  0
  179.0780  178.4790  142.8970 N   0  0  0  0  0  2  0  0  0  0  0  0
  181.0290  179.2450  143.9660 C   0  0  2  0  0  3  0  0  0  0  0  0
  180.7210  180.1420  142.9400 O   0  0  0  0  0  0  0  0  0  0  0  0
  187.5820  178.3750  148.1630 C   0  0  0  0  0  1  0  0  0  0  0  0
  187.4100  177.4850  147.0690 O   0  0  0  0  0  0  0  0  0  0  0  0
  190.1070  175.1830  142.9330 O   0  0  0  0  0  0  0  0  0  0  0  0
  189.9950  176.4220  142.7180 C   0  0  0  0  0  0  0  0  0  0  0  0
  189.3760  177.8440  138.7110 C   0  0  0  0  0  0  0  0  0  0  0  0
  190.5130  177.0860  139.0250 C   0  0  0  0  0  3  0  0  0  0  0  0
  188.6500  177.6660  141.0220 C   0  0  0  0  0  3  0  0  0  0  0  0
  190.7160  176.6230  140.3270 C   0  0  0  0  0  3  0  0  0  0  0  0
  188.4460  178.1300  139.7200 C   0  0  0  0  0  3  0  0  0  0  0  0
  189.7850  176.9080  141.3370 C   0  0  0  0  0  0  0  0  0  0  0  0
  189.1620  178.3310  137.3370 C   0  0  0  0  0  0  0  0  0  0  0  0
  188.8590  179.5390  137.1360 O   0  0  0  0  0  0  0  0  0  0  0  0
  189.2970  177.4360  136.2300 N   0  0  0  0  0  2  0  0  0  0  0  0
  189.0970  177.8710  134.8580 C   0  0  0  0  0  1  0  0  0  0  0  0
  1  3  1  1  0  0  0
  2  9  1  0  0  0  0
  2  1  1  0  0  0  0
  4 21  1  6  0  0  0
  4  2  1  0  0  0  0
  4  1  1  0  0  0  0
  5  6  2  0  0  0  0
  5  9  1  0  0  0  0
  6  7  1  0  0  0  0
  7 12  1  0  0  0  0
  7  8  2  0  0  0  0
  9 10  2  0  0  0  0
 10  8  1  0  0  0  0
 10 19  1  0  0  0  0
 11 12  2  0  0  0  0
 13 16  1  0  0  0  0
 14 15  1  0  0  0  0
 14 17  1  0  0  0  0
 15 13  1  0  0  0  0
 16 11  1  6  0  0  0
 17 16  1  0  0  0  0
 19 18  1  0  0  0  0
 21 20  2  0  0  0  0
 22 23  2  0  0  0  0
 22 26  1  0  0  0  0
 23 25  1  0  0  0  0
 24 27  1  0  0  0  0
 25 27  2  0  0  0  0
 26 24  2  0  0  0  0
 27 21  1  0  0  0  0
 28 22  1  0  0  0  0
 29 28  2  0  0  0  0
 30 28  1  0  0  0  0
 31 30  1  0  0  0  0
M  END
>  <MODEL>
2

>  <REMARK>
 VINA RESULT:      -8.6      2.365      8.041
  Name = 
  7 active torsions:
  status: ('A' for Active; 'I' for Inactive)
    1  A    between atoms: N_3  and  C_18
    2  A    between atoms: C_5  and  C_10
    3  A    between atoms: C_6  and  N_29
    4  A    between atoms: C_12  and  C_28
    5  A    between atoms: O_21  and  C_25
    6  A    between atoms: C_22  and  C_24
    7  A    between atoms: C_22  and  C_27
                            x       y       z     vdW  Elec       q    Type
                         _______ _______ _______ _____ _____    ______ ____

>  <TORSDO>
F 7

$$$$
=
 OpenBabel10222415273D

 31 34  0  0  1  0  0  0  0  0999 V2000
  188.6720  177.1220  147.6110 C   0  0  2  0  0  3  0  0  0  0  0  0
  188.0090  177.7330  146.4240 N   0  0  0  0  0  0  0  0  0  0  0  0
  188.2580  177.8820  148.8530 C   0  0  0  0  0  1  0  0  0  0  0  0
  189.4450  177.9250  146.7950 C   0  0  2  0  0  3  0  0  0  0  0  0
  186.9080  177.5060  144.2610 C   0  0  0  0  0  3  0  0  0  0  0  0
  185.8130  177.7190  143.4200 C   0  0  0  0  0  3  0  0  0  0  0  0
  184.6810  178.3900  143.8920 C   0  0  0  0  0  0  0  0  0  0  0  0
  184.6570  178.8470  145.2200 C   0  0  0  0  0  3  0  0  0  0  0  0
  186.8820  177.9620  145.5820 C   0  0  0  0  0  0  0  0  0  0  0  0
  185.7530  178.6380  146.0710 C   0  0  0  0  0  0  0  0  0  0  0  0
  182.3900  178.9230  143.4150 C   0  0  0  0  0  3  0  0  0  0  0  0
  183.5750  178.5930  143.0060 N   0  0  0  0  0  0  0  0  0  0  0  0
  179.9620  178.6720  143.0420 C   0  0  0  0  0  2  0  0  0  0  0  0
  180.2040  177.9830  140.8710 C   0  0  0  0  0  2  0  0  0  0  0  0
  179.3240  177.8700  142.0250 N   0  0  0  0  0  2  0  0  0  0  0  0
  181.2700  179.1220  142.4490 C   0  0  2  0  0  3  0  0  0  0  0  0
  181.4860  178.3720  141.2890 O   0  0  0  0  0  0  0  0  0  0  0  0
  186.1720  180.3900  147.7700 C   0  0  0  0  0  1  0  0  0  0  0  0
  185.7410  179.0880  147.3960 O   0  0  0  0  0  0  0  0  0  0  0  0
  191.1000  176.2400  146.4420 O   0  0  0  0  0  0  0  0  0  0  0  0
  190.3260  177.0850  145.9140 C   0  0  0  0  0  0  0  0  0  0  0  0
  190.1540  177.4350  141.6360 C   0  0  0  0  0  0  0  0  0  0  0  0
  190.1080  176.1730  142.2450 C   0  0  0  0  0  3  0  0  0  0  0  0
  190.3110  178.4620  143.8310 C   0  0  0  0  0  3  0  0  0  0  0  0
  190.1640  176.0570  143.6350 C   0  0  0  0  0  3  0  0  0  0  0  0
  190.2550  178.5780  142.4400 C   0  0  0  0  0  3  0  0  0  0  0  0
  190.2640  177.2010  144.4410 C   0  0  0  0  0  0  0  0  0  0  0  0
  190.0940  177.5570  140.1680 C   0  0  0  0  0  0  0  0  0  0  0  0
  190.9450  176.9650  139.4500 O   0  0  0  0  0  0  0  0  0  0  0  0
  189.0700  178.3460  139.5570 N   0  0  0  0  0  2  0  0  0  0  0  0
  188.9690  178.4950  138.1140 C   0  0  0  0  0  1  0  0  0  0  0  0
  1  3  1  1  0  0  0
  2  4  1  0  0  0  0
  2  1  1  0  0  0  0
  4 21  1  6  0  0  0
  4  1  1  0  0  0  0
  5  9  1  0  0  0  0
  6  7  1  0  0  0  0
  6  5  2  0  0  0  0
  7  8  2  0  0  0  0
  8 10  1  0  0  0  0
  9 10  2  0  0  0  0
  9  2  1  0  0  0  0
 10 19  1  0  0  0  0
 12 11  2  0  0  0  0
 12  7  1  0  0  0  0
 14 17  1  0  0  0  0
 14 15  1  0  0  0  0
 15 13  1  0  0  0  0
 16 13  1  0  0  0  0
 16 11  1  1  0  0  0
 17 16  1  0  0  0  0
 19 18  1  0  0  0  0
 21 20  2  0  0  0  0
 22 23  2  0  0  0  0
 22 26  1  0  0  0  0
 23 25  1  0  0  0  0
 24 27  1  0  0  0  0
 25 27  2  0  0  0  0
 26 24  2  0  0  0  0
 27 21  1  0  0  0  0
 28 22  1  0  0  0  0
 29 28  2  0  0  0  0
 30 28  1  0  0  0  0
 31 30  1  0  0  0  0
M  END
>  <MODEL>
3

>  <REMARK>
 VINA RESULT:      -8.6      1.875      7.600
  Name = 
  7 active torsions:
  status: ('A' for Active; 'I' for Inactive)
    1  A    between atoms: N_3  and  C_18
    2  A    between atoms: C_5  and  C_10
    3  A    between atoms: C_6  and  N_29
    4  A    between atoms: C_12  and  C_28
    5  A    between atoms: O_21  and  C_25
    6  A    between atoms: C_22  and  C_24
    7  A    between atoms: C_22  and  C_27
                            x       y       z     vdW  Elec       q    Type
                         _______ _______ _______ _____ _____    ______ ____

>  <TORSDO>
F 7

$$$$
=
 OpenBabel10222415273D

 31 34  0  0  1  0  0  0  0  0999 V2000
  188.7520  176.9890  147.6000 C   0  0  2  0  0  3  0  0  0  0  0  0
  188.3920  177.5930  146.2850 N   0  0  0  0  0  0  0  0  0  0  0  0
  187.9540  177.6720  148.6900 C   0  0  0  0  0  1  0  0  0  0  0  0
  189.6510  177.8750  147.0400 C   0  0  2  0  0  3  0  0  0  0  0  0
  187.9230  177.3140  143.9090 C   0  0  0  0  0  3  0  0  0  0  0  0
  187.0860  177.4760  142.8030 C   0  0  0  0  0  3  0  0  0  0  0  0
  185.8410  178.0960  142.9450 C   0  0  0  0  0  0  0  0  0  0  0  0
  185.4410  178.5530  144.2120 C   0  0  0  0  0  3  0  0  0  0  0  0
  187.5240  177.7700  145.1690 C   0  0  0  0  0  0  0  0  0  0  0  0
  186.2760  178.3940  145.3290 C   0  0  0  0  0  0  0  0  0  0  0  0
  185.3390  178.9630  140.7640 C   0  0  0  0  0  3  0  0  0  0  0  0
  185.0060  178.2470  141.7930 N   0  0  0  0  0  0  0  0  0  0  0  0
  183.0540  178.5720  139.9140 C   0  0  0  0  0  2  0  0  0  0  0  0
  183.7680  177.8730  137.8530 C   0  0  0  0  0  2  0  0  0  0  0  0
  182.6790  177.7240  138.8060 N   0  0  0  0  0  2  0  0  0  0  0  0
  184.4300  179.0880  139.5870 C   0  0  2  0  0  3  0  0  0  0  0  0
  184.9160  178.3380  138.5120 O   0  0  0  0  0  0  0  0  0  0  0  0
  184.7280  178.3650  147.2600 C   0  0  0  0  0  1  0  0  0  0  0  0
  185.8890  178.8440  146.5960 O   0  0  0  0  0  0  0  0  0  0  0  0
  191.5520  176.4330  147.1600 O   0  0  0  0  0  0  0  0  0  0  0  0
  190.8040  177.1340  146.4230 C   0  0  0  0  0  0  0  0  0  0  0  0
  191.5110  177.2690  142.1880 C   0  0  0  0  0  0  0  0  0  0  0  0
  191.3680  176.0380  142.8420 C   0  0  0  0  0  3  0  0  0  0  0  0
  191.1900  178.4060  144.3100 C   0  0  0  0  0  3  0  0  0  0  0  0
  191.1380  175.9920  144.2190 C   0  0  0  0  0  3  0  0  0  0  0  0
  191.4200  178.4530  142.9330 C   0  0  0  0  0  3  0  0  0  0  0  0
  191.0450  177.1760  144.9650 C   0  0  0  0  0  0  0  0  0  0  0  0
  191.7530  177.3180  140.7350 C   0  0  0  0  0  0  0  0  0  0  0  0
  192.9020  177.5950  140.2960 O   0  0  0  0  0  0  0  0  0  0  0  0
  190.6850  177.0510  139.8220 N   0  0  0  0  0  2  0  0  0  0  0  0
  190.8760  177.0860  138.3820 C   0  0  0  0  0  1  0  0  0  0  0  0
  1  3  1  1  0  0  0
  2  4  1  0  0  0  0
  2  1  1  0  0  0  0
  4 21  1  6  0  0  0
  4  1  1  0  0  0  0
  5  9  1  0  0  0  0
  6  7  1  0  0  0  0
  6  5  2  0  0  0  0
  7  8  2  0  0  0  0
  8 10  1  0  0  0  0
  9 10  2  0  0  0  0
  9  2  1  0  0  0  0
 10 19  1  0  0  0  0
 11 12  2  0  0  0  0
 12  7  1  0  0  0  0
 14 17  1  0  0  0  0
 14 15  1  0  0  0  0
 15 13  1  0  0  0  0
 16 13  1  0  0  0  0
 16 11  1  1  0  0  0
 17 16  1  0  0  0  0
 19 18  1  0  0  0  0
 21 20  2  0  0  0  0
 22 23  2  0  0  0  0
 22 26  1  0  0  0  0
 23 25  1  0  0  0  0
 24 27  1  0  0  0  0
 25 27  2  0  0  0  0
 26 24  2  0  0  0  0
 27 21  1  0  0  0  0
 28 22  1  0  0  0  0
 29 28  2  0  0  0  0
 30 28  1  0  0  0  0
 31 30  1  0  0  0  0
M  END
>  <MODEL>
4

>  <REMARK>
 VINA RESULT:      -8.6      1.916      6.945
  Name = 
  7 active torsions:
  status: ('A' for Active; 'I' for Inactive)
    1  A    between atoms: N_3  and  C_18
    2  A    between atoms: C_5  and  C_10
    3  A    between atoms: C_6  and  N_29
    4  A    between atoms: C_12  and  C_28
    5  A    between atoms: O_21  and  C_25
    6  A    between atoms: C_22  and  C_24
    7  A    between atoms: C_22  and  C_27
                            x       y       z     vdW  Elec       q    Type
                         _______ _______ _______ _____ _____    ______ ____

>  <TORSDO>
F 7

$$$$
=
 OpenBabel10222415273D

 31 34  0  0  1  0  0  0  0  0999 V2000
  188.1150  177.9740  145.7840 C   0  0  2  0  0  3  0  0  0  0  0  0
  187.9370  177.7170  144.3260 N   0  0  0  0  0  0  0  0  0  0  0  0
  188.9380  176.8550  146.3850 C   0  0  0  0  0  1  0  0  0  0  0  0
  186.8880  177.4950  145.3680 C   0  0  2  0  0  3  0  0  0  0  0  0
  187.7620  178.4870  142.0200 C   0  0  0  0  0  3  0  0  0  0  0  0
  188.2030  178.4830  140.6950 C   0  0  0  0  0  3  0  0  0  0  0  0
  189.2880  177.6870  140.3150 C   0  0  0  0  0  0  0  0  0  0  0  0
  189.9300  176.8940  141.2800 C   0  0  0  0  0  3  0  0  0  0  0  0
  188.4010  177.6970  142.9790 C   0  0  0  0  0  0  0  0  0  0  0  0
  189.4930  176.8930  142.6140 C   0  0  0  0  0  0  0  0  0  0  0  0
  188.8950  177.7900  137.9500 C   0  0  0  0  0  3  0  0  0  0  0  0
  189.7160  177.7040  138.9500 N   0  0  0  0  0  0  0  0  0  0  0  0
  188.2710  177.5520  135.5730 C   0  0  0  0  0  2  0  0  0  0  0  0
  190.1570  176.3720  135.0290 C   0  0  0  0  0  2  0  0  0  0  0  0
  188.7660  176.5620  134.6460 N   0  0  0  0  0  2  0  0  0  0  0  0
  189.3940  177.8030  136.5430 C   0  0  2  0  0  3  0  0  0  0  0  0
  190.3460  176.7980  136.3520 O   0  0  0  0  0  0  0  0  0  0  0  0
  191.5190  176.1840  143.8490 C   0  0  0  0  0  1  0  0  0  0  0  0
  190.1240  176.1060  143.5850 O   0  0  0  0  0  0  0  0  0  0  0  0
  185.9860  179.5670  146.1400 O   0  0  0  0  0  0  0  0  0  0  0  0
  185.8760  178.6040  145.3320 C   0  0  0  0  0  0  0  0  0  0  0  0
  182.7100  178.6060  142.4280 C   0  0  0  0  0  0  0  0  0  0  0  0
  182.4710  179.0520  143.7350 C   0  0  0  0  0  3  0  0  0  0  0  0
  185.0210  178.1620  143.0280 C   0  0  0  0  0  3  0  0  0  0  0  0
  183.4990  179.0520  144.6810 C   0  0  0  0  0  3  0  0  0  0  0  0
  183.9930  178.1610  142.0820 C   0  0  0  0  0  3  0  0  0  0  0  0
  184.7840  178.6080  144.3350 C   0  0  0  0  0  0  0  0  0  0  0  0
  181.6250  178.6060  141.4310 C   0  0  0  0  0  0  0  0  0  0  0  0
  180.5140  178.0760  141.7050 O   0  0  0  0  0  0  0  0  0  0  0  0
  181.8310  179.2090  140.1500 N   0  0  0  0  0  2  0  0  0  0  0  0
  180.7910  179.2350  139.1340 C   0  0  0  0  0  1  0  0  0  0  0  0
  1  3  1  1  0  0  0
  2  4  1  0  0  0  0
  2  1  1  0  0  0  0
  4 21  1  6  0  0  0
  4  1  1  0  0  0  0
  5  9  1  0  0  0  0
  6  5  2  0  0  0  0
  7  6  1  0  0  0  0
  7  8  2  0  0  0  0
  8 10  1  0  0  0  0
  9  2  1  0  0  0  0
 10  9  2  0  0  0  0
 10 19  1  0  0  0  0
 11 12  2  0  0  0  0
 12  7  1  0  0  0  0
 13 16  1  0  0  0  0
 14 17  1  0  0  0  0
 15 14  1  0  0  0  0
 15 13  1  0  0  0  0
 16 11  1  1  0  0  0
 17 16  1  0  0  0  0
 19 18  1  0  0  0  0
 21 20  2  0  0  0  0
 22 23  1  0  0  0  0
 23 25  2  0  0  0  0
 24 27  2  0  0  0  0
 26 22  2  0  0  0  0
 26 24  1  0  0  0  0
 27 25  1  0  0  0  0
 27 21  1  0  0  0  0
 28 29  2  0  0  0  0
 28 22  1  0  0  0  0
 30 28  1  0  0  0  0
 31 30  1  0  0  0  0
M  END
>  <MODEL>
5

>  <REMARK>
 VINA RESULT:      -8.1      2.052      2.398
  Name = 
  7 active torsions:
  status: ('A' for Active; 'I' for Inactive)
    1  A    between atoms: N_3  and  C_18
    2  A    between atoms: C_5  and  C_10
    3  A    between atoms: C_6  and  N_29
    4  A    between atoms: C_12  and  C_28
    5  A    between atoms: O_21  and  C_25
    6  A    between atoms: C_22  and  C_24
    7  A    between atoms: C_22  and  C_27
                            x       y       z     vdW  Elec       q    Type
                         _______ _______ _______ _____ _____    ______ ____

>  <TORSDO>
F 7

$$$$
=
 OpenBabel10222415273D

 31 34  0  0  1  0  0  0  0  0999 V2000
  190.5250  177.6780  138.8750 C   0  0  2  0  0  3  0  0  0  0  0  0
  189.2190  177.6010  139.5890 N   0  0  0  0  0  0  0  0  0  0  0  0
  190.3860  177.0170  137.5200 C   0  0  0  0  0  1  0  0  0  0  0  0
  190.4050  176.7390  139.8800 C   0  0  2  0  0  3  0  0  0  0  0  0
  187.5310  178.5620  141.0610 C   0  0  0  0  0  3  0  0  0  0  0  0
  186.2210  178.9800  141.3080 C   0  0  0  0  0  3  0  0  0  0  0  0
  185.2430  178.8590  140.3160 C   0  0  0  0  0  0  0  0  0  0  0  0
  185.5930  178.3130  139.0690 C   0  0  0  0  0  3  0  0  0  0  0  0
  187.8760  178.0190  139.8210 C   0  0  0  0  0  0  0  0  0  0  0  0
  186.9060  177.8910  138.8140 C   0  0  0  0  0  0  0  0  0  0  0  0
  182.9830  178.5040  141.0400 C   0  0  0  0  0  3  0  0  0  0  0  0
  183.9100  179.2960  140.5990 N   0  0  0  0  0  0  0  0  0  0  0  0
  181.3210  179.0020  142.7970 C   0  0  0  0  0  2  0  0  0  0  0  0
  179.5530  178.2110  141.5740 C   0  0  0  0  0  2  0  0  0  0  0  0
  180.0130  178.4070  142.9400 N   0  0  0  0  0  2  0  0  0  0  0  0
  181.6070  179.0110  141.3190 C   0  0  2  0  0  3  0  0  0  0  0  0
  180.6520  178.1990  140.7010 O   0  0  0  0  0  0  0  0  0  0  0  0
  186.8150  177.8810  136.3400 C   0  0  0  0  0  1  0  0  0  0  0  0
  187.2670  177.3460  137.5760 O   0  0  0  0  0  0  0  0  0  0  0  0
  192.3060  177.5720  141.0620 O   0  0  0  0  0  0  0  0  0  0  0  0
  191.0980  177.2120  141.1260 C   0  0  0  0  0  0  0  0  0  0  0  0
  188.9930  177.4740  144.8620 C   0  0  0  0  0  0  0  0  0  0  0  0
  189.9340  178.4520  144.5100 C   0  0  0  0  0  3  0  0  0  0  0  0
  189.4350  176.3300  142.7660 C   0  0  0  0  0  3  0  0  0  0  0  0
  190.6190  178.3690  143.2960 C   0  0  0  0  0  3  0  0  0  0  0  0
  188.7490  176.4120  143.9800 C   0  0  0  0  0  3  0  0  0  0  0  0
  190.3750  177.3070  142.4120 C   0  0  0  0  0  0  0  0  0  0  0  0
  188.2700  177.5620  146.1430 C   0  0  0  0  0  0  0  0  0  0  0  0
  187.0160  177.4300  146.1690 O   0  0  0  0  0  0  0  0  0  0  0  0
  188.9880  177.7970  147.3560 N   0  0  0  0  0  2  0  0  0  0  0  0
  188.3190  177.8910  148.6430 C   0  0  0  0  0  1  0  0  0  0  0  0
  1  3  1  6  0  0  0
  1  2  1  0  0  0  0
  1  4  1  0  0  0  0
  2  9  1  0  0  0  0
  2  4  1  0  0  0  0
  4 21  1  1  0  0  0
  5  6  1  0  0  0  0
  7 12  1  0  0  0  0
  7  6  2  0  0  0  0
  8  7  1  0  0  0  0
  9  5  2  0  0  0  0
 10  8  2  0  0  0  0
 10  9  1  0  0  0  0
 12 11  2  0  0  0  0
 13 15  1  0  0  0  0
 14 15  1  0  0  0  0
 16 11  1  1  0  0  0
 16 13  1  0  0  0  0
 17 16  1  0  0  0  0
 17 14  1  0  0  0  0
 18 19  1  0  0  0  0
 19 10  1  0  0  0  0
 20 21  2  0  0  0  0
 21 27  1  0  0  0  0
 22 28  1  0  0  0  0
 23 22  1  0  0  0  0
 24 26  1  0  0  0  0
 25 23  2  0  0  0  0
 26 22  2  0  0  0  0
 27 24  2  0  0  0  0
 27 25  1  0  0  0  0
 28 29  2  0  0  0  0
 28 30  1  0  0  0  0
 30 31  1  0  0  0  0
M  END
>  <MODEL>
6

>  <REMARK>
 VINA RESULT:      -8.0      2.328      8.586
  Name = 
  7 active torsions:
  status: ('A' for Active; 'I' for Inactive)
    1  A    between atoms: N_3  and  C_18
    2  A    between atoms: C_5  and  C_10
    3  A    between atoms: C_6  and  N_29
    4  A    between atoms: C_12  and  C_28
    5  A    between atoms: O_21  and  C_25
    6  A    between atoms: C_22  and  C_24
    7  A    between atoms: C_22  and  C_27
                            x       y       z     vdW  Elec       q    Type
                         _______ _______ _______ _____ _____    ______ ____

>  <TORSDO>
F 7

$$$$
=
 OpenBabel10222415273D

 31 34  0  0  1  0  0  0  0  0999 V2000
  184.1540  179.0070  139.8430 C   0  0  2  0  0  3  0  0  0  0  0  0
  185.6130  178.7000  139.8320 N   0  0  0  0  0  0  0  0  0  0  0  0
  183.9070  180.2600  139.0290 C   0  0  0  0  0  1  0  0  0  0  0  0
  184.8760  179.3100  140.9800 C   0  0  2  0  0  3  0  0  0  0  0  0
  188.0080  178.2540  139.9090 C   0  0  0  0  0  3  0  0  0  0  0  0
  189.1800  177.7740  139.3200 C   0  0  0  0  0  3  0  0  0  0  0  0
  189.1530  177.2440  138.0260 C   0  0  0  0  0  0  0  0  0  0  0  0
  187.9360  177.1980  137.3270 C   0  0  0  0  0  3  0  0  0  0  0  0
  186.7980  178.2080  139.2110 C   0  0  0  0  0  0  0  0  0  0  0  0
  186.7540  177.6780  137.9120 C   0  0  0  0  0  0  0  0  0  0  0  0
  191.4350  176.5100  138.1460 C   0  0  0  0  0  3  0  0  0  0  0  0
  190.3710  176.7610  137.4500 N   0  0  0  0  0  0  0  0  0  0  0  0
  192.5410  174.5570  137.1170 C   0  0  0  0  0  2  0  0  0  0  0  0
  194.5770  175.0080  138.0660 C   0  0  0  0  0  2  0  0  0  0  0  0
  193.7540  173.9160  137.5690 N   0  0  0  0  0  2  0  0  0  0  0  0
  192.6810  176.0080  137.4950 C   0  0  2  0  0  3  0  0  0  0  0  0
  193.7660  176.1120  138.3680 O   0  0  0  0  0  0  0  0  0  0  0  0
  184.9440  176.4240  136.7800 C   0  0  0  0  0  1  0  0  0  0  0  0
  185.5350  177.6370  137.2250 O   0  0  0  0  0  0  0  0  0  0  0  0
  183.6450  177.5020  141.9380 O   0  0  0  0  0  0  0  0  0  0  0  0
  184.6320  178.2810  142.0470 C   0  0  0  0  0  0  0  0  0  0  0  0
  187.3010  177.8650  145.3870 C   0  0  0  0  0  0  0  0  0  0  0  0
  187.6720  177.3910  144.1220 C   0  0  0  0  0  3  0  0  0  0  0  0
  185.1830  178.6110  144.4590 C   0  0  0  0  0  3  0  0  0  0  0  0
  186.8070  177.5250  143.0350 C   0  0  0  0  0  3  0  0  0  0  0  0
  186.0490  178.4760  145.5480 C   0  0  0  0  0  3  0  0  0  0  0  0
  185.5540  178.1370  143.1930 C   0  0  0  0  0  0  0  0  0  0  0  0
  188.2150  177.7250  146.5350 C   0  0  0  0  0  0  0  0  0  0  0  0
  187.8300  178.0480  147.6920 O   0  0  0  0  0  0  0  0  0  0  0  0
  189.5380  177.2210  146.3380 N   0  0  0  0  0  2  0  0  0  0  0  0
  190.4750  177.0630  147.4380 C   0  0  0  0  0  1  0  0  0  0  0  0
  1  3  1  6  0  0  0
  1  4  1  0  0  0  0
  2  1  1  0  0  0  0
  2  4  1  0  0  0  0
  4 21  1  1  0  0  0
  6  5  1  0  0  0  0
  7  6  2  0  0  0  0
  8 10  2  0  0  0  0
  8  7  1  0  0  0  0
  9  2  1  0  0  0  0
  9  5  2  0  0  0  0
 10  9  1  0  0  0  0
 12  7  1  0  0  0  0
 12 11  2  0  0  0  0
 13 16  1  0  0  0  0
 13 15  1  0  0  0  0
 14 17  1  0  0  0  0
 15 14  1  0  0  0  0
 16 11  1  1  0  0  0
 16 17  1  0  0  0  0
 18 19  1  0  0  0  0
 19 10  1  0  0  0  0
 20 21  2  0  0  0  0
 21 27  1  0  0  0  0
 22 26  1  0  0  0  0
 22 28  1  0  0  0  0
 23 22  2  0  0  0  0
 24 26  2  0  0  0  0
 25 27  2  0  0  0  0
 25 23  1  0  0  0  0
 27 24  1  0  0  0  0
 28 29  2  0  0  0  0
 30 28  1  0  0  0  0
 30 31  1  0  0  0  0
M  END
>  <MODEL>
7

>  <REMARK>
 VINA RESULT:      -7.8      2.571      6.247
  Name = 
  7 active torsions:
  status: ('A' for Active; 'I' for Inactive)
    1  A    between atoms: N_3  and  C_18
    2  A    between atoms: C_5  and  C_10
    3  A    between atoms: C_6  and  N_29
    4  A    between atoms: C_12  and  C_28
    5  A    between atoms: O_21  and  C_25
    6  A    between atoms: C_22  and  C_24
    7  A    between atoms: C_22  and  C_27
                            x       y       z     vdW  Elec       q    Type
                         _______ _______ _______ _____ _____    ______ ____

>  <TORSDO>
F 7

$$$$
=
 OpenBabel10222415273D

 31 34  0  0  1  0  0  0  0  0999 V2000
  186.2620  177.6630  146.2290 C   0  0  2  0  0  3  0  0  0  0  0  0
  186.3860  178.1620  144.8290 N   0  0  0  0  0  0  0  0  0  0  0  0
  185.3070  178.5580  146.9890 C   0  0  0  0  0  1  0  0  0  0  0  0
  187.4100  178.3570  145.9010 C   0  0  2  0  0  3  0  0  0  0  0  0
  186.8190  178.4220  142.4450 C   0  0  0  0  0  3  0  0  0  0  0  0
  186.3680  178.5830  141.1320 C   0  0  0  0  0  3  0  0  0  0  0  0
  184.9980  178.6520  140.8600 C   0  0  0  0  0  0  0  0  0  0  0  0
  184.0810  178.5570  141.9200 C   0  0  0  0  0  3  0  0  0  0  0  0
  185.9050  178.3280  143.4980 C   0  0  0  0  0  0  0  0  0  0  0  0
  184.5260  178.3950  143.2410 C   0  0  0  0  0  0  0  0  0  0  0  0
  183.6160  178.1170  138.9730 C   0  0  0  0  0  3  0  0  0  0  0  0
  184.5680  178.8180  139.5060 N   0  0  0  0  0  0  0  0  0  0  0  0
  181.7930  178.8460  137.4750 C   0  0  0  0  0  2  0  0  0  0  0  0
  182.2010  177.2130  135.9210 C   0  0  0  0  0  2  0  0  0  0  0  0
  181.1410  178.0510  136.4610 N   0  0  0  0  0  2  0  0  0  0  0  0
  183.2050  178.3300  137.5540 C   0  0  2  0  0  3  0  0  0  0  0  0
  183.2530  177.1270  136.8450 O   0  0  0  0  0  0  0  0  0  0  0  0
  182.4220  179.0570  144.3670 C   0  0  0  0  0  1  0  0  0  0  0  0
  183.6220  178.2980  144.3060 O   0  0  0  0  0  0  0  0  0  0  0  0
  188.9000  176.6460  146.6460 O   0  0  0  0  0  0  0  0  0  0  0  0
  188.5580  177.4090  145.7010 C   0  0  0  0  0  0  0  0  0  0  0  0
  190.5890  177.1520  141.9240 C   0  0  0  0  0  0  0  0  0  0  0  0
  190.7670  178.2720  142.7480 C   0  0  0  0  0  3  0  0  0  0  0  0
  189.0830  176.2050  143.5780 C   0  0  0  0  0  3  0  0  0  0  0  0
  190.1080  178.3580  143.9760 C   0  0  0  0  0  3  0  0  0  0  0  0
  189.7420  176.1190  142.3490 C   0  0  0  0  0  3  0  0  0  0  0  0
  189.2600  177.3240  144.4030 C   0  0  0  0  0  0  0  0  0  0  0  0
  191.2860  177.0610  140.6290 C   0  0  0  0  0  0  0  0  0  0  0  0
  192.3660  177.6870  140.4470 O   0  0  0  0  0  0  0  0  0  0  0  0
  190.7380  176.2630  139.5760 N   0  0  0  0  0  2  0  0  0  0  0  0
  191.3890  176.1420  138.2820 C   0  0  0  0  0  1  0  0  0  0  0  0
  1  3  1  1  0  0  0
  2  4  1  0  0  0  0
  2  1  1  0  0  0  0
  4 21  1  6  0  0  0
  4  1  1  0  0  0  0
  5  9  1  0  0  0  0
  6  5  2  0  0  0  0
  7  6  1  0  0  0  0
  7  8  2  0  0  0  0
  8 10  1  0  0  0  0
  9  2  1  0  0  0  0
 10  9  2  0  0  0  0
 10 19  1  0  0  0  0
 11 12  2  0  0  0  0
 12  7  1  0  0  0  0
 13 16  1  0  0  0  0
 14 15  1  0  0  0  0
 14 17  1  0  0  0  0
 15 13  1  0  0  0  0
 16 11  1  1  0  0  0
 17 16  1  0  0  0  0
 19 18  1  0  0  0  0
 21 20  2  0  0  0  0
 22 26  2  0  0  0  0
 22 23  1  0  0  0  0
 23 25  2  0  0  0  0
 24 27  2  0  0  0  0
 25 27  1  0  0  0  0
 26 24  1  0  0  0  0
 27 21  1  0  0  0  0
 28 22  1  0  0  0  0
 29 28  2  0  0  0  0
 30 28  1  0  0  0  0
 31 30  1  0  0  0  0
M  END
>  <MODEL>
8

>  <REMARK>
 VINA RESULT:      -7.8      2.426      7.309
  Name = 
  7 active torsions:
  status: ('A' for Active; 'I' for Inactive)
    1  A    between atoms: N_3  and  C_18
    2  A    between atoms: C_5  and  C_10
    3  A    between atoms: C_6  and  N_29
    4  A    between atoms: C_12  and  C_28
    5  A    between atoms: O_21  and  C_25
    6  A    between atoms: C_22  and  C_24
    7  A    between atoms: C_22  and  C_27
                            x       y       z     vdW  Elec       q    Type
                         _______ _______ _______ _____ _____    ______ ____

>  <TORSDO>
F 7

$$$$
=
 OpenBabel10222415273D

 31 34  0  0  1  0  0  0  0  0999 V2000
  190.5690  177.0640  138.8650 C   0  0  2  0  0  3  0  0  0  0  0  0
  189.1870  177.2450  139.3940 N   0  0  0  0  0  0  0  0  0  0  0  0
  190.5400  176.0410  137.7490 C   0  0  0  0  0  1  0  0  0  0  0  0
  190.2670  176.4640  140.0710 C   0  0  2  0  0  3  0  0  0  0  0  0
  187.2790  178.3290  140.4550 C   0  0  0  0  0  3  0  0  0  0  0  0
  185.9800  178.8410  140.4010 C   0  0  0  0  0  3  0  0  0  0  0  0
  185.2500  178.7890  139.2100 C   0  0  0  0  0  0  0  0  0  0  0  0
  185.8360  178.2170  138.0690 C   0  0  0  0  0  3  0  0  0  0  0  0
  187.8600  177.7600  139.3190 C   0  0  0  0  0  0  0  0  0  0  0  0
  187.1400  177.7000  138.1140 C   0  0  0  0  0  0  0  0  0  0  0  0
  182.8680  178.5910  138.9980 C   0  0  0  0  0  3  0  0  0  0  0  0
  183.9220  179.3220  139.1870 N   0  0  0  0  0  0  0  0  0  0  0  0
  181.5190  180.5350  138.2920 C   0  0  0  0  0  2  0  0  0  0  0  0
  180.2750  180.5740  140.2150 C   0  0  0  0  0  2  0  0  0  0  0  0
  180.7790  181.4300  139.1510 N   0  0  0  0  0  2  0  0  0  0  0  0
  181.5040  179.1980  138.9830 C   0  0  2  0  0  3  0  0  0  0  0  0
  181.0460  179.4040  140.2860 O   0  0  0  0  0  0  0  0  0  0  0  0
  187.9240  177.8430  135.7700 C   0  0  0  0  0  1  0  0  0  0  0  0
  187.7350  177.1290  136.9840 O   0  0  0  0  0  0  0  0  0  0  0  0
  191.9250  177.8860  141.0390 O   0  0  0  0  0  0  0  0  0  0  0  0
  190.8440  177.2560  141.2100 C   0  0  0  0  0  0  0  0  0  0  0  0
  188.8010  177.5070  144.9810 C   0  0  0  0  0  0  0  0  0  0  0  0
  189.8920  178.3450  144.7110 C   0  0  0  0  0  3  0  0  0  0  0  0
  189.0530  176.5100  142.7810 C   0  0  0  0  0  3  0  0  0  0  0  0
  190.5570  178.2650  143.4850 C   0  0  0  0  0  3  0  0  0  0  0  0
  188.3870  176.5890  144.0070 C   0  0  0  0  0  3  0  0  0  0  0  0
  190.1430  177.3470  142.5090 C   0  0  0  0  0  0  0  0  0  0  0  0
  188.0990  177.5920  146.2740 C   0  0  0  0  0  0  0  0  0  0  0  0
  186.8550  177.3880  146.3310 O   0  0  0  0  0  0  0  0  0  0  0  0
  188.8260  177.9050  147.4650 N   0  0  0  0  0  2  0  0  0  0  0  0
  188.1770  177.9990  148.7620 C   0  0  0  0  0  1  0  0  0  0  0  0
  1  3  1  6  0  0  0
  1  2  1  0  0  0  0
  1  4  1  0  0  0  0
  2  4  1  0  0  0  0
  4 21  1  1  0  0  0
  6  5  1  0  0  0  0
  7  6  2  0  0  0  0
  8 10  2  0  0  0  0
  8  7  1  0  0  0  0
  9  2  1  0  0  0  0
  9  5  2  0  0  0  0
 10  9  1  0  0  0  0
 11 12  2  0  0  0  0
 12  7  1  0  0  0  0
 13 16  1  0  0  0  0
 13 15  1  0  0  0  0
 14 17  1  0  0  0  0
 15 14  1  0  0  0  0
 16 11  1  1  0  0  0
 16 17  1  0  0  0  0
 18 19  1  0  0  0  0
 19 10  1  0  0  0  0
 20 21  2  0  0  0  0
 21 27  1  0  0  0  0
 22 28  1  0  0  0  0
 23 22  1  0  0  0  0
 24 26  1  0  0  0  0
 25 23  2  0  0  0  0
 26 22  2  0  0  0  0
 27 24  2  0  0  0  0
 27 25  1  0  0  0  0
 28 29  2  0  0  0  0
 28 30  1  0  0  0  0
 30 31  1  0  0  0  0
M  END
>  <MODEL>
9

>  <REMARK>
 VINA RESULT:      -7.8      2.600      8.515
  Name = 
  7 active torsions:
  status: ('A' for Active; 'I' for Inactive)
    1  A    between atoms: N_3  and  C_18
    2  A    between atoms: C_5  and  C_10
    3  A    between atoms: C_6  and  N_29
    4  A    between atoms: C_12  and  C_28
    5  A    between atoms: O_21  and  C_25
    6  A    between atoms: C_22  and  C_24
    7  A    between atoms: C_22  and  C_27
                            x       y       z     vdW  Elec       q    Type
                         _______ _______ _______ _____ _____    ______ ____

>  <TORSDO>
F 7

$$$$
