=
 OpenBabel10222418093D

 25 28  0  0  1  0  0  0  0  0999 V2000
  189.5760  177.1470  145.9030 C   0  0  0  0  0  3  0  0  0  0  0  0
  186.8520  178.2430  146.9990 C   0  0  0  0  0  0  0  0  0  0  0  0
  189.8400  177.2940  147.2730 C   0  0  0  0  0  0  0  0  0  0  0  0
  185.5350  178.6800  147.0100 C   0  0  0  0  0  3  0  0  0  0  0  0
  184.5870  178.3200  142.9840 C   0  0  0  0  0  0  0  0  0  0  0  0
  187.6280  178.1790  148.1400 C   0  0  0  0  0  3  0  0  0  0  0  0
  185.0970  178.6050  145.7020 C   0  0  0  0  0  0  0  0  0  0  0  0
  188.9480  177.7570  148.2420 C   0  0  0  0  0  3  0  0  0  0  0  0
  188.4280  177.4030  145.1660 C   0  0  0  0  0  3  0  0  0  0  0  0
  185.8610  177.9780  143.4850 C   0  0  0  0  0  0  0  0  0  0  0  0
  183.5850  178.7950  143.8490 C   0  0  0  0  0  3  0  0  0  0  0  0
  187.2190  177.8900  145.6320 C   0  0  0  0  0  0  0  0  0  0  0  0
  186.0910  178.1350  144.8660 C   0  0  0  0  0  0  0  0  0  0  0  0
  183.8330  178.9410  145.2220 C   0  0  0  0  0  3  0  0  0  0  0  0
  184.3050  178.1910  141.6280 O   0  0  0  0  0  1  0  0  0  0  0  0
  191.9840  176.0520  147.0800 C   0  0  0  0  0  1  0  0  0  0  0  0
  191.1110  176.9530  147.7500 O   0  0  0  0  0  0  0  0  0  0  0  0
  186.9290  177.4980  142.5550 C   0  0  0  0  0  2  0  0  0  0  0  0
  187.3030  178.6060  141.5670 C   0  0  0  0  0  2  0  0  0  0  0  0
  188.8570  177.7410  139.9500 C   0  0  2  0  0  3  0  0  0  0  0  0
  190.0500  176.8410  140.1580 C   0  0  0  0  0  2  0  0  0  0  0  0
  190.1570  176.7060  141.6520 C   0  0  0  0  0  2  0  0  0  0  0  0
  189.0810  178.6200  138.7360 C   0  0  0  0  0  1  0  0  0  0  0  0
  188.7090  178.5670  141.1470 N   0  0  0  0  0  0  0  0  0  0  0  0
  189.5270  177.9680  142.2000 C   0  0  0  0  0  2  0  0  0  0  0  0
  1  3  1  0  0  0  0
  2  4  1  0  0  0  0
  2  6  2  0  0  0  0
  3 17  1  0  0  0  0
  3  8  2  0  0  0  0
  5 10  2  0  0  0  0
  5 11  1  0  0  0  0
  6  8  1  0  0  0  0
  7  4  2  0  0  0  0
  9 12  1  0  0  0  0
  9  1  2  0  0  0  0
 10 13  1  0  0  0  0
 11 14  2  0  0  0  0
 12  2  1  0  0  0  0
 13 12  2  0  0  0  0
 13  7  1  0  0  0  0
 14  7  1  0  0  0  0
 15  5  1  0  0  0  0
 16 17  1  0  0  0  0
 18 10  1  0  0  0  0
 19 18  1  0  0  0  0
 20 23  1  6  0  0  0
 20 21  1  0  0  0  0
 20 24  1  0  0  0  0
 21 22  1  0  0  0  0
 22 25  1  0  0  0  0
 24 19  1  0  0  0  0
 24 25  1  0  0  0  0
M  END
>  <MODEL>
1

>  <REMARK>
 VINA RESULT:     -10.9      0.000      0.000
  Name = 
  4 active torsions:
  status: ('A' for Active; 'I' for Inactive)
    1  A    between atoms: C_6  and  C_16
    2  A    between atoms: C_6  and  C_25
    3  A    between atoms: C_7  and  O_15
    4  A    between atoms: N_22  and  C_25
                            x       y       z     vdW  Elec       q    Type
                         _______ _______ _______ _____ _____    ______ ____

>  <TORSDO>
F 4

$$$$
=
 OpenBabel10222418093D

 25 28  0  0  1  0  0  0  0  0999 V2000
  185.0620  178.3010  142.6080 C   0  0  0  0  0  3  0  0  0  0  0  0
  184.9960  178.5430  145.7320 C   0  0  0  0  0  0  0  0  0  0  0  0
  183.7410  178.7090  142.8510 C   0  0  0  0  0  0  0  0  0  0  0  0
  185.4320  178.5110  147.0500 C   0  0  0  0  0  3  0  0  0  0  0  0
  189.3650  177.2940  146.5140 C   0  0  0  0  0  0  0  0  0  0  0  0
  183.7100  178.8990  145.3780 C   0  0  0  0  0  3  0  0  0  0  0  0
  186.7540  178.1130  147.0050 C   0  0  0  0  0  0  0  0  0  0  0  0
  183.1720  178.9670  144.0990 C   0  0  0  0  0  3  0  0  0  0  0  0
  186.1110  178.0520  143.4820 C   0  0  0  0  0  3  0  0  0  0  0  0
  188.4850  177.4800  145.4270 C   0  0  0  0  0  0  0  0  0  0  0  0
  188.9280  177.5240  147.8320 C   0  0  0  0  0  3  0  0  0  0  0  0
  186.0990  178.1500  144.8620 C   0  0  0  0  0  0  0  0  0  0  0  0
  187.1680  177.8930  145.7060 C   0  0  0  0  0  0  0  0  0  0  0  0
  187.6120  177.9380  148.0880 C   0  0  0  0  0  3  0  0  0  0  0  0
  190.6760  176.8820  146.2990 O   0  0  0  0  0  1  0  0  0  0  0  0
  181.4670  178.8180  141.8570 C   0  0  0  0  0  1  0  0  0  0  0  0
  182.8840  178.8840  141.7590 O   0  0  0  0  0  0  0  0  0  0  0  0
  188.9500  177.2090  144.0310 C   0  0  0  0  0  2  0  0  0  0  0  0
  189.9730  178.2650  143.6030 C   0  0  0  0  0  2  0  0  0  0  0  0
  189.1220  177.6050  141.4540 C   0  0  2  0  0  3  0  0  0  0  0  0
  189.7620  176.7330  140.4000 C   0  0  0  0  0  2  0  0  0  0  0  0
  191.1460  176.4700  140.9260 C   0  0  0  0  0  2  0  0  0  0  0  0
  188.1820  178.5960  140.8000 C   0  0  0  0  0  1  0  0  0  0  0  0
  190.1920  178.3150  142.1520 N   0  0  0  0  0  0  0  0  0  0  0  0
  191.4530  177.6540  141.8170 C   0  0  0  0  0  2  0  0  0  0  0  0
  1  3  2  0  0  0  0
  1  9  1  0  0  0  0
  2  4  2  0  0  0  0
  3  8  1  0  0  0  0
  5 11  1  0  0  0  0
  6  2  1  0  0  0  0
  7  4  1  0  0  0  0
  7 14  1  0  0  0  0
  8  6  2  0  0  0  0
  9 12  2  0  0  0  0
 10 13  1  0  0  0  0
 10  5  2  0  0  0  0
 11 14  2  0  0  0  0
 12 13  1  0  0  0  0
 12  2  1  0  0  0  0
 13  7  2  0  0  0  0
 15  5  1  0  0  0  0
 17 16  1  0  0  0  0
 17  3  1  0  0  0  0
 18 10  1  0  0  0  0
 19 18  1  0  0  0  0
 20 23  1  6  0  0  0
 20 24  1  0  0  0  0
 21 22  1  0  0  0  0
 21 20  1  0  0  0  0
 22 25  1  0  0  0  0
 24 19  1  0  0  0  0
 25 24  1  0  0  0  0
M  END
>  <MODEL>
2

>  <REMARK>
 VINA RESULT:     -10.1      1.131      5.126
  Name = 
  4 active torsions:
  status: ('A' for Active; 'I' for Inactive)
    1  A    between atoms: C_6  and  C_16
    2  A    between atoms: C_6  and  C_25
    3  A    between atoms: C_7  and  O_15
    4  A    between atoms: N_22  and  C_25
                            x       y       z     vdW  Elec       q    Type
                         _______ _______ _______ _____ _____    ______ ____

>  <TORSDO>
F 4

$$$$
=
 OpenBabel10222418093D

 25 28  0  0  1  0  0  0  0  0999 V2000
  184.9810  178.5000  142.3750 C   0  0  0  0  0  3  0  0  0  0  0  0
  184.7140  178.5320  145.4980 C   0  0  0  0  0  0  0  0  0  0  0  0
  183.6130  178.7460  142.5570 C   0  0  0  0  0  0  0  0  0  0  0  0
  185.0760  178.4620  146.8360 C   0  0  0  0  0  3  0  0  0  0  0  0
  189.1440  177.7140  146.4790 C   0  0  0  0  0  0  0  0  0  0  0  0
  183.4180  178.7690  145.0850 C   0  0  0  0  0  3  0  0  0  0  0  0
  186.4340  178.2130  146.8520 C   0  0  0  0  0  0  0  0  0  0  0  0
  182.9490  178.8610  143.7800 C   0  0  0  0  0  3  0  0  0  0  0  0
  186.0010  178.3090  143.2970 C   0  0  0  0  0  3  0  0  0  0  0  0
  188.3120  177.8730  145.3510 C   0  0  0  0  0  0  0  0  0  0  0  0
  188.6110  177.8100  147.7780 C   0  0  0  0  0  3  0  0  0  0  0  0
  185.9010  178.3170  144.6780 C   0  0  0  0  0  0  0  0  0  0  0  0
  186.9430  178.1230  145.5700 C   0  0  0  0  0  0  0  0  0  0  0  0
  187.2450  178.0630  147.9740 C   0  0  0  0  0  3  0  0  0  0  0  0
  190.5030  177.4600  146.3230 O   0  0  0  0  0  1  0  0  0  0  0  0
  182.5820  177.8630  140.4750 C   0  0  0  0  0  1  0  0  0  0  0  0
  182.8030  178.8980  141.4250 O   0  0  0  0  0  0  0  0  0  0  0  0
  188.8810  177.7440  143.9740 C   0  0  0  0  0  2  0  0  0  0  0  0
  188.8440  176.2800  143.5260 C   0  0  0  0  0  2  0  0  0  0  0  0
  191.2390  176.4100  143.3780 C   0  0  2  0  0  3  0  0  0  0  0  0
  192.1000  176.9810  142.2760 C   0  0  0  0  0  2  0  0  0  0  0  0
  191.1220  177.3360  141.1890 C   0  0  0  0  0  2  0  0  0  0  0  0
  191.9910  175.3080  144.0980 C   0  0  0  0  0  1  0  0  0  0  0  0
  190.0290  175.8700  142.7620 N   0  0  0  0  0  0  0  0  0  0  0  0
  189.9520  176.4000  141.4010 C   0  0  0  0  0  2  0  0  0  0  0  0
  1  3  2  0  0  0  0
  1  9  1  0  0  0  0
  2  4  2  0  0  0  0
  3  8  1  0  0  0  0
  4  7  1  0  0  0  0
  5 11  1  0  0  0  0
  6  2  1  0  0  0  0
  7 14  1  0  0  0  0
  8  6  2  0  0  0  0
  9 12  2  0  0  0  0
 10 13  1  0  0  0  0
 10  5  2  0  0  0  0
 11 14  2  0  0  0  0
 12  2  1  0  0  0  0
 12 13  1  0  0  0  0
 13  7  2  0  0  0  0
 15  5  1  0  0  0  0
 16 17  1  0  0  0  0
 17  3  1  0  0  0  0
 18 10  1  0  0  0  0
 19 18  1  0  0  0  0
 20 23  1  6  0  0  0
 21 20  1  0  0  0  0
 22 25  1  0  0  0  0
 22 21  1  0  0  0  0
 24 20  1  0  0  0  0
 24 19  1  0  0  0  0
 25 24  1  0  0  0  0
M  END
>  <MODEL>
3

>  <REMARK>
 VINA RESULT:     -10.1      1.559      5.409
  Name = 
  4 active torsions:
  status: ('A' for Active; 'I' for Inactive)
    1  A    between atoms: C_6  and  C_16
    2  A    between atoms: C_6  and  C_25
    3  A    between atoms: C_7  and  O_15
    4  A    between atoms: N_22  and  C_25
                            x       y       z     vdW  Elec       q    Type
                         _______ _______ _______ _____ _____    ______ ____

>  <TORSDO>
F 4

$$$$
=
 OpenBabel10222418093D

 25 28  0  0  1  0  0  0  0  0999 V2000
  185.3040  178.2320  143.1280 C   0  0  0  0  0  3  0  0  0  0  0  0
  186.1410  178.2140  146.1480 C   0  0  0  0  0  0  0  0  0  0  0  0
  184.1300  178.6550  143.7680 C   0  0  0  0  0  0  0  0  0  0  0  0
  186.9300  178.0590  147.2790 C   0  0  0  0  0  3  0  0  0  0  0  0
  190.4820  176.7810  145.5520 C   0  0  0  0  0  0  0  0  0  0  0  0
  184.8260  178.6350  146.2050 C   0  0  0  0  0  3  0  0  0  0  0  0
  188.1620  177.6300  146.8290 C   0  0  0  0  0  0  0  0  0  0  0  0
  183.9520  178.8250  145.1420 C   0  0  0  0  0  3  0  0  0  0  0  0
  186.5440  177.8810  143.6430 C   0  0  0  0  0  3  0  0  0  0  0  0
  189.3410  177.0820  144.7790 C   0  0  0  0  0  0  0  0  0  0  0  0
  190.4490  176.9120  146.9520 C   0  0  0  0  0  3  0  0  0  0  0  0
  186.9290  177.8640  144.9730 C   0  0  0  0  0  0  0  0  0  0  0  0
  188.1800  177.5070  145.4530 C   0  0  0  0  0  0  0  0  0  0  0  0
  189.2830  177.3400  147.6040 C   0  0  0  0  0  3  0  0  0  0  0  0
  191.6550  176.3510  144.9400 O   0  0  0  0  0  1  0  0  0  0  0  0
  181.6840  179.0060  143.5000 C   0  0  0  0  0  1  0  0  0  0  0  0
  183.0070  178.9460  142.9830 O   0  0  0  0  0  0  0  0  0  0  0  0
  189.3750  176.9150  143.2930 C   0  0  0  0  0  2  0  0  0  0  0  0
  190.3730  177.9000  142.6770 C   0  0  0  0  0  2  0  0  0  0  0  0
  188.9520  177.4570  140.7900 C   0  0  2  0  0  3  0  0  0  0  0  0
  189.2560  176.6960  139.5220 C   0  0  0  0  0  2  0  0  0  0  0  0
  190.7240  176.3810  139.6220 C   0  0  0  0  0  2  0  0  0  0  0  0
  187.8950  178.5080  140.5160 C   0  0  0  0  0  1  0  0  0  0  0  0
  190.1900  178.0940  141.2330 N   0  0  0  0  0  0  0  0  0  0  0  0
  191.2930  177.4710  140.5030 C   0  0  0  0  0  2  0  0  0  0  0  0
  1  9  2  0  0  0  0
  1  3  1  0  0  0  0
  2  6  2  0  0  0  0
  2  4  1  0  0  0  0
  3  8  2  0  0  0  0
  5 11  1  0  0  0  0
  7  4  2  0  0  0  0
  7 14  1  0  0  0  0
  8  6  1  0  0  0  0
  9 12  1  0  0  0  0
 10 13  1  0  0  0  0
 10  5  2  0  0  0  0
 11 14  2  0  0  0  0
 12 13  2  0  0  0  0
 12  2  1  0  0  0  0
 13  7  1  0  0  0  0
 15  5  1  0  0  0  0
 17 16  1  0  0  0  0
 17  3  1  0  0  0  0
 18 10  1  0  0  0  0
 19 18  1  0  0  0  0
 20 23  1  6  0  0  0
 20 24  1  0  0  0  0
 21 22  1  0  0  0  0
 21 20  1  0  0  0  0
 22 25  1  0  0  0  0
 24 19  1  0  0  0  0
 25 24  1  0  0  0  0
M  END
>  <MODEL>
4

>  <REMARK>
 VINA RESULT:     -10.0      1.242      5.024
  Name = 
  4 active torsions:
  status: ('A' for Active; 'I' for Inactive)
    1  A    between atoms: C_6  and  C_16
    2  A    between atoms: C_6  and  C_25
    3  A    between atoms: C_7  and  O_15
    4  A    between atoms: N_22  and  C_25
                            x       y       z     vdW  Elec       q    Type
                         _______ _______ _______ _____ _____    ______ ____

>  <TORSDO>
F 4

$$$$
=
 OpenBabel10222418093D

 25 28  0  0  1  0  0  0  0  0999 V2000
  190.4070  176.9250  145.0020 C   0  0  0  0  0  3  0  0  0  0  0  0
  187.7210  177.7660  146.3810 C   0  0  0  0  0  0  0  0  0  0  0  0
  190.7500  176.9120  146.3620 C   0  0  0  0  0  0  0  0  0  0  0  0
  186.3930  178.1460  146.5220 C   0  0  0  0  0  3  0  0  0  0  0  0
  185.2120  178.2500  142.5430 C   0  0  0  0  0  0  0  0  0  0  0  0
  188.5680  177.5930  147.4580 C   0  0  0  0  0  3  0  0  0  0  0  0
  185.8780  178.2160  145.2430 C   0  0  0  0  0  0  0  0  0  0  0  0
  189.9040  177.2150  147.4310 C   0  0  0  0  0  3  0  0  0  0  0  0
  189.2080  177.2250  144.3700 C   0  0  0  0  0  3  0  0  0  0  0  0
  186.5240  177.9000  142.9250 C   0  0  0  0  0  0  0  0  0  0  0  0
  184.2490  178.5740  143.5180 C   0  0  0  0  0  3  0  0  0  0  0  0
  188.0150  177.6010  144.9620 C   0  0  0  0  0  0  0  0  0  0  0  0
  186.8340  177.8940  144.2980 C   0  0  0  0  0  0  0  0  0  0  0  0
  184.5770  178.5580  144.8810 C   0  0  0  0  0  3  0  0  0  0  0  0
  184.8510  178.2790  141.2010 O   0  0  0  0  0  1  0  0  0  0  0  0
  192.3720  175.6950  147.7990 C   0  0  0  0  0  1  0  0  0  0  0  0
  192.0590  176.5660  146.7190 O   0  0  0  0  0  0  0  0  0  0  0  0
  187.5490  177.5820  141.8820 C   0  0  0  0  0  2  0  0  0  0  0  0
  187.9890  178.8650  141.1700 C   0  0  0  0  0  2  0  0  0  0  0  0
  187.6740  177.6240  139.1350 C   0  0  2  0  0  3  0  0  0  0  0  0
  188.6150  176.6670  138.4440 C   0  0  0  0  0  2  0  0  0  0  0  0
  189.8880  176.7590  139.2390 C   0  0  0  0  0  2  0  0  0  0  0  0
  186.7660  178.2790  138.1140 C   0  0  0  0  0  1  0  0  0  0  0  0
  188.4850  178.6370  139.8070 N   0  0  0  0  0  0  0  0  0  0  0  0
  189.8600  178.1420  139.8540 C   0  0  0  0  0  2  0  0  0  0  0  0
  1  3  1  0  0  0  0
  2  4  1  0  0  0  0
  2  6  2  0  0  0  0
  3 17  1  0  0  0  0
  3  8  2  0  0  0  0
  5 10  2  0  0  0  0
  5 11  1  0  0  0  0
  7  4  2  0  0  0  0
  8  6  1  0  0  0  0
  9 12  1  0  0  0  0
  9  1  2  0  0  0  0
 10 13  1  0  0  0  0
 11 14  2  0  0  0  0
 12  2  1  0  0  0  0
 13 12  2  0  0  0  0
 13  7  1  0  0  0  0
 14  7  1  0  0  0  0
 15  5  1  0  0  0  0
 17 16  1  0  0  0  0
 18 10  1  0  0  0  0
 19 18  1  0  0  0  0
 20 23  1  6  0  0  0
 20 24  1  0  0  0  0
 21 20  1  0  0  0  0
 21 22  1  0  0  0  0
 22 25  1  0  0  0  0
 24 25  1  0  0  0  0
 24 19  1  0  0  0  0
M  END
>  <MODEL>
5

>  <REMARK>
 VINA RESULT:      -9.9      1.109      1.385
  Name = 
  4 active torsions:
  status: ('A' for Active; 'I' for Inactive)
    1  A    between atoms: C_6  and  C_16
    2  A    between atoms: C_6  and  C_25
    3  A    between atoms: C_7  and  O_15
    4  A    between atoms: N_22  and  C_25
                            x       y       z     vdW  Elec       q    Type
                         _______ _______ _______ _____ _____    ______ ____

>  <TORSDO>
F 4

$$$$
=
 OpenBabel10222418093D

 25 28  0  0  1  0  0  0  0  0999 V2000
  188.8730  176.8820  141.9600 C   0  0  0  0  0  3  0  0  0  0  0  0
  190.2530  177.1130  144.7640 C   0  0  0  0  0  0  0  0  0  0  0  0
  190.2110  176.5860  141.6620 C   0  0  0  0  0  0  0  0  0  0  0  0
  190.4020  177.3190  146.1290 C   0  0  0  0  0  3  0  0  0  0  0  0
  186.4920  178.2330  147.1850 C   0  0  0  0  0  0  0  0  0  0  0  0
  191.3080  176.7760  143.9390 C   0  0  0  0  0  3  0  0  0  0  0  0
  189.1460  177.6340  146.6070 C   0  0  0  0  0  0  0  0  0  0  0  0
  191.2710  176.5470  142.5690 C   0  0  0  0  0  3  0  0  0  0  0  0
  188.2590  177.2030  143.1630 C   0  0  0  0  0  3  0  0  0  0  0  0
  186.8570  177.9330  145.8560 C   0  0  0  0  0  0  0  0  0  0  0  0
  187.4590  178.2250  148.2080 C   0  0  0  0  0  3  0  0  0  0  0  0
  188.8530  177.3130  144.4080 C   0  0  0  0  0  0  0  0  0  0  0  0
  188.2080  177.6360  145.5920 C   0  0  0  0  0  0  0  0  0  0  0  0
  188.7990  177.9240  147.9240 C   0  0  0  0  0  3  0  0  0  0  0  0
  185.1740  178.5390  147.5030 O   0  0  0  0  0  1  0  0  0  0  0  0
  190.3060  177.1800  139.2510 C   0  0  0  0  0  1  0  0  0  0  0  0
  190.5520  176.2950  140.3360 O   0  0  0  0  0  0  0  0  0  0  0  0
  185.8290  177.9680  144.7690 C   0  0  0  0  0  2  0  0  0  0  0  0
  185.3110  179.3970  144.5820 C   0  0  0  0  0  2  0  0  0  0  0  0
  183.6200  178.5490  143.1000 C   0  0  2  0  0  3  0  0  0  0  0  0
  183.7500  178.0750  141.6730 C   0  0  0  0  0  2  0  0  0  0  0  0
  185.1760  178.3860  141.3080 C   0  0  0  0  0  2  0  0  0  0  0  0
  182.2240  179.0900  143.3360 C   0  0  0  0  0  1  0  0  0  0  0  0
  184.6090  179.6050  143.3100 N   0  0  0  0  0  0  0  0  0  0  0  0
  185.5600  179.5460  142.2010 C   0  0  0  0  0  2  0  0  0  0  0  0
  1  9  1  0  0  0  0
  2  4  2  0  0  0  0
  3  1  2  0  0  0  0
  3  8  1  0  0  0  0
  4  7  1  0  0  0  0
  5 15  1  0  0  0  0
  5 11  1  0  0  0  0
  6  2  1  0  0  0  0
  7 14  1  0  0  0  0
  8  6  2  0  0  0  0
  9 12  2  0  0  0  0
 10  5  2  0  0  0  0
 12  2  1  0  0  0  0
 12 13  1  0  0  0  0
 13 10  1  0  0  0  0
 13  7  2  0  0  0  0
 14 11  2  0  0  0  0
 16 17  1  0  0  0  0
 17  3  1  0  0  0  0
 18 10  1  0  0  0  0
 19 18  1  0  0  0  0
 20 24  1  0  0  0  0
 20 23  1  6  0  0  0
 21 20  1  0  0  0  0
 22 21  1  0  0  0  0
 22 25  1  0  0  0  0
 24 19  1  0  0  0  0
 25 24  1  0  0  0  0
M  END
>  <MODEL>
6

>  <REMARK>
 VINA RESULT:      -9.9      2.319      5.241
  Name = 
  4 active torsions:
  status: ('A' for Active; 'I' for Inactive)
    1  A    between atoms: C_6  and  C_16
    2  A    between atoms: C_6  and  C_25
    3  A    between atoms: C_7  and  O_15
    4  A    between atoms: N_22  and  C_25
                            x       y       z     vdW  Elec       q    Type
                         _______ _______ _______ _____ _____    ______ ____

>  <TORSDO>
F 4

$$$$
=
 OpenBabel10222418093D

 25 28  0  0  1  0  0  0  0  0999 V2000
  187.9030  177.8370  140.8250 C   0  0  0  0  0  3  0  0  0  0  0  0
  185.3140  178.7430  142.3410 C   0  0  0  0  0  0  0  0  0  0  0  0
  187.0750  178.2640  139.7770 C   0  0  0  0  0  0  0  0  0  0  0  0
  184.4440  179.0030  143.3910 C   0  0  0  0  0  3  0  0  0  0  0  0
  186.7560  177.7680  146.6100 C   0  0  0  0  0  0  0  0  0  0  0  0
  184.9910  178.9930  141.0220 C   0  0  0  0  0  3  0  0  0  0  0  0
  185.1100  178.6280  144.5400 C   0  0  0  0  0  0  0  0  0  0  0  0
  185.7820  178.7750  139.9010 C   0  0  0  0  0  3  0  0  0  0  0  0
  187.6890  177.8000  142.1960 C   0  0  0  0  0  3  0  0  0  0  0  0
  187.2270  177.7010  145.2820 C   0  0  0  0  0  0  0  0  0  0  0  0
  185.4700  178.2680  146.8850 C   0  0  0  0  0  3  0  0  0  0  0  0
  186.5520  178.1920  142.8810 C   0  0  0  0  0  0  0  0  0  0  0  0
  186.3710  178.1410  144.2550 C   0  0  0  0  0  0  0  0  0  0  0  0
  184.6340  178.7050  145.8470 C   0  0  0  0  0  3  0  0  0  0  0  0
  187.5550  177.3420  147.6660 O   0  0  0  0  0  1  0  0  0  0  0  0
  188.9180  178.4270  138.1170 C   0  0  0  0  0  1  0  0  0  0  0  0
  187.5600  178.1860  138.4660 O   0  0  0  0  0  0  0  0  0  0  0  0
  188.5860  177.1440  144.9960 C   0  0  0  0  0  2  0  0  0  0  0  0
  189.6380  178.2520  145.0900 C   0  0  0  0  0  2  0  0  0  0  0  0
  190.9620  176.8450  143.6600 C   0  0  2  0  0  3  0  0  0  0  0  0
  191.8600  175.6880  144.0230 C   0  0  0  0  0  2  0  0  0  0  0  0
  191.8690  175.6830  145.5280 C   0  0  0  0  0  2  0  0  0  0  0  0
  191.4620  177.5040  142.3900 C   0  0  0  0  0  1  0  0  0  0  0  0
  190.9970  177.7990  144.7660 N   0  0  0  0  0  0  0  0  0  0  0  0
  191.5820  177.1170  145.9190 C   0  0  0  0  0  2  0  0  0  0  0  0
  1  9  1  0  0  0  0
  2 12  1  0  0  0  0
  2  4  2  0  0  0  0
  3  8  1  0  0  0  0
  3  1  2  0  0  0  0
  4  7  1  0  0  0  0
  5 11  1  0  0  0  0
  5 15  1  0  0  0  0
  6  2  1  0  0  0  0
  7 14  1  0  0  0  0
  8  6  2  0  0  0  0
  9 12  2  0  0  0  0
 10  5  2  0  0  0  0
 12 13  1  0  0  0  0
 13  7  2  0  0  0  0
 13 10  1  0  0  0  0
 14 11  2  0  0  0  0
 16 17  1  0  0  0  0
 17  3  1  0  0  0  0
 18 19  1  0  0  0  0
 18 10  1  0  0  0  0
 20 23  1  6  0  0  0
 20 21  1  0  0  0  0
 20 24  1  0  0  0  0
 21 22  1  0  0  0  0
 22 25  1  0  0  0  0
 24 19  1  0  0  0  0
 24 25  1  0  0  0  0
M  END
>  <MODEL>
7

>  <REMARK>
 VINA RESULT:      -9.5      1.976      5.345
  Name = 
  4 active torsions:
  status: ('A' for Active; 'I' for Inactive)
    1  A    between atoms: C_6  and  C_16
    2  A    between atoms: C_6  and  C_25
    3  A    between atoms: C_7  and  O_15
    4  A    between atoms: N_22  and  C_25
                            x       y       z     vdW  Elec       q    Type
                         _______ _______ _______ _____ _____    ______ ____

>  <TORSDO>
F 4

$$$$
=
 OpenBabel10222418093D

 25 28  0  0  1  0  0  0  0  0999 V2000
  185.5710  177.8630  143.3020 C   0  0  0  0  0  3  0  0  0  0  0  0
  187.0990  178.2110  146.0160 C   0  0  0  0  0  0  0  0  0  0  0  0
  184.6210  178.5180  144.1000 C   0  0  0  0  0  0  0  0  0  0  0  0
  188.1210  178.1400  146.9530 C   0  0  0  0  0  3  0  0  0  0  0  0
  191.0430  176.1930  144.7380 C   0  0  0  0  0  0  0  0  0  0  0  0
  185.8750  178.7910  146.2860 C   0  0  0  0  0  3  0  0  0  0  0  0
  189.1710  177.5010  146.3250 C   0  0  0  0  0  0  0  0  0  0  0  0
  184.7910  178.9170  145.4270 C   0  0  0  0  0  3  0  0  0  0  0  0
  186.8660  177.4500  143.5840 C   0  0  0  0  0  3  0  0  0  0  0  0
  189.7780  176.5060  144.1960 C   0  0  0  0  0  0  0  0  0  0  0  0
  191.3550  176.5420  146.0640 C   0  0  0  0  0  3  0  0  0  0  0  0
  187.5540  177.5920  144.7760 C   0  0  0  0  0  0  0  0  0  0  0  0
  188.8500  177.1660  145.0240 C   0  0  0  0  0  0  0  0  0  0  0  0
  190.4170  177.2030  146.8710 C   0  0  0  0  0  3  0  0  0  0  0  0
  191.9970  175.5360  143.9690 O   0  0  0  0  0  1  0  0  0  0  0  0
  182.1930  178.9990  144.3200 C   0  0  0  0  0  1  0  0  0  0  0  0
  183.3710  178.8160  143.5450 O   0  0  0  0  0  0  0  0  0  0  0  0
  189.4440  176.1080  142.7930 C   0  0  0  0  0  2  0  0  0  0  0  0
  190.0440  177.1120  141.8050 C   0  0  0  0  0  2  0  0  0  0  0  0
  190.5770  177.4840  139.4910 C   0  0  2  0  0  3  0  0  0  0  0  0
  189.8060  178.2500  138.4440 C   0  0  0  0  0  2  0  0  0  0  0  0
  188.5220  178.6280  139.1310 C   0  0  0  0  0  2  0  0  0  0  0  0
  191.3880  176.3870  138.8320 C   0  0  0  0  0  1  0  0  0  0  0  0
  189.6090  176.9030  140.4190 N   0  0  0  0  0  0  0  0  0  0  0  0
  188.3270  177.5680  140.1930 C   0  0  0  0  0  2  0  0  0  0  0  0
  1  9  2  0  0  0  0
  1  3  1  0  0  0  0
  2  6  2  0  0  0  0
  2  4  1  0  0  0  0
  3  8  2  0  0  0  0
  5 11  1  0  0  0  0
  7 14  1  0  0  0  0
  7  4  2  0  0  0  0
  8  6  1  0  0  0  0
  9 12  1  0  0  0  0
 10  5  2  0  0  0  0
 10 13  1  0  0  0  0
 11 14  2  0  0  0  0
 12 13  2  0  0  0  0
 12  2  1  0  0  0  0
 13  7  1  0  0  0  0
 15  5  1  0  0  0  0
 17  3  1  0  0  0  0
 17 16  1  0  0  0  0
 18 10  1  0  0  0  0
 19 18  1  0  0  0  0
 20 23  1  6  0  0  0
 20 24  1  0  0  0  0
 21 22  1  0  0  0  0
 21 20  1  0  0  0  0
 22 25  1  0  0  0  0
 24 19  1  0  0  0  0
 25 24  1  0  0  0  0
M  END
>  <MODEL>
8

>  <REMARK>
 VINA RESULT:      -9.5      1.470      5.087
  Name = 
  4 active torsions:
  status: ('A' for Active; 'I' for Inactive)
    1  A    between atoms: C_6  and  C_16
    2  A    between atoms: C_6  and  C_25
    3  A    between atoms: C_7  and  O_15
    4  A    between atoms: N_22  and  C_25
                            x       y       z     vdW  Elec       q    Type
                         _______ _______ _______ _____ _____    ______ ____

>  <TORSDO>
F 4

$$$$
=
 OpenBabel10222418093D

 25 28  0  0  1  0  0  0  0  0999 V2000
  188.8260  177.0030  142.7060 C   0  0  0  0  0  3  0  0  0  0  0  0
  187.3290  177.8450  145.3270 C   0  0  0  0  0  0  0  0  0  0  0  0
  189.8280  176.8740  143.6790 C   0  0  0  0  0  0  0  0  0  0  0  0
  186.3030  178.2650  146.1620 C   0  0  0  0  0  3  0  0  0  0  0  0
  183.2270  178.7160  143.4110 C   0  0  0  0  0  0  0  0  0  0  0  0
  188.5990  177.5560  145.7880 C   0  0  0  0  0  3  0  0  0  0  0  0
  185.2020  178.4520  145.3510 C   0  0  0  0  0  0  0  0  0  0  0  0
  189.6910  177.1280  145.0450 C   0  0  0  0  0  3  0  0  0  0  0  0
  187.5000  177.3980  142.8130 C   0  0  0  0  0  3  0  0  0  0  0  0
  184.5150  178.2860  143.0290 C   0  0  0  0  0  0  0  0  0  0  0  0
  182.9430  179.0030  144.7590 C   0  0  0  0  0  3  0  0  0  0  0  0
  186.8240  177.7750  143.9610 C   0  0  0  0  0  0  0  0  0  0  0  0
  185.4960  178.1640  144.0320 C   0  0  0  0  0  0  0  0  0  0  0  0
  183.9330  178.8720  145.7440 C   0  0  0  0  0  3  0  0  0  0  0  0
  182.2200  178.8600  142.4630 O   0  0  0  0  0  1  0  0  0  0  0  0
  191.8800  177.1270  142.3010 C   0  0  0  0  0  1  0  0  0  0  0  0
  191.1010  176.4500  143.2780 O   0  0  0  0  0  0  0  0  0  0  0  0
  184.8160  178.0070  141.5900 C   0  0  0  0  0  2  0  0  0  0  0  0
  185.3220  179.2790  140.9030 C   0  0  0  0  0  2  0  0  0  0  0  0
  183.6020  178.8010  139.2940 C   0  0  2  0  0  3  0  0  0  0  0  0
  183.6600  177.9290  138.0630 C   0  0  0  0  0  2  0  0  0  0  0  0
  185.1040  177.5180  137.9680 C   0  0  0  0  0  2  0  0  0  0  0  0
  182.5810  179.9030  139.0950 C   0  0  0  0  0  1  0  0  0  0  0  0
  184.9300  179.3790  139.4920 N   0  0  0  0  0  0  0  0  0  0  0  0
  185.8680  178.6260  138.6600 C   0  0  0  0  0  2  0  0  0  0  0  0
  1  9  2  0  0  0  0
  1  3  1  0  0  0  0
  2  6  2  0  0  0  0
  2  4  1  0  0  0  0
  3  8  2  0  0  0  0
  5 11  1  0  0  0  0
  7 14  1  0  0  0  0
  7  4  2  0  0  0  0
  8  6  1  0  0  0  0
  9 12  1  0  0  0  0
 10  5  2  0  0  0  0
 10 13  1  0  0  0  0
 11 14  2  0  0  0  0
 12 13  2  0  0  0  0
 12  2  1  0  0  0  0
 13  7  1  0  0  0  0
 15  5  1  0  0  0  0
 16 17  1  0  0  0  0
 17  3  1  0  0  0  0
 18 10  1  0  0  0  0
 19 18  1  0  0  0  0
 20 23  1  6  0  0  0
 20 24  1  0  0  0  0
 21 20  1  0  0  0  0
 22 21  1  0  0  0  0
 22 25  1  0  0  0  0
 24 19  1  0  0  0  0
 25 24  1  0  0  0  0
M  END
>  <MODEL>
9

>  <REMARK>
 VINA RESULT:      -9.4      2.489      3.615
  Name = 
  4 active torsions:
  status: ('A' for Active; 'I' for Inactive)
    1  A    between atoms: C_6  and  C_16
    2  A    between atoms: C_6  and  C_25
    3  A    between atoms: C_7  and  O_15
    4  A    between atoms: N_22  and  C_25
                            x       y       z     vdW  Elec       q    Type
                         _______ _______ _______ _____ _____    ______ ____

>  <TORSDO>
F 4

$$$$
