=
 OpenBabel10222420533D

 48 52  0  0  1  0  0  0  0  0999 V2000
  185.2310  177.9000  138.4910 C   0  0  0  0  0  0  0  0  0  0  0  0
  186.5670  177.2060  138.1880 C   0  0  2  0  0  3  0  0  0  0  0  0
  187.6280  177.2720  143.2890 C   0  0  1  0  0  3  0  0  0  0  0  0
  188.1060  177.9170  140.1120 C   0  0  2  0  0  3  0  0  0  0  0  0
  187.3380  178.5030  142.4100 C   0  0  0  0  0  2  0  0  0  0  0  0
  189.4760  179.3300  138.0380 O   0  0  0  0  0  0  0  0  0  0  0  0
  188.3880  176.1480  142.5690 C   0  0  0  0  0  2  0  0  0  0  0  0
  185.1050  178.9060  139.4920 C   0  0  0  0  0  0  0  0  0  0  0  0
  186.0780  179.1580  140.4660 O   0  0  0  0  0  0  0  0  0  0  0  0
  182.8690  179.3530  138.7810 N   0  0  0  0  0  0  0  0  0  0  0  0
  188.5170  178.5720  137.7270 C   0  0  0  0  0  0  0  0  0  0  0  0
  188.8160  176.6050  140.4390 C   0  0  0  0  0  2  0  0  0  0  0  0
  186.8900  178.1260  141.0030 C   0  0  1  0  0  3  0  0  0  0  0  0
  184.0570  177.5260  137.7850 C   0  0  0  0  0  0  0  0  0  0  0  0
  182.8980  178.2990  137.9300 C   0  0  0  0  0  3  0  0  0  0  0  0
  183.9290  179.6540  139.5670 C   0  0  0  0  0  3  0  0  0  0  0  0
  189.3750  176.6650  141.7230 O   0  0  0  0  0  0  0  0  0  0  0  0
  188.1430  178.3130  136.3190 C   0  0  2  0  0  3  0  0  0  0  0  0
  187.7100  177.9460  138.7120 N   0  0  0  0  0  0  0  0  0  0  0  0
  186.8510  177.0310  136.3760 S   0  0  0  0  0  0  0  0  0  0  0  0
  188.3040  177.6270  144.5840 C   0  0  0  0  0  0  0  0  0  0  0  0
  190.6560  177.4730  145.3490 C   0  0  0  0  0  3  0  0  0  0  0  0
  187.6140  177.4610  145.7160 C   0  0  0  0  0  3  0  0  0  0  0  0
  189.6530  178.2800  144.5970 C   0  0  0  0  0  2  0  0  0  0  0  0
  190.5590  177.1850  146.6520 C   0  0  0  0  0  0  0  0  0  0  0  0
  189.3980  177.5940  147.4810 C   0  0  0  0  0  3  0  0  0  0  0  0
  188.1260  177.7120  147.0770 C   0  0  0  0  0  3  0  0  0  0  0  0
  192.1150  175.4030  146.8150 O   0  0  0  0  0  0  0  0  0  0  0  0
  192.2590  177.0010  148.5080 N   0  0  0  0  0  2  0  0  0  0  0  0
  191.6740  176.4770  147.3090 C   0  0  0  0  0  0  0  0  0  0  0  0
  192.9450  175.0740  149.8080 C   0  0  0  0  0  1  0  0  0  0  0  0
  193.3930  176.3750  149.1710 C   0  0  0  0  0  3  0  0  0  0  0  0
  193.9360  177.2960  150.2480 C   0  0  0  0  0  1  0  0  0  0  0  0
  183.1350  174.7780  138.5140 N   0  0  0  0  0  2  0  0  0  0  0  0
  184.0460  176.3380  136.9740 N   0  0  0  0  0  2  0  0  0  0  0  0
  183.7720  173.9400  136.3960 N   0  0  0  0  0  0  0  0  0  0  0  0
  184.3190  174.1940  135.0740 C   0  0  0  0  0  1  0  0  0  0  0  0
  183.6430  175.0100  137.3460 C   0  0  0  0  0  0  0  0  0  0  0  0
  184.2010  171.6840  135.9730 O   0  0  0  0  0  1  0  0  0  0  0  0
  183.4400  172.5640  136.7440 C   0  0  0  0  0  2  0  0  0  0  0  0
  189.3100  177.7830  135.5450 C   0  0  0  0  0  3  0  0  0  0  0  0
  189.4240  175.8410  136.8550 F   0  0  0  0  0  0  0  0  0  0  0  0
  189.8750  176.6060  135.8210 C   0  0  0  0  0  0  0  0  0  0  0  0
  192.3480  176.4880  135.7010 C   0  0  0  0  0  1  0  0  0  0  0  0
  191.0410  176.1480  135.0040 C   0  0  1  0  0  3  0  0  0  0  0  0
  191.9820  173.9800  134.5950 O   0  0  0  0  0  0  0  0  0  0  0  0
  189.6950  174.0890  134.5970 O   0  0  0  0  0  1  0  0  0  0  0  0
  190.9430  174.6840  134.7070 C   0  0  0  0  0  0  0  0  0  0  0  0
  1  8  1  0  0  0  0
  2 20  1  6  0  0  0
  2  1  1  0  0  0  0
  2 19  1  0  0  0  0
  3 21  1  1  0  0  0
  4 12  1  1  0  0  0
  4 13  1  0  0  0  0
  5  3  1  0  0  0  0
  7  3  1  0  0  0  0
  8 16  2  0  0  0  0
  8  9  1  0  0  0  0
  9 13  1  0  0  0  0
 10 16  1  0  0  0  0
 11  6  2  0  0  0  0
 11 19  1  0  0  0  0
 12 17  1  0  0  0  0
 13  5  1  1  0  0  0
 14 15  1  0  0  0  0
 14  1  2  0  0  0  0
 15 10  2  0  0  0  0
 17  7  1  0  0  0  0
 18 41  1  6  0  0  0
 18 20  1  0  0  0  0
 18 11  1  0  0  0  0
 19  4  1  0  0  0  0
 21 24  1  0  0  0  0
 21 23  2  0  0  0  0
 22 25  2  0  0  0  0
 23 27  1  0  0  0  0
 24 22  1  0  0  0  0
 25 30  1  0  0  0  0
 25 26  1  0  0  0  0
 27 26  2  0  0  0  0
 28 30  2  0  0  0  0
 29 32  1  0  0  0  0
 30 29  1  0  0  0  0
 32 31  1  0  0  0  0
 32 33  1  0  0  0  0
 35 38  1  0  0  0  0
 35 14  1  0  0  0  0
 36 40  1  0  0  0  0
 36 38  1  0  0  0  0
 37 36  1  0  0  0  0
 38 34  2  0  0  0  0
 39 40  1  0  0  0  0
 41 43  2  0  0  0  0
 43 42  1  0  0  0  0
 45 44  1  1  0  0  0
 45 43  1  0  0  0  0
 46 48  2  0  0  0  0
 47 48  1  0  0  0  0
 48 45  1  0  0  0  0
M  END
>  <MODEL>
1

>  <REMARK>
 VINA RESULT:      -6.9      0.000      0.000
  Name = 
  8 active torsions:
  status: ('A' for Active; 'I' for Inactive)
    1  A    between atoms: C_1  and  C_6
    2  A    between atoms: N_17  and  C_30
    3  A    between atoms: N_22  and  C_40
    4  A    between atoms: C_24  and  C_38
    5  A    between atoms: C_25  and  N_31
    6  A    between atoms: C_26  and  C_32
    7  A    between atoms: C_35  and  C_47
    8  A    between atoms: C_44  and  C_47
                            x       y       z     vdW  Elec       q    Type
                         _______ _______ _______ _____ _____    ______ ____

>  <TORSDO>
F 8

$$$$
=
 OpenBabel10222420533D

 48 52  0  0  1  0  0  0  0  0999 V2000
  181.3820  178.7230  136.7340 C   0  0  0  0  0  0  0  0  0  0  0  0
  182.1690  179.0910  138.0000 C   0  0  2  0  0  3  0  0  0  0  0  0
  186.5690  177.8830  135.4840 C   0  0  1  0  0  3  0  0  0  0  0  0
  184.3100  177.6890  137.8510 C   0  0  2  0  0  3  0  0  0  0  0  0
  185.3770  176.9370  135.7270 C   0  0  0  0  0  2  0  0  0  0  0  0
  183.1800  176.3450  140.1080 O   0  0  0  0  0  0  0  0  0  0  0  0
  186.8250  178.8780  136.6250 C   0  0  0  0  0  2  0  0  0  0  0  0
  181.7500  177.6280  135.8990 C   0  0  0  0  0  0  0  0  0  0  0  0
  182.9830  176.9720  135.9790 O   0  0  0  0  0  0  0  0  0  0  0  0
  179.7440  177.9020  134.6330 N   0  0  0  0  0  0  0  0  0  0  0  0
  182.5960  177.3670  139.6520 C   0  0  0  0  0  0  0  0  0  0  0  0
  185.3700  178.6970  138.2910 C   0  0  0  0  0  2  0  0  0  0  0  0
  184.1770  177.6520  136.3360 C   0  0  1  0  0  3  0  0  0  0  0  0
  180.2630  179.5030  136.3380 C   0  0  0  0  0  0  0  0  0  0  0  0
  179.4430  179.0420  135.3000 C   0  0  0  0  0  3  0  0  0  0  0  0
  180.8760  177.2080  134.8960 C   0  0  0  0  0  3  0  0  0  0  0  0
  186.6400  178.2770  137.8740 O   0  0  0  0  0  0  0  0  0  0  0  0
  181.4040  177.9500  140.3070 C   0  0  2  0  0  3  0  0  0  0  0  0
  183.0250  178.0030  138.4580 N   0  0  0  0  0  0  0  0  0  0  0  0
  181.0480  179.4930  139.4070 S   0  0  0  0  0  0  0  0  0  0  0  0
  187.8300  177.1500  135.1230 C   0  0  0  0  0  0  0  0  0  0  0  0
  188.7380  174.9400  135.7810 C   0  0  0  0  0  3  0  0  0  0  0  0
  188.9340  177.8720  134.9110 C   0  0  0  0  0  3  0  0  0  0  0  0
  187.8180  175.6730  134.8650 C   0  0  0  0  0  2  0  0  0  0  0  0
  190.0620  175.1270  135.8190 C   0  0  0  0  0  0  0  0  0  0  0  0
  190.7540  176.1400  134.9850 C   0  0  0  0  0  3  0  0  0  0  0  0
  190.2680  177.3260  134.5940 C   0  0  0  0  0  3  0  0  0  0  0  0
  190.3170  173.4080  137.4330 O   0  0  0  0  0  0  0  0  0  0  0  0
  192.3070  174.3750  136.6920 N   0  0  0  0  0  2  0  0  0  0  0  0
  190.8780  174.2570  136.6880 C   0  0  0  0  0  0  0  0  0  0  0  0
  194.3830  174.2940  137.9390 C   0  0  0  0  0  1  0  0  0  0  0  0
  193.1660  173.5110  137.4880 C   0  0  0  0  0  3  0  0  0  0  0  0
  193.6170  172.3230  136.6590 C   0  0  0  0  0  1  0  0  0  0  0  0
  180.7160  182.2450  135.2380 N   0  0  0  0  0  2  0  0  0  0  0  0
  180.0080  180.7740  136.9620 N   0  0  0  0  0  2  0  0  0  0  0  0
  179.9980  183.2370  137.2610 N   0  0  0  0  0  0  0  0  0  0  0  0
  179.4750  183.0730  138.6070 C   0  0  0  0  0  1  0  0  0  0  0  0
  180.2700  182.0880  136.4430 C   0  0  0  0  0  0  0  0  0  0  0  0
  181.5620  184.9710  137.2850 O   0  0  0  0  0  1  0  0  0  0  0  0
  180.3080  184.5880  136.8090 C   0  0  0  0  0  2  0  0  0  0  0  0
  181.6910  178.2850  141.7370 C   0  0  0  0  0  3  0  0  0  0  0  0
  183.7140  179.3360  141.1900 F   0  0  0  0  0  0  0  0  0  0  0  0
  182.7850  178.9520  142.1100 C   0  0  0  0  0  0  0  0  0  0  0  0
  181.8590  178.6860  144.3930 C   0  0  0  0  0  1  0  0  0  0  0  0
  183.0010  179.2450  143.5600 C   0  0  1  0  0  3  0  0  0  0  0  0
  184.7820  179.0260  145.1530 O   0  0  0  0  0  1  0  0  0  0  0  0
  185.0340  177.8430  143.2090 O   0  0  0  0  0  0  0  0  0  0  0  0
  184.3240  178.7170  144.0210 C   0  0  0  0  0  0  0  0  0  0  0  0
  2  1  1  6  0  0  0
  2 19  1  0  0  0  0
  2 20  1  0  0  0  0
  3 21  1  1  0  0  0
  3  5  1  0  0  0  0
  3  7  1  0  0  0  0
  4 12  1  6  0  0  0
  4 19  1  0  0  0  0
  7 17  1  0  0  0  0
  8  9  1  0  0  0  0
  8  1  2  0  0  0  0
  9 13  1  0  0  0  0
 10 16  2  0  0  0  0
 10 15  1  0  0  0  0
 11  6  2  0  0  0  0
 11 18  1  0  0  0  0
 13  5  1  6  0  0  0
 13  4  1  0  0  0  0
 14  1  1  0  0  0  0
 14 35  1  0  0  0  0
 15 14  2  0  0  0  0
 16  8  1  0  0  0  0
 17 12  1  0  0  0  0
 18 41  1  1  0  0  0
 19 11  1  0  0  0  0
 20 18  1  0  0  0  0
 22 25  2  0  0  0  0
 23 21  2  0  0  0  0
 24 21  1  0  0  0  0
 24 22  1  0  0  0  0
 25 30  1  0  0  0  0
 26 25  1  0  0  0  0
 27 23  1  0  0  0  0
 27 26  2  0  0  0  0
 29 32  1  0  0  0  0
 30 29  1  0  0  0  0
 30 28  2  0  0  0  0
 32 31  1  0  0  0  0
 33 32  1  0  0  0  0
 34 38  2  0  0  0  0
 36 37  1  0  0  0  0
 38 35  1  0  0  0  0
 38 36  1  0  0  0  0
 40 36  1  0  0  0  0
 40 39  1  0  0  0  0
 41 43  2  0  0  0  0
 42 43  1  0  0  0  0
 43 45  1  0  0  0  0
 45 48  1  0  0  0  0
 45 44  1  1  0  0  0
 47 48  2  0  0  0  0
 48 46  1  0  0  0  0
M  END
>  <MODEL>
2

>  <REMARK>
 VINA RESULT:      -6.0      5.191      9.318
  Name = 
  8 active torsions:
  status: ('A' for Active; 'I' for Inactive)
    1  A    between atoms: C_1  and  C_6
    2  A    between atoms: N_17  and  C_30
    3  A    between atoms: N_22  and  C_40
    4  A    between atoms: C_24  and  C_38
    5  A    between atoms: C_25  and  N_31
    6  A    between atoms: C_26  and  C_32
    7  A    between atoms: C_35  and  C_47
    8  A    between atoms: C_44  and  C_47
                            x       y       z     vdW  Elec       q    Type
                         _______ _______ _______ _____ _____    ______ ____

>  <TORSDO>
F 8

$$$$
=
 OpenBabel10222420533D

 48 52  0  0  1  0  0  0  0  0999 V2000
  189.1440  176.6960  137.2870 C   0  0  0  0  0  0  0  0  0  0  0  0
  190.2390  175.8360  137.9350 C   0  0  2  0  0  3  0  0  0  0  0  0
  188.3190  177.1110  142.6080 C   0  0  1  0  0  3  0  0  0  0  0  0
  190.5840  176.8800  140.2510 C   0  0  2  0  0  3  0  0  0  0  0  0
  188.8320  178.0970  141.5420 C   0  0  0  0  0  2  0  0  0  0  0  0
  193.1330  177.5940  139.1720 O   0  0  0  0  0  0  0  0  0  0  0  0
  189.0830  175.7800  142.6560 C   0  0  0  0  0  2  0  0  0  0  0  0
  188.7120  177.9310  137.8520 C   0  0  0  0  0  0  0  0  0  0  0  0
  189.0200  178.3390  139.1540 O   0  0  0  0  0  0  0  0  0  0  0  0
  187.3910  178.3720  135.9100 N   0  0  0  0  0  0  0  0  0  0  0  0
  192.3640  176.8670  138.4860 C   0  0  0  0  0  0  0  0  0  0  0  0
  190.6940  175.6390  141.1350 C   0  0  0  0  0  2  0  0  0  0  0  0
  189.1590  177.4130  140.2200 C   0  0  1  0  0  3  0  0  0  0  0  0
  188.5000  176.2560  136.1010 C   0  0  0  0  0  0  0  0  0  0  0  0
  187.6520  177.1370  135.4180 C   0  0  0  0  0  3  0  0  0  0  0  0
  187.8830  178.7720  137.1070 C   0  0  0  0  0  3  0  0  0  0  0  0
  190.4560  175.9770  142.4740 O   0  0  0  0  0  0  0  0  0  0  0  0
  192.7760  176.2900  137.1870 C   0  0  2  0  0  3  0  0  0  0  0  0
  191.0360  176.5840  138.9000 N   0  0  0  0  0  0  0  0  0  0  0  0
  191.4230  175.1810  136.6840 S   0  0  0  0  0  0  0  0  0  0  0  0
  188.2330  177.7250  143.9770 C   0  0  0  0  0  0  0  0  0  0  0  0
  189.9410  178.2440  145.6970 C   0  0  0  0  0  3  0  0  0  0  0  0
  187.1440  177.4730  144.7090 C   0  0  0  0  0  3  0  0  0  0  0  0
  189.2650  178.7050  144.4500 C   0  0  0  0  0  2  0  0  0  0  0  0
  189.3090  178.0410  146.8580 C   0  0  0  0  0  0  0  0  0  0  0  0
  187.8410  178.1960  147.0130 C   0  0  0  0  0  3  0  0  0  0  0  0
  186.9060  177.9500  146.0860 C   0  0  0  0  0  3  0  0  0  0  0  0
  189.6440  177.9190  149.2030 O   0  0  0  0  0  0  0  0  0  0  0  0
  191.4090  177.1130  147.9070 N   0  0  0  0  0  2  0  0  0  0  0  0
  190.1070  177.6970  148.0510 C   0  0  0  0  0  0  0  0  0  0  0  0
  192.9620  177.9110  149.5870 C   0  0  0  0  0  1  0  0  0  0  0  0
  192.2200  176.7060  149.0440 C   0  0  0  0  0  3  0  0  0  0  0  0
  193.2250  175.6540  148.6140 C   0  0  0  0  0  1  0  0  0  0  0  0
  186.8520  173.8400  136.7170 N   0  0  0  0  0  2  0  0  0  0  0  0
  188.6780  174.9060  135.6370 N   0  0  0  0  0  2  0  0  0  0  0  0
  188.2940  172.4620  135.4490 N   0  0  0  0  0  0  0  0  0  0  0  0
  189.4640  172.3420  134.5940 C   0  0  0  0  0  1  0  0  0  0  0  0
  187.9070  173.7410  135.9750 C   0  0  0  0  0  0  0  0  0  0  0  0
  188.1340  170.1540  135.1250 O   0  0  0  0  0  1  0  0  0  0  0  0
  187.5880  171.2390  135.8110 C   0  0  0  0  0  2  0  0  0  0  0  0
  194.0280  175.4820  137.3350 C   0  0  0  0  0  3  0  0  0  0  0  0
  194.3990  175.4500  135.0190 F   0  0  0  0  0  0  0  0  0  0  0  0
  194.7710  175.1190  136.2880 C   0  0  0  0  0  0  0  0  0  0  0  0
  195.8160  172.8890  136.0100 C   0  0  0  0  0  1  0  0  0  0  0  0
  196.0070  174.3090  136.5180 C   0  0  1  0  0  3  0  0  0  0  0  0
  197.7430  174.4580  134.8680 O   0  0  0  0  0  0  0  0  0  0  0  0
  197.6820  176.1530  136.4080 O   0  0  0  0  0  1  0  0  0  0  0  0
  197.1980  174.9600  135.8880 C   0  0  0  0  0  0  0  0  0  0  0  0
  1  8  1  0  0  0  0
  1  2  1  0  0  0  0
  2 20  1  6  0  0  0
  2 19  1  0  0  0  0
  3  7  1  0  0  0  0
  3 21  1  1  0  0  0
  4 12  1  1  0  0  0
  5  3  1  0  0  0  0
  8  9  1  0  0  0  0
  9 13  1  0  0  0  0
 10 16  1  0  0  0  0
 11 19  1  0  0  0  0
 11  6  2  0  0  0  0
 12 17  1  0  0  0  0
 13  4  1  0  0  0  0
 13  5  1  1  0  0  0
 14  1  2  0  0  0  0
 15 10  2  0  0  0  0
 15 14  1  0  0  0  0
 16  8  2  0  0  0  0
 17  7  1  0  0  0  0
 18 41  1  1  0  0  0
 18 11  1  0  0  0  0
 19  4  1  0  0  0  0
 20 18  1  0  0  0  0
 21 24  1  0  0  0  0
 21 23  2  0  0  0  0
 22 25  2  0  0  0  0
 23 27  1  0  0  0  0
 24 22  1  0  0  0  0
 25 26  1  0  0  0  0
 25 30  1  0  0  0  0
 27 26  2  0  0  0  0
 29 30  1  0  0  0  0
 29 32  1  0  0  0  0
 30 28  2  0  0  0  0
 32 31  1  0  0  0  0
 33 32  1  0  0  0  0
 35 38  1  0  0  0  0
 35 14  1  0  0  0  0
 36 40  1  0  0  0  0
 36 38  1  0  0  0  0
 37 36  1  0  0  0  0
 38 34  2  0  0  0  0
 39 40  1  0  0  0  0
 42 43  1  0  0  0  0
 43 45  1  0  0  0  0
 43 41  2  0  0  0  0
 45 44  1  6  0  0  0
 46 48  2  0  0  0  0
 48 47  1  0  0  0  0
 48 45  1  0  0  0  0
M  END
>  <MODEL>
3

>  <REMARK>
 VINA RESULT:      -5.8      2.998      4.048
  Name = 
  8 active torsions:
  status: ('A' for Active; 'I' for Inactive)
    1  A    between atoms: C_1  and  C_6
    2  A    between atoms: N_17  and  C_30
    3  A    between atoms: N_22  and  C_40
    4  A    between atoms: C_24  and  C_38
    5  A    between atoms: C_25  and  N_31
    6  A    between atoms: C_26  and  C_32
    7  A    between atoms: C_35  and  C_47
    8  A    between atoms: C_44  and  C_47
                            x       y       z     vdW  Elec       q    Type
                         _______ _______ _______ _____ _____    ______ ____

>  <TORSDO>
F 8

$$$$
=
 OpenBabel10222420533D

 48 52  0  0  1  0  0  0  0  0999 V2000
  181.9850  178.0350  141.6860 C   0  0  0  0  0  0  0  0  0  0  0  0
  183.1580  177.5720  140.8110 C   0  0  2  0  0  3  0  0  0  0  0  0
  186.1860  177.5990  145.0520 C   0  0  1  0  0  3  0  0  0  0  0  0
  185.2420  178.4380  142.0280 C   0  0  2  0  0  3  0  0  0  0  0  0
  185.4080  178.8030  144.4880 C   0  0  0  0  0  2  0  0  0  0  0  0
  185.4580  180.1310  139.7340 O   0  0  0  0  0  0  0  0  0  0  0  0
  186.7230  176.6380  143.9810 C   0  0  0  0  0  2  0  0  0  0  0  0
  182.1500  178.9670  142.7510 C   0  0  0  0  0  0  0  0  0  0  0  0
  183.3940  179.3300  143.2800 O   0  0  0  0  0  0  0  0  0  0  0  0
  179.7810  179.0860  143.0330 N   0  0  0  0  0  0  0  0  0  0  0  0
  184.5600  179.2450  139.7540 C   0  0  0  0  0  0  0  0  0  0  0  0
  186.1850  177.2420  141.9130 C   0  0  0  0  0  2  0  0  0  0  0  0
  184.4790  178.4170  143.3440 C   0  0  1  0  0  3  0  0  0  0  0  0
  180.6840  177.5100  141.4700 C   0  0  0  0  0  0  0  0  0  0  0  0
  179.5960  178.0840  142.1400 C   0  0  0  0  0  3  0  0  0  0  0  0
  181.0220  179.5180  143.3610 C   0  0  0  0  0  3  0  0  0  0  0  0
  187.2050  177.3370  142.8690 O   0  0  0  0  0  0  0  0  0  0  0  0
  183.6820  178.9870  138.5920 C   0  0  2  0  0  3  0  0  0  0  0  0
  184.3110  178.4610  140.9100 N   0  0  0  0  0  0  0  0  0  0  0  0
  182.7000  177.5170  139.0270 S   0  0  0  0  0  0  0  0  0  0  0  0
  187.2790  178.0020  146.0010 C   0  0  0  0  0  0  0  0  0  0  0  0
  189.7320  177.6480  145.9890 C   0  0  0  0  0  3  0  0  0  0  0  0
  186.9920  178.0400  147.3050 C   0  0  0  0  0  3  0  0  0  0  0  0
  188.6030  178.4870  145.4920 C   0  0  0  0  0  2  0  0  0  0  0  0
  190.0500  177.5110  147.2810 C   0  0  0  0  0  0  0  0  0  0  0  0
  189.2660  178.1410  148.3720 C   0  0  0  0  0  3  0  0  0  0  0  0
  187.9450  178.3680  148.3840 C   0  0  0  0  0  3  0  0  0  0  0  0
  191.5870  175.7340  146.9600 O   0  0  0  0  0  0  0  0  0  0  0  0
  192.0660  177.1470  148.7540 N   0  0  0  0  0  2  0  0  0  0  0  0
  191.2600  176.7460  147.6380 C   0  0  0  0  0  0  0  0  0  0  0  0
  192.9820  175.0250  149.4830 C   0  0  0  0  0  1  0  0  0  0  0  0
  193.2970  176.4630  149.1220 C   0  0  0  0  0  3  0  0  0  0  0  0
  193.9320  177.1490  150.3170 C   0  0  0  0  0  1  0  0  0  0  0  0
  179.3410  177.3810  138.8030 N   0  0  0  0  0  2  0  0  0  0  0  0
  180.4950  176.3690  140.6150 N   0  0  0  0  0  2  0  0  0  0  0  0
  179.6750  175.0420  138.6850 N   0  0  0  0  0  0  0  0  0  0  0  0
  180.2160  173.8330  139.2830 C   0  0  0  0  0  1  0  0  0  0  0  0
  179.8080  176.3060  139.3540 C   0  0  0  0  0  0  0  0  0  0  0  0
  179.7810  174.4680  136.4230 O   0  0  0  0  0  1  0  0  0  0  0  0
  178.9310  174.9120  137.4380 C   0  0  0  0  0  2  0  0  0  0  0  0
  184.4900  178.6790  137.3700 C   0  0  0  0  0  3  0  0  0  0  0  0
  185.7130  177.0120  138.4770 F   0  0  0  0  0  0  0  0  0  0  0  0
  185.4290  177.7300  137.3540 C   0  0  0  0  0  0  0  0  0  0  0  0
  187.5070  178.2530  136.1100 C   0  0  0  0  0  1  0  0  0  0  0  0
  186.1960  177.4850  136.0940 C   0  0  1  0  0  3  0  0  0  0  0  0
  187.5890  175.5520  135.8140 O   0  0  0  0  0  1  0  0  0  0  0  0
  185.3320  175.1640  135.8020 O   0  0  0  0  0  0  0  0  0  0  0  0
  186.4210  176.0210  135.8820 C   0  0  0  0  0  0  0  0  0  0  0  0
  1  8  1  0  0  0  0
  2 20  1  6  0  0  0
  2 19  1  0  0  0  0
  2  1  1  0  0  0  0
  3 21  1  6  0  0  0
  4 12  1  6  0  0  0
  4 13  1  0  0  0  0
  5  3  1  0  0  0  0
  6 11  2  0  0  0  0
  7  3  1  0  0  0  0
  8  9  1  0  0  0  0
  8 16  2  0  0  0  0
  9 13  1  0  0  0  0
 10 16  1  0  0  0  0
 11 19  1  0  0  0  0
 12 17  1  0  0  0  0
 13  5  1  1  0  0  0
 14  1  2  0  0  0  0
 14 15  1  0  0  0  0
 15 10  2  0  0  0  0
 17  7  1  0  0  0  0
 18 41  1  6  0  0  0
 18 20  1  0  0  0  0
 18 11  1  0  0  0  0
 19  4  1  0  0  0  0
 21 23  2  0  0  0  0
 22 25  2  0  0  0  0
 23 27  1  0  0  0  0
 24 22  1  0  0  0  0
 24 21  1  0  0  0  0
 25 30  1  0  0  0  0
 25 26  1  0  0  0  0
 26 27  2  0  0  0  0
 28 30  2  0  0  0  0
 29 32  1  0  0  0  0
 30 29  1  0  0  0  0
 32 31  1  0  0  0  0
 32 33  1  0  0  0  0
 34 38  2  0  0  0  0
 35 14  1  0  0  0  0
 36 37  1  0  0  0  0
 36 38  1  0  0  0  0
 38 35  1  0  0  0  0
 39 40  1  0  0  0  0
 40 36  1  0  0  0  0
 43 41  2  0  0  0  0
 43 42  1  0  0  0  0
 45 44  1  1  0  0  0
 45 43  1  0  0  0  0
 46 48  1  0  0  0  0
 47 48  2  0  0  0  0
 48 45  1  0  0  0  0
M  END
>  <MODEL>
4

>  <REMARK>
 VINA RESULT:      -4.1      2.888      3.891
  Name = 
  8 active torsions:
  status: ('A' for Active; 'I' for Inactive)
    1  A    between atoms: C_1  and  C_6
    2  A    between atoms: N_17  and  C_30
    3  A    between atoms: N_22  and  C_40
    4  A    between atoms: C_24  and  C_38
    5  A    between atoms: C_25  and  N_31
    6  A    between atoms: C_26  and  C_32
    7  A    between atoms: C_35  and  C_47
    8  A    between atoms: C_44  and  C_47
                            x       y       z     vdW  Elec       q    Type
                         _______ _______ _______ _____ _____    ______ ____

>  <TORSDO>
F 8

$$$$
