=
 OpenBabel10222420163D

 52 55  0  0  1  0  0  0  0  0999 V2000
  184.5610  178.7620  140.4820 C   0  0  0  0  0  2  0  0  0  0  0  0
  184.0000  176.1140  136.0790 C   0  0  1  0  0  3  0  0  0  0  0  0
  184.8800  177.6700  137.6780 C   0  0  1  0  0  3  0  0  0  0  0  0
  185.8800  178.4420  139.8490 C   0  0  0  0  0  0  0  0  0  0  0  0
  182.8970  176.5470  138.8810 C   0  0  0  0  0  2  0  0  0  0  0  0
  183.4840  177.8530  138.3470 C   0  0  1  0  0  3  0  0  0  0  0  0
  180.8490  175.8040  137.7230 C   0  0  0  0  0  3  0  0  0  0  0  0
  183.5040  178.9760  139.3980 C   0  0  1  0  0  3  0  0  0  0  0  0
  187.2040  178.6030  140.5060 C   0  0  0  0  0  2  0  0  0  0  0  0
  182.1780  175.8410  137.7690 C   0  0  0  0  0  0  0  0  0  0  0  0
  182.9520  175.1730  136.6750 C   0  0  0  0  0  2  0  0  0  0  0  0
  186.0160  177.9220  138.6360 C   0  0  0  0  0  0  0  0  0  0  0  0
  187.4270  177.7540  138.3310 C   0  0  0  0  0  3  0  0  0  0  0  0
  185.0560  176.3540  137.0560 N   0  0  0  0  0  2  0  0  0  0  0  0
  188.1030  178.1340  139.4090 C   0  0  0  0  0  0  0  0  0  0  0  0
  181.6610  179.0230  141.2170 N   0  0  0  0  0  2  0  0  0  0  0  0
  182.1410  179.3650  139.9080 C   0  0  0  0  0  0  0  0  0  0  0  0
  181.3660  179.9680  139.1210 O   0  0  0  0  0  0  0  0  0  0  0  0
  182.4670  178.4540  142.2880 C   0  0  0  0  0  2  0  0  0  0  0  0
  182.3260  179.2830  143.5560 C   0  0  0  0  0  2  0  0  0  0  0  0
  183.3420  178.8590  144.6070 C   0  0  0  0  0  2  0  0  0  0  0  0
  184.7350  179.3210  144.2120 C   0  0  0  0  0  2  0  0  0  0  0  0
  185.7570  178.3320  144.6670 C   0  0  0  0  0  0  0  0  0  0  0  0
  186.4570  177.6350  143.7730 C   0  0  0  0  0  2  0  0  0  0  0  0
  186.1360  178.2860  146.1070 C   0  0  0  0  0  2  0  0  0  0  0  0
  186.8480  177.1140  146.3750 O   0  0  0  0  0  0  0  0  0  0  0  0
  188.3030  177.6210  147.0850 P   0  0  2  0  0  0  0  0  0  0  0  0
  189.0190  176.3060  147.8740 O   0  0  0  0  0  0  0  0  0  0  0  0
  188.0230  178.7050  148.1020 O   0  0  0  0  0  1  0  0  0  0  0  0
  189.3610  178.2230  145.9030 O   0  0  0  0  0  0  0  0  0  0  0  0
  189.8500  177.0950  145.2410 C   0  0  0  0  0  2  0  0  0  0  0  0
  190.3280  178.8400  143.3310 C   0  0  0  0  0  2  0  0  0  0  0  0
  191.5160  178.7030  144.2690 C   0  0  0  0  0  2  0  0  0  0  0  0
  190.6240  177.5140  144.0010 C   0  0  0  0  0  0  0  0  0  0  0  0
  191.2920  176.5370  143.2490 O   0  0  0  0  0  0  0  0  0  0  0  0
  190.3160  175.6410  142.7950 C   0  0  0  0  0  1  0  0  0  0  0  0
  179.3150  177.5210  138.4190 O   0  0  0  0  0  1  0  0  0  0  0  0
  180.0470  176.4260  138.7230 N   0  0  0  0  0  2  0  0  0  0  0  0
  184.5840  175.5410  134.7890 C   0  0  0  0  0  2  0  0  0  0  0  0
  186.0740  175.2540  134.9040 C   0  0  0  0  0  1  0  0  0  0  0  0
  189.5930  178.1370  139.5010 C   0  0  0  0  0  2  0  0  0  0  0  0
  190.1880  177.1840  138.5230 C   0  0  0  0  0  0  0  0  0  0  0  0
  190.1280  177.4310  137.2880 O   0  0  0  0  0  0  0  0  0  0  0  0
  190.8530  176.0130  139.0000 N   0  0  0  0  0  2  0  0  0  0  0  0
  191.4820  175.0850  138.1200 C   0  0  0  0  0  3  0  0  0  0  0  0
  192.7790  175.1950  137.8610 C   0  0  0  0  0  3  0  0  0  0  0  0
  193.1620  174.5360  135.6130 O   0  0  0  0  0  1  0  0  0  0  0  0
  193.4880  174.2510  136.9410 C   0  0  1  0  0  3  0  0  0  0  0  0
  195.0000  174.3120  137.1220 C   0  0  0  0  0  2  0  0  0  0  0  0
  195.3830  173.9770  138.5230 C   0  0  0  0  0  0  0  0  0  0  0  0
  195.1410  172.8330  138.9880 O   0  0  0  0  0  0  0  0  0  0  0  0
  195.9920  174.9350  139.3230 O   0  0  0  0  0  1  0  0  0  0  0  0
  2 39  1  6  0  0  0
  2 11  1  0  0  0  0
  2 14  1  0  0  0  0
  3 14  1  1  0  0  0
  3  6  1  0  0  0  0
  3 12  1  0  0  0  0
  4  1  1  0  0  0  0
  4  9  1  0  0  0  0
  6  5  1  1  0  0  0
  6  8  1  0  0  0  0
  7 10  2  0  0  0  0
  7 38  1  0  0  0  0
  8 17  1  1  0  0  0
  8  1  1  0  0  0  0
 10  5  1  0  0  0  0
 11 10  1  0  0  0  0
 12  4  2  0  0  0  0
 13 12  1  0  0  0  0
 13 15  2  0  0  0  0
 15 41  1  0  0  0  0
 15  9  1  0  0  0  0
 16 19  1  0  0  0  0
 17 16  1  0  0  0  0
 18 17  2  0  0  0  0
 19 20  1  0  0  0  0
 20 21  1  0  0  0  0
 22 21  1  0  0  0  0
 22 23  1  0  0  0  0
 23 25  1  0  0  0  0
 24 23  2  0  0  0  0
 25 26  1  0  0  0  0
 26 27  1  0  0  0  0
 27 28  2  1  0  0  0
 27 29  1  0  0  0  0
 30 27  1  0  0  0  0
 31 30  1  0  0  0  0
 32 34  1  0  0  0  0
 32 33  1  0  0  0  0
 34 33  1  0  0  0  0
 34 31  1  0  0  0  0
 35 34  1  0  0  0  0
 36 35  1  0  0  0  0
 37 38  1  0  0  0  0
 39 40  1  0  0  0  0
 42 44  1  0  0  0  0
 42 41  1  0  0  0  0
 43 42  2  0  0  0  0
 45 44  1  0  0  0  0
 46 45  2  0  0  0  0
 48 47  1  6  0  0  0
 48 49  1  0  0  0  0
 48 46  1  0  0  0  0
 49 50  1  0  0  0  0
 50 51  2  0  0  0  0
 50 52  1  0  0  0  0
M  END
>  <MODEL>
1

>  <REMARK>
 VINA RESULT:      -7.0      0.000      0.000
  Name = 
  21 active torsions:
  status: ('A' for Active; 'I' for Inactive)
    1  A    between atoms: N_1  and  C_15
    2  A    between atoms: C_4  and  C_25
    3  A    between atoms: C_5  and  C_35
    4  A    between atoms: C_5  and  C_51
    5  A    between atoms: C_7  and  C_30
    6  A    between atoms: C_7  and  C_50
    7  A    between atoms: O_8  and  P_19
    8  A    between atoms: O_8  and  C_38
    9  A    between atoms: O_10  and  P_19
   10  A    between atoms: O_10  and  C_40
   11  A    between atoms: C_11  and  C_40
   12  A    between atoms: C_11  and  C_50
   13  A    between atoms: C_12  and  C_48
   14  A    between atoms: C_13  and  N_42
   15  A    between atoms: C_15  and  C_30
   16  A    between atoms: C_17  and  N_22
   17  A    between atoms: C_21  and  C_39
   18  A    between atoms: C_31  and  O_34
   19  A    between atoms: C_31  and  C_38
   20  A    between atoms: C_43  and  C_52
   21  A    between atoms: C_48  and  C_52
                            x       y       z     vdW  Elec       q    Type
                         _______ _______ _______ _____ _____    ______ ____

>  <TORSDO>
F 21

$$$$
=
 OpenBabel10222420163D

 52 55  0  0  1  0  0  0  0  0999 V2000
  184.8870  178.3280  141.1700 C   0  0  0  0  0  2  0  0  0  0  0  0
  181.4770  177.6490  137.3470 C   0  0  1  0  0  3  0  0  0  0  0  0
  183.3950  178.4530  138.5420 C   0  0  1  0  0  3  0  0  0  0  0  0
  185.5480  178.3140  139.8270 C   0  0  0  0  0  0  0  0  0  0  0  0
  182.1870  176.9040  140.2090 C   0  0  0  0  0  2  0  0  0  0  0  0
  182.6610  178.3260  139.9110 C   0  0  1  0  0  3  0  0  0  0  0  0
  179.7350  176.6450  140.2950 C   0  0  0  0  0  3  0  0  0  0  0  0
  183.4890  178.9360  141.0550 C   0  0  1  0  0  3  0  0  0  0  0  0
  187.0140  178.2250  139.5970 C   0  0  0  0  0  2  0  0  0  0  0  0
  180.8490  176.6870  139.5670 C   0  0  0  0  0  0  0  0  0  0  0  0
  180.7420  176.5270  138.0830 C   0  0  0  0  0  2  0  0  0  0  0  0
  184.8910  178.3250  138.6750 C   0  0  0  0  0  0  0  0  0  0  0  0
  185.8370  178.3210  137.5710 C   0  0  0  0  0  3  0  0  0  0  0  0
  182.9160  177.5000  137.5370 N   0  0  0  0  0  2  0  0  0  0  0  0
  187.0510  178.2510  138.1040 C   0  0  0  0  0  0  0  0  0  0  0  0
  183.3300  178.7820  143.6350 N   0  0  0  0  0  2  0  0  0  0  0  0
  182.7420  179.0610  142.3560 C   0  0  0  0  0  0  0  0  0  0  0  0
  181.5220  179.3690  142.3090 O   0  0  0  0  0  0  0  0  0  0  0  0
  184.7470  178.5490  143.8770 C   0  0  0  0  0  2  0  0  0  0  0  0
  184.9760  178.1260  145.3210 C   0  0  0  0  0  2  0  0  0  0  0  0
  186.3640  178.5260  145.7980 C   0  0  0  0  0  2  0  0  0  0  0  0
  187.0810  177.3310  146.4030 C   0  0  0  0  0  2  0  0  0  0  0  0
  188.0880  177.7850  147.4080 C   0  0  0  0  0  0  0  0  0  0  0  0
  187.7070  178.0870  148.6480 C   0  0  0  0  0  2  0  0  0  0  0  0
  189.5380  177.6930  147.0780 C   0  0  0  0  0  2  0  0  0  0  0  0
  189.7400  177.9960  145.7290 O   0  0  0  0  0  0  0  0  0  0  0  0
  191.2330  177.2990  145.3260 P   0  0  2  0  0  0  0  0  0  0  0  0
  191.9340  176.6510  146.7240 O   0  0  0  0  0  1  0  0  0  0  0  0
  192.1560  178.3570  144.7650 O   0  0  0  0  0  0  0  0  0  0  0  0
  191.0210  176.0730  144.1730 O   0  0  0  0  0  0  0  0  0  0  0  0
  191.2870  176.6770  142.9430 C   0  0  0  0  0  2  0  0  0  0  0  0
  188.6770  176.4520  142.6920 C   0  0  0  0  0  2  0  0  0  0  0  0
  189.1560  177.8430  142.3070 C   0  0  0  0  0  2  0  0  0  0  0  0
  190.0430  176.6450  142.0670 C   0  0  0  0  0  0  0  0  0  0  0  0
  190.1790  176.3790  140.6960 O   0  0  0  0  0  0  0  0  0  0  0  0
  190.9740  177.4010  140.1650 C   0  0  0  0  0  1  0  0  0  0  0  0
  178.9510  177.7070  142.3060 O   0  0  0  0  0  1  0  0  0  0  0  0
  179.7590  176.8000  141.7110 N   0  0  0  0  0  2  0  0  0  0  0  0
  181.1310  177.6510  135.8590 C   0  0  0  0  0  2  0  0  0  0  0  0
  181.2100  179.0410  135.2460 C   0  0  0  0  0  1  0  0  0  0  0  0
  188.3130  178.2470  137.3060 C   0  0  0  0  0  2  0  0  0  0  0  0
  188.9140  176.8850  137.2700 C   0  0  0  0  0  0  0  0  0  0  0  0
  188.2170  175.8820  137.5810 O   0  0  0  0  0  0  0  0  0  0  0  0
  190.2700  176.7280  136.8480 N   0  0  0  0  0  2  0  0  0  0  0  0
  190.8900  175.4480  136.7480 C   0  0  0  0  0  3  0  0  0  0  0  0
  191.9700  175.1800  137.4720 C   0  0  0  0  0  3  0  0  0  0  0  0
  192.0510  173.0410  136.4460 O   0  0  0  0  0  1  0  0  0  0  0  0
  192.6630  173.8540  137.4030 C   0  0  1  0  0  3  0  0  0  0  0  0
  194.1440  174.0060  137.0760 C   0  0  0  0  0  2  0  0  0  0  0  0
  194.9690  173.9720  138.3170 C   0  0  0  0  0  0  0  0  0  0  0  0
  195.5460  175.0150  138.7210 O   0  0  0  0  0  0  0  0  0  0  0  0
  195.1140  172.7840  139.0190 O   0  0  0  0  0  1  0  0  0  0  0  0
  2 39  1  6  0  0  0
  2 14  1  0  0  0  0
  2 11  1  0  0  0  0
  3 14  1  6  0  0  0
  3 12  1  0  0  0  0
  3  6  1  0  0  0  0
  4  1  1  0  0  0  0
  6  5  1  1  0  0  0
  6  8  1  0  0  0  0
  7 38  1  0  0  0  0
  8  1  1  0  0  0  0
  8 17  1  1  0  0  0
  9  4  1  0  0  0  0
 10  5  1  0  0  0  0
 10  7  2  0  0  0  0
 11 10  1  0  0  0  0
 12  4  2  0  0  0  0
 13 15  2  0  0  0  0
 13 12  1  0  0  0  0
 15  9  1  0  0  0  0
 16 19  1  0  0  0  0
 17 16  1  0  0  0  0
 18 17  2  0  0  0  0
 19 20  1  0  0  0  0
 20 21  1  0  0  0  0
 21 22  1  0  0  0  0
 22 23  1  0  0  0  0
 23 24  2  0  0  0  0
 25 23  1  0  0  0  0
 26 25  1  0  0  0  0
 27 29  2  6  0  0  0
 27 26  1  0  0  0  0
 27 28  1  0  0  0  0
 30 27  1  0  0  0  0
 31 30  1  0  0  0  0
 33 32  1  0  0  0  0
 34 33  1  0  0  0  0
 34 32  1  0  0  0  0
 34 31  1  0  0  0  0
 35 34  1  0  0  0  0
 36 35  1  0  0  0  0
 38 37  1  0  0  0  0
 40 39  1  0  0  0  0
 41 15  1  0  0  0  0
 42 41  1  0  0  0  0
 42 43  2  0  0  0  0
 44 42  1  0  0  0  0
 45 44  1  0  0  0  0
 45 46  2  0  0  0  0
 48 47  1  6  0  0  0
 48 46  1  0  0  0  0
 49 48  1  0  0  0  0
 49 50  1  0  0  0  0
 50 51  2  0  0  0  0
 50 52  1  0  0  0  0
M  END
>  <MODEL>
2

>  <REMARK>
 VINA RESULT:      -7.0      2.008      2.854
  Name = 
  21 active torsions:
  status: ('A' for Active; 'I' for Inactive)
    1  A    between atoms: N_1  and  C_15
    2  A    between atoms: C_4  and  C_25
    3  A    between atoms: C_5  and  C_35
    4  A    between atoms: C_5  and  C_51
    5  A    between atoms: C_7  and  C_30
    6  A    between atoms: C_7  and  C_50
    7  A    between atoms: O_8  and  P_19
    8  A    between atoms: O_8  and  C_38
    9  A    between atoms: O_10  and  P_19
   10  A    between atoms: O_10  and  C_40
   11  A    between atoms: C_11  and  C_40
   12  A    between atoms: C_11  and  C_50
   13  A    between atoms: C_12  and  C_48
   14  A    between atoms: C_13  and  N_42
   15  A    between atoms: C_15  and  C_30
   16  A    between atoms: C_17  and  N_22
   17  A    between atoms: C_21  and  C_39
   18  A    between atoms: C_31  and  O_34
   19  A    between atoms: C_31  and  C_38
   20  A    between atoms: C_43  and  C_52
   21  A    between atoms: C_48  and  C_52
                            x       y       z     vdW  Elec       q    Type
                         _______ _______ _______ _____ _____    ______ ____

>  <TORSDO>
F 21

$$$$
=
 OpenBabel10222420163D

 52 55  0  0  1  0  0  0  0  0999 V2000
  184.5530  178.1130  140.2380 C   0  0  0  0  0  2  0  0  0  0  0  0
  179.9190  179.7300  141.8560 C   0  0  1  0  0  3  0  0  0  0  0  0
  182.0200  178.5730  141.8260 C   0  0  1  0  0  3  0  0  0  0  0  0
  184.5150  178.3070  141.7220 C   0  0  0  0  0  0  0  0  0  0  0  0
  181.9720  179.9010  139.6180 C   0  0  0  0  0  2  0  0  0  0  0  0
  182.0280  178.5190  140.2690 C   0  0  1  0  0  3  0  0  0  0  0  0
  179.9090  180.3420  138.3410 C   0  0  0  0  0  3  0  0  0  0  0  0
  183.1830  177.6520  139.7400 C   0  0  1  0  0  3  0  0  0  0  0  0
  185.7050  178.3140  142.6130 C   0  0  0  0  0  2  0  0  0  0  0  0
  180.5410  180.3370  139.5120 C   0  0  0  0  0  0  0  0  0  0  0  0
  179.7890  180.7620  140.7340 C   0  0  0  0  0  2  0  0  0  0  0  0
  183.4080  178.5530  142.4120 C   0  0  0  0  0  0  0  0  0  0  0  0
  183.7280  178.6720  143.8250 C   0  0  0  0  0  3  0  0  0  0  0  0
  181.2870  179.7240  142.3620 N   0  0  0  0  0  2  0  0  0  0  0  0
  185.0450  178.5470  143.9340 C   0  0  0  0  0  0  0  0  0  0  0  0
  182.5230  176.1710  137.7200 N   0  0  0  0  0  2  0  0  0  0  0  0
  183.1090  177.3630  138.2630 C   0  0  0  0  0  0  0  0  0  0  0  0
  183.6430  178.1850  137.4740 O   0  0  0  0  0  0  0  0  0  0  0  0
  181.7500  175.1940  138.4730 C   0  0  0  0  0  2  0  0  0  0  0  0
  180.9370  174.3180  137.5290 C   0  0  0  0  0  2  0  0  0  0  0  0
  181.8350  173.6190  136.5190 C   0  0  0  0  0  2  0  0  0  0  0  0
  182.5620  172.4560  137.1740 C   0  0  0  0  0  2  0  0  0  0  0  0
  183.9480  172.3390  136.6290 C   0  0  0  0  0  0  0  0  0  0  0  0
  184.3240  171.2310  135.9920 C   0  0  0  0  0  2  0  0  0  0  0  0
  184.8290  173.5400  136.6170 C   0  0  0  0  0  2  0  0  0  0  0  0
  185.7410  173.4510  135.5620 O   0  0  0  0  0  0  0  0  0  0  0  0
  187.2260  173.9620  136.2030 P   0  0  2  0  0  0  0  0  0  0  0  0
  188.2950  174.2840  134.9310 O   0  0  0  0  0  0  0  0  0  0  0  0
  187.8120  172.8680  137.0680 O   0  0  0  0  0  1  0  0  0  0  0  0
  187.0160  175.3620  137.1390 O   0  0  0  0  0  0  0  0  0  0  0  0
  188.2150  176.0650  137.0200 C   0  0  0  0  0  2  0  0  0  0  0  0
  188.5300  178.6770  136.9370 C   0  0  0  0  0  2  0  0  0  0  0  0
  187.0590  178.2940  136.9810 C   0  0  0  0  0  2  0  0  0  0  0  0
  188.0850  177.4320  137.6760 C   0  0  0  0  0  0  0  0  0  0  0  0
  187.9540  177.5110  139.0710 O   0  0  0  0  0  0  0  0  0  0  0  0
  188.9550  178.3810  139.5200 C   0  0  0  0  0  1  0  0  0  0  0  0
  180.1250  180.4150  135.9470 O   0  0  0  0  0  1  0  0  0  0  0  0
  180.5570  179.9410  137.1370 N   0  0  0  0  0  2  0  0  0  0  0  0
  178.9320  180.0170  142.9860 C   0  0  0  0  0  2  0  0  0  0  0  0
  179.2180  179.1920  144.2310 C   0  0  0  0  0  1  0  0  0  0  0  0
  185.7820  178.5860  145.2320 C   0  0  0  0  0  2  0  0  0  0  0  0
  186.9440  177.6540  145.2120 C   0  0  0  0  0  0  0  0  0  0  0  0
  186.8600  176.5580  144.5940 O   0  0  0  0  0  0  0  0  0  0  0  0
  188.1570  178.0300  145.8670 N   0  0  0  0  0  2  0  0  0  0  0  0
  189.3180  177.2040  145.8470 C   0  0  0  0  0  3  0  0  0  0  0  0
  190.4890  177.7190  145.4930 C   0  0  0  0  0  3  0  0  0  0  0  0
  192.0510  176.4280  146.7300 O   0  0  0  0  0  1  0  0  0  0  0  0
  191.7390  176.8960  145.4510 C   0  0  1  0  0  3  0  0  0  0  0  0
  191.6080  175.7190  144.4910 C   0  0  0  0  0  2  0  0  0  0  0  0
  191.2760  176.1870  143.1170 C   0  0  0  0  0  0  0  0  0  0  0  0
  190.3520  175.6340  142.4660 O   0  0  0  0  0  0  0  0  0  0  0  0
  191.9980  177.2270  142.5450 O   0  0  0  0  0  1  0  0  0  0  0  0
  1  4  1  0  0  0  0
  2 14  1  0  0  0  0
  2 39  1  1  0  0  0
  3 14  1  6  0  0  0
  3 12  1  0  0  0  0
  4 12  2  0  0  0  0
  4  9  1  0  0  0  0
  6  5  1  6  0  0  0
  6  3  1  0  0  0  0
  7 10  2  0  0  0  0
  8 17  1  6  0  0  0
  8  1  1  0  0  0  0
  8  6  1  0  0  0  0
  9 15  1  0  0  0  0
 10  5  1  0  0  0  0
 10 11  1  0  0  0  0
 11  2  1  0  0  0  0
 12 13  1  0  0  0  0
 13 15  2  0  0  0  0
 15 41  1  0  0  0  0
 16 17  1  0  0  0  0
 16 19  1  0  0  0  0
 18 17  2  0  0  0  0
 20 19  1  0  0  0  0
 21 22  1  0  0  0  0
 21 20  1  0  0  0  0
 23 22  1  0  0  0  0
 24 23  2  0  0  0  0
 25 23  1  0  0  0  0
 26 27  1  0  0  0  0
 26 25  1  0  0  0  0
 27 28  2  6  0  0  0
 27 29  1  0  0  0  0
 27 30  1  0  0  0  0
 31 30  1  0  0  0  0
 31 34  1  0  0  0  0
 32 33  1  0  0  0  0
 32 34  1  0  0  0  0
 33 34  1  0  0  0  0
 34 35  1  0  0  0  0
 35 36  1  0  0  0  0
 37 38  1  0  0  0  0
 38  7  1  0  0  0  0
 39 40  1  0  0  0  0
 42 41  1  0  0  0  0
 42 44  1  0  0  0  0
 43 42  2  0  0  0  0
 45 44  1  0  0  0  0
 46 45  2  0  0  0  0
 48 46  1  0  0  0  0
 48 47  1  1  0  0  0
 49 48  1  0  0  0  0
 50 49  1  0  0  0  0
 51 50  2  0  0  0  0
 52 50  1  0  0  0  0
M  END
>  <MODEL>
3

>  <REMARK>
 VINA RESULT:      -6.9      3.443      7.665
  Name = 
  21 active torsions:
  status: ('A' for Active; 'I' for Inactive)
    1  A    between atoms: N_1  and  C_15
    2  A    between atoms: C_4  and  C_25
    3  A    between atoms: C_5  and  C_35
    4  A    between atoms: C_5  and  C_51
    5  A    between atoms: C_7  and  C_30
    6  A    between atoms: C_7  and  C_50
    7  A    between atoms: O_8  and  P_19
    8  A    between atoms: O_8  and  C_38
    9  A    between atoms: O_10  and  P_19
   10  A    between atoms: O_10  and  C_40
   11  A    between atoms: C_11  and  C_40
   12  A    between atoms: C_11  and  C_50
   13  A    between atoms: C_12  and  C_48
   14  A    between atoms: C_13  and  N_42
   15  A    between atoms: C_15  and  C_30
   16  A    between atoms: C_17  and  N_22
   17  A    between atoms: C_21  and  C_39
   18  A    between atoms: C_31  and  O_34
   19  A    between atoms: C_31  and  C_38
   20  A    between atoms: C_43  and  C_52
   21  A    between atoms: C_48  and  C_52
                            x       y       z     vdW  Elec       q    Type
                         _______ _______ _______ _____ _____    ______ ____

>  <TORSDO>
F 21

$$$$
=
 OpenBabel10222420163D

 52 55  0  0  1  0  0  0  0  0999 V2000
  186.4020  177.8620  136.6170 C   0  0  0  0  0  2  0  0  0  0  0  0
  188.0800  172.9800  136.3710 C   0  0  1  0  0  3  0  0  0  0  0  0
  186.6880  174.8630  136.8920 C   0  0  1  0  0  3  0  0  0  0  0  0
  185.2750  176.8910  136.4450 C   0  0  0  0  0  0  0  0  0  0  0  0
  188.6960  175.8640  135.6250 C   0  0  0  0  0  2  0  0  0  0  0  0
  187.9140  175.8240  136.9370 C   0  0  1  0  0  3  0  0  0  0  0  0
  190.9870  174.9620  135.7770 C   0  0  0  0  0  3  0  0  0  0  0  0
  187.5180  177.2210  137.4430 C   0  0  1  0  0  3  0  0  0  0  0  0
  183.8750  177.2590  136.1080 C   0  0  0  0  0  3  0  0  0  0  0  0
  189.6860  174.7370  135.6080 C   0  0  0  0  0  0  0  0  0  0  0  0
  189.2220  173.3280  135.4140 C   0  0  0  0  0  2  0  0  0  0  0  0
  185.4110  175.5740  136.5230 C   0  0  2  0  0  3  0  0  0  0  0  0
  184.1200  174.9360  136.3220 C   0  0  0  0  0  3  0  0  0  0  0  0
  186.8810  173.7200  135.9940 N   0  0  0  0  0  2  0  0  0  0  0  0
  183.2460  175.9040  136.0730 C   0  0  0  0  0  0  0  0  0  0  0  0
  189.1900  178.3610  139.0610 N   0  0  0  0  0  2  0  0  0  0  0  0
  188.6870  178.1240  137.7370 C   0  0  0  0  0  0  0  0  0  0  0  0
  189.2090  178.7450  136.7750 O   0  0  0  0  0  0  0  0  0  0  0  0
  188.7950  177.6260  140.2550 C   0  0  0  0  0  2  0  0  0  0  0  0
  188.2130  178.5750  141.2930 C   0  0  0  0  0  2  0  0  0  0  0  0
  186.8030  178.1600  141.6890 C   0  0  0  0  0  2  0  0  0  0  0  0
  185.9720  179.3810  142.0410 C   0  0  0  0  0  2  0  0  0  0  0  0
  184.6330  178.9660  142.5560 C   0  0  0  0  0  0  0  0  0  0  0  0
  183.8910  178.0980  141.8690 C   0  0  0  0  0  2  0  0  0  0  0  0
  184.2290  179.3600  143.9350 C   0  0  0  0  0  2  0  0  0  0  0  0
  185.3400  179.8260  144.6420 O   0  0  0  0  0  0  0  0  0  0  0  0
  185.4320  178.8550  146.0300 P   0  0  2  0  0  0  0  0  0  0  0  0
  183.8760  178.3250  146.4370 O   0  0  0  0  0  0  0  0  0  0  0  0
  185.9870  179.6640  147.1820 O   0  0  0  0  0  1  0  0  0  0  0  0
  186.4360  177.5170  145.7510 O   0  0  0  0  0  0  0  0  0  0  0  0
  187.5170  177.6820  146.6190 C   0  0  0  0  0  2  0  0  0  0  0  0
  188.7900  176.7630  144.5080 C   0  0  0  0  0  2  0  0  0  0  0  0
  189.3160  178.1270  144.9240 C   0  0  0  0  0  2  0  0  0  0  0  0
  188.7920  177.1680  145.9670 C   0  0  0  0  0  0  0  0  0  0  0  0
  189.8280  176.6840  146.7790 O   0  0  0  0  0  0  0  0  0  0  0  0
  191.0290  177.0330  146.1500 C   0  0  0  0  0  1  0  0  0  0  0  0
  191.8450  176.6860  137.2190 O   0  0  0  0  0  1  0  0  0  0  0  0
  191.5010  176.2760  135.9770 N   0  0  0  0  0  2  0  0  0  0  0  0
  187.8030  171.4780  136.3760 C   0  0  0  0  0  2  0  0  0  0  0  0
  186.6680  171.0940  135.4390 C   0  0  0  0  0  1  0  0  0  0  0  0
  181.7910  175.6720  135.8320 C   0  0  0  0  0  2  0  0  0  0  0  0
  181.0140  175.8120  137.0950 C   0  0  0  0  0  0  0  0  0  0  0  0
  180.9970  174.8670  137.9300 O   0  0  0  0  0  0  0  0  0  0  0  0
  180.3220  177.0330  137.3620 N   0  0  0  0  0  2  0  0  0  0  0  0
  179.5990  177.2470  138.5710 C   0  0  0  0  0  3  0  0  0  0  0  0
  180.2380  177.6600  139.6590 C   0  0  0  0  0  3  0  0  0  0  0  0
  179.1760  176.6770  141.5400 O   0  0  0  0  0  1  0  0  0  0  0  0
  179.5270  177.8960  140.9550 C   0  0  1  0  0  3  0  0  0  0  0  0
  180.3770  178.7070  141.9270 C   0  0  0  0  0  2  0  0  0  0  0  0
  179.9960  180.1470  141.8940 C   0  0  0  0  0  0  0  0  0  0  0  0
  179.9570  180.8150  142.9600 O   0  0  0  0  0  1  0  0  0  0  0  0
  179.6660  180.7500  140.6880 O   0  0  0  0  0  0  0  0  0  0  0  0
  1  8  1  0  0  0  0
  2 39  1  6  0  0  0
  3 14  1  6  0  0  0
  3  6  1  0  0  0  0
  4 12  1  0  0  0  0
  4  1  1  0  0  0  0
  6  5  1  6  0  0  0
  6  8  1  0  0  0  0
  7 38  1  0  0  0  0
  8 17  1  6  0  0  0
  9  4  2  0  0  0  0
 10  5  1  0  0  0  0
 10  7  2  0  0  0  0
 11 10  1  0  0  0  0
 11  2  1  0  0  0  0
 12 13  1  1  0  0  0
 12  3  1  0  0  0  0
 14  2  1  0  0  0  0
 15  9  1  0  0  0  0
 15 13  2  0  0  0  0
 16 19  1  0  0  0  0
 17 16  1  0  0  0  0
 18 17  2  0  0  0  0
 19 20  1  0  0  0  0
 20 21  1  0  0  0  0
 21 22  1  0  0  0  0
 22 23  1  0  0  0  0
 23 25  1  0  0  0  0
 24 23  2  0  0  0  0
 25 26  1  0  0  0  0
 26 27  1  0  0  0  0
 27 28  2  1  0  0  0
 27 29  1  0  0  0  0
 30 27  1  0  0  0  0
 30 31  1  0  0  0  0
 32 33  1  0  0  0  0
 32 34  1  0  0  0  0
 33 34  1  0  0  0  0
 34 31  1  0  0  0  0
 34 35  1  0  0  0  0
 36 35  1  0  0  0  0
 38 37  1  0  0  0  0
 40 39  1  0  0  0  0
 41 15  1  0  0  0  0
 41 42  1  0  0  0  0
 42 44  1  0  0  0  0
 42 43  2  0  0  0  0
 44 45  1  0  0  0  0
 45 46  2  0  0  0  0
 46 48  1  0  0  0  0
 48 47  1  1  0  0  0
 48 49  1  0  0  0  0
 50 49  1  0  0  0  0
 50 51  1  0  0  0  0
 52 50  2  0  0  0  0
M  END
>  <MODEL>
4

>  <REMARK>
 VINA RESULT:      -6.8      2.512      8.306
  Name = 
  21 active torsions:
  status: ('A' for Active; 'I' for Inactive)
    1  A    between atoms: N_1  and  C_15
    2  A    between atoms: C_4  and  C_25
    3  A    between atoms: C_5  and  C_35
    4  A    between atoms: C_5  and  C_51
    5  A    between atoms: C_7  and  C_30
    6  A    between atoms: C_7  and  C_50
    7  A    between atoms: O_8  and  P_19
    8  A    between atoms: O_8  and  C_38
    9  A    between atoms: O_10  and  P_19
   10  A    between atoms: O_10  and  C_40
   11  A    between atoms: C_11  and  C_40
   12  A    between atoms: C_11  and  C_50
   13  A    between atoms: C_12  and  C_48
   14  A    between atoms: C_13  and  N_42
   15  A    between atoms: C_15  and  C_30
   16  A    between atoms: C_17  and  N_22
   17  A    between atoms: C_21  and  C_39
   18  A    between atoms: C_31  and  O_34
   19  A    between atoms: C_31  and  C_38
   20  A    between atoms: C_43  and  C_52
   21  A    between atoms: C_48  and  C_52
                            x       y       z     vdW  Elec       q    Type
                         _______ _______ _______ _____ _____    ______ ____

>  <TORSDO>
F 21

$$$$
=
 OpenBabel10222420163D

 52 55  0  0  1  0  0  0  0  0999 V2000
  186.6460  178.5360  142.7690 C   0  0  0  0  0  2  0  0  0  0  0  0
  190.8600  175.9660  144.3020 C   0  0  1  0  0  3  0  0  0  0  0  0
  188.9770  176.6170  142.9670 C   0  0  1  0  0  3  0  0  0  0  0  0
  187.5170  178.1490  141.6130 C   0  0  0  0  0  0  0  0  0  0  0  0
  188.9140  178.1970  145.0010 C   0  0  0  0  0  2  0  0  0  0  0  0
  188.1880  177.1010  144.2210 C   0  0  1  0  0  3  0  0  0  0  0  0
  189.6310  177.5280  147.2650 C   0  0  0  0  0  3  0  0  0  0  0  0
  186.7390  177.4750  143.8670 C   0  0  1  0  0  3  0  0  0  0  0  0
  187.3680  178.6560  140.2250 C   0  0  0  0  0  3  0  0  0  0  0  0
  189.8790  177.5610  145.9580 C   0  0  0  0  0  0  0  0  0  0  0  0
  191.1410  176.9350  145.4520 C   0  0  0  0  0  2  0  0  0  0  0  0
  188.5650  177.3410  141.7100 C   0  0  2  0  0  3  0  0  0  0  0  0
  189.1720  177.1680  140.4010 C   0  0  0  0  0  3  0  0  0  0  0  0
  190.4310  176.7130  143.1250 N   0  0  0  0  0  2  0  0  0  0  0  0
  188.4910  177.9320  139.5560 C   0  0  0  0  0  0  0  0  0  0  0  0
  184.8290  178.7220  145.0930 N   0  0  0  0  0  2  0  0  0  0  0  0
  185.8580  177.7220  145.0630 C   0  0  0  0  0  0  0  0  0  0  0  0
  186.0800  177.0550  146.1070 O   0  0  0  0  0  0  0  0  0  0  0  0
  184.3550  179.4780  143.9420 C   0  0  0  0  0  2  0  0  0  0  0  0
  182.9570  179.0220  143.5470 C   0  0  0  0  0  2  0  0  0  0  0  0
  182.9590  178.3730  142.1710 C   0  0  0  0  0  2  0  0  0  0  0  0
  181.9170  179.0240  141.2780 C   0  0  0  0  0  2  0  0  0  0  0  0
  180.7700  178.0930  141.0560 C   0  0  0  0  0  0  0  0  0  0  0  0
  179.8640  177.9080  142.0140 C   0  0  0  0  0  2  0  0  0  0  0  0
  180.5330  177.5430  139.6920 C   0  0  0  0  0  2  0  0  0  0  0  0
  181.7510  177.3600  139.0330 O   0  0  0  0  0  0  0  0  0  0  0  0
  181.6760  175.8030  138.3660 P   0  0  2  0  0  0  0  0  0  0  0  0
  181.0790  175.9070  136.7860 O   0  0  0  0  0  0  0  0  0  0  0  0
  180.7400  174.9410  139.1840 O   0  0  0  0  0  1  0  0  0  0  0  0
  183.2170  175.0920  138.3480 O   0  0  0  0  0  0  0  0  0  0  0  0
  183.5600  174.9950  136.9980 C   0  0  0  0  0  2  0  0  0  0  0  0
  185.5380  176.2360  135.7860 C   0  0  0  0  0  2  0  0  0  0  0  0
  185.4440  176.6360  137.2500 C   0  0  0  0  0  2  0  0  0  0  0  0
  185.0500  175.2430  136.8200 C   0  0  0  0  0  0  0  0  0  0  0  0
  185.9630  174.2880  137.2910 O   0  0  0  0  0  0  0  0  0  0  0  0
  186.3500  173.5210  136.1860 C   0  0  0  0  0  1  0  0  0  0  0  0
  188.3180  178.2190  149.1580 O   0  0  0  0  0  1  0  0  0  0  0  0
  188.4460  178.0940  147.8180 N   0  0  0  0  0  2  0  0  0  0  0  0
  192.0910  175.1210  143.9810 C   0  0  0  0  0  2  0  0  0  0  0  0
  192.4480  174.1630  145.1080 C   0  0  0  0  0  1  0  0  0  0  0  0
  188.7820  178.0230  138.0940 C   0  0  0  0  0  2  0  0  0  0  0  0
  189.5160  176.8150  137.6220 C   0  0  0  0  0  0  0  0  0  0  0  0
  188.8840  175.7510  137.3820 O   0  0  0  0  0  0  0  0  0  0  0  0
  190.9270  176.8890  137.4130 N   0  0  0  0  0  2  0  0  0  0  0  0
  191.6800  175.7840  136.9200 C   0  0  0  0  0  3  0  0  0  0  0  0
  192.5630  175.1830  137.7070 C   0  0  0  0  0  3  0  0  0  0  0  0
  193.0200  173.6700  135.9360 O   0  0  0  0  0  1  0  0  0  0  0  0
  193.3830  174.0210  137.2390 C   0  0  1  0  0  3  0  0  0  0  0  0
  194.8760  174.3250  137.2920 C   0  0  0  0  0  2  0  0  0  0  0  0
  195.4460  173.9630  138.6200 C   0  0  0  0  0  0  0  0  0  0  0  0
  195.5390  172.7550  138.9610 O   0  0  0  0  0  0  0  0  0  0  0  0
  195.8610  174.9620  139.4910 O   0  0  0  0  0  1  0  0  0  0  0  0
  1  8  1  0  0  0  0
  2 39  1  6  0  0  0
  2 11  1  0  0  0  0
  3 14  1  1  0  0  0
  3  6  1  0  0  0  0
  4 12  1  0  0  0  0
  4  1  1  0  0  0  0
  5 10  1  0  0  0  0
  6  5  1  6  0  0  0
  7 38  1  0  0  0  0
  8  6  1  0  0  0  0
  8 17  1  1  0  0  0
  9  4  2  0  0  0  0
 10  7  2  0  0  0  0
 11 10  1  0  0  0  0
 12 13  1  6  0  0  0
 12  3  1  0  0  0  0
 14  2  1  0  0  0  0
 15  9  1  0  0  0  0
 15 13  2  0  0  0  0
 17 16  1  0  0  0  0
 17 18  2  0  0  0  0
 19 16  1  0  0  0  0
 20 19  1  0  0  0  0
 21 20  1  0  0  0  0
 22 21  1  0  0  0  0
 23 22  1  0  0  0  0
 23 24  2  0  0  0  0
 25 23  1  0  0  0  0
 26 25  1  0  0  0  0
 27 28  2  6  0  0  0
 27 26  1  0  0  0  0
 27 29  1  0  0  0  0
 30 27  1  0  0  0  0
 31 30  1  0  0  0  0
 32 34  1  0  0  0  0
 32 33  1  0  0  0  0
 34 31  1  0  0  0  0
 34 33  1  0  0  0  0
 34 35  1  0  0  0  0
 36 35  1  0  0  0  0
 38 37  1  0  0  0  0
 39 40  1  0  0  0  0
 41 15  1  0  0  0  0
 42 41  1  0  0  0  0
 43 42  2  0  0  0  0
 44 42  1  0  0  0  0
 45 44  1  0  0  0  0
 45 46  2  0  0  0  0
 48 47  1  6  0  0  0
 48 49  1  0  0  0  0
 48 46  1  0  0  0  0
 49 50  1  0  0  0  0
 50 51  2  0  0  0  0
 50 52  1  0  0  0  0
M  END
>  <MODEL>
5

>  <REMARK>
 VINA RESULT:      -6.8      2.842      7.623
  Name = 
  21 active torsions:
  status: ('A' for Active; 'I' for Inactive)
    1  A    between atoms: N_1  and  C_15
    2  A    between atoms: C_4  and  C_25
    3  A    between atoms: C_5  and  C_35
    4  A    between atoms: C_5  and  C_51
    5  A    between atoms: C_7  and  C_30
    6  A    between atoms: C_7  and  C_50
    7  A    between atoms: O_8  and  P_19
    8  A    between atoms: O_8  and  C_38
    9  A    between atoms: O_10  and  P_19
   10  A    between atoms: O_10  and  C_40
   11  A    between atoms: C_11  and  C_40
   12  A    between atoms: C_11  and  C_50
   13  A    between atoms: C_12  and  C_48
   14  A    between atoms: C_13  and  N_42
   15  A    between atoms: C_15  and  C_30
   16  A    between atoms: C_17  and  N_22
   17  A    between atoms: C_21  and  C_39
   18  A    between atoms: C_31  and  O_34
   19  A    between atoms: C_31  and  C_38
   20  A    between atoms: C_43  and  C_52
   21  A    between atoms: C_48  and  C_52
                            x       y       z     vdW  Elec       q    Type
                         _______ _______ _______ _____ _____    ______ ____

>  <TORSDO>
F 21

$$$$
=
 OpenBabel10222420163D

 52 55  0  0  1  0  0  0  0  0999 V2000
  185.3800  178.1840  141.2050 C   0  0  0  0  0  2  0  0  0  0  0  0
  187.1610  178.1870  146.0560 C   0  0  1  0  0  3  0  0  0  0  0  0
  185.8690  178.7910  144.1280 C   0  0  1  0  0  3  0  0  0  0  0  0
  184.2950  178.4590  142.1990 C   0  0  0  0  0  0  0  0  0  0  0  0
  187.4220  176.9040  143.3100 C   0  0  0  0  0  2  0  0  0  0  0  0
  187.0170  178.3700  143.1610 C   0  0  1  0  0  3  0  0  0  0  0  0
  189.7120  176.5620  144.1620 C   0  0  0  0  0  3  0  0  0  0  0  0
  186.7040  178.7620  141.7070 C   0  0  1  0  0  3  0  0  0  0  0  0
  182.8400  178.4610  141.8960 C   0  0  0  0  0  3  0  0  0  0  0  0
  188.4250  176.7810  144.4190 C   0  0  0  0  0  0  0  0  0  0  0  0
  187.9920  176.9190  145.8460 C   0  0  0  0  0  2  0  0  0  0  0  0
  184.5080  178.6820  143.4890 C   0  0  2  0  0  3  0  0  0  0  0  0
  183.2420  178.9260  144.1600 C   0  0  0  0  0  3  0  0  0  0  0  0
  185.8720  178.0440  145.3890 N   0  0  0  0  0  2  0  0  0  0  0  0
  182.2890  178.7870  143.2460 C   0  0  0  0  0  0  0  0  0  0  0  0
  187.7200  178.2020  139.3920 N   0  0  0  0  0  2  0  0  0  0  0  0
  187.8660  178.6010  140.7630 C   0  0  0  0  0  0  0  0  0  0  0  0
  189.0260  178.7690  141.2210 O   0  0  0  0  0  0  0  0  0  0  0  0
  186.4570  178.1020  138.6740 C   0  0  0  0  0  2  0  0  0  0  0  0
  186.6160  178.6120  137.2480 C   0  0  0  0  0  2  0  0  0  0  0  0
  186.8950  177.4700  136.2830 C   0  0  0  0  0  2  0  0  0  0  0  0
  186.1770  176.2090  136.7340 C   0  0  0  0  0  2  0  0  0  0  0  0
  187.0520  175.0150  136.5380 C   0  0  0  0  0  0  0  0  0  0  0  0
  188.3010  175.0180  137.0030 C   0  0  0  0  0  2  0  0  0  0  0  0
  186.4570  173.7550  136.0120 C   0  0  0  0  0  2  0  0  0  0  0  0
  185.9510  172.9910  137.0670 O   0  0  0  0  0  0  0  0  0  0  0  0
  184.2660  173.0140  136.8750 P   0  0  2  0  0  0  0  0  0  0  0  0
  183.6550  171.4650  137.1780 O   0  0  0  0  0  1  0  0  0  0  0  0
  183.9190  173.4040  135.4550 O   0  0  0  0  0  0  0  0  0  0  0  0
  183.5630  174.1240  137.9480 O   0  0  0  0  0  0  0  0  0  0  0  0
  182.5660  174.7650  137.2110 C   0  0  0  0  0  2  0  0  0  0  0  0
  181.5120  175.8240  139.3770 C   0  0  0  0  0  2  0  0  0  0  0  0
  182.9340  176.3140  139.1520 C   0  0  0  0  0  2  0  0  0  0  0  0
  182.0550  175.9790  137.9710 C   0  0  0  0  0  0  0  0  0  0  0  0
  181.7000  177.1340  137.2580 O   0  0  0  0  0  0  0  0  0  0  0  0
  182.6460  178.1130  137.5830 C   0  0  0  0  0  1  0  0  0  0  0  0
  191.4320  176.8800  142.5120 O   0  0  0  0  0  1  0  0  0  0  0  0
  190.1980  176.4290  142.8290 N   0  0  0  0  0  2  0  0  0  0  0  0
  186.9670  178.4770  147.5430 C   0  0  0  0  0  2  0  0  0  0  0  0
  188.0150  177.7950  148.4100 C   0  0  0  0  0  1  0  0  0  0  0  0
  180.8340  178.9800  143.5230 C   0  0  0  0  0  2  0  0  0  0  0  0
  180.1940  179.7980  142.4540 C   0  0  0  0  0  0  0  0  0  0  0  0
  179.8160  180.9740  142.7050 O   0  0  0  0  0  0  0  0  0  0  0  0
  180.0470  179.2490  141.1440 N   0  0  0  0  0  2  0  0  0  0  0  0
  179.4850  179.9940  140.0670 C   0  0  0  0  0  3  0  0  0  0  0  0
  180.2500  180.8250  139.3690 C   0  0  0  0  0  3  0  0  0  0  0  0
  179.4170  182.9320  138.6600 O   0  0  0  0  0  1  0  0  0  0  0  0
  179.7100  181.6350  138.2310 C   0  0  1  0  0  3  0  0  0  0  0  0
  180.6850  181.6880  137.0610 C   0  0  0  0  0  2  0  0  0  0  0  0
  180.3900  182.8480  136.1740 C   0  0  0  0  0  0  0  0  0  0  0  0
  179.3870  182.8230  135.4130 O   0  0  0  0  0  0  0  0  0  0  0  0
  181.2300  183.9530  136.1740 O   0  0  0  0  0  1  0  0  0  0  0  0
  1  8  1  0  0  0  0
  1  4  1  0  0  0  0
  2 39  1  1  0  0  0
  3 14  1  1  0  0  0
  4 12  1  0  0  0  0
  5 10  1  0  0  0  0
  6  5  1  6  0  0  0
  6  3  1  0  0  0  0
  7 10  2  0  0  0  0
  8 17  1  6  0  0  0
  8  6  1  0  0  0  0
  9  4  2  0  0  0  0
  9 15  1  0  0  0  0
 10 11  1  0  0  0  0
 11  2  1  0  0  0  0
 12  3  1  0  0  0  0
 12 13  1  6  0  0  0
 14  2  1  0  0  0  0
 15 41  1  0  0  0  0
 15 13  2  0  0  0  0
 16 17  1  0  0  0  0
 17 18  2  0  0  0  0
 19 16  1  0  0  0  0
 20 19  1  0  0  0  0
 21 22  1  0  0  0  0
 21 20  1  0  0  0  0
 23 22  1  0  0  0  0
 23 24  2  0  0  0  0
 25 23  1  0  0  0  0
 25 26  1  0  0  0  0
 27 29  2  6  0  0  0
 27 26  1  0  0  0  0
 27 28  1  0  0  0  0
 27 30  1  0  0  0  0
 31 30  1  0  0  0  0
 31 34  1  0  0  0  0
 33 32  1  0  0  0  0
 34 33  1  0  0  0  0
 34 32  1  0  0  0  0
 35 36  1  0  0  0  0
 35 34  1  0  0  0  0
 37 38  1  0  0  0  0
 38  7  1  0  0  0  0
 39 40  1  0  0  0  0
 42 43  2  0  0  0  0
 42 41  1  0  0  0  0
 44 42  1  0  0  0  0
 45 44  1  0  0  0  0
 46 45  2  0  0  0  0
 48 47  1  1  0  0  0
 48 46  1  0  0  0  0
 49 48  1  0  0  0  0
 50 49  1  0  0  0  0
 51 50  2  0  0  0  0
 52 50  1  0  0  0  0
M  END
>  <MODEL>
6

>  <REMARK>
 VINA RESULT:      -6.8      3.753     10.826
  Name = 
  21 active torsions:
  status: ('A' for Active; 'I' for Inactive)
    1  A    between atoms: N_1  and  C_15
    2  A    between atoms: C_4  and  C_25
    3  A    between atoms: C_5  and  C_35
    4  A    between atoms: C_5  and  C_51
    5  A    between atoms: C_7  and  C_30
    6  A    between atoms: C_7  and  C_50
    7  A    between atoms: O_8  and  P_19
    8  A    between atoms: O_8  and  C_38
    9  A    between atoms: O_10  and  P_19
   10  A    between atoms: O_10  and  C_40
   11  A    between atoms: C_11  and  C_40
   12  A    between atoms: C_11  and  C_50
   13  A    between atoms: C_12  and  C_48
   14  A    between atoms: C_13  and  N_42
   15  A    between atoms: C_15  and  C_30
   16  A    between atoms: C_17  and  N_22
   17  A    between atoms: C_21  and  C_39
   18  A    between atoms: C_31  and  O_34
   19  A    between atoms: C_31  and  C_38
   20  A    between atoms: C_43  and  C_52
   21  A    between atoms: C_48  and  C_52
                            x       y       z     vdW  Elec       q    Type
                         _______ _______ _______ _____ _____    ______ ____

>  <TORSDO>
F 21

$$$$
=
 OpenBabel10222420163D

 52 55  0  0  1  0  0  0  0  0999 V2000
  187.3110  178.4060  142.6170 C   0  0  0  0  0  2  0  0  0  0  0  0
  191.2110  175.7420  144.7160 C   0  0  1  0  0  3  0  0  0  0  0  0
  189.5140  176.4030  143.1550 C   0  0  1  0  0  3  0  0  0  0  0  0
  188.2810  177.9250  141.5820 C   0  0  0  0  0  0  0  0  0  0  0  0
  189.3080  178.0840  145.0970 C   0  0  0  0  0  2  0  0  0  0  0  0
  188.6190  176.9820  144.2920 C   0  0  1  0  0  3  0  0  0  0  0  0
  189.7460  177.5010  147.4530 C   0  0  0  0  0  3  0  0  0  0  0  0
  187.2350  177.3980  143.7650 C   0  0  1  0  0  3  0  0  0  0  0  0
  188.3060  178.3680  140.1640 C   0  0  0  0  0  3  0  0  0  0  0  0
  190.1340  177.4580  146.1810 C   0  0  0  0  0  0  0  0  0  0  0  0
  191.4120  176.7550  145.8440 C   0  0  0  0  0  2  0  0  0  0  0  0
  189.2740  177.0800  141.8300 C   0  0  2  0  0  3  0  0  0  0  0  0
  190.0090  176.8160  140.6040 C   0  0  0  0  0  3  0  0  0  0  0  0
  190.9460  176.4460  143.4660 N   0  0  0  0  0  2  0  0  0  0  0  0
  189.4590  177.5650  139.6550 C   0  0  0  0  0  0  0  0  0  0  0  0
  185.2490  178.7670  144.7090 N   0  0  0  0  0  2  0  0  0  0  0  0
  186.2440  177.7420  144.8460 C   0  0  0  0  0  0  0  0  0  0  0  0
  186.3360  177.1350  145.9450 O   0  0  0  0  0  0  0  0  0  0  0  0
  184.9210  179.4610  143.4710 C   0  0  0  0  0  2  0  0  0  0  0  0
  183.6470  178.8900  142.8640 C   0  0  0  0  0  2  0  0  0  0  0  0
  183.9440  178.1320  141.5780 C   0  0  0  0  0  2  0  0  0  0  0  0
  184.6370  179.0400  140.5770 C   0  0  0  0  0  2  0  0  0  0  0  0
  183.9400  178.9860  139.2570 C   0  0  0  0  0  0  0  0  0  0  0  0
  182.7020  179.4640  139.1350 C   0  0  0  0  0  2  0  0  0  0  0  0
  184.7080  178.5930  138.0440 C   0  0  0  0  0  2  0  0  0  0  0  0
  185.5260  177.4970  138.3320 O   0  0  0  0  0  0  0  0  0  0  0  0
  185.6420  176.6250  136.8810 P   0  0  2  0  0  0  0  0  0  0  0  0
  186.8000  175.4050  137.0620 O   0  0  0  0  0  1  0  0  0  0  0  0
  186.0760  177.5480  135.7640 O   0  0  0  0  0  0  0  0  0  0  0  0
  184.1430  175.9350  136.4850 O   0  0  0  0  0  0  0  0  0  0  0  0
  183.7130  175.2980  137.6500 C   0  0  0  0  0  2  0  0  0  0  0  0
  181.3480  175.2650  138.8020 C   0  0  0  0  0  2  0  0  0  0  0  0
  181.4190  176.3180  137.7070 C   0  0  0  0  0  2  0  0  0  0  0  0
  182.2150  175.0410  137.5810 C   0  0  0  0  0  0  0  0  0  0  0  0
  181.7080  174.2250  136.5590 O   0  0  0  0  0  0  0  0  0  0  0  0
  181.2100  173.0710  137.1760 C   0  0  0  0  0  1  0  0  0  0  0  0
  187.8490  177.6900  148.9200 O   0  0  0  0  0  1  0  0  0  0  0  0
  188.5370  178.1430  147.8470 N   0  0  0  0  0  2  0  0  0  0  0  0
  192.4280  174.8310  144.5700 C   0  0  0  0  0  2  0  0  0  0  0  0
  192.0750  173.3600  144.7250 C   0  0  0  0  0  1  0  0  0  0  0  0
  189.9080  177.5700  138.2310 C   0  0  0  0  0  2  0  0  0  0  0  0
  190.6240  176.3070  137.8950 C   0  0  0  0  0  0  0  0  0  0  0  0
  189.9850  175.2230  137.8200 O   0  0  0  0  0  0  0  0  0  0  0  0
  192.0270  176.3470  137.6270 N   0  0  0  0  0  2  0  0  0  0  0  0
  192.7610  175.1830  137.2560 C   0  0  0  0  0  3  0  0  0  0  0  0
  193.8990  174.8950  137.8760 C   0  0  0  0  0  3  0  0  0  0  0  0
  194.0260  172.9000  136.5950 O   0  0  0  0  0  1  0  0  0  0  0  0
  194.7120  173.6880  137.5230 C   0  0  1  0  0  3  0  0  0  0  0  0
  196.0770  174.0690  136.9640 C   0  0  0  0  0  2  0  0  0  0  0  0
  196.9890  174.5250  138.0510 C   0  0  0  0  0  0  0  0  0  0  0  0
  196.7980  174.1480  139.2360 O   0  0  0  0  0  1  0  0  0  0  0  0
  198.0450  175.3780  137.7580 O   0  0  0  0  0  0  0  0  0  0  0  0
  1  8  1  0  0  0  0
  2 39  1  6  0  0  0
  2 11  1  0  0  0  0
  3 14  1  1  0  0  0
  3  6  1  0  0  0  0
  4 12  1  0  0  0  0
  4  1  1  0  0  0  0
  5 10  1  0  0  0  0
  6  5  1  6  0  0  0
  7 38  1  0  0  0  0
  8  6  1  0  0  0  0
  8 17  1  1  0  0  0
  9  4  2  0  0  0  0
 10  7  2  0  0  0  0
 11 10  1  0  0  0  0
 12 13  1  6  0  0  0
 12  3  1  0  0  0  0
 14  2  1  0  0  0  0
 15  9  1  0  0  0  0
 15 13  2  0  0  0  0
 16 17  1  0  0  0  0
 17 18  2  0  0  0  0
 19 16  1  0  0  0  0
 20 19  1  0  0  0  0
 21 20  1  0  0  0  0
 22 21  1  0  0  0  0
 23 22  1  0  0  0  0
 24 23  2  0  0  0  0
 25 26  1  0  0  0  0
 25 23  1  0  0  0  0
 27 29  2  6  0  0  0
 27 28  1  0  0  0  0
 27 26  1  0  0  0  0
 30 27  1  0  0  0  0
 30 31  1  0  0  0  0
 33 32  1  0  0  0  0
 34 31  1  0  0  0  0
 34 33  1  0  0  0  0
 34 32  1  0  0  0  0
 35 36  1  0  0  0  0
 35 34  1  0  0  0  0
 38 37  1  0  0  0  0
 39 40  1  0  0  0  0
 41 15  1  0  0  0  0
 42 41  1  0  0  0  0
 43 42  2  0  0  0  0
 44 42  1  0  0  0  0
 45 44  1  0  0  0  0
 45 46  2  0  0  0  0
 48 47  1  6  0  0  0
 48 46  1  0  0  0  0
 49 48  1  0  0  0  0
 49 50  1  0  0  0  0
 50 51  1  0  0  0  0
 52 50  2  0  0  0  0
M  END
>  <MODEL>
7

>  <REMARK>
 VINA RESULT:      -6.6      2.960      7.948
  Name = 
  21 active torsions:
  status: ('A' for Active; 'I' for Inactive)
    1  A    between atoms: N_1  and  C_15
    2  A    between atoms: C_4  and  C_25
    3  A    between atoms: C_5  and  C_35
    4  A    between atoms: C_5  and  C_51
    5  A    between atoms: C_7  and  C_30
    6  A    between atoms: C_7  and  C_50
    7  A    between atoms: O_8  and  P_19
    8  A    between atoms: O_8  and  C_38
    9  A    between atoms: O_10  and  P_19
   10  A    between atoms: O_10  and  C_40
   11  A    between atoms: C_11  and  C_40
   12  A    between atoms: C_11  and  C_50
   13  A    between atoms: C_12  and  C_48
   14  A    between atoms: C_13  and  N_42
   15  A    between atoms: C_15  and  C_30
   16  A    between atoms: C_17  and  N_22
   17  A    between atoms: C_21  and  C_39
   18  A    between atoms: C_31  and  O_34
   19  A    between atoms: C_31  and  C_38
   20  A    between atoms: C_43  and  C_52
   21  A    between atoms: C_48  and  C_52
                            x       y       z     vdW  Elec       q    Type
                         _______ _______ _______ _____ _____    ______ ____

>  <TORSDO>
F 21

$$$$
=
 OpenBabel10222420163D

 52 55  0  0  1  0  0  0  0  0999 V2000
  184.3900  178.7680  140.5220 C   0  0  0  0  0  2  0  0  0  0  0  0
  183.7230  176.3130  136.0230 C   0  0  1  0  0  3  0  0  0  0  0  0
  184.6360  177.8040  137.6640 C   0  0  1  0  0  3  0  0  0  0  0  0
  185.6930  178.4880  139.8380 C   0  0  0  0  0  0  0  0  0  0  0  0
  182.6970  176.6110  138.8720 C   0  0  0  0  0  2  0  0  0  0  0  0
  183.2590  177.9450  138.3800 C   0  0  1  0  0  3  0  0  0  0  0  0
  180.6220  175.9030  137.7410 C   0  0  0  0  0  3  0  0  0  0  0  0
  183.3000  179.0200  139.4790 C   0  0  1  0  0  3  0  0  0  0  0  0
  187.0330  178.6310  140.4640 C   0  0  0  0  0  2  0  0  0  0  0  0
  181.9520  175.9490  137.7500 C   0  0  0  0  0  0  0  0  0  0  0  0
  182.6990  175.3370  136.6060 C   0  0  0  0  0  2  0  0  0  0  0  0
  185.7980  178.0240  138.6000 C   0  0  0  0  0  0  0  0  0  0  0  0
  187.2010  177.8820  138.2470 C   0  0  0  0  0  3  0  0  0  0  0  0
  184.8040  176.5200  136.9800 N   0  0  0  0  0  2  0  0  0  0  0  0
  187.9040  178.2200  139.3210 C   0  0  0  0  0  0  0  0  0  0  0  0
  181.5200  178.9900  141.3600 N   0  0  0  0  0  2  0  0  0  0  0  0
  181.9500  179.3740  140.0460 C   0  0  0  0  0  0  0  0  0  0  0  0
  181.1400  179.9850  139.3020 O   0  0  0  0  0  0  0  0  0  0  0  0
  182.3700  178.4060  142.3870 C   0  0  0  0  0  2  0  0  0  0  0  0
  182.4490  179.3260  143.5970 C   0  0  0  0  0  2  0  0  0  0  0  0
  183.3480  178.7400  144.6760 C   0  0  0  0  0  2  0  0  0  0  0  0
  184.7860  179.1820  144.4650 C   0  0  0  0  0  2  0  0  0  0  0  0
  185.6920  178.4710  145.4150 C   0  0  0  0  0  0  0  0  0  0  0  0
  185.6330  178.7350  146.7200 C   0  0  0  0  0  2  0  0  0  0  0  0
  186.5060  177.3240  144.9250 C   0  0  0  0  0  2  0  0  0  0  0  0
  186.9140  177.5570  143.6100 O   0  0  0  0  0  0  0  0  0  0  0  0
  188.5820  177.2460  143.5920 P   0  0  2  0  0  0  0  0  0  0  0  0
  189.4180  178.7160  143.5260 O   0  0  0  0  0  1  0  0  0  0  0  0
  188.9360  176.4300  142.3680 O   0  0  0  0  0  0  0  0  0  0  0  0
  189.0390  176.3910  144.9850 O   0  0  0  0  0  0  0  0  0  0  0  0
  190.1450  177.0770  145.4890 C   0  0  0  0  0  2  0  0  0  0  0  0
  189.4770  178.1590  147.7920 C   0  0  0  0  0  2  0  0  0  0  0  0
  188.7370  176.8520  147.5560 C   0  0  0  0  0  2  0  0  0  0  0  0
  190.1320  177.0410  147.0090 C   0  0  0  0  0  0  0  0  0  0  0  0
  191.0560  176.2260  147.6820 O   0  0  0  0  0  0  0  0  0  0  0  0
  192.0640  175.9180  146.7610 C   0  0  0  0  0  1  0  0  0  0  0  0
  179.7700  175.8520  139.9900 O   0  0  0  0  0  1  0  0  0  0  0  0
  179.8450  176.4720  138.7910 N   0  0  0  0  0  2  0  0  0  0  0  0
  184.2730  175.8040  134.6930 C   0  0  0  0  0  2  0  0  0  0  0  0
  185.6060  175.0870  134.8530 C   0  0  0  0  0  1  0  0  0  0  0  0
  189.3970  178.2320  139.3710 C   0  0  0  0  0  2  0  0  0  0  0  0
  189.9700  177.2920  138.3670 C   0  0  0  0  0  0  0  0  0  0  0  0
  190.0160  177.6240  137.1510 O   0  0  0  0  0  0  0  0  0  0  0  0
  190.4930  176.0360  138.8010 N   0  0  0  0  0  2  0  0  0  0  0  0
  191.0950  175.1120  137.8980 C   0  0  0  0  0  3  0  0  0  0  0  0
  192.4170  175.0620  137.7880 C   0  0  0  0  0  3  0  0  0  0  0  0
  192.2130  173.6950  135.8580 O   0  0  0  0  0  1  0  0  0  0  0  0
  193.1010  174.1140  136.8520 C   0  0  1  0  0  3  0  0  0  0  0  0
  194.3320  174.7420  136.2100 C   0  0  0  0  0  2  0  0  0  0  0  0
  195.5760  174.2990  136.9000 C   0  0  0  0  0  0  0  0  0  0  0  0
  195.5760  173.2470  137.5910 O   0  0  0  0  0  1  0  0  0  0  0  0
  196.7350  175.0570  136.7930 O   0  0  0  0  0  0  0  0  0  0  0  0
  2 39  1  6  0  0  0
  2 11  1  0  0  0  0
  2 14  1  0  0  0  0
  3 14  1  1  0  0  0
  3  6  1  0  0  0  0
  3 12  1  0  0  0  0
  4  9  1  0  0  0  0
  4  1  1  0  0  0  0
  6  5  1  1  0  0  0
  6  8  1  0  0  0  0
  7 10  2  0  0  0  0
  7 38  1  0  0  0  0
  8 17  1  1  0  0  0
  8  1  1  0  0  0  0
 10  5  1  0  0  0  0
 11 10  1  0  0  0  0
 12  4  2  0  0  0  0
 13 12  1  0  0  0  0
 13 15  2  0  0  0  0
 15 41  1  0  0  0  0
 15  9  1  0  0  0  0
 16 19  1  0  0  0  0
 17 16  1  0  0  0  0
 18 17  2  0  0  0  0
 19 20  1  0  0  0  0
 20 21  1  0  0  0  0
 22 21  1  0  0  0  0
 22 23  1  0  0  0  0
 23 24  2  0  0  0  0
 25 23  1  0  0  0  0
 26 25  1  0  0  0  0
 27 29  2  6  0  0  0
 27 26  1  0  0  0  0
 27 30  1  0  0  0  0
 28 27  1  0  0  0  0
 30 31  1  0  0  0  0
 31 34  1  0  0  0  0
 33 32  1  0  0  0  0
 34 33  1  0  0  0  0
 34 35  1  0  0  0  0
 34 32  1  0  0  0  0
 36 35  1  0  0  0  0
 38 37  1  0  0  0  0
 39 40  1  0  0  0  0
 42 44  1  0  0  0  0
 42 41  1  0  0  0  0
 43 42  2  0  0  0  0
 45 44  1  0  0  0  0
 46 45  2  0  0  0  0
 48 47  1  6  0  0  0
 48 46  1  0  0  0  0
 49 48  1  0  0  0  0
 49 50  1  0  0  0  0
 50 51  1  0  0  0  0
 52 50  2  0  0  0  0
M  END
>  <MODEL>
8

>  <REMARK>
 VINA RESULT:      -6.5      1.387      2.041
  Name = 
  21 active torsions:
  status: ('A' for Active; 'I' for Inactive)
    1  A    between atoms: N_1  and  C_15
    2  A    between atoms: C_4  and  C_25
    3  A    between atoms: C_5  and  C_35
    4  A    between atoms: C_5  and  C_51
    5  A    between atoms: C_7  and  C_30
    6  A    between atoms: C_7  and  C_50
    7  A    between atoms: O_8  and  P_19
    8  A    between atoms: O_8  and  C_38
    9  A    between atoms: O_10  and  P_19
   10  A    between atoms: O_10  and  C_40
   11  A    between atoms: C_11  and  C_40
   12  A    between atoms: C_11  and  C_50
   13  A    between atoms: C_12  and  C_48
   14  A    between atoms: C_13  and  N_42
   15  A    between atoms: C_15  and  C_30
   16  A    between atoms: C_17  and  N_22
   17  A    between atoms: C_21  and  C_39
   18  A    between atoms: C_31  and  O_34
   19  A    between atoms: C_31  and  C_38
   20  A    between atoms: C_43  and  C_52
   21  A    between atoms: C_48  and  C_52
                            x       y       z     vdW  Elec       q    Type
                         _______ _______ _______ _____ _____    ______ ____

>  <TORSDO>
F 21

$$$$
=
 OpenBabel10222420163D

 52 55  0  0  1  0  0  0  0  0999 V2000
  187.9480  177.9710  138.0110 C   0  0  0  0  0  2  0  0  0  0  0  0
  189.0840  173.1740  136.4570 C   0  0  1  0  0  3  0  0  0  0  0  0
  187.8200  175.0350  137.2890 C   0  0  1  0  0  3  0  0  0  0  0  0
  186.8060  177.3330  137.2830 C   0  0  0  0  0  0  0  0  0  0  0  0
  190.1880  175.9750  136.8970 C   0  0  0  0  0  2  0  0  0  0  0  0
  189.0900  175.6830  137.9200 C   0  0  1  0  0  3  0  0  0  0  0  0
  192.2450  174.6500  137.2070 C   0  0  0  0  0  3  0  0  0  0  0  0
  188.7320  176.9060  138.7810 C   0  0  1  0  0  3  0  0  0  0  0  0
  185.5920  178.0470  136.8060 C   0  0  0  0  0  3  0  0  0  0  0  0
  191.0180  174.7400  136.7020 C   0  0  0  0  0  0  0  0  0  0  0  0
  190.4680  173.5750  135.9410 C   0  0  0  0  0  2  0  0  0  0  0  0
  186.7710  176.0550  136.9280 C   0  0  2  0  0  3  0  0  0  0  0  0
  185.5150  175.7680  136.2540 C   0  0  0  0  0  3  0  0  0  0  0  0
  188.1150  174.2090  136.1150 N   0  0  0  0  0  2  0  0  0  0  0  0
  184.8490  176.9140  136.1760 C   0  0  0  0  0  0  0  0  0  0  0  0
  189.8310  177.5500  141.0360 N   0  0  0  0  0  2  0  0  0  0  0  0
  189.8760  177.4340  139.6070 C   0  0  0  0  0  0  0  0  0  0  0  0
  190.8980  177.8480  139.0010 O   0  0  0  0  0  0  0  0  0  0  0  0
  188.7910  176.9980  141.8940 C   0  0  0  0  0  2  0  0  0  0  0  0
  189.3810  175.9660  142.8450 C   0  0  0  0  0  2  0  0  0  0  0  0
  190.8970  176.0760  142.9040 C   0  0  0  0  0  2  0  0  0  0  0  0
  191.3660  176.1400  144.3480 C   0  0  0  0  0  2  0  0  0  0  0  0
  190.9630  177.4390  144.9670 C   0  0  0  0  0  0  0  0  0  0  0  0
  191.3210  178.5900  144.4000 C   0  0  0  0  0  2  0  0  0  0  0  0
  189.9880  177.4370  146.0930 C   0  0  0  0  0  2  0  0  0  0  0  0
  188.8310  178.1280  145.7220 O   0  0  0  0  0  0  0  0  0  0  0  0
  187.6690  177.7240  146.8900 P   0  0  2  0  0  0  0  0  0  0  0  0
  187.6660  178.9080  148.0990 O   0  0  0  0  0  1  0  0  0  0  0  0
  188.0150  176.3900  147.5150 O   0  0  0  0  0  0  0  0  0  0  0  0
  186.1290  177.6270  146.1830 O   0  0  0  0  0  0  0  0  0  0  0  0
  185.9390  178.8560  145.5490 C   0  0  0  0  0  2  0  0  0  0  0  0
  183.4470  178.7870  144.7070 C   0  0  0  0  0  2  0  0  0  0  0  0
  184.1880  179.9960  144.1570 C   0  0  0  0  0  2  0  0  0  0  0  0
  184.9320  178.7080  144.4180 C   0  0  0  0  0  0  0  0  0  0  0  0
  185.3340  178.1010  143.2190 O   0  0  0  0  0  0  0  0  0  0  0  0
  184.2530  178.2000  142.3360 C   0  0  0  0  0  1  0  0  0  0  0  0
  193.6310  176.6120  137.3320 O   0  0  0  0  0  1  0  0  0  0  0  0
  192.8310  175.7150  137.9510 N   0  0  0  0  0  2  0  0  0  0  0  0
  188.6520  171.8250  135.8860 C   0  0  0  0  0  2  0  0  0  0  0  0
  187.1400  171.6950  135.7840 C   0  0  0  0  0  1  0  0  0  0  0  0
  183.4910  177.0500  135.5690 C   0  0  0  0  0  2  0  0  0  0  0  0
  182.4970  177.4910  136.5870 C   0  0  0  0  0  0  0  0  0  0  0  0
  181.3020  177.7040  136.2460 O   0  0  0  0  0  0  0  0  0  0  0  0
  182.9030  177.6360  137.9490 N   0  0  0  0  0  2  0  0  0  0  0  0
  181.9910  178.0110  138.9770 C   0  0  0  0  0  3  0  0  0  0  0  0
  181.8510  179.2910  139.3010 C   0  0  0  0  0  3  0  0  0  0  0  0
  179.6810  180.1010  139.8200 O   0  0  0  0  0  1  0  0  0  0  0  0
  180.9100  179.7400  140.3760 C   0  0  1  0  0  3  0  0  0  0  0  0
  180.7000  178.6590  141.4310 C   0  0  0  0  0  2  0  0  0  0  0  0
  180.1550  179.2420  142.6890 C   0  0  0  0  0  0  0  0  0  0  0  0
  180.4420  180.4230  143.0150 O   0  0  0  0  0  0  0  0  0  0  0  0
  179.3400  178.4760  143.5120 O   0  0  0  0  0  1  0  0  0  0  0  0
  1  8  1  0  0  0  0
  2 39  1  6  0  0  0
  3 14  1  6  0  0  0
  3  6  1  0  0  0  0
  4  1  1  0  0  0  0
  6  5  1  6  0  0  0
  6  8  1  0  0  0  0
  7 38  1  0  0  0  0
  8 17  1  6  0  0  0
  9  4  2  0  0  0  0
 10  5  1  0  0  0  0
 10  7  2  0  0  0  0
 11  2  1  0  0  0  0
 11 10  1  0  0  0  0
 12 13  1  1  0  0  0
 12  4  1  0  0  0  0
 12  3  1  0  0  0  0
 14  2  1  0  0  0  0
 15 13  2  0  0  0  0
 15  9  1  0  0  0  0
 16 19  1  0  0  0  0
 17 16  1  0  0  0  0
 18 17  2  0  0  0  0
 19 20  1  0  0  0  0
 20 21  1  0  0  0  0
 21 22  1  0  0  0  0
 22 23  1  0  0  0  0
 23 25  1  0  0  0  0
 24 23  2  0  0  0  0
 26 25  1  0  0  0  0
 26 27  1  0  0  0  0
 27 29  2  1  0  0  0
 27 28  1  0  0  0  0
 30 27  1  0  0  0  0
 31 30  1  0  0  0  0
 33 34  1  0  0  0  0
 33 32  1  0  0  0  0
 34 32  1  0  0  0  0
 34 31  1  0  0  0  0
 35 34  1  0  0  0  0
 36 35  1  0  0  0  0
 37 38  1  0  0  0  0
 40 39  1  0  0  0  0
 41 15  1  0  0  0  0
 41 42  1  0  0  0  0
 42 44  1  0  0  0  0
 43 42  2  0  0  0  0
 44 45  1  0  0  0  0
 45 46  2  0  0  0  0
 46 48  1  0  0  0  0
 48 47  1  6  0  0  0
 48 49  1  0  0  0  0
 49 50  1  0  0  0  0
 50 51  2  0  0  0  0
 50 52  1  0  0  0  0
M  END
>  <MODEL>
9

>  <REMARK>
 VINA RESULT:      -6.5      2.154      8.553
  Name = 
  21 active torsions:
  status: ('A' for Active; 'I' for Inactive)
    1  A    between atoms: N_1  and  C_15
    2  A    between atoms: C_4  and  C_25
    3  A    between atoms: C_5  and  C_35
    4  A    between atoms: C_5  and  C_51
    5  A    between atoms: C_7  and  C_30
    6  A    between atoms: C_7  and  C_50
    7  A    between atoms: O_8  and  P_19
    8  A    between atoms: O_8  and  C_38
    9  A    between atoms: O_10  and  P_19
   10  A    between atoms: O_10  and  C_40
   11  A    between atoms: C_11  and  C_40
   12  A    between atoms: C_11  and  C_50
   13  A    between atoms: C_12  and  C_48
   14  A    between atoms: C_13  and  N_42
   15  A    between atoms: C_15  and  C_30
   16  A    between atoms: C_17  and  N_22
   17  A    between atoms: C_21  and  C_39
   18  A    between atoms: C_31  and  O_34
   19  A    between atoms: C_31  and  C_38
   20  A    between atoms: C_43  and  C_52
   21  A    between atoms: C_48  and  C_52
                            x       y       z     vdW  Elec       q    Type
                         _______ _______ _______ _____ _____    ______ ____

>  <TORSDO>
F 21

$$$$
