=
 OpenBabel10222417053D

 55 61  0  0  1  0  0  0  0  0999 V2000
  183.8720  179.6250  139.4230 C   0  0  0  0  0  3  0  0  0  0  0  0
  184.7740  178.8120  138.8710 C   0  0  0  0  0  0  0  0  0  0  0  0
  184.0380  177.0500  137.1530 C   0  0  0  0  0  0  0  0  0  0  0  0
  183.6220  176.2310  138.0160 O   0  0  0  0  0  0  0  0  0  0  0  0
  184.5780  178.3220  137.5340 N   0  0  0  0  0  2  0  0  0  0  0  0
  182.5770  176.9160  135.1590 C   0  0  0  0  0  1  0  0  0  0  0  0
  183.9810  176.7030  135.7020 C   0  0  2  0  0  3  0  0  0  0  0  0
  184.4330  175.2650  135.4870 C   0  0  0  0  0  2  0  0  0  0  0  0
  187.9790  175.5880  135.6460 C   0  0  0  0  0  0  0  0  0  0  0  0
  189.6300  175.0150  136.9980 C   0  0  0  0  0  0  0  0  0  0  0  0
  189.0070  176.1420  136.2600 C   0  0  0  0  0  2  0  0  0  0  0  0
  186.7130  176.1500  135.3590 N   0  0  0  0  0  0  0  0  0  0  0  0
  185.9150  175.1490  135.6110 C   0  0  0  0  0  0  0  0  0  0  0  0
  188.8960  173.8940  136.9410 C   0  0  0  0  0  3  0  0  0  0  0  0
  186.5570  173.9750  136.1550 N   0  0  0  0  0  2  0  0  0  0  0  0
  187.8070  174.2660  136.0630 C   0  0  0  0  0  0  0  0  0  0  0  0
  190.8960  175.1280  137.7740 C   0  0  0  0  0  2  0  0  0  0  0  0
  193.7850  173.2950  136.3880 C   0  0  0  0  0  2  0  0  0  0  0  0
  193.1200  175.8340  137.3890 C   0  0  2  0  0  3  0  0  0  0  0  0
  192.0380  174.9610  136.8890 N   0  0  0  0  0  0  0  0  0  0  0  0
  193.6760  176.6780  136.2530 C   0  0  0  0  0  1  0  0  0  0  0  0
  194.2470  175.1030  138.1410 C   0  0  0  0  0  2  0  0  0  0  0  0
  192.3660  173.5300  136.8850 C   0  0  0  0  0  2  0  0  0  0  0  0
  194.7750  173.8660  137.4000 C   0  0  2  0  0  3  0  0  0  0  0  0
  196.1090  174.1190  136.7760 C   0  0  0  0  0  0  0  0  0  0  0  0
  196.4690  173.4280  135.6270 O   0  0  0  0  0  0  0  0  0  0  0  0
  196.9120  174.9450  137.2850 O   0  0  0  0  0  1  0  0  0  0  0  0
  185.9390  178.4680  139.6420 C   0  0  0  0  0  0  0  0  0  0  0  0
  186.9210  178.1810  140.2790 C   0  0  0  0  0  0  0  0  0  0  0  0
  191.0860  176.0190  143.4600 C   0  0  0  0  0  2  0  0  0  0  0  0
  189.1140  177.2250  140.4290 C   0  0  0  0  0  3  0  0  0  0  0  0
  189.3870  178.7960  144.7840 F   0  0  0  0  0  0  0  0  0  0  0  0
  190.7530  176.8310  144.6810 C   0  0  0  0  0  0  0  0  0  0  0  0
  188.1710  178.1540  142.4940 C   0  0  0  0  0  2  0  0  0  0  0  0
  188.0960  177.8390  141.0290 C   0  0  0  0  0  0  0  0  0  0  0  0
  191.8710  177.7510  145.1300 C   0  0  0  0  0  2  0  0  0  0  0  0
  189.8880  176.1890  142.5390 C   0  0  2  0  0  3  0  0  0  0  0  0
  191.4830  176.5480  145.9780 C   0  0  0  0  0  2  0  0  0  0  0  0
  190.3240  176.8520  141.2300 C   0  0  0  0  0  2  0  0  0  0  0  0
  188.7870  176.9880  143.2960 C   0  0  1  0  0  3  0  0  0  0  0  0
  189.3430  177.4130  144.6660 C   0  0  2  0  0  0  0  0  0  0  0  0
  188.4620  176.8580  145.7950 C   0  0  0  0  0  2  0  0  0  0  0  0
  188.1030  177.8830  146.8260 C   0  0  0  0  0  3  0  0  0  0  0  0
  188.7240  177.8930  148.0000 C   0  0  0  0  0  2  0  0  0  0  0  0
  182.6470  180.0910  138.7020 C   0  0  0  0  0  2  0  0  0  0  0  0
  180.1490  177.2400  138.4360 C   0  0  0  0  0  0  0  0  0  0  0  0
  179.1120  176.4620  137.3780 S   0  0  0  0  0  0  0  0  0  0  0  0
  179.7430  175.3020  139.4690 C   0  0  0  0  0  0  0  0  0  0  0  0
  178.9500  175.0870  138.3410 C   0  0  0  0  0  3  0  0  0  0  0  0
  179.8200  178.9210  140.7800 O   0  0  0  0  0  1  0  0  0  0  0  0
  179.8600  174.2960  140.5570 C   0  0  0  0  0  1  0  0  0  0  0  0
  180.9940  179.4880  140.3400 N   0  0  0  0  0  0  0  0  0  0  0  0
  180.7580  178.5070  138.1730 N   0  0  0  0  0  2  0  0  0  0  0  0
  180.4110  176.4850  139.5210 N   0  0  0  0  0  0  0  0  0  0  0  0
  181.4520  179.3090  139.1380 C   0  0  0  0  0  0  0  0  0  0  0  0
  2  1  2  0  0  0  0
  2 28  1  0  0  0  0
  3  5  1  0  0  0  0
  3  4  2  0  0  0  0
  5  2  1  0  0  0  0
  7  6  1  1  0  0  0
  7  3  1  0  0  0  0
  8 13  1  0  0  0  0
  8  7  1  0  0  0  0
  9 16  2  0  0  0  0
  9 11  1  0  0  0  0
 10 17  1  0  0  0  0
 11 10  1  0  0  0  0
 12 13  2  0  0  0  0
 12  9  1  0  0  0  0
 13 15  1  0  0  0  0
 14 10  2  0  0  0  0
 16 15  1  0  0  0  0
 16 14  1  0  0  0  0
 18 23  1  0  0  0  0
 18 24  1  0  0  0  0
 19 21  1  6  0  0  0
 19 22  1  0  0  0  0
 20 19  1  0  0  0  0
 20 17  1  0  0  0  0
 23 20  1  0  0  0  0
 24 25  1  6  0  0  0
 24 22  1  0  0  0  0
 25 27  1  0  0  0  0
 26 25  2  0  0  0  0
 28 29  3  0  0  0  0
 29 35  1  0  0  0  0
 30 33  1  0  0  0  0
 31 35  2  0  0  0  0
 31 39  1  0  0  0  0
 33 36  1  0  0  0  0
 33 38  1  0  0  0  0
 35 34  1  0  0  0  0
 36 38  1  0  0  0  0
 37 39  1  6  0  0  0
 37 40  1  0  0  0  0
 37 30  1  0  0  0  0
 40 34  1  6  0  0  0
 40 41  1  0  0  0  0
 41 33  1  0  0  0  0
 41 32  1  1  0  0  0
 41 42  1  0  0  0  0
 42 43  1  0  0  0  0
 43 44  2  0  0  0  0
 45 55  1  0  0  0  0
 45  1  1  0  0  0  0
 46 54  2  0  0  0  0
 47 49  1  0  0  0  0
 47 46  1  0  0  0  0
 48 54  1  0  0  0  0
 48 51  1  0  0  0  0
 49 48  2  0  0  0  0
 52 50  1  0  0  0  0
 53 46  1  0  0  0  0
 53 55  1  0  0  0  0
 55 52  2  0  0  0  0
M  END
>  <MODEL>
1

>  <REMARK>
 VINA RESULT:      -7.7      0.000      0.000
  Name = 
  13 active torsions:
  status: ('A' for Active; 'I' for Inactive)
    1  A    between atoms: C_5  and  C_28
    2  A    between atoms: C_11  and  C_55
    3  A    between atoms: C_12  and  C_33
    4  A    between atoms: C_13  and  C_54
    5  A    between atoms: C_14  and  C_16
    6  A    between atoms: C_14  and  N_17
    7  A    between atoms: C_18  and  C_37
    8  A    between atoms: C_18  and  N_39
    9  A    between atoms: C_24  and  C_47
   10  A    between atoms: C_28  and  C_53
   11  A    between atoms: C_31  and  C_40
   12  A    between atoms: C_33  and  C_43
   13  A    between atoms: C_47  and  C_54
                            x       y       z     vdW  Elec       q    Type
                         _______ _______ _______ _____ _____    ______ ____

>  <TORSDO>
F 13

$$$$
=
 OpenBabel10222417053D

 55 61  0  0  1  0  0  0  0  0999 V2000
  191.8830  176.6600  138.4370 C   0  0  0  0  0  3  0  0  0  0  0  0
  190.6850  176.6400  139.0220 C   0  0  0  0  0  0  0  0  0  0  0  0
  189.0770  175.2880  137.5440 C   0  0  0  0  0  0  0  0  0  0  0  0
  189.7330  174.2150  137.6330 O   0  0  0  0  0  0  0  0  0  0  0  0
  189.4980  176.4750  138.2280 N   0  0  0  0  0  2  0  0  0  0  0  0
  188.1010  174.7620  135.3310 C   0  0  0  0  0  1  0  0  0  0  0  0
  187.8390  175.3430  136.7120 C   0  0  2  0  0  3  0  0  0  0  0  0
  187.3370  176.7770  136.6090 C   0  0  0  0  0  2  0  0  0  0  0  0
  184.1530  177.6790  137.9330 C   0  0  0  0  0  0  0  0  0  0  0  0
  182.0280  177.1620  137.6190 C   0  0  0  0  0  0  0  0  0  0  0  0
  183.0000  178.2800  137.7140 C   0  0  0  0  0  3  0  0  0  0  0  0
  185.4450  178.0550  137.4950 N   0  0  0  0  0  0  0  0  0  0  0  0
  185.9620  176.9000  137.1740 C   0  0  0  0  0  0  0  0  0  0  0  0
  182.6230  175.9600  137.6220 C   0  0  0  0  0  3  0  0  0  0  0  0
  185.0600  175.7770  137.2680 N   0  0  0  0  0  2  0  0  0  0  0  0
  184.0180  176.2930  137.8190 C   0  0  1  0  0  3  0  0  0  0  0  0
  180.5580  177.3490  137.4680 C   0  0  0  0  0  2  0  0  0  0  0  0
  180.5820  179.9960  140.0410 C   0  0  0  0  0  2  0  0  0  0  0  0
  180.2680  177.2140  139.8110 C   0  0  2  0  0  3  0  0  0  0  0  0
  180.0270  178.0570  138.6220 N   0  0  0  0  0  0  0  0  0  0  0  0
  178.9850  177.0640  140.6130 C   0  0  0  0  0  1  0  0  0  0  0  0
  181.4320  177.6760  140.7080 C   0  0  0  0  0  2  0  0  0  0  0  0
  180.6940  179.3650  138.6610 C   0  0  0  0  0  2  0  0  0  0  0  0
  181.3930  179.1740  141.0400 C   0  0  2  0  0  3  0  0  0  0  0  0
  180.9420  179.4210  142.4430 C   0  0  0  0  0  0  0  0  0  0  0  0
  180.1330  180.5150  142.7200 O   0  0  0  0  0  0  0  0  0  0  0  0
  181.2960  178.6540  143.3770 O   0  0  0  0  0  1  0  0  0  0  0  0
  190.6270  176.7680  140.4540 C   0  0  0  0  0  0  0  0  0  0  0  0
  190.5840  176.8850  141.6520 C   0  0  0  0  0  0  0  0  0  0  0  0
  189.9590  176.6110  147.2810 C   0  0  0  0  0  2  0  0  0  0  0  0
  191.5650  176.6200  143.8240 C   0  0  0  0  0  3  0  0  0  0  0  0
  188.0130  179.0090  145.6060 F   0  0  0  0  0  0  0  0  0  0  0  0
  188.7610  177.5170  147.3240 C   0  0  0  0  0  0  0  0  0  0  0  0
  189.3310  177.6300  143.7380 C   0  0  0  0  0  2  0  0  0  0  0  0
  190.5400  177.0310  143.0800 C   0  0  0  0  0  0  0  0  0  0  0  0
  188.9740  178.7790  148.1360 C   0  0  0  0  0  2  0  0  0  0  0  0
  190.1340  176.2630  145.8110 C   0  0  2  0  0  3  0  0  0  0  0  0
  188.0200  177.7010  148.6330 C   0  0  0  0  0  2  0  0  0  0  0  0
  191.4950  176.7570  145.3140 C   0  0  0  0  0  2  0  0  0  0  0  0
  188.9360  176.8560  145.0130 C   0  0  1  0  0  3  0  0  0  0  0  0
  188.0590  177.6720  145.9780 C   0  0  2  0  0  0  0  0  0  0  0  0
  186.6250  177.1230  145.9920 C   0  0  0  0  0  2  0  0  0  0  0  0
  185.6750  177.9230  145.1560 C   0  0  0  0  0  3  0  0  0  0  0  0
  184.7770  178.7110  145.7380 C   0  0  0  0  0  2  0  0  0  0  0  0
  192.0710  176.4880  136.9620 C   0  0  0  0  0  2  0  0  0  0  0  0
  195.2550  174.4910  137.5190 C   0  0  0  0  0  0  0  0  0  0  0  0
  196.3690  174.0430  138.6840 S   0  0  0  0  0  0  0  0  0  0  0  0
  196.3040  172.7620  136.5700 C   0  0  0  0  0  0  0  0  0  0  0  0
  197.0140  172.7810  137.7700 C   0  0  0  0  0  3  0  0  0  0  0  0
  195.2980  176.2080  135.1790 O   0  0  0  0  0  1  0  0  0  0  0  0
  196.5880  171.7720  135.4980 C   0  0  0  0  0  1  0  0  0  0  0  0
  193.9740  176.4050  135.4970 N   0  0  0  0  0  0  0  0  0  0  0  0
  194.2810  175.5220  137.6970 N   0  0  0  0  0  2  0  0  0  0  0  0
  195.3270  173.6980  136.4320 N   0  0  0  0  0  0  0  0  0  0  0  0
  193.4770  176.0920  136.6550 C   0  0  0  0  0  0  0  0  0  0  0  0
  1  2  2  0  0  0  0
  2 28  1  0  0  0  0
  3  4  2  0  0  0  0
  3  5  1  0  0  0  0
  5  2  1  0  0  0  0
  7  6  1  6  0  0  0
  7  3  1  0  0  0  0
  8  7  1  0  0  0  0
  8 13  1  0  0  0  0
 10 14  2  0  0  0  0
 10 11  1  0  0  0  0
 11  9  2  0  0  0  0
 12  9  1  0  0  0  0
 13 15  1  0  0  0  0
 13 12  2  0  0  0  0
 15 16  1  0  0  0  0
 16 14  1  6  0  0  0
 16  9  1  0  0  0  0
 17 10  1  0  0  0  0
 17 20  1  0  0  0  0
 18 24  1  0  0  0  0
 19 21  1  1  0  0  0
 19 22  1  0  0  0  0
 20 23  1  0  0  0  0
 20 19  1  0  0  0  0
 22 24  1  0  0  0  0
 23 18  1  0  0  0  0
 24 25  1  1  0  0  0
 25 26  2  0  0  0  0
 25 27  1  0  0  0  0
 28 29  3  0  0  0  0
 29 35  1  0  0  0  0
 30 33  1  0  0  0  0
 31 39  1  0  0  0  0
 33 36  1  0  0  0  0
 33 38  1  0  0  0  0
 35 34  1  0  0  0  0
 35 31  2  0  0  0  0
 36 38  1  0  0  0  0
 37 39  1  6  0  0  0
 37 30  1  0  0  0  0
 40 34  1  6  0  0  0
 40 37  1  0  0  0  0
 40 41  1  0  0  0  0
 41 32  1  6  0  0  0
 41 42  1  0  0  0  0
 41 33  1  0  0  0  0
 43 44  2  0  0  0  0
 43 42  1  0  0  0  0
 45  1  1  0  0  0  0
 46 53  1  0  0  0  0
 46 47  1  0  0  0  0
 48 49  2  0  0  0  0
 49 47  1  0  0  0  0
 50 52  1  0  0  0  0
 51 48  1  0  0  0  0
 52 55  2  0  0  0  0
 54 48  1  0  0  0  0
 54 46  2  0  0  0  0
 55 45  1  0  0  0  0
 55 53  1  0  0  0  0
M  END
>  <MODEL>
2

>  <REMARK>
 VINA RESULT:      -7.6      3.114     10.262
  Name = 
  13 active torsions:
  status: ('A' for Active; 'I' for Inactive)
    1  A    between atoms: C_5  and  C_28
    2  A    between atoms: C_11  and  C_55
    3  A    between atoms: C_12  and  C_33
    4  A    between atoms: C_13  and  C_54
    5  A    between atoms: C_14  and  C_16
    6  A    between atoms: C_14  and  N_17
    7  A    between atoms: C_18  and  C_37
    8  A    between atoms: C_18  and  N_39
    9  A    between atoms: C_24  and  C_47
   10  A    between atoms: C_28  and  C_53
   11  A    between atoms: C_31  and  C_40
   12  A    between atoms: C_33  and  C_43
   13  A    between atoms: C_47  and  C_54
                            x       y       z     vdW  Elec       q    Type
                         _______ _______ _______ _____ _____    ______ ____

>  <TORSDO>
F 13

$$$$
=
 OpenBabel10222417053D

 55 61  0  0  1  0  0  0  0  0999 V2000
  191.9590  176.6010  138.4450 C   0  0  0  0  0  3  0  0  0  0  0  0
  190.7590  176.5990  139.0270 C   0  0  0  0  0  0  0  0  0  0  0  0
  189.1470  175.2880  137.5170 C   0  0  0  0  0  0  0  0  0  0  0  0
  189.8000  174.2110  137.5790 O   0  0  0  0  0  0  0  0  0  0  0  0
  189.5720  176.4570  138.2290 N   0  0  0  0  0  2  0  0  0  0  0  0
  188.0230  174.4540  135.4750 C   0  0  0  0  0  1  0  0  0  0  0  0
  187.9100  175.3670  136.6860 C   0  0  2  0  0  3  0  0  0  0  0  0
  187.6540  176.8060  136.2580 C   0  0  0  0  0  2  0  0  0  0  0  0
  184.3420  177.7280  137.1980 C   0  0  0  0  0  0  0  0  0  0  0  0
  183.0970  177.7770  139.0220 C   0  0  0  0  0  0  0  0  0  0  0  0
  183.1600  177.3140  137.6130 C   0  0  0  0  0  3  0  0  0  0  0  0
  185.2240  177.1090  136.2810 N   0  0  0  0  0  0  0  0  0  0  0  0
  186.3820  177.3170  136.8450 C   0  0  0  0  0  0  0  0  0  0  0  0
  184.2600  178.2930  139.4480 C   0  0  0  0  0  3  0  0  0  0  0  0
  186.3270  177.9480  138.1440 N   0  0  0  0  0  2  0  0  0  0  0  0
  185.0830  178.2550  138.2580 C   0  0  1  0  0  3  0  0  0  0  0  0
  181.8980  177.6260  139.8930 C   0  0  0  0  0  2  0  0  0  0  0  0
  179.9360  179.3720  137.2980 C   0  0  0  0  0  2  0  0  0  0  0  0
  181.2090  179.8830  139.7500 C   0  0  2  0  0  3  0  0  0  0  0  0
  180.8300  178.4930  139.4220 N   0  0  0  0  0  0  0  0  0  0  0  0
  180.0600  180.5830  140.4590 C   0  0  0  0  0  1  0  0  0  0  0  0
  181.7140  180.7160  138.5580 C   0  0  0  0  0  2  0  0  0  0  0  0
  180.6720  178.2310  137.9860 C   0  0  0  0  0  2  0  0  0  0  0  0
  180.8120  180.6220  137.3190 C   0  0  2  0  0  3  0  0  0  0  0  0
  179.9990  181.8610  137.1280 C   0  0  0  0  0  0  0  0  0  0  0  0
  180.3860  183.0370  137.7570 O   0  0  0  0  0  1  0  0  0  0  0  0
  178.9630  181.8480  136.4120 O   0  0  0  0  0  0  0  0  0  0  0  0
  190.6990  176.7230  140.4590 C   0  0  0  0  0  0  0  0  0  0  0  0
  190.6540  176.8370  141.6580 C   0  0  0  0  0  0  0  0  0  0  0  0
  189.9810  176.5700  147.2810 C   0  0  0  0  0  2  0  0  0  0  0  0
  191.6080  176.5170  143.8350 C   0  0  0  0  0  3  0  0  0  0  0  0
  188.1610  179.0640  145.6040 F   0  0  0  0  0  0  0  0  0  0  0  0
  188.8260  177.5320  147.3210 C   0  0  0  0  0  0  0  0  0  0  0  0
  189.4250  177.6320  143.7390 C   0  0  0  0  0  2  0  0  0  0  0  0
  190.6090  176.9790  143.0860 C   0  0  0  0  0  0  0  0  0  0  0  0
  189.0940  178.7790  148.1400 C   0  0  0  0  0  2  0  0  0  0  0  0
  190.1490  176.2210  145.8110 C   0  0  2  0  0  3  0  0  0  0  0  0
  188.0870  177.7460  148.6260 C   0  0  0  0  0  2  0  0  0  0  0  0
  191.5350  176.6510  145.3240 C   0  0  0  0  0  2  0  0  0  0  0  0
  188.9860  176.8720  145.0080 C   0  0  1  0  0  3  0  0  0  0  0  0
  188.1420  177.7250  145.9710 C   0  0  2  0  0  0  0  0  0  0  0  0
  186.6840  177.2440  145.9740 C   0  0  0  0  0  2  0  0  0  0  0  0
  185.7210  178.2610  145.4430 C   0  0  0  0  0  3  0  0  0  0  0  0
  184.4970  178.3480  145.9510 C   0  0  0  0  0  2  0  0  0  0  0  0
  192.1480  176.4310  136.9700 C   0  0  0  0  0  2  0  0  0  0  0  0
  195.4270  174.5640  137.4210 C   0  0  0  0  0  0  0  0  0  0  0  0
  196.5500  174.0850  138.5650 S   0  0  0  0  0  0  0  0  0  0  0  0
  196.5760  172.9700  136.3580 C   0  0  0  0  0  0  0  0  0  0  0  0
  197.2710  172.9330  137.5670 C   0  0  0  0  0  3  0  0  0  0  0  0
  195.4060  176.4580  135.2210 O   0  0  0  0  0  1  0  0  0  0  0  0
  196.9240  172.0830  135.2180 C   0  0  0  0  0  1  0  0  0  0  0  0
  194.0700  176.5600  135.5330 N   0  0  0  0  0  0  0  0  0  0  0  0
  194.3970  175.5260  137.6630 N   0  0  0  0  0  2  0  0  0  0  0  0
  195.5530  173.8630  136.2770 N   0  0  0  0  0  0  0  0  0  0  0  0
  193.5770  176.1330  136.6560 C   0  0  0  0  0  0  0  0  0  0  0  0
  1  2  2  0  0  0  0
  2 28  1  0  0  0  0
  3  4  2  0  0  0  0
  3  5  1  0  0  0  0
  5  2  1  0  0  0  0
  7  6  1  6  0  0  0
  7  3  1  0  0  0  0
  8  7  1  0  0  0  0
  8 13  1  0  0  0  0
  9 11  2  0  0  0  0
  9 16  1  0  0  0  0
 10 14  2  0  0  0  0
 10 17  1  0  0  0  0
 11 10  1  0  0  0  0
 12 13  2  0  0  0  0
 12  9  1  0  0  0  0
 13 15  1  0  0  0  0
 15 16  1  0  0  0  0
 16 14  1  1  0  0  0
 18 24  1  0  0  0  0
 18 23  1  0  0  0  0
 19 21  1  6  0  0  0
 20 19  1  0  0  0  0
 20 17  1  0  0  0  0
 22 19  1  0  0  0  0
 23 20  1  0  0  0  0
 24 25  1  1  0  0  0
 24 22  1  0  0  0  0
 25 26  1  0  0  0  0
 27 25  2  0  0  0  0
 28 29  3  0  0  0  0
 29 35  1  0  0  0  0
 30 33  1  0  0  0  0
 31 39  1  0  0  0  0
 33 36  1  0  0  0  0
 33 38  1  0  0  0  0
 35 34  1  0  0  0  0
 35 31  2  0  0  0  0
 36 38  1  0  0  0  0
 37 39  1  6  0  0  0
 37 30  1  0  0  0  0
 40 34  1  6  0  0  0
 40 37  1  0  0  0  0
 40 41  1  0  0  0  0
 41 32  1  6  0  0  0
 41 42  1  0  0  0  0
 41 33  1  0  0  0  0
 43 44  2  0  0  0  0
 43 42  1  0  0  0  0
 45  1  1  0  0  0  0
 46 53  1  0  0  0  0
 46 47  1  0  0  0  0
 48 49  2  0  0  0  0
 49 47  1  0  0  0  0
 50 52  1  0  0  0  0
 51 48  1  0  0  0  0
 52 55  2  0  0  0  0
 54 48  1  0  0  0  0
 54 46  2  0  0  0  0
 55 45  1  0  0  0  0
 55 53  1  0  0  0  0
M  END
>  <MODEL>
3

>  <REMARK>
 VINA RESULT:      -7.4      3.250     10.365
  Name = 
  13 active torsions:
  status: ('A' for Active; 'I' for Inactive)
    1  A    between atoms: C_5  and  C_28
    2  A    between atoms: C_11  and  C_55
    3  A    between atoms: C_12  and  C_33
    4  A    between atoms: C_13  and  C_54
    5  A    between atoms: C_14  and  C_16
    6  A    between atoms: C_14  and  N_17
    7  A    between atoms: C_18  and  C_37
    8  A    between atoms: C_18  and  N_39
    9  A    between atoms: C_24  and  C_47
   10  A    between atoms: C_28  and  C_53
   11  A    between atoms: C_31  and  C_40
   12  A    between atoms: C_33  and  C_43
   13  A    between atoms: C_47  and  C_54
                            x       y       z     vdW  Elec       q    Type
                         _______ _______ _______ _____ _____    ______ ____

>  <TORSDO>
F 13

$$$$
=
 OpenBabel10222417053D

 55 61  0  0  1  0  0  0  0  0999 V2000
  190.1950  176.9330  140.6110 C   0  0  0  0  0  3  0  0  0  0  0  0
  190.1510  176.7450  139.2920 C   0  0  0  0  0  0  0  0  0  0  0  0
  188.6220  178.0100  137.6620 C   0  0  0  0  0  0  0  0  0  0  0  0
  189.4870  178.8770  137.3600 O   0  0  0  0  0  0  0  0  0  0  0  0
  188.9220  176.9480  138.5750 N   0  0  0  0  0  2  0  0  0  0  0  0
  186.2200  178.3510  138.1520 C   0  0  0  0  0  1  0  0  0  0  0  0
  187.2530  178.0810  137.0700 C   0  0  2  0  0  3  0  0  0  0  0  0
  186.9340  176.7900  136.3260 C   0  0  0  0  0  2  0  0  0  0  0  0
  183.7610  175.4560  137.2500 C   0  0  0  0  0  0  0  0  0  0  0  0
  181.7460  176.1990  137.7700 C   0  0  0  0  0  0  0  0  0  0  0  0
  182.8600  175.3180  138.2030 C   0  0  0  0  0  2  0  0  0  0  0  0
  185.1710  175.4370  137.3550 N   0  0  0  0  0  0  0  0  0  0  0  0
  185.5120  176.3940  136.5360 C   0  0  0  0  0  0  0  0  0  0  0  0
  182.0600  176.9370  136.6960 C   0  0  0  0  0  3  0  0  0  0  0  0
  184.4100  177.1310  135.9620 N   0  0  0  0  0  2  0  0  0  0  0  0
  183.3840  176.4600  136.3540 C   0  0  0  0  0  0  0  0  0  0  0  0
  180.4440  176.3050  138.4870 C   0  0  0  0  0  2  0  0  0  0  0  0
  179.3740  177.2910  141.8790 C   0  0  0  0  0  2  0  0  0  0  0  0
  181.2140  178.0420  139.8940 C   0  0  2  0  0  3  0  0  0  0  0  0
  180.6710  176.6690  139.8760 N   0  0  0  0  0  0  0  0  0  0  0  0
  182.4660  178.0970  140.7550 C   0  0  0  0  0  1  0  0  0  0  0  0
  180.2080  179.1320  140.3080 C   0  0  0  0  0  2  0  0  0  0  0  0
  179.3850  176.5160  140.5700 C   0  0  0  0  0  2  0  0  0  0  0  0
  179.4210  178.7870  141.5800 C   0  0  2  0  0  3  0  0  0  0  0  0
  179.9050  179.5650  142.7610 C   0  0  0  0  0  0  0  0  0  0  0  0
  180.2590  178.8930  143.9240 O   0  0  0  0  0  1  0  0  0  0  0  0
  179.9860  180.8210  142.7160 O   0  0  0  0  0  0  0  0  0  0  0  0
  191.3640  176.3570  138.6220 C   0  0  0  0  0  0  0  0  0  0  0  0
  192.3740  176.0310  138.0510 C   0  0  0  0  0  0  0  0  0  0  0  0
  196.5660  173.7510  134.9900 C   0  0  0  0  0  2  0  0  0  0  0  0
  193.8640  176.1620  136.1770 C   0  0  0  0  0  3  0  0  0  0  0  0
  196.8330  173.4460  138.4800 F   0  0  0  0  0  0  0  0  0  0  0  0
  197.2000  173.0340  136.1490 C   0  0  0  0  0  0  0  0  0  0  0  0
  194.4860  174.6140  137.9750 C   0  0  0  0  0  2  0  0  0  0  0  0
  193.5710  175.6360  137.3650 C   0  0  0  0  0  0  0  0  0  0  0  0
  198.6230  173.4690  136.4360 C   0  0  0  0  0  2  0  0  0  0  0  0
  195.2050  174.1960  135.5020 C   0  0  2  0  0  3  0  0  0  0  0  0
  198.3450  172.0760  135.8890 C   0  0  0  0  0  2  0  0  0  0  0  0
  195.1040  175.7230  135.4620 C   0  0  0  0  0  2  0  0  0  0  0  0
  194.9900  173.6030  136.9240 C   0  0  1  0  0  3  0  0  0  0  0  0
  196.2720  172.8670  137.3490 C   0  0  2  0  0  0  0  0  0  0  0  0
  195.9660  171.3940  137.6590 C   0  0  0  0  0  2  0  0  0  0  0  0
  194.6960  170.9070  137.0340 C   0  0  0  0  0  3  0  0  0  0  0  0
  194.7390  170.0640  136.0080 C   0  0  0  0  0  2  0  0  0  0  0  0
  189.0110  177.3830  141.4090 C   0  0  0  0  0  2  0  0  0  0  0  0
  188.9670  177.5120  145.2050 C   0  0  0  0  0  0  0  0  0  0  0  0
  187.9510  177.6320  146.5300 S   0  0  0  0  0  0  0  0  0  0  0  0
  190.2650  176.8380  146.8930 C   0  0  0  0  0  0  0  0  0  0  0  0
  189.1120  177.1010  147.6320 C   0  0  0  0  0  3  0  0  0  0  0  0
  190.9400  179.2380  143.9590 O   0  0  0  0  0  1  0  0  0  0  0  0
  191.5150  176.3420  147.5260 C   0  0  0  0  0  1  0  0  0  0  0  0
  190.5390  178.5980  142.8090 N   0  0  0  0  0  0  0  0  0  0  0  0
  188.5590  177.7670  143.8590 N   0  0  0  0  0  2  0  0  0  0  0  0
  190.1860  177.0560  145.5530 N   0  0  0  0  0  0  0  0  0  0  0  0
  189.4420  177.9070  142.7380 C   0  0  0  0  0  0  0  0  0  0  0  0
  1 45  1  0  0  0  0
  2  1  2  0  0  0  0
  3  5  1  0  0  0  0
  4  3  2  0  0  0  0
  5  2  1  0  0  0  0
  7  3  1  0  0  0  0
  7  6  1  1  0  0  0
  8 13  1  0  0  0  0
  8  7  1  0  0  0  0
  9 12  1  0  0  0  0
  9 11  1  0  0  0  0
 10 11  1  0  0  0  0
 10 17  1  0  0  0  0
 13 12  2  0  0  0  0
 14 10  2  0  0  0  0
 15 16  1  0  0  0  0
 15 13  1  0  0  0  0
 16 14  1  0  0  0  0
 16  9  2  0  0  0  0
 17 20  1  0  0  0  0
 19 22  1  0  0  0  0
 19 21  1  1  0  0  0
 20 19  1  0  0  0  0
 20 23  1  0  0  0  0
 22 24  1  0  0  0  0
 23 18  1  0  0  0  0
 24 18  1  0  0  0  0
 24 25  1  1  0  0  0
 25 26  1  0  0  0  0
 27 25  2  0  0  0  0
 28  2  1  0  0  0  0
 29 28  3  0  0  0  0
 30 33  1  0  0  0  0
 31 35  2  0  0  0  0
 33 36  1  0  0  0  0
 33 41  1  0  0  0  0
 35 34  1  0  0  0  0
 35 29  1  0  0  0  0
 37 30  1  1  0  0  0
 37 40  1  0  0  0  0
 38 33  1  0  0  0  0
 38 36  1  0  0  0  0
 39 37  1  0  0  0  0
 39 31  1  0  0  0  0
 40 41  1  0  0  0  0
 40 34  1  1  0  0  0
 41 42  1  0  0  0  0
 41 32  1  1  0  0  0
 43 42  1  0  0  0  0
 44 43  2  0  0  0  0
 45 55  1  0  0  0  0
 46 54  2  0  0  0  0
 46 47  1  0  0  0  0
 47 49  1  0  0  0  0
 48 51  1  0  0  0  0
 48 49  2  0  0  0  0
 52 50  1  0  0  0  0
 53 46  1  0  0  0  0
 54 48  1  0  0  0  0
 55 52  2  0  0  0  0
 55 53  1  0  0  0  0
M  END
>  <MODEL>
4

>  <REMARK>
 VINA RESULT:      -7.4      3.860     10.659
  Name = 
  13 active torsions:
  status: ('A' for Active; 'I' for Inactive)
    1  A    between atoms: C_5  and  C_28
    2  A    between atoms: C_11  and  C_55
    3  A    between atoms: C_12  and  C_33
    4  A    between atoms: C_13  and  C_54
    5  A    between atoms: C_14  and  C_16
    6  A    between atoms: C_14  and  N_17
    7  A    between atoms: C_18  and  C_37
    8  A    between atoms: C_18  and  N_39
    9  A    between atoms: C_24  and  C_47
   10  A    between atoms: C_28  and  C_53
   11  A    between atoms: C_31  and  C_40
   12  A    between atoms: C_33  and  C_43
   13  A    between atoms: C_47  and  C_54
                            x       y       z     vdW  Elec       q    Type
                         _______ _______ _______ _____ _____    ______ ____

>  <TORSDO>
F 13

$$$$
=
 OpenBabel10222417053D

 55 61  0  0  1  0  0  0  0  0999 V2000
  189.4320  175.7800  135.5830 C   0  0  0  0  0  3  0  0  0  0  0  0
  188.7130  175.9160  136.6960 C   0  0  0  0  0  0  0  0  0  0  0  0
  190.1590  176.3800  138.7680 C   0  0  0  0  0  0  0  0  0  0  0  0
  190.7290  175.2560  138.7500 O   0  0  0  0  0  0  0  0  0  0  0  0
  189.1950  176.7410  137.7700 N   0  0  0  0  0  2  0  0  0  0  0  0
  191.9760  177.5980  139.9260 C   0  0  0  0  0  1  0  0  0  0  0  0
  190.4760  177.3640  139.8440 C   0  0  2  0  0  3  0  0  0  0  0  0
  189.9300  176.8770  141.1800 C   0  0  0  0  0  2  0  0  0  0  0  0
  186.8640  178.6830  141.3800 C   0  0  0  0  0  0  0  0  0  0  0  0
  184.8270  178.3930  142.1860 C   0  0  0  0  0  0  0  0  0  0  0  0
  185.6090  178.7690  140.9810 C   0  0  0  0  0  3  0  0  0  0  0  0
  188.0020  178.2870  140.6390 N   0  0  0  0  0  0  0  0  0  0  0  0
  188.6470  177.5630  141.5120 C   0  0  0  0  0  0  0  0  0  0  0  0
  185.6030  177.9520  143.1870 C   0  0  0  0  0  3  0  0  0  0  0  0
  187.9610  177.3570  142.7660 N   0  0  0  0  0  2  0  0  0  0  0  0
  186.9390  178.1320  142.6610 C   0  0  1  0  0  3  0  0  0  0  0  0
  183.3400  178.4350  142.2570 C   0  0  0  0  0  2  0  0  0  0  0  0
  180.6760  179.5880  139.9760 C   0  0  0  0  0  2  0  0  0  0  0  0
  182.5600  177.5190  140.2210 C   0  0  2  0  0  3  0  0  0  0  0  0
  182.7900  178.7800  140.9560 N   0  0  0  0  0  0  0  0  0  0  0  0
  183.1730  177.6050  138.8330 C   0  0  0  0  0  1  0  0  0  0  0  0
  181.0890  177.0680  140.1510 C   0  0  0  0  0  2  0  0  0  0  0  0
  181.5750  179.5670  141.2030 C   0  0  0  0  0  2  0  0  0  0  0  0
  180.1260  178.1860  139.7300 C   0  0  2  0  0  3  0  0  0  0  0  0
  179.6660  178.0200  138.3170 C   0  0  0  0  0  0  0  0  0  0  0  0
  178.9310  176.8960  137.9640 O   0  0  0  0  0  1  0  0  0  0  0  0
  179.9480  178.8820  137.4430 O   0  0  0  0  0  0  0  0  0  0  0  0
  187.4470  175.2350  136.7740 C   0  0  0  0  0  0  0  0  0  0  0  0
  186.3920  174.6570  136.8450 C   0  0  0  0  0  0  0  0  0  0  0  0
  181.4960  171.8670  136.2250 C   0  0  0  0  0  2  0  0  0  0  0  0
  185.1230  172.6400  137.1040 C   0  0  0  0  0  3  0  0  0  0  0  0
  181.2680  175.2110  137.2820 F   0  0  0  0  0  0  0  0  0  0  0  0
  180.6300  173.0870  136.3770 C   0  0  0  0  0  0  0  0  0  0  0  0
  183.8490  174.7150  136.8080 C   0  0  0  0  0  2  0  0  0  0  0  0
  185.1410  173.9600  136.9310 C   0  0  0  0  0  0  0  0  0  0  0  0
  179.6810  173.0230  137.5560 C   0  0  0  0  0  2  0  0  0  0  0  0
  182.9040  172.4090  136.0340 C   0  0  2  0  0  3  0  0  0  0  0  0
  179.1390  172.9690  136.1350 C   0  0  0  0  0  2  0  0  0  0  0  0
  183.8100  171.9220  137.1680 C   0  0  0  0  0  2  0  0  0  0  0  0
  182.8310  173.9590  135.9280 C   0  0  1  0  0  3  0  0  0  0  0  0
  181.3760  174.4000  136.1590 C   0  0  2  0  0  0  0  0  0  0  0  0
  180.8540  175.1820  134.9450 C   0  0  0  0  0  2  0  0  0  0  0  0
  180.9840  176.6660  135.0940 C   0  0  0  0  0  3  0  0  0  0  0  0
  182.0470  177.2940  134.6010 C   0  0  0  0  0  2  0  0  0  0  0  0
  190.7390  176.4770  135.3680 C   0  0  0  0  0  2  0  0  0  0  0  0
  194.3780  175.4600  135.7640 C   0  0  0  0  0  0  0  0  0  0  0  0
  195.9340  175.8280  135.2700 S   0  0  0  0  0  0  0  0  0  0  0  0
  195.6440  174.4240  137.2860 C   0  0  0  0  0  0  0  0  0  0  0  0
  196.6740  174.9660  136.5160 C   0  0  0  0  0  3  0  0  0  0  0  0
  192.5460  173.2510  135.3250 O   0  0  0  0  0  1  0  0  0  0  0  0
  195.9080  173.5940  138.4890 C   0  0  0  0  0  1  0  0  0  0  0  0
  191.5880  174.2310  135.4530 N   0  0  0  0  0  0  0  0  0  0  0  0
  193.1980  175.9690  135.1390 N   0  0  0  0  0  2  0  0  0  0  0  0
  194.3770  174.7020  136.8790 N   0  0  0  0  0  0  0  0  0  0  0  0
  191.8650  175.4970  135.3750 C   0  0  0  0  0  0  0  0  0  0  0  0
  1  2  2  0  0  0  0
  2 28  1  0  0  0  0
  2  5  1  0  0  0  0
  3  7  1  0  0  0  0
  4  3  2  0  0  0  0
  5  3  1  0  0  0  0
  7  6  1  1  0  0  0
  7  8  1  0  0  0  0
  8 13  1  0  0  0  0
  9 16  1  0  0  0  0
 10 17  1  0  0  0  0
 10 14  2  0  0  0  0
 11  9  2  0  0  0  0
 11 10  1  0  0  0  0
 12  9  1  0  0  0  0
 12 13  2  0  0  0  0
 13 15  1  0  0  0  0
 16 15  1  0  0  0  0
 16 14  1  6  0  0  0
 18 23  1  0  0  0  0
 19 21  1  6  0  0  0
 19 20  1  0  0  0  0
 20 23  1  0  0  0  0
 20 17  1  0  0  0  0
 22 19  1  0  0  0  0
 24 25  1  6  0  0  0
 24 18  1  0  0  0  0
 24 22  1  0  0  0  0
 26 25  1  0  0  0  0
 27 25  2  0  0  0  0
 28 29  3  0  0  0  0
 29 35  1  0  0  0  0
 30 33  1  0  0  0  0
 31 39  1  0  0  0  0
 33 36  1  0  0  0  0
 34 35  1  0  0  0  0
 35 31  2  0  0  0  0
 37 30  1  1  0  0  0
 37 39  1  0  0  0  0
 38 33  1  0  0  0  0
 38 36  1  0  0  0  0
 40 37  1  0  0  0  0
 40 41  1  0  0  0  0
 40 34  1  1  0  0  0
 41 33  1  0  0  0  0
 41 32  1  1  0  0  0
 42 43  1  0  0  0  0
 42 41  1  0  0  0  0
 44 43  2  0  0  0  0
 45 55  1  0  0  0  0
 45  1  1  0  0  0  0
 46 54  2  0  0  0  0
 47 46  1  0  0  0  0
 47 49  1  0  0  0  0
 48 51  1  0  0  0  0
 49 48  2  0  0  0  0
 50 52  1  0  0  0  0
 53 55  1  0  0  0  0
 53 46  1  0  0  0  0
 54 48  1  0  0  0  0
 55 52  2  0  0  0  0
M  END
>  <MODEL>
5

>  <REMARK>
 VINA RESULT:      -6.8      3.845     11.719
  Name = 
  13 active torsions:
  status: ('A' for Active; 'I' for Inactive)
    1  A    between atoms: C_5  and  C_28
    2  A    between atoms: C_11  and  C_55
    3  A    between atoms: C_12  and  C_33
    4  A    between atoms: C_13  and  C_54
    5  A    between atoms: C_14  and  C_16
    6  A    between atoms: C_14  and  N_17
    7  A    between atoms: C_18  and  C_37
    8  A    between atoms: C_18  and  N_39
    9  A    between atoms: C_24  and  C_47
   10  A    between atoms: C_28  and  C_53
   11  A    between atoms: C_31  and  C_40
   12  A    between atoms: C_33  and  C_43
   13  A    between atoms: C_47  and  C_54
                            x       y       z     vdW  Elec       q    Type
                         _______ _______ _______ _____ _____    ______ ____

>  <TORSDO>
F 13

$$$$
=
 OpenBabel10222417053D

 55 61  0  0  1  0  0  0  0  0999 V2000
  183.7010  176.9520  134.9160 C   0  0  0  0  0  3  0  0  0  0  0  0
  184.4560  177.2340  135.9780 C   0  0  0  0  0  0  0  0  0  0  0  0
  183.2850  177.6400  138.2280 C   0  0  0  0  0  0  0  0  0  0  0  0
  183.1450  176.4160  138.4950 O   0  0  0  0  0  0  0  0  0  0  0  0
  183.9400  178.0690  137.0280 N   0  0  0  0  0  2  0  0  0  0  0  0
  183.8280  179.7130  139.4670 C   0  0  0  0  0  1  0  0  0  0  0  0
  182.7580  178.6750  139.1650 C   0  0  2  0  0  3  0  0  0  0  0  0
  182.2610  178.0210  140.4470 C   0  0  0  0  0  2  0  0  0  0  0  0
  183.8660  179.0590  143.4550 C   0  0  0  0  0  0  0  0  0  0  0  0
  185.2850  178.2390  144.9370 C   0  0  0  0  0  0  0  0  0  0  0  0
  183.9670  178.8990  144.7610 C   0  0  0  0  0  2  0  0  0  0  0  0
  182.7080  179.0060  142.6440 N   0  0  0  0  0  0  0  0  0  0  0  0
  183.1470  178.3630  141.5970 C   0  0  0  0  0  0  0  0  0  0  0  0
  185.8450  177.8870  143.7700 C   0  0  0  0  0  3  0  0  0  0  0  0
  184.5060  177.8840  141.6960 N   0  0  0  0  0  2  0  0  0  0  0  0
  184.9150  178.4150  142.7950 C   0  0  0  0  0  0  0  0  0  0  0  0
  185.8920  177.9370  146.2630 C   0  0  0  0  0  2  0  0  0  0  0  0
  189.3970  177.5510  145.1700 C   0  0  0  0  0  2  0  0  0  0  0  0
  187.8870  177.8080  147.5250 C   0  0  2  0  0  3  0  0  0  0  0  0
  187.3050  178.2810  146.2520 N   0  0  0  0  0  0  0  0  0  0  0  0
  188.6810  178.9260  148.1820 C   0  0  0  0  0  1  0  0  0  0  0  0
  188.7270  176.5220  147.4160 C   0  0  0  0  0  2  0  0  0  0  0  0
  187.8840  177.6610  145.0530 C   0  0  0  0  0  2  0  0  0  0  0  0
  189.7470  176.5520  146.2700 C   0  0  2  0  0  3  0  0  0  0  0  0
  191.1400  176.7580  146.7710 C   0  0  0  0  0  0  0  0  0  0  0  0
  191.3440  177.1110  148.0990 O   0  0  0  0  0  1  0  0  0  0  0  0
  192.1280  176.6260  146.0010 O   0  0  0  0  0  0  0  0  0  0  0  0
  185.7760  176.6650  136.0430 C   0  0  0  0  0  0  0  0  0  0  0  0
  186.8780  176.1790  136.0910 C   0  0  0  0  0  0  0  0  0  0  0  0
  191.8180  173.6370  137.2230 C   0  0  0  0  0  2  0  0  0  0  0  0
  188.3690  174.3310  135.7570 C   0  0  0  0  0  3  0  0  0  0  0  0
  191.9080  177.1280  136.8290 F   0  0  0  0  0  0  0  0  0  0  0  0
  192.5700  174.9160  137.4660 C   0  0  0  0  0  0  0  0  0  0  0  0
  189.3480  176.3890  136.6640 C   0  0  0  0  0  2  0  0  0  0  0  0
  188.1860  175.5910  136.1470 C   0  0  0  0  0  0  0  0  0  0  0  0
  193.7300  175.1360  136.5160 C   0  0  0  0  0  2  0  0  0  0  0  0
  190.3520  174.0430  137.2070 C   0  0  2  0  0  3  0  0  0  0  0  0
  193.9910  174.8490  137.9880 C   0  0  0  0  0  2  0  0  0  0  0  0
  189.7340  173.7230  135.8430 C   0  0  0  0  0  2  0  0  0  0  0  0
  190.2480  175.5470  137.5920 C   0  0  1  0  0  3  0  0  0  0  0  0
  191.6690  176.1140  137.7470 C   0  0  2  0  0  0  0  0  0  0  0  0
  191.8660  176.6840  139.1600 C   0  0  0  0  0  2  0  0  0  0  0  0
  190.5880  177.1150  139.8100 C   0  0  0  0  0  3  0  0  0  0  0  0
  190.3660  176.8360  141.0900 C   0  0  0  0  0  2  0  0  0  0  0  0
  182.2970  177.4470  134.7610 C   0  0  0  0  0  2  0  0  0  0  0  0
  181.2150  174.1980  136.4070 C   0  0  0  0  0  0  0  0  0  0  0  0
  181.6440  172.5940  136.6160 S   0  0  0  0  0  0  0  0  0  0  0  0
  179.9630  173.5680  138.1460 C   0  0  0  0  0  0  0  0  0  0  0  0
  180.6050  172.3500  137.9220 C   0  0  0  0  0  3  0  0  0  0  0  0
  179.1030  175.5980  134.9900 O   0  0  0  0  0  1  0  0  0  0  0  0
  178.9640  173.7470  139.2320 C   0  0  0  0  0  1  0  0  0  0  0  0
  180.0580  176.5810  134.8650 N   0  0  0  0  0  0  0  0  0  0  0  0
  181.8160  175.0680  135.4450 N   0  0  0  0  0  2  0  0  0  0  0  0
  180.3030  174.5910  137.3170 N   0  0  0  0  0  0  0  0  0  0  0  0
  181.3210  176.3620  135.0740 C   0  0  0  0  0  0  0  0  0  0  0  0
  1  2  2  0  0  0  0
  2 28  1  0  0  0  0
  2  5  1  0  0  0  0
  3  4  2  0  0  0  0
  3  7  1  0  0  0  0
  5  3  1  0  0  0  0
  7  6  1  1  0  0  0
  7  8  1  0  0  0  0
  8 13  1  0  0  0  0
  9 11  1  0  0  0  0
 10 17  1  0  0  0  0
 11 10  1  0  0  0  0
 12  9  1  0  0  0  0
 13 15  1  0  0  0  0
 13 12  2  0  0  0  0
 14 10  2  0  0  0  0
 15 16  1  0  0  0  0
 16  9  2  0  0  0  0
 16 14  1  0  0  0  0
 18 24  1  0  0  0  0
 19 21  1  6  0  0  0
 20 17  1  0  0  0  0
 20 19  1  0  0  0  0
 22 19  1  0  0  0  0
 23 18  1  0  0  0  0
 23 20  1  0  0  0  0
 24 25  1  1  0  0  0
 24 22  1  0  0  0  0
 25 26  1  0  0  0  0
 27 25  2  0  0  0  0
 28 29  3  0  0  0  0
 29 35  1  0  0  0  0
 30 33  1  0  0  0  0
 31 39  1  0  0  0  0
 31 35  2  0  0  0  0
 33 41  1  0  0  0  0
 33 38  1  0  0  0  0
 35 34  1  0  0  0  0
 36 33  1  0  0  0  0
 36 38  1  0  0  0  0
 37 39  1  6  0  0  0
 37 30  1  0  0  0  0
 37 40  1  0  0  0  0
 40 34  1  6  0  0  0
 40 41  1  0  0  0  0
 41 32  1  6  0  0  0
 41 42  1  0  0  0  0
 42 43  1  0  0  0  0
 43 44  2  0  0  0  0
 45  1  1  0  0  0  0
 45 55  1  0  0  0  0
 46 47  1  0  0  0  0
 46 54  2  0  0  0  0
 47 49  1  0  0  0  0
 48 51  1  0  0  0  0
 49 48  2  0  0  0  0
 52 50  1  0  0  0  0
 52 55  2  0  0  0  0
 53 46  1  0  0  0  0
 54 48  1  0  0  0  0
 55 53  1  0  0  0  0
M  END
>  <MODEL>
6

>  <REMARK>
 VINA RESULT:      -6.4      3.500      7.577
  Name = 
  13 active torsions:
  status: ('A' for Active; 'I' for Inactive)
    1  A    between atoms: C_5  and  C_28
    2  A    between atoms: C_11  and  C_55
    3  A    between atoms: C_12  and  C_33
    4  A    between atoms: C_13  and  C_54
    5  A    between atoms: C_14  and  C_16
    6  A    between atoms: C_14  and  N_17
    7  A    between atoms: C_18  and  C_37
    8  A    between atoms: C_18  and  N_39
    9  A    between atoms: C_24  and  C_47
   10  A    between atoms: C_28  and  C_53
   11  A    between atoms: C_31  and  C_40
   12  A    between atoms: C_33  and  C_43
   13  A    between atoms: C_47  and  C_54
                            x       y       z     vdW  Elec       q    Type
                         _______ _______ _______ _____ _____    ______ ____

>  <TORSDO>
F 13

$$$$
=
 OpenBabel10222417053D

 55 61  0  0  1  0  0  0  0  0999 V2000
  184.1570  179.0560  142.7770 C   0  0  0  0  0  3  0  0  0  0  0  0
  184.6280  178.4980  141.6610 C   0  0  0  0  0  0  0  0  0  0  0  0
  186.6220  178.6330  140.0480 C   0  0  0  0  0  0  0  0  0  0  0  0
  185.9110  178.6680  139.0070 O   0  0  0  0  0  0  0  0  0  0  0  0
  186.0290  178.5770  141.3510 N   0  0  0  0  0  2  0  0  0  0  0  0
  188.5380  178.5820  138.4810 C   0  0  0  0  0  1  0  0  0  0  0  0
  188.1110  178.6430  139.9390 C   0  0  2  0  0  3  0  0  0  0  0  0
  188.7040  177.4830  140.7260 C   0  0  0  0  0  2  0  0  0  0  0  0
  191.1750  175.8400  138.7520 C   0  0  0  0  0  0  0  0  0  0  0  0
  192.9790  176.3670  137.5910 C   0  0  0  0  0  0  0  0  0  0  0  0
  191.6770  175.6560  137.5460 C   0  0  0  0  0  3  0  0  0  0  0  0
  189.8220  175.9960  139.1330 N   0  0  0  0  0  0  0  0  0  0  0  0
  189.9080  176.9330  140.0370 C   0  0  0  0  0  0  0  0  0  0  0  0
  193.1450  177.0680  138.7220 C   0  0  0  0  0  3  0  0  0  0  0  0
  191.2260  177.4950  140.2150 N   0  0  0  0  0  2  0  0  0  0  0  0
  191.9610  176.7330  139.4840 C   0  0  1  0  0  3  0  0  0  0  0  0
  193.9670  176.3620  136.4760 C   0  0  0  0  0  2  0  0  0  0  0  0
  196.8720  174.1550  135.9110 C   0  0  0  0  0  2  0  0  0  0  0  0
  194.7500  174.5090  137.7170 C   0  0  2  0  0  3  0  0  0  0  0  0
  195.1700  175.6520  136.8810 N   0  0  0  0  0  0  0  0  0  0  0  0
  195.5490  174.4880  139.0110 C   0  0  0  0  0  1  0  0  0  0  0  0
  194.7980  173.1390  137.0140 C   0  0  0  0  0  2  0  0  0  0  0  0
  195.8760  175.2770  135.6500 C   0  0  0  0  0  2  0  0  0  0  0  0
  196.1140  172.8800  136.2680 C   0  0  2  0  0  3  0  0  0  0  0  0
  196.9870  171.9130  137.0010 C   0  0  0  0  0  0  0  0  0  0  0  0
  198.3390  172.1910  137.1520 O   0  0  0  0  0  0  0  0  0  0  0  0
  196.5120  170.8470  137.4740 O   0  0  0  0  0  1  0  0  0  0  0  0
  183.7000  177.8080  140.8040 C   0  0  0  0  0  0  0  0  0  0  0  0
  182.9310  177.2240  140.0830 C   0  0  0  0  0  0  0  0  0  0  0  0
  179.4430  173.7340  137.2910 C   0  0  0  0  0  2  0  0  0  0  0  0
  180.7090  176.6570  139.3840 C   0  0  0  0  0  3  0  0  0  0  0  0
  182.5340  174.4080  135.7630 F   0  0  0  0  0  0  0  0  0  0  0  0
  180.4660  173.3130  136.2730 C   0  0  0  0  0  0  0  0  0  0  0  0
  182.5540  175.6280  138.1380 C   0  0  0  0  0  2  0  0  0  0  0  0
  182.0230  176.5250  139.2190 C   0  0  0  0  0  0  0  0  0  0  0  0
  180.0900  173.6580  134.8460 C   0  0  0  0  0  2  0  0  0  0  0  0
  180.2380  174.4490  138.3720 C   0  0  2  0  0  3  0  0  0  0  0  0
  180.1260  172.2050  135.2980 C   0  0  0  0  0  2  0  0  0  0  0  0
  179.7740  175.9030  138.4890 C   0  0  0  0  0  2  0  0  0  0  0  0
  181.7540  174.3110  138.0480 C   0  0  1  0  0  3  0  0  0  0  0  0
  181.9040  173.5950  136.6960 C   0  0  2  0  0  0  0  0  0  0  0  0
  182.7340  172.3120  136.8590 C   0  0  0  0  0  2  0  0  0  0  0  0
  184.1950  172.5120  136.5980 C   0  0  0  0  0  3  0  0  0  0  0  0
  185.0440  172.6220  137.6130 C   0  0  0  0  0  2  0  0  0  0  0  0
  185.0330  179.7570  143.7680 C   0  0  0  0  0  2  0  0  0  0  0  0
  187.7760  177.7830  145.5050 C   0  0  0  0  0  0  0  0  0  0  0  0
  189.0680  176.7570  145.2290 S   0  0  0  0  0  0  0  0  0  0  0  0
  188.9080  177.8760  147.4280 C   0  0  0  0  0  0  0  0  0  0  0  0
  189.7400  176.9790  146.7590 C   0  0  0  0  0  3  0  0  0  0  0  0
  185.1450  177.5090  146.7010 O   0  0  0  0  0  1  0  0  0  0  0  0
  189.1810  178.3230  148.8190 C   0  0  0  0  0  1  0  0  0  0  0  0
  184.8080  178.4890  145.7970 N   0  0  0  0  0  0  0  0  0  0  0  0
  186.7940  178.1180  144.5200 N   0  0  0  0  0  2  0  0  0  0  0  0
  187.8280  178.3280  146.7360 N   0  0  0  0  0  0  0  0  0  0  0  0
  185.5560  178.7930  144.7800 C   0  0  0  0  0  0  0  0  0  0  0  0
  1 45  1  0  0  0  0
  2  1  2  0  0  0  0
  3  5  1  0  0  0  0
  4  3  2  0  0  0  0
  5  2  1  0  0  0  0
  7  6  1  6  0  0  0
  7  3  1  0  0  0  0
  7  8  1  0  0  0  0
  9 12  1  0  0  0  0
  9 16  1  0  0  0  0
 10 14  2  0  0  0  0
 11 10  1  0  0  0  0
 11  9  2  0  0  0  0
 12 13  2  0  0  0  0
 13 15  1  0  0  0  0
 13  8  1  0  0  0  0
 16 14  1  6  0  0  0
 16 15  1  0  0  0  0
 17 20  1  0  0  0  0
 17 10  1  0  0  0  0
 18 24  1  0  0  0  0
 19 21  1  1  0  0  0
 20 19  1  0  0  0  0
 22 19  1  0  0  0  0
 23 18  1  0  0  0  0
 23 20  1  0  0  0  0
 24 25  1  1  0  0  0
 24 22  1  0  0  0  0
 25 26  2  0  0  0  0
 25 27  1  0  0  0  0
 28  2  1  0  0  0  0
 29 28  3  0  0  0  0
 33 41  1  0  0  0  0
 33 30  1  0  0  0  0
 34 35  1  0  0  0  0
 35 31  2  0  0  0  0
 35 29  1  0  0  0  0
 36 38  1  0  0  0  0
 36 33  1  0  0  0  0
 37 30  1  6  0  0  0
 37 39  1  0  0  0  0
 38 33  1  0  0  0  0
 39 31  1  0  0  0  0
 40 34  1  6  0  0  0
 40 37  1  0  0  0  0
 41 32  1  6  0  0  0
 41 42  1  0  0  0  0
 41 40  1  0  0  0  0
 43 42  1  0  0  0  0
 43 44  2  0  0  0  0
 45 55  1  0  0  0  0
 46 54  2  0  0  0  0
 47 46  1  0  0  0  0
 47 49  1  0  0  0  0
 48 51  1  0  0  0  0
 49 48  2  0  0  0  0
 52 50  1  0  0  0  0
 53 55  1  0  0  0  0
 53 46  1  0  0  0  0
 54 48  1  0  0  0  0
 55 52  2  0  0  0  0
M  END
>  <MODEL>
7

>  <REMARK>
 VINA RESULT:      -6.4      3.949      8.330
  Name = 
  13 active torsions:
  status: ('A' for Active; 'I' for Inactive)
    1  A    between atoms: C_5  and  C_28
    2  A    between atoms: C_11  and  C_55
    3  A    between atoms: C_12  and  C_33
    4  A    between atoms: C_13  and  C_54
    5  A    between atoms: C_14  and  C_16
    6  A    between atoms: C_14  and  N_17
    7  A    between atoms: C_18  and  C_37
    8  A    between atoms: C_18  and  N_39
    9  A    between atoms: C_24  and  C_47
   10  A    between atoms: C_28  and  C_53
   11  A    between atoms: C_31  and  C_40
   12  A    between atoms: C_33  and  C_43
   13  A    between atoms: C_47  and  C_54
                            x       y       z     vdW  Elec       q    Type
                         _______ _______ _______ _____ _____    ______ ____

>  <TORSDO>
F 13

$$$$
=
 OpenBabel10222417053D

 55 61  0  0  1  0  0  0  0  0999 V2000
  184.4080  178.2820  141.1080 C   0  0  0  0  0  3  0  0  0  0  0  0
  184.3830  178.0140  139.8020 C   0  0  0  0  0  0  0  0  0  0  0  0
  185.9770  177.9890  137.7880 C   0  0  0  0  0  0  0  0  0  0  0  0
  185.6500  176.8310  137.4110 O   0  0  0  0  0  0  0  0  0  0  0  0
  185.3620  178.6010  138.9280 N   0  0  0  0  0  2  0  0  0  0  0  0
  187.0300  178.3560  135.5780 C   0  0  0  0  0  1  0  0  0  0  0  0
  187.0270  178.7480  137.0470 C   0  0  2  0  0  3  0  0  0  0  0  0
  188.3930  178.5070  137.6750 C   0  0  0  0  0  2  0  0  0  0  0  0
  190.1630  176.0100  135.8490 C   0  0  0  0  0  0  0  0  0  0  0  0
  191.5430  174.3330  136.2580 C   0  0  0  0  0  0  0  0  0  0  0  0
  191.3390  175.5630  135.4510 C   0  0  0  0  0  3  0  0  0  0  0  0
  189.7220  177.3480  135.9750 N   0  0  0  0  0  0  0  0  0  0  0  0
  189.0420  177.2990  137.0880 C   0  0  0  0  0  0  0  0  0  0  0  0
  190.5990  174.1690  137.1960 C   0  0  0  0  0  3  0  0  0  0  0  0
  189.0860  176.0310  137.7790 N   0  0  0  0  0  2  0  0  0  0  0  0
  189.6960  175.2710  136.9380 C   0  0  1  0  0  3  0  0  0  0  0  0
  192.7050  173.4150  136.0920 C   0  0  0  0  0  2  0  0  0  0  0  0
  196.3800  173.7540  136.1760 C   0  0  0  0  0  2  0  0  0  0  0  0
  194.1190  174.3860  137.7190 C   0  0  2  0  0  3  0  0  0  0  0  0
  193.9470  174.1490  136.2710 N   0  0  0  0  0  0  0  0  0  0  0  0
  194.4230  175.8540  137.9740 C   0  0  0  0  0  1  0  0  0  0  0  0
  195.1550  173.4780  138.4070 C   0  0  0  0  0  2  0  0  0  0  0  0
  195.0100  173.3400  135.6590 C   0  0  0  0  0  2  0  0  0  0  0  0
  196.4910  173.3950  137.6550 C   0  0  2  0  0  3  0  0  0  0  0  0
  197.5600  174.1910  138.3310 C   0  0  0  0  0  0  0  0  0  0  0  0
  198.7650  174.4130  137.6780 O   0  0  0  0  0  0  0  0  0  0  0  0
  197.3830  174.6540  139.4900 O   0  0  0  0  0  1  0  0  0  0  0  0
  183.3710  177.1160  139.3130 C   0  0  0  0  0  0  0  0  0  0  0  0
  182.5300  176.3610  138.8950 C   0  0  0  0  0  0  0  0  0  0  0  0
  178.9460  172.1810  137.5410 C   0  0  0  0  0  2  0  0  0  0  0  0
  180.3000  175.4790  138.8900 C   0  0  0  0  0  3  0  0  0  0  0  0
  181.4210  172.9510  135.1680 F   0  0  0  0  0  0  0  0  0  0  0  0
  179.7200  171.7310  136.3340 C   0  0  0  0  0  0  0  0  0  0  0  0
  181.8860  174.4820  137.3060 C   0  0  0  0  0  2  0  0  0  0  0  0
  181.5340  175.4600  138.3890 C   0  0  0  0  0  0  0  0  0  0  0  0
  178.9470  171.8360  135.0350 C   0  0  0  0  0  2  0  0  0  0  0  0
  179.8890  173.1160  138.2840 C   0  0  2  0  0  3  0  0  0  0  0  0
  179.2940  170.4700  135.6110 C   0  0  0  0  0  2  0  0  0  0  0  0
  179.2780  174.5170  138.3680 C   0  0  0  0  0  2  0  0  0  0  0  0
  181.2740  173.0910  137.5760 C   0  0  1  0  0  3  0  0  0  0  0  0
  181.1680  172.2140  136.3180 C   0  0  2  0  0  0  0  0  0  0  0  0
  182.1760  171.0580  136.3840 C   0  0  0  0  0  2  0  0  0  0  0  0
  183.1950  171.0950  135.2870 C   0  0  0  0  0  3  0  0  0  0  0  0
  184.4210  171.5440  135.5320 C   0  0  0  0  0  2  0  0  0  0  0  0
  185.4420  179.1610  141.7390 C   0  0  0  0  0  2  0  0  0  0  0  0
  189.0080  177.8620  141.9080 C   0  0  0  0  0  0  0  0  0  0  0  0
  190.2220  177.1560  140.9980 S   0  0  0  0  0  0  0  0  0  0  0  0
  190.8320  178.2080  143.1510 C   0  0  0  0  0  0  0  0  0  0  0  0
  191.4430  177.5240  142.1000 C   0  0  0  0  0  3  0  0  0  0  0  0
  187.3000  176.9960  144.0900 O   0  0  0  0  0  1  0  0  0  0  0  0
  191.5970  178.7050  144.3240 C   0  0  0  0  0  1  0  0  0  0  0  0
  186.4050  177.8750  143.5260 N   0  0  0  0  0  0  0  0  0  0  0  0
  187.6460  177.9650  141.4850 N   0  0  0  0  0  2  0  0  0  0  0  0
  189.4900  178.4030  143.0440 N   0  0  0  0  0  0  0  0  0  0  0  0
  186.5440  178.3410  142.3220 C   0  0  0  0  0  0  0  0  0  0  0  0
  1 45  1  0  0  0  0
  2  1  2  0  0  0  0
  3  5  1  0  0  0  0
  4  3  2  0  0  0  0
  5  2  1  0  0  0  0
  7  6  1  6  0  0  0
  7  8  1  0  0  0  0
  7  3  1  0  0  0  0
  9 12  1  0  0  0  0
  9 16  1  0  0  0  0
 10 14  2  0  0  0  0
 11  9  2  0  0  0  0
 11 10  1  0  0  0  0
 12 13  2  0  0  0  0
 13  8  1  0  0  0  0
 13 15  1  0  0  0  0
 16 14  1  1  0  0  0
 16 15  1  0  0  0  0
 17 10  1  0  0  0  0
 17 20  1  0  0  0  0
 18 24  1  0  0  0  0
 19 21  1  6  0  0  0
 19 22  1  0  0  0  0
 20 19  1  0  0  0  0
 23 18  1  0  0  0  0
 23 20  1  0  0  0  0
 24 25  1  1  0  0  0
 24 22  1  0  0  0  0
 25 27  1  0  0  0  0
 26 25  2  0  0  0  0
 28  2  1  0  0  0  0
 29 28  3  0  0  0  0
 33 30  1  0  0  0  0
 34 35  1  0  0  0  0
 35 31  2  0  0  0  0
 35 29  1  0  0  0  0
 36 38  1  0  0  0  0
 36 33  1  0  0  0  0
 37 30  1  6  0  0  0
 37 39  1  0  0  0  0
 38 33  1  0  0  0  0
 39 31  1  0  0  0  0
 40 34  1  6  0  0  0
 40 37  1  0  0  0  0
 41 32  1  6  0  0  0
 41 33  1  0  0  0  0
 41 42  1  0  0  0  0
 41 40  1  0  0  0  0
 43 44  2  0  0  0  0
 43 42  1  0  0  0  0
 45 55  1  0  0  0  0
 46 54  2  0  0  0  0
 47 46  1  0  0  0  0
 47 49  1  0  0  0  0
 48 51  1  0  0  0  0
 49 48  2  0  0  0  0
 52 50  1  0  0  0  0
 53 46  1  0  0  0  0
 53 55  1  0  0  0  0
 54 48  1  0  0  0  0
 55 52  2  0  0  0  0
M  END
>  <MODEL>
8

>  <REMARK>
 VINA RESULT:      -6.4      3.827      8.339
  Name = 
  13 active torsions:
  status: ('A' for Active; 'I' for Inactive)
    1  A    between atoms: C_5  and  C_28
    2  A    between atoms: C_11  and  C_55
    3  A    between atoms: C_12  and  C_33
    4  A    between atoms: C_13  and  C_54
    5  A    between atoms: C_14  and  C_16
    6  A    between atoms: C_14  and  N_17
    7  A    between atoms: C_18  and  C_37
    8  A    between atoms: C_18  and  N_39
    9  A    between atoms: C_24  and  C_47
   10  A    between atoms: C_28  and  C_53
   11  A    between atoms: C_31  and  C_40
   12  A    between atoms: C_33  and  C_43
   13  A    between atoms: C_47  and  C_54
                            x       y       z     vdW  Elec       q    Type
                         _______ _______ _______ _____ _____    ______ ____

>  <TORSDO>
F 13

$$$$
=
 OpenBabel10222417053D

 55 61  0  0  1  0  0  0  0  0999 V2000
  180.0870  177.6350  141.9620 C   0  0  0  0  0  3  0  0  0  0  0  0
  181.1640  178.4010  141.7900 C   0  0  0  0  0  0  0  0  0  0  0  0
  180.6000  180.5080  140.4340 C   0  0  0  0  0  0  0  0  0  0  0  0
  179.8670  181.0130  141.3270 O   0  0  0  0  0  0  0  0  0  0  0  0
  181.2650  179.2550  140.6390 N   0  0  0  0  0  2  0  0  0  0  0  0
  180.1650  180.4090  137.9990 C   0  0  0  0  0  1  0  0  0  0  0  0
  180.7860  181.2120  139.1310 C   0  0  2  0  0  3  0  0  0  0  0  0
  182.2660  181.4600  138.8720 C   0  0  0  0  0  2  0  0  0  0  0  0
  183.5290  178.2490  137.9810 C   0  0  0  0  0  0  0  0  0  0  0  0
  185.4390  177.3490  137.3300 C   0  0  0  0  0  0  0  0  0  0  0  0
  183.9940  177.4770  137.0170 C   0  0  0  0  0  3  0  0  0  0  0  0
  182.4980  179.2150  137.9220 N   0  0  0  0  0  0  0  0  0  0  0  0
  182.9900  180.1740  138.6570 C   0  0  0  0  0  0  0  0  0  0  0  0
  185.8210  178.1450  138.3390 C   0  0  0  0  0  3  0  0  0  0  0  0
  184.3400  179.9580  139.1240 N   0  0  0  0  0  2  0  0  0  0  0  0
  184.5740  178.7440  138.7650 C   0  0  1  0  0  3  0  0  0  0  0  0
  186.3810  176.4820  136.5670 C   0  0  0  0  0  2  0  0  0  0  0  0
  189.9190  176.9230  135.6100 C   0  0  0  0  0  2  0  0  0  0  0  0
  188.3640  176.0130  137.7650 C   0  0  2  0  0  3  0  0  0  0  0  0
  187.7490  176.9270  136.7810 N   0  0  0  0  0  0  0  0  0  0  0  0
  189.0270  176.8120  138.8760 C   0  0  0  0  0  1  0  0  0  0  0  0
  189.3370  174.9780  137.1700 C   0  0  0  0  0  2  0  0  0  0  0  0
  188.4040  176.9320  135.4670 C   0  0  0  0  0  2  0  0  0  0  0  0
  190.3610  175.5870  136.2020 C   0  0  2  0  0  3  0  0  0  0  0  0
  191.7180  175.6870  136.8200 C   0  0  0  0  0  0  0  0  0  0  0  0
  191.9580  175.0820  138.0470 O   0  0  0  0  0  1  0  0  0  0  0  0
  192.6430  176.3210  136.2460 O   0  0  0  0  0  0  0  0  0  0  0  0
  182.1950  178.3570  142.7930 C   0  0  0  0  0  0  0  0  0  0  0  0
  183.0580  178.3090  143.6330 C   0  0  0  0  0  0  0  0  0  0  0  0
  187.4040  178.8860  147.2290 C   0  0  0  0  0  2  0  0  0  0  0  0
  183.8510  178.7120  145.8600 C   0  0  0  0  0  3  0  0  0  0  0  0
  187.7060  176.3640  144.8010 F   0  0  0  0  0  0  0  0  0  0  0  0
  188.3200  177.9620  146.4760 C   0  0  0  0  0  0  0  0  0  0  0  0
  185.4260  177.6600  144.3010 C   0  0  0  0  0  2  0  0  0  0  0  0
  184.0830  178.2420  144.6360 C   0  0  0  0  0  0  0  0  0  0  0  0
  188.7630  176.7520  147.2730 C   0  0  0  0  0  2  0  0  0  0  0  0
  186.2500  179.1540  146.2760 C   0  0  2  0  0  3  0  0  0  0  0  0
  189.7660  177.8380  146.9120 C   0  0  0  0  0  2  0  0  0  0  0  0
  184.9370  178.6580  146.8880 C   0  0  0  0  0  2  0  0  0  0  0  0
  186.5740  178.4970  144.9030 C   0  0  1  0  0  3  0  0  0  0  0  0
  187.8960  177.7200  145.0300 C   0  0  2  0  0  0  0  0  0  0  0  0
  188.9240  178.2440  144.0170 C   0  0  0  0  0  2  0  0  0  0  0  0
  189.8900  177.1970  143.5550 C   0  0  0  0  0  3  0  0  0  0  0  0
  189.6310  176.4880  142.4630 C   0  0  0  0  0  2  0  0  0  0  0  0
  178.9310  177.6320  141.0120 C   0  0  0  0  0  2  0  0  0  0  0  0
  179.9460  176.1450  137.6660 C   0  0  0  0  0  0  0  0  0  0  0  0
  179.8130  176.3540  136.0110 S   0  0  0  0  0  0  0  0  0  0  0  0
  181.5800  174.8490  136.8660 C   0  0  0  0  0  0  0  0  0  0  0  0
  181.0900  175.3150  135.6460 C   0  0  0  0  0  3  0  0  0  0  0  0
  178.9310  174.2200  139.5880 O   0  0  0  0  0  1  0  0  0  0  0  0
  182.7240  173.9040  136.9500 C   0  0  0  0  0  1  0  0  0  0  0  0
  178.9610  175.2970  140.4420 N   0  0  0  0  0  0  0  0  0  0  0  0
  179.1500  176.8420  138.6280 N   0  0  0  0  0  2  0  0  0  0  0  0
  180.9570  175.3110  137.9820 N   0  0  0  0  0  0  0  0  0  0  0  0
  179.0660  176.5220  140.0230 C   0  0  0  0  0  0  0  0  0  0  0  0
  2  1  2  0  0  0  0
  2 28  1  0  0  0  0
  3  5  1  0  0  0  0
  3  4  2  0  0  0  0
  5  2  1  0  0  0  0
  7  6  1  6  0  0  0
  7  3  1  0  0  0  0
  8  7  1  0  0  0  0
  9 16  1  0  0  0  0
 10 14  2  0  0  0  0
 11 10  1  0  0  0  0
 11  9  2  0  0  0  0
 12  9  1  0  0  0  0
 12 13  2  0  0  0  0
 13  8  1  0  0  0  0
 13 15  1  0  0  0  0
 16 14  1  6  0  0  0
 16 15  1  0  0  0  0
 17 20  1  0  0  0  0
 17 10  1  0  0  0  0
 18 24  1  0  0  0  0
 19 21  1  1  0  0  0
 20 19  1  0  0  0  0
 22 19  1  0  0  0  0
 23 18  1  0  0  0  0
 23 20  1  0  0  0  0
 24 25  1  1  0  0  0
 24 22  1  0  0  0  0
 25 26  1  0  0  0  0
 27 25  2  0  0  0  0
 28 29  3  0  0  0  0
 29 35  1  0  0  0  0
 31 39  1  0  0  0  0
 33 38  1  0  0  0  0
 33 30  1  0  0  0  0
 33 36  1  0  0  0  0
 34 35  1  0  0  0  0
 35 31  2  0  0  0  0
 37 39  1  1  0  0  0
 37 30  1  0  0  0  0
 38 36  1  0  0  0  0
 40 34  1  1  0  0  0
 40 41  1  0  0  0  0
 40 37  1  0  0  0  0
 41 32  1  6  0  0  0
 41 33  1  0  0  0  0
 42 41  1  0  0  0  0
 43 42  1  0  0  0  0
 44 43  2  0  0  0  0
 45  1  1  0  0  0  0
 46 54  2  0  0  0  0
 46 53  1  0  0  0  0
 47 46  1  0  0  0  0
 48 51  1  0  0  0  0
 48 54  1  0  0  0  0
 49 47  1  0  0  0  0
 49 48  2  0  0  0  0
 50 52  1  0  0  0  0
 53 55  1  0  0  0  0
 55 52  2  0  0  0  0
 55 45  1  0  0  0  0
M  END
>  <MODEL>
9

>  <REMARK>
 VINA RESULT:      -6.3      2.404      4.973
  Name = 
  13 active torsions:
  status: ('A' for Active; 'I' for Inactive)
    1  A    between atoms: C_5  and  C_28
    2  A    between atoms: C_11  and  C_55
    3  A    between atoms: C_12  and  C_33
    4  A    between atoms: C_13  and  C_54
    5  A    between atoms: C_14  and  C_16
    6  A    between atoms: C_14  and  N_17
    7  A    between atoms: C_18  and  C_37
    8  A    between atoms: C_18  and  N_39
    9  A    between atoms: C_24  and  C_47
   10  A    between atoms: C_28  and  C_53
   11  A    between atoms: C_31  and  C_40
   12  A    between atoms: C_33  and  C_43
   13  A    between atoms: C_47  and  C_54
                            x       y       z     vdW  Elec       q    Type
                         _______ _______ _______ _____ _____    ______ ____

>  <TORSDO>
F 13

$$$$
