=
 OpenBabel10222415553D

 70 79  0  0  1  0  0  0  0  0999 V2000
  185.0850  177.1770  136.8650 C   0  0  2  0  0  3  0  0  0  0  0  0
  185.1290  175.7990  136.2420 C   0  0  0  0  0  2  0  0  0  0  0  0
  186.5700  175.5920  135.8750 C   0  0  1  0  0  3  0  0  0  0  0  0
  187.5590  176.1040  137.3080 S   0  0  0  0  0  0  0  0  0  0  0  0
  186.2530  177.2630  137.8390 C   0  0  1  0  0  3  0  0  0  0  0  0
  183.7580  177.4460  137.5720 C   0  0  0  0  0  2  0  0  0  0  0  0
  183.8320  177.0650  139.0440 C   0  0  1  0  0  3  0  0  0  0  0  0
  183.8870  178.2080  139.8270 F   0  0  0  0  0  0  0  0  0  0  0  0
  182.6200  176.2260  139.4270 C   0  0  0  0  0  2  0  0  0  0  0  0
  181.4330  176.7550  138.8390 O   0  0  0  0  0  0  0  0  0  0  0  0
  180.2580  176.9850  139.5620 C   0  0  0  0  0  0  0  0  0  0  0  0
  179.8430  176.1380  140.3980 O   0  0  0  0  0  0  0  0  0  0  0  0
  180.6470  178.3430  137.2250 O   0  0  0  0  0  1  0  0  0  0  0  0
  180.9920  179.5810  140.7420 O   0  0  0  0  0  0  0  0  0  0  0  0
  180.4610  180.3320  138.5350 C   0  0  2  0  0  3  0  0  0  0  0  0
  179.8060  179.0430  138.0920 C   0  0  2  0  0  3  0  0  0  0  0  0
  179.4900  178.2630  139.3680 C   0  0  2  0  0  3  0  0  0  0  0  0
  180.1970  180.4940  140.0270 C   0  0  1  0  0  3  0  0  0  0  0  0
  179.6440  179.2190  140.5500 C   0  0  2  0  0  3  0  0  0  0  0  0
  181.6940  183.2550  136.9460 C   0  0  0  0  0  2  0  0  0  0  0  0
  179.0270  183.9240  137.8230 C   0  0  0  0  0  2  0  0  0  0  0  0
  179.2430  183.7990  136.3110 C   0  0  2  0  0  3  0  0  0  0  0  0
  180.9870  181.9360  136.6560 C   0  0  1  0  0  3  0  0  0  0  0  0
  179.4210  182.6690  138.6100 C   0  0  0  0  0  2  0  0  0  0  0  0
  179.9450  181.5230  137.7220 C   0  0  2  0  0  3  0  0  0  0  0  0
  180.6060  183.1980  135.8830 C   0  0  2  0  0  3  0  0  0  0  0  0
  179.3530  186.1760  136.5570 O   0  0  0  0  0  1  0  0  0  0  0  0
  179.0280  185.1540  135.6610 C   0  0  0  0  0  2  0  0  0  0  0  0
  186.8270  174.1470  135.4740 C   0  0  0  0  0  2  0  0  0  0  0  0
  186.4410  173.1760  136.5880 C   0  0  0  0  0  2  0  0  0  0  0  0
  183.4610  173.5510  135.7390 C   0  0  1  0  0  3  0  0  0  0  0  0
  182.4380  172.7970  134.8490 C   0  0  1  0  0  3  0  0  0  0  0  0
  183.0010  173.7350  137.0480 O   0  0  0  0  0  1  0  0  0  0  0  0
  185.6910  171.9640  136.0390 C   0  0  2  0  0  3  0  0  0  0  0  0
  183.3170  171.5310  134.8070 C   0  0  0  0  0  2  0  0  0  0  0  0
  184.3150  172.3120  135.6070 C   0  0  2  0  0  0  0  0  0  0  0  0
  184.5700  171.6830  136.8450 O   0  0  0  0  0  0  0  0  0  0  0  0
  181.0340  172.6100  135.4530 C   0  0  1  0  0  3  0  0  0  0  0  0
  180.9580  171.4100  136.3390 C   0  0  0  0  0  0  0  0  0  0  0  0
  181.0500  170.1250  135.8100 O   0  0  0  0  0  0  0  0  0  0  0  0
  180.8350  171.5620  137.5800 O   0  0  0  0  0  1  0  0  0  0  0  0
  179.6610  174.8300  134.6170 C   0  0  0  0  0  1  0  0  0  0  0  0
  180.2280  174.1010  136.1820 S   0  0  0  0  0  0  0  0  0  0  0  0
  186.8070  178.6770  137.8410 C   0  0  0  0  0  2  0  0  0  0  0  0
  188.2590  178.6370  137.8810 N   0  0  0  0  0  2  0  0  0  0  0  0
  191.9450  177.8590  143.5130 S   0  0  0  0  0  0  0  0  0  0  0  0
  188.5290  176.9540  142.5310 N   0  0  0  0  0  2  0  0  0  0  0  0
  190.8660  177.5390  144.9190 C   0  0  2  0  0  3  0  0  0  0  0  0
  189.7440  176.9710  144.6320 N   0  0  0  0  0  2  0  0  0  0  0  0
  190.8900  176.7260  142.5420 C   0  0  1  0  0  3  0  0  0  0  0  0
  190.4080  178.0970  138.9870 C   0  0  0  0  0  3  0  0  0  0  0  0
  189.6470  176.5920  143.2960 N   0  0  2  0  0  0  0  0  0  0  0  0
  191.1280  177.6520  140.1100 C   0  0  0  0  0  3  0  0  0  0  0  0
  188.3010  177.8170  140.1860 C   0  0  0  0  0  3  0  0  0  0  0  0
  190.4110  177.3070  141.2540 C   0  0  0  0  0  0  0  0  0  0  0  0
  189.0390  177.3730  141.2800 C   0  0  0  0  0  0  0  0  0  0  0  0
  188.9970  178.1790  139.0190 C   0  0  0  0  0  0  0  0  0  0  0  0
  191.1520  178.0000  146.3180 C   0  0  0  0  0  2  0  0  0  0  0  0
  190.6270  177.0810  147.4300 C   0  0  2  0  0  3  0  0  0  0  0  0
  190.6930  174.6190  147.9200 O   0  0  0  0  0  1  0  0  0  0  0  0
  191.3370  175.7630  147.4640 C   0  0  0  0  0  0  0  0  0  0  0  0
  192.5410  175.6980  147.1070 O   0  0  0  0  0  0  0  0  0  0  0  0
  189.1050  176.9320  147.4710 C   0  0  0  0  0  2  0  0  0  0  0  0
  188.1620  178.3320  149.2810 C   0  0  0  0  0  1  0  0  0  0  0  0
  188.4300  178.2570  147.7910 C   0  0  2  0  0  3  0  0  0  0  0  0
  186.9770  177.7260  145.8920 C   0  0  0  0  0  3  0  0  0  0  0  0
  187.1470  178.3740  147.0380 C   0  0  0  0  0  3  0  0  0  0  0  0
  184.6680  178.2270  145.6630 O   0  0  0  0  0  0  0  0  0  0  0  0
  185.7400  177.4690  143.6850 C   0  0  0  0  0  1  0  0  0  0  0  0
  185.7340  177.8270  145.1230 C   0  0  0  0  0  0  0  0  0  0  0  0
  1  6  1  1  0  0  0
  1  5  1  0  0  0  0
  2  1  1  0  0  0  0
  3 29  1  1  0  0  0
  3  2  1  0  0  0  0
  3  4  1  0  0  0  0
  4  5  1  0  0  0  0
  5 44  1  6  0  0  0
  6  7  1  0  0  0  0
  7  9  1  0  0  0  0
  7  8  1  1  0  0  0
 10  9  1  0  0  0  0
 10 11  1  0  0  0  0
 11 12  2  0  0  0  0
 15 25  1  6  0  0  0
 15 18  1  0  0  0  0
 16 13  1  6  0  0  0
 16 15  1  0  0  0  0
 16 17  1  0  0  0  0
 17 11  1  1  0  0  0
 17 19  1  0  0  0  0
 18 19  1  0  0  0  0
 18 14  1  1  0  0  0
 19 14  1  1  0  0  0
 21 24  1  0  0  0  0
 22 28  1  6  0  0  0
 22 21  1  0  0  0  0
 23 20  1  1  0  0  0
 23 25  1  0  0  0  0
 25 24  1  1  0  0  0
 26 22  1  0  0  0  0
 26 23  1  0  0  0  0
 26 20  1  1  0  0  0
 28 27  1  0  0  0  0
 29 30  1  0  0  0  0
 31 33  1  1  0  0  0
 32 38  1  1  0  0  0
 32 31  1  0  0  0  0
 34 30  1  1  0  0  0
 34 37  1  0  0  0  0
 35 32  1  0  0  0  0
 36 35  1  6  0  0  0
 36 31  1  0  0  0  0
 36 34  1  0  0  0  0
 36 37  1  0  0  0  0
 38 43  1  1  0  0  0
 38 39  1  0  0  0  0
 39 41  1  0  0  0  0
 40 39  2  0  0  0  0
 42 43  1  0  0  0  0
 44 45  1  0  0  0  0
 45 57  1  0  0  0  0
 46 48  1  0  0  0  0
 48 58  1  6  0  0  0
 49 48  1  0  0  0  0
 50 55  1  6  0  0  0
 50 52  1  0  0  0  0
 50 46  1  0  0  0  0
 51 57  2  0  0  0  0
 51 53  1  0  0  0  0
 52 47  1  6  0  0  0
 52 49  1  0  0  0  0
 53 55  2  0  0  0  0
 54 56  2  0  0  0  0
 55 56  1  0  0  0  0
 56 47  1  0  0  0  0
 57 54  1  0  0  0  0
 59 58  1  6  0  0  0
 59 61  1  0  0  0  0
 59 63  1  0  0  0  0
 61 60  1  0  0  0  0
 62 61  2  0  0  0  0
 63 65  1  0  0  0  0
 65 64  1  1  0  0  0
 66 67  2  0  0  0  0
 67 65  1  0  0  0  0
 69 70  1  0  0  0  0
 70 68  2  0  0  0  0
 70 66  1  0  0  0  0
M  END
>  <MODEL>
1

>  <REMARK>
 VINA RESULT:      -5.8      0.000      0.000
  Name = 
  24 active torsions:
  status: ('A' for Active; 'I' for Inactive)
    1  A    between atoms: C_1  and  C_25
    2  A    between atoms: C_1  and  C_34
    3  A    between atoms: C_1  and  C_62
    4  A    between atoms: C_4  and  C_29
    5  A    between atoms: C_4  and  C_33
    6  A    between atoms: C_6  and  C_8
    7  A    between atoms: N_7  and  C_36
    8  A    between atoms: N_7  and  C_69
    9  A    between atoms: C_8  and  C_11
   10  A    between atoms: C_8  and  S_48
   11  A    between atoms: C_9  and  C_44
   12  A    between atoms: C_12  and  O_27
   13  A    between atoms: C_12  and  C_41
   14  A    between atoms: C_18  and  C_62
   15  A    between atoms: C_21  and  C_61
   16  A    between atoms: C_26  and  C_29
   17  A    between atoms: O_27  and  C_53
   18  A    between atoms: C_31  and  C_34
   19  A    between atoms: C_31  and  C_58
   20  A    between atoms: C_32  and  C_44
   21  A    between atoms: C_32  and  C_53
   22  A    between atoms: C_36  and  C_65
   23  A    between atoms: C_40  and  C_67
   24  A    between atoms: C_51  and  C_57
                            x       y       z     vdW  Elec       q    Type
                         _______ _______ _______ _____ _____    ______ ____

>  <TORSDO>
F 24

$$$$
=
 OpenBabel10222415553D

 70 79  0  0  1  0  0  0  0  0999 V2000
  185.2440  174.8530  136.8020 C   0  0  2  0  0  3  0  0  0  0  0  0
  186.6030  174.1970  136.9210 C   0  0  0  0  0  2  0  0  0  0  0  0
  187.5530  175.1670  136.2830 C   0  0  1  0  0  3  0  0  0  0  0  0
  187.1460  176.8120  136.9340 S   0  0  0  0  0  0  0  0  0  0  0  0
  185.4150  176.3080  137.2190 C   0  0  1  0  0  3  0  0  0  0  0  0
  184.1910  174.1550  137.6600 C   0  0  0  0  0  2  0  0  0  0  0  0
  183.4110  173.1290  136.8490 C   0  0  1  0  0  3  0  0  0  0  0  0
  183.6950  171.8500  137.3050 F   0  0  0  0  0  0  0  0  0  0  0  0
  181.9170  173.4040  136.9580 C   0  0  0  0  0  2  0  0  0  0  0  0
  181.3860  173.8160  135.6990 O   0  0  0  0  0  0  0  0  0  0  0  0
  180.0250  174.0500  135.4830 C   0  0  0  0  0  0  0  0  0  0  0  0
  179.3700  173.3310  134.6820 O   0  0  0  0  0  0  0  0  0  0  0  0
  180.3970  176.6070  134.5990 O   0  0  0  0  0  1  0  0  0  0  0  0
  180.9440  175.2090  138.0290 O   0  0  0  0  0  0  0  0  0  0  0  0
  180.3700  177.2390  136.9020 C   0  0  2  0  0  3  0  0  0  0  0  0
  179.6290  176.5730  135.7640 C   0  0  2  0  0  3  0  0  0  0  0  0
  179.3200  175.1500  136.2290 C   0  0  2  0  0  3  0  0  0  0  0  0
  180.1730  176.3790  138.1450 C   0  0  1  0  0  3  0  0  0  0  0  0
  179.5710  175.0850  137.7350 C   0  0  2  0  0  3  0  0  0  0  0  0
  181.6580  180.4110  137.8300 C   0  0  0  0  0  2  0  0  0  0  0  0
  178.9370  180.3770  138.7910 C   0  0  0  0  0  2  0  0  0  0  0  0
  179.2420  181.3200  137.6230 C   0  0  2  0  0  3  0  0  0  0  0  0
  180.9850  179.6780  136.6760 C   0  0  1  0  0  3  0  0  0  0  0  0
  179.3000  178.9130  138.5150 C   0  0  0  0  0  2  0  0  0  0  0  0
  179.8880  178.6770  137.1090 C   0  0  2  0  0  3  0  0  0  0  0  0
  180.6350  181.1360  136.9670 C   0  0  2  0  0  3  0  0  0  0  0  0
  179.7730  183.6230  137.2520 O   0  0  0  0  0  1  0  0  0  0  0  0
  179.0500  182.7560  138.0760 C   0  0  0  0  0  2  0  0  0  0  0  0
  188.9970  174.7720  136.5540 C   0  0  0  0  0  2  0  0  0  0  0  0
  189.9590  175.9250  136.2750 C   0  0  0  0  0  2  0  0  0  0  0  0
  192.7510  174.8230  137.1300 C   0  0  1  0  0  3  0  0  0  0  0  0
  193.9020  174.0250  136.4620 C   0  0  1  0  0  3  0  0  0  0  0  0
  193.1830  176.0400  137.6700 O   0  0  0  0  0  1  0  0  0  0  0  0
  190.9590  175.5670  135.1770 C   0  0  2  0  0  3  0  0  0  0  0  0
  193.3410  174.2830  135.0500 C   0  0  0  0  0  2  0  0  0  0  0  0
  192.2060  174.9850  135.7300 C   0  0  2  0  0  0  0  0  0  0  0  0
  192.1310  176.3340  135.3210 O   0  0  0  0  0  0  0  0  0  0  0  0
  195.3240  174.5580  136.7190 C   0  0  1  0  0  3  0  0  0  0  0  0
  195.8840  174.0660  138.0130 C   0  0  0  0  0  0  0  0  0  0  0  0
  196.2520  172.7310  138.1700 O   0  0  0  0  0  0  0  0  0  0  0  0
  196.0480  174.8700  138.9640 O   0  0  0  0  0  1  0  0  0  0  0  0
  197.2600  176.0980  135.5410 C   0  0  0  0  0  1  0  0  0  0  0  0
  196.5250  174.4510  135.3230 S   0  0  0  0  0  0  0  0  0  0  0  0
  184.4940  177.1840  136.3880 C   0  0  0  0  0  2  0  0  0  0  0  0
  183.8890  178.2020  137.2300 N   0  0  0  0  0  2  0  0  0  0  0  0
  185.0320  176.9420  143.7890 S   0  0  0  0  0  0  0  0  0  0  0  0
  185.5330  179.8450  141.6040 N   0  0  0  0  0  2  0  0  0  0  0  0
  186.2130  178.1300  144.4510 C   0  0  2  0  0  3  0  0  0  0  0  0
  186.2300  179.2750  143.8590 N   0  0  0  0  0  2  0  0  0  0  0  0
  184.2460  178.3320  142.9010 C   0  0  1  0  0  3  0  0  0  0  0  0
  183.1770  177.2130  139.3860 C   0  0  0  0  0  3  0  0  0  0  0  0
  185.2260  179.4140  142.9030 N   0  0  2  0  0  0  0  0  0  0  0  0
  183.2300  177.1730  140.7910 C   0  0  0  0  0  3  0  0  0  0  0  0
  184.7570  179.0720  139.3470 C   0  0  0  0  0  3  0  0  0  0  0  0
  184.0600  178.0840  141.4410 C   0  0  0  0  0  0  0  0  0  0  0  0
  184.7860  179.0140  140.7380 C   0  0  0  0  0  0  0  0  0  0  0  0
  183.9350  178.1610  138.6610 C   0  0  0  0  0  0  0  0  0  0  0  0
  187.2130  177.8100  145.5220 C   0  0  0  0  0  2  0  0  0  0  0  0
  188.6670  178.1830  145.1940 C   0  0  2  0  0  3  0  0  0  0  0  0
  188.4730  176.3650  143.4720 O   0  0  0  0  0  0  0  0  0  0  0  0
  189.2090  177.3980  144.0390 C   0  0  0  0  0  0  0  0  0  0  0  0
  190.3590  177.6560  143.6000 O   0  0  0  0  0  1  0  0  0  0  0  0
  189.6110  178.1910  146.3970 C   0  0  0  0  0  2  0  0  0  0  0  0
  188.4470  177.9360  148.5670 C   0  0  0  0  0  1  0  0  0  0  0  0
  189.1640  177.1950  147.4560 C   0  0  2  0  0  3  0  0  0  0  0  0
  191.5440  176.6150  147.4560 C   0  0  0  0  0  3  0  0  0  0  0  0
  190.3460  176.4710  148.0090 C   0  0  0  0  0  3  0  0  0  0  0  0
  193.2020  174.9180  147.3600 O   0  0  0  0  0  0  0  0  0  0  0  0
  193.3660  176.3890  149.2160 C   0  0  0  0  0  1  0  0  0  0  0  0
  192.7220  175.9110  147.9690 C   0  0  0  0  0  0  0  0  0  0  0  0
  1  2  1  0  0  0  0
  1  5  1  0  0  0  0
  1  6  1  1  0  0  0
  3 29  1  1  0  0  0
  3  2  1  0  0  0  0
  3  4  1  0  0  0  0
  4  5  1  0  0  0  0
  5 44  1  6  0  0  0
  7  9  1  0  0  0  0
  7  8  1  1  0  0  0
  7  6  1  0  0  0  0
 10  9  1  0  0  0  0
 11 10  1  0  0  0  0
 12 11  2  0  0  0  0
 15 25  1  1  0  0  0
 15 18  1  0  0  0  0
 16 13  1  6  0  0  0
 16 17  1  0  0  0  0
 16 15  1  0  0  0  0
 17 11  1  6  0  0  0
 17 19  1  0  0  0  0
 18 14  1  6  0  0  0
 19 14  1  6  0  0  0
 19 18  1  0  0  0  0
 22 28  1  1  0  0  0
 22 21  1  0  0  0  0
 23 26  1  0  0  0  0
 23 25  1  0  0  0  0
 23 20  1  1  0  0  0
 24 21  1  0  0  0  0
 25 24  1  1  0  0  0
 26 22  1  0  0  0  0
 26 20  1  1  0  0  0
 27 28  1  0  0  0  0
 30 29  1  0  0  0  0
 31 33  1  6  0  0  0
 32 38  1  6  0  0  0
 32 31  1  0  0  0  0
 34 37  1  0  0  0  0
 34 36  1  0  0  0  0
 34 30  1  1  0  0  0
 35 32  1  0  0  0  0
 36 35  1  6  0  0  0
 36 31  1  0  0  0  0
 37 36  1  0  0  0  0
 38 43  1  6  0  0  0
 38 39  1  0  0  0  0
 39 40  2  0  0  0  0
 39 41  1  0  0  0  0
 43 42  1  0  0  0  0
 44 45  1  0  0  0  0
 45 57  1  0  0  0  0
 46 48  1  0  0  0  0
 48 58  1  6  0  0  0
 49 48  1  0  0  0  0
 50 55  1  6  0  0  0
 50 52  1  0  0  0  0
 50 46  1  0  0  0  0
 51 53  1  0  0  0  0
 52 47  1  6  0  0  0
 52 49  1  0  0  0  0
 53 55  2  0  0  0  0
 54 56  2  0  0  0  0
 56 55  1  0  0  0  0
 56 47  1  0  0  0  0
 57 54  1  0  0  0  0
 57 51  2  0  0  0  0
 59 58  1  1  0  0  0
 59 63  1  0  0  0  0
 60 61  2  0  0  0  0
 61 59  1  0  0  0  0
 62 61  1  0  0  0  0
 63 65  1  0  0  0  0
 65 67  1  0  0  0  0
 65 64  1  1  0  0  0
 66 70  1  0  0  0  0
 66 67  2  0  0  0  0
 68 70  2  0  0  0  0
 70 69  1  0  0  0  0
M  END
>  <MODEL>
2

>  <REMARK>
 VINA RESULT:      -4.9      3.927      6.944
  Name = 
  24 active torsions:
  status: ('A' for Active; 'I' for Inactive)
    1  A    between atoms: C_1  and  C_25
    2  A    between atoms: C_1  and  C_34
    3  A    between atoms: C_1  and  C_62
    4  A    between atoms: C_4  and  C_29
    5  A    between atoms: C_4  and  C_33
    6  A    between atoms: C_6  and  C_8
    7  A    between atoms: N_7  and  C_36
    8  A    between atoms: N_7  and  C_69
    9  A    between atoms: C_8  and  C_11
   10  A    between atoms: C_8  and  S_48
   11  A    between atoms: C_9  and  C_44
   12  A    between atoms: C_12  and  O_27
   13  A    between atoms: C_12  and  C_41
   14  A    between atoms: C_18  and  C_62
   15  A    between atoms: C_21  and  C_61
   16  A    between atoms: C_26  and  C_29
   17  A    between atoms: O_27  and  C_53
   18  A    between atoms: C_31  and  C_34
   19  A    between atoms: C_31  and  C_58
   20  A    between atoms: C_32  and  C_44
   21  A    between atoms: C_32  and  C_53
   22  A    between atoms: C_36  and  C_65
   23  A    between atoms: C_40  and  C_67
   24  A    between atoms: C_51  and  C_57
                            x       y       z     vdW  Elec       q    Type
                         _______ _______ _______ _____ _____    ______ ____

>  <TORSDO>
F 24

$$$$
=
 OpenBabel10222415553D

 70 79  0  0  1  0  0  0  0  0999 V2000
  184.6750  177.5390  136.4260 C   0  0  2  0  0  3  0  0  0  0  0  0
  184.7240  176.2530  135.6290 C   0  0  0  0  0  2  0  0  0  0  0  0
  186.1540  176.1290  135.1900 C   0  0  1  0  0  3  0  0  0  0  0  0
  187.1840  176.4770  136.6430 S   0  0  0  0  0  0  0  0  0  0  0  0
  185.8760  177.5270  137.3630 C   0  0  1  0  0  3  0  0  0  0  0  0
  183.3700  177.6830  137.2060 C   0  0  0  0  0  2  0  0  0  0  0  0
  183.5570  177.2970  138.6670 C   0  0  1  0  0  3  0  0  0  0  0  0
  183.6310  178.4380  139.4520 F   0  0  0  0  0  0  0  0  0  0  0  0
  182.4000  176.4200  139.1270 C   0  0  0  0  0  2  0  0  0  0  0  0
  181.1720  176.8620  138.5540 O   0  0  0  0  0  0  0  0  0  0  0  0
  180.0200  177.1090  139.3080 C   0  0  0  0  0  0  0  0  0  0  0  0
  179.5140  176.2000  140.0210 O   0  0  0  0  0  0  0  0  0  0  0  0
  180.8520  178.8660  137.3910 O   0  0  0  0  0  1  0  0  0  0  0  0
  180.7670  179.3170  141.1070 O   0  0  0  0  0  0  0  0  0  0  0  0
  180.6270  180.5540  139.0650 C   0  0  2  0  0  3  0  0  0  0  0  0
  179.9480  179.4580  138.2730 C   0  0  2  0  0  3  0  0  0  0  0  0
  179.3890  178.4730  139.2990 C   0  0  2  0  0  3  0  0  0  0  0  0
  180.1580  180.4350  140.5110 C   0  0  1  0  0  3  0  0  0  0  0  0
  179.4380  179.1460  140.6700 C   0  0  2  0  0  3  0  0  0  0  0  0
  179.6750  182.0130  135.9750 C   0  0  0  0  0  2  0  0  0  0  0  0
  181.3150  183.9930  137.2860 C   0  0  0  0  0  2  0  0  0  0  0  0
  179.8230  184.3150  137.1520 C   0  0  2  0  0  3  0  0  0  0  0  0
  179.2050  181.8290  137.4130 C   0  0  1  0  0  3  0  0  0  0  0  0
  181.6010  182.6720  138.0090 C   0  0  0  0  0  2  0  0  0  0  0  0
  180.3280  181.9330  138.4700 C   0  0  2  0  0  3  0  0  0  0  0  0
  178.9310  183.1400  136.6770 C   0  0  2  0  0  3  0  0  0  0  0  0
  180.7290  186.3930  136.3910 O   0  0  0  0  0  1  0  0  0  0  0  0
  179.6490  185.5180  136.2440 C   0  0  0  0  0  2  0  0  0  0  0  0
  186.4240  174.7540  134.5980 C   0  0  0  0  0  2  0  0  0  0  0  0
  186.3380  173.6570  135.6580 C   0  0  0  0  0  2  0  0  0  0  0  0
  183.3930  174.0690  136.6070 C   0  0  1  0  0  3  0  0  0  0  0  0
  181.9950  173.5240  136.2150 C   0  0  1  0  0  3  0  0  0  0  0  0
  183.6890  173.8650  137.9600 O   0  0  0  0  0  1  0  0  0  0  0  0
  185.3060  172.5960  135.2830 C   0  0  2  0  0  3  0  0  0  0  0  0
  182.6080  172.3710  135.3960 C   0  0  0  0  0  2  0  0  0  0  0  0
  183.9410  172.9650  135.7340 C   0  0  2  0  0  0  0  0  0  0  0  0
  184.7370  172.0420  136.4470 O   0  0  0  0  0  0  0  0  0  0  0  0
  181.0890  173.0970  137.3850 C   0  0  1  0  0  3  0  0  0  0  0  0
  179.8550  173.9340  137.4750 C   0  0  0  0  0  0  0  0  0  0  0  0
  179.6020  174.9350  136.5400 O   0  0  0  0  0  0  0  0  0  0  0  0
  179.0230  173.7160  138.3900 O   0  0  0  0  0  1  0  0  0  0  0  0
  179.9870  171.0420  135.9470 C   0  0  0  0  0  1  0  0  0  0  0  0
  180.7560  171.2920  137.5750 S   0  0  0  0  0  0  0  0  0  0  0  0
  186.4030  178.9420  137.5280 C   0  0  0  0  0  2  0  0  0  0  0  0
  187.8100  178.9050  137.8890 N   0  0  0  0  0  2  0  0  0  0  0  0
  190.3210  178.1980  144.1420 S   0  0  0  0  0  0  0  0  0  0  0  0
  187.0550  177.5660  142.5980 N   0  0  0  0  0  2  0  0  0  0  0  0
  188.9800  178.0970  145.3400 C   0  0  2  0  0  3  0  0  0  0  0  0
  187.8710  177.6230  144.8830 N   0  0  0  0  0  2  0  0  0  0  0  0
  189.3360  177.1050  143.0590 C   0  0  1  0  0  3  0  0  0  0  0  0
  189.6530  178.2400  139.4040 C   0  0  0  0  0  3  0  0  0  0  0  0
  187.9710  177.1540  143.5760 N   0  0  2  0  0  0  0  0  0  0  0  0
  190.1070  177.8120  140.6650 C   0  0  0  0  0  3  0  0  0  0  0  0
  187.3480  178.2640  140.2050 C   0  0  0  0  0  3  0  0  0  0  0  0
  189.1630  177.6300  141.6730 C   0  0  0  0  0  0  0  0  0  0  0  0
  187.8240  177.8350  141.4410 C   0  0  0  0  0  0  0  0  0  0  0  0
  188.2770  178.4640  139.1690 C   0  0  0  0  0  0  0  0  0  0  0  0
  189.0620  178.6330  146.7390 C   0  0  0  0  0  2  0  0  0  0  0  0
  189.2250  177.5720  147.8380 C   0  0  2  0  0  3  0  0  0  0  0  0
  186.7260  177.7520  148.0140 O   0  0  0  0  0  0  0  0  0  0  0  0
  187.9140  177.1710  148.4420 C   0  0  0  0  0  0  0  0  0  0  0  0
  187.8930  176.3220  149.3690 O   0  0  0  0  0  1  0  0  0  0  0  0
  190.2830  177.9020  148.8920 C   0  0  0  0  0  2  0  0  0  0  0  0
  192.7390  177.8370  149.1960 C   0  0  0  0  0  1  0  0  0  0  0  0
  191.5360  177.0610  148.6980 C   0  0  2  0  0  3  0  0  0  0  0  0
  191.8810  175.4660  146.8710 C   0  0  0  0  0  3  0  0  0  0  0  0
  191.7090  176.7260  147.2540 C   0  0  0  0  0  3  0  0  0  0  0  0
  192.3880  173.9340  145.1300 O   0  0  0  0  0  0  0  0  0  0  0  0
  191.8460  176.1330  144.4170 C   0  0  0  0  0  1  0  0  0  0  0  0
  192.0640  175.1050  145.4620 C   0  0  0  0  0  0  0  0  0  0  0  0
  1  6  1  1  0  0  0
  1  5  1  0  0  0  0
  2  1  1  0  0  0  0
  3 29  1  1  0  0  0
  3  2  1  0  0  0  0
  3  4  1  0  0  0  0
  4  5  1  0  0  0  0
  5 44  1  6  0  0  0
  6  7  1  0  0  0  0
  7  9  1  0  0  0  0
  7  8  1  1  0  0  0
 10  9  1  0  0  0  0
 10 11  1  0  0  0  0
 11 12  2  0  0  0  0
 15 25  1  6  0  0  0
 15 18  1  0  0  0  0
 16 13  1  6  0  0  0
 16 15  1  0  0  0  0
 16 17  1  0  0  0  0
 17 11  1  1  0  0  0
 17 19  1  0  0  0  0
 18 19  1  0  0  0  0
 18 14  1  1  0  0  0
 19 14  1  1  0  0  0
 21 24  1  0  0  0  0
 22 28  1  6  0  0  0
 22 21  1  0  0  0  0
 23 20  1  6  0  0  0
 23 25  1  0  0  0  0
 25 24  1  6  0  0  0
 26 20  1  6  0  0  0
 26 22  1  0  0  0  0
 26 23  1  0  0  0  0
 28 27  1  0  0  0  0
 29 30  1  0  0  0  0
 31 33  1  1  0  0  0
 32 31  1  0  0  0  0
 32 38  1  1  0  0  0
 34 30  1  1  0  0  0
 34 36  1  0  0  0  0
 34 37  1  0  0  0  0
 35 32  1  0  0  0  0
 36 35  1  6  0  0  0
 36 37  1  0  0  0  0
 36 31  1  0  0  0  0
 38 39  1  6  0  0  0
 38 43  1  0  0  0  0
 39 41  1  0  0  0  0
 40 39  2  0  0  0  0
 42 43  1  0  0  0  0
 44 45  1  0  0  0  0
 45 57  1  0  0  0  0
 46 48  1  0  0  0  0
 48 58  1  6  0  0  0
 49 48  1  0  0  0  0
 50 55  1  6  0  0  0
 50 52  1  0  0  0  0
 50 46  1  0  0  0  0
 51 53  1  0  0  0  0
 52 47  1  6  0  0  0
 52 49  1  0  0  0  0
 53 55  2  0  0  0  0
 54 56  2  0  0  0  0
 56 55  1  0  0  0  0
 56 47  1  0  0  0  0
 57 51  2  0  0  0  0
 57 54  1  0  0  0  0
 59 58  1  6  0  0  0
 59 61  1  0  0  0  0
 59 63  1  0  0  0  0
 60 61  2  0  0  0  0
 61 62  1  0  0  0  0
 65 63  1  0  0  0  0
 65 64  1  6  0  0  0
 66 67  2  0  0  0  0
 67 65  1  0  0  0  0
 68 70  2  0  0  0  0
 69 70  1  0  0  0  0
 70 66  1  0  0  0  0
M  END
>  <MODEL>
3

>  <REMARK>
 VINA RESULT:      -3.5      1.529      2.617
  Name = 
  24 active torsions:
  status: ('A' for Active; 'I' for Inactive)
    1  A    between atoms: C_1  and  C_25
    2  A    between atoms: C_1  and  C_34
    3  A    between atoms: C_1  and  C_62
    4  A    between atoms: C_4  and  C_29
    5  A    between atoms: C_4  and  C_33
    6  A    between atoms: C_6  and  C_8
    7  A    between atoms: N_7  and  C_36
    8  A    between atoms: N_7  and  C_69
    9  A    between atoms: C_8  and  C_11
   10  A    between atoms: C_8  and  S_48
   11  A    between atoms: C_9  and  C_44
   12  A    between atoms: C_12  and  O_27
   13  A    between atoms: C_12  and  C_41
   14  A    between atoms: C_18  and  C_62
   15  A    between atoms: C_21  and  C_61
   16  A    between atoms: C_26  and  C_29
   17  A    between atoms: O_27  and  C_53
   18  A    between atoms: C_31  and  C_34
   19  A    between atoms: C_31  and  C_58
   20  A    between atoms: C_32  and  C_44
   21  A    between atoms: C_32  and  C_53
   22  A    between atoms: C_36  and  C_65
   23  A    between atoms: C_40  and  C_67
   24  A    between atoms: C_51  and  C_57
                            x       y       z     vdW  Elec       q    Type
                         _______ _______ _______ _____ _____    ______ ____

>  <TORSDO>
F 24

$$$$
=
 OpenBabel10222415553D

 70 79  0  0  1  0  0  0  0  0999 V2000
  190.5460  176.0490  142.9800 C   0  0  2  0  0  3  0  0  0  0  0  0
  190.7750  175.3630  144.3090 C   0  0  0  0  0  2  0  0  0  0  0  0
  192.0620  175.9420  144.8210 C   0  0  1  0  0  3  0  0  0  0  0  0
  191.9580  177.7400  144.5980 S   0  0  0  0  0  0  0  0  0  0  0  0
  190.8080  177.5340  143.1950 C   0  0  1  0  0  3  0  0  0  0  0  0
  189.1350  175.8120  142.4460 C   0  0  0  0  0  2  0  0  0  0  0  0
  188.1240  176.7100  143.1450 C   0  0  1  0  0  3  0  0  0  0  0  0
  188.7720  177.5400  144.0480 F   0  0  0  0  0  0  0  0  0  0  0  0
  187.3680  177.5430  142.1180 C   0  0  0  0  0  2  0  0  0  0  0  0
  185.9800  177.6040  142.4390 O   0  0  0  0  0  0  0  0  0  0  0  0
  185.1030  178.5330  141.8720 C   0  0  0  0  0  0  0  0  0  0  0  0
  185.3830  179.7630  141.8730 O   0  0  0  0  0  0  0  0  0  0  0  0
  184.6800  179.2440  139.2700 O   0  0  0  0  0  1  0  0  0  0  0  0
  182.4780  179.8130  142.2440 O   0  0  0  0  0  0  0  0  0  0  0  0
  182.3830  179.4900  139.8760 C   0  0  2  0  0  3  0  0  0  0  0  0
  183.5810  178.5700  139.8030 C   0  0  2  0  0  3  0  0  0  0  0  0
  183.8250  178.0720  141.2280 C   0  0  2  0  0  3  0  0  0  0  0  0
  181.6990  179.2500  141.2180 C   0  0  1  0  0  3  0  0  0  0  0  0
  182.5940  178.4200  142.0630 C   0  0  2  0  0  3  0  0  0  0  0  0
  182.3110  177.7850  136.7670 C   0  0  0  0  0  2  0  0  0  0  0  0
  180.6630  180.1260  136.3970 C   0  0  0  0  0  2  0  0  0  0  0  0
  179.9430  178.7740  136.4150 C   0  0  2  0  0  3  0  0  0  0  0  0
  181.6230  177.8360  138.1260 C   0  0  1  0  0  3  0  0  0  0  0  0
  181.4980  180.3990  137.6540 C   0  0  0  0  0  2  0  0  0  0  0  0
  181.4370  179.2620  138.6940 C   0  0  2  0  0  3  0  0  0  0  0  0
  180.8070  177.5670  136.8630 C   0  0  2  0  0  3  0  0  0  0  0  0
  179.6890  177.2450  134.5940 O   0  0  0  0  0  1  0  0  0  0  0  0
  179.3300  178.5150  135.0510 C   0  0  0  0  0  2  0  0  0  0  0  0
  192.2970  175.5460  146.2710 C   0  0  0  0  0  2  0  0  0  0  0  0
  191.0270  175.6860  147.1080 C   0  0  0  0  0  2  0  0  0  0  0  0
  188.1090  176.5950  147.7420 C   0  0  1  0  0  3  0  0  0  0  0  0
  187.4320  177.7540  148.5200 C   0  0  1  0  0  3  0  0  0  0  0  0
  187.6840  176.5220  146.4110 O   0  0  0  0  0  1  0  0  0  0  0  0
  190.8030  177.1320  147.5480 C   0  0  2  0  0  3  0  0  0  0  0  0
  188.7440  178.5610  148.5770 C   0  0  0  0  0  2  0  0  0  0  0  0
  189.3830  177.3940  147.8880 C   0  0  2  0  0  0  0  0  0  0  0  0
  189.9350  177.7820  146.6480 O   0  0  0  0  0  0  0  0  0  0  0  0
  186.2580  178.4460  147.8040 C   0  0  1  0  0  3  0  0  0  0  0  0
  186.4340  179.9280  147.7370 C   0  0  0  0  0  0  0  0  0  0  0  0
  185.7760  180.7660  148.6340 O   0  0  0  0  0  1  0  0  0  0  0  0
  187.2050  180.4220  146.8770 O   0  0  0  0  0  0  0  0  0  0  0  0
  184.3210  178.8610  145.9100 C   0  0  0  0  0  1  0  0  0  0  0  0
  185.6970  177.7110  146.2070 S   0  0  0  0  0  0  0  0  0  0  0  0
  191.4340  178.1240  141.9430 C   0  0  0  0  0  2  0  0  0  0  0  0
  190.4050  178.7400  141.1220 N   0  0  0  0  0  2  0  0  0  0  0  0
  187.7010  175.2090  136.0110 S   0  0  0  0  0  0  0  0  0  0  0  0
  187.4120  178.6740  137.1770 N   0  0  0  0  0  2  0  0  0  0  0  0
  186.2280  176.0420  135.3950 C   0  0  2  0  0  3  0  0  0  0  0  0
  186.2120  177.3210  135.5570 N   0  0  0  0  0  2  0  0  0  0  0  0
  188.4950  176.8500  136.1140 C   0  0  1  0  0  3  0  0  0  0  0  0
  190.6330  177.0820  139.2960 C   0  0  0  0  0  3  0  0  0  0  0  0
  187.4090  177.8250  136.0610 N   0  0  2  0  0  0  0  0  0  0  0  0
  190.2030  176.5480  138.0680 C   0  0  0  0  0  3  0  0  0  0  0  0
  188.8770  178.7750  139.2110 C   0  0  0  0  0  3  0  0  0  0  0  0
  189.1070  177.1400  137.4440 C   0  0  0  0  0  0  0  0  0  0  0  0
  188.4780  178.2300  137.9940 C   0  0  0  0  0  0  0  0  0  0  0  0
  189.9760  178.1960  139.8690 C   0  0  0  0  0  0  0  0  0  0  0  0
  185.0280  175.3280  134.8450 C   0  0  0  0  0  2  0  0  0  0  0  0
  184.2800  174.4370  135.8480 C   0  0  2  0  0  3  0  0  0  0  0  0
  185.6760  172.5680  136.7780 O   0  0  0  0  0  1  0  0  0  0  0  0
  184.7680  173.0210  135.8280 C   0  0  0  0  0  0  0  0  0  0  0  0
  184.3770  172.2430  134.9210 O   0  0  0  0  0  0  0  0  0  0  0  0
  182.7550  174.5350  135.7760 C   0  0  0  0  0  2  0  0  0  0  0  0
  180.7610  173.1310  136.1980 C   0  0  0  0  0  1  0  0  0  0  0  0
  182.0950  173.5820  136.7610 C   0  0  2  0  0  3  0  0  0  0  0  0
  180.7520  174.1050  138.7420 C   0  0  0  0  0  3  0  0  0  0  0  0
  181.8880  174.2620  138.0730 C   0  0  0  0  0  3  0  0  0  0  0  0
  181.0390  175.8810  140.2910 O   0  0  0  0  0  0  0  0  0  0  0  0
  179.6260  174.1190  141.0220 C   0  0  0  0  0  1  0  0  0  0  0  0
  180.5140  174.7670  140.0270 C   0  0  0  0  0  0  0  0  0  0  0  0
  1  6  1  1  0  0  0
  1  5  1  0  0  0  0
  1  2  1  0  0  0  0
  2  3  1  0  0  0  0
  3 29  1  1  0  0  0
  4  3  1  0  0  0  0
  5 44  1  6  0  0  0
  5  4  1  0  0  0  0
  6  7  1  0  0  0  0
  7  8  1  1  0  0  0
  9 10  1  0  0  0  0
  9  7  1  0  0  0  0
 11 12  2  0  0  0  0
 11 10  1  0  0  0  0
 15 25  1  6  0  0  0
 15 18  1  0  0  0  0
 16 13  1  1  0  0  0
 16 15  1  0  0  0  0
 16 17  1  0  0  0  0
 17 11  1  1  0  0  0
 17 19  1  0  0  0  0
 18 19  1  0  0  0  0
 18 14  1  1  0  0  0
 19 14  1  1  0  0  0
 21 22  1  0  0  0  0
 21 24  1  0  0  0  0
 22 28  1  6  0  0  0
 22 26  1  0  0  0  0
 23 20  1  6  0  0  0
 23 25  1  0  0  0  0
 25 24  1  6  0  0  0
 26 20  1  6  0  0  0
 26 23  1  0  0  0  0
 27 28  1  0  0  0  0
 29 30  1  0  0  0  0
 31 33  1  6  0  0  0
 31 36  1  0  0  0  0
 31 32  1  0  0  0  0
 32 38  1  6  0  0  0
 32 35  1  0  0  0  0
 34 30  1  6  0  0  0
 34 36  1  0  0  0  0
 36 35  1  1  0  0  0
 37 34  1  0  0  0  0
 37 36  1  0  0  0  0
 38 43  1  6  0  0  0
 39 38  1  0  0  0  0
 39 40  1  0  0  0  0
 41 39  2  0  0  0  0
 42 43  1  0  0  0  0
 45 44  1  0  0  0  0
 47 56  1  0  0  0  0
 48 58  1  1  0  0  0
 48 49  1  0  0  0  0
 48 46  1  0  0  0  0
 50 46  1  1  0  0  0
 50 55  1  0  0  0  0
 51 57  1  0  0  0  0
 52 49  1  1  0  0  0
 52 50  1  0  0  0  0
 52 47  1  0  0  0  0
 53 51  2  0  0  0  0
 54 57  2  0  0  0  0
 55 56  2  0  0  0  0
 55 53  1  0  0  0  0
 56 54  1  0  0  0  0
 57 45  1  0  0  0  0
 59 58  1  6  0  0  0
 61 59  1  0  0  0  0
 61 60  1  0  0  0  0
 62 61  2  0  0  0  0
 63 59  1  0  0  0  0
 63 65  1  0  0  0  0
 65 64  1  6  0  0  0
 65 67  1  0  0  0  0
 66 70  1  0  0  0  0
 67 66  2  0  0  0  0
 70 68  2  0  0  0  0
 70 69  1  0  0  0  0
M  END
>  <MODEL>
4

>  <REMARK>
 VINA RESULT:      -3.1      2.771      9.557
  Name = 
  24 active torsions:
  status: ('A' for Active; 'I' for Inactive)
    1  A    between atoms: C_1  and  C_25
    2  A    between atoms: C_1  and  C_34
    3  A    between atoms: C_1  and  C_62
    4  A    between atoms: C_4  and  C_29
    5  A    between atoms: C_4  and  C_33
    6  A    between atoms: C_6  and  C_8
    7  A    between atoms: N_7  and  C_36
    8  A    between atoms: N_7  and  C_69
    9  A    between atoms: C_8  and  C_11
   10  A    between atoms: C_8  and  S_48
   11  A    between atoms: C_9  and  C_44
   12  A    between atoms: C_12  and  O_27
   13  A    between atoms: C_12  and  C_41
   14  A    between atoms: C_18  and  C_62
   15  A    between atoms: C_21  and  C_61
   16  A    between atoms: C_26  and  C_29
   17  A    between atoms: O_27  and  C_53
   18  A    between atoms: C_31  and  C_34
   19  A    between atoms: C_31  and  C_58
   20  A    between atoms: C_32  and  C_44
   21  A    between atoms: C_32  and  C_53
   22  A    between atoms: C_36  and  C_65
   23  A    between atoms: C_40  and  C_67
   24  A    between atoms: C_51  and  C_57
                            x       y       z     vdW  Elec       q    Type
                         _______ _______ _______ _____ _____    ______ ____

>  <TORSDO>
F 24

$$$$
=
 OpenBabel10222415553D

 70 79  0  0  1  0  0  0  0  0999 V2000
  182.4980  177.5550  139.8700 C   0  0  2  0  0  3  0  0  0  0  0  0
  181.6370  177.4640  138.6280 C   0  0  0  0  0  2  0  0  0  0  0  0
  180.3010  178.0030  139.0490 C   0  0  1  0  0  3  0  0  0  0  0  0
  180.6160  179.5350  139.9710 S   0  0  0  0  0  0  0  0  0  0  0  0
  182.2650  178.9340  140.4720 C   0  0  1  0  0  3  0  0  0  0  0  0
  183.9770  177.3310  139.5620 C   0  0  0  0  0  2  0  0  0  0  0  0
  184.5250  178.4330  138.6650 C   0  0  1  0  0  3  0  0  0  0  0  0
  185.0030  179.4800  139.4400 F   0  0  0  0  0  0  0  0  0  0  0  0
  185.6390  177.8820  137.7850 C   0  0  0  0  0  2  0  0  0  0  0  0
  186.8570  178.5910  138.0080 O   0  0  0  0  0  0  0  0  0  0  0  0
  187.9240  178.0650  138.7430 C   0  0  0  0  0  0  0  0  0  0  0  0
  187.7350  177.5810  139.8910 O   0  0  0  0  0  0  0  0  0  0  0  0
  188.5080  176.0810  136.9620 O   0  0  0  0  0  1  0  0  0  0  0  0
  190.3110  177.0130  140.1080 O   0  0  0  0  0  0  0  0  0  0  0  0
  190.6820  176.0500  137.9510 C   0  0  2  0  0  3  0  0  0  0  0  0
  189.6270  176.8670  137.2390 C   0  0  2  0  0  3  0  0  0  0  0  0
  189.3080  178.0470  138.1570 C   0  0  2  0  0  3  0  0  0  0  0  0
  191.2540  176.9120  139.0710 C   0  0  1  0  0  3  0  0  0  0  0  0
  190.3950  178.1120  139.2300 C   0  0  2  0  0  3  0  0  0  0  0  0
  192.7140  173.2040  137.3560 C   0  0  0  0  0  2  0  0  0  0  0  0
  194.2870  175.4640  136.4920 C   0  0  0  0  0  2  0  0  0  0  0  0
  193.7780  174.5220  135.3970 C   0  0  2  0  0  3  0  0  0  0  0  0
  191.6200  174.0540  136.7200 C   0  0  1  0  0  3  0  0  0  0  0  0
  193.1760  176.0430  137.3750 C   0  0  0  0  0  2  0  0  0  0  0  0
  191.7630  175.5720  136.9770 C   0  0  2  0  0  3  0  0  0  0  0  0
  192.7370  173.4700  135.8570 C   0  0  2  0  0  3  0  0  0  0  0  0
  196.1590  174.3830  135.2100 O   0  0  0  0  0  1  0  0  0  0  0  0
  194.9620  173.8450  134.7300 C   0  0  0  0  0  2  0  0  0  0  0  0
  179.3990  178.2220  137.8440 C   0  0  0  0  0  2  0  0  0  0  0  0
  179.9250  177.4970  136.6070 C   0  0  0  0  0  2  0  0  0  0  0  0
  181.7420  174.9600  136.5990 C   0  0  1  0  0  3  0  0  0  0  0  0
  181.5510  173.4350  136.8070 C   0  0  1  0  0  3  0  0  0  0  0  0
  182.3420  175.2640  135.3720 O   0  0  0  0  0  1  0  0  0  0  0  0
  179.2580  176.1350  136.4300 C   0  0  2  0  0  3  0  0  0  0  0  0
  180.0220  173.5440  136.6510 C   0  0  0  0  0  2  0  0  0  0  0  0
  180.2350  175.0220  136.5260 C   0  0  2  0  0  0  0  0  0  0  0  0
  179.7630  175.4940  135.2810 O   0  0  0  0  0  0  0  0  0  0  0  0
  182.2590  172.5250  135.7860 C   0  0  1  0  0  3  0  0  0  0  0  0
  183.7320  172.4550  136.0210 C   0  0  0  0  0  0  0  0  0  0  0  0
  184.2480  171.7670  137.1170 O   0  0  0  0  0  1  0  0  0  0  0  0
  184.5170  173.0020  135.2070 O   0  0  0  0  0  0  0  0  0  0  0  0
  183.0460  169.9230  135.4420 C   0  0  0  0  0  1  0  0  0  0  0  0
  181.4980  170.8750  135.4630 S   0  0  0  0  0  0  0  0  0  0  0  0
  182.3270  178.8420  141.9860 C   0  0  0  0  0  2  0  0  0  0  0  0
  183.5960  179.3700  142.4610 N   0  0  0  0  0  2  0  0  0  0  0  0
  186.9630  176.7420  147.7210 S   0  0  0  0  0  0  0  0  0  0  0  0
  186.8520  180.0460  146.1310 N   0  0  0  0  0  2  0  0  0  0  0  0
  188.3930  177.7640  148.1130 C   0  0  2  0  0  3  0  0  0  0  0  0
  188.2800  179.0100  147.7990 N   0  0  0  0  0  2  0  0  0  0  0  0
  186.0160  178.2870  147.4870 C   0  0  1  0  0  3  0  0  0  0  0  0
  183.6490  177.9410  144.4830 C   0  0  0  0  0  3  0  0  0  0  0  0
  187.0100  179.3470  147.3360 N   0  0  2  0  0  0  0  0  0  0  0  0
  184.2110  177.6020  145.7270 C   0  0  0  0  0  3  0  0  0  0  0  0
  185.2440  179.7700  144.2240 C   0  0  0  0  0  3  0  0  0  0  0  0
  185.2890  178.3560  146.1860 C   0  0  0  0  0  0  0  0  0  0  0  0
  185.7760  179.4160  145.4620 C   0  0  0  0  0  0  0  0  0  0  0  0
  184.1600  179.0240  143.7310 C   0  0  0  0  0  0  0  0  0  0  0  0
  189.6880  177.2260  148.6450 C   0  0  0  0  0  2  0  0  0  0  0  0
  190.5850  176.5350  147.6080 C   0  0  2  0  0  3  0  0  0  0  0  0
  192.6220  175.1100  147.9650 O   0  0  0  0  0  0  0  0  0  0  0  0
  191.9840  176.3370  148.1060 C   0  0  0  0  0  0  0  0  0  0  0  0
  192.5750  177.2820  148.6880 O   0  0  0  0  0  1  0  0  0  0  0  0
  190.5400  177.1530  146.2100 C   0  0  0  0  0  2  0  0  0  0  0  0
  192.0760  176.0600  144.6060 C   0  0  0  0  0  1  0  0  0  0  0  0
  190.6540  176.0860  145.1310 C   0  0  2  0  0  3  0  0  0  0  0  0
  188.5420  176.9680  144.2610 C   0  0  0  0  0  3  0  0  0  0  0  0
  189.7070  176.3800  144.0170 C   0  0  0  0  0  3  0  0  0  0  0  0
  186.4730  176.6720  143.1340 O   0  0  0  0  0  0  0  0  0  0  0  0
  187.9280  178.2820  142.1710 C   0  0  0  0  0  1  0  0  0  0  0  0
  187.5850  177.2620  143.1900 C   0  0  0  0  0  0  0  0  0  0  0  0
  1  6  1  6  0  0  0
  1  5  1  0  0  0  0
  2  3  1  0  0  0  0
  2  1  1  0  0  0  0
  3 29  1  6  0  0  0
  3  4  1  0  0  0  0
  4  5  1  0  0  0  0
  5 44  1  1  0  0  0
  7  8  1  1  0  0  0
  7  6  1  0  0  0  0
  9 10  1  0  0  0  0
  9  7  1  0  0  0  0
 10 11  1  0  0  0  0
 11 12  2  0  0  0  0
 15 25  1  6  0  0  0
 15 18  1  0  0  0  0
 16 13  1  1  0  0  0
 16 15  1  0  0  0  0
 16 17  1  0  0  0  0
 17 11  1  1  0  0  0
 17 19  1  0  0  0  0
 18 19  1  0  0  0  0
 18 14  1  1  0  0  0
 19 14  1  1  0  0  0
 21 24  1  0  0  0  0
 22 28  1  1  0  0  0
 22 26  1  0  0  0  0
 22 21  1  0  0  0  0
 23 25  1  0  0  0  0
 23 20  1  1  0  0  0
 25 24  1  1  0  0  0
 26 23  1  0  0  0  0
 26 20  1  1  0  0  0
 28 27  1  0  0  0  0
 30 29  1  0  0  0  0
 31 33  1  6  0  0  0
 31 32  1  0  0  0  0
 32 38  1  6  0  0  0
 34 36  1  0  0  0  0
 34 30  1  6  0  0  0
 35 32  1  0  0  0  0
 36 31  1  0  0  0  0
 36 35  1  1  0  0  0
 37 34  1  0  0  0  0
 37 36  1  0  0  0  0
 38 43  1  1  0  0  0
 38 39  1  0  0  0  0
 39 40  1  0  0  0  0
 41 39  2  0  0  0  0
 42 43  1  0  0  0  0
 44 45  1  0  0  0  0
 45 57  1  0  0  0  0
 46 48  1  0  0  0  0
 48 58  1  6  0  0  0
 49 48  1  0  0  0  0
 50 55  1  6  0  0  0
 50 46  1  0  0  0  0
 51 53  1  0  0  0  0
 52 47  1  6  0  0  0
 52 50  1  0  0  0  0
 52 49  1  0  0  0  0
 53 55  2  0  0  0  0
 54 56  2  0  0  0  0
 56 47  1  0  0  0  0
 56 55  1  0  0  0  0
 57 54  1  0  0  0  0
 57 51  2  0  0  0  0
 59 63  1  6  0  0  0
 59 61  1  0  0  0  0
 59 58  1  0  0  0  0
 60 61  2  0  0  0  0
 61 62  1  0  0  0  0
 65 64  1  6  0  0  0
 65 63  1  0  0  0  0
 67 66  2  0  0  0  0
 67 65  1  0  0  0  0
 68 70  2  0  0  0  0
 69 70  1  0  0  0  0
 70 66  1  0  0  0  0
M  END
>  <MODEL>
5

>  <REMARK>
 VINA RESULT:      -3.1      3.582      8.169
  Name = 
  24 active torsions:
  status: ('A' for Active; 'I' for Inactive)
    1  A    between atoms: C_1  and  C_25
    2  A    between atoms: C_1  and  C_34
    3  A    between atoms: C_1  and  C_62
    4  A    between atoms: C_4  and  C_29
    5  A    between atoms: C_4  and  C_33
    6  A    between atoms: C_6  and  C_8
    7  A    between atoms: N_7  and  C_36
    8  A    between atoms: N_7  and  C_69
    9  A    between atoms: C_8  and  C_11
   10  A    between atoms: C_8  and  S_48
   11  A    between atoms: C_9  and  C_44
   12  A    between atoms: C_12  and  O_27
   13  A    between atoms: C_12  and  C_41
   14  A    between atoms: C_18  and  C_62
   15  A    between atoms: C_21  and  C_61
   16  A    between atoms: C_26  and  C_29
   17  A    between atoms: O_27  and  C_53
   18  A    between atoms: C_31  and  C_34
   19  A    between atoms: C_31  and  C_58
   20  A    between atoms: C_32  and  C_44
   21  A    between atoms: C_32  and  C_53
   22  A    between atoms: C_36  and  C_65
   23  A    between atoms: C_40  and  C_67
   24  A    between atoms: C_51  and  C_57
                            x       y       z     vdW  Elec       q    Type
                         _______ _______ _______ _____ _____    ______ ____

>  <TORSDO>
F 24

$$$$
=
 OpenBabel10222415553D

 70 79  0  0  1  0  0  0  0  0999 V2000
  186.1740  176.4380  136.4880 C   0  0  2  0  0  3  0  0  0  0  0  0
  185.6210  176.5960  137.8880 C   0  0  0  0  0  2  0  0  0  0  0  0
  186.0590  177.9660  138.3190 C   0  0  1  0  0  3  0  0  0  0  0  0
  185.7030  179.0920  136.9410 S   0  0  0  0  0  0  0  0  0  0  0  0
  185.8640  177.7270  135.7400 C   0  0  1  0  0  3  0  0  0  0  0  0
  185.5800  175.2280  135.7690 C   0  0  0  0  0  2  0  0  0  0  0  0
  186.1720  173.9290  136.2980 C   0  0  1  0  0  3  0  0  0  0  0  0
  185.1550  173.0690  136.6850 F   0  0  0  0  0  0  0  0  0  0  0  0
  187.0320  173.2730  135.2260 C   0  0  0  0  0  2  0  0  0  0  0  0
  188.2290  172.7440  135.7930 O   0  0  0  0  0  0  0  0  0  0  0  0
  189.1100  171.9190  135.0870 C   0  0  0  0  0  0  0  0  0  0  0  0
  188.7630  170.7590  134.7370 O   0  0  0  0  0  0  0  0  0  0  0  0
  191.2040  170.1880  135.3630 O   0  0  0  0  0  1  0  0  0  0  0  0
  190.7990  173.6260  136.7910 O   0  0  0  0  0  0  0  0  0  0  0  0
  192.4770  172.0870  136.0570 C   0  0  2  0  0  3  0  0  0  0  0  0
  191.6340  171.4560  134.9700 C   0  0  2  0  0  3  0  0  0  0  0  0
  190.4770  172.4210  134.7110 C   0  0  2  0  0  3  0  0  0  0  0  0
  192.0600  173.5480  136.1720 C   0  0  1  0  0  3  0  0  0  0  0  0
  190.8160  173.7490  135.3870 C   0  0  2  0  0  3  0  0  0  0  0  0
  195.3490  170.5110  137.4160 C   0  0  0  0  0  2  0  0  0  0  0  0
  196.3220  172.9060  136.1330 C   0  0  0  0  0  2  0  0  0  0  0  0
  196.7010  171.5730  135.4790 C   0  0  2  0  0  3  0  0  0  0  0  0
  194.4560  170.5240  136.1810 C   0  0  1  0  0  3  0  0  0  0  0  0
  194.8110  173.1060  136.2980 C   0  0  0  0  0  2  0  0  0  0  0  0
  193.9710  171.9310  135.7600 C   0  0  2  0  0  3  0  0  0  0  0  0
  195.9650  170.3280  136.0360 C   0  0  2  0  0  3  0  0  0  0  0  0
  198.5850  170.2260  134.8810 O   0  0  0  0  0  1  0  0  0  0  0  0
  198.2050  171.3850  135.5610 C   0  0  0  0  0  2  0  0  0  0  0  0
  185.3620  178.3790  139.6060 C   0  0  0  0  0  2  0  0  0  0  0  0
  184.0040  179.0230  139.3310 C   0  0  0  0  0  2  0  0  0  0  0  0
  182.2720  176.9920  137.7120 C   0  0  1  0  0  3  0  0  0  0  0  0
  181.3220  175.8100  138.0370 C   0  0  1  0  0  3  0  0  0  0  0  0
  181.6550  177.9780  136.9330 O   0  0  0  0  0  1  0  0  0  0  0  0
  182.8790  178.2920  140.0620 C   0  0  2  0  0  3  0  0  0  0  0  0
  181.2220  176.2180  139.5200 C   0  0  0  0  0  2  0  0  0  0  0  0
  182.1970  177.3070  139.1880 C   0  0  2  0  0  0  0  0  0  0  0  0
  181.6410  178.5770  139.4530 O   0  0  0  0  0  0  0  0  0  0  0  0
  179.9900  175.7880  137.2650 C   0  0  1  0  0  3  0  0  0  0  0  0
  179.4770  177.1640  136.9890 C   0  0  0  0  0  0  0  0  0  0  0  0
  179.3960  177.6470  135.6850 O   0  0  0  0  0  0  0  0  0  0  0  0
  179.0900  177.8840  137.9430 O   0  0  0  0  0  1  0  0  0  0  0  0
  180.8570  173.3030  136.5010 C   0  0  0  0  0  1  0  0  0  0  0  0
  179.8860  174.6700  135.8000 S   0  0  0  0  0  0  0  0  0  0  0  0
  186.9960  178.0370  134.7760 C   0  0  0  0  0  2  0  0  0  0  0  0
  188.1900  177.3080  135.1680 N   0  0  0  0  0  2  0  0  0  0  0  0
  190.0020  178.3180  141.6180 S   0  0  0  0  0  0  0  0  0  0  0  0
  190.5690  175.6390  139.1780 N   0  0  0  0  0  2  0  0  0  0  0  0
  190.4740  176.7560  142.3800 C   0  0  2  0  0  3  0  0  0  0  0  0
  190.9330  175.8660  141.5680 N   0  0  0  0  0  2  0  0  0  0  0  0
  190.9180  177.7840  140.1310 C   0  0  1  0  0  3  0  0  0  0  0  0
  189.0020  178.8080  136.9640 C   0  0  0  0  0  3  0  0  0  0  0  0
  191.1010  176.3410  140.2690 N   0  0  2  0  0  0  0  0  0  0  0  0
  189.6490  179.0000  138.1980 C   0  0  0  0  0  3  0  0  0  0  0  0
  189.3510  176.3970  137.1200 C   0  0  0  0  0  3  0  0  0  0  0  0
  190.1250  177.8760  138.8700 C   0  0  0  0  0  0  0  0  0  0  0  0
  189.9930  176.6180  138.3360 C   0  0  0  0  0  0  0  0  0  0  0  0
  188.8540  177.5100  136.4210 C   0  0  0  0  0  0  0  0  0  0  0  0
  190.2460  176.4240  143.8250 C   0  0  0  0  0  2  0  0  0  0  0  0
  191.3740  176.8440  144.7790 C   0  0  2  0  0  3  0  0  0  0  0  0
  192.4340  175.8150  146.8100 O   0  0  0  0  0  1  0  0  0  0  0  0
  191.9670  175.6770  145.5090 C   0  0  0  0  0  0  0  0  0  0  0  0
  192.0730  174.5690  144.9240 O   0  0  0  0  0  0  0  0  0  0  0  0
  191.0250  178.0050  145.7110 C   0  0  0  0  0  2  0  0  0  0  0  0
  189.6120  176.4580  147.0300 C   0  0  0  0  0  1  0  0  0  0  0  0
  189.6560  177.8100  146.3450 C   0  0  2  0  0  3  0  0  0  0  0  0
  187.3850  177.3810  145.5320 C   0  0  0  0  0  3  0  0  0  0  0  0
  188.5920  177.8850  145.3020 C   0  0  0  0  0  3  0  0  0  0  0  0
  185.1440  177.7470  144.8400 O   0  0  0  0  0  0  0  0  0  0  0  0
  186.6460  177.1160  143.1130 C   0  0  0  0  0  1  0  0  0  0  0  0
  186.3220  177.4290  144.5260 C   0  0  0  0  0  0  0  0  0  0  0  0
  1  6  1  6  0  0  0
  1  2  1  0  0  0  0
  2  3  1  0  0  0  0
  3 29  1  1  0  0  0
  4  3  1  0  0  0  0
  5 44  1  6  0  0  0
  5  1  1  0  0  0  0
  5  4  1  0  0  0  0
  6  7  1  0  0  0  0
  7  8  1  6  0  0  0
  9 10  1  0  0  0  0
  9  7  1  0  0  0  0
 11 10  1  0  0  0  0
 12 11  2  0  0  0  0
 15 25  1  6  0  0  0
 15 18  1  0  0  0  0
 16 13  1  1  0  0  0
 16 15  1  0  0  0  0
 17 16  1  0  0  0  0
 17 11  1  1  0  0  0
 17 19  1  0  0  0  0
 18 14  1  1  0  0  0
 19 18  1  0  0  0  0
 19 14  1  1  0  0  0
 21 24  1  0  0  0  0
 22 28  1  1  0  0  0
 22 26  1  0  0  0  0
 22 21  1  0  0  0  0
 23 20  1  1  0  0  0
 25 23  1  0  0  0  0
 25 24  1  1  0  0  0
 26 23  1  0  0  0  0
 26 20  1  1  0  0  0
 27 28  1  0  0  0  0
 30 29  1  0  0  0  0
 31 33  1  6  0  0  0
 31 32  1  0  0  0  0
 31 36  1  0  0  0  0
 32 38  1  6  0  0  0
 32 35  1  0  0  0  0
 34 30  1  6  0  0  0
 36 37  1  0  0  0  0
 36 35  1  1  0  0  0
 36 34  1  0  0  0  0
 37 34  1  0  0  0  0
 38 43  1  6  0  0  0
 39 38  1  0  0  0  0
 39 41  1  0  0  0  0
 40 39  2  0  0  0  0
 43 42  1  0  0  0  0
 44 45  1  0  0  0  0
 45 57  1  0  0  0  0
 46 48  1  0  0  0  0
 48 58  1  6  0  0  0
 49 48  1  0  0  0  0
 50 55  1  6  0  0  0
 50 52  1  0  0  0  0
 50 46  1  0  0  0  0
 51 53  1  0  0  0  0
 52 47  1  6  0  0  0
 52 49  1  0  0  0  0
 53 55  2  0  0  0  0
 54 56  2  0  0  0  0
 56 55  1  0  0  0  0
 56 47  1  0  0  0  0
 57 51  2  0  0  0  0
 57 54  1  0  0  0  0
 59 58  1  1  0  0  0
 59 61  1  0  0  0  0
 59 63  1  0  0  0  0
 61 60  1  0  0  0  0
 62 61  2  0  0  0  0
 63 65  1  0  0  0  0
 65 64  1  6  0  0  0
 67 66  2  0  0  0  0
 67 65  1  0  0  0  0
 69 70  1  0  0  0  0
 70 68  2  0  0  0  0
 70 66  1  0  0  0  0
M  END
>  <MODEL>
6

>  <REMARK>
 VINA RESULT:      -3.1      4.292      9.467
  Name = 
  24 active torsions:
  status: ('A' for Active; 'I' for Inactive)
    1  A    between atoms: C_1  and  C_25
    2  A    between atoms: C_1  and  C_34
    3  A    between atoms: C_1  and  C_62
    4  A    between atoms: C_4  and  C_29
    5  A    between atoms: C_4  and  C_33
    6  A    between atoms: C_6  and  C_8
    7  A    between atoms: N_7  and  C_36
    8  A    between atoms: N_7  and  C_69
    9  A    between atoms: C_8  and  C_11
   10  A    between atoms: C_8  and  S_48
   11  A    between atoms: C_9  and  C_44
   12  A    between atoms: C_12  and  O_27
   13  A    between atoms: C_12  and  C_41
   14  A    between atoms: C_18  and  C_62
   15  A    between atoms: C_21  and  C_61
   16  A    between atoms: C_26  and  C_29
   17  A    between atoms: O_27  and  C_53
   18  A    between atoms: C_31  and  C_34
   19  A    between atoms: C_31  and  C_58
   20  A    between atoms: C_32  and  C_44
   21  A    between atoms: C_32  and  C_53
   22  A    between atoms: C_36  and  C_65
   23  A    between atoms: C_40  and  C_67
   24  A    between atoms: C_51  and  C_57
                            x       y       z     vdW  Elec       q    Type
                         _______ _______ _______ _____ _____    ______ ____

>  <TORSDO>
F 24

$$$$
=
 OpenBabel10222415553D

 70 79  0  0  1  0  0  0  0  0999 V2000
  185.6070  178.4610  142.2550 C   0  0  2  0  0  3  0  0  0  0  0  0
  184.5930  177.9700  141.2450 C   0  0  0  0  0  2  0  0  0  0  0  0
  183.3270  177.7900  142.0310 C   0  0  1  0  0  3  0  0  0  0  0  0
  183.1220  179.2770  143.0510 S   0  0  0  0  0  0  0  0  0  0  0  0
  184.9270  179.5510  143.0730 C   0  0  1  0  0  3  0  0  0  0  0  0
  186.8760  178.9860  141.5870 C   0  0  0  0  0  2  0  0  0  0  0  0
  186.9640  178.5300  140.1370 C   0  0  1  0  0  3  0  0  0  0  0  0
  186.1140  179.2930  139.3490 F   0  0  0  0  0  0  0  0  0  0  0  0
  188.3970  178.6570  139.6360 C   0  0  0  0  0  2  0  0  0  0  0  0
  188.6720  177.6760  138.6390 O   0  0  0  0  0  0  0  0  0  0  0  0
  187.9300  177.5530  137.4600 C   0  0  0  0  0  0  0  0  0  0  0  0
  188.2900  178.1500  136.4100 O   0  0  0  0  0  0  0  0  0  0  0  0
  188.1950  175.0560  136.3890 O   0  0  0  0  0  1  0  0  0  0  0  0
  185.7770  177.7600  135.4630 O   0  0  0  0  0  0  0  0  0  0  0  0
  186.0040  175.3800  135.4930 C   0  0  2  0  0  3  0  0  0  0  0  0
  186.8700  175.3290  136.7330 C   0  0  2  0  0  3  0  0  0  0  0  0
  186.7050  176.6810  137.4260 C   0  0  2  0  0  3  0  0  0  0  0  0
  185.0580  176.5660  135.6420 C   0  0  1  0  0  3  0  0  0  0  0  0
  185.5060  177.3870  136.7950 C   0  0  2  0  0  3  0  0  0  0  0  0
  183.0680  173.7400  136.6220 C   0  0  0  0  0  2  0  0  0  0  0  0
  184.9690  171.6340  136.0930 C   0  0  0  0  0  2  0  0  0  0  0  0
  183.7680  171.7300  135.1460 C   0  0  2  0  0  3  0  0  0  0  0  0
  183.7270  174.2950  135.3650 C   0  0  1  0  0  3  0  0  0  0  0  0
  185.7920  172.9240  136.1810 C   0  0  0  0  0  2  0  0  0  0  0  0
  185.2540  174.0610  135.2880 C   0  0  2  0  0  3  0  0  0  0  0  0
  182.9050  173.0090  135.2960 C   0  0  2  0  0  3  0  0  0  0  0  0
  183.4530  169.6410  136.2700 O   0  0  0  0  0  1  0  0  0  0  0  0
  182.9100  170.4860  135.2980 C   0  0  0  0  0  2  0  0  0  0  0  0
  182.1430  177.5490  141.1070 C   0  0  0  0  0  2  0  0  0  0  0  0
  182.5120  176.6280  139.9450 C   0  0  0  0  0  2  0  0  0  0  0  0
  181.7360  179.3100  138.5510 C   0  0  1  0  0  3  0  0  0  0  0  0
  181.0040  179.7350  137.2510 C   0  0  1  0  0  3  0  0  0  0  0  0
  181.1540  179.8610  139.6990 O   0  0  0  0  0  1  0  0  0  0  0  0
  181.4130  176.5960  138.8850 C   0  0  2  0  0  3  0  0  0  0  0  0
  180.4320  178.3200  137.0380 C   0  0  0  0  0  2  0  0  0  0  0  0
  181.2090  177.9250  138.2570 C   0  0  2  0  0  0  0  0  0  0  0  0
  180.3490  177.4370  139.2650 O   0  0  0  0  0  0  0  0  0  0  0  0
  179.9590  180.8560  137.4060 C   0  0  1  0  0  3  0  0  0  0  0  0
  180.5240  182.0620  138.0820 C   0  0  0  0  0  0  0  0  0  0  0  0
  181.4910  182.8450  137.4550 O   0  0  0  0  0  0  0  0  0  0  0  0
  180.1040  182.3890  139.2200 O   0  0  0  0  0  1  0  0  0  0  0  0
  180.0610  180.5420  134.6850 C   0  0  0  0  0  1  0  0  0  0  0  0
  178.9430  181.2680  135.9210 S   0  0  0  0  0  0  0  0  0  0  0  0
  185.4260  179.4930  144.5060 C   0  0  0  0  0  2  0  0  0  0  0  0
  185.9620  178.1720  144.7890 N   0  0  0  0  0  2  0  0  0  0  0  0
  190.8070  175.9970  140.5810 S   0  0  0  0  0  0  0  0  0  0  0  0
  190.6000  178.6390  143.1170 N   0  0  0  0  0  2  0  0  0  0  0  0
  192.0730  177.2630  140.3880 C   0  0  2  0  0  3  0  0  0  0  0  0
  192.2070  178.0630  141.3910 N   0  0  0  0  0  2  0  0  0  0  0  0
  190.7850  176.3970  142.3640 C   0  0  1  0  0  3  0  0  0  0  0  0
  187.1810  176.3180  143.6880 C   0  0  0  0  0  3  0  0  0  0  0  0
  191.4320  177.7000  142.4900 N   0  0  2  0  0  0  0  0  0  0  0  0
  188.3350  175.8150  143.0600 C   0  0  0  0  0  3  0  0  0  0  0  0
  188.2510  178.4920  143.9860 C   0  0  0  0  0  3  0  0  0  0  0  0
  189.4210  176.6740  142.9010 C   0  0  0  0  0  0  0  0  0  0  0  0
  189.3820  177.9660  143.3660 C   0  0  0  0  0  0  0  0  0  0  0  0
  187.1360  177.6530  144.1540 C   0  0  0  0  0  0  0  0  0  0  0  0
  192.8450  177.4910  139.1220 C   0  0  0  0  0  2  0  0  0  0  0  0
  193.3550  176.2190  138.4290 C   0  0  2  0  0  3  0  0  0  0  0  0
  191.9520  176.1120  136.3490 O   0  0  0  0  0  0  0  0  0  0  0  0
  192.3050  175.5720  137.5800 C   0  0  0  0  0  0  0  0  0  0  0  0
  191.7110  174.5460  138.0020 O   0  0  0  0  0  1  0  0  0  0  0  0
  194.0600  175.2250  139.3540 C   0  0  0  0  0  2  0  0  0  0  0  0
  195.5400  175.2970  137.3710 C   0  0  0  0  0  1  0  0  0  0  0  0
  195.2220  174.5430  138.6470 C   0  0  2  0  0  3  0  0  0  0  0  0
  195.7850  172.2990  137.8430 C   0  0  0  0  0  3  0  0  0  0  0  0
  194.8690  173.1290  138.3270 C   0  0  0  0  0  3  0  0  0  0  0  0
  196.3110  169.9890  137.6930 O   0  0  0  0  0  0  0  0  0  0  0  0
  194.1300  170.5800  136.9650 C   0  0  0  0  0  1  0  0  0  0  0  0
  195.4690  170.9080  137.5100 C   0  0  0  0  0  0  0  0  0  0  0  0
  1  6  1  6  0  0  0
  1  5  1  0  0  0  0
  2  3  1  0  0  0  0
  2  1  1  0  0  0  0
  3 29  1  6  0  0  0
  3  4  1  0  0  0  0
  4  5  1  0  0  0  0
  5 44  1  1  0  0  0
  7  8  1  6  0  0  0
  7  6  1  0  0  0  0
  9  7  1  0  0  0  0
 10  9  1  0  0  0  0
 11 10  1  0  0  0  0
 12 11  2  0  0  0  0
 15 25  1  1  0  0  0
 15 18  1  0  0  0  0
 15 16  1  0  0  0  0
 16 13  1  6  0  0  0
 16 17  1  0  0  0  0
 17 11  1  6  0  0  0
 18 14  1  6  0  0  0
 18 19  1  0  0  0  0
 19 14  1  6  0  0  0
 19 17  1  0  0  0  0
 21 24  1  0  0  0  0
 22 26  1  0  0  0  0
 22 28  1  1  0  0  0
 22 21  1  0  0  0  0
 23 20  1  1  0  0  0
 25 23  1  0  0  0  0
 25 24  1  1  0  0  0
 26 23  1  0  0  0  0
 26 20  1  1  0  0  0
 28 27  1  0  0  0  0
 30 29  1  0  0  0  0
 31 33  1  1  0  0  0
 32 38  1  1  0  0  0
 32 31  1  0  0  0  0
 34 37  1  0  0  0  0
 34 30  1  1  0  0  0
 35 32  1  0  0  0  0
 36 35  1  6  0  0  0
 36 31  1  0  0  0  0
 36 34  1  0  0  0  0
 36 37  1  0  0  0  0
 38 43  1  6  0  0  0
 38 39  1  0  0  0  0
 39 41  1  0  0  0  0
 40 39  2  0  0  0  0
 42 43  1  0  0  0  0
 44 45  1  0  0  0  0
 47 56  1  0  0  0  0
 48 58  1  6  0  0  0
 48 46  1  0  0  0  0
 48 49  1  0  0  0  0
 50 46  1  6  0  0  0
 50 52  1  0  0  0  0
 50 55  1  0  0  0  0
 51 57  1  0  0  0  0
 52 49  1  6  0  0  0
 52 47  1  0  0  0  0
 53 51  2  0  0  0  0
 54 57  2  0  0  0  0
 55 53  1  0  0  0  0
 55 56  2  0  0  0  0
 56 54  1  0  0  0  0
 57 45  1  0  0  0  0
 59 58  1  1  0  0  0
 59 63  1  0  0  0  0
 60 61  2  0  0  0  0
 61 62  1  0  0  0  0
 61 59  1  0  0  0  0
 65 64  1  6  0  0  0
 65 63  1  0  0  0  0
 66 67  2  0  0  0  0
 67 65  1  0  0  0  0
 69 70  1  0  0  0  0
 70 68  2  0  0  0  0
 70 66  1  0  0  0  0
M  END
>  <MODEL>
7

>  <REMARK>
 VINA RESULT:      -2.9      3.890      8.847
  Name = 
  24 active torsions:
  status: ('A' for Active; 'I' for Inactive)
    1  A    between atoms: C_1  and  C_25
    2  A    between atoms: C_1  and  C_34
    3  A    between atoms: C_1  and  C_62
    4  A    between atoms: C_4  and  C_29
    5  A    between atoms: C_4  and  C_33
    6  A    between atoms: C_6  and  C_8
    7  A    between atoms: N_7  and  C_36
    8  A    between atoms: N_7  and  C_69
    9  A    between atoms: C_8  and  C_11
   10  A    between atoms: C_8  and  S_48
   11  A    between atoms: C_9  and  C_44
   12  A    between atoms: C_12  and  O_27
   13  A    between atoms: C_12  and  C_41
   14  A    between atoms: C_18  and  C_62
   15  A    between atoms: C_21  and  C_61
   16  A    between atoms: C_26  and  C_29
   17  A    between atoms: O_27  and  C_53
   18  A    between atoms: C_31  and  C_34
   19  A    between atoms: C_31  and  C_58
   20  A    between atoms: C_32  and  C_44
   21  A    between atoms: C_32  and  C_53
   22  A    between atoms: C_36  and  C_65
   23  A    between atoms: C_40  and  C_67
   24  A    between atoms: C_51  and  C_57
                            x       y       z     vdW  Elec       q    Type
                         _______ _______ _______ _____ _____    ______ ____

>  <TORSDO>
F 24

$$$$
