=
 OpenBabel10222417063D

 64 70  0  0  1  0  0  0  0  0999 V2000
  179.8920  178.8490  140.2550 C   0  0  1  0  0  3  0  0  0  0  0  0
  179.4570  180.7090  141.7040 O   0  0  0  0  0  1  0  0  0  0  0  0
  179.9460  180.2990  140.6180 C   0  0  0  0  0  0  0  0  0  0  0  0
  180.5730  181.1960  139.7640 O   0  0  0  0  0  0  0  0  0  0  0  0
  180.4890  178.5720  138.8760 C   0  0  0  0  0  2  0  0  0  0  0  0
  181.4990  177.4340  138.9040 C   0  0  0  0  0  2  0  0  0  0  0  0
  183.8630  177.2480  138.1470 N   0  0  0  0  0  0  0  0  0  0  0  0
  183.2270  179.2270  139.0220 N   0  0  0  0  0  2  0  0  0  0  0  0
  182.8710  177.9690  138.7010 C   0  0  0  0  0  0  0  0  0  0  0  0
  184.5220  179.3170  138.6660 C   0  0  0  0  0  3  0  0  0  0  0  0
  184.9030  178.1000  138.1360 C   0  0  0  0  0  0  0  0  0  0  0  0
  186.2300  177.7430  137.5940 C   0  0  0  0  0  0  0  0  0  0  0  0
  187.2120  178.7420  137.3930 N   0  0  0  0  0  2  0  0  0  0  0  0
  188.0250  176.4210  136.7470 C   0  0  2  0  0  3  0  0  0  0  0  0
  188.6910  178.1210  136.6610 S   0  0  0  0  0  0  0  0  0  0  0  0
  186.6130  176.5200  137.2380 C   0  0  0  0  0  0  0  0  0  0  0  0
  185.7420  175.3850  137.3010 N   0  0  0  0  0  2  0  0  0  0  0  0
  181.5110  171.2640  136.4410 C   0  0  0  0  0  2  0  0  0  0  0  0
  180.2430  171.7300  137.1640 C   0  0  0  0  0  2  0  0  0  0  0  0
  184.7450  172.3960  137.3690 C   0  0  0  0  0  2  0  0  0  0  0  0
  179.8610  173.2950  135.3970 C   0  0  0  0  0  2  0  0  0  0  0  0
  183.6250  173.7410  134.6080 C   0  0  0  0  0  2  0  0  0  0  0  0
  182.5090  172.3250  136.3670 N   0  0  1  0  0  0  0  0  0  0  0  0
  185.4700  174.5270  136.1550 C   0  0  1  0  0  3  0  0  0  0  0  0
  181.1800  173.9240  134.9710 C   0  0  0  0  0  2  0  0  0  0  0  0
  185.8030  173.0740  136.5070 C   0  0  0  0  0  2  0  0  0  0  0  0
  184.0310  174.7430  135.6800 C   0  0  0  0  0  2  0  0  0  0  0  0
  179.8710  173.1070  136.8430 N   0  0  0  0  0  2  0  0  0  0  0  0
  183.7840  171.6210  136.4790 C   0  0  0  0  0  2  0  0  0  0  0  0
  182.3750  172.9560  135.0330 C   0  0  1  0  0  3  0  0  0  0  0  0
  188.8140  175.6470  137.6900 N   0  0  0  0  0  2  0  0  0  0  0  0
  189.9520  176.4650  138.0700 C   0  0  0  0  0  2  0  0  0  0  0  0
  191.4790  175.5630  137.7380 P   0  0  0  0  0  2  0  0  0  0  0  0
  191.4040  174.0670  137.5290 O   0  0  0  0  0  1  0  0  0  0  0  0
  193.1350  176.2470  138.0100 C   0  0  0  0  0 15  0  0  0  0  0  0
  190.5410  175.9410  139.1580 O   0  0  0  0  0  0  0  0  0  0  0  0
  180.5350  178.0280  141.2740 N   0  0  0  0  0  2  0  0  0  0  0  0
  183.4690  179.4850  143.1120 N   0  0  0  0  0  2  0  0  0  0  0  0
  182.1580  178.9720  142.8720 C   0  0  0  0  0  0  0  0  0  0  0  0
  181.3350  178.8500  143.8200 O   0  0  0  0  0  0  0  0  0  0  0  0
  181.7820  178.6080  141.5450 N   0  0  0  0  0  2  0  0  0  0  0  0
  183.9090  179.9540  144.4180 C   0  0  0  0  0  2  0  0  0  0  0  0
  183.5290  178.9840  145.4540 N   0  0  0  0  0  2  0  0  0  0  0  0
  184.6510  178.2770  145.9530 N   0  0  0  0  0  0  0  0  0  0  0  0
  184.5190  178.0610  147.3900 C   0  0  0  0  0  1  0  0  0  0  0  0
  185.8740  179.0290  145.6870 C   0  0  0  0  0  2  0  0  0  0  0  0
  186.8940  178.1370  144.9980 C   0  0  0  0  0  2  0  0  0  0  0  0
  187.8830  178.2620  147.1840 O   0  0  0  0  0  0  0  0  0  0  0  0
  189.9550  177.2790  147.8680 C   0  0  0  0  0  2  0  0  0  0  0  0
  190.1510  176.6400  146.4890 C   0  0  1  0  0  3  0  0  0  0  0  0
  189.7770  178.4460  144.9320 O   0  0  0  0  0  0  0  0  0  0  0  0
  189.2130  177.2500  145.4350 C   0  0  2  0  0  3  0  0  0  0  0  0
  190.8190  178.1510  144.0690 N   0  0  2  0  0  0  0  0  0  0  0  0
  188.4670  177.4450  148.1640 C   0  0  0  0  0  2  0  0  0  0  0  0
  191.5330  175.8480  143.7260 C   0  0  0  0  0  2  0  0  0  0  0  0
  187.8120  177.4800  146.0190 C   0  0  2  0  0  3  0  0  0  0  0  0
  190.3520  177.6920  142.7530 C   0  0  1  0  0  3  0  0  0  0  0  0
  191.6040  176.8480  146.0670 C   0  0  2  0  0  3  0  0  0  0  0  0
  191.7510  177.1090  144.5590 C   0  0  2  0  0  3  0  0  0  0  0  0
  192.3910  175.7670  146.4710 O   0  0  0  0  0  1  0  0  0  0  0  0
  190.4430  176.1820  142.7320 C   0  0  0  0  0  2  0  0  0  0  0  0
  188.9610  178.1860  142.3680 C   0  0  1  0  0  3  0  0  0  0  0  0
  188.9210  178.4450  140.9220 N   0  0  0  0  0  2  0  0  0  0  0  0
  188.3220  177.2230  141.4790 C   0  0  0  0  0  2  0  0  0  0  0  0
  1  5  1  6  0  0  0
  1  3  1  0  0  0  0
  1 37  1  0  0  0  0
  3  2  1  0  0  0  0
  4  3  2  0  0  0  0
  5  6  1  0  0  0  0
  7  9  2  0  0  0  0
  9  6  1  0  0  0  0
  9  8  1  0  0  0  0
 10  8  1  0  0  0  0
 11  7  1  0  0  0  0
 11 10  2  0  0  0  0
 12 11  1  0  0  0  0
 13 12  1  0  0  0  0
 14 16  1  0  0  0  0
 14 31  1  1  0  0  0
 15 14  1  0  0  0  0
 15 13  1  0  0  0  0
 16 17  1  0  0  0  0
 16 12  2  0  0  0  0
 18 19  1  0  0  0  0
 21 28  1  0  0  0  0
 22 27  1  0  0  0  0
 23 18  1  6  0  0  0
 23 29  1  0  0  0  0
 24 26  1  0  0  0  0
 24 17  1  1  0  0  0
 25 30  1  0  0  0  0
 25 21  1  0  0  0  0
 26 20  1  0  0  0  0
 27 24  1  0  0  0  0
 28 19  1  0  0  0  0
 29 20  1  0  0  0  0
 30 22  1  1  0  0  0
 30 23  1  0  0  0  0
 31 32  1  0  0  0  0
 32 36  1  0  0  0  0
 33 36  1  0  0  0  0
 34 33  1  0  0  0  0
 37 41  1  0  0  0  0
 38 42  1  0  0  0  0
 39 38  1  0  0  0  0
 39 40  2  0  0  0  0
 41 39  1  0  0  0  0
 42 43  1  0  0  0  0
 43 44  1  0  0  0  0
 44 45  1  0  0  0  0
 46 44  1  0  0  0  0
 47 46  1  0  0  0  0
 48 54  1  0  0  0  0
 49 54  1  0  0  0  0
 50 49  1  1  0  0  0
 52 51  1  1  0  0  0
 52 56  1  0  0  0  0
 52 50  1  0  0  0  0
 53 59  1  0  0  0  0
 53 51  1  1  0  0  0
 56 47  1  6  0  0  0
 56 48  1  0  0  0  0
 57 61  1  1  0  0  0
 57 53  1  0  0  0  0
 58 60  1  6  0  0  0
 58 50  1  0  0  0  0
 59 55  1  6  0  0  0
 59 58  1  0  0  0  0
 61 55  1  0  0  0  0
 62 64  1  6  0  0  0
 62 57  1  0  0  0  0
 63 64  1  0  0  0  0
 63 62  1  0  0  0  0
M  END
>  <MODEL>
1

>  <REMARK>
 VINA RESULT:      -8.4      0.000      0.000
  Name = 
  18 active torsions:
  status: ('A' for Active; 'I' for Inactive)
    1  A    between atoms: C_1  and  C_41
    2  A    between atoms: C_1  and  C_47
    3  A    between atoms: C_2  and  C_53
    4  A    between atoms: C_5  and  C_64
    5  A    between atoms: C_8  and  N_28
    6  A    between atoms: C_9  and  N_23
    7  A    between atoms: C_9  and  N_42
    8  A    between atoms: C_22  and  C_39
    9  A    between atoms: C_22  and  N_40
   10  A    between atoms: C_22  and  C_47
   11  A    between atoms: N_28  and  C_38
   12  A    between atoms: C_29  and  N_33
   13  A    between atoms: N_33  and  C_61
   14  A    between atoms: N_34  and  N_40
   15  A    between atoms: N_42  and  N_44
   16  A    between atoms: C_43  and  N_44
   17  A    between atoms: C_43  and  C_60
   18  A    between atoms: C_51  and  C_60
                            x       y       z     vdW  Elec       q    Type
                         _______ _______ _______ _____ _____    ______ ____

>  <TORSDO>
F 18

$$$$
=
 OpenBabel10222417063D

 64 70  0  0  1  0  0  0  0  0999 V2000
  188.4840  177.5520  136.8710 C   0  0  1  0  0  3  0  0  0  0  0  0
  189.1130  176.1800  138.7340 O   0  0  0  0  0  1  0  0  0  0  0  0
  189.4060  177.1410  137.9750 C   0  0  0  0  0  0  0  0  0  0  0  0
  190.6140  177.8040  138.1400 O   0  0  0  0  0  0  0  0  0  0  0  0
  187.6700  176.3800  136.3260 C   0  0  0  0  0  2  0  0  0  0  0  0
  186.5430  175.9760  137.2660 C   0  0  0  0  0  2  0  0  0  0  0  0
  184.0830  175.6290  137.1050 N   0  0  0  0  0  0  0  0  0  0  0  0
  185.1020  176.5480  135.3140 N   0  0  0  0  0  2  0  0  0  0  0  0
  185.2400  176.0410  136.5540 C   0  0  0  0  0  0  0  0  0  0  0  0
  183.7860  176.4450  135.0480 C   0  0  0  0  0  3  0  0  0  0  0  0
  183.1730  175.8780  136.1480 C   0  0  0  0  0  0  0  0  0  0  0  0
  181.7320  175.5950  136.3150 C   0  0  0  0  0  0  0  0  0  0  0  0
  181.2310  174.2890  136.0980 N   0  0  0  0  0  0  0  0  0  0  0  0
  179.4190  175.9370  136.7820 C   0  0  2  0  0  3  0  0  0  0  0  0
  179.4800  174.1840  136.2660 S   0  0  0  0  0  0  0  0  0  0  0  0
  180.8050  176.4890  136.6460 C   0  0  2  0  0  3  0  0  0  0  0  0
  181.0990  177.8770  136.8420 N   0  0  0  0  0  2  0  0  0  0  0  0
  181.2680  183.7910  137.6260 C   0  0  0  0  0  2  0  0  0  0  0  0
  181.6330  184.4360  136.2850 C   0  0  0  0  0  2  0  0  0  0  0  0
  182.0990  180.4280  138.4000 C   0  0  0  0  0  2  0  0  0  0  0  0
  179.3980  184.0390  135.5330 C   0  0  0  0  0  2  0  0  0  0  0  0
  178.9340  180.8740  137.7150 C   0  0  0  0  0  2  0  0  0  0  0  0
  180.9400  182.3780  137.4720 N   0  0  1  0  0  0  0  0  0  0  0  0
  180.3050  178.7440  137.7010 C   0  0  1  0  0  3  0  0  0  0  0  0
  178.9310  182.6700  136.0060 C   0  0  0  0  0  2  0  0  0  0  0  0
  181.1800  179.2930  138.8320 C   0  0  0  0  0  2  0  0  0  0  0  0
  179.6240  179.8240  136.8550 C   0  0  0  0  0  2  0  0  0  0  0  0
  180.8090  183.9600  135.1740 N   0  0  0  0  0  2  0  0  0  0  0  0
  181.4350  181.7640  138.7010 C   0  0  0  0  0  2  0  0  0  0  0  0
  179.4630  182.2810  137.3960 C   0  0  1  0  0  3  0  0  0  0  0  0
  179.0010  176.0100  138.1730 N   0  0  0  0  0  2  0  0  0  0  0  0
  179.2860  174.7190  138.7740 C   0  0  0  0  0  2  0  0  0  0  0  0
  179.1530  174.8500  140.5690 P   0  0  0  0  0  2  0  0  0  0  0  0
  179.1800  176.2260  141.1970 O   0  0  0  0  0  1  0  0  0  0  0  0
  179.3700  173.4530  141.7020 C   0  0  0  0  0 15  0  0  0  0  0  0
  180.4620  174.7730  139.4210 O   0  0  0  0  0  0  0  0  0  0  0  0
  187.6100  178.6400  137.2950 N   0  0  0  0  0  2  0  0  0  0  0  0
  186.1770  178.6910  140.7670 N   0  0  0  0  0  2  0  0  0  0  0  0
  186.2700  178.8660  139.3520 C   0  0  0  0  0  0  0  0  0  0  0  0
  185.2840  179.2950  138.6940 O   0  0  0  0  0  0  0  0  0  0  0  0
  187.4960  178.5590  138.6890 N   0  0  0  0  0  2  0  0  0  0  0  0
  184.9940  179.0540  141.5330 C   0  0  0  0  0  2  0  0  0  0  0  0
  184.5150  177.8950  142.2980 N   0  0  0  0  0  2  0  0  0  0  0  0
  184.8750  177.9790  143.6660 N   0  0  0  0  0  0  0  0  0  0  0  0
  184.9530  179.3750  144.0860 C   0  0  0  0  0  1  0  0  0  0  0  0
  186.1680  177.3350  143.8820 C   0  0  0  0  0  2  0  0  0  0  0  0
  187.1110  178.2890  144.5960 C   0  0  0  0  0  2  0  0  0  0  0  0
  187.4380  178.5340  146.9630 O   0  0  0  0  0  0  0  0  0  0  0  0
  189.1410  177.4910  148.2810 C   0  0  0  0  0  2  0  0  0  0  0  0
  189.6730  176.7310  147.0620 C   0  0  1  0  0  3  0  0  0  0  0  0
  189.9070  178.4220  145.3560 O   0  0  0  0  0  0  0  0  0  0  0  0
  189.1290  177.3060  145.7440 C   0  0  2  0  0  3  0  0  0  0  0  0
  191.1260  177.9970  144.8550 N   0  0  2  0  0  0  0  0  0  0  0  0
  187.6490  177.7670  148.1200 C   0  0  0  0  0  2  0  0  0  0  0  0
  191.7230  175.6360  144.8770 C   0  0  0  0  0  2  0  0  0  0  0  0
  187.6420  177.6650  145.8780 C   0  0  2  0  0  3  0  0  0  0  0  0
  191.0220  177.4600  143.4900 C   0  0  1  0  0  3  0  0  0  0  0  0
  191.1980  176.8180  147.0710 C   0  0  2  0  0  3  0  0  0  0  0  0
  191.7920  176.9460  145.6590 C   0  0  2  0  0  3  0  0  0  0  0  0
  191.7470  175.7300  147.7530 O   0  0  0  0  0  1  0  0  0  0  0  0
  190.9940  175.9510  143.5900 C   0  0  0  0  0  2  0  0  0  0  0  0
  189.8430  178.0010  142.6870 C   0  0  1  0  0  3  0  0  0  0  0  0
  190.1800  177.9760  141.2560 N   0  0  0  0  0  2  0  0  0  0  0  0
  189.3010  176.9500  141.8340 C   0  0  0  0  0  2  0  0  0  0  0  0
  1  5  1  1  0  0  0
  1 37  1  0  0  0  0
  1  3  1  0  0  0  0
  3  4  2  0  0  0  0
  3  2  1  0  0  0  0
  5  6  1  0  0  0  0
  8  9  1  0  0  0  0
  9  7  2  0  0  0  0
  9  6  1  0  0  0  0
 10  8  1  0  0  0  0
 10 11  2  0  0  0  0
 11 12  1  0  0  0  0
 11  7  1  0  0  0  0
 12 16  1  0  0  0  0
 13 15  1  0  0  0  0
 13 12  2  0  0  0  0
 14 31  1  1  0  0  0
 15 14  1  0  0  0  0
 16 14  1  0  0  0  0
 16 17  1  6  0  0  0
 19 18  1  0  0  0  0
 20 29  1  0  0  0  0
 20 26  1  0  0  0  0
 21 25  1  0  0  0  0
 23 18  1  1  0  0  0
 23 29  1  0  0  0  0
 24 17  1  6  0  0  0
 24 26  1  0  0  0  0
 27 24  1  0  0  0  0
 27 22  1  0  0  0  0
 28 21  1  0  0  0  0
 28 19  1  0  0  0  0
 30 25  1  6  0  0  0
 30 23  1  0  0  0  0
 30 22  1  0  0  0  0
 31 32  1  0  0  0  0
 32 36  1  0  0  0  0
 33 34  1  0  0  0  0
 36 33  1  0  0  0  0
 37 41  1  0  0  0  0
 38 42  1  0  0  0  0
 39 38  1  0  0  0  0
 40 39  2  0  0  0  0
 41 39  1  0  0  0  0
 42 43  1  0  0  0  0
 43 44  1  0  0  0  0
 44 46  1  0  0  0  0
 44 45  1  0  0  0  0
 46 47  1  0  0  0  0
 48 54  1  0  0  0  0
 50 58  1  0  0  0  0
 50 49  1  1  0  0  0
 52 51  1  1  0  0  0
 52 56  1  0  0  0  0
 52 50  1  0  0  0  0
 53 51  1  1  0  0  0
 53 59  1  0  0  0  0
 54 49  1  0  0  0  0
 56 47  1  6  0  0  0
 56 48  1  0  0  0  0
 57 61  1  1  0  0  0
 57 53  1  0  0  0  0
 58 60  1  6  0  0  0
 59 55  1  6  0  0  0
 59 58  1  0  0  0  0
 61 55  1  0  0  0  0
 62 64  1  6  0  0  0
 62 57  1  0  0  0  0
 63 64  1  0  0  0  0
 63 62  1  0  0  0  0
M  END
>  <MODEL>
2

>  <REMARK>
 VINA RESULT:      -7.9      3.390      7.188
  Name = 
  18 active torsions:
  status: ('A' for Active; 'I' for Inactive)
    1  A    between atoms: C_1  and  C_41
    2  A    between atoms: C_1  and  C_47
    3  A    between atoms: C_2  and  C_53
    4  A    between atoms: C_5  and  C_64
    5  A    between atoms: C_8  and  N_28
    6  A    between atoms: C_9  and  N_23
    7  A    between atoms: C_9  and  N_42
    8  A    between atoms: C_22  and  C_39
    9  A    between atoms: C_22  and  N_40
   10  A    between atoms: C_22  and  C_47
   11  A    between atoms: N_28  and  C_38
   12  A    between atoms: C_29  and  N_33
   13  A    between atoms: N_33  and  C_61
   14  A    between atoms: N_34  and  N_40
   15  A    between atoms: N_42  and  N_44
   16  A    between atoms: C_43  and  N_44
   17  A    between atoms: C_43  and  C_60
   18  A    between atoms: C_51  and  C_60
                            x       y       z     vdW  Elec       q    Type
                         _______ _______ _______ _____ _____    ______ ____

>  <TORSDO>
F 18

$$$$
=
 OpenBabel10222417063D

 64 70  0  0  1  0  0  0  0  0999 V2000
  193.5080  174.6170  135.6310 C   0  0  1  0  0  3  0  0  0  0  0  0
  194.3430  173.6520  137.6610 O   0  0  0  0  0  1  0  0  0  0  0  0
  194.4580  174.5490  136.7850 C   0  0  0  0  0  0  0  0  0  0  0  0
  195.4970  175.4650  136.8700 O   0  0  0  0  0  0  0  0  0  0  0  0
  192.5680  173.4140  135.5800 C   0  0  0  0  0  2  0  0  0  0  0  0
  191.3660  173.6610  134.6800 C   0  0  0  0  0  2  0  0  0  0  0  0
  188.9370  173.1320  134.8060 N   0  0  0  0  0  0  0  0  0  0  0  0
  190.0490  173.2790  136.7630 N   0  0  0  0  0  2  0  0  0  0  0  0
  190.1100  173.3680  135.4200 C   0  0  0  0  0  0  0  0  0  0  0  0
  188.7620  172.9820  137.0270 C   0  0  0  0  0  3  0  0  0  0  0  0
  188.0900  172.8980  135.8230 C   0  0  0  0  0  0  0  0  0  0  0  0
  186.6620  172.5730  135.6240 C   0  0  0  0  0  0  0  0  0  0  0  0
  186.2840  171.5200  134.7560 N   0  0  0  0  0  0  0  0  0  0  0  0
  184.2900  172.6610  135.8460 C   0  0  2  0  0  3  0  0  0  0  0  0
  184.5370  171.3520  134.5940 S   0  0  0  0  0  0  0  0  0  0  0  0
  185.6410  173.2100  136.1880 C   0  0  2  0  0  3  0  0  0  0  0  0
  185.8120  174.3450  137.0440 N   0  0  0  0  0  2  0  0  0  0  0  0
  181.6530  178.5950  137.5600 C   0  0  0  0  0  2  0  0  0  0  0  0
  180.9670  178.4220  138.9190 C   0  0  0  0  0  2  0  0  0  0  0  0
  183.3210  175.9200  135.9280 C   0  0  0  0  0  2  0  0  0  0  0  0
  182.8850  179.3930  139.9640 C   0  0  0  0  0  2  0  0  0  0  0  0
  185.3460  178.1100  137.2660 C   0  0  0  0  0  2  0  0  0  0  0  0
  182.8570  177.7770  137.4580 N   0  0  1  0  0  0  0  0  0  0  0  0
  185.7910  175.7180  136.5590 C   0  0  1  0  0  3  0  0  0  0  0  0
  184.1520  178.8770  139.2980 C   0  0  0  0  0  2  0  0  0  0  0  0
  184.7600  175.8530  135.4330 C   0  0  0  0  0  2  0  0  0  0  0  0
  185.5680  176.6770  137.7310 C   0  0  0  0  0  2  0  0  0  0  0  0
  181.9100  178.3110  140.0310 N   0  0  0  0  0  2  0  0  0  0  0  0
  182.8940  177.3750  136.0550 C   0  0  0  0  0  2  0  0  0  0  0  0
  184.0070  178.6550  137.7820 C   0  0  1  0  0  3  0  0  0  0  0  0
  183.6870  172.0770  137.0330 N   0  0  0  0  0  2  0  0  0  0  0  0
  182.4970  171.3640  136.6040 C   0  0  0  0  0  2  0  0  0  0  0  0
  181.0630  172.4510  136.7410 P   0  0  0  0  0  2  0  0  0  0  0  0
  181.1790  173.6960  137.5920 O   0  0  0  0  0  1  0  0  0  0  0  0
  179.3860  171.9770  136.2460 C   0  0  0  0  0 15  0  0  0  0  0  0
  181.7100  171.1220  137.6650 O   0  0  0  0  0  0  0  0  0  0  0  0
  192.7550  175.8650  135.6430 N   0  0  0  0  0  2  0  0  0  0  0  0
  190.6140  176.6590  138.6260 N   0  0  0  0  0  2  0  0  0  0  0  0
  191.0170  176.5260  137.2620 C   0  0  0  0  0  0  0  0  0  0  0  0
  190.2160  176.8050  136.3280 O   0  0  0  0  0  0  0  0  0  0  0  0
  192.3400  176.0840  136.9640 N   0  0  0  0  0  2  0  0  0  0  0  0
  189.3120  177.1780  139.0200 C   0  0  0  0  0  2  0  0  0  0  0  0
  189.3940  177.7800  140.3570 N   0  0  0  0  0  2  0  0  0  0  0  0
  190.2200  177.0250  141.2270 N   0  0  0  0  0  0  0  0  0  0  0  0
  189.4510  175.9580  141.8590 C   0  0  0  0  0  1  0  0  0  0  0  0
  190.7840  177.8930  142.2570 C   0  0  0  0  0  2  0  0  0  0  0  0
  189.6750  178.4490  143.1330 C   0  0  0  0  0  2  0  0  0  0  0  0
  190.9250  177.2220  144.7780 O   0  0  0  0  0  0  0  0  0  0  0  0
  190.3430  176.9280  147.0810 C   0  0  0  0  0  2  0  0  0  0  0  0
  189.1040  177.8150  146.9220 C   0  0  1  0  0  3  0  0  0  0  0  0
  187.9940  176.9490  144.9610 O   0  0  0  0  0  0  0  0  0  0  0  0
  188.7490  178.0440  145.4440 C   0  0  2  0  0  3  0  0  0  0  0  0
  186.7010  177.0130  145.4500 N   0  0  2  0  0  0  0  0  0  0  0  0
  191.4210  177.3450  146.0850 C   0  0  0  0  0  2  0  0  0  0  0  0
  186.0570  178.7490  147.0330 C   0  0  0  0  0  2  0  0  0  0  0  0
  190.0150  178.2790  144.6070 C   0  0  2  0  0  3  0  0  0  0  0  0
  185.8820  178.0200  144.7580 C   0  0  1  0  0  3  0  0  0  0  0  0
  187.9350  177.1370  147.6330 C   0  0  2  0  0  3  0  0  0  0  0  0
  186.6010  177.3290  146.8940 C   0  0  2  0  0  3  0  0  0  0  0  0
  187.8470  177.5760  148.9560 O   0  0  0  0  0  1  0  0  0  0  0  0
  185.8420  179.2580  145.6250 C   0  0  0  0  0  2  0  0  0  0  0  0
  186.3370  178.3330  143.3350 C   0  0  1  0  0  3  0  0  0  0  0  0
  185.2560  178.0010  142.3970 N   0  0  0  0  0  2  0  0  0  0  0  0
  185.5130  179.3980  142.7760 C   0  0  0  0  0  2  0  0  0  0  0  0
  1  5  1  1  0  0  0
  1 37  1  0  0  0  0
  1  3  1  0  0  0  0
  3  4  2  0  0  0  0
  3  2  1  0  0  0  0
  6  9  1  0  0  0  0
  6  5  1  0  0  0  0
  7  9  2  0  0  0  0
  7 11  1  0  0  0  0
  8 10  1  0  0  0  0
  9  8  1  0  0  0  0
 11 10  2  0  0  0  0
 12 11  1  0  0  0  0
 12 16  1  0  0  0  0
 13 12  2  0  0  0  0
 14 16  1  0  0  0  0
 14 31  1  1  0  0  0
 15 13  1  0  0  0  0
 15 14  1  0  0  0  0
 16 17  1  6  0  0  0
 18 19  1  0  0  0  0
 19 28  1  0  0  0  0
 20 29  1  0  0  0  0
 21 28  1  0  0  0  0
 22 27  1  0  0  0  0
 23 29  1  6  0  0  0
 23 18  1  0  0  0  0
 23 30  1  0  0  0  0
 24 17  1  1  0  0  0
 24 27  1  0  0  0  0
 25 21  1  0  0  0  0
 26 20  1  0  0  0  0
 26 24  1  0  0  0  0
 30 22  1  1  0  0  0
 30 25  1  0  0  0  0
 32 31  1  0  0  0  0
 32 36  1  0  0  0  0
 33 34  1  0  0  0  0
 33 36  1  0  0  0  0
 37 41  1  0  0  0  0
 38 42  1  0  0  0  0
 39 38  1  0  0  0  0
 40 39  2  0  0  0  0
 41 39  1  0  0  0  0
 42 43  1  0  0  0  0
 43 44  1  0  0  0  0
 44 45  1  0  0  0  0
 44 46  1  0  0  0  0
 46 47  1  0  0  0  0
 48 54  1  0  0  0  0
 50 49  1  6  0  0  0
 50 58  1  0  0  0  0
 52 51  1  6  0  0  0
 52 50  1  0  0  0  0
 53 51  1  6  0  0  0
 53 59  1  0  0  0  0
 54 49  1  0  0  0  0
 56 47  1  6  0  0  0
 56 48  1  0  0  0  0
 56 52  1  0  0  0  0
 57 53  1  0  0  0  0
 57 61  1  1  0  0  0
 58 60  1  1  0  0  0
 59 55  1  6  0  0  0
 59 58  1  0  0  0  0
 61 55  1  0  0  0  0
 62 64  1  1  0  0  0
 62 57  1  0  0  0  0
 63 64  1  0  0  0  0
 63 62  1  0  0  0  0
M  END
>  <MODEL>
3

>  <REMARK>
 VINA RESULT:      -7.5      3.148      8.122
  Name = 
  18 active torsions:
  status: ('A' for Active; 'I' for Inactive)
    1  A    between atoms: C_1  and  C_41
    2  A    between atoms: C_1  and  C_47
    3  A    between atoms: C_2  and  C_53
    4  A    between atoms: C_5  and  C_64
    5  A    between atoms: C_8  and  N_28
    6  A    between atoms: C_9  and  N_23
    7  A    between atoms: C_9  and  N_42
    8  A    between atoms: C_22  and  C_39
    9  A    between atoms: C_22  and  N_40
   10  A    between atoms: C_22  and  C_47
   11  A    between atoms: N_28  and  C_38
   12  A    between atoms: C_29  and  N_33
   13  A    between atoms: N_33  and  C_61
   14  A    between atoms: N_34  and  N_40
   15  A    between atoms: N_42  and  N_44
   16  A    between atoms: C_43  and  N_44
   17  A    between atoms: C_43  and  C_60
   18  A    between atoms: C_51  and  C_60
                            x       y       z     vdW  Elec       q    Type
                         _______ _______ _______ _____ _____    ______ ____

>  <TORSDO>
F 18

$$$$
=
 OpenBabel10222417063D

 64 70  0  0  1  0  0  0  0  0999 V2000
  189.8660  176.8650  142.7770 C   0  0  1  0  0  3  0  0  0  0  0  0
  190.2710  177.3730  145.0850 O   0  0  0  0  0  1  0  0  0  0  0  0
  190.1160  177.8060  143.9130 C   0  0  0  0  0  0  0  0  0  0  0  0
  190.2120  179.1680  143.6640 O   0  0  0  0  0  0  0  0  0  0  0  0
  188.4790  177.0490  142.1630 C   0  0  0  0  0  2  0  0  0  0  0  0
  187.5600  177.8720  143.0550 C   0  0  0  0  0  2  0  0  0  0  0  0
  185.1230  177.9620  142.5560 N   0  0  0  0  0  0  0  0  0  0  0  0
  186.4760  179.2070  141.2500 N   0  0  0  0  0  2  0  0  0  0  0  0
  186.3830  178.3400  142.2760 C   0  0  0  0  0  0  0  0  0  0  0  0
  185.2060  179.3860  140.8390 C   0  0  0  0  0  3  0  0  0  0  0  0
  184.3870  178.6180  141.6420 C   0  0  0  0  0  0  0  0  0  0  0  0
  182.9140  178.5170  141.5710 C   0  0  0  0  0  0  0  0  0  0  0  0
  182.1030  179.3190  142.4100 N   0  0  0  0  0  2  0  0  0  0  0  0
  180.7450  177.8140  140.8740 C   0  0  2  0  0  3  0  0  0  0  0  0
  180.3820  178.9860  142.2300 S   0  0  0  0  0  0  0  0  0  0  0  0
  182.2360  177.6970  140.7760 C   0  0  0  0  0  0  0  0  0  0  0  0
  182.8740  176.7590  139.9010 N   0  0  0  0  0  2  0  0  0  0  0  0
  186.4000  174.7340  135.5310 C   0  0  0  0  0  2  0  0  0  0  0  0
  187.1130  173.4780  136.0430 C   0  0  0  0  0  2  0  0  0  0  0  0
  185.1120  177.2080  137.7280 C   0  0  0  0  0  2  0  0  0  0  0  0
  185.0840  172.2510  135.7340 C   0  0  0  0  0  2  0  0  0  0  0  0
  182.8090  175.3140  136.3880 C   0  0  0  0  0  2  0  0  0  0  0  0
  185.3210  175.1420  136.4260 N   0  0  1  0  0  0  0  0  0  0  0  0
  182.6990  176.7730  138.4560 C   0  0  1  0  0  3  0  0  0  0  0  0
  183.8970  173.0980  136.1700 C   0  0  0  0  0  2  0  0  0  0  0  0
  183.6930  177.7530  137.8240 C   0  0  0  0  0  2  0  0  0  0  0  0
  182.7940  175.3460  137.9100 C   0  0  0  0  0  2  0  0  0  0  0  0
  186.2020  172.5000  136.6360 N   0  0  0  0  0  2  0  0  0  0  0  0
  185.3310  176.6000  136.3500 C   0  0  0  0  0  2  0  0  0  0  0  0
  184.0620  174.5970  135.8650 C   0  0  1  0  0  3  0  0  0  0  0  0
  180.2160  178.3470  139.6290 N   0  0  0  0  0  2  0  0  0  0  0  0
  180.2410  179.7950  139.7380 C   0  0  0  0  0  2  0  0  0  0  0  0
  179.5560  180.5220  138.2350 P   0  0  0  0  0  2  0  0  0  0  0  0
  179.4430  179.6560  137.0000 O   0  0  0  0  0  1  0  0  0  0  0  0
  179.3440  182.3040  137.9820 C   0  0  0  0  0 15  0  0  0  0  0  0
  181.1560  180.2950  138.8900 O   0  0  0  0  0  0  0  0  0  0  0  0
  190.9040  176.9810  141.7600 N   0  0  0  0  0  2  0  0  0  0  0  0
  189.4730  177.9530  138.4250 N   0  0  0  0  0  2  0  0  0  0  0  0
  190.0910  177.1580  139.4390 C   0  0  0  0  0  0  0  0  0  0  0  0
  190.3950  175.9550  139.2130 O   0  0  0  0  0  0  0  0  0  0  0  0
  190.3710  177.7420  140.7110 N   0  0  0  0  0  2  0  0  0  0  0  0
  189.2240  177.4620  137.0780 C   0  0  0  0  0  2  0  0  0  0  0  0
  190.2830  176.5260  136.6800 N   0  0  0  0  0  2  0  0  0  0  0  0
  190.2760  176.2820  135.2840 N   0  0  0  0  0  0  0  0  0  0  0  0
  189.0720  176.8390  134.6760 C   0  0  0  0  0  1  0  0  0  0  0  0
  190.3280  174.8450  135.0280 C   0  0  0  0  0  2  0  0  0  0  0  0
  191.5970  174.2560  135.6210 C   0  0  0  0  0  2  0  0  0  0  0  0
  190.9610  171.9460  135.4400 O   0  0  0  0  0  0  0  0  0  0  0  0
  192.4070  170.1060  134.9400 C   0  0  0  0  0  2  0  0  0  0  0  0
  193.6060  171.0450  134.7700 C   0  0  1  0  0  3  0  0  0  0  0  0
  193.5610  172.4380  136.7400 O   0  0  0  0  0  0  0  0  0  0  0  0
  193.3270  172.4430  135.3450 C   0  0  2  0  0  3  0  0  0  0  0  0
  194.9230  172.4310  136.9910 N   0  0  2  0  0  0  0  0  0  0  0  0
  191.1130  170.8370  134.5940 C   0  0  0  0  0  2  0  0  0  0  0  0
  196.5220  172.2780  135.1600 C   0  0  0  0  0  2  0  0  0  0  0  0
  191.9000  172.8970  135.0060 C   0  0  2  0  0  3  0  0  0  0  0  0
  195.5460  173.7460  136.7820 C   0  0  1  0  0  3  0  0  0  0  0  0
  194.8050  170.4250  135.4850 C   0  0  2  0  0  3  0  0  0  0  0  0
  195.6980  171.4760  136.1650 C   0  0  2  0  0  3  0  0  0  0  0  0
  195.5420  169.6300  134.6040 O   0  0  0  0  0  1  0  0  0  0  0  0
  196.2060  173.7330  135.4220 C   0  0  0  0  0  2  0  0  0  0  0  0
  194.5950  174.9280  136.9450 C   0  0  1  0  0  3  0  0  0  0  0  0
  195.3780  176.1630  137.0920 N   0  0  0  0  0  2  0  0  0  0  0  0
  194.7340  175.8350  135.8120 C   0  0  0  0  0  2  0  0  0  0  0  0
  1  5  1  6  0  0  0
  1  3  1  0  0  0  0
  3  2  1  0  0  0  0
  4  3  2  0  0  0  0
  5  6  1  0  0  0  0
  8  9  1  0  0  0  0
  9  7  2  0  0  0  0
  9  6  1  0  0  0  0
 10  8  1  0  0  0  0
 10 11  2  0  0  0  0
 11  7  1  0  0  0  0
 12 11  1  0  0  0  0
 12 13  1  0  0  0  0
 14 31  1  6  0  0  0
 14 15  1  0  0  0  0
 15 13  1  0  0  0  0
 16 14  1  0  0  0  0
 16 12  2  0  0  0  0
 17 16  1  0  0  0  0
 18 19  1  0  0  0  0
 19 28  1  0  0  0  0
 20 26  1  0  0  0  0
 21 25  1  0  0  0  0
 21 28  1  0  0  0  0
 22 27  1  0  0  0  0
 23 18  1  6  0  0  0
 24 17  1  1  0  0  0
 26 24  1  0  0  0  0
 27 24  1  0  0  0  0
 29 23  1  0  0  0  0
 29 20  1  0  0  0  0
 30 25  1  1  0  0  0
 30 22  1  0  0  0  0
 30 23  1  0  0  0  0
 31 32  1  0  0  0  0
 33 36  1  0  0  0  0
 34 33  1  0  0  0  0
 36 32  1  0  0  0  0
 37  1  1  0  0  0  0
 38 39  1  0  0  0  0
 39 41  1  0  0  0  0
 40 39  2  0  0  0  0
 41 37  1  0  0  0  0
 42 38  1  0  0  0  0
 43 42  1  0  0  0  0
 44 43  1  0  0  0  0
 45 44  1  0  0  0  0
 46 44  1  0  0  0  0
 46 47  1  0  0  0  0
 50 49  1  1  0  0  0
 50 52  1  0  0  0  0
 50 58  1  0  0  0  0
 52 51  1  1  0  0  0
 53 51  1  6  0  0  0
 54 49  1  0  0  0  0
 54 48  1  0  0  0  0
 55 61  1  0  0  0  0
 56 52  1  0  0  0  0
 56 48  1  0  0  0  0
 56 47  1  1  0  0  0
 57 61  1  6  0  0  0
 57 62  1  0  0  0  0
 57 53  1  0  0  0  0
 58 60  1  6  0  0  0
 58 59  1  0  0  0  0
 59 55  1  6  0  0  0
 59 53  1  0  0  0  0
 62 64  1  6  0  0  0
 62 63  1  0  0  0  0
 64 63  1  0  0  0  0
M  END
>  <MODEL>
4

>  <REMARK>
 VINA RESULT:      -6.0      3.798      9.461
  Name = 
  18 active torsions:
  status: ('A' for Active; 'I' for Inactive)
    1  A    between atoms: C_1  and  C_41
    2  A    between atoms: C_1  and  C_47
    3  A    between atoms: C_2  and  C_53
    4  A    between atoms: C_5  and  C_64
    5  A    between atoms: C_8  and  N_28
    6  A    between atoms: C_9  and  N_23
    7  A    between atoms: C_9  and  N_42
    8  A    between atoms: C_22  and  C_39
    9  A    between atoms: C_22  and  N_40
   10  A    between atoms: C_22  and  C_47
   11  A    between atoms: N_28  and  C_38
   12  A    between atoms: C_29  and  N_33
   13  A    between atoms: N_33  and  C_61
   14  A    between atoms: N_34  and  N_40
   15  A    between atoms: N_42  and  N_44
   16  A    between atoms: C_43  and  N_44
   17  A    between atoms: C_43  and  C_60
   18  A    between atoms: C_51  and  C_60
                            x       y       z     vdW  Elec       q    Type
                         _______ _______ _______ _____ _____    ______ ____

>  <TORSDO>
F 18

$$$$
=
 OpenBabel10222417063D

 64 70  0  0  1  0  0  0  0  0999 V2000
  192.9980  175.0730  136.6840 C   0  0  1  0  0  3  0  0  0  0  0  0
  195.2620  175.3960  137.4040 O   0  0  0  0  0  1  0  0  0  0  0  0
  194.3090  175.7950  136.6850 C   0  0  0  0  0  0  0  0  0  0  0  0
  194.4850  176.8950  135.8570 O   0  0  0  0  0  0  0  0  0  0  0  0
  191.8100  176.0250  136.8180 C   0  0  0  0  0  2  0  0  0  0  0  0
  192.0150  177.0470  137.9270 C   0  0  0  0  0  2  0  0  0  0  0  0
  189.7350  177.8460  138.5290 N   0  0  0  0  0  0  0  0  0  0  0  0
  190.6920  176.3530  139.9240 N   0  0  0  0  0  2  0  0  0  0  0  0
  190.8140  177.0910  138.8040 C   0  0  0  0  0  0  0  0  0  0  0  0
  189.4720  176.6620  140.4040 C   0  0  0  0  0  3  0  0  0  0  0  0
  188.8970  177.5780  139.5460 C   0  0  0  0  0  0  0  0  0  0  0  0
  187.5530  178.1820  139.6610 C   0  0  0  0  0  0  0  0  0  0  0  0
  186.7920  178.4580  138.5000 N   0  0  0  0  0  0  0  0  0  0  0  0
  185.5820  179.0940  140.6450 C   0  0  2  0  0  3  0  0  0  0  0  0
  185.2590  179.2530  138.8520 S   0  0  0  0  0  0  0  0  0  0  0  0
  186.9610  178.5300  140.7990 C   0  0  2  0  0  3  0  0  0  0  0  0
  187.5950  178.3950  142.0770 N   0  0  0  0  0  2  0  0  0  0  0  0
  189.7810  177.1830  147.4970 C   0  0  0  0  0  2  0  0  0  0  0  0
  189.9700  178.5110  148.2380 C   0  0  0  0  0  2  0  0  0  0  0  0
  189.6990  176.9870  143.9540 C   0  0  0  0  0  2  0  0  0  0  0  0
  187.6080  178.5990  148.5990 C   0  0  0  0  0  2  0  0  0  0  0  0
  186.7630  176.6630  145.3550 C   0  0  0  0  0  2  0  0  0  0  0  0
  189.0030  177.3560  146.2750 N   0  0  1  0  0  0  0  0  0  0  0  0
  187.3560  177.2680  142.9670 C   0  0  1  0  0  3  0  0  0  0  0  0
  186.8780  178.1310  147.3490 C   0  0  0  0  0  2  0  0  0  0  0  0
  188.6170  176.4020  143.0550 C   0  0  0  0  0  2  0  0  0  0  0  0
  186.8500  177.7760  144.3200 C   0  0  0  0  0  2  0  0  0  0  0  0
  188.7840  179.3650  148.2020 N   0  0  0  0  0  2  0  0  0  0  0  0
  189.5810  176.3870  145.3470 C   0  0  0  0  0  2  0  0  0  0  0  0
  187.6010  177.0000  146.5970 C   0  0  1  0  0  3  0  0  0  0  0  0
  184.6140  178.1770  141.2240 N   0  0  0  0  0  2  0  0  0  0  0  0
  183.4540  178.1690  140.3500 C   0  0  0  0  0  2  0  0  0  0  0  0
  182.0290  178.8320  141.2380 P   0  0  0  0  0  2  0  0  0  0  0  0
  182.0910  178.9110  142.7470 O   0  0  0  0  0  1  0  0  0  0  0  0
  180.3930  179.0580  140.4940 C   0  0  0  0  0 15  0  0  0  0  0  0
  182.5770  177.2440  140.7730 O   0  0  0  0  0  0  0  0  0  0  0  0
  192.8610  174.2340  135.4990 N   0  0  0  0  0  2  0  0  0  0  0  0
  189.2850  173.2040  134.9860 N   0  0  0  0  0  2  0  0  0  0  0  0
  190.6760  173.1100  135.2990 C   0  0  0  0  0  0  0  0  0  0  0  0
  191.1670  172.0240  135.7100 O   0  0  0  0  0  0  0  0  0  0  0  0
  191.5080  174.2570  135.1320 N   0  0  0  0  0  2  0  0  0  0  0  0
  188.3810  172.0650  135.0520 C   0  0  0  0  0  2  0  0  0  0  0  0
  187.1510  172.4400  135.7630 N   0  0  0  0  0  2  0  0  0  0  0  0
  186.0940  171.5330  135.5050 N   0  0  0  0  0  0  0  0  0  0  0  0
  186.5830  170.3820  134.7520 C   0  0  0  0  0  1  0  0  0  0  0  0
  185.0400  172.1980  134.7440 C   0  0  0  0  0  2  0  0  0  0  0  0
  184.1940  173.0570  135.6670 C   0  0  0  0  0  2  0  0  0  0  0  0
  185.4950  175.0770  135.7330 O   0  0  0  0  0  0  0  0  0  0  0  0
  184.6550  177.3150  135.6350 C   0  0  0  0  0  2  0  0  0  0  0  0
  183.2190  176.8100  135.4630 C   0  0  1  0  0  3  0  0  0  0  0  0
  182.9470  175.1710  137.2140 O   0  0  0  0  0  0  0  0  0  0  0  0
  183.0890  175.3190  135.8140 C   0  0  2  0  0  3  0  0  0  0  0  0
  181.6690  175.5390  137.6010 N   0  0  2  0  0  0  0  0  0  0  0  0
  185.6420  176.3010  135.0630 C   0  0  0  0  0  2  0  0  0  0  0  0
  180.0930  176.4440  135.9800 C   0  0  0  0  0  2  0  0  0  0  0  0
  184.2870  174.5250  135.2740 C   0  0  2  0  0  3  0  0  0  0  0  0
  180.6630  174.5150  137.2820 C   0  0  1  0  0  3  0  0  0  0  0  0
  182.3100  177.6340  136.3730 C   0  0  2  0  0  3  0  0  0  0  0  0
  181.1780  176.7980  136.9930 C   0  0  2  0  0  3  0  0  0  0  0  0
  181.8020  178.7390  135.6870 O   0  0  0  0  0  1  0  0  0  0  0  0
  179.9630  174.9370  136.0100 C   0  0  0  0  0  2  0  0  0  0  0  0
  181.2140  173.0960  137.1880 C   0  0  1  0  0  3  0  0  0  0  0  0
  180.4580  172.2210  138.0950 N   0  0  0  0  0  2  0  0  0  0  0  0
  180.1940  172.2040  136.6500 C   0  0  0  0  0  2  0  0  0  0  0  0
  1  3  1  0  0  0  0
  1  5  1  6  0  0  0
  3  2  1  0  0  0  0
  4  3  2  0  0  0  0
  5  6  1  0  0  0  0
  6  9  1  0  0  0  0
  7  9  2  0  0  0  0
  7 11  1  0  0  0  0
  8 10  1  0  0  0  0
  9  8  1  0  0  0  0
 11 12  1  0  0  0  0
 11 10  2  0  0  0  0
 12 16  1  0  0  0  0
 13 15  1  0  0  0  0
 13 12  2  0  0  0  0
 14 16  1  0  0  0  0
 14 31  1  6  0  0  0
 15 14  1  0  0  0  0
 16 17  1  6  0  0  0
 18 19  1  0  0  0  0
 20 29  1  0  0  0  0
 23 29  1  6  0  0  0
 23 30  1  0  0  0  0
 23 18  1  0  0  0  0
 24 17  1  6  0  0  0
 24 26  1  0  0  0  0
 24 27  1  0  0  0  0
 25 21  1  0  0  0  0
 26 20  1  0  0  0  0
 27 22  1  0  0  0  0
 28 19  1  0  0  0  0
 28 21  1  0  0  0  0
 30 22  1  6  0  0  0
 30 25  1  0  0  0  0
 32 36  1  0  0  0  0
 32 31  1  0  0  0  0
 33 34  1  0  0  0  0
 36 33  1  0  0  0  0
 37  1  1  0  0  0  0
 38 42  1  0  0  0  0
 38 39  1  0  0  0  0
 39 40  2  0  0  0  0
 41 39  1  0  0  0  0
 41 37  1  0  0  0  0
 42 43  1  0  0  0  0
 44 43  1  0  0  0  0
 45 44  1  0  0  0  0
 46 44  1  0  0  0  0
 46 47  1  0  0  0  0
 50 49  1  1  0  0  0
 50 52  1  0  0  0  0
 50 58  1  0  0  0  0
 52 51  1  1  0  0  0
 53 51  1  6  0  0  0
 54 49  1  0  0  0  0
 54 48  1  0  0  0  0
 55 61  1  0  0  0  0
 56 47  1  1  0  0  0
 56 48  1  0  0  0  0
 56 52  1  0  0  0  0
 57 61  1  6  0  0  0
 57 53  1  0  0  0  0
 58 60  1  6  0  0  0
 58 59  1  0  0  0  0
 59 55  1  6  0  0  0
 59 53  1  0  0  0  0
 62 64  1  6  0  0  0
 62 57  1  0  0  0  0
 62 63  1  0  0  0  0
 64 63  1  0  0  0  0
M  END
>  <MODEL>
5

>  <REMARK>
 VINA RESULT:      -5.5      3.233     11.657
  Name = 
  18 active torsions:
  status: ('A' for Active; 'I' for Inactive)
    1  A    between atoms: C_1  and  C_41
    2  A    between atoms: C_1  and  C_47
    3  A    between atoms: C_2  and  C_53
    4  A    between atoms: C_5  and  C_64
    5  A    between atoms: C_8  and  N_28
    6  A    between atoms: C_9  and  N_23
    7  A    between atoms: C_9  and  N_42
    8  A    between atoms: C_22  and  C_39
    9  A    between atoms: C_22  and  N_40
   10  A    between atoms: C_22  and  C_47
   11  A    between atoms: N_28  and  C_38
   12  A    between atoms: C_29  and  N_33
   13  A    between atoms: N_33  and  C_61
   14  A    between atoms: N_34  and  N_40
   15  A    between atoms: N_42  and  N_44
   16  A    between atoms: C_43  and  N_44
   17  A    between atoms: C_43  and  C_60
   18  A    between atoms: C_51  and  C_60
                            x       y       z     vdW  Elec       q    Type
                         _______ _______ _______ _____ _____    ______ ____

>  <TORSDO>
F 18

$$$$
