=
 OpenBabel10222418303D

 49 54  0  0  1  0  0  0  0  0999 V2000
  189.5760  176.2520  137.4560 C   0  0  0  0  0  0  0  0  0  0  0  0
  189.3420  174.9370  137.0200 C   0  0  0  0  0  3  0  0  0  0  0  0
  186.9950  175.4320  136.6780 C   0  0  0  0  0  0  0  0  0  0  0  0
  187.2160  176.7430  137.1110 C   0  0  0  0  0  3  0  0  0  0  0  0
  188.0660  174.5250  136.6400 C   0  0  0  0  0  3  0  0  0  0  0  0
  188.4960  177.1710  137.5020 C   0  0  0  0  0  0  0  0  0  0  0  0
  188.6820  178.8160  139.4490 N   0  0  0  0  0  2  0  0  0  0  0  0
  188.6650  178.5410  138.0410 C   0  0  0  0  0  0  0  0  0  0  0  0
  188.8230  179.5050  137.2450 O   0  0  0  0  0  0  0  0  0  0  0  0
  188.1940  177.9090  140.4800 C   0  0  0  0  0  2  0  0  0  0  0  0
  189.3640  177.3210  141.2590 C   0  0  0  0  0  2  0  0  0  0  0  0
  188.0460  177.5810  144.6250 C   0  0  0  0  0  0  0  0  0  0  0  0
  189.7270  177.2650  146.3460 C   0  0  0  0  0  3  0  0  0  0  0  0
  191.3140  177.0050  143.6520 O   0  0  0  0  0  0  0  0  0  0  0  0
  187.3910  177.6750  146.9340 C   0  0  0  0  0  3  0  0  0  0  0  0
  190.0830  177.2270  143.7820 C   0  0  0  0  0  0  0  0  0  0  0  0
  189.0880  177.4020  142.7200 C   0  0  0  0  0  0  0  0  0  0  0  0
  187.9010  177.6070  143.2030 N   0  0  0  0  0  0  0  0  0  0  0  0
  187.0360  177.7510  145.5710 C   0  0  0  0  0  3  0  0  0  0  0  0
  189.3450  177.3510  145.0100 C   0  0  0  0  0  0  0  0  0  0  0  0
  188.7260  177.4310  147.3180 C   0  0  0  0  0  3  0  0  0  0  0  0
  185.6150  174.9990  136.2920 C   0  0  2  0  0  3  0  0  0  0  0  0
  184.9660  176.0460  135.6260 O   0  0  0  0  0  1  0  0  0  0  0  0
  184.8320  174.5420  137.5330 C   0  0  2  0  0  3  0  0  0  0  0  0
  183.7770  172.2290  137.1380 C   0  0  0  0  0  2  0  0  0  0  0  0
  185.1080  172.2710  136.4040 C   0  0  0  0  0  2  0  0  0  0  0  0
  184.9420  173.0100  137.7230 C   0  0  0  0  0  3  0  0  0  0  0  0
  183.1640  175.9500  138.6450 N   0  0  0  0  0  0  0  0  0  0  0  0
  183.4600  175.1680  137.6610 C   0  0  0  0  0  3  0  0  0  0  0  0
  180.9520  175.5290  139.5660 C   0  0  0  0  0  1  0  0  0  0  0  0
  181.8360  176.4970  138.7810 C   0  0  1  0  0  3  0  0  0  0  0  0
  183.8250  179.1360  139.3940 C   0  0  0  0  0  0  0  0  0  0  0  0
  184.7980  179.8570  139.0480 O   0  0  0  0  0  0  0  0  0  0  0  0
  182.4770  177.7960  140.6890 C   0  0  0  0  0  3  0  0  0  0  0  0
  183.6960  178.5900  140.6820 N   0  0  0  0  0  0  0  0  0  0  0  0
  182.7050  178.7580  138.5190 C   0  0  1  0  0  3  0  0  0  0  0  0
  181.8730  177.8610  139.3400 N   0  0  0  0  0  0  0  0  0  0  0  0
  181.0170  179.6820  136.8620 C   0  0  0  0  0  1  0  0  0  0  0  0
  181.8970  179.9760  138.0600 C   0  0  0  0  0  2  0  0  0  0  0  0
  190.9090  176.6810  137.7780 N   0  0  0  0  0  2  0  0  0  0  0  0
  192.7650  175.9660  135.8400 S   0  0  0  0  0  0  0  0  0  0  0  0
  194.0720  174.9870  136.2430 C   0  0  0  0  0  0  0  0  0  0  0  0
  195.0970  174.5450  135.2590 C   0  0  0  0  0  1  0  0  0  0  0  0
  192.1260  176.0320  137.3960 C   0  0  0  0  0  0  0  0  0  0  0  0
  192.9090  175.2770  138.2590 C   0  0  0  0  0  3  0  0  0  0  0  0
  194.0130  174.6900  137.6180 C   0  0  0  0  0  0  0  0  0  0  0  0
  194.9760  173.8880  138.3320 N   0  0  0  0  0  0  0  0  0  0  0  0
  195.0970  172.4520  138.1350 C   0  0  0  0  0  1  0  0  0  0  0  0
  195.8730  174.5030  139.3050 C   0  0  0  0  0  1  0  0  0  0  0  0
  1  6  1  0  0  0  0
  1 40  1  0  0  0  0
  2  1  2  0  0  0  0
  3  4  1  0  0  0  0
  4  6  2  0  0  0  0
  5  3  2  0  0  0  0
  5  2  1  0  0  0  0
  6  8  1  0  0  0  0
  7 10  1  0  0  0  0
  8  7  1  0  0  0  0
  9  8  2  0  0  0  0
 10 11  1  0  0  0  0
 11 17  1  0  0  0  0
 12 20  2  0  0  0  0
 12 19  1  0  0  0  0
 13 21  2  0  0  0  0
 14 16  2  0  0  0  0
 15 21  1  0  0  0  0
 16 20  1  0  0  0  0
 17 18  2  0  0  0  0
 17 16  1  0  0  0  0
 18 12  1  0  0  0  0
 19 15  2  0  0  0  0
 20 13  1  0  0  0  0
 22 23  1  1  0  0  0
 22  3  1  0  0  0  0
 22 24  1  0  0  0  0
 24 29  1  6  0  0  0
 24 27  1  0  0  0  0
 25 27  1  0  0  0  0
 26 25  1  0  0  0  0
 26 27  1  0  0  0  0
 28 31  1  0  0  0  0
 29 28  2  0  0  0  0
 31 37  1  0  0  0  0
 31 30  1  1  0  0  0
 32 35  1  0  0  0  0
 33 32  2  0  0  0  0
 35 34  2  0  0  0  0
 36 39  1  1  0  0  0
 36 37  1  0  0  0  0
 36 32  1  0  0  0  0
 37 34  1  0  0  0  0
 38 39  1  0  0  0  0
 41 42  1  0  0  0  0
 41 44  1  0  0  0  0
 42 46  2  0  0  0  0
 43 42  1  0  0  0  0
 44 40  1  0  0  0  0
 44 45  2  0  0  0  0
 46 45  1  0  0  0  0
 46 47  1  0  0  0  0
 47 49  1  0  0  0  0
 48 47  1  0  0  0  0
M  END
>  <MODEL>
1

>  <REMARK>
 VINA RESULT:      -8.5      0.000      0.000
  Name = 
  14 active torsions:
  status: ('A' for Active; 'I' for Inactive)
    1  A    between atoms: N_1  and  C_26
    2  A    between atoms: C_3  and  C_20
    3  A    between atoms: N_5  and  C_41
    4  A    between atoms: C_7  and  C_12
    5  A    between atoms: C_7  and  C_29
    6  A    between atoms: C_8  and  N_11
    7  A    between atoms: N_11  and  C_28
    8  A    between atoms: C_12  and  N_38
    9  A    between atoms: C_15  and  C_20
   10  A    between atoms: C_15  and  C_22
   11  A    between atoms: C_20  and  C_45
   12  A    between atoms: C_26  and  N_44
   13  A    between atoms: C_35  and  C_40
   14  A    between atoms: C_46  and  C_47
                            x       y       z     vdW  Elec       q    Type
                         _______ _______ _______ _____ _____    ______ ____

>  <TORSDO>
F 14

$$$$
=
 OpenBabel10222418303D

 49 54  0  0  1  0  0  0  0  0999 V2000
  184.1780  177.5680  137.8830 C   0  0  0  0  0  0  0  0  0  0  0  0
  184.7230  176.6060  137.0180 C   0  0  0  0  0  3  0  0  0  0  0  0
  186.9620  177.4010  137.4890 C   0  0  0  0  0  0  0  0  0  0  0  0
  186.4310  178.3640  138.3530 C   0  0  0  0  0  3  0  0  0  0  0  0
  186.0990  176.5230  136.8140 C   0  0  0  0  0  3  0  0  0  0  0  0
  185.0450  178.4620  138.5640 C   0  0  0  0  0  0  0  0  0  0  0  0
  184.5160  179.4800  140.8470 N   0  0  0  0  0  2  0  0  0  0  0  0
  184.5200  179.5560  139.4150 C   0  0  0  0  0  0  0  0  0  0  0  0
  184.0790  180.6040  138.8730 O   0  0  0  0  0  0  0  0  0  0  0  0
  184.6690  178.2530  141.6170 C   0  0  0  0  0  2  0  0  0  0  0  0
  184.2040  178.4700  143.0520 C   0  0  0  0  0  2  0  0  0  0  0  0
  187.2910  177.6800  144.7790 C   0  0  0  0  0  0  0  0  0  0  0  0
  187.1880  178.0820  147.1700 C   0  0  0  0  0  3  0  0  0  0  0  0
  184.3280  178.8450  146.1290 O   0  0  0  0  0  0  0  0  0  0  0  0
  189.2370  177.2600  146.1220 C   0  0  0  0  0  3  0  0  0  0  0  0
  185.2920  178.4250  145.4400 C   0  0  0  0  0  0  0  0  0  0  0  0
  185.3280  178.2040  143.9910 C   0  0  0  0  0  0  0  0  0  0  0  0
  186.4870  177.7720  143.6000 N   0  0  0  0  0  0  0  0  0  0  0  0
  188.6190  177.2650  144.8540 C   0  0  0  0  0  3  0  0  0  0  0  0
  186.6060  178.0690  145.9050 C   0  0  0  0  0  0  0  0  0  0  0  0
  188.5270  177.6690  147.2710 C   0  0  0  0  0  3  0  0  0  0  0  0
  188.4410  177.3390  137.2650 C   0  0  2  0  0  3  0  0  0  0  0  0
  188.7010  176.8030  135.9980 O   0  0  0  0  0  1  0  0  0  0  0  0
  189.1170  176.5230  138.3780 C   0  0  2  0  0  3  0  0  0  0  0  0
  189.0380  177.8260  140.5950 C   0  0  0  0  0  2  0  0  0  0  0  0
  190.1290  176.7720  140.7070 C   0  0  0  0  0  2  0  0  0  0  0  0
  189.8580  177.4490  139.3720 C   0  0  0  0  0  3  0  0  0  0  0  0
  191.1390  175.2570  137.8210 N   0  0  0  0  0  0  0  0  0  0  0  0
  189.8500  175.2950  137.8830 C   0  0  0  0  0  3  0  0  0  0  0  0
  191.0140  173.4940  136.1490 C   0  0  0  0  0  1  0  0  0  0  0  0
  191.8200  174.0980  137.2970 C   0  0  1  0  0  3  0  0  0  0  0  0
  194.9880  174.0490  138.4190 C   0  0  0  0  0  0  0  0  0  0  0  0
  195.8800  173.4880  139.1110 O   0  0  0  0  0  0  0  0  0  0  0  0
  193.5900  175.6830  137.6040 C   0  0  0  0  0  3  0  0  0  0  0  0
  194.6860  175.4170  138.5230 N   0  0  0  0  0  0  0  0  0  0  0  0
  194.1420  173.3700  137.4270 C   0  0  1  0  0  3  0  0  0  0  0  0
  193.2170  174.4120  136.9450 N   0  0  0  0  0  0  0  0  0  0  0  0
  194.5000  171.4170  135.8430 C   0  0  0  0  0  1  0  0  0  0  0  0
  194.9610  172.7970  136.2670 C   0  0  0  0  0  2  0  0  0  0  0  0
  182.7630  177.5950  138.1370 N   0  0  0  0  0  2  0  0  0  0  0  0
  180.9800  176.1300  139.6810 S   0  0  0  0  0  0  0  0  0  0  0  0
  180.4070  174.6480  139.1310 C   0  0  0  0  0  0  0  0  0  0  0  0
  179.4650  173.7950  139.9060 C   0  0  0  0  0  1  0  0  0  0  0  0
  181.9100  176.4600  138.3180 C   0  0  0  0  0  0  0  0  0  0  0  0
  181.8080  175.4120  137.4120 C   0  0  0  0  0  3  0  0  0  0  0  0
  180.9560  174.3890  137.8600 C   0  0  0  0  0  0  0  0  0  0  0  0
  180.6810  173.2180  137.0640 N   0  0  0  0  0  0  0  0  0  0  0  0
  181.5210  172.0310  137.1030 C   0  0  0  0  0  1  0  0  0  0  0  0
  179.5310  173.1900  136.1660 C   0  0  0  0  0  1  0  0  0  0  0  0
  1 40  1  0  0  0  0
  1  6  1  0  0  0  0
  2  1  2  0  0  0  0
  3  4  1  0  0  0  0
  4  6  2  0  0  0  0
  5  2  1  0  0  0  0
  5  3  2  0  0  0  0
  6  8  1  0  0  0  0
  7 10  1  0  0  0  0
  8  7  1  0  0  0  0
  9  8  2  0  0  0  0
 10 11  1  0  0  0  0
 11 17  1  0  0  0  0
 12 19  2  0  0  0  0
 12 20  1  0  0  0  0
 13 21  1  0  0  0  0
 15 21  2  0  0  0  0
 16 20  1  0  0  0  0
 16 14  2  0  0  0  0
 17 16  1  0  0  0  0
 18 17  2  0  0  0  0
 18 12  1  0  0  0  0
 19 15  1  0  0  0  0
 20 13  2  0  0  0  0
 22 23  1  6  0  0  0
 22  3  1  0  0  0  0
 22 24  1  0  0  0  0
 24 29  1  6  0  0  0
 24 27  1  0  0  0  0
 25 26  1  0  0  0  0
 27 25  1  0  0  0  0
 27 26  1  0  0  0  0
 28 29  2  0  0  0  0
 31 30  1  6  0  0  0
 31 28  1  0  0  0  0
 32 35  1  0  0  0  0
 32 33  2  0  0  0  0
 34 35  2  0  0  0  0
 36 39  1  6  0  0  0
 36 32  1  0  0  0  0
 37 31  1  0  0  0  0
 37 36  1  0  0  0  0
 37 34  1  0  0  0  0
 38 39  1  0  0  0  0
 40 44  1  0  0  0  0
 42 41  1  0  0  0  0
 42 43  1  0  0  0  0
 44 41  1  0  0  0  0
 45 46  1  0  0  0  0
 45 44  2  0  0  0  0
 46 42  2  0  0  0  0
 47 48  1  0  0  0  0
 47 46  1  0  0  0  0
 49 47  1  0  0  0  0
M  END
>  <MODEL>
2

>  <REMARK>
 VINA RESULT:      -8.4      2.911      9.053
  Name = 
  14 active torsions:
  status: ('A' for Active; 'I' for Inactive)
    1  A    between atoms: N_1  and  C_26
    2  A    between atoms: C_3  and  C_20
    3  A    between atoms: N_5  and  C_41
    4  A    between atoms: C_7  and  C_12
    5  A    between atoms: C_7  and  C_29
    6  A    between atoms: C_8  and  N_11
    7  A    between atoms: N_11  and  C_28
    8  A    between atoms: C_12  and  N_38
    9  A    between atoms: C_15  and  C_20
   10  A    between atoms: C_15  and  C_22
   11  A    between atoms: C_20  and  C_45
   12  A    between atoms: C_26  and  N_44
   13  A    between atoms: C_35  and  C_40
   14  A    between atoms: C_46  and  C_47
                            x       y       z     vdW  Elec       q    Type
                         _______ _______ _______ _____ _____    ______ ____

>  <TORSDO>
F 14

$$$$
=
 OpenBabel10222418303D

 49 54  0  0  1  0  0  0  0  0999 V2000
  184.5460  178.2860  139.4950 C   0  0  0  0  0  0  0  0  0  0  0  0
  185.5170  179.0590  140.1520 C   0  0  0  0  0  3  0  0  0  0  0  0
  184.4570  178.6320  142.2890 C   0  0  0  0  0  0  0  0  0  0  0  0
  183.4850  177.8610  141.6450 C   0  0  0  0  0  3  0  0  0  0  0  0
  185.4730  179.2390  141.5340 C   0  0  0  0  0  3  0  0  0  0  0  0
  183.5140  177.6750  140.2520 C   0  0  0  0  0  0  0  0  0  0  0  0
  181.2720  177.5820  139.0290 N   0  0  0  0  0  2  0  0  0  0  0  0
  182.4120  176.9270  139.6010 C   0  0  0  0  0  0  0  0  0  0  0  0
  182.4790  175.6710  139.5210 O   0  0  0  0  0  0  0  0  0  0  0  0
  180.8700  178.9540  139.3120 C   0  0  0  0  0  2  0  0  0  0  0  0
  179.6930  179.3510  138.4310 C   0  0  0  0  0  2  0  0  0  0  0  0
  180.4750  182.7490  137.4420 C   0  0  0  0  0  0  0  0  0  0  0  0
  180.6270  183.0420  135.0380 C   0  0  0  0  0  3  0  0  0  0  0  0
  179.8980  180.0130  135.4060 O   0  0  0  0  0  0  0  0  0  0  0  0
  181.0200  184.9140  136.5590 C   0  0  0  0  0  3  0  0  0  0  0  0
  180.0650  180.8630  136.3170 C   0  0  0  0  0  0  0  0  0  0  0  0
  179.9770  180.6520  137.7660 C   0  0  0  0  0  0  0  0  0  0  0  0
  180.2160  181.7440  138.4250 N   0  0  0  0  0  0  0  0  0  0  0  0
  180.7860  184.0870  137.6760 C   0  0  0  0  0  3  0  0  0  0  0  0
  180.3960  182.2540  136.1620 C   0  0  0  0  0  0  0  0  0  0  0  0
  180.9440  184.3950  135.2490 C   0  0  0  0  0  3  0  0  0  0  0  0
  184.3840  178.8310  143.7700 C   0  0  2  0  0  3  0  0  0  0  0  0
  184.3660  180.2020  144.0580 O   0  0  0  0  0  1  0  0  0  0  0  0
  185.5570  178.1210  144.4650 C   0  0  2  0  0  3  0  0  0  0  0  0
  185.1750  178.4040  146.9930 C   0  0  0  0  0  2  0  0  0  0  0  0
  186.6040  177.9250  146.7830 C   0  0  0  0  0  2  0  0  0  0  0  0
  185.9550  178.8540  145.7680 C   0  0  0  0  0  3  0  0  0  0  0  0
  187.4700  176.7350  143.8160 N   0  0  0  0  0  0  0  0  0  0  0  0
  186.6690  177.7050  143.5260 C   0  0  0  0  0  3  0  0  0  0  0  0
  188.5570  177.3070  141.7160 C   0  0  0  0  0  1  0  0  0  0  0  0
  188.5570  176.3850  142.9340 C   0  0  1  0  0  3  0  0  0  0  0  0
  191.2660  178.1940  143.7610 C   0  0  0  0  0  0  0  0  0  0  0  0
  191.7680  179.3080  144.0670 O   0  0  0  0  0  0  0  0  0  0  0  0
  190.9300  176.1990  142.6670 C   0  0  0  0  0  3  0  0  0  0  0  0
  191.7900  177.3700  142.7500 N   0  0  0  0  0  0  0  0  0  0  0  0
  190.0790  177.6030  144.3960 C   0  0  1  0  0  3  0  0  0  0  0  0
  189.8420  176.3500  143.6570 N   0  0  0  0  0  0  0  0  0  0  0  0
  191.5540  176.5040  146.1470 C   0  0  0  0  0  1  0  0  0  0  0  0
  190.3030  177.3180  145.8840 C   0  0  0  0  0  2  0  0  0  0  0  0
  184.6450  178.0530  138.0790 N   0  0  0  0  0  2  0  0  0  0  0  0
  185.1980  175.7900  136.5690 S   0  0  0  0  0  0  0  0  0  0  0  0
  186.7900  175.3630  136.2390 C   0  0  0  0  0  0  0  0  0  0  0  0
  187.1700  174.1570  135.4540 C   0  0  0  0  0  1  0  0  0  0  0  0
  185.5780  177.1890  137.4230 C   0  0  0  0  0  0  0  0  0  0  0  0
  186.9570  177.3440  137.4850 C   0  0  0  0  0  3  0  0  0  0  0  0
  187.6470  176.3210  136.8130 C   0  0  0  0  0  0  0  0  0  0  0  0
  189.0880  176.3000  136.7250 N   0  0  0  0  0  0  0  0  0  0  0  0
  189.8020  176.6710  135.5140 C   0  0  0  0  0  1  0  0  0  0  0  0
  189.8910  175.8850  137.8710 C   0  0  0  0  0  1  0  0  0  0  0  0
  1  2  2  0  0  0  0
  1  6  1  0  0  0  0
  2  5  1  0  0  0  0
  3 22  1  0  0  0  0
  4  3  1  0  0  0  0
  5  3  2  0  0  0  0
  6  4  2  0  0  0  0
  7 10  1  0  0  0  0
  7  8  1  0  0  0  0
  8  6  1  0  0  0  0
  9  8  2  0  0  0  0
 11 10  1  0  0  0  0
 12 19  1  0  0  0  0
 12 18  1  0  0  0  0
 13 21  2  0  0  0  0
 13 20  1  0  0  0  0
 14 16  2  0  0  0  0
 15 19  2  0  0  0  0
 16 17  1  0  0  0  0
 17 18  2  0  0  0  0
 17 11  1  0  0  0  0
 20 16  1  0  0  0  0
 20 12  2  0  0  0  0
 21 15  1  0  0  0  0
 22 23  1  6  0  0  0
 22 24  1  0  0  0  0
 24 29  1  6  0  0  0
 24 27  1  0  0  0  0
 26 25  1  0  0  0  0
 27 26  1  0  0  0  0
 27 25  1  0  0  0  0
 29 28  2  0  0  0  0
 31 30  1  6  0  0  0
 31 37  1  0  0  0  0
 31 28  1  0  0  0  0
 32 33  2  0  0  0  0
 32 36  1  0  0  0  0
 34 35  2  0  0  0  0
 34 37  1  0  0  0  0
 35 32  1  0  0  0  0
 36 39  1  1  0  0  0
 37 36  1  0  0  0  0
 39 38  1  0  0  0  0
 40  1  1  0  0  0  0
 41 44  1  0  0  0  0
 42 41  1  0  0  0  0
 42 46  2  0  0  0  0
 43 42  1  0  0  0  0
 44 45  2  0  0  0  0
 44 40  1  0  0  0  0
 46 45  1  0  0  0  0
 47 46  1  0  0  0  0
 47 49  1  0  0  0  0
 48 47  1  0  0  0  0
M  END
>  <MODEL>
3

>  <REMARK>
 VINA RESULT:      -8.4      3.208      9.524
  Name = 
  14 active torsions:
  status: ('A' for Active; 'I' for Inactive)
    1  A    between atoms: N_1  and  C_26
    2  A    between atoms: C_3  and  C_20
    3  A    between atoms: N_5  and  C_41
    4  A    between atoms: C_7  and  C_12
    5  A    between atoms: C_7  and  C_29
    6  A    between atoms: C_8  and  N_11
    7  A    between atoms: N_11  and  C_28
    8  A    between atoms: C_12  and  N_38
    9  A    between atoms: C_15  and  C_20
   10  A    between atoms: C_15  and  C_22
   11  A    between atoms: C_20  and  C_45
   12  A    between atoms: C_26  and  N_44
   13  A    between atoms: C_35  and  C_40
   14  A    between atoms: C_46  and  C_47
                            x       y       z     vdW  Elec       q    Type
                         _______ _______ _______ _____ _____    ______ ____

>  <TORSDO>
F 14

$$$$
=
 OpenBabel10222418303D

 49 54  0  0  1  0  0  0  0  0999 V2000
  185.9970  177.9580  138.2800 C   0  0  0  0  0  0  0  0  0  0  0  0
  185.0010  177.1780  137.6700 C   0  0  0  0  0  3  0  0  0  0  0  0
  186.6830  175.7260  136.7050 C   0  0  0  0  0  0  0  0  0  0  0  0
  187.6830  176.4950  137.3080 C   0  0  0  0  0  3  0  0  0  0  0  0
  185.3350  176.0770  136.8830 C   0  0  0  0  0  3  0  0  0  0  0  0
  187.3600  177.6110  138.0990 C   0  0  0  0  0  0  0  0  0  0  0  0
  189.0110  178.2390  139.9460 N   0  0  0  0  0  2  0  0  0  0  0  0
  188.4540  178.4510  138.6420 C   0  0  0  0  0  0  0  0  0  0  0  0
  188.9350  179.3750  137.9320 O   0  0  0  0  0  0  0  0  0  0  0  0
  188.3790  177.4630  141.0060 C   0  0  0  0  0  2  0  0  0  0  0  0
  189.4350  176.9030  141.9490 C   0  0  0  0  0  2  0  0  0  0  0  0
  187.8490  177.5910  145.1350 C   0  0  0  0  0  0  0  0  0  0  0  0
  189.3760  177.4780  147.0170 C   0  0  0  0  0  3  0  0  0  0  0  0
  191.1760  176.8720  144.5180 O   0  0  0  0  0  0  0  0  0  0  0  0
  187.0070  177.9770  147.3500 C   0  0  0  0  0  3  0  0  0  0  0  0
  189.9420  177.1180  144.5160 C   0  0  0  0  0  0  0  0  0  0  0  0
  189.0410  177.1680  143.3600 C   0  0  0  0  0  0  0  0  0  0  0  0
  187.8230  177.4410  143.7130 N   0  0  0  0  0  0  0  0  0  0  0  0
  186.7680  177.8850  145.9640 C   0  0  0  0  0  3  0  0  0  0  0  0
  189.1070  177.4000  145.6530 C   0  0  0  0  0  0  0  0  0  0  0  0
  188.3020  177.7710  147.8730 C   0  0  0  0  0  3  0  0  0  0  0  0
  187.0600  174.5590  135.8470 C   0  0  2  0  0  3  0  0  0  0  0  0
  186.4470  174.6800  134.5950 O   0  0  0  0  0  1  0  0  0  0  0  0
  186.6810  173.2410  136.5400 C   0  0  2  0  0  3  0  0  0  0  0  0
  188.6170  171.7690  135.7020 C   0  0  0  0  0  2  0  0  0  0  0  0
  189.2140  173.0250  136.3180 C   0  0  0  0  0  2  0  0  0  0  0  0
  187.9440  172.4200  136.8980 C   0  0  0  0  0  3  0  0  0  0  0  0
  184.3170  172.6460  136.3000 N   0  0  0  0  0  0  0  0  0  0  0  0
  185.5310  172.5070  135.8840 C   0  0  0  0  0  3  0  0  0  0  0  0
  183.1530  170.5100  136.3250 C   0  0  0  0  0  1  0  0  0  0  0  0
  183.2390  171.9000  135.6970 C   0  0  1  0  0  3  0  0  0  0  0  0
  180.5360  172.5740  137.5780 C   0  0  0  0  0  0  0  0  0  0  0  0
  180.0330  172.7550  138.7180 O   0  0  0  0  0  0  0  0  0  0  0  0
  180.8610  171.7200  135.4670 C   0  0  0  0  0  3  0  0  0  0  0  0
  179.9940  171.6840  136.6350 N   0  0  0  0  0  0  0  0  0  0  0  0
  181.7450  173.2440  137.0750 C   0  0  1  0  0  3  0  0  0  0  0  0
  181.9730  172.6560  135.7430 N   0  0  0  0  0  0  0  0  0  0  0  0
  181.8780  175.4830  138.2650 C   0  0  0  0  0  1  0  0  0  0  0  0
  181.5610  174.7610  136.9710 C   0  0  0  0  0  2  0  0  0  0  0  0
  185.6330  179.0480  139.1440 N   0  0  0  0  0  2  0  0  0  0  0  0
  184.9970  178.9530  141.8460 S   0  0  0  0  0  0  0  0  0  0  0  0
  183.3910  178.8370  142.3310 C   0  0  0  0  0  0  0  0  0  0  0  0
  182.9700  178.7630  143.7570 C   0  0  0  0  0  1  0  0  0  0  0  0
  184.6640  179.0120  140.1970 C   0  0  0  0  0  0  0  0  0  0  0  0
  183.2940  178.9240  139.9890 C   0  0  0  0  0  3  0  0  0  0  0  0
  182.5680  178.8320  141.1890 C   0  0  0  0  0  0  0  0  0  0  0  0
  181.1270  178.7620  141.2090 N   0  0  0  0  0  0  0  0  0  0  0  0
  180.4060  177.4990  141.1820 C   0  0  0  0  0  1  0  0  0  0  0  0
  180.3290  179.9830  141.2460 C   0  0  0  0  0  1  0  0  0  0  0  0
  1 40  1  0  0  0  0
  2  1  2  0  0  0  0
  3  5  2  0  0  0  0
  3  4  1  0  0  0  0
  4  6  2  0  0  0  0
  5  2  1  0  0  0  0
  6  1  1  0  0  0  0
  6  8  1  0  0  0  0
  7 10  1  0  0  0  0
  8  7  1  0  0  0  0
  9  8  2  0  0  0  0
 10 11  1  0  0  0  0
 11 17  1  0  0  0  0
 12 20  2  0  0  0  0
 12 19  1  0  0  0  0
 13 21  2  0  0  0  0
 15 21  1  0  0  0  0
 16 14  2  0  0  0  0
 16 20  1  0  0  0  0
 17 18  2  0  0  0  0
 17 16  1  0  0  0  0
 18 12  1  0  0  0  0
 19 15  2  0  0  0  0
 20 13  1  0  0  0  0
 22 23  1  6  0  0  0
 22 24  1  0  0  0  0
 22  3  1  0  0  0  0
 24 29  1  6  0  0  0
 24 27  1  0  0  0  0
 25 26  1  0  0  0  0
 25 27  1  0  0  0  0
 26 27  1  0  0  0  0
 29 28  2  0  0  0  0
 31 37  1  0  0  0  0
 31 28  1  0  0  0  0
 31 30  1  1  0  0  0
 32 33  2  0  0  0  0
 34 37  1  0  0  0  0
 34 35  2  0  0  0  0
 35 32  1  0  0  0  0
 36 39  1  6  0  0  0
 36 32  1  0  0  0  0
 37 36  1  0  0  0  0
 39 38  1  0  0  0  0
 40 44  1  0  0  0  0
 41 42  1  0  0  0  0
 42 43  1  0  0  0  0
 44 41  1  0  0  0  0
 45 44  2  0  0  0  0
 45 46  1  0  0  0  0
 46 47  1  0  0  0  0
 46 42  2  0  0  0  0
 47 49  1  0  0  0  0
 48 47  1  0  0  0  0
M  END
>  <MODEL>
4

>  <REMARK>
 VINA RESULT:      -8.2      3.240      6.800
  Name = 
  14 active torsions:
  status: ('A' for Active; 'I' for Inactive)
    1  A    between atoms: N_1  and  C_26
    2  A    between atoms: C_3  and  C_20
    3  A    between atoms: N_5  and  C_41
    4  A    between atoms: C_7  and  C_12
    5  A    between atoms: C_7  and  C_29
    6  A    between atoms: C_8  and  N_11
    7  A    between atoms: N_11  and  C_28
    8  A    between atoms: C_12  and  N_38
    9  A    between atoms: C_15  and  C_20
   10  A    between atoms: C_15  and  C_22
   11  A    between atoms: C_20  and  C_45
   12  A    between atoms: C_26  and  N_44
   13  A    between atoms: C_35  and  C_40
   14  A    between atoms: C_46  and  C_47
                            x       y       z     vdW  Elec       q    Type
                         _______ _______ _______ _____ _____    ______ ____

>  <TORSDO>
F 14

$$$$
=
 OpenBabel10222418303D

 49 54  0  0  1  0  0  0  0  0999 V2000
  190.0650  176.2900  137.3370 C   0  0  0  0  0  0  0  0  0  0  0  0
  189.9240  175.0080  136.7820 C   0  0  0  0  0  3  0  0  0  0  0  0
  187.5490  175.3700  136.4650 C   0  0  0  0  0  0  0  0  0  0  0  0
  187.6780  176.6490  137.0160 C   0  0  0  0  0  3  0  0  0  0  0  0
  188.6800  174.5450  136.3550 C   0  0  0  0  0  3  0  0  0  0  0  0
  188.9250  177.1260  137.4550 C   0  0  0  0  0  0  0  0  0  0  0  0
  189.0670  178.5930  139.5430 N   0  0  0  0  0  2  0  0  0  0  0  0
  188.9980  178.4500  138.1180 C   0  0  0  0  0  0  0  0  0  0  0  0
  189.0240  179.4940  137.4130 O   0  0  0  0  0  0  0  0  0  0  0  0
  188.7220  177.5520  140.5030 C   0  0  0  0  0  2  0  0  0  0  0  0
  187.9290  178.1450  141.6600 C   0  0  0  0  0  2  0  0  0  0  0  0
  190.0750  177.2800  144.4500 C   0  0  0  0  0  0  0  0  0  0  0  0
  188.8920  177.1210  146.5630 C   0  0  0  0  0  3  0  0  0  0  0  0
  186.6600  177.8280  144.4740 O   0  0  0  0  0  0  0  0  0  0  0  0
  191.3050  176.7520  146.4430 C   0  0  0  0  0  3  0  0  0  0  0  0
  187.8850  177.6660  144.2410 C   0  0  0  0  0  0  0  0  0  0  0  0
  188.5740  177.7810  142.9520 C   0  0  0  0  0  0  0  0  0  0  0  0
  189.8470  177.5590  143.0660 N   0  0  0  0  0  0  0  0  0  0  0  0
  191.2960  176.9840  145.0530 C   0  0  0  0  0  3  0  0  0  0  0  0
  188.9170  177.3390  145.1880 C   0  0  0  0  0  0  0  0  0  0  0  0
  190.1120  176.8230  147.1930 C   0  0  0  0  0  3  0  0  0  0  0  0
  186.2030  174.8820  136.0300 C   0  0  2  0  0  3  0  0  0  0  0  0
  185.6300  175.8080  135.1500 O   0  0  0  0  0  1  0  0  0  0  0  0
  185.3050  174.6280  137.2520 C   0  0  2  0  0  3  0  0  0  0  0  0
  184.2010  172.3530  136.7850 C   0  0  0  0  0  2  0  0  0  0  0  0
  185.6730  172.2450  136.4190 C   0  0  0  0  0  2  0  0  0  0  0  0
  185.2400  173.1180  137.5860 C   0  0  0  0  0  3  0  0  0  0  0  0
  183.8150  176.4270  137.9900 N   0  0  0  0  0  0  0  0  0  0  0  0
  184.0030  175.4000  137.2310 C   0  0  0  0  0  3  0  0  0  0  0  0
  181.4800  176.2450  138.6490 C   0  0  0  0  0  1  0  0  0  0  0  0
  182.5490  177.1200  137.9960 C   0  0  1  0  0  3  0  0  0  0  0  0
  181.2780  179.1920  140.3170 C   0  0  0  0  0  0  0  0  0  0  0  0
  180.7470  179.3490  141.4480 O   0  0  0  0  0  0  0  0  0  0  0  0
  181.6090  179.3220  138.0440 C   0  0  0  0  0  3  0  0  0  0  0  0
  180.7510  179.7490  139.1390 N   0  0  0  0  0  0  0  0  0  0  0  0
  182.4980  178.4120  140.0610 C   0  0  1  0  0  3  0  0  0  0  0  0
  182.6750  178.4590  138.5990 N   0  0  0  0  0  0  0  0  0  0  0  0
  184.2550  178.1040  141.8690 C   0  0  0  0  0  1  0  0  0  0  0  0
  183.7190  179.0020  140.7730 C   0  0  0  0  0  2  0  0  0  0  0  0
  191.3660  176.7780  137.7070 N   0  0  0  0  0  2  0  0  0  0  0  0
  193.4140  176.2090  135.9220 S   0  0  0  0  0  0  0  0  0  0  0  0
  194.6850  175.2090  136.3860 C   0  0  0  0  0  0  0  0  0  0  0  0
  195.8100  174.8420  135.4830 C   0  0  0  0  0  1  0  0  0  0  0  0
  192.6220  176.1630  137.4060 C   0  0  0  0  0  0  0  0  0  0  0  0
  193.3220  175.3520  138.2900 C   0  0  0  0  0  3  0  0  0  0  0  0
  194.4910  174.8160  137.7240 C   0  0  0  0  0  0  0  0  0  0  0  0
  195.3860  173.9690  138.4740 N   0  0  0  0  0  0  0  0  0  0  0  0
  196.4090  174.5030  139.3590 C   0  0  0  0  0  1  0  0  0  0  0  0
  195.3000  172.5170  138.3580 C   0  0  0  0  0  1  0  0  0  0  0  0
  1  6  1  0  0  0  0
  1 40  1  0  0  0  0
  2  1  2  0  0  0  0
  3  4  1  0  0  0  0
  4  6  2  0  0  0  0
  5  3  2  0  0  0  0
  5  2  1  0  0  0  0
  6  8  1  0  0  0  0
  7 10  1  0  0  0  0
  8  7  1  0  0  0  0
  9  8  2  0  0  0  0
 10 11  1  0  0  0  0
 11 17  1  0  0  0  0
 12 19  2  0  0  0  0
 12 20  1  0  0  0  0
 13 21  1  0  0  0  0
 15 21  2  0  0  0  0
 16 14  2  0  0  0  0
 16 20  1  0  0  0  0
 17 18  2  0  0  0  0
 17 16  1  0  0  0  0
 18 12  1  0  0  0  0
 19 15  1  0  0  0  0
 20 13  2  0  0  0  0
 22 23  1  6  0  0  0
 22  3  1  0  0  0  0
 22 24  1  0  0  0  0
 24 29  1  6  0  0  0
 24 27  1  0  0  0  0
 25 27  1  0  0  0  0
 26 25  1  0  0  0  0
 26 27  1  0  0  0  0
 28 31  1  0  0  0  0
 29 28  2  0  0  0  0
 31 37  1  0  0  0  0
 31 30  1  1  0  0  0
 32 33  2  0  0  0  0
 34 37  1  0  0  0  0
 34 35  2  0  0  0  0
 35 32  1  0  0  0  0
 36 32  1  0  0  0  0
 36 39  1  1  0  0  0
 37 36  1  0  0  0  0
 39 38  1  0  0  0  0
 41 42  1  0  0  0  0
 41 44  1  0  0  0  0
 42 46  2  0  0  0  0
 43 42  1  0  0  0  0
 44 40  1  0  0  0  0
 44 45  2  0  0  0  0
 46 45  1  0  0  0  0
 46 47  1  0  0  0  0
 47 48  1  0  0  0  0
 49 47  1  0  0  0  0
M  END
>  <MODEL>
5

>  <REMARK>
 VINA RESULT:      -8.0      1.347      2.067
  Name = 
  14 active torsions:
  status: ('A' for Active; 'I' for Inactive)
    1  A    between atoms: N_1  and  C_26
    2  A    between atoms: C_3  and  C_20
    3  A    between atoms: N_5  and  C_41
    4  A    between atoms: C_7  and  C_12
    5  A    between atoms: C_7  and  C_29
    6  A    between atoms: C_8  and  N_11
    7  A    between atoms: N_11  and  C_28
    8  A    between atoms: C_12  and  N_38
    9  A    between atoms: C_15  and  C_20
   10  A    between atoms: C_15  and  C_22
   11  A    between atoms: C_20  and  C_45
   12  A    between atoms: C_26  and  N_44
   13  A    between atoms: C_35  and  C_40
   14  A    between atoms: C_46  and  C_47
                            x       y       z     vdW  Elec       q    Type
                         _______ _______ _______ _____ _____    ______ ____

>  <TORSDO>
F 14

$$$$
=
 OpenBabel10222418303D

 49 54  0  0  1  0  0  0  0  0999 V2000
  181.8560  176.8900  138.8980 C   0  0  0  0  0  0  0  0  0  0  0  0
  181.9850  176.6790  140.2810 C   0  0  0  0  0  3  0  0  0  0  0  0
  183.7670  178.3170  140.3980 C   0  0  0  0  0  0  0  0  0  0  0  0
  183.6480  178.5350  139.0220 C   0  0  0  0  0  3  0  0  0  0  0  0
  182.9340  177.3780  141.0260 C   0  0  0  0  0  3  0  0  0  0  0  0
  182.6990  177.8340  138.2570 C   0  0  0  0  0  0  0  0  0  0  0  0
  183.4430  177.2200  135.8910 N   0  0  0  0  0  2  0  0  0  0  0  0
  182.6710  178.0290  136.7880 C   0  0  0  0  0  0  0  0  0  0  0  0
  181.9270  178.9200  136.2960 O   0  0  0  0  0  0  0  0  0  0  0  0
  184.5780  176.3930  136.2810 C   0  0  0  0  0  2  0  0  0  0  0  0
  185.8290  176.8250  135.5280 C   0  0  0  0  0  2  0  0  0  0  0  0
  188.8250  176.3350  137.5070 C   0  0  0  0  0  0  0  0  0  0  0  0
  189.3350  178.2070  138.9640 C   0  0  0  0  0  3  0  0  0  0  0  0
  186.6830  179.0500  137.5150 O   0  0  0  0  0  0  0  0  0  0  0  0
  190.7890  176.2440  138.8870 C   0  0  0  0  0  3  0  0  0  0  0  0
  187.3170  177.9760  137.3590 C   0  0  0  0  0  0  0  0  0  0  0  0
  186.9890  176.8650  136.4600 C   0  0  0  0  0  0  0  0  0  0  0  0
  187.8630  175.9090  136.5400 N   0  0  0  0  0  0  0  0  0  0  0  0
  189.9560  175.6360  137.9250 C   0  0  0  0  0  3  0  0  0  0  0  0
  188.5310  177.5760  138.0190 C   0  0  0  0  0  0  0  0  0  0  0  0
  190.4820  177.5220  139.4000 C   0  0  0  0  0  3  0  0  0  0  0  0
  184.8040  179.0600  141.1800 C   0  0  2  0  0  3  0  0  0  0  0  0
  186.0310  178.9960  140.5090 O   0  0  0  0  0  1  0  0  0  0  0  0
  184.9060  178.4960  142.6060 C   0  0  2  0  0  3  0  0  0  0  0  0
  182.8280  179.2810  143.9030 C   0  0  0  0  0  2  0  0  0  0  0  0
  183.8560  178.7940  144.9120 C   0  0  0  0  0  2  0  0  0  0  0  0
  184.3090  179.4860  143.6360 C   0  0  0  0  0  3  0  0  0  0  0  0
  186.4820  177.3330  144.0770 N   0  0  0  0  0  0  0  0  0  0  0  0
  186.2460  177.8720  142.9280 C   0  0  0  0  0  3  0  0  0  0  0  0
  188.4510  176.2820  143.1100 C   0  0  0  0  0  1  0  0  0  0  0  0
  187.7810  176.7890  144.3870 C   0  0  1  0  0  3  0  0  0  0  0  0
  190.4470  177.0970  146.4100 C   0  0  0  0  0  0  0  0  0  0  0  0
  191.6000  176.7150  146.7420 O   0  0  0  0  0  0  0  0  0  0  0  0
  188.2220  177.6570  146.5760 C   0  0  0  0  0  3  0  0  0  0  0  0
  189.3930  177.2350  147.3290 N   0  0  0  0  0  0  0  0  0  0  0  0
  190.0350  177.4420  145.0420 C   0  0  1  0  0  3  0  0  0  0  0  0
  188.5980  177.7520  145.1480 N   0  0  0  0  0  0  0  0  0  0  0  0
  191.6940  178.2920  143.3170 C   0  0  0  0  0  1  0  0  0  0  0  0
  190.8080  178.6460  144.4940 C   0  0  0  0  0  2  0  0  0  0  0  0
  180.8270  176.2140  138.1570 N   0  0  0  0  0  2  0  0  0  0  0  0
  179.6190  173.7600  137.6760 S   0  0  0  0  0  0  0  0  0  0  0  0
  180.5140  172.4920  137.0290 C   0  0  0  0  0  0  0  0  0  0  0  0
  179.9460  171.1420  136.7600 C   0  0  0  0  0  1  0  0  0  0  0  0
  180.8800  174.8750  137.6550 C   0  0  0  0  0  0  0  0  0  0  0  0
  182.0310  174.2750  137.1610 C   0  0  0  0  0  3  0  0  0  0  0  0
  181.8310  172.9330  136.7990 C   0  0  0  0  0  0  0  0  0  0  0  0
  182.8860  172.1260  136.2340 N   0  0  0  0  0  0  0  0  0  0  0  0
  183.0640  170.7230  136.5730 C   0  0  0  0  0  1  0  0  0  0  0  0
  183.8350  172.7080  135.2910 C   0  0  0  0  0  1  0  0  0  0  0  0
  1  2  1  0  0  0  0
  2  5  2  0  0  0  0
  3  5  1  0  0  0  0
  3 22  1  0  0  0  0
  4  3  2  0  0  0  0
  6  1  2  0  0  0  0
  6  4  1  0  0  0  0
  7 10  1  0  0  0  0
  7  8  1  0  0  0  0
  8  6  1  0  0  0  0
  9  8  2  0  0  0  0
 11 10  1  0  0  0  0
 11 17  1  0  0  0  0
 12 19  2  0  0  0  0
 12 20  1  0  0  0  0
 13 21  1  0  0  0  0
 15 21  2  0  0  0  0
 16 14  2  0  0  0  0
 16 20  1  0  0  0  0
 17 18  2  0  0  0  0
 17 16  1  0  0  0  0
 18 12  1  0  0  0  0
 19 15  1  0  0  0  0
 20 13  2  0  0  0  0
 22 23  1  6  0  0  0
 22 24  1  0  0  0  0
 24 29  1  1  0  0  0
 24 27  1  0  0  0  0
 25 26  1  0  0  0  0
 27 25  1  0  0  0  0
 27 26  1  0  0  0  0
 28 31  1  0  0  0  0
 29 28  2  0  0  0  0
 31 30  1  6  0  0  0
 31 37  1  0  0  0  0
 32 33  2  0  0  0  0
 32 35  1  0  0  0  0
 34 35  2  0  0  0  0
 36 39  1  1  0  0  0
 36 37  1  0  0  0  0
 36 32  1  0  0  0  0
 37 34  1  0  0  0  0
 38 39  1  0  0  0  0
 40  1  1  0  0  0  0
 42 41  1  0  0  0  0
 43 42  1  0  0  0  0
 44 41  1  0  0  0  0
 44 40  1  0  0  0  0
 45 44  2  0  0  0  0
 46 42  2  0  0  0  0
 46 45  1  0  0  0  0
 47 48  1  0  0  0  0
 47 46  1  0  0  0  0
 49 47  1  0  0  0  0
M  END
>  <MODEL>
6

>  <REMARK>
 VINA RESULT:      -8.0      3.339      9.131
  Name = 
  14 active torsions:
  status: ('A' for Active; 'I' for Inactive)
    1  A    between atoms: N_1  and  C_26
    2  A    between atoms: C_3  and  C_20
    3  A    between atoms: N_5  and  C_41
    4  A    between atoms: C_7  and  C_12
    5  A    between atoms: C_7  and  C_29
    6  A    between atoms: C_8  and  N_11
    7  A    between atoms: N_11  and  C_28
    8  A    between atoms: C_12  and  N_38
    9  A    between atoms: C_15  and  C_20
   10  A    between atoms: C_15  and  C_22
   11  A    between atoms: C_20  and  C_45
   12  A    between atoms: C_26  and  N_44
   13  A    between atoms: C_35  and  C_40
   14  A    between atoms: C_46  and  C_47
                            x       y       z     vdW  Elec       q    Type
                         _______ _______ _______ _____ _____    ______ ____

>  <TORSDO>
F 14

$$$$
=
 OpenBabel10222418303D

 49 54  0  0  1  0  0  0  0  0999 V2000
  182.6330  175.9230  137.7850 C   0  0  0  0  0  0  0  0  0  0  0  0
  182.5820  175.6760  139.1670 C   0  0  0  0  0  3  0  0  0  0  0  0
  183.2750  177.9500  139.6340 C   0  0  0  0  0  0  0  0  0  0  0  0
  183.3290  178.2080  138.2610 C   0  0  0  0  0  3  0  0  0  0  0  0
  182.9060  176.6730  140.0860 C   0  0  0  0  0  3  0  0  0  0  0  0
  183.0110  177.2100  137.3240 C   0  0  0  0  0  0  0  0  0  0  0  0
  184.3390  177.1120  135.1420 N   0  0  0  0  0  2  0  0  0  0  0  0
  183.1710  177.5000  135.8780 C   0  0  0  0  0  0  0  0  0  0  0  0
  182.2450  178.0890  135.2590 O   0  0  0  0  0  0  0  0  0  0  0  0
  185.6140  176.7360  135.7400 C   0  0  0  0  0  2  0  0  0  0  0  0
  186.5790  177.9140  135.7070 C   0  0  0  0  0  2  0  0  0  0  0  0
  188.4230  177.8150  138.8250 C   0  0  0  0  0  0  0  0  0  0  0  0
  190.6940  176.9970  138.5770 C   0  0  0  0  0  3  0  0  0  0  0  0
  189.5290  176.9510  135.6640 O   0  0  0  0  0  0  0  0  0  0  0  0
  189.8210  177.6310  140.7700 C   0  0  0  0  0  3  0  0  0  0  0  0
  188.9320  177.3190  136.7080 C   0  0  0  0  0  0  0  0  0  0  0  0
  187.5510  177.7990  136.8280 C   0  0  0  0  0  0  0  0  0  0  0  0
  187.2490  178.0880  138.0560 N   0  0  0  0  0  0  0  0  0  0  0  0
  188.5760  177.9720  140.2020 C   0  0  0  0  0  3  0  0  0  0  0  0
  189.4550  177.3480  138.0480 C   0  0  0  0  0  0  0  0  0  0  0  0
  190.8710  177.1440  139.9630 C   0  0  0  0  0  3  0  0  0  0  0  0
  183.6440  179.0260  140.6060 C   0  0  2  0  0  3  0  0  0  0  0  0
  185.0120  179.3060  140.4970 O   0  0  0  0  0  1  0  0  0  0  0  0
  183.2620  178.6110  142.0350 C   0  0  2  0  0  3  0  0  0  0  0  0
  181.2320  178.2650  143.5780 C   0  0  0  0  0  2  0  0  0  0  0  0
  181.5940  179.7430  143.5990 C   0  0  0  0  0  2  0  0  0  0  0  0
  181.7750  178.9320  142.3260 C   0  0  0  0  0  3  0  0  0  0  0  0
  184.9920  178.1120  143.6960 N   0  0  0  0  0  0  0  0  0  0  0  0
  184.2810  178.9990  143.0850 C   0  0  0  0  0  3  0  0  0  0  0  0
  185.1640  179.0750  145.9240 C   0  0  0  0  0  1  0  0  0  0  0  0
  185.9220  178.4950  144.7300 C   0  0  1  0  0  3  0  0  0  0  0  0
  189.1440  177.5580  144.9250 C   0  0  0  0  0  0  0  0  0  0  0  0
  190.3440  177.8610  145.1610 O   0  0  0  0  0  0  0  0  0  0  0  0
  187.2920  176.7500  143.8260 C   0  0  0  0  0  3  0  0  0  0  0  0
  188.7390  176.8900  143.7570 N   0  0  0  0  0  0  0  0  0  0  0  0
  188.0100  177.8570  145.8120 C   0  0  1  0  0  3  0  0  0  0  0  0
  186.8230  177.3810  145.0790 N   0  0  0  0  0  0  0  0  0  0  0  0
  188.2760  178.1070  148.3260 C   0  0  0  0  0  1  0  0  0  0  0  0
  188.1320  177.1460  147.1630 C   0  0  0  0  0  2  0  0  0  0  0  0
  182.2290  174.9060  136.8530 N   0  0  0  0  0  2  0  0  0  0  0  0
  182.2010  172.1500  136.5150 S   0  0  0  0  0  0  0  0  0  0  0  0
  183.6410  171.3140  136.2820 C   0  0  0  0  0  0  0  0  0  0  0  0
  183.7120  169.8370  136.1120 C   0  0  0  0  0  1  0  0  0  0  0  0
  182.9100  173.6750  136.5910 C   0  0  0  0  0  0  0  0  0  0  0  0
  184.2870  173.5620  136.4550 C   0  0  0  0  0  3  0  0  0  0  0  0
  184.7070  172.2340  136.2730 C   0  0  0  0  0  0  0  0  0  0  0  0
  186.0950  171.8880  136.0800 N   0  0  0  0  0  0  0  0  0  0  0  0
  187.1570  172.4250  136.9160 C   0  0  0  0  0  1  0  0  0  0  0  0
  186.4870  170.9780  135.0090 C   0  0  0  0  0  1  0  0  0  0  0  0
  1  2  1  0  0  0  0
  2  5  2  0  0  0  0
  3  5  1  0  0  0  0
  3 22  1  0  0  0  0
  4  3  2  0  0  0  0
  6  1  2  0  0  0  0
  6  4  1  0  0  0  0
  7 10  1  0  0  0  0
  7  8  1  0  0  0  0
  8  6  1  0  0  0  0
  9  8  2  0  0  0  0
 11 10  1  0  0  0  0
 11 17  1  0  0  0  0
 12 19  1  0  0  0  0
 13 21  2  0  0  0  0
 14 16  2  0  0  0  0
 16 17  1  0  0  0  0
 16 20  1  0  0  0  0
 17 18  2  0  0  0  0
 18 12  1  0  0  0  0
 19 15  2  0  0  0  0
 20 13  1  0  0  0  0
 20 12  2  0  0  0  0
 21 15  1  0  0  0  0
 22 23  1  1  0  0  0
 22 24  1  0  0  0  0
 24 27  1  0  0  0  0
 24 29  1  1  0  0  0
 25 26  1  0  0  0  0
 27 25  1  0  0  0  0
 27 26  1  0  0  0  0
 28 31  1  0  0  0  0
 29 28  2  0  0  0  0
 31 37  1  0  0  0  0
 31 30  1  1  0  0  0
 32 33  2  0  0  0  0
 32 36  1  0  0  0  0
 34 37  1  0  0  0  0
 35 34  2  0  0  0  0
 35 32  1  0  0  0  0
 36 39  1  1  0  0  0
 37 36  1  0  0  0  0
 39 38  1  0  0  0  0
 40  1  1  0  0  0  0
 41 44  1  0  0  0  0
 42 41  1  0  0  0  0
 43 42  1  0  0  0  0
 44 40  1  0  0  0  0
 45 44  2  0  0  0  0
 46 42  2  0  0  0  0
 46 45  1  0  0  0  0
 47 46  1  0  0  0  0
 47 48  1  0  0  0  0
 49 47  1  0  0  0  0
M  END
>  <MODEL>
7

>  <REMARK>
 VINA RESULT:      -7.8      3.233      8.009
  Name = 
  14 active torsions:
  status: ('A' for Active; 'I' for Inactive)
    1  A    between atoms: N_1  and  C_26
    2  A    between atoms: C_3  and  C_20
    3  A    between atoms: N_5  and  C_41
    4  A    between atoms: C_7  and  C_12
    5  A    between atoms: C_7  and  C_29
    6  A    between atoms: C_8  and  N_11
    7  A    between atoms: N_11  and  C_28
    8  A    between atoms: C_12  and  N_38
    9  A    between atoms: C_15  and  C_20
   10  A    between atoms: C_15  and  C_22
   11  A    between atoms: C_20  and  C_45
   12  A    between atoms: C_26  and  N_44
   13  A    between atoms: C_35  and  C_40
   14  A    between atoms: C_46  and  C_47
                            x       y       z     vdW  Elec       q    Type
                         _______ _______ _______ _____ _____    ______ ____

>  <TORSDO>
F 14

$$$$
=
 OpenBabel10222418303D

 49 54  0  0  1  0  0  0  0  0999 V2000
  184.5360  177.9670  138.7370 C   0  0  0  0  0  0  0  0  0  0  0  0
  185.1690  178.9370  139.5310 C   0  0  0  0  0  3  0  0  0  0  0  0
  183.7710  178.3510  141.4210 C   0  0  0  0  0  0  0  0  0  0  0  0
  183.1330  177.3830  140.6400 C   0  0  0  0  0  3  0  0  0  0  0  0
  184.7900  179.1360  140.8570 C   0  0  0  0  0  3  0  0  0  0  0  0
  183.5020  177.1750  139.3000 C   0  0  0  0  0  0  0  0  0  0  0  0
  181.7140  176.6090  137.5630 N   0  0  0  0  0  2  0  0  0  0  0  0
  182.7360  176.2030  138.4830 C   0  0  0  0  0  0  0  0  0  0  0  0
  183.0000  174.9740  138.5760 O   0  0  0  0  0  0  0  0  0  0  0  0
  181.0600  177.9110  137.5660 C   0  0  0  0  0  2  0  0  0  0  0  0
  179.6550  177.7930  138.1420 C   0  0  0  0  0  2  0  0  0  0  0  0
  179.5720  179.3230  141.4260 C   0  0  0  0  0  0  0  0  0  0  0  0
  179.7370  177.7210  143.2410 C   0  0  0  0  0  3  0  0  0  0  0  0
  179.9000  175.9710  140.6410 O   0  0  0  0  0  0  0  0  0  0  0  0
  179.5010  180.1110  143.6940 C   0  0  0  0  0  3  0  0  0  0  0  0
  179.7790  177.2210  140.7010 C   0  0  0  0  0  0  0  0  0  0  0  0
  179.6690  178.1650  139.5830 C   0  0  0  0  0  0  0  0  0  0  0  0
  179.5470  179.3880  139.9980 N   0  0  0  0  0  0  0  0  0  0  0  0
  179.4680  180.3940  142.3130 C   0  0  0  0  0  3  0  0  0  0  0  0
  179.7060  178.0360  141.8850 C   0  0  0  0  0  0  0  0  0  0  0  0
  179.6320  178.7840  144.1540 C   0  0  0  0  0  3  0  0  0  0  0  0
  183.3380  178.5660  142.8380 C   0  0  2  0  0  3  0  0  0  0  0  0
  182.8830  179.8810  142.9940 O   0  0  0  0  0  1  0  0  0  0  0  0
  184.4890  178.2440  143.8040 C   0  0  2  0  0  3  0  0  0  0  0  0
  184.8110  178.2110  146.3560 C   0  0  0  0  0  2  0  0  0  0  0  0
  185.6300  179.3620  145.7930 C   0  0  0  0  0  2  0  0  0  0  0  0
  184.3040  178.9850  145.1500 C   0  0  0  0  0  3  0  0  0  0  0  0
  186.6340  177.2480  143.1630 N   0  0  0  0  0  0  0  0  0  0  0  0
  185.8600  178.2820  143.1640 C   0  0  0  0  0  3  0  0  0  0  0  0
  188.1960  178.7000  141.9920 C   0  0  0  0  0  1  0  0  0  0  0  0
  187.9580  177.3170  142.5960 C   0  0  1  0  0  3  0  0  0  0  0  0
  191.0950  177.8920  143.6550 C   0  0  0  0  0  0  0  0  0  0  0  0
  192.0340  178.7080  143.8580 O   0  0  0  0  0  0  0  0  0  0  0  0
  189.9650  176.0410  142.8890 C   0  0  0  0  0  3  0  0  0  0  0  0
  191.2660  176.6910  142.9470 N   0  0  0  0  0  0  0  0  0  0  0  0
  189.7090  178.0730  144.1120 C   0  0  1  0  0  3  0  0  0  0  0  0
  188.9820  176.9080  143.5750 N   0  0  0  0  0  0  0  0  0  0  0  0
  188.6070  177.1220  146.1930 C   0  0  0  0  0  1  0  0  0  0  0  0
  189.6070  178.1160  145.6390 C   0  0  0  0  0  2  0  0  0  0  0  0
  184.9850  177.7260  137.3930 N   0  0  0  0  0  2  0  0  0  0  0  0
  185.9890  175.2750  136.5610 S   0  0  0  0  0  0  0  0  0  0  0  0
  187.6450  175.0640  136.3630 C   0  0  0  0  0  0  0  0  0  0  0  0
  188.2620  173.7780  135.9390 C   0  0  0  0  0  1  0  0  0  0  0  0
  186.0830  176.8970  137.0000 C   0  0  0  0  0  0  0  0  0  0  0  0
  187.4110  177.3040  137.0180 C   0  0  0  0  0  3  0  0  0  0  0  0
  188.2980  176.2780  136.6530 C   0  0  0  0  0  0  0  0  0  0  0  0
  189.7230  176.4890  136.5750 N   0  0  0  0  0  0  0  0  0  0  0  0
  190.4980  177.0080  137.6910 C   0  0  0  0  0  1  0  0  0  0  0  0
  190.4470  176.1920  135.3430 C   0  0  0  0  0  1  0  0  0  0  0  0
  1  6  2  0  0  0  0
  1  2  1  0  0  0  0
  2  5  2  0  0  0  0
  3 22  1  0  0  0  0
  4  3  2  0  0  0  0
  5  3  1  0  0  0  0
  6  4  1  0  0  0  0
  7 10  1  0  0  0  0
  7  8  1  0  0  0  0
  8  9  2  0  0  0  0
  8  6  1  0  0  0  0
 10 11  1  0  0  0  0
 11 17  1  0  0  0  0
 12 20  2  0  0  0  0
 12 19  1  0  0  0  0
 13 21  2  0  0  0  0
 14 16  2  0  0  0  0
 15 21  1  0  0  0  0
 16 20  1  0  0  0  0
 17 18  2  0  0  0  0
 17 16  1  0  0  0  0
 18 12  1  0  0  0  0
 19 15  2  0  0  0  0
 20 13  1  0  0  0  0
 22 23  1  6  0  0  0
 22 24  1  0  0  0  0
 24 29  1  6  0  0  0
 24 27  1  0  0  0  0
 26 25  1  0  0  0  0
 27 26  1  0  0  0  0
 27 25  1  0  0  0  0
 28 29  2  0  0  0  0
 31 30  1  1  0  0  0
 31 28  1  0  0  0  0
 31 37  1  0  0  0  0
 32 33  2  0  0  0  0
 32 36  1  0  0  0  0
 34 35  2  0  0  0  0
 34 37  1  0  0  0  0
 35 32  1  0  0  0  0
 36 39  1  1  0  0  0
 37 36  1  0  0  0  0
 39 38  1  0  0  0  0
 40  1  1  0  0  0  0
 41 44  1  0  0  0  0
 42 41  1  0  0  0  0
 42 46  2  0  0  0  0
 43 42  1  0  0  0  0
 44 45  2  0  0  0  0
 44 40  1  0  0  0  0
 46 45  1  0  0  0  0
 47 46  1  0  0  0  0
 47 48  1  0  0  0  0
 49 47  1  0  0  0  0
M  END
>  <MODEL>
8

>  <REMARK>
 VINA RESULT:      -7.8      3.125      8.294
  Name = 
  14 active torsions:
  status: ('A' for Active; 'I' for Inactive)
    1  A    between atoms: N_1  and  C_26
    2  A    between atoms: C_3  and  C_20
    3  A    between atoms: N_5  and  C_41
    4  A    between atoms: C_7  and  C_12
    5  A    between atoms: C_7  and  C_29
    6  A    between atoms: C_8  and  N_11
    7  A    between atoms: N_11  and  C_28
    8  A    between atoms: C_12  and  N_38
    9  A    between atoms: C_15  and  C_20
   10  A    between atoms: C_15  and  C_22
   11  A    between atoms: C_20  and  C_45
   12  A    between atoms: C_26  and  N_44
   13  A    between atoms: C_35  and  C_40
   14  A    between atoms: C_46  and  C_47
                            x       y       z     vdW  Elec       q    Type
                         _______ _______ _______ _____ _____    ______ ____

>  <TORSDO>
F 14

$$$$
=
 OpenBabel10222418303D

 49 54  0  0  1  0  0  0  0  0999 V2000
  181.3670  178.4120  141.2220 C   0  0  0  0  0  0  0  0  0  0  0  0
  181.0000  179.1850  142.3350 C   0  0  0  0  0  3  0  0  0  0  0  0
  183.2430  179.0120  143.2370 C   0  0  0  0  0  0  0  0  0  0  0  0
  183.6190  178.2410  142.1330 C   0  0  0  0  0  3  0  0  0  0  0  0
  181.9220  179.4790  143.3390 C   0  0  0  0  0  3  0  0  0  0  0  0
  182.6990  177.9330  141.1170 C   0  0  0  0  0  0  0  0  0  0  0  0
  184.2060  177.3530  139.1360 N   0  0  0  0  0  2  0  0  0  0  0  0
  183.1160  177.0360  140.0120 C   0  0  0  0  0  0  0  0  0  0  0  0
  182.5130  175.9430  139.8420 O   0  0  0  0  0  0  0  0  0  0  0  0
  184.7850  178.6800  138.9720 C   0  0  0  0  0  2  0  0  0  0  0  0
  185.5780  178.7520  137.6730 C   0  0  0  0  0  2  0  0  0  0  0  0
  188.9310  177.6820  138.5370 C   0  0  0  0  0  0  0  0  0  0  0  0
  189.5320  175.5310  137.5890 C   0  0  0  0  0  3  0  0  0  0  0  0
  186.6180  176.0540  136.5480 O   0  0  0  0  0  0  0  0  0  0  0  0
  191.0970  176.7580  139.0090 C   0  0  0  0  0  3  0  0  0  0  0  0
  187.3000  176.8080  137.2880 C   0  0  0  0  0  0  0  0  0  0  0  0
  186.9040  178.1010  137.8560 C   0  0  0  0  0  0  0  0  0  0  0  0
  187.8470  178.6130  138.5850 N   0  0  0  0  0  0  0  0  0  0  0  0
  190.1650  177.8030  139.1750 C   0  0  0  0  0  3  0  0  0  0  0  0
  188.6360  176.5820  137.7690 C   0  0  0  0  0  0  0  0  0  0  0  0
  190.7810  175.6290  138.2240 C   0  0  0  0  0  3  0  0  0  0  0  0
  184.2400  179.3020  144.3140 C   0  0  2  0  0  3  0  0  0  0  0  0
  185.0070  180.4170  143.9550 O   0  0  0  0  0  1  0  0  0  0  0  0
  185.1180  178.0680  144.5770 C   0  0  2  0  0  3  0  0  0  0  0  0
  186.7200  177.7640  146.5660 C   0  0  0  0  0  2  0  0  0  0  0  0
  185.8790  179.0050  146.8240 C   0  0  0  0  0  2  0  0  0  0  0  0
  185.2760  177.8140  146.0950 C   0  0  0  0  0  3  0  0  0  0  0  0
  187.0720  176.9300  143.6360 N   0  0  0  0  0  0  0  0  0  0  0  0
  186.3650  178.0060  143.7210 C   0  0  0  0  0  3  0  0  0  0  0  0
  188.4680  178.2330  142.1270 C   0  0  0  0  0  1  0  0  0  0  0  0
  188.2870  176.9030  142.8580 C   0  0  1  0  0  3  0  0  0  0  0  0
  191.3040  177.8930  143.9590 C   0  0  0  0  0  0  0  0  0  0  0  0
  192.0630  178.8260  144.3360 O   0  0  0  0  0  0  0  0  0  0  0  0
  190.5330  176.0720  142.7850 C   0  0  0  0  0  3  0  0  0  0  0  0
  191.6690  176.9610  142.9730 N   0  0  0  0  0  0  0  0  0  0  0  0
  189.9490  177.6490  144.4750 C   0  0  1  0  0  3  0  0  0  0  0  0
  189.4440  176.5130  143.6840 N   0  0  0  0  0  0  0  0  0  0  0  0
  191.2820  176.7520  146.4420 C   0  0  0  0  0  1  0  0  0  0  0  0
  189.9540  177.3080  145.9680 C   0  0  0  0  0  2  0  0  0  0  0  0
  180.4240  178.1760  140.1620 N   0  0  0  0  0  2  0  0  0  0  0  0
  180.6900  178.1050  137.3990 S   0  0  0  0  0  0  0  0  0  0  0  0
  180.5610  179.5210  136.5020 C   0  0  0  0  0  0  0  0  0  0  0  0
  180.7100  179.5690  135.0220 C   0  0  0  0  0  1  0  0  0  0  0  0
  180.3950  178.8300  138.8900 C   0  0  0  0  0  0  0  0  0  0  0  0
  180.2090  180.1950  138.7210 C   0  0  0  0  0  3  0  0  0  0  0  0
  180.2940  180.5920  137.3760 C   0  0  0  0  0  0  0  0  0  0  0  0
  180.1010  181.9630  136.9680 N   0  0  0  0  0  0  0  0  0  0  0  0
  180.9990  183.0320  137.3740 C   0  0  0  0  0  1  0  0  0  0  0  0
  178.9680  182.3300  136.1250 C   0  0  0  0  0  1  0  0  0  0  0  0
  1  2  1  0  0  0  0
  2  5  2  0  0  0  0
  3  5  1  0  0  0  0
  3 22  1  0  0  0  0
  4  3  2  0  0  0  0
  6  1  2  0  0  0  0
  6  4  1  0  0  0  0
  7  8  1  0  0  0  0
  8  6  1  0  0  0  0
  9  8  2  0  0  0  0
 10  7  1  0  0  0  0
 11 17  1  0  0  0  0
 11 10  1  0  0  0  0
 12 18  1  0  0  0  0
 12 19  1  0  0  0  0
 13 20  1  0  0  0  0
 13 21  2  0  0  0  0
 14 16  2  0  0  0  0
 15 19  2  0  0  0  0
 16 20  1  0  0  0  0
 16 17  1  0  0  0  0
 17 18  2  0  0  0  0
 20 12  2  0  0  0  0
 21 15  1  0  0  0  0
 22 23  1  6  0  0  0
 22 24  1  0  0  0  0
 24 29  1  1  0  0  0
 24 27  1  0  0  0  0
 25 26  1  0  0  0  0
 27 25  1  0  0  0  0
 27 26  1  0  0  0  0
 28 29  2  0  0  0  0
 31 30  1  1  0  0  0
 31 28  1  0  0  0  0
 31 37  1  0  0  0  0
 32 33  2  0  0  0  0
 32 36  1  0  0  0  0
 34 35  2  0  0  0  0
 34 37  1  0  0  0  0
 35 32  1  0  0  0  0
 36 39  1  1  0  0  0
 37 36  1  0  0  0  0
 39 38  1  0  0  0  0
 40  1  1  0  0  0  0
 41 44  1  0  0  0  0
 42 46  2  0  0  0  0
 42 41  1  0  0  0  0
 43 42  1  0  0  0  0
 44 40  1  0  0  0  0
 45 44  2  0  0  0  0
 46 45  1  0  0  0  0
 47 48  1  0  0  0  0
 47 46  1  0  0  0  0
 49 47  1  0  0  0  0
M  END
>  <MODEL>
9

>  <REMARK>
 VINA RESULT:      -7.6      3.317     10.160
  Name = 
  14 active torsions:
  status: ('A' for Active; 'I' for Inactive)
    1  A    between atoms: N_1  and  C_26
    2  A    between atoms: C_3  and  C_20
    3  A    between atoms: N_5  and  C_41
    4  A    between atoms: C_7  and  C_12
    5  A    between atoms: C_7  and  C_29
    6  A    between atoms: C_8  and  N_11
    7  A    between atoms: N_11  and  C_28
    8  A    between atoms: C_12  and  N_38
    9  A    between atoms: C_15  and  C_20
   10  A    between atoms: C_15  and  C_22
   11  A    between atoms: C_20  and  C_45
   12  A    between atoms: C_26  and  N_44
   13  A    between atoms: C_35  and  C_40
   14  A    between atoms: C_46  and  C_47
                            x       y       z     vdW  Elec       q    Type
                         _______ _______ _______ _____ _____    ______ ____

>  <TORSDO>
F 14

$$$$
