=
 OpenBabel10222421203D

 45 50  0  0  1  0  0  0  0  0999 V2000
  190.4310  176.8260  137.9760 N   0  0  0  0  0  2  0  0  0  0  0  0
  191.3420  174.6140  138.0000 N   0  0  0  0  0  0  0  0  0  0  0  0
  189.5540  178.0670  139.8530 N   0  0  0  0  0  0  0  0  0  0  0  0
  190.6630  175.5530  138.5870 C   0  0  0  0  0  3  0  0  0  0  0  0
  189.6560  177.8820  138.5660 C   0  0  0  0  0  0  0  0  0  0  0  0
  186.5540  177.7510  143.6290 C   0  0  0  0  0  3  0  0  0  0  0  0
  189.1970  177.0470  144.0710 C   0  0  0  0  0  0  0  0  0  0  0  0
  188.6850  177.0410  142.8000 C   0  0  0  0  0  0  0  0  0  0  0  0
  190.3120  177.4320  140.8880 C   0  0  1  0  0  3  0  0  0  0  0  0
  188.4320  177.4470  145.1630 C   0  0  0  0  0  3  0  0  0  0  0  0
  191.6200  177.6100  141.0880 C   0  0  0  0  0  2  0  0  0  0  0  0
  190.8780  176.4320  142.8480 C   0  0  0  0  0  0  0  0  0  0  0  0
  190.5780  176.7290  144.0760 N   0  0  0  0  0  0  0  0  0  0  0  0
  189.7260  176.5010  141.8920 C   0  0  1  0  0  3  0  0  0  0  0  0
  187.0910  177.7980  144.9320 C   0  0  0  0  0  3  0  0  0  0  0  0
  187.3540  177.3600  142.5440 C   0  0  0  0  0  3  0  0  0  0  0  0
  192.0680  176.9400  142.2640 N   0  0  0  0  0  2  0  0  0  0  0  0
  191.2930  174.2470  135.6780 O   0  0  0  0  0  0  0  0  0  0  0  0
  191.9180  174.6780  136.6870 C   0  0  0  0  0  0  0  0  0  0  0  0
  196.1570  174.8880  136.6360 N   0  0  0  0  0  0  0  0  0  0  0  0
  195.4180  174.4290  137.8130 C   0  0  0  0  0  2  0  0  0  0  0  0
  194.0550  174.4710  135.4020 C   0  0  0  0  0  2  0  0  0  0  0  0
  198.2200  175.5330  135.7410 O   0  0  0  0  0  0  0  0  0  0  0  0
  197.5480  175.2080  136.7590 C   0  0  0  0  0  0  0  0  0  0  0  0
  198.1690  175.1760  138.0010 O   0  0  0  0  0  1  0  0  0  0  0  0
  194.0490  175.1090  137.8920 C   0  0  0  0  0  2  0  0  0  0  0  0
  195.5030  174.9480  135.3240 C   0  0  0  0  0  2  0  0  0  0  0  0
  193.3180  175.1810  136.5400 C   0  0  0  0  0  3  0  0  0  0  0  0
  188.7680  178.9840  137.4740 S   0  0  0  0  0  0  0  0  0  0  0  0
  187.2970  177.9140  137.4100 C   0  0  0  0  0  2  0  0  0  0  0  0
  184.8270  178.0450  137.9500 C   0  0  0  0  0  0  0  0  0  0  0  0
  186.1400  178.6080  137.9580 N   0  0  0  0  0  2  0  0  0  0  0  0
  184.6310  176.8780  137.5090 O   0  0  0  0  0  0  0  0  0  0  0  0
  183.4530  178.0910  140.7920 C   0  0  1  0  0  3  0  0  0  0  0  0
  181.6190  178.3500  141.9160 C   0  0  1  0  0  3  0  0  0  0  0  0
  182.3340  178.1960  138.1720 C   0  0  0  0  0  2  0  0  0  0  0  0
  181.9840  177.7080  140.5750 C   0  0  1  0  0  3  0  0  0  0  0  0
  181.3700  178.3630  139.3340 C   0  0  0  0  0  2  0  0  0  0  0  0
  183.6880  178.8520  138.4830 C   0  0  1  0  0  3  0  0  0  0  0  0
  183.8790  179.1840  139.9080 N   0  0  0  0  0  2  0  0  0  0  0  0
  183.0880  178.6710  142.1500 C   0  0  0  0  0  2  0  0  0  0  0  0
  180.8680  179.5910  141.7560 N   0  0  0  0  0  2  0  0  0  0  0  0
  179.5750  179.7790  142.3310 C   0  0  0  0  0  0  0  0  0  0  0  0
  179.0080  180.8970  142.2310 O   0  0  0  0  0  0  0  0  0  0  0  0
  178.9400  178.7410  143.0040 O   0  0  0  0  0  1  0  0  0  0  0  0
  1  5  1  0  0  0  0
  1  4  1  0  0  0  0
  2  4  2  0  0  0  0
  5  3  2  0  0  0  0
  6 15  1  0  0  0  0
  7 13  1  0  0  0  0
  7 10  1  0  0  0  0
  8  7  2  0  0  0  0
  9  3  1  1  0  0  0
  9 11  1  0  0  0  0
  9 14  1  0  0  0  0
 11 17  1  0  0  0  0
 12 13  2  0  0  0  0
 14  8  1  1  0  0  0
 14 12  1  0  0  0  0
 15 10  2  0  0  0  0
 16  8  1  0  0  0  0
 16  6  2  0  0  0  0
 17 12  1  0  0  0  0
 18 19  2  0  0  0  0
 19  2  1  0  0  0  0
 20 24  1  0  0  0  0
 20 21  1  0  0  0  0
 21 26  1  0  0  0  0
 22 28  1  0  0  0  0
 23 24  2  0  0  0  0
 24 25  1  0  0  0  0
 27 22  1  0  0  0  0
 27 20  1  0  0  0  0
 28 19  1  0  0  0  0
 28 26  1  0  0  0  0
 29  5  1  0  0  0  0
 30 29  1  0  0  0  0
 30 32  1  0  0  0  0
 31 32  1  0  0  0  0
 33 31  2  0  0  0  0
 34 41  1  1  0  0  0
 35 42  1  6  0  0  0
 35 41  1  0  0  0  0
 36 39  1  0  0  0  0
 36 38  1  0  0  0  0
 37 38  1  6  0  0  0
 37 34  1  0  0  0  0
 37 35  1  0  0  0  0
 39 31  1  1  0  0  0
 39 40  1  0  0  0  0
 40 34  1  0  0  0  0
 42 43  1  0  0  0  0
 43 45  1  0  0  0  0
 44 43  2  0  0  0  0
M  END
>  <MODEL>
1

>  <REMARK>
 VINA RESULT:      -9.2      0.000      0.000
  Name = 
  8 active torsions:
  status: ('A' for Active; 'I' for Inactive)
    1  A    between atoms: C_1  and  C_28
    2  A    between atoms: S_9  and  C_17
    3  A    between atoms: S_9  and  C_39
    4  A    between atoms: C_12  and  N_18
    5  A    between atoms: C_17  and  N_33
    6  A    between atoms: C_19  and  N_26
    7  A    between atoms: N_22  and  C_23
    8  A    between atoms: C_23  and  C_36
                            x       y       z     vdW  Elec       q    Type
                         _______ _______ _______ _____ _____    ______ ____

>  <TORSDO>
F 8

$$$$
=
 OpenBabel10222421203D

 45 50  0  0  1  0  0  0  0  0999 V2000
  184.4940  177.4360  138.4200 N   0  0  0  0  0  2  0  0  0  0  0  0
  182.8580  177.6410  140.1530 N   0  0  0  0  0  0  0  0  0  0  0  0
  184.1940  176.4620  136.2310 N   0  0  0  0  0  0  0  0  0  0  0  0
  183.2370  177.1200  139.0250 C   0  0  0  0  0  3  0  0  0  0  0  0
  184.9760  176.8610  137.1960 C   0  0  0  0  0  0  0  0  0  0  0  0
  182.1850  172.0670  136.1110 C   0  0  0  0  0  3  0  0  0  0  0  0
  180.5170  174.2180  135.5930 C   0  0  0  0  0  0  0  0  0  0  0  0
  181.6910  174.4050  136.2730 C   0  0  0  0  0  0  0  0  0  0  0  0
  182.7870  176.6910  136.0990 C   0  0  1  0  0  3  0  0  0  0  0  0
  180.1480  172.9680  135.1040 C   0  0  0  0  0  3  0  0  0  0  0  0
  182.2440  177.6920  135.4030 C   0  0  0  0  0  2  0  0  0  0  0  0
  180.5440  176.3500  135.9880 C   0  0  0  0  0  0  0  0  0  0  0  0
  179.8470  175.4470  135.3670 N   0  0  0  0  0  0  0  0  0  0  0  0
  181.7440  175.8210  136.7110 C   0  0  1  0  0  3  0  0  0  0  0  0
  180.9960  171.8810  135.3750 C   0  0  0  0  0  3  0  0  0  0  0  0
  182.5400  173.3430  136.5770 C   0  0  0  0  0  3  0  0  0  0  0  0
  180.8220  177.5900  135.3570 N   0  0  0  0  0  2  0  0  0  0  0  0
  184.1490  179.5820  140.4630 O   0  0  0  0  0  0  0  0  0  0  0  0
  183.6150  178.5530  140.9640 C   0  0  0  0  0  0  0  0  0  0  0  0
  184.9050  178.7280  145.0030 N   0  0  0  0  0  0  0  0  0  0  0  0
  185.8400  178.8570  143.8850 C   0  0  0  0  0  2  0  0  0  0  0  0
  183.1500  179.2160  143.3310 C   0  0  0  0  0  2  0  0  0  0  0  0
  184.6270  178.4720  147.3120 O   0  0  0  0  0  1  0  0  0  0  0  0
  185.4140  178.5110  146.3250 C   0  0  0  0  0  0  0  0  0  0  0  0
  186.7750  178.3290  146.5330 O   0  0  0  0  0  0  0  0  0  0  0  0
  185.3500  178.0600  142.6740 C   0  0  0  0  0  2  0  0  0  0  0  0
  183.4630  178.8950  144.7900 C   0  0  0  0  0  2  0  0  0  0  0  0
  183.8440  178.2170  142.4020 C   0  0  0  0  0  3  0  0  0  0  0  0
  186.7420  176.6600  136.9970 S   0  0  0  0  0  0  0  0  0  0  0  0
  187.1370  177.8520  138.3150 C   0  0  0  0  0  2  0  0  0  0  0  0
  189.2950  177.6010  139.6140 C   0  0  0  0  0  0  0  0  0  0  0  0
  187.9450  177.2180  139.3470 N   0  0  0  0  0  2  0  0  0  0  0  0
  189.8260  178.5600  138.9880 O   0  0  0  0  0  0  0  0  0  0  0  0
  189.4940  177.9870  142.7410 C   0  0  1  0  0  3  0  0  0  0  0  0
  190.7400  177.8600  144.5080 C   0  0  1  0  0  3  0  0  0  0  0  0
  191.4970  177.4040  140.7980 C   0  0  0  0  0  2  0  0  0  0  0  0
  190.9670  178.2790  143.0540 C   0  0  1  0  0  3  0  0  0  0  0  0
  191.9350  177.4020  142.2520 C   0  0  0  0  0  2  0  0  0  0  0  0
  190.0690  176.8570  140.6530 C   0  0  1  0  0  3  0  0  0  0  0  0
  189.3270  176.7760  141.9260 N   0  0  0  0  0  2  0  0  0  0  0  0
  189.2660  177.6330  144.2020 C   0  0  0  0  0  2  0  0  0  0  0  0
  191.3730  176.5840  144.8290 N   0  0  0  0  0  2  0  0  0  0  0  0
  191.8270  176.2680  146.1450 C   0  0  0  0  0  0  0  0  0  0  0  0
  192.2910  175.1240  146.3840 O   0  0  0  0  0  0  0  0  0  0  0  0
  191.7550  177.2100  147.1650 O   0  0  0  0  0  1  0  0  0  0  0  0
  1  4  1  0  0  0  0
  2 19  1  0  0  0  0
  3  5  2  0  0  0  0
  4  2  2  0  0  0  0
  5  1  1  0  0  0  0
  6 16  1  0  0  0  0
  7  8  1  0  0  0  0
  8 16  2  0  0  0  0
  8 14  1  0  0  0  0
  9  3  1  6  0  0  0
  9 14  1  0  0  0  0
 10 15  1  0  0  0  0
 10  7  2  0  0  0  0
 11  9  1  0  0  0  0
 13  7  1  0  0  0  0
 13 12  2  0  0  0  0
 14 12  1  6  0  0  0
 15  6  2  0  0  0  0
 17 11  1  0  0  0  0
 17 12  1  0  0  0  0
 18 19  2  0  0  0  0
 19 28  1  0  0  0  0
 20 24  1  0  0  0  0
 21 20  1  0  0  0  0
 22 27  1  0  0  0  0
 24 25  2  0  0  0  0
 24 23  1  0  0  0  0
 26 21  1  0  0  0  0
 27 20  1  0  0  0  0
 28 26  1  0  0  0  0
 28 22  1  0  0  0  0
 29  5  1  0  0  0  0
 29 30  1  0  0  0  0
 30 32  1  0  0  0  0
 32 31  1  0  0  0  0
 33 31  2  0  0  0  0
 34 37  1  0  0  0  0
 34 41  1  1  0  0  0
 35 42  1  6  0  0  0
 36 38  1  0  0  0  0
 37 38  1  6  0  0  0
 37 35  1  0  0  0  0
 39 31  1  6  0  0  0
 39 36  1  0  0  0  0
 39 40  1  0  0  0  0
 40 34  1  0  0  0  0
 41 35  1  0  0  0  0
 42 43  1  0  0  0  0
 43 44  2  0  0  0  0
 43 45  1  0  0  0  0
M  END
>  <MODEL>
2

>  <REMARK>
 VINA RESULT:      -8.5      4.330     10.803
  Name = 
  8 active torsions:
  status: ('A' for Active; 'I' for Inactive)
    1  A    between atoms: C_1  and  C_28
    2  A    between atoms: S_9  and  C_17
    3  A    between atoms: S_9  and  C_39
    4  A    between atoms: C_12  and  N_18
    5  A    between atoms: C_17  and  N_33
    6  A    between atoms: C_19  and  N_26
    7  A    between atoms: N_22  and  C_23
    8  A    between atoms: C_23  and  C_36
                            x       y       z     vdW  Elec       q    Type
                         _______ _______ _______ _____ _____    ______ ____

>  <TORSDO>
F 8

$$$$
=
 OpenBabel10222421203D

 45 50  0  0  1  0  0  0  0  0999 V2000
  190.4730  177.0290  138.1470 N   0  0  0  0  0  2  0  0  0  0  0  0
  191.4830  174.8620  138.0550 N   0  0  0  0  0  0  0  0  0  0  0  0
  189.4540  178.0870  140.0630 N   0  0  0  0  0  0  0  0  0  0  0  0
  190.7350  175.7240  138.6740 C   0  0  0  0  0  3  0  0  0  0  0  0
  189.6250  178.0040  138.7730 C   0  0  0  0  0  0  0  0  0  0  0  0
  186.4470  177.8060  143.8370 C   0  0  0  0  0  3  0  0  0  0  0  0
  189.0650  177.0050  144.2630 C   0  0  0  0  0  0  0  0  0  0  0  0
  188.5530  177.0390  142.9920 C   0  0  0  0  0  0  0  0  0  0  0  0
  190.1900  177.4090  141.0860 C   0  0  1  0  0  3  0  0  0  0  0  0
  188.3150  177.4110  145.3630 C   0  0  0  0  0  3  0  0  0  0  0  0
  191.5030  177.5390  141.2870 C   0  0  0  0  0  2  0  0  0  0  0  0
  190.7230  176.3560  143.0260 C   0  0  0  0  0  0  0  0  0  0  0  0
  190.4350  176.6410  144.2600 N   0  0  0  0  0  0  0  0  0  0  0  0
  189.5740  176.4800  142.0740 C   0  0  1  0  0  3  0  0  0  0  0  0
  186.9860  177.8110  145.1400 C   0  0  0  0  0  3  0  0  0  0  0  0
  187.2330  177.4080  142.7440 C   0  0  0  0  0  3  0  0  0  0  0  0
  191.9300  176.8330  142.4500 N   0  0  0  0  0  2  0  0  0  0  0  0
  191.4910  174.8410  135.7030 O   0  0  0  0  0  0  0  0  0  0  0  0
  192.1170  175.0490  136.7800 C   0  0  0  0  0  0  0  0  0  0  0  0
  196.3500  174.7720  136.6480 N   0  0  0  0  0  0  0  0  0  0  0  0
  195.5580  174.0630  137.6540 C   0  0  0  0  0  2  0  0  0  0  0  0
  194.2150  174.9990  135.4190 C   0  0  0  0  0  2  0  0  0  0  0  0
  198.4770  175.4160  135.9190 O   0  0  0  0  0  0  0  0  0  0  0  0
  197.7690  174.8750  136.8140 C   0  0  0  0  0  0  0  0  0  0  0  0
  198.3790  174.3930  137.9640 O   0  0  0  0  0  1  0  0  0  0  0  0
  194.2810  174.8400  137.9840 C   0  0  0  0  0  2  0  0  0  0  0  0
  195.7110  175.3060  135.4400 C   0  0  0  0  0  2  0  0  0  0  0  0
  193.5670  175.4070  136.7450 C   0  0  0  0  0  3  0  0  0  0  0  0
  188.7390  179.1470  137.7210 S   0  0  0  0  0  0  0  0  0  0  0  0
  188.5860  177.9490  136.3590 C   0  0  0  0  0  2  0  0  0  0  0  0
  186.6840  176.3100  136.6860 C   0  0  0  0  0  0  0  0  0  0  0  0
  187.1960  177.5480  136.1900 N   0  0  0  0  0  2  0  0  0  0  0  0
  187.4220  175.5300  137.3500 O   0  0  0  0  0  0  0  0  0  0  0  0
  183.9910  177.4370  137.8880 C   0  0  1  0  0  3  0  0  0  0  0  0
  181.9540  177.0100  138.4880 C   0  0  1  0  0  3  0  0  0  0  0  0
  184.7960  174.7710  137.2800 C   0  0  0  0  0  2  0  0  0  0  0  0
  183.2830  176.2550  138.5620 C   0  0  1  0  0  3  0  0  0  0  0  0
  183.3620  174.9630  137.7430 C   0  0  0  0  0  2  0  0  0  0  0  0
  185.2580  175.9550  136.4170 C   0  0  1  0  0  3  0  0  0  0  0  0
  184.3800  177.1370  136.5030 N   0  0  0  0  0  2  0  0  0  0  0  0
  182.6770  178.2020  137.8760 C   0  0  0  0  0  2  0  0  0  0  0  0
  181.0400  176.4380  137.5050 N   0  0  0  0  0  2  0  0  0  0  0  0
  179.7540  175.9320  137.8640 C   0  0  0  0  0  0  0  0  0  0  0  0
  178.9740  175.5250  136.9660 O   0  0  0  0  0  0  0  0  0  0  0  0
  179.3540  175.8910  139.1950 O   0  0  0  0  0  1  0  0  0  0  0  0
  1  4  1  0  0  0  0
  1  5  1  0  0  0  0
  2  4  2  0  0  0  0
  5  3  2  0  0  0  0
  6 15  1  0  0  0  0
  7 10  1  0  0  0  0
  8  7  2  0  0  0  0
  9  3  1  1  0  0  0
  9 11  1  0  0  0  0
  9 14  1  0  0  0  0
 11 17  1  0  0  0  0
 12 13  2  0  0  0  0
 13  7  1  0  0  0  0
 14  8  1  1  0  0  0
 14 12  1  0  0  0  0
 15 10  2  0  0  0  0
 16  8  1  0  0  0  0
 16  6  2  0  0  0  0
 17 12  1  0  0  0  0
 18 19  2  0  0  0  0
 19  2  1  0  0  0  0
 20 24  1  0  0  0  0
 20 21  1  0  0  0  0
 21 26  1  0  0  0  0
 22 27  1  0  0  0  0
 22 28  1  0  0  0  0
 23 24  2  0  0  0  0
 24 25  1  0  0  0  0
 27 20  1  0  0  0  0
 28 19  1  0  0  0  0
 28 26  1  0  0  0  0
 29  5  1  0  0  0  0
 30 29  1  0  0  0  0
 31 33  2  0  0  0  0
 32 30  1  0  0  0  0
 32 31  1  0  0  0  0
 34 41  1  6  0  0  0
 34 37  1  0  0  0  0
 35 42  1  6  0  0  0
 35 37  1  0  0  0  0
 36 38  1  0  0  0  0
 37 38  1  6  0  0  0
 39 40  1  0  0  0  0
 39 31  1  1  0  0  0
 39 36  1  0  0  0  0
 40 34  1  0  0  0  0
 41 35  1  0  0  0  0
 42 43  1  0  0  0  0
 43 45  1  0  0  0  0
 44 43  2  0  0  0  0
M  END
>  <MODEL>
3

>  <REMARK>
 VINA RESULT:      -8.4      2.100      2.533
  Name = 
  8 active torsions:
  status: ('A' for Active; 'I' for Inactive)
    1  A    between atoms: C_1  and  C_28
    2  A    between atoms: S_9  and  C_17
    3  A    between atoms: S_9  and  C_39
    4  A    between atoms: C_12  and  N_18
    5  A    between atoms: C_17  and  N_33
    6  A    between atoms: C_19  and  N_26
    7  A    between atoms: N_22  and  C_23
    8  A    between atoms: C_23  and  C_36
                            x       y       z     vdW  Elec       q    Type
                         _______ _______ _______ _____ _____    ______ ____

>  <TORSDO>
F 8

$$$$
=
 OpenBabel10222421203D

 45 50  0  0  1  0  0  0  0  0999 V2000
  183.2660  177.1810  139.2860 N   0  0  0  0  0  2  0  0  0  0  0  0
  183.4850  178.3490  141.3620 N   0  0  0  0  0  0  0  0  0  0  0  0
  181.4320  175.7760  138.5840 N   0  0  0  0  0  0  0  0  0  0  0  0
  182.8930  177.4450  140.6420 C   0  0  0  0  0  3  0  0  0  0  0  0
  182.6690  176.1690  138.4600 C   0  0  0  0  0  0  0  0  0  0  0  0
  181.4760  180.4630  137.4060 C   0  0  0  0  0  3  0  0  0  0  0  0
  179.8480  179.7220  139.5220 C   0  0  0  0  0  0  0  0  0  0  0  0
  180.2470  178.7900  138.6000 C   0  0  0  0  0  0  0  0  0  0  0  0
  180.4010  176.3760  139.3760 C   0  0  1  0  0  3  0  0  0  0  0  0
  180.2800  181.0440  139.4570 C   0  0  0  0  0  3  0  0  0  0  0  0
  180.0850  176.0040  140.6180 C   0  0  0  0  0  2  0  0  0  0  0  0
  178.9320  177.8870  140.2230 C   0  0  0  0  0  0  0  0  0  0  0  0
  179.0860  179.1320  140.5610 N   0  0  0  0  0  0  0  0  0  0  0  0
  179.5590  177.5150  138.9150 C   0  0  1  0  0  3  0  0  0  0  0  0
  181.1010  181.4140  138.3770 C   0  0  0  0  0  3  0  0  0  0  0  0
  181.0400  179.1320  137.5070 C   0  0  0  0  0  3  0  0  0  0  0  0
  179.1010  176.8630  141.1910 N   0  0  0  0  0  2  0  0  0  0  0  0
  184.5200  179.8760  139.9040 O   0  0  0  0  0  0  0  0  0  0  0  0
  184.5860  179.1740  140.9520 C   0  0  0  0  0  0  0  0  0  0  0  0
  187.9490  177.7470  143.1110 N   0  0  0  0  0  0  0  0  0  0  0  0
  186.5820  177.3660  143.4670 C   0  0  0  0  0  2  0  0  0  0  0  0
  186.9780  178.4430  140.9460 C   0  0  0  0  0  2  0  0  0  0  0  0
  190.2110  177.7270  143.7070 O   0  0  0  0  0  0  0  0  0  0  0  0
  189.0160  177.4740  144.0270 C   0  0  0  0  0  0  0  0  0  0  0  0
  188.7470  176.9420  145.2810 O   0  0  0  0  0  1  0  0  0  0  0  0
  185.5990  178.4860  143.1140 C   0  0  0  0  0  2  0  0  0  0  0  0
  188.2400  178.3330  141.7980 C   0  0  0  0  0  2  0  0  0  0  0  0
  185.8560  179.1210  141.7370 C   0  0  0  0  0  3  0  0  0  0  0  0
  183.6880  175.3930  137.2120 S   0  0  0  0  0  0  0  0  0  0  0  0
  184.1540  176.9780  136.4490 C   0  0  0  0  0  2  0  0  0  0  0  0
  186.4680  177.8850  136.9300 C   0  0  0  0  0  0  0  0  0  0  0  0
  185.5890  177.0220  136.2060 N   0  0  0  0  0  2  0  0  0  0  0  0
  186.0270  178.6150  137.8620 O   0  0  0  0  0  0  0  0  0  0  0  0
  188.8160  175.8980  137.6410 C   0  0  1  0  0  3  0  0  0  0  0  0
  190.9230  175.6660  138.0870 C   0  0  1  0  0  3  0  0  0  0  0  0
  188.7340  178.7470  137.5710 C   0  0  0  0  0  2  0  0  0  0  0  0
  189.8550  176.7090  138.4240 C   0  0  1  0  0  3  0  0  0  0  0  0
  190.0840  178.1080  137.8440 C   0  0  0  0  0  2  0  0  0  0  0  0
  187.9190  177.9050  136.5770 C   0  0  1  0  0  3  0  0  0  0  0  0
  188.4460  176.5430  136.3720 N   0  0  0  0  0  2  0  0  0  0  0  0
  189.8690  174.8370  137.3640 C   0  0  0  0  0  2  0  0  0  0  0  0
  191.9010  176.1580  137.1220 N   0  0  0  0  0  2  0  0  0  0  0  0
  193.2500  176.4510  137.4870 C   0  0  0  0  0  0  0  0  0  0  0  0
  194.0730  176.7940  136.6010 O   0  0  0  0  0  0  0  0  0  0  0  0
  193.6630  176.3550  138.8120 O   0  0  0  0  0  1  0  0  0  0  0  0
  1  4  1  0  0  0  0
  4  2  2  0  0  0  0
  5  3  2  0  0  0  0
  5  1  1  0  0  0  0
  6 16  2  0  0  0  0
  6 15  1  0  0  0  0
  7 13  1  0  0  0  0
  8  7  2  0  0  0  0
  9  3  1  1  0  0  0
  9 11  1  0  0  0  0
 10  7  1  0  0  0  0
 11 17  1  0  0  0  0
 12 13  2  0  0  0  0
 12 17  1  0  0  0  0
 14  8  1  1  0  0  0
 14  9  1  0  0  0  0
 14 12  1  0  0  0  0
 15 10  2  0  0  0  0
 16  8  1  0  0  0  0
 18 19  2  0  0  0  0
 19  2  1  0  0  0  0
 19 28  1  0  0  0  0
 20 21  1  0  0  0  0
 20 24  1  0  0  0  0
 22 28  1  0  0  0  0
 22 27  1  0  0  0  0
 23 24  2  0  0  0  0
 24 25  1  0  0  0  0
 26 21  1  0  0  0  0
 27 20  1  0  0  0  0
 28 26  1  0  0  0  0
 29  5  1  0  0  0  0
 30 29  1  0  0  0  0
 31 33  2  0  0  0  0
 32 30  1  0  0  0  0
 32 31  1  0  0  0  0
 34 41  1  6  0  0  0
 34 37  1  0  0  0  0
 35 42  1  6  0  0  0
 35 37  1  0  0  0  0
 36 38  1  0  0  0  0
 37 38  1  6  0  0  0
 39 31  1  1  0  0  0
 39 36  1  0  0  0  0
 40 39  1  0  0  0  0
 40 34  1  0  0  0  0
 41 35  1  0  0  0  0
 42 43  1  0  0  0  0
 43 45  1  0  0  0  0
 44 43  2  0  0  0  0
M  END
>  <MODEL>
4

>  <REMARK>
 VINA RESULT:      -8.4      3.010      9.879
  Name = 
  8 active torsions:
  status: ('A' for Active; 'I' for Inactive)
    1  A    between atoms: C_1  and  C_28
    2  A    between atoms: S_9  and  C_17
    3  A    between atoms: S_9  and  C_39
    4  A    between atoms: C_12  and  N_18
    5  A    between atoms: C_17  and  N_33
    6  A    between atoms: C_19  and  N_26
    7  A    between atoms: N_22  and  C_23
    8  A    between atoms: C_23  and  C_36
                            x       y       z     vdW  Elec       q    Type
                         _______ _______ _______ _____ _____    ______ ____

>  <TORSDO>
F 8

$$$$
=
 OpenBabel10222421203D

 45 50  0  0  1  0  0  0  0  0999 V2000
  184.8740  177.0780  137.8840 N   0  0  0  0  0  2  0  0  0  0  0  0
  186.1030  177.1160  135.8320 N   0  0  0  0  0  0  0  0  0  0  0  0
  183.0830  175.5760  138.4900 N   0  0  0  0  0  0  0  0  0  0  0  0
  185.0750  176.7110  136.5160 C   0  0  0  0  0  3  0  0  0  0  0  0
  183.7380  176.6880  138.6720 C   0  0  0  0  0  0  0  0  0  0  0  0
  178.9310  173.3960  137.3160 C   0  0  0  0  0  3  0  0  0  0  0  0
  181.2710  172.1080  136.5780 C   0  0  0  0  0  0  0  0  0  0  0  0
  181.2780  173.4540  136.8380 C   0  0  0  0  0  0  0  0  0  0  0  0
  183.4560  174.4710  137.6590 C   0  0  1  0  0  3  0  0  0  0  0  0
  180.1170  171.3430  136.7190 C   0  0  0  0  0  3  0  0  0  0  0  0
  184.5680  173.7490  137.8120 C   0  0  0  0  0  2  0  0  0  0  0  0
  183.3400  172.6770  136.2700 C   0  0  0  0  0  0  0  0  0  0  0  0
  182.5740  171.6290  136.2900 N   0  0  0  0  0  0  0  0  0  0  0  0
  182.6310  173.9720  136.5230 C   0  0  1  0  0  3  0  0  0  0  0  0
  178.9330  172.0040  137.0890 C   0  0  0  0  0  3  0  0  0  0  0  0
  180.1150  174.1390  137.1820 C   0  0  0  0  0  3  0  0  0  0  0  0
  184.6060  172.6440  136.9120 N   0  0  0  0  0  2  0  0  0  0  0  0
  186.8800  179.1440  136.7360 O   0  0  0  0  0  0  0  0  0  0  0  0
  187.1430  177.9880  136.3000 C   0  0  0  0  0  0  0  0  0  0  0  0
  190.9640  176.3650  137.1850 N   0  0  0  0  0  0  0  0  0  0  0  0
  190.3500  177.3990  138.0190 C   0  0  0  0  0  2  0  0  0  0  0  0
  188.6870  176.0190  136.2850 C   0  0  0  0  0  2  0  0  0  0  0  0
  192.8820  175.1180  136.6990 O   0  0  0  0  0  0  0  0  0  0  0  0
  192.3530  176.0570  137.3560 C   0  0  0  0  0  0  0  0  0  0  0  0
  193.1330  176.7950  138.2360 O   0  0  0  0  0  1  0  0  0  0  0  0
  189.4470  178.3060  137.1790 C   0  0  0  0  0  2  0  0  0  0  0  0
  190.1530  175.5960  136.2340 C   0  0  0  0  0  2  0  0  0  0  0  0
  188.5640  177.5410  136.1770 C   0  0  0  0  0  3  0  0  0  0  0  0
  183.1820  177.8030  139.9560 S   0  0  0  0  0  0  0  0  0  0  0  0
  184.6190  178.9050  139.7750 C   0  0  0  0  0  2  0  0  0  0  0  0
  186.8210  178.5720  140.9780 C   0  0  0  0  0  0  0  0  0  0  0  0
  185.4280  178.8880  140.9860 N   0  0  0  0  0  2  0  0  0  0  0  0
  187.4230  178.3470  139.8920 O   0  0  0  0  0  0  0  0  0  0  0  0
  189.5090  177.1310  141.7940 C   0  0  1  0  0  3  0  0  0  0  0  0
  190.6250  176.1200  143.3520 C   0  0  1  0  0  3  0  0  0  0  0  0
  187.0360  177.4010  143.1860 C   0  0  0  0  0  2  0  0  0  0  0  0
  189.1570  176.1500  142.9190 C   0  0  1  0  0  3  0  0  0  0  0  0
  188.1740  176.7360  143.9380 C   0  0  0  0  0  2  0  0  0  0  0  0
  187.5610  178.5230  142.2750 C   0  0  1  0  0  3  0  0  0  0  0  0
  189.0200  178.4900  142.0660 N   0  0  0  0  0  2  0  0  0  0  0  0
  190.9740  177.0450  142.1940 C   0  0  0  0  0  2  0  0  0  0  0  0
  190.8500  176.8150  144.6150 N   0  0  0  0  0  2  0  0  0  0  0  0
  191.6910  176.2830  145.6390 C   0  0  0  0  0  0  0  0  0  0  0  0
  191.9150  176.9600  146.6730 O   0  0  0  0  0  1  0  0  0  0  0  0
  192.2670  175.0250  145.4990 O   0  0  0  0  0  0  0  0  0  0  0  0
  1  5  1  0  0  0  0
  2 19  1  0  0  0  0
  2  4  2  0  0  0  0
  3  5  2  0  0  0  0
  4  1  1  0  0  0  0
  5 29  1  0  0  0  0
  7 10  2  0  0  0  0
  7  8  1  0  0  0  0
  8 16  2  0  0  0  0
  9 11  1  0  0  0  0
  9  3  1  1  0  0  0
 10 15  1  0  0  0  0
 12 13  2  0  0  0  0
 12 17  1  0  0  0  0
 13  7  1  0  0  0  0
 14 12  1  1  0  0  0
 14  8  1  0  0  0  0
 14  9  1  0  0  0  0
 15  6  2  0  0  0  0
 16  6  1  0  0  0  0
 17 11  1  0  0  0  0
 19 18  2  0  0  0  0
 20 24  1  0  0  0  0
 20 21  1  0  0  0  0
 23 24  2  0  0  0  0
 24 25  1  0  0  0  0
 26 21  1  0  0  0  0
 27 22  1  0  0  0  0
 27 20  1  0  0  0  0
 28 22  1  0  0  0  0
 28 19  1  0  0  0  0
 28 26  1  0  0  0  0
 30 29  1  0  0  0  0
 30 32  1  0  0  0  0
 31 32  1  0  0  0  0
 33 31  2  0  0  0  0
 34 40  1  0  0  0  0
 34 41  1  1  0  0  0
 34 37  1  0  0  0  0
 35 42  1  1  0  0  0
 36 38  1  0  0  0  0
 37 35  1  0  0  0  0
 37 38  1  1  0  0  0
 39 31  1  6  0  0  0
 39 36  1  0  0  0  0
 40 39  1  0  0  0  0
 41 35  1  0  0  0  0
 42 43  1  0  0  0  0
 43 44  1  0  0  0  0
 45 43  2  0  0  0  0
M  END
>  <MODEL>
5

>  <REMARK>
 VINA RESULT:      -8.3      4.217      8.351
  Name = 
  8 active torsions:
  status: ('A' for Active; 'I' for Inactive)
    1  A    between atoms: C_1  and  C_28
    2  A    between atoms: S_9  and  C_17
    3  A    between atoms: S_9  and  C_39
    4  A    between atoms: C_12  and  N_18
    5  A    between atoms: C_17  and  N_33
    6  A    between atoms: C_19  and  N_26
    7  A    between atoms: N_22  and  C_23
    8  A    between atoms: C_23  and  C_36
                            x       y       z     vdW  Elec       q    Type
                         _______ _______ _______ _____ _____    ______ ____

>  <TORSDO>
F 8

$$$$
=
 OpenBabel10222421203D

 45 50  0  0  1  0  0  0  0  0999 V2000
  189.4780  177.5240  139.0250 N   0  0  0  0  0  2  0  0  0  0  0  0
  190.1410  176.5540  141.1080 N   0  0  0  0  0  0  0  0  0  0  0  0
  190.3350  177.0030  136.8290 N   0  0  0  0  0  0  0  0  0  0  0  0
  190.3620  176.7530  139.8440 C   0  0  0  0  0  3  0  0  0  0  0  0
  189.6950  177.8050  137.6330 C   0  0  0  0  0  0  0  0  0  0  0  0
  194.8560  176.7070  135.1440 C   0  0  0  0  0  3  0  0  0  0  0  0
  193.6760  174.3430  135.9760 C   0  0  0  0  0  0  0  0  0  0  0  0
  193.2000  175.5460  136.4270 C   0  0  0  0  0  0  0  0  0  0  0  0
  190.7490  175.6570  137.0870 C   0  0  1  0  0  3  0  0  0  0  0  0
  194.7220  174.2680  135.0610 C   0  0  0  0  0  3  0  0  0  0  0  0
  189.9460  174.5920  137.0320 C   0  0  0  0  0  2  0  0  0  0  0  0
  192.0270  173.7880  137.2700 C   0  0  0  0  0  0  0  0  0  0  0  0
  192.8940  173.2630  136.4580 N   0  0  0  0  0  0  0  0  0  0  0  0
  192.1460  175.2720  137.4340 C   0  0  1  0  0  3  0  0  0  0  0  0
  195.3190  175.4710  134.6470 C   0  0  0  0  0  3  0  0  0  0  0  0
  193.7870  176.7530  136.0530 C   0  0  0  0  0  3  0  0  0  0  0  0
  190.6690  173.3780  137.2200 N   0  0  0  0  0  2  0  0  0  0  0  0
  188.2030  177.8630  141.3510 O   0  0  0  0  0  0  0  0  0  0  0  0
  189.0440  177.0780  141.8710 C   0  0  0  0  0  0  0  0  0  0  0  0
  189.0910  177.4240  146.1010 N   0  0  0  0  0  0  0  0  0  0  0  0
  190.2160  177.8640  145.2760 C   0  0  0  0  0  2  0  0  0  0  0  0
  187.7890  177.4720  143.9990 C   0  0  0  0  0  2  0  0  0  0  0  0
  188.2850  176.9930  148.2550 O   0  0  0  0  0  1  0  0  0  0  0  0
  189.2640  177.2980  147.5180 C   0  0  0  0  0  0  0  0  0  0  0  0
  190.5110  177.4990  148.0940 O   0  0  0  0  0  0  0  0  0  0  0  0
  190.3190  177.0170  144.0040 C   0  0  0  0  0  2  0  0  0  0  0  0
  187.7740  177.1850  145.4990 C   0  0  0  0  0  2  0  0  0  0  0  0
  188.9620  176.7540  143.3280 C   0  0  0  0  0  3  0  0  0  0  0  0
  189.0730  179.3480  136.9790 S   0  0  0  0  0  0  0  0  0  0  0  0
  187.4940  178.6140  136.4460 C   0  0  0  0  0  2  0  0  0  0  0  0
  185.4970  178.2940  137.9690 C   0  0  0  0  0  0  0  0  0  0  0  0
  186.3960  179.1380  137.2460 N   0  0  0  0  0  2  0  0  0  0  0  0
  185.6630  177.0430  137.9830 O   0  0  0  0  0  0  0  0  0  0  0  0
  184.9450  178.5700  141.0650 C   0  0  1  0  0  3  0  0  0  0  0  0
  183.4640  178.6230  142.6450 C   0  0  1  0  0  3  0  0  0  0  0  0
  183.1990  177.9300  138.9040 C   0  0  0  0  0  2  0  0  0  0  0  0
  183.6260  177.8370  141.3420 C   0  0  1  0  0  3  0  0  0  0  0  0
  182.5610  178.0960  140.2720 C   0  0  0  0  0  2  0  0  0  0  0  0
  184.3640  178.9150  138.7180 C   0  0  1  0  0  3  0  0  0  0  0  0
  184.8220  179.5440  139.9710 N   0  0  0  0  0  2  0  0  0  0  0  0
  184.8050  179.2990  142.3920 C   0  0  0  0  0  2  0  0  0  0  0  0
  182.3970  179.6150  142.5720 N   0  0  0  0  0  2  0  0  0  0  0  0
  181.1440  179.4370  143.2330 C   0  0  0  0  0  0  0  0  0  0  0  0
  180.2900  180.3590  143.2040 O   0  0  0  0  0  0  0  0  0  0  0  0
  180.8620  178.2570  143.9120 O   0  0  0  0  0  1  0  0  0  0  0  0
  1  4  1  0  0  0  0
  2 19  1  0  0  0  0
  3  5  2  0  0  0  0
  4  2  2  0  0  0  0
  5  1  1  0  0  0  0
  6 16  1  0  0  0  0
  7  8  1  0  0  0  0
  7 13  1  0  0  0  0
  9  3  1  6  0  0  0
  9 14  1  0  0  0  0
 10  7  2  0  0  0  0
 11  9  1  0  0  0  0
 11 17  1  0  0  0  0
 12 14  1  0  0  0  0
 13 12  2  0  0  0  0
 14  8  1  6  0  0  0
 15 10  1  0  0  0  0
 15  6  2  0  0  0  0
 16  8  2  0  0  0  0
 17 12  1  0  0  0  0
 18 19  2  0  0  0  0
 19 28  1  0  0  0  0
 20 24  1  0  0  0  0
 21 20  1  0  0  0  0
 22 27  1  0  0  0  0
 24 25  2  0  0  0  0
 24 23  1  0  0  0  0
 26 21  1  0  0  0  0
 27 20  1  0  0  0  0
 28 22  1  0  0  0  0
 28 26  1  0  0  0  0
 29  5  1  0  0  0  0
 30 29  1  0  0  0  0
 30 32  1  0  0  0  0
 31 33  2  0  0  0  0
 32 31  1  0  0  0  0
 34 37  1  0  0  0  0
 34 41  1  1  0  0  0
 35 42  1  6  0  0  0
 36 38  1  0  0  0  0
 37 38  1  6  0  0  0
 37 35  1  0  0  0  0
 39 31  1  1  0  0  0
 39 36  1  0  0  0  0
 39 40  1  0  0  0  0
 40 34  1  0  0  0  0
 41 35  1  0  0  0  0
 42 43  1  0  0  0  0
 43 45  1  0  0  0  0
 44 43  2  0  0  0  0
M  END
>  <MODEL>
6

>  <REMARK>
 VINA RESULT:      -8.2      2.974      7.260
  Name = 
  8 active torsions:
  status: ('A' for Active; 'I' for Inactive)
    1  A    between atoms: C_1  and  C_28
    2  A    between atoms: S_9  and  C_17
    3  A    between atoms: S_9  and  C_39
    4  A    between atoms: C_12  and  N_18
    5  A    between atoms: C_17  and  N_33
    6  A    between atoms: C_19  and  N_26
    7  A    between atoms: N_22  and  C_23
    8  A    between atoms: C_23  and  C_36
                            x       y       z     vdW  Elec       q    Type
                         _______ _______ _______ _____ _____    ______ ____

>  <TORSDO>
F 8

$$$$
=
 OpenBabel10222421203D

 45 50  0  0  1  0  0  0  0  0999 V2000
  188.0650  178.0410  140.3690 N   0  0  0  0  0  2  0  0  0  0  0  0
  188.7760  176.8970  142.3460 N   0  0  0  0  0  0  0  0  0  0  0  0
  185.8080  178.6450  139.7600 N   0  0  0  0  0  0  0  0  0  0  0  0
  187.8220  177.2600  141.5430 C   0  0  0  0  0  3  0  0  0  0  0  0
  187.0530  178.4370  139.4310 C   0  0  0  0  0  0  0  0  0  0  0  0
  181.0810  177.7860  139.2320 C   0  0  0  0  0  3  0  0  0  0  0  0
  181.9300  178.6010  141.7400 C   0  0  0  0  0  0  0  0  0  0  0  0
  182.8200  178.0470  140.8580 C   0  0  0  0  0  0  0  0  0  0  0  0
  185.2570  178.7290  141.0790 C   0  0  1  0  0  3  0  0  0  0  0  0
  180.5990  178.8150  141.3960 C   0  0  0  0  0  3  0  0  0  0  0  0
  185.6810  179.5690  142.0250 C   0  0  0  0  0  2  0  0  0  0  0  0
  183.8080  178.6280  142.8240 C   0  0  0  0  0  0  0  0  0  0  0  0
  182.5730  179.0170  142.9330 N   0  0  0  0  0  0  0  0  0  0  0  0
  184.1200  177.8940  141.5560 C   0  0  1  0  0  3  0  0  0  0  0  0
  180.1740  178.3940  140.1240 C   0  0  0  0  0  3  0  0  0  0  0  0
  182.4230  177.5990  139.6000 C   0  0  0  0  0  3  0  0  0  0  0  0
  184.8630  179.5030  143.1910 N   0  0  0  0  0  2  0  0  0  0  0  0
  190.6500  177.4950  141.0570 O   0  0  0  0  0  0  0  0  0  0  0  0
  190.1750  177.1740  142.1820 C   0  0  0  0  0  0  0  0  0  0  0  0
  191.6450  176.2880  146.0640 N   0  0  0  0  0  0  0  0  0  0  0  0
  190.5340  177.2160  145.8500 C   0  0  0  0  0  2  0  0  0  0  0  0
  191.1810  175.5150  143.7610 C   0  0  0  0  0  2  0  0  0  0  0  0
  193.1930  175.3930  147.5720 O   0  0  0  0  0  0  0  0  0  0  0  0
  192.2830  176.2390  147.3460 C   0  0  0  0  0  0  0  0  0  0  0  0
  191.9170  177.1280  148.3470 O   0  0  0  0  0  1  0  0  0  0  0  0
  190.6720  177.9240  144.4990 C   0  0  0  0  0  2  0  0  0  0  0  0
  192.0550  175.3610  145.0030 C   0  0  0  0  0  2  0  0  0  0  0  0
  191.0870  176.9870  143.3520 C   0  0  0  0  0  3  0  0  0  0  0  0
  187.5240  178.6290  137.7160 S   0  0  0  0  0  0  0  0  0  0  0  0
  187.2730  176.8660  137.3350 C   0  0  0  0  0  2  0  0  0  0  0  0
  188.8830  174.9800  136.8290 C   0  0  0  0  0  0  0  0  0  0  0  0
  188.4870  176.1110  137.6070 N   0  0  0  0  0  2  0  0  0  0  0  0
  188.2070  174.6240  135.8230 O   0  0  0  0  0  0  0  0  0  0  0  0
  191.8150  175.9650  137.4590 C   0  0  1  0  0  3  0  0  0  0  0  0
  193.9350  175.5350  137.3530 C   0  0  1  0  0  3  0  0  0  0  0  0
  190.8760  173.7150  135.9830 C   0  0  0  0  0  2  0  0  0  0  0  0
  192.7350  175.2880  136.4360 C   0  0  1  0  0  3  0  0  0  0  0  0
  192.3760  173.8190  136.1890 C   0  0  0  0  0  2  0  0  0  0  0  0
  190.1150  174.2290  137.2150 C   0  0  1  0  0  3  0  0  0  0  0  0
  190.9490  175.0020  138.1540 N   0  0  0  0  0  2  0  0  0  0  0  0
  193.0240  176.2600  138.3330 C   0  0  0  0  0  2  0  0  0  0  0  0
  194.4320  174.3070  137.9670 N   0  0  0  0  0  2  0  0  0  0  0  0
  195.8270  174.0370  138.1090 C   0  0  0  0  0  0  0  0  0  0  0  0
  196.2000  173.0030  138.7190 O   0  0  0  0  0  1  0  0  0  0  0  0
  196.7750  174.9090  137.5860 O   0  0  0  0  0  0  0  0  0  0  0  0
  1  4  1  0  0  0  0
  4  2  2  0  0  0  0
  5  3  2  0  0  0  0
  5  1  1  0  0  0  0
  6 16  2  0  0  0  0
  6 15  1  0  0  0  0
  7 13  1  0  0  0  0
  8  7  2  0  0  0  0
  9  3  1  6  0  0  0
  9 14  1  0  0  0  0
  9 11  1  0  0  0  0
 10  7  1  0  0  0  0
 11 17  1  0  0  0  0
 12 13  2  0  0  0  0
 12 17  1  0  0  0  0
 14  8  1  6  0  0  0
 14 12  1  0  0  0  0
 15 10  2  0  0  0  0
 16  8  1  0  0  0  0
 18 19  2  0  0  0  0
 19  2  1  0  0  0  0
 19 28  1  0  0  0  0
 20 24  1  0  0  0  0
 21 20  1  0  0  0  0
 22 27  1  0  0  0  0
 24 23  2  0  0  0  0
 24 25  1  0  0  0  0
 26 21  1  0  0  0  0
 27 20  1  0  0  0  0
 28 22  1  0  0  0  0
 28 26  1  0  0  0  0
 29  5  1  0  0  0  0
 30 32  1  0  0  0  0
 30 29  1  0  0  0  0
 31 32  1  0  0  0  0
 33 31  2  0  0  0  0
 34 40  1  0  0  0  0
 34 41  1  1  0  0  0
 35 42  1  1  0  0  0
 35 41  1  0  0  0  0
 36 38  1  0  0  0  0
 36 39  1  0  0  0  0
 37 38  1  1  0  0  0
 37 35  1  0  0  0  0
 37 34  1  0  0  0  0
 39 31  1  6  0  0  0
 39 40  1  0  0  0  0
 42 43  1  0  0  0  0
 43 44  1  0  0  0  0
 45 43  2  0  0  0  0
M  END
>  <MODEL>
7

>  <REMARK>
 VINA RESULT:      -8.0      3.190      9.418
  Name = 
  8 active torsions:
  status: ('A' for Active; 'I' for Inactive)
    1  A    between atoms: C_1  and  C_28
    2  A    between atoms: S_9  and  C_17
    3  A    between atoms: S_9  and  C_39
    4  A    between atoms: C_12  and  N_18
    5  A    between atoms: C_17  and  N_33
    6  A    between atoms: C_19  and  N_26
    7  A    between atoms: N_22  and  C_23
    8  A    between atoms: C_23  and  C_36
                            x       y       z     vdW  Elec       q    Type
                         _______ _______ _______ _____ _____    ______ ____

>  <TORSDO>
F 8

$$$$
=
 OpenBabel10222421203D

 45 50  0  0  1  0  0  0  0  0999 V2000
  184.4990  177.6090  137.2290 N   0  0  0  0  0  2  0  0  0  0  0  0
  184.5160  175.5760  135.9680 N   0  0  0  0  0  0  0  0  0  0  0  0
  186.3210  178.5620  138.4950 N   0  0  0  0  0  0  0  0  0  0  0  0
  185.0670  176.3510  136.8540 C   0  0  0  0  0  3  0  0  0  0  0  0
  185.0470  178.4840  138.2270 C   0  0  0  0  0  0  0  0  0  0  0  0
  189.6840  177.4670  141.7900 C   0  0  0  0  0  3  0  0  0  0  0  0
  190.4030  177.1830  139.1290 C   0  0  0  0  0  0  0  0  0  0  0  0
  189.0810  177.1870  139.4890 C   0  0  0  0  0  0  0  0  0  0  0  0
  187.4040  177.9870  137.7560 C   0  0  1  0  0  3  0  0  0  0  0  0
  191.4150  177.3670  140.0670 C   0  0  0  0  0  3  0  0  0  0  0  0
  187.7700  178.3650  136.5300 C   0  0  0  0  0  2  0  0  0  0  0  0
  189.3600  176.9510  137.2430 C   0  0  0  0  0  0  0  0  0  0  0  0
  190.5570  177.1020  137.7220 N   0  0  0  0  0  0  0  0  0  0  0  0
  188.2770  176.8980  138.2770 C   0  0  1  0  0  3  0  0  0  0  0  0
  191.0430  177.5050  141.4150 C   0  0  0  0  0  3  0  0  0  0  0  0
  188.6840  177.2980  140.8200 C   0  0  0  0  0  3  0  0  0  0  0  0
  188.9530  177.6930  136.1030 N   0  0  0  0  0  2  0  0  0  0  0  0
  183.0850  176.9090  134.6630 O   0  0  0  0  0  0  0  0  0  0  0  0
  183.2840  175.8220  135.2750 C   0  0  0  0  0  0  0  0  0  0  0  0
  181.0990  172.3070  136.2120 N   0  0  0  0  0  0  0  0  0  0  0  0
  182.4130  172.2540  135.5700 C   0  0  0  0  0  2  0  0  0  0  0  0
  181.7040  174.6300  136.8040 C   0  0  0  0  0  2  0  0  0  0  0  0
  179.1840  171.1330  136.8640 O   0  0  0  0  0  1  0  0  0  0  0  0
  180.2870  171.1270  136.2500 C   0  0  0  0  0  0  0  0  0  0  0  0
  180.6980  169.9700  135.6020 O   0  0  0  0  0  0  0  0  0  0  0  0
  182.6400  173.4920  134.6990 C   0  0  0  0  0  2  0  0  0  0  0  0
  180.6450  173.5320  136.8790 C   0  0  0  0  0  2  0  0  0  0  0  0
  182.1930  174.8050  135.3650 C   0  0  0  0  0  3  0  0  0  0  0  0
  183.9160  179.5030  139.1660 S   0  0  0  0  0  0  0  0  0  0  0  0
  183.7100  178.2580  140.4780 C   0  0  0  0  0  2  0  0  0  0  0  0
  184.0000  178.9630  142.8920 C   0  0  0  0  0  0  0  0  0  0  0  0
  184.5440  178.5870  141.6250 N   0  0  0  0  0  2  0  0  0  0  0  0
  182.7510  178.9690  143.0780 O   0  0  0  0  0  0  0  0  0  0  0  0
  186.4030  177.4030  144.2180 C   0  0  1  0  0  3  0  0  0  0  0  0
  187.5280  177.0020  146.0250 C   0  0  1  0  0  3  0  0  0  0  0  0
  184.3420  178.9970  145.3760 C   0  0  0  0  0  2  0  0  0  0  0  0
  186.0500  177.2330  145.7010 C   0  0  1  0  0  3  0  0  0  0  0  0
  185.4210  178.4870  146.3150 C   0  0  0  0  0  2  0  0  0  0  0  0
  184.9300  179.3400  143.9980 C   0  0  1  0  0  3  0  0  0  0  0  0
  186.2850  178.8000  143.7750 N   0  0  0  0  0  2  0  0  0  0  0  0
  187.8600  177.1120  144.5430 C   0  0  0  0  0  2  0  0  0  0  0  0
  188.1250  178.1250  146.7420 N   0  0  0  0  0  2  0  0  0  0  0  0
  188.5180  178.0320  148.1120 C   0  0  0  0  0  0  0  0  0  0  0  0
  189.1020  179.0020  148.6570 O   0  0  0  0  0  0  0  0  0  0  0  0
  188.2670  176.8770  148.8450 O   0  0  0  0  0  1  0  0  0  0  0  0
  1  5  1  0  0  0  0
  2  4  2  0  0  0  0
  4  1  1  0  0  0  0
  5  3  2  0  0  0  0
  5 29  1  0  0  0  0
  7  8  2  0  0  0  0
  7 10  1  0  0  0  0
  8 16  1  0  0  0  0
  9 14  1  0  0  0  0
  9  3  1  1  0  0  0
 10 15  2  0  0  0  0
 11  9  1  0  0  0  0
 12 13  2  0  0  0  0
 13  7  1  0  0  0  0
 14 12  1  6  0  0  0
 14  8  1  0  0  0  0
 15  6  1  0  0  0  0
 16  6  2  0  0  0  0
 17 11  1  0  0  0  0
 17 12  1  0  0  0  0
 18 19  2  0  0  0  0
 19 28  1  0  0  0  0
 19  2  1  0  0  0  0
 20 24  1  0  0  0  0
 20 27  1  0  0  0  0
 21 20  1  0  0  0  0
 22 27  1  0  0  0  0
 24 23  1  0  0  0  0
 25 24  2  0  0  0  0
 26 28  1  0  0  0  0
 26 21  1  0  0  0  0
 28 22  1  0  0  0  0
 29 30  1  0  0  0  0
 30 32  1  0  0  0  0
 31 33  2  0  0  0  0
 32 31  1  0  0  0  0
 34 41  1  1  0  0  0
 34 37  1  0  0  0  0
 35 42  1  1  0  0  0
 36 38  1  0  0  0  0
 37 35  1  0  0  0  0
 37 38  1  1  0  0  0
 39 31  1  6  0  0  0
 39 36  1  0  0  0  0
 40 39  1  0  0  0  0
 40 34  1  0  0  0  0
 41 35  1  0  0  0  0
 42 43  1  0  0  0  0
 43 44  2  0  0  0  0
 43 45  1  0  0  0  0
M  END
>  <MODEL>
8

>  <REMARK>
 VINA RESULT:      -8.0      4.648      8.992
  Name = 
  8 active torsions:
  status: ('A' for Active; 'I' for Inactive)
    1  A    between atoms: C_1  and  C_28
    2  A    between atoms: S_9  and  C_17
    3  A    between atoms: S_9  and  C_39
    4  A    between atoms: C_12  and  N_18
    5  A    between atoms: C_17  and  N_33
    6  A    between atoms: C_19  and  N_26
    7  A    between atoms: N_22  and  C_23
    8  A    between atoms: C_23  and  C_36
                            x       y       z     vdW  Elec       q    Type
                         _______ _______ _______ _____ _____    ______ ____

>  <TORSDO>
F 8

$$$$
=
 OpenBabel10222421203D

 45 50  0  0  1  0  0  0  0  0999 V2000
  185.7250  176.1070  136.7520 N   0  0  0  0  0  2  0  0  0  0  0  0
  184.5270  174.1270  137.3580 N   0  0  0  0  0  0  0  0  0  0  0  0
  188.0960  176.3170  136.3440 N   0  0  0  0  0  0  0  0  0  0  0  0
  185.6550  174.7560  137.2180 C   0  0  0  0  0  3  0  0  0  0  0  0
  186.9410  176.8590  136.6140 C   0  0  0  0  0  0  0  0  0  0  0  0
  192.5360  175.3130  137.9700 C   0  0  0  0  0  3  0  0  0  0  0  0
  191.3530  173.4270  136.3200 C   0  0  0  0  0  0  0  0  0  0  0  0
  190.5800  174.3400  136.9880 C   0  0  0  0  0  0  0  0  0  0  0  0
  188.3520  174.9670  135.9400 C   0  0  1  0  0  3  0  0  0  0  0  0
  192.7420  173.4440  136.4070 C   0  0  0  0  0  3  0  0  0  0  0  0
  187.9200  174.4220  134.8020 C   0  0  0  0  0  2  0  0  0  0  0  0
  189.3340  172.9330  135.7050 C   0  0  0  0  0  0  0  0  0  0  0  0
  190.5690  172.6010  135.4760 N   0  0  0  0  0  0  0  0  0  0  0  0
  189.1580  174.0020  136.7390 C   0  0  1  0  0  3  0  0  0  0  0  0
  193.3350  174.4010  137.2500 C   0  0  0  0  0  3  0  0  0  0  0  0
  191.1370  175.2830  137.8480 C   0  0  0  0  0  3  0  0  0  0  0  0
  188.4320  173.1030  134.6220 N   0  0  0  0  0  2  0  0  0  0  0  0
  182.8260  174.9210  135.9420 O   0  0  0  0  0  0  0  0  0  0  0  0
  183.2190  174.6660  137.1150 C   0  0  0  0  0  0  0  0  0  0  0  0
  180.7710  176.8020  139.8450 N   0  0  0  0  0  0  0  0  0  0  0  0
  182.0970  177.2810  139.4560 C   0  0  0  0  0  2  0  0  0  0  0  0
  180.9280  175.3530  137.8480 C   0  0  0  0  0  2  0  0  0  0  0  0
  178.9350  177.0490  141.2730 O   0  0  0  0  0  0  0  0  0  0  0  0
  180.1090  177.3970  140.9680 C   0  0  0  0  0  0  0  0  0  0  0  0
  180.7570  178.3530  141.7390 O   0  0  0  0  0  1  0  0  0  0  0  0
  183.0240  176.1070  139.1300 C   0  0  0  0  0  2  0  0  0  0  0  0
  180.0880  175.7750  139.0510 C   0  0  0  0  0  2  0  0  0  0  0  0
  182.3540  175.0100  138.2840 C   0  0  0  0  0  3  0  0  0  0  0  0
  186.8670  178.6300  136.8510 S   0  0  0  0  0  0  0  0  0  0  0  0
  185.8020  178.5000  138.3220 C   0  0  0  0  0  2  0  0  0  0  0  0
  186.0370  178.6870  140.8360 C   0  0  0  0  0  0  0  0  0  0  0  0
  186.6070  178.5300  139.5350 N   0  0  0  0  0  2  0  0  0  0  0  0
  184.7840  178.7510  140.9850 O   0  0  0  0  0  0  0  0  0  0  0  0
  188.6920  177.1290  141.5350 C   0  0  1  0  0  3  0  0  0  0  0  0
  189.9320  176.2630  143.0860 C   0  0  1  0  0  3  0  0  0  0  0  0
  186.4640  177.8500  143.1610 C   0  0  0  0  0  2  0  0  0  0  0  0
  188.4250  176.3710  142.8410 C   0  0  1  0  0  3  0  0  0  0  0  0
  187.6410  177.1980  143.8650 C   0  0  0  0  0  2  0  0  0  0  0  0
  186.9430  178.7630  142.0210 C   0  0  1  0  0  3  0  0  0  0  0  0
  188.3530  178.5550  141.6390 N   0  0  0  0  0  2  0  0  0  0  0  0
  190.1870  176.9620  141.7570 C   0  0  0  0  0  2  0  0  0  0  0  0
  190.3840  177.1160  144.1800 N   0  0  0  0  0  2  0  0  0  0  0  0
  191.4460  176.7360  145.0550 C   0  0  0  0  0  0  0  0  0  0  0  0
  191.8490  177.5440  145.9300 O   0  0  0  0  0  1  0  0  0  0  0  0
  192.0410  175.4840  144.9450 O   0  0  0  0  0  0  0  0  0  0  0  0
  1  4  1  0  0  0  0
  3  5  2  0  0  0  0
  4  2  2  0  0  0  0
  5  1  1  0  0  0  0
  5 29  1  0  0  0  0
  7 10  2  0  0  0  0
  7  8  1  0  0  0  0
  8 16  2  0  0  0  0
  9  3  1  6  0  0  0
  9 14  1  0  0  0  0
 10 15  1  0  0  0  0
 11  9  1  0  0  0  0
 13 12  2  0  0  0  0
 13  7  1  0  0  0  0
 14 12  1  6  0  0  0
 14  8  1  0  0  0  0
 15  6  2  0  0  0  0
 16  6  1  0  0  0  0
 17 11  1  0  0  0  0
 17 12  1  0  0  0  0
 18 19  2  0  0  0  0
 19  2  1  0  0  0  0
 19 28  1  0  0  0  0
 20 24  1  0  0  0  0
 21 20  1  0  0  0  0
 22 28  1  0  0  0  0
 22 27  1  0  0  0  0
 24 23  2  0  0  0  0
 24 25  1  0  0  0  0
 26 21  1  0  0  0  0
 27 20  1  0  0  0  0
 28 26  1  0  0  0  0
 29 30  1  0  0  0  0
 30 32  1  0  0  0  0
 31 33  2  0  0  0  0
 32 31  1  0  0  0  0
 34 40  1  0  0  0  0
 34 41  1  1  0  0  0
 34 37  1  0  0  0  0
 35 42  1  1  0  0  0
 36 38  1  0  0  0  0
 37 35  1  0  0  0  0
 37 38  1  1  0  0  0
 39 31  1  6  0  0  0
 39 36  1  0  0  0  0
 40 39  1  0  0  0  0
 41 35  1  0  0  0  0
 42 43  1  0  0  0  0
 43 44  1  0  0  0  0
 45 43  2  0  0  0  0
M  END
>  <MODEL>
9

>  <REMARK>
 VINA RESULT:      -8.0      3.349      9.789
  Name = 
  8 active torsions:
  status: ('A' for Active; 'I' for Inactive)
    1  A    between atoms: C_1  and  C_28
    2  A    between atoms: S_9  and  C_17
    3  A    between atoms: S_9  and  C_39
    4  A    between atoms: C_12  and  N_18
    5  A    between atoms: C_17  and  N_33
    6  A    between atoms: C_19  and  N_26
    7  A    between atoms: N_22  and  C_23
    8  A    between atoms: C_23  and  C_36
                            x       y       z     vdW  Elec       q    Type
                         _______ _______ _______ _____ _____    ______ ____

>  <TORSDO>
F 8

$$$$
