=
 OpenBabel10222416493D

 45 50  0  0  1  0  0  0  0  0999 V2000
  190.4300  177.6200  140.3390 C   0  0  2  0  0  3  0  0  0  0  0  0
  192.9100  177.5950  139.6250 C   0  0  0  0  0  2  0  0  0  0  0  0
  191.5840  175.5780  137.8430 C   0  0  2  0  0  3  0  0  0  0  0  0
  189.8210  176.7710  139.1840 C   0  0  1  0  0  3  0  0  0  0  0  0
  190.9420  175.2800  136.4800 C   0  0  0  0  0  2  0  0  0  0  0  0
  188.4480  177.0580  138.9390 O   0  0  0  0  0  0  0  0  0  0  0  0
  188.7730  176.4920  136.4360 N   0  0  0  0  0  2  0  0  0  0  0  0
  190.7470  176.8370  137.9360 C   0  0  2  0  0  3  0  0  0  0  0  0
  188.2170  177.8300  136.6710 C   0  0  2  0  0  3  0  0  0  0  0  0
  188.3410  178.2200  138.1490 C   0  0  0  0  0  2  0  0  0  0  0  0
  192.9900  175.9850  137.7060 N   0  0  0  0  0  0  0  0  0  0  0  0
  191.8720  177.1670  140.6640 C   0  0  0  0  0  2  0  0  0  0  0  0
  193.5350  176.3300  139.0280 C   0  0  0  0  0  2  0  0  0  0  0  0
  190.2220  176.6140  136.5190 C   0  0  1  0  0  3  0  0  0  0  0  0
  186.4410  176.4130  145.2520 F   0  0  0  0  0  0  0  0  0  0  0  0
  188.2090  177.8180  141.5380 C   0  0  0  0  0  3  0  0  0  0  0  0
  187.9980  177.6210  143.9490 C   0  0  0  0  0  0  0  0  0  0  0  0
  189.3890  177.3860  144.0390 C   0  0  0  0  0  0  0  0  0  0  0  0
  187.9320  177.7970  146.4880 C   0  0  0  0  0  0  0  0  0  0  0  0
  186.1040  178.7460  145.0520 C   0  0  0  0  0  1  0  0  0  0  0  0
  187.1230  177.6130  145.1920 C   0  0  2  0  0  0  0  0  0  0  0  0
  190.0260  177.0200  145.3460 C   0  0  0  0  0  2  0  0  0  0  0  0
  189.2530  177.5500  146.5170 C   0  0  0  0  0  3  0  0  0  0  0  0
  189.6050  177.6510  141.6270 C   0  0  0  0  0  0  0  0  0  0  0  0
  190.1730  177.3950  142.8870 C   0  0  0  0  0  3  0  0  0  0  0  0
  187.4150  177.8040  142.6820 C   0  0  0  0  0  3  0  0  0  0  0  0
  187.9280  177.9910  148.9850 C   0  0  0  0  0  1  0  0  0  0  0  0
  187.3290  178.1730  147.7030 O   0  0  0  0  0  0  0  0  0  0  0  0
  186.7760  177.9010  136.1700 C   0  0  1  0  0  3  0  0  0  0  0  0
  186.7500  177.9030  134.7680 O   0  0  0  0  0  1  0  0  0  0  0  0
  185.9560  176.7430  136.7360 C   0  0  0  0  0  2  0  0  0  0  0  0
  183.6010  177.3940  136.6600 N   0  0  0  0  0  1  0  0  0  0  0  0
  184.7350  177.1840  137.5490 C   0  0  2  0  0  3  0  0  0  0  0  0
  184.4990  178.6720  139.6110 C   0  0  0  0  0  0  0  0  0  0  0  0
  183.6520  177.6690  140.3190 C   0  0  0  0  0  1  0  0  0  0  0  0
  185.0280  178.4040  138.3020 N   0  0  0  0  0  2  0  0  0  0  0  0
  184.7660  179.7670  140.1780 O   0  0  0  0  0  0  0  0  0  0  0  0
  193.7430  174.8130  137.2710 C   0  0  0  0  0  2  0  0  0  0  0  0
  194.9260  175.2520  136.4740 C   0  0  0  0  0  0  0  0  0  0  0  0
  195.8880  176.5800  134.7090 C   0  0  0  0  0  3  0  0  0  0  0  0
  197.2870  175.2920  136.1890 C   0  0  0  0  0  0  0  0  0  0  0  0
  198.5190  174.8990  136.5990 F   0  0  0  0  0  0  0  0  0  0  0  0
  196.1710  174.8530  136.8410 N   0  0  0  0  0  0  0  0  0  0  0  0
  194.7570  176.1210  135.3920 C   0  0  0  0  0  3  0  0  0  0  0  0
  197.1620  176.1670  135.1070 C   0  0  0  0  0  3  0  0  0  0  0  0
  1 12  1  0  0  0  0
  1 24  1  1  0  0  0
  2 12  1  0  0  0  0
  3  5  1  6  0  0  0
  3  8  1  0  0  0  0
  4  6  1  6  0  0  0
  4  1  1  0  0  0  0
  5 14  1  0  0  0  0
  7 14  1  0  0  0  0
  7  9  1  0  0  0  0
  8  4  1  0  0  0  0
  9 10  1  0  0  0  0
 10  6  1  0  0  0  0
 11  3  1  0  0  0  0
 11 13  1  0  0  0  0
 13  2  1  0  0  0  0
 14  8  1  0  0  0  0
 16 24  2  0  0  0  0
 16 26  1  0  0  0  0
 17 18  1  0  0  0  0
 17 21  1  0  0  0  0
 18 22  1  0  0  0  0
 19 23  2  0  0  0  0
 19 28  1  0  0  0  0
 20 21  1  0  0  0  0
 21 15  1  0  0  0  0
 21 19  1  0  0  0  0
 22 23  1  0  0  0  0
 24 25  1  0  0  0  0
 25 18  2  0  0  0  0
 26 17  2  0  0  0  0
 28 27  1  0  0  0  0
 29  9  1  0  0  0  0
 29 31  1  0  0  0  0
 30 29  1  0  0  0  0
 31 33  1  0  0  0  0
 32 33  1  0  0  0  0
 33 36  1  0  0  0  0
 34 37  2  0  0  0  0
 34 35  1  0  0  0  0
 36 34  1  0  0  0  0
 38 11  1  0  0  0  0
 39 43  1  0  0  0  0
 39 38  1  0  0  0  0
 40 45  2  0  0  0  0
 40 44  1  0  0  0  0
 41 42  1  0  0  0  0
 41 43  2  0  0  0  0
 44 39  2  0  0  0  0
 45 41  1  0  0  0  0
M  END
>  <MODEL>
1

>  <REMARK>
 VINA RESULT:      -9.5      0.000      0.000
  Name = 
  8 active torsions:
  status: ('A' for Active; 'I' for Inactive)
    1  A    between atoms: C_3  and  C_19
    2  A    between atoms: C_4  and  C_36
    3  A    between atoms: C_12  and  C_34
    4  A    between atoms: C_12  and  C_41
    5  A    between atoms: C_18  and  C_34
    6  A    between atoms: C_19  and  N_25
    7  A    between atoms: C_22  and  O_38
    8  A    between atoms: N_32  and  C_41
                            x       y       z     vdW  Elec       q    Type
                         _______ _______ _______ _____ _____    ______ ____

>  <TORSDO>
F 8

$$$$
=
 OpenBabel10222416493D

 45 50  0  0  1  0  0  0  0  0999 V2000
  184.7840  178.9410  142.8750 C   0  0  2  0  0  3  0  0  0  0  0  0
  185.4310  179.5370  145.3020 C   0  0  0  0  0  2  0  0  0  0  0  0
  187.0900  177.1250  144.6410 C   0  0  2  0  0  3  0  0  0  0  0  0
  185.8880  177.8860  142.5660 C   0  0  1  0  0  3  0  0  0  0  0  0
  188.4430  176.5780  144.1630 C   0  0  0  0  0  2  0  0  0  0  0  0
  186.1880  177.7780  141.1790 O   0  0  0  0  0  0  0  0  0  0  0  0
  188.6330  177.1570  141.7550 N   0  0  0  0  0  2  0  0  0  0  0  0
  187.1130  178.1160  143.4960 C   0  0  2  0  0  3  0  0  0  0  0  0
  188.5130  178.3100  140.8520 C   0  0  2  0  0  3  0  0  0  0  0  0
  187.0660  178.8130  140.8020 C   0  0  0  0  0  2  0  0  0  0  0  0
  187.2210  177.8860  145.8940 N   0  0  0  0  0  0  0  0  0  0  0  0
  184.3890  178.9140  144.3700 C   0  0  0  0  0  2  0  0  0  0  0  0
  185.9150  178.4500  146.2670 C   0  0  0  0  0  2  0  0  0  0  0  0
  188.5230  177.6690  143.1140 C   0  0  1  0  0  3  0  0  0  0  0  0
  179.1770  179.8590  139.8400 F   0  0  0  0  0  0  0  0  0  0  0  0
  182.2750  178.6850  142.6520 C   0  0  0  0  0  3  0  0  0  0  0  0
  181.1390  178.7250  140.5070 C   0  0  0  0  0  0  0  0  0  0  0  0
  182.3800  178.9400  139.8670 C   0  0  0  0  0  0  0  0  0  0  0  0
  180.0920  178.3830  138.2120 C   0  0  0  0  0  0  0  0  0  0  0  0
  178.9840  177.5480  140.3040 C   0  0  0  0  0  1  0  0  0  0  0  0
  179.8490  178.6590  139.7050 C   0  0  2  0  0  0  0  0  0  0  0  0
  182.4520  179.2140  138.3940 C   0  0  0  0  0  2  0  0  0  0  0  0
  181.2930  178.6150  137.6540 C   0  0  0  0  0  3  0  0  0  0  0  0
  183.5240  178.8330  142.0160 C   0  0  0  0  0  0  0  0  0  0  0  0
  183.5510  179.0000  140.6200 C   0  0  0  0  0  3  0  0  0  0  0  0
  181.0990  178.6310  141.9090 C   0  0  0  0  0  3  0  0  0  0  0  0
  179.1130  176.7040  136.6310 C   0  0  0  0  0  1  0  0  0  0  0  0
  179.0700  177.9340  137.3540 O   0  0  0  0  0  0  0  0  0  0  0  0
  189.0550  177.9570  139.4680 C   0  0  1  0  0  3  0  0  0  0  0  0
  188.9140  179.0500  138.6000 O   0  0  0  0  0  1  0  0  0  0  0  0
  190.5140  177.5120  139.5630 C   0  0  0  0  0  2  0  0  0  0  0  0
  190.1820  175.4200  138.3430 N   0  0  0  0  0  1  0  0  0  0  0  0
  190.9750  176.6400  138.3930 C   0  0  2  0  0  3  0  0  0  0  0  0
  193.2330  175.9830  137.3950 C   0  0  0  0  0  0  0  0  0  0  0  0
  192.6970  176.0010  136.0030 C   0  0  0  0  0  1  0  0  0  0  0  0
  192.3980  176.3200  138.5150 N   0  0  0  0  0  2  0  0  0  0  0  0
  194.4420  175.6780  137.5890 O   0  0  0  0  0  0  0  0  0  0  0  0
  187.5480  176.9330  146.9490 C   0  0  0  0  0  2  0  0  0  0  0  0
  188.9530  177.1570  147.4010 C   0  0  0  0  0  0  0  0  0  0  0  0
  190.5410  178.2530  148.8440 C   0  0  0  0  0  3  0  0  0  0  0  0
  191.2390  176.5020  147.3420 C   0  0  0  0  0  0  0  0  0  0  0  0
  192.2090  175.6950  146.8450 F   0  0  0  0  0  0  0  0  0  0  0  0
  189.9520  176.3860  146.9010 N   0  0  0  0  0  0  0  0  0  0  0  0
  189.2280  178.1150  148.3810 C   0  0  0  0  0  3  0  0  0  0  0  0
  191.5550  177.4420  148.3250 C   0  0  0  0  0  3  0  0  0  0  0  0
  1 24  1  6  0  0  0
  1 12  1  0  0  0  0
  2 13  1  0  0  0  0
  3  5  1  6  0  0  0
  3 11  1  0  0  0  0
  4  6  1  6  0  0  0
  4  1  1  0  0  0  0
  4  8  1  0  0  0  0
  7 14  1  0  0  0  0
  8  3  1  0  0  0  0
  9  7  1  0  0  0  0
 10  9  1  0  0  0  0
 10  6  1  0  0  0  0
 11 13  1  0  0  0  0
 11 38  1  0  0  0  0
 12  2  1  0  0  0  0
 14  8  1  0  0  0  0
 14  5  1  0  0  0  0
 17 26  1  0  0  0  0
 18 17  2  0  0  0  0
 18 25  1  0  0  0  0
 19 21  1  0  0  0  0
 21 15  1  0  0  0  0
 21 20  1  0  0  0  0
 21 17  1  0  0  0  0
 22 18  1  0  0  0  0
 23 19  2  0  0  0  0
 23 22  1  0  0  0  0
 24 16  1  0  0  0  0
 25 24  2  0  0  0  0
 26 16  2  0  0  0  0
 27 28  1  0  0  0  0
 28 19  1  0  0  0  0
 29 31  1  0  0  0  0
 29  9  1  0  0  0  0
 30 29  1  0  0  0  0
 32 33  1  0  0  0  0
 33 36  1  0  0  0  0
 33 31  1  0  0  0  0
 34 37  2  0  0  0  0
 34 36  1  0  0  0  0
 35 34  1  0  0  0  0
 38 39  1  0  0  0  0
 39 44  1  0  0  0  0
 41 45  2  0  0  0  0
 42 41  1  0  0  0  0
 43 41  1  0  0  0  0
 43 39  2  0  0  0  0
 44 40  2  0  0  0  0
 45 40  1  0  0  0  0
M  END
>  <MODEL>
2

>  <REMARK>
 VINA RESULT:      -8.2      3.697      9.428
  Name = 
  8 active torsions:
  status: ('A' for Active; 'I' for Inactive)
    1  A    between atoms: C_3  and  C_19
    2  A    between atoms: C_4  and  C_36
    3  A    between atoms: C_12  and  C_34
    4  A    between atoms: C_12  and  C_41
    5  A    between atoms: C_18  and  C_34
    6  A    between atoms: C_19  and  N_25
    7  A    between atoms: C_22  and  O_38
    8  A    between atoms: N_32  and  C_41
                            x       y       z     vdW  Elec       q    Type
                         _______ _______ _______ _____ _____    ______ ____

>  <TORSDO>
F 8

$$$$
=
 OpenBabel10222416493D

 45 50  0  0  1  0  0  0  0  0999 V2000
  184.7840  178.9050  143.0580 C   0  0  2  0  0  3  0  0  0  0  0  0
  185.4570  179.3800  145.5030 C   0  0  0  0  0  2  0  0  0  0  0  0
  187.1960  177.0820  144.6670 C   0  0  2  0  0  3  0  0  0  0  0  0
  185.9210  177.9170  142.6640 C   0  0  1  0  0  3  0  0  0  0  0  0
  188.5590  176.6190  144.1310 C   0  0  0  0  0  2  0  0  0  0  0  0
  186.1960  177.9040  141.2680 O   0  0  0  0  0  0  0  0  0  0  0  0
  188.6750  177.3500  141.7590 N   0  0  0  0  0  2  0  0  0  0  0  0
  187.1550  178.1400  143.5830 C   0  0  2  0  0  3  0  0  0  0  0  0
  188.4910  178.5480  140.9310 C   0  0  2  0  0  3  0  0  0  0  0  0
  187.0240  178.9950  140.9380 C   0  0  0  0  0  2  0  0  0  0  0  0
  187.3240  177.7710  145.9600 N   0  0  0  0  0  0  0  0  0  0  0  0
  184.4220  178.7730  144.5550 C   0  0  0  0  0  2  0  0  0  0  0  0
  186.0040  178.2580  146.3920 C   0  0  0  0  0  2  0  0  0  0  0  0
  188.5730  177.7740  143.1480 C   0  0  1  0  0  3  0  0  0  0  0  0
  179.1500  179.8420  140.0770 F   0  0  0  0  0  0  0  0  0  0  0  0
  182.2680  178.6800  142.8720 C   0  0  0  0  0  3  0  0  0  0  0  0
  181.1050  178.6940  140.7420 C   0  0  0  0  0  0  0  0  0  0  0  0
  182.3400  178.8780  140.0810 C   0  0  0  0  0  0  0  0  0  0  0  0
  180.0230  178.3210  138.4680 C   0  0  0  0  0  0  0  0  0  0  0  0
  178.9310  177.5440  140.5900 C   0  0  0  0  0  1  0  0  0  0  0  0
  179.8030  178.6300  139.9590 C   0  0  2  0  0  0  0  0  0  0  0  0
  182.3960  179.1220  138.6020 C   0  0  0  0  0  2  0  0  0  0  0  0
  181.2190  178.5250  137.8900 C   0  0  0  0  0  3  0  0  0  0  0  0
  183.5110  178.7980  142.2170 C   0  0  0  0  0  0  0  0  0  0  0  0
  183.5220  178.9370  140.8180 C   0  0  0  0  0  3  0  0  0  0  0  0
  181.0820  178.6280  142.1460 C   0  0  0  0  0  3  0  0  0  0  0  0
  179.1810  177.0740  136.4650 C   0  0  0  0  0  1  0  0  0  0  0  0
  178.9830  177.8700  137.6330 O   0  0  0  0  0  0  0  0  0  0  0  0
  189.0170  178.3030  139.5180 C   0  0  1  0  0  3  0  0  0  0  0  0
  190.2980  177.7350  139.5700 O   0  0  0  0  0  1  0  0  0  0  0  0
  188.0510  177.4140  138.7350 C   0  0  0  0  0  2  0  0  0  0  0  0
  188.1810  179.3310  137.2240 N   0  0  0  0  0  1  0  0  0  0  0  0
  187.6420  177.9870  137.3750 C   0  0  2  0  0  3  0  0  0  0  0  0
  185.4550  177.0460  136.4490 C   0  0  0  0  0  0  0  0  0  0  0  0
  186.1540  175.9220  135.7620 C   0  0  0  0  0  1  0  0  0  0  0  0
  186.1850  178.0010  137.2370 N   0  0  0  0  0  2  0  0  0  0  0  0
  184.2020  177.1510  136.3470 O   0  0  0  0  0  0  0  0  0  0  0  0
  187.7100  176.7700  146.9490 C   0  0  0  0  0  2  0  0  0  0  0  0
  189.0930  177.0580  147.4310 C   0  0  0  0  0  0  0  0  0  0  0  0
  190.6010  178.2500  148.8830 C   0  0  0  0  0  3  0  0  0  0  0  0
  191.4020  176.4860  147.4490 C   0  0  0  0  0  0  0  0  0  0  0  0
  192.4140  175.7030  146.9990 F   0  0  0  0  0  0  0  0  0  0  0  0
  190.1330  176.3110  146.9780 N   0  0  0  0  0  0  0  0  0  0  0  0
  189.3070  178.0510  148.3910 C   0  0  0  0  0  3  0  0  0  0  0  0
  191.6580  177.4640  148.4130 C   0  0  0  0  0  3  0  0  0  0  0  0
  1 24  1  6  0  0  0
  1 12  1  0  0  0  0
  2 13  1  0  0  0  0
  3  5  1  6  0  0  0
  3 11  1  0  0  0  0
  4  6  1  6  0  0  0
  4  1  1  0  0  0  0
  4  8  1  0  0  0  0
  7 14  1  0  0  0  0
  8  3  1  0  0  0  0
  9 10  1  0  0  0  0
  9  7  1  0  0  0  0
 10  6  1  0  0  0  0
 11 13  1  0  0  0  0
 11 38  1  0  0  0  0
 12  2  1  0  0  0  0
 14  8  1  0  0  0  0
 14  5  1  0  0  0  0
 17 26  1  0  0  0  0
 18 17  2  0  0  0  0
 18 25  1  0  0  0  0
 19 21  1  0  0  0  0
 21 15  1  0  0  0  0
 21 20  1  0  0  0  0
 21 17  1  0  0  0  0
 22 18  1  0  0  0  0
 23 19  2  0  0  0  0
 23 22  1  0  0  0  0
 24 16  1  0  0  0  0
 25 24  2  0  0  0  0
 26 16  2  0  0  0  0
 27 28  1  0  0  0  0
 28 19  1  0  0  0  0
 29 30  1  0  0  0  0
 29  9  1  0  0  0  0
 31 29  1  0  0  0  0
 32 33  1  0  0  0  0
 33 31  1  0  0  0  0
 34 36  1  0  0  0  0
 35 34  1  0  0  0  0
 36 33  1  0  0  0  0
 37 34  2  0  0  0  0
 38 39  1  0  0  0  0
 39 44  1  0  0  0  0
 41 45  2  0  0  0  0
 42 41  1  0  0  0  0
 43 39  2  0  0  0  0
 43 41  1  0  0  0  0
 44 40  2  0  0  0  0
 45 40  1  0  0  0  0
M  END
>  <MODEL>
3

>  <REMARK>
 VINA RESULT:      -8.2      4.535      8.971
  Name = 
  8 active torsions:
  status: ('A' for Active; 'I' for Inactive)
    1  A    between atoms: C_3  and  C_19
    2  A    between atoms: C_4  and  C_36
    3  A    between atoms: C_12  and  C_34
    4  A    between atoms: C_12  and  C_41
    5  A    between atoms: C_18  and  C_34
    6  A    between atoms: C_19  and  N_25
    7  A    between atoms: C_22  and  O_38
    8  A    between atoms: N_32  and  C_41
                            x       y       z     vdW  Elec       q    Type
                         _______ _______ _______ _____ _____    ______ ____

>  <TORSDO>
F 8

$$$$
=
 OpenBabel10222416493D

 45 50  0  0  1  0  0  0  0  0999 V2000
  185.3700  178.6410  140.2160 C   0  0  2  0  0  3  0  0  0  0  0  0
  186.5940  178.6820  137.9440 C   0  0  0  0  0  2  0  0  0  0  0  0
  184.1970  176.9370  137.4860 C   0  0  2  0  0  3  0  0  0  0  0  0
  184.0390  177.9610  139.7790 C   0  0  1  0  0  3  0  0  0  0  0  0
  182.7520  176.8320  136.9750 C   0  0  0  0  0  2  0  0  0  0  0  0
  182.9370  178.2950  140.6160 O   0  0  0  0  0  0  0  0  0  0  0  0
  181.3330  178.0640  138.5990 N   0  0  0  0  0  2  0  0  0  0  0  0
  183.8090  178.1820  138.2570 C   0  0  2  0  0  3  0  0  0  0  0  0
  181.2500  179.3660  139.2740 C   0  0  2  0  0  3  0  0  0  0  0  0
  182.4230  179.5530  140.2430 C   0  0  0  0  0  2  0  0  0  0  0  0
  185.1250  177.3420  136.4190 N   0  0  0  0  0  0  0  0  0  0  0  0
  186.5610  178.1320  139.3710 C   0  0  0  0  0  2  0  0  0  0  0  0
  186.4770  177.5010  136.9750 C   0  0  0  0  0  2  0  0  0  0  0  0
  182.4160  178.1570  137.6300 C   0  0  1  0  0  3  0  0  0  0  0  0
  185.7940  176.9450  146.4160 F   0  0  0  0  0  0  0  0  0  0  0  0
  184.7300  178.8480  142.6570 C   0  0  0  0  0  3  0  0  0  0  0  0
  186.2200  178.2020  144.4620 C   0  0  0  0  0  0  0  0  0  0  0  0
  187.1810  177.7980  143.5080 C   0  0  0  0  0  0  0  0  0  0  0  0
  187.9790  177.8770  146.2720 C   0  0  0  0  0  0  0  0  0  0  0  0
  185.9420  179.2940  146.6540 C   0  0  0  0  0  1  0  0  0  0  0  0
  186.4850  178.0480  145.9510 C   0  0  2  0  0  0  0  0  0  0  0  0
  188.4450  177.1090  143.9300 C   0  0  0  0  0  2  0  0  0  0  0  0
  188.8470  177.4810  145.3260 C   0  0  0  0  0  3  0  0  0  0  0  0
  185.7090  178.5090  141.7010 C   0  0  0  0  0  0  0  0  0  0  0  0
  186.9170  177.9450  142.1480 C   0  0  0  0  0  3  0  0  0  0  0  0
  184.9810  178.6980  144.0180 C   0  0  0  0  0  3  0  0  0  0  0  0
  187.9310  177.5040  148.7490 C   0  0  0  0  0  1  0  0  0  0  0  0
  188.4960  178.0710  147.5680 O   0  0  0  0  0  0  0  0  0  0  0  0
  179.8950  179.5200  139.9630 C   0  0  1  0  0  3  0  0  0  0  0  0
  179.0510  180.3370  139.1970 O   0  0  0  0  0  1  0  0  0  0  0  0
  179.2630  178.1510  140.2110 C   0  0  0  0  0  2  0  0  0  0  0  0
  179.2560  176.1290  141.5860 N   0  0  0  0  0  1  0  0  0  0  0  0
  179.6160  177.5400  141.5700 C   0  0  2  0  0  3  0  0  0  0  0  0
  179.6090  178.7560  143.8170 C   0  0  0  0  0  0  0  0  0  0  0  0
  181.0880  178.6300  143.9640 C   0  0  0  0  0  1  0  0  0  0  0  0
  178.9340  178.2540  142.6510 N   0  0  0  0  0  2  0  0  0  0  0  0
  178.9420  179.3250  144.7240 O   0  0  0  0  0  0  0  0  0  0  0  0
  185.2200  176.2300  135.4800 C   0  0  0  0  0  2  0  0  0  0  0  0
  185.9160  175.0850  136.1390 C   0  0  0  0  0  0  0  0  0  0  0  0
  185.8410  172.9700  137.2910 C   0  0  0  0  0  3  0  0  0  0  0  0
  187.9430  173.9330  136.6100 C   0  0  0  0  0  0  0  0  0  0  0  0
  189.2940  173.8630  136.5180 F   0  0  0  0  0  0  0  0  0  0  0  0
  187.2700  175.0010  136.0900 N   0  0  0  0  0  0  0  0  0  0  0  0
  185.1710  174.0710  136.7480 C   0  0  0  0  0  3  0  0  0  0  0  0
  187.2350  172.8960  137.2220 C   0  0  0  0  0  3  0  0  0  0  0  0
  1 24  1  1  0  0  0
  2 12  1  0  0  0  0
  3  5  1  6  0  0  0
  3  8  1  0  0  0  0
  4  1  1  0  0  0  0
  4  6  1  1  0  0  0
  5 14  1  0  0  0  0
  7  9  1  0  0  0  0
  8  4  1  0  0  0  0
  9 29  1  0  0  0  0
  9 10  1  0  0  0  0
 10  6  1  0  0  0  0
 11 13  1  0  0  0  0
 11  3  1  0  0  0  0
 12  1  1  0  0  0  0
 13  2  1  0  0  0  0
 14  8  1  0  0  0  0
 14  7  1  0  0  0  0
 16 26  1  0  0  0  0
 17 21  1  0  0  0  0
 18 22  1  0  0  0  0
 18 17  1  0  0  0  0
 19 28  1  0  0  0  0
 21 19  1  0  0  0  0
 21 15  1  0  0  0  0
 21 20  1  0  0  0  0
 22 23  1  0  0  0  0
 23 19  2  0  0  0  0
 24 25  1  0  0  0  0
 24 16  2  0  0  0  0
 25 18  2  0  0  0  0
 26 17  2  0  0  0  0
 28 27  1  0  0  0  0
 29 31  1  0  0  0  0
 30 29  1  0  0  0  0
 31 33  1  0  0  0  0
 33 32  1  0  0  0  0
 33 36  1  0  0  0  0
 34 35  1  0  0  0  0
 34 37  2  0  0  0  0
 36 34  1  0  0  0  0
 38 39  1  0  0  0  0
 38 11  1  0  0  0  0
 39 44  1  0  0  0  0
 41 45  2  0  0  0  0
 42 41  1  0  0  0  0
 43 39  2  0  0  0  0
 43 41  1  0  0  0  0
 44 40  2  0  0  0  0
 45 40  1  0  0  0  0
M  END
>  <MODEL>
4

>  <REMARK>
 VINA RESULT:      -8.1      4.525      6.638
  Name = 
  8 active torsions:
  status: ('A' for Active; 'I' for Inactive)
    1  A    between atoms: C_3  and  C_19
    2  A    between atoms: C_4  and  C_36
    3  A    between atoms: C_12  and  C_34
    4  A    between atoms: C_12  and  C_41
    5  A    between atoms: C_18  and  C_34
    6  A    between atoms: C_19  and  N_25
    7  A    between atoms: C_22  and  O_38
    8  A    between atoms: N_32  and  C_41
                            x       y       z     vdW  Elec       q    Type
                         _______ _______ _______ _____ _____    ______ ____

>  <TORSDO>
F 8

$$$$
=
 OpenBabel10222416493D

 45 50  0  0  1  0  0  0  0  0999 V2000
  186.8760  178.6280  140.2230 C   0  0  2  0  0  3  0  0  0  0  0  0
  188.6340  178.8800  138.3500 C   0  0  0  0  0  2  0  0  0  0  0  0
  186.5860  176.9980  137.2240 C   0  0  2  0  0  3  0  0  0  0  0  0
  185.7610  177.8820  139.4310 C   0  0  1  0  0  3  0  0  0  0  0  0
  185.3340  176.8200  136.3520 C   0  0  0  0  0  2  0  0  0  0  0  0
  184.4580  178.0900  139.9640 O   0  0  0  0  0  0  0  0  0  0  0  0
  183.4490  177.8580  137.5930 N   0  0  0  0  0  2  0  0  0  0  0  0
  185.9120  178.1690  137.9100 C   0  0  2  0  0  3  0  0  0  0  0  0
  183.0890  179.1120  138.2680 C   0  0  2  0  0  3  0  0  0  0  0  0
  183.9550  179.3270  139.5140 C   0  0  0  0  0  2  0  0  0  0  0  0
  187.7190  177.5260  136.4490 N   0  0  0  0  0  0  0  0  0  0  0  0
  188.2810  178.2510  139.6990 C   0  0  0  0  0  2  0  0  0  0  0  0
  188.8670  177.7490  137.3430 C   0  0  0  0  0  2  0  0  0  0  0  0
  184.7330  178.0800  136.9430 C   0  0  1  0  0  3  0  0  0  0  0  0
  185.6830  176.7470  146.2680 F   0  0  0  0  0  0  0  0  0  0  0  0
  185.6640  178.8030  142.4390 C   0  0  0  0  0  3  0  0  0  0  0  0
  186.6330  178.0320  144.5270 C   0  0  0  0  0  0  0  0  0  0  0  0
  187.7800  177.6030  143.8230 C   0  0  0  0  0  0  0  0  0  0  0  0
  187.8760  177.5670  146.6990 C   0  0  0  0  0  0  0  0  0  0  0  0
  185.8720  179.0780  146.6250 C   0  0  0  0  0  1  0  0  0  0  0  0
  186.5160  177.8240  146.0280 C   0  0  2  0  0  0  0  0  0  0  0  0
  188.8690  176.8380  144.5140 C   0  0  0  0  0  2  0  0  0  0  0  0
  188.9320  177.1510  145.9800 C   0  0  0  0  0  3  0  0  0  0  0  0
  186.8320  178.4390  141.7390 C   0  0  0  0  0  0  0  0  0  0  0  0
  187.8670  177.8010  142.4460 C   0  0  0  0  0  3  0  0  0  0  0  0
  185.5650  178.6040  143.8130 C   0  0  0  0  0  3  0  0  0  0  0  0
  189.2350  178.2530  148.6890 C   0  0  0  0  0  1  0  0  0  0  0  0
  188.0660  177.6980  148.0880 O   0  0  0  0  0  0  0  0  0  0  0  0
  181.5950  179.1320  138.5870 C   0  0  1  0  0  3  0  0  0  0  0  0
  180.8740  179.6430  137.4980 O   0  0  0  0  0  1  0  0  0  0  0  0
  181.1100  177.7330  138.9630 C   0  0  0  0  0  2  0  0  0  0  0  0
  179.7880  176.4800  140.5940 N   0  0  0  0  0  1  0  0  0  0  0  0
  180.7270  177.5830  140.4380 C   0  0  2  0  0  3  0  0  0  0  0  0
  180.6370  179.5050  142.1180 C   0  0  0  0  0  0  0  0  0  0  0  0
  181.8330  179.0030  142.8540 C   0  0  0  0  0  1  0  0  0  0  0  0
  180.1470  178.8250  140.9500 N   0  0  0  0  0  2  0  0  0  0  0  0
  180.0550  180.5500  142.5200 O   0  0  0  0  0  0  0  0  0  0  0  0
  188.1440  176.4770  135.5290 C   0  0  0  0  0  2  0  0  0  0  0  0
  189.3270  175.7670  136.1000 C   0  0  0  0  0  0  0  0  0  0  0  0
  190.2890  173.8620  137.2180 C   0  0  0  0  0  3  0  0  0  0  0  0
  191.6870  175.6260  136.3580 C   0  0  0  0  0  0  0  0  0  0  0  0
  192.9190  176.1510  136.1380 F   0  0  0  0  0  0  0  0  0  0  0  0
  190.5710  176.2800  135.9220 N   0  0  0  0  0  0  0  0  0  0  0  0
  189.1580  174.5460  136.7600 C   0  0  0  0  0  3  0  0  0  0  0  0
  191.5630  174.4010  137.0170 C   0  0  0  0  0  3  0  0  0  0  0  0
  1 24  1  1  0  0  0
  2 12  1  0  0  0  0
  3  5  1  6  0  0  0
  3  8  1  0  0  0  0
  4  6  1  1  0  0  0
  4  1  1  0  0  0  0
  5 14  1  0  0  0  0
  7  9  1  0  0  0  0
  8  4  1  0  0  0  0
  9 29  1  0  0  0  0
  9 10  1  0  0  0  0
 10  6  1  0  0  0  0
 11  3  1  0  0  0  0
 11 13  1  0  0  0  0
 12  1  1  0  0  0  0
 13  2  1  0  0  0  0
 14  7  1  0  0  0  0
 14  8  1  0  0  0  0
 16 26  1  0  0  0  0
 17 21  1  0  0  0  0
 18 22  1  0  0  0  0
 18 17  1  0  0  0  0
 19 28  1  0  0  0  0
 21 15  1  0  0  0  0
 21 20  1  0  0  0  0
 21 19  1  0  0  0  0
 22 23  1  0  0  0  0
 23 19  2  0  0  0  0
 24 16  2  0  0  0  0
 24 25  1  0  0  0  0
 25 18  2  0  0  0  0
 26 17  2  0  0  0  0
 28 27  1  0  0  0  0
 29 31  1  0  0  0  0
 30 29  1  0  0  0  0
 31 33  1  0  0  0  0
 33 32  1  0  0  0  0
 33 36  1  0  0  0  0
 34 37  2  0  0  0  0
 34 35  1  0  0  0  0
 36 34  1  0  0  0  0
 38 39  1  0  0  0  0
 38 11  1  0  0  0  0
 39 44  1  0  0  0  0
 41 45  2  0  0  0  0
 42 41  1  0  0  0  0
 43 39  2  0  0  0  0
 43 41  1  0  0  0  0
 44 40  2  0  0  0  0
 45 40  1  0  0  0  0
M  END
>  <MODEL>
5

>  <REMARK>
 VINA RESULT:      -8.1      2.737      4.557
  Name = 
  8 active torsions:
  status: ('A' for Active; 'I' for Inactive)
    1  A    between atoms: C_3  and  C_19
    2  A    between atoms: C_4  and  C_36
    3  A    between atoms: C_12  and  C_34
    4  A    between atoms: C_12  and  C_41
    5  A    between atoms: C_18  and  C_34
    6  A    between atoms: C_19  and  N_25
    7  A    between atoms: C_22  and  O_38
    8  A    between atoms: N_32  and  C_41
                            x       y       z     vdW  Elec       q    Type
                         _______ _______ _______ _____ _____    ______ ____

>  <TORSDO>
F 8

$$$$
=
 OpenBabel10222416493D

 45 50  0  0  1  0  0  0  0  0999 V2000
  184.8630  178.9440  141.2650 C   0  0  2  0  0  3  0  0  0  0  0  0
  184.9240  179.6360  143.7510 C   0  0  0  0  0  2  0  0  0  0  0  0
  186.7020  177.2250  143.5880 C   0  0  2  0  0  3  0  0  0  0  0  0
  186.0130  177.8940  141.2620 C   0  0  1  0  0  3  0  0  0  0  0  0
  188.1320  176.6780  143.4590 C   0  0  0  0  0  2  0  0  0  0  0  0
  186.6290  177.7390  139.9880 O   0  0  0  0  0  0  0  0  0  0  0  0
  188.8750  177.1720  141.1400 N   0  0  0  0  0  2  0  0  0  0  0  0
  186.9870  178.1740  142.4420 C   0  0  2  0  0  3  0  0  0  0  0  0
  188.9630  178.2900  140.1910 C   0  0  2  0  0  3  0  0  0  0  0  0
  187.5660  178.7720  139.7860 C   0  0  0  0  0  2  0  0  0  0  0  0
  186.5350  178.0320  144.8060 N   0  0  0  0  0  0  0  0  0  0  0  0
  184.1310  178.9670  142.6270 C   0  0  0  0  0  2  0  0  0  0  0  0
  185.1740  178.5920  144.8440 C   0  0  0  0  0  2  0  0  0  0  0  0
  188.4490  177.7310  142.4150 C   0  0  1  0  0  3  0  0  0  0  0  0
  181.7570  178.5280  135.6370 F   0  0  0  0  0  0  0  0  0  0  0  0
  183.4970  179.9170  139.3690 C   0  0  0  0  0  3  0  0  0  0  0  0
  182.0300  178.5680  137.9830 C   0  0  0  0  0  0  0  0  0  0  0  0
  182.4180  177.4200  138.7100 C   0  0  0  0  0  0  0  0  0  0  0  0
  180.2340  177.1610  136.8540 C   0  0  0  0  0  0  0  0  0  0  0  0
  180.1110  179.6680  136.8960 C   0  0  0  0  0  1  0  0  0  0  0  0
  181.0520  178.4640  136.8240 C   0  0  2  0  0  0  0  0  0  0  0  0
  181.9620  176.0530  138.2960 C   0  0  0  0  0  2  0  0  0  0  0  0
  180.6570  176.0970  137.5560 C   0  0  0  0  0  3  0  0  0  0  0  0
  183.8380  178.7890  140.1410 C   0  0  0  0  0  0  0  0  0  0  0  0
  183.3180  177.5380  139.7680 C   0  0  0  0  0  3  0  0  0  0  0  0
  182.6040  179.8100  138.3060 C   0  0  0  0  0  3  0  0  0  0  0  0
  178.9310  176.1790  134.9520 C   0  0  0  0  0  1  0  0  0  0  0  0
  179.0470  177.0020  136.1130 O   0  0  0  0  0  0  0  0  0  0  0  0
  189.8140  177.8950  138.9860 C   0  0  1  0  0  3  0  0  0  0  0  0
  189.8530  176.4990  138.8550 O   0  0  0  0  0  1  0  0  0  0  0  0
  189.2790  178.5540  137.7150 C   0  0  0  0  0  2  0  0  0  0  0  0
  189.4930  177.5570  135.4930 N   0  0  0  0  0  1  0  0  0  0  0  0
  188.6860  177.5680  136.7050 C   0  0  2  0  0  3  0  0  0  0  0  0
  186.1980  177.0090  136.5580 C   0  0  0  0  0  0  0  0  0  0  0  0
  186.4030  175.6470  137.1290 C   0  0  0  0  0  1  0  0  0  0  0  0
  187.3000  177.9170  136.3930 N   0  0  0  0  0  2  0  0  0  0  0  0
  185.0360  177.3730  136.2270 O   0  0  0  0  0  0  0  0  0  0  0  0
  186.6100  177.1220  145.9440 C   0  0  0  0  0  2  0  0  0  0  0  0
  187.7820  177.4880  146.7930 C   0  0  0  0  0  0  0  0  0  0  0  0
  188.6940  178.4760  148.7920 C   0  0  0  0  0  3  0  0  0  0  0  0
  190.1130  177.3070  147.2330 C   0  0  0  0  0  0  0  0  0  0  0  0
  191.3360  176.8430  146.8740 F   0  0  0  0  0  0  0  0  0  0  0  0
  189.0240  177.0630  146.4460 N   0  0  0  0  0  0  0  0  0  0  0  0
  187.5920  178.2120  147.9740 C   0  0  0  0  0  3  0  0  0  0  0  0
  189.9640  178.0210  148.4240 C   0  0  0  0  0  3  0  0  0  0  0  0
  1 24  1  6  0  0  0
  1 12  1  0  0  0  0
  2 13  1  0  0  0  0
  3  5  1  1  0  0  0
  3 11  1  0  0  0  0
  4  6  1  6  0  0  0
  4  1  1  0  0  0  0
  4  8  1  0  0  0  0
  7 14  1  0  0  0  0
  8  3  1  0  0  0  0
  9  7  1  0  0  0  0
 10  6  1  0  0  0  0
 10  9  1  0  0  0  0
 11 13  1  0  0  0  0
 11 38  1  0  0  0  0
 12  2  1  0  0  0  0
 14  8  1  0  0  0  0
 14  5  1  0  0  0  0
 15 21  1  0  0  0  0
 16 24  1  0  0  0  0
 17 26  1  0  0  0  0
 17 18  2  0  0  0  0
 18 25  1  0  0  0  0
 19 23  2  0  0  0  0
 21 19  1  0  0  0  0
 21 20  1  0  0  0  0
 21 17  1  0  0  0  0
 22 18  1  0  0  0  0
 23 22  1  0  0  0  0
 25 24  2  0  0  0  0
 26 16  2  0  0  0  0
 27 28  1  0  0  0  0
 28 19  1  0  0  0  0
 29  9  1  0  0  0  0
 30 29  1  0  0  0  0
 31 29  1  0  0  0  0
 32 33  1  0  0  0  0
 33 31  1  0  0  0  0
 34 35  1  0  0  0  0
 36 34  1  0  0  0  0
 36 33  1  0  0  0  0
 37 34  2  0  0  0  0
 38 39  1  0  0  0  0
 39 44  1  0  0  0  0
 41 45  2  0  0  0  0
 42 41  1  0  0  0  0
 43 39  2  0  0  0  0
 43 41  1  0  0  0  0
 44 40  2  0  0  0  0
 45 40  1  0  0  0  0
M  END
>  <MODEL>
6

>  <REMARK>
 VINA RESULT:      -8.0      4.105      9.273
  Name = 
  8 active torsions:
  status: ('A' for Active; 'I' for Inactive)
    1  A    between atoms: C_3  and  C_19
    2  A    between atoms: C_4  and  C_36
    3  A    between atoms: C_12  and  C_34
    4  A    between atoms: C_12  and  C_41
    5  A    between atoms: C_18  and  C_34
    6  A    between atoms: C_19  and  N_25
    7  A    between atoms: C_22  and  O_38
    8  A    between atoms: N_32  and  C_41
                            x       y       z     vdW  Elec       q    Type
                         _______ _______ _______ _____ _____    ______ ____

>  <TORSDO>
F 8

$$$$
=
 OpenBabel10222416493D

 45 50  0  0  1  0  0  0  0  0999 V2000
  182.5140  178.6630  141.9650 C   0  0  2  0  0  3  0  0  0  0  0  0
  180.0480  179.3930  141.7550 C   0  0  0  0  0  2  0  0  0  0  0  0
  181.4210  180.6670  139.4110 C   0  0  2  0  0  3  0  0  0  0  0  0
  183.0420  179.1360  140.5780 C   0  0  1  0  0  3  0  0  0  0  0  0
  181.7720  180.5870  137.9180 C   0  0  0  0  0  2  0  0  0  0  0  0
  184.1740  178.4010  140.1270 O   0  0  0  0  0  0  0  0  0  0  0  0
  183.4290  178.7520  137.6750 N   0  0  0  0  0  2  0  0  0  0  0  0
  181.8630  179.2260  139.5680 C   0  0  2  0  0  3  0  0  0  0  0  0
  183.6210  177.3420  138.0370 C   0  0  2  0  0  3  0  0  0  0  0  0
  183.7530  177.1830  139.5560 C   0  0  0  0  0  2  0  0  0  0  0  0
  179.9670  180.7150  139.6280 N   0  0  0  0  0  0  0  0  0  0  0  0
  181.3840  179.5840  142.4760 C   0  0  0  0  0  2  0  0  0  0  0  0
  179.6830  180.7150  141.0710 C   0  0  0  0  0  2  0  0  0  0  0  0
  182.0700  179.1070  138.0590 C   0  0  1  0  0  3  0  0  0  0  0  0
  186.1410  176.8860  146.9830 F   0  0  0  0  0  0  0  0  0  0  0  0
  183.2410  178.8160  144.3850 C   0  0  0  0  0  3  0  0  0  0  0  0
  185.4640  178.1830  145.1290 C   0  0  0  0  0  0  0  0  0  0  0  0
  185.7920  177.8200  143.8040 C   0  0  0  0  0  0  0  0  0  0  0  0
  187.9150  177.8800  145.7460 C   0  0  0  0  0  0  0  0  0  0  0  0
  186.3550  179.2340  147.1730 C   0  0  0  0  0  1  0  0  0  0  0  0
  186.4700  178.0140  146.2560 C   0  0  2  0  0  0  0  0  0  0  0  0
  187.1000  177.1610  143.4850 C   0  0  0  0  0  2  0  0  0  0  0  0
  188.1670  177.5230  144.4750 C   0  0  0  0  0  3  0  0  0  0  0  0
  183.5820  178.5180  143.0500 C   0  0  0  0  0  0  0  0  0  0  0  0
  184.8530  177.9810  142.7850 C   0  0  0  0  0  3  0  0  0  0  0  0
  184.1680  178.6520  145.4110 C   0  0  0  0  0  3  0  0  0  0  0  0
  190.0920  177.1280  146.7310 C   0  0  0  0  0  1  0  0  0  0  0  0
  189.0290  178.0680  146.5850 O   0  0  0  0  0  0  0  0  0  0  0  0
  184.8170  176.7600  137.2860 C   0  0  1  0  0  3  0  0  0  0  0  0
  184.4060  176.2330  136.0530 O   0  0  0  0  0  1  0  0  0  0  0  0
  185.8990  177.8230  137.0990 C   0  0  0  0  0  2  0  0  0  0  0  0
  187.3960  175.9530  137.5870 N   0  0  0  0  0  1  0  0  0  0  0  0
  187.2790  177.4040  137.6160 C   0  0  2  0  0  3  0  0  0  0  0  0
  188.8010  178.0620  139.5580 C   0  0  0  0  0  0  0  0  0  0  0  0
  190.0360  177.7680  138.7750 C   0  0  0  0  0  1  0  0  0  0  0  0
  187.4980  177.9080  138.9720 N   0  0  0  0  0  2  0  0  0  0  0  0
  188.9040  178.4640  140.7500 O   0  0  0  0  0  0  0  0  0  0  0  0
  179.4980  182.0080  139.1410 C   0  0  0  0  0  2  0  0  0  0  0  0
  179.5520  182.0250  137.6500 C   0  0  0  0  0  0  0  0  0  0  0  0
  178.9540  181.0690  135.5200 C   0  0  0  0  0  3  0  0  0  0  0  0
  180.1260  183.1720  135.6460 C   0  0  0  0  0  0  0  0  0  0  0  0
  180.6790  184.2490  135.0360 F   0  0  0  0  0  0  0  0  0  0  0  0
  180.1240  183.0760  137.0080 N   0  0  0  0  0  0  0  0  0  0  0  0
  178.9580  180.9930  136.9170 C   0  0  0  0  0  3  0  0  0  0  0  0
  179.5390  182.1650  134.8770 C   0  0  0  0  0  3  0  0  0  0  0  0
  1 12  1  0  0  0  0
  1 24  1  1  0  0  0
  2 12  1  0  0  0  0
  3  5  1  6  0  0  0
  3  8  1  0  0  0  0
  3 11  1  0  0  0  0
  4  6  1  6  0  0  0
  4  1  1  0  0  0  0
  5 14  1  0  0  0  0
  7  9  1  0  0  0  0
  7 14  1  0  0  0  0
  8  4  1  0  0  0  0
  9 10  1  0  0  0  0
 10  6  1  0  0  0  0
 11 13  1  0  0  0  0
 13  2  1  0  0  0  0
 14  8  1  0  0  0  0
 16 26  1  0  0  0  0
 17 26  2  0  0  0  0
 17 21  1  0  0  0  0
 18 17  1  0  0  0  0
 19 21  1  0  0  0  0
 19 28  1  0  0  0  0
 21 15  1  0  0  0  0
 21 20  1  0  0  0  0
 22 18  1  0  0  0  0
 22 23  1  0  0  0  0
 23 19  2  0  0  0  0
 24 16  2  0  0  0  0
 25 24  1  0  0  0  0
 25 18  2  0  0  0  0
 28 27  1  0  0  0  0
 29  9  1  0  0  0  0
 30 29  1  0  0  0  0
 31 29  1  0  0  0  0
 31 33  1  0  0  0  0
 32 33  1  0  0  0  0
 33 36  1  0  0  0  0
 34 37  2  0  0  0  0
 35 34  1  0  0  0  0
 36 34  1  0  0  0  0
 38 11  1  0  0  0  0
 39 38  1  0  0  0  0
 40 44  1  0  0  0  0
 41 43  2  0  0  0  0
 42 41  1  0  0  0  0
 43 39  1  0  0  0  0
 44 39  2  0  0  0  0
 45 40  2  0  0  0  0
 45 41  1  0  0  0  0
M  END
>  <MODEL>
7

>  <REMARK>
 VINA RESULT:      -7.7      4.207      9.673
  Name = 
  8 active torsions:
  status: ('A' for Active; 'I' for Inactive)
    1  A    between atoms: C_3  and  C_19
    2  A    between atoms: C_4  and  C_36
    3  A    between atoms: C_12  and  C_34
    4  A    between atoms: C_12  and  C_41
    5  A    between atoms: C_18  and  C_34
    6  A    between atoms: C_19  and  N_25
    7  A    between atoms: C_22  and  O_38
    8  A    between atoms: N_32  and  C_41
                            x       y       z     vdW  Elec       q    Type
                         _______ _______ _______ _____ _____    ______ ____

>  <TORSDO>
F 8

$$$$
=
 OpenBabel10222416493D

 45 50  0  0  1  0  0  0  0  0999 V2000
  183.6840  178.3250  142.1270 C   0  0  2  0  0  3  0  0  0  0  0  0
  181.1410  178.4390  141.7050 C   0  0  0  0  0  2  0  0  0  0  0  0
  182.3150  180.4740  139.8390 C   0  0  2  0  0  3  0  0  0  0  0  0
  184.1820  179.1920  140.9330 C   0  0  1  0  0  3  0  0  0  0  0  0
  182.8050  180.7960  138.4190 C   0  0  0  0  0  2  0  0  0  0  0  0
  185.5080  178.8750  140.5240 O   0  0  0  0  0  0  0  0  0  0  0  0
  184.9160  179.5280  138.0920 N   0  0  0  0  0  2  0  0  0  0  0  0
  183.1180  179.1900  139.8000 C   0  0  2  0  0  3  0  0  0  0  0  0
  185.4540  178.1680  138.2240 C   0  0  2  0  0  3  0  0  0  0  0  0
  185.4890  177.7360  139.6940 C   0  0  0  0  0  2  0  0  0  0  0  0
  180.8900  180.1090  139.8540 N   0  0  0  0  0  0  0  0  0  0  0  0
  182.3030  178.8060  142.6290 C   0  0  0  0  0  2  0  0  0  0  0  0
  180.4900  179.7380  141.2200 C   0  0  0  0  0  2  0  0  0  0  0  0
  183.4830  179.4430  138.3380 C   0  0  1  0  0  3  0  0  0  0  0  0
  186.7600  176.8860  147.6010 F   0  0  0  0  0  0  0  0  0  0  0  0
  184.2320  178.7030  144.5700 C   0  0  0  0  0  3  0  0  0  0  0  0
  186.3330  178.0060  145.5660 C   0  0  0  0  0  0  0  0  0  0  0  0
  186.7320  177.4710  144.3200 C   0  0  0  0  0  0  0  0  0  0  0  0
  188.6980  177.6040  146.4190 C   0  0  0  0  0  0  0  0  0  0  0  0
  187.1440  179.2190  147.5520 C   0  0  0  0  0  1  0  0  0  0  0  0
  187.2330  177.8970  146.7860 C   0  0  2  0  0  0  0  0  0  0  0  0
  188.0050  176.6890  144.1890 C   0  0  0  0  0  2  0  0  0  0  0  0
  189.0180  177.0860  145.2210 C   0  0  0  0  0  3  0  0  0  0  0  0
  184.6500  178.2310  143.3090 C   0  0  0  0  0  0  0  0  0  0  0  0
  185.8910  177.5790  143.2140 C   0  0  0  0  0  3  0  0  0  0  0  0
  185.0610  178.5940  145.6830 C   0  0  0  0  0  3  0  0  0  0  0  0
  190.8800  176.9410  147.4550 C   0  0  0  0  0  1  0  0  0  0  0  0
  189.7550  177.8090  147.3260 O   0  0  0  0  0  0  0  0  0  0  0  0
  186.8250  178.0740  137.5570 C   0  0  1  0  0  3  0  0  0  0  0  0
  187.3560  179.3560  137.3560 O   0  0  0  0  0  1  0  0  0  0  0  0
  187.7690  177.2110  138.3950 C   0  0  0  0  0  2  0  0  0  0  0  0
  189.8110  177.3740  137.0620 N   0  0  0  0  0  1  0  0  0  0  0  0
  189.2280  177.6730  138.3620 C   0  0  2  0  0  3  0  0  0  0  0  0
  189.8740  177.3850  140.8170 C   0  0  0  0  0  0  0  0  0  0  0  0
  188.8840  178.4060  141.2650 C   0  0  0  0  0  1  0  0  0  0  0  0
  189.9980  177.0320  139.4290 N   0  0  0  0  0  2  0  0  0  0  0  0
  190.6050  176.8120  141.6720 O   0  0  0  0  0  0  0  0  0  0  0  0
  180.1290  181.3150  139.5420 C   0  0  0  0  0  2  0  0  0  0  0  0
  179.7230  181.2860  138.1060 C   0  0  0  0  0  0  0  0  0  0  0  0
  179.3700  182.4110  136.0040 C   0  0  0  0  0  3  0  0  0  0  0  0
  179.1610  180.0160  136.1740 C   0  0  0  0  0  0  0  0  0  0  0  0
  178.9310  178.8100  135.5960 F   0  0  0  0  0  0  0  0  0  0  0  0
  179.4580  180.0970  137.5040 N   0  0  0  0  0  0  0  0  0  0  0  0
  179.6780  182.4720  137.3670 C   0  0  0  0  0  3  0  0  0  0  0  0
  179.1110  181.1770  135.4000 C   0  0  0  0  0  3  0  0  0  0  0  0
  1 12  1  0  0  0  0
  1 24  1  1  0  0  0
  2 12  1  0  0  0  0
  3  5  1  6  0  0  0
  3 11  1  0  0  0  0
  4  6  1  6  0  0  0
  4  1  1  0  0  0  0
  7  9  1  0  0  0  0
  7 14  1  0  0  0  0
  8  3  1  0  0  0  0
  8  4  1  0  0  0  0
  9 10  1  0  0  0  0
 10  6  1  0  0  0  0
 11 13  1  0  0  0  0
 13  2  1  0  0  0  0
 14  5  1  0  0  0  0
 14  8  1  0  0  0  0
 16 26  1  0  0  0  0
 17 26  2  0  0  0  0
 17 21  1  0  0  0  0
 18 17  1  0  0  0  0
 19 21  1  0  0  0  0
 19 28  1  0  0  0  0
 21 20  1  0  0  0  0
 21 15  1  0  0  0  0
 22 18  1  0  0  0  0
 22 23  1  0  0  0  0
 23 19  2  0  0  0  0
 24 16  2  0  0  0  0
 25 24  1  0  0  0  0
 25 18  2  0  0  0  0
 28 27  1  0  0  0  0
 29  9  1  0  0  0  0
 29 31  1  0  0  0  0
 30 29  1  0  0  0  0
 32 33  1  0  0  0  0
 33 31  1  0  0  0  0
 33 36  1  0  0  0  0
 34 35  1  0  0  0  0
 34 37  2  0  0  0  0
 36 34  1  0  0  0  0
 38 11  1  0  0  0  0
 39 38  1  0  0  0  0
 40 44  1  0  0  0  0
 41 43  2  0  0  0  0
 42 41  1  0  0  0  0
 43 39  1  0  0  0  0
 44 39  2  0  0  0  0
 45 40  2  0  0  0  0
 45 41  1  0  0  0  0
M  END
>  <MODEL>
8

>  <REMARK>
 VINA RESULT:      -7.6      4.191      9.348
  Name = 
  8 active torsions:
  status: ('A' for Active; 'I' for Inactive)
    1  A    between atoms: C_3  and  C_19
    2  A    between atoms: C_4  and  C_36
    3  A    between atoms: C_12  and  C_34
    4  A    between atoms: C_12  and  C_41
    5  A    between atoms: C_18  and  C_34
    6  A    between atoms: C_19  and  N_25
    7  A    between atoms: C_22  and  O_38
    8  A    between atoms: N_32  and  C_41
                            x       y       z     vdW  Elec       q    Type
                         _______ _______ _______ _____ _____    ______ ____

>  <TORSDO>
F 8

$$$$
=
 OpenBabel10222416493D

 45 50  0  0  1  0  0  0  0  0999 V2000
  189.2450  177.6000  139.4390 C   0  0  2  0  0  3  0  0  0  0  0  0
  191.7880  177.5130  139.0080 C   0  0  0  0  0  2  0  0  0  0  0  0
  190.6850  175.1350  137.5470 C   0  0  2  0  0  3  0  0  0  0  0  0
  188.7740  176.5170  138.4250 C   0  0  1  0  0  3  0  0  0  0  0  0
  190.1990  174.5480  136.2140 C   0  0  0  0  0  2  0  0  0  0  0  0
  187.4340  176.7040  137.9850 O   0  0  0  0  0  0  0  0  0  0  0  0
  188.0350  175.6540  135.6980 N   0  0  0  0  0  2  0  0  0  0  0  0
  189.8300  176.3590  137.2940 C   0  0  2  0  0  3  0  0  0  0  0  0
  187.4430  176.9940  135.5950 C   0  0  2  0  0  3  0  0  0  0  0  0
  187.4010  177.6780  136.9670 C   0  0  0  0  0  2  0  0  0  0  0  0
  192.0940  175.5520  137.4770 N   0  0  0  0  0  0  0  0  0  0  0  0
  190.6480  177.2700  139.9990 C   0  0  0  0  0  2  0  0  0  0  0  0
  192.4880  176.1740  138.7510 C   0  0  0  0  0  2  0  0  0  0  0  0
  189.4650  175.8380  135.9050 C   0  0  1  0  0  3  0  0  0  0  0  0
  184.2820  177.7880  143.5420 F   0  0  0  0  0  0  0  0  0  0  0  0
  187.1270  178.6310  140.3670 C   0  0  0  0  0  3  0  0  0  0  0  0
  186.4110  178.3140  142.6650 C   0  0  0  0  0  0  0  0  0  0  0  0
  187.5360  177.4890  142.8890 C   0  0  0  0  0  0  0  0  0  0  0  0
  185.9560  178.2560  145.1690 C   0  0  0  0  0  0  0  0  0  0  0  0
  184.9860  180.0410  143.6940 C   0  0  0  0  0  1  0  0  0  0  0  0
  185.3990  178.5700  143.7690 C   0  0  2  0  0  0  0  0  0  0  0  0
  187.7110  176.7570  144.1860 C   0  0  0  0  0  2  0  0  0  0  0  0
  187.0250  177.4570  145.3220 C   0  0  0  0  0  3  0  0  0  0  0  0
  188.2850  177.8630  140.6000 C   0  0  0  0  0  0  0  0  0  0  0  0
  188.4520  177.2660  141.8620 C   0  0  0  0  0  3  0  0  0  0  0  0
  186.2020  178.8540  141.3830 C   0  0  0  0  0  3  0  0  0  0  0  0
  186.0450  178.9670  147.5690 C   0  0  0  0  0  1  0  0  0  0  0  0
  185.3500  178.7390  146.3440 O   0  0  0  0  0  0  0  0  0  0  0  0
  186.0640  176.9150  134.9430 C   0  0  1  0  0  3  0  0  0  0  0  0
  185.7680  175.5900  134.5940 O   0  0  0  0  0  1  0  0  0  0  0  0
  184.9980  177.4930  135.8730 C   0  0  0  0  0  2  0  0  0  0  0  0
  182.7550  177.5070  134.9010 N   0  0  0  0  0  1  0  0  0  0  0  0
  183.6470  176.7770  135.7910 C   0  0  2  0  0  3  0  0  0  0  0  0
  183.2490  175.5040  137.9700 C   0  0  0  0  0  0  0  0  0  0  0  0
  184.1490  174.3890  137.5590 C   0  0  0  0  0  1  0  0  0  0  0  0
  183.0490  176.6470  137.1200 N   0  0  0  0  0  2  0  0  0  0  0  0
  182.6640  175.4490  139.0870 O   0  0  0  0  0  0  0  0  0  0  0  0
  192.9020  174.3410  137.3720 C   0  0  0  0  0  2  0  0  0  0  0  0
  194.1330  174.6350  136.5810 C   0  0  0  0  0  0  0  0  0  0  0  0
  195.4800  176.1580  135.2890 C   0  0  0  0  0  3  0  0  0  0  0  0
  196.3040  173.9690  135.8720 C   0  0  0  0  0  0  0  0  0  0  0  0
  197.2920  173.0400  135.8530 F   0  0  0  0  0  0  0  0  0  0  0  0
  195.1290  173.7140  136.5170 N   0  0  0  0  0  0  0  0  0  0  0  0
  194.2860  175.8780  135.9600 C   0  0  0  0  0  3  0  0  0  0  0  0
  196.4990  175.2020  135.2440 C   0  0  0  0  0  3  0  0  0  0  0  0
  1 12  1  0  0  0  0
  1 24  1  1  0  0  0
  2 12  1  0  0  0  0
  3  5  1  6  0  0  0
  4  6  1  6  0  0  0
  4  1  1  0  0  0  0
  7 14  1  0  0  0  0
  8  3  1  0  0  0  0
  8  4  1  0  0  0  0
  9  7  1  0  0  0  0
  9 10  1  0  0  0  0
 10  6  1  0  0  0  0
 11  3  1  0  0  0  0
 11 13  1  0  0  0  0
 13  2  1  0  0  0  0
 14  5  1  0  0  0  0
 14  8  1  0  0  0  0
 15 21  1  0  0  0  0
 16 24  2  0  0  0  0
 16 26  1  0  0  0  0
 17 18  1  0  0  0  0
 17 21  1  0  0  0  0
 18 22  1  0  0  0  0
 19 23  2  0  0  0  0
 19 28  1  0  0  0  0
 20 21  1  0  0  0  0
 21 19  1  0  0  0  0
 22 23  1  0  0  0  0
 24 25  1  0  0  0  0
 25 18  2  0  0  0  0
 26 17  2  0  0  0  0
 28 27  1  0  0  0  0
 29  9  1  0  0  0  0
 29 31  1  0  0  0  0
 30 29  1  0  0  0  0
 32 33  1  0  0  0  0
 33 31  1  0  0  0  0
 33 36  1  0  0  0  0
 34 37  2  0  0  0  0
 35 34  1  0  0  0  0
 36 34  1  0  0  0  0
 38 11  1  0  0  0  0
 39 38  1  0  0  0  0
 40 44  1  0  0  0  0
 41 43  2  0  0  0  0
 42 41  1  0  0  0  0
 43 39  1  0  0  0  0
 44 39  2  0  0  0  0
 45 40  2  0  0  0  0
 45 41  1  0  0  0  0
M  END
>  <MODEL>
9

>  <REMARK>
 VINA RESULT:      -7.6      1.760      2.110
  Name = 
  8 active torsions:
  status: ('A' for Active; 'I' for Inactive)
    1  A    between atoms: C_3  and  C_19
    2  A    between atoms: C_4  and  C_36
    3  A    between atoms: C_12  and  C_34
    4  A    between atoms: C_12  and  C_41
    5  A    between atoms: C_18  and  C_34
    6  A    between atoms: C_19  and  N_25
    7  A    between atoms: C_22  and  O_38
    8  A    between atoms: N_32  and  C_41
                            x       y       z     vdW  Elec       q    Type
                         _______ _______ _______ _____ _____    ______ ____

>  <TORSDO>
F 8

$$$$
