=
 OpenBabel10222420573D

 51 57  0  0  1  0  0  0  0  0999 V2000
  187.8010  178.4260  141.2660 C   0  0  0  0  0  2  0  0  0  0  0  0
  189.9170  177.4400  138.3820 C   0  0  0  0  0  0  0  0  0  0  0  0
  188.5030  177.1830  141.7950 C   0  0  1  0  0  3  0  0  0  0  0  0
  189.2170  177.5600  139.5370 C   0  0  0  0  0  0  0  0  0  0  0  0
  189.5210  176.7540  140.7520 C   0  0  0  0  0  2  0  0  0  0  0  0
  188.1020  178.5170  139.7790 C   0  0  1  0  0  3  0  0  0  0  0  0
  192.9840  174.5360  137.5570 C   0  0  1  0  0  0  0  0  0  0  0  0
  190.5920  175.2450  137.5940 C   0  0  0  0  0  3  0  0  0  0  0  0
  193.9810  173.4890  137.3070 C   0  0  1  0  0  3  0  0  0  0  0  0
  193.6840  174.5090  136.2490 N   0  0  0  0  0  0  0  0  0  0  0  0
  190.9270  176.3730  138.2410 C   0  0  0  0  0  0  0  0  0  0  0  0
  192.3020  176.5660  138.7760 C   0  0  0  0  0  0  0  0  0  0  0  0
  191.5340  174.0810  137.4570 C   0  0  0  0  0  2  0  0  0  0  0  0
  193.2730  175.7000  138.4830 C   0  0  0  0  0  3  0  0  0  0  0  0
  192.6140  177.7070  139.6840 C   0  0  0  0  0  1  0  0  0  0  0  0
  195.2950  173.6950  138.0900 C   0  0  0  0  0  2  0  0  0  0  0  0
  195.5570  171.2760  137.4050 C   0  0  0  0  0  1  0  0  0  0  0  0
  196.2600  172.5150  137.9440 C   0  0  1  0  0  3  0  0  0  0  0  0
  197.5260  172.8540  137.1450 C   0  0  0  0  0  0  0  0  0  0  0  0
  198.2560  171.7280  135.4810 C   0  0  0  0  0  2  0  0  0  0  0  0
  198.1860  174.0000  137.5910 O   0  0  0  0  0  1  0  0  0  0  0  0
  198.4750  171.6850  136.9820 C   0  0  0  0  0  2  0  0  0  0  0  0
  197.2960  172.8920  135.6490 C   0  0  0  0  0  2  0  0  0  0  0  0
  194.7360  175.5270  136.1330 C   0  0  0  0  0  2  0  0  0  0  0  0
  193.0280  176.4430  134.5990 C   0  0  0  0  0  1  0  0  0  0  0  0
  194.9980  177.6690  135.1060 O   0  0  0  0  0  1  0  0  0  0  0  0
  194.5120  176.3780  134.8940 C   0  0  1  0  0  3  0  0  0  0  0  0
  185.3250  179.3960  140.2100 O   0  0  0  0  0  0  0  0  0  0  0  0
  186.9160  178.1850  138.9850 N   0  0  0  0  0  2  0  0  0  0  0  0
  185.5800  178.6540  139.2230 C   0  0  0  0  0  0  0  0  0  0  0  0
  183.7550  177.1830  138.5470 C   0  0  0  0  0  3  0  0  0  0  0  0
  184.4890  178.2680  138.3270 C   0  0  0  0  0  3  0  0  0  0  0  0
  182.6520  176.8080  137.6110 C   0  0  0  0  0  2  0  0  0  0  0  0
  181.2820  177.2410  138.1310 C   0  0  0  0  0  0  0  0  0  0  0  0
  180.5670  176.1090  138.8430 C   0  0  0  0  0  2  0  0  0  0  0  0
  181.1300  177.2790  139.6370 C   0  0  0  0  0  2  0  0  0  0  0  0
  179.0310  177.7910  137.4340 F   0  0  0  0  0  0  0  0  0  0  0  0
  180.4770  179.6060  137.8000 C   0  0  0  0  0  1  0  0  0  0  0  0
  180.7280  178.1180  135.8400 C   0  0  0  0  0  1  0  0  0  0  0  0
  180.3590  178.1720  137.3120 C   0  0  0  0  0  0  0  0  0  0  0  0
  189.7530  178.2900  137.2740 O   0  0  0  0  0  0  0  0  0  0  0  0
  189.0250  177.9690  136.0980 C   0  0  0  0  0  1  0  0  0  0  0  0
  189.1710  177.4920  143.0510 N   0  0  0  0  0  2  0  0  0  0  0  0
  190.5910  176.8670  146.4530 C   0  0  0  0  0  2  0  0  0  0  0  0
  191.4330  177.0060  145.2090 C   0  0  0  0  0  0  0  0  0  0  0  0
  192.0970  178.2320  145.0360 O   0  0  0  0  0  0  0  0  0  0  0  0
  191.0630  176.1990  143.9730 C   0  0  0  0  0  2  0  0  0  0  0  0
  191.3800  178.3350  142.8340 O   0  0  0  0  0  0  0  0  0  0  0  0
  191.3450  178.9630  144.0980 C   0  0  0  0  0  2  0  0  0  0  0  0
  191.9580  176.1950  146.3650 C   0  0  0  0  0  2  0  0  0  0  0  0
  190.5860  177.1650  142.8880 C   0  0  2  0  0  3  0  0  0  0  0  0
  1  3  1  0  0  0  0
  2  4  2  0  0  0  0
  3 43  1  1  0  0  0
  4  6  1  0  0  0  0
  4  5  1  0  0  0  0
  5  3  1  0  0  0  0
  6 29  1  6  0  0  0
  6  1  1  0  0  0  0
  7 13  1  6  0  0  0
  7 14  1  0  0  0  0
  8 11  2  0  0  0  0
  9  7  1  0  0  0  0
  9 16  1  1  0  0  0
 10  9  1  0  0  0  0
 10  7  1  0  0  0  0
 11  2  1  0  0  0  0
 11 12  1  0  0  0  0
 12 15  1  0  0  0  0
 13  8  1  0  0  0  0
 14 12  2  0  0  0  0
 18 17  1  6  0  0  0
 18 16  1  0  0  0  0
 19 21  1  0  0  0  0
 19 18  1  0  0  0  0
 20 23  1  0  0  0  0
 20 22  1  0  0  0  0
 22 19  1  0  0  0  0
 23 19  1  0  0  0  0
 24 10  1  0  0  0  0
 27 25  1  1  0  0  0
 27 26  1  0  0  0  0
 27 24  1  0  0  0  0
 29 30  1  0  0  0  0
 30 28  2  0  0  0  0
 32 31  2  0  0  0  0
 32 30  1  0  0  0  0
 33 34  1  0  0  0  0
 33 31  1  0  0  0  0
 34 35  1  0  0  0  0
 34 36  1  0  0  0  0
 35 36  1  0  0  0  0
 39 40  1  0  0  0  0
 40 37  1  0  0  0  0
 40 38  1  0  0  0  0
 40 34  1  0  0  0  0
 41  2  1  0  0  0  0
 42 41  1  0  0  0  0
 45 50  1  0  0  0  0
 45 44  1  0  0  0  0
 46 45  1  0  0  0  0
 47 45  1  0  0  0  0
 48 51  1  0  0  0  0
 48 49  1  0  0  0  0
 49 46  1  0  0  0  0
 50 44  1  0  0  0  0
 51 43  1  1  0  0  0
 51 47  1  0  0  0  0
M  END
>  <MODEL>
1

>  <REMARK>
 VINA RESULT:      -7.1      0.000      0.000
  Name = 
  14 active torsions:
  status: ('A' for Active; 'I' for Inactive)
    1  A    between atoms: C_9  and  C_15
    2  A    between atoms: C_9  and  C_22
    3  A    between atoms: C_10  and  C_12
    4  A    between atoms: C_10  and  C_27
    5  A    between atoms: C_11  and  O_14
    6  A    between atoms: C_11  and  C_31
    7  A    between atoms: C_15  and  C_37
    8  A    between atoms: C_17  and  C_27
    9  A    between atoms: N_19  and  C_23
   10  A    between atoms: N_19  and  C_44
   11  A    between atoms: N_29  and  C_38
   12  A    between atoms: C_35  and  C_50
   13  A    between atoms: C_38  and  C_45
   14  A    between atoms: N_43  and  C_47
                            x       y       z     vdW  Elec       q    Type
                         _______ _______ _______ _____ _____    ______ ____

>  <TORSDO>
F 14

$$$$
=
 OpenBabel10222420573D

 51 57  0  0  1  0  0  0  0  0999 V2000
  188.2280  178.5670  141.2130 C   0  0  0  0  0  2  0  0  0  0  0  0
  190.0920  177.3900  138.2280 C   0  0  0  0  0  0  0  0  0  0  0  0
  188.9480  177.3390  141.7500 C   0  0  1  0  0  3  0  0  0  0  0  0
  189.4880  177.5840  139.4270 C   0  0  0  0  0  0  0  0  0  0  0  0
  189.8730  176.8350  140.6550 C   0  0  0  0  0  2  0  0  0  0  0  0
  188.4120  178.5750  139.7050 C   0  0  1  0  0  3  0  0  0  0  0  0
  193.0680  174.4090  137.3430 C   0  0  1  0  0  0  0  0  0  0  0  0
  190.6980  175.1890  137.4040 C   0  0  0  0  0  3  0  0  0  0  0  0
  194.0320  173.3380  137.0720 C   0  0  1  0  0  3  0  0  0  0  0  0
  193.7600  174.3820  136.0310 N   0  0  0  0  0  0  0  0  0  0  0  0
  191.0690  176.2960  138.0670 C   0  0  0  0  0  0  0  0  0  0  0  0
  192.4520  176.4400  138.5970 C   0  0  0  0  0  0  0  0  0  0  0  0
  191.6040  173.9990  137.2440 C   0  0  0  0  0  2  0  0  0  0  0  0
  193.3960  175.5500  138.2860 C   0  0  0  0  0  3  0  0  0  0  0  0
  192.8030  177.5570  139.5210 C   0  0  0  0  0  1  0  0  0  0  0  0
  195.3550  173.4920  137.8510 C   0  0  0  0  0  2  0  0  0  0  0  0
  195.8860  171.5240  136.3560 C   0  0  0  0  0  1  0  0  0  0  0  0
  196.3910  172.4300  137.4710 C   0  0  1  0  0  3  0  0  0  0  0  0
  197.7780  173.0090  137.1610 C   0  0  0  0  0  0  0  0  0  0  0  0
  198.1540  174.5980  135.7810 C   0  0  0  0  0  2  0  0  0  0  0  0
  198.8140  172.4120  137.8810 O   0  0  0  0  0  1  0  0  0  0  0  0
  198.0890  173.0850  135.6810 C   0  0  0  0  0  2  0  0  0  0  0  0
  197.8300  174.5190  137.2630 C   0  0  0  0  0  2  0  0  0  0  0  0
  194.8410  175.3700  135.9250 C   0  0  0  0  0  2  0  0  0  0  0  0
  195.3820  177.4940  134.7840 C   0  0  0  0  0  1  0  0  0  0  0  0
  193.2240  176.5210  134.5940 O   0  0  0  0  0  1  0  0  0  0  0  0
  194.2860  176.7130  135.4780 C   0  0  1  0  0  3  0  0  0  0  0  0
  185.6800  179.4470  140.3730 O   0  0  0  0  0  0  0  0  0  0  0  0
  187.1620  178.2290  139.0230 N   0  0  0  0  0  2  0  0  0  0  0  0
  185.8500  178.6950  139.3760 C   0  0  0  0  0  0  0  0  0  0  0  0
  183.5680  179.0140  138.5710 C   0  0  0  0  0  3  0  0  0  0  0  0
  184.6850  178.2930  138.5850 C   0  0  0  0  0  3  0  0  0  0  0  0
  182.3910  178.5770  137.7620 C   0  0  0  0  0  2  0  0  0  0  0  0
  181.3470  177.8500  138.6080 C   0  0  0  0  0  0  0  0  0  0  0  0
  181.0890  178.5660  139.9200 C   0  0  0  0  0  2  0  0  0  0  0  0
  180.0390  178.5860  138.8180 C   0  0  0  0  0  2  0  0  0  0  0  0
  180.0100  175.8570  138.9170 F   0  0  0  0  0  0  0  0  0  0  0  0
  181.7980  175.6830  137.4030 C   0  0  0  0  0  1  0  0  0  0  0  0
  182.1700  175.8220  139.8440 C   0  0  0  0  0  1  0  0  0  0  0  0
  181.3020  176.3080  138.6970 C   0  0  0  0  0  0  0  0  0  0  0  0
  189.8560  178.1850  137.0940 O   0  0  0  0  0  0  0  0  0  0  0  0
  189.2750  177.7290  135.8810 C   0  0  0  0  0  1  0  0  0  0  0  0
  189.7180  177.6970  142.9320 N   0  0  0  0  0  2  0  0  0  0  0  0
  186.7110  178.5880  144.9690 C   0  0  0  0  0  2  0  0  0  0  0  0
  187.6620  177.4720  145.3260 C   0  0  0  0  0  0  0  0  0  0  0  0
  188.5760  177.7330  146.3590 O   0  0  0  0  0  0  0  0  0  0  0  0
  188.0420  176.4560  144.2580 C   0  0  0  0  0  2  0  0  0  0  0  0
  190.3040  176.8690  145.0780 O   0  0  0  0  0  0  0  0  0  0  0  0
  189.8070  178.0140  145.7390 C   0  0  0  0  0  2  0  0  0  0  0  0
  186.2310  177.3970  145.7930 C   0  0  0  0  0  2  0  0  0  0  0  0
  189.5230  176.6400  143.9210 C   0  0  2  0  0  3  0  0  0  0  0  0
  1  3  1  0  0  0  0
  2  4  2  0  0  0  0
  3 43  1  1  0  0  0
  4  6  1  0  0  0  0
  4  5  1  0  0  0  0
  5  3  1  0  0  0  0
  6 29  1  6  0  0  0
  6  1  1  0  0  0  0
  7 13  1  6  0  0  0
  7 14  1  0  0  0  0
  8 11  2  0  0  0  0
  9  7  1  0  0  0  0
  9 16  1  1  0  0  0
 10  9  1  0  0  0  0
 10  7  1  0  0  0  0
 11  2  1  0  0  0  0
 11 12  1  0  0  0  0
 12 15  1  0  0  0  0
 13  8  1  0  0  0  0
 14 12  2  0  0  0  0
 18 17  1  6  0  0  0
 18 16  1  0  0  0  0
 19 23  1  0  0  0  0
 19 18  1  0  0  0  0
 19 21  1  0  0  0  0
 20 23  1  0  0  0  0
 22 20  1  0  0  0  0
 22 19  1  0  0  0  0
 24 10  1  0  0  0  0
 26 27  1  0  0  0  0
 27 25  1  6  0  0  0
 27 24  1  0  0  0  0
 29 30  1  0  0  0  0
 30 28  2  0  0  0  0
 31 32  2  0  0  0  0
 32 30  1  0  0  0  0
 33 31  1  0  0  0  0
 33 34  1  0  0  0  0
 34 40  1  0  0  0  0
 34 36  1  0  0  0  0
 34 35  1  0  0  0  0
 36 35  1  0  0  0  0
 38 40  1  0  0  0  0
 40 37  1  0  0  0  0
 40 39  1  0  0  0  0
 41  2  1  0  0  0  0
 42 41  1  0  0  0  0
 44 45  1  0  0  0  0
 44 50  1  0  0  0  0
 45 50  1  0  0  0  0
 45 46  1  0  0  0  0
 47 45  1  0  0  0  0
 48 49  1  0  0  0  0
 49 46  1  0  0  0  0
 51 43  1  6  0  0  0
 51 47  1  0  0  0  0
 51 48  1  0  0  0  0
M  END
>  <MODEL>
2

>  <REMARK>
 VINA RESULT:      -6.7      1.532      2.070
  Name = 
  14 active torsions:
  status: ('A' for Active; 'I' for Inactive)
    1  A    between atoms: C_9  and  C_15
    2  A    between atoms: C_9  and  C_22
    3  A    between atoms: C_10  and  C_12
    4  A    between atoms: C_10  and  C_27
    5  A    between atoms: C_11  and  O_14
    6  A    between atoms: C_11  and  C_31
    7  A    between atoms: C_15  and  C_37
    8  A    between atoms: C_17  and  C_27
    9  A    between atoms: N_19  and  C_23
   10  A    between atoms: N_19  and  C_44
   11  A    between atoms: N_29  and  C_38
   12  A    between atoms: C_35  and  C_50
   13  A    between atoms: C_38  and  C_45
   14  A    between atoms: N_43  and  C_47
                            x       y       z     vdW  Elec       q    Type
                         _______ _______ _______ _____ _____    ______ ____

>  <TORSDO>
F 14

$$$$
=
 OpenBabel10222420573D

 51 57  0  0  1  0  0  0  0  0999 V2000
  191.2710  175.8420  138.1900 C   0  0  0  0  0  2  0  0  0  0  0  0
  188.1980  177.8740  137.7510 C   0  0  0  0  0  0  0  0  0  0  0  0
  190.3170  174.8440  137.5500 C   0  0  1  0  0  3  0  0  0  0  0  0
  189.1610  176.9250  137.8430 C   0  0  0  0  0  0  0  0  0  0  0  0
  189.0500  175.5950  137.1800 C   0  0  0  0  0  2  0  0  0  0  0  0
  190.4590  177.0710  138.5590 C   0  0  1  0  0  3  0  0  0  0  0  0
  184.5250  176.4890  135.9870 C   0  0  1  0  0  0  0  0  0  0  0  0
  186.9090  177.2060  135.8060 C   0  0  0  0  0  3  0  0  0  0  0  0
  183.2850  176.0690  135.3250 C   0  0  1  0  0  3  0  0  0  0  0  0
  184.2230  175.0400  135.8830 N   0  0  0  0  0  0  0  0  0  0  0  0
  186.9120  177.5560  137.1020 C   0  0  0  0  0  0  0  0  0  0  0  0
  185.6480  177.5860  137.8870 C   0  0  0  0  0  0  0  0  0  0  0  0
  185.6420  176.9250  135.0460 C   0  0  0  0  0  2  0  0  0  0  0  0
  184.5140  177.1100  137.3690 C   0  0  0  0  0  3  0  0  0  0  0  0
  185.6110  178.1850  139.2520 C   0  0  0  0  0  1  0  0  0  0  0  0
  182.0190  176.3490  136.1610 C   0  0  0  0  0  2  0  0  0  0  0  0
  180.4770  177.6510  134.6400 C   0  0  0  0  0  1  0  0  0  0  0  0
  181.3980  177.7150  135.8510 C   0  0  1  0  0  3  0  0  0  0  0  0
  180.7150  178.3660  137.0620 C   0  0  0  0  0  0  0  0  0  0  0  0
  181.7330  179.4500  138.5980 C   0  0  0  0  0  2  0  0  0  0  0  0
  179.3290  178.2060  137.0840 O   0  0  0  0  0  1  0  0  0  0  0  0
  181.3470  177.9970  138.3880 C   0  0  0  0  0  2  0  0  0  0  0  0
  181.1100  179.8140  137.2620 C   0  0  0  0  0  2  0  0  0  0  0  0
  183.7400  174.4570  137.1410 C   0  0  0  0  0  2  0  0  0  0  0  0
  184.6680  172.5180  135.9230 C   0  0  0  0  0  1  0  0  0  0  0  0
  185.3060  172.9710  138.1650 O   0  0  0  0  0  1  0  0  0  0  0  0
  184.2280  173.0250  137.2800 C   0  0  1  0  0  3  0  0  0  0  0  0
  192.5090  177.5120  140.6260 O   0  0  0  0  0  0  0  0  0  0  0  0
  190.2740  177.1590  140.0100 N   0  0  0  0  0  2  0  0  0  0  0  0
  191.3050  177.3950  140.9810 C   0  0  0  0  0  0  0  0  0  0  0  0
  189.9090  178.1630  142.8290 C   0  0  0  0  0  3  0  0  0  0  0  0
  190.9740  177.4920  142.4040 C   0  0  0  0  0  3  0  0  0  0  0  0
  189.5990  178.2540  144.2870 C   0  0  0  0  0  2  0  0  0  0  0  0
  188.2780  177.5700  144.6400 C   0  0  0  0  0  0  0  0  0  0  0  0
  187.1590  177.9930  143.7070 C   0  0  0  0  0  2  0  0  0  0  0  0
  187.7470  176.5920  143.6120 C   0  0  0  0  0  2  0  0  0  0  0  0
  186.8840  176.3510  146.1970 F   0  0  0  0  0  0  0  0  0  0  0  0
  189.0310  176.9270  146.9570 C   0  0  0  0  0  1  0  0  0  0  0  0
  187.2520  178.6220  146.6790 C   0  0  0  0  0  1  0  0  0  0  0  0
  187.8440  177.3470  146.1060 C   0  0  0  0  0  0  0  0  0  0  0  0
  188.3420  179.1860  138.2360 O   0  0  0  0  0  0  0  0  0  0  0  0
  188.9780  180.2490  137.5430 C   0  0  0  0  0  1  0  0  0  0  0  0
  190.9280  174.2740  136.3580 N   0  0  0  0  0  2  0  0  0  0  0  0
  193.9890  175.9240  134.9820 C   0  0  0  0  0  2  0  0  0  0  0  0
  193.9930  174.5590  135.6250 C   0  0  0  0  0  0  0  0  0  0  0  0
  194.0620  173.4560  134.7570 O   0  0  0  0  0  0  0  0  0  0  0  0
  193.3180  174.3770  136.9770 C   0  0  0  0  0  2  0  0  0  0  0  0
  192.3360  172.4170  135.9030 O   0  0  0  0  0  0  0  0  0  0  0  0
  192.7560  172.9430  134.6620 C   0  0  0  0  0  2  0  0  0  0  0  0
  195.2520  175.3860  135.6490 C   0  0  0  0  0  2  0  0  0  0  0  0
  192.0850  173.4920  136.7880 C   0  0  2  0  0  3  0  0  0  0  0  0
  1  6  1  0  0  0  0
  2  4  2  0  0  0  0
  2 41  1  0  0  0  0
  3 43  1  6  0  0  0
  3  1  1  0  0  0  0
  4  6  1  0  0  0  0
  5  3  1  0  0  0  0
  5  4  1  0  0  0  0
  6 29  1  1  0  0  0
  7 13  1  6  0  0  0
  7 14  1  0  0  0  0
  8 11  2  0  0  0  0
  9 10  1  0  0  0  0
  9  7  1  0  0  0  0
  9 16  1  1  0  0  0
 10  7  1  0  0  0  0
 10 24  1  0  0  0  0
 11  2  1  0  0  0  0
 11 12  1  0  0  0  0
 12 15  1  0  0  0  0
 13  8  1  0  0  0  0
 14 12  2  0  0  0  0
 18 17  1  6  0  0  0
 18 16  1  0  0  0  0
 18 19  1  0  0  0  0
 19 21  1  0  0  0  0
 19 23  1  0  0  0  0
 19 22  1  0  0  0  0
 22 20  1  0  0  0  0
 23 20  1  0  0  0  0
 24 27  1  0  0  0  0
 27 25  1  6  0  0  0
 27 26  1  0  0  0  0
 28 30  2  0  0  0  0
 29 30  1  0  0  0  0
 30 32  1  0  0  0  0
 31 33  1  0  0  0  0
 32 31  2  0  0  0  0
 33 34  1  0  0  0  0
 34 40  1  0  0  0  0
 35 34  1  0  0  0  0
 36 35  1  0  0  0  0
 36 34  1  0  0  0  0
 40 37  1  0  0  0  0
 40 39  1  0  0  0  0
 40 38  1  0  0  0  0
 42 41  1  0  0  0  0
 44 45  1  0  0  0  0
 44 50  1  0  0  0  0
 45 50  1  0  0  0  0
 45 47  1  0  0  0  0
 46 45  1  0  0  0  0
 48 51  1  0  0  0  0
 49 46  1  0  0  0  0
 49 48  1  0  0  0  0
 51 43  1  6  0  0  0
 51 47  1  0  0  0  0
M  END
>  <MODEL>
3

>  <REMARK>
 VINA RESULT:      -5.8      3.203     10.411
  Name = 
  14 active torsions:
  status: ('A' for Active; 'I' for Inactive)
    1  A    between atoms: C_9  and  C_15
    2  A    between atoms: C_9  and  C_22
    3  A    between atoms: C_10  and  C_12
    4  A    between atoms: C_10  and  C_27
    5  A    between atoms: C_11  and  O_14
    6  A    between atoms: C_11  and  C_31
    7  A    between atoms: C_15  and  C_37
    8  A    between atoms: C_17  and  C_27
    9  A    between atoms: N_19  and  C_23
   10  A    between atoms: N_19  and  C_44
   11  A    between atoms: N_29  and  C_38
   12  A    between atoms: C_35  and  C_50
   13  A    between atoms: C_38  and  C_45
   14  A    between atoms: N_43  and  C_47
                            x       y       z     vdW  Elec       q    Type
                         _______ _______ _______ _____ _____    ______ ____

>  <TORSDO>
F 14

$$$$
=
 OpenBabel10222420573D

 51 57  0  0  1  0  0  0  0  0999 V2000
  179.2070  180.6200  140.2820 C   0  0  0  0  0  2  0  0  0  0  0  0
  179.5100  176.9490  139.8340 C   0  0  0  0  0  0  0  0  0  0  0  0
  179.8060  180.5170  138.8860 C   0  0  1  0  0  3  0  0  0  0  0  0
  179.5460  178.3030  139.7710 C   0  0  0  0  0  0  0  0  0  0  0  0
  179.8500  179.0450  138.5150 C   0  0  0  0  0  2  0  0  0  0  0  0
  179.2540  179.2320  140.8970 C   0  0  1  0  0  3  0  0  0  0  0  0
  180.7480  175.0260  136.1880 C   0  0  1  0  0  0  0  0  0  0  0  0
  178.9900  175.6690  137.8380 C   0  0  0  0  0  3  0  0  0  0  0  0
  181.1220  174.3090  134.9650 C   0  0  1  0  0  3  0  0  0  0  0  0
  180.8130  175.7750  134.9090 N   0  0  0  0  0  0  0  0  0  0  0  0
  179.9300  176.1480  138.6680 C   0  0  0  0  0  0  0  0  0  0  0  0
  181.3750  175.9120  138.4010 C   0  0  0  0  0  0  0  0  0  0  0  0
  179.3190  174.7920  136.6620 C   0  0  0  0  0  2  0  0  0  0  0  0
  181.7740  175.3650  137.2520 C   0  0  0  0  0  3  0  0  0  0  0  0
  182.4050  176.2430  139.4280 C   0  0  0  0  0  1  0  0  0  0  0  0
  182.6180  173.9330  134.9060 C   0  0  0  0  0  2  0  0  0  0  0  0
  182.4230  171.4150  134.9960 C   0  0  0  0  0  1  0  0  0  0  0  0
  182.9390  172.6630  135.7000 C   0  0  1  0  0  3  0  0  0  0  0  0
  184.4190  172.5390  136.0840 C   0  0  0  0  0  0  0  0  0  0  0  0
  185.2630  173.2280  137.9240 C   0  0  0  0  0  2  0  0  0  0  0  0
  185.2040  171.9100  135.1160 O   0  0  0  0  0  1  0  0  0  0  0  0
  185.0380  173.8390  136.5530 C   0  0  0  0  0  2  0  0  0  0  0  0
  184.6320  171.9290  137.4540 C   0  0  0  0  0  2  0  0  0  0  0  0
  182.0180  176.6030  134.7820 C   0  0  0  0  0  2  0  0  0  0  0  0
  180.1450  178.2110  134.8720 C   0  0  0  0  0  1  0  0  0  0  0  0
  182.2100  178.6800  135.9470 O   0  0  0  0  0  1  0  0  0  0  0  0
  181.6520  178.0770  134.8190 C   0  0  1  0  0  3  0  0  0  0  0  0
  178.9860  178.1520  143.6230 O   0  0  0  0  0  0  0  0  0  0  0  0
  180.2770  179.1590  141.9440 N   0  0  0  0  0  2  0  0  0  0  0  0
  180.1040  178.6040  143.2570 C   0  0  0  0  0  0  0  0  0  0  0  0
  182.4860  178.5300  143.7790 C   0  0  0  0  0  3  0  0  0  0  0  0
  181.2260  178.5650  144.1970 C   0  0  0  0  0  3  0  0  0  0  0  0
  183.6120  178.4820  144.7600 C   0  0  0  0  0  2  0  0  0  0  0  0
  184.9770  178.4930  144.0730 C   0  0  0  0  0  0  0  0  0  0  0  0
  184.9330  177.8020  142.7240 C   0  0  0  0  0  2  0  0  0  0  0  0
  185.0700  179.3160  142.8040 C   0  0  0  0  0  2  0  0  0  0  0  0
  186.5120  179.3180  145.7520 F   0  0  0  0  0  0  0  0  0  0  0  0
  186.2220  176.9880  145.6660 C   0  0  0  0  0  1  0  0  0  0  0  0
  187.4700  178.2090  143.9130 C   0  0  0  0  0  1  0  0  0  0  0  0
  186.2870  178.2780  144.8630 C   0  0  0  0  0  0  0  0  0  0  0  0
  179.0790  176.2290  140.9610 O   0  0  0  0  0  0  0  0  0  0  0  0
  179.2050  174.8250  141.1310 C   0  0  0  0  0  1  0  0  0  0  0  0
  178.9770  181.2490  137.9390 N   0  0  0  0  0  2  0  0  0  0  0  0
  180.1820  182.7690  134.7430 C   0  0  0  0  0  2  0  0  0  0  0  0
  180.1940  183.4910  136.0680 C   0  0  0  0  0  0  0  0  0  0  0  0
  181.4370  183.5940  136.7150 O   0  0  0  0  0  0  0  0  0  0  0  0
  178.9310  183.4970  136.9160 C   0  0  0  0  0  2  0  0  0  0  0  0
  180.4780  182.9170  138.7140 O   0  0  0  0  0  0  0  0  0  0  0  0
  181.4410  182.6160  137.7260 C   0  0  0  0  0  2  0  0  0  0  0  0
  180.1100  184.2930  134.7950 C   0  0  0  0  0  2  0  0  0  0  0  0
  179.1900  182.6750  138.1790 C   0  0  2  0  0  3  0  0  0  0  0  0
  1  6  1  0  0  0  0
  2 41  1  0  0  0  0
  3 43  1  6  0  0  0
  3  1  1  0  0  0  0
  4  2  2  0  0  0  0
  4  6  1  0  0  0  0
  5  3  1  0  0  0  0
  5  4  1  0  0  0  0
  6 29  1  1  0  0  0
  7 13  1  1  0  0  0
  7 14  1  0  0  0  0
  8 11  2  0  0  0  0
  9 16  1  1  0  0  0
  9  7  1  0  0  0  0
 10  9  1  0  0  0  0
 10  7  1  0  0  0  0
 11  2  1  0  0  0  0
 12 11  1  0  0  0  0
 12 15  1  0  0  0  0
 13  8  1  0  0  0  0
 14 12  2  0  0  0  0
 16 18  1  0  0  0  0
 18 17  1  6  0  0  0
 18 19  1  0  0  0  0
 19 22  1  0  0  0  0
 19 23  1  0  0  0  0
 21 19  1  0  0  0  0
 22 20  1  0  0  0  0
 23 20  1  0  0  0  0
 24 27  1  0  0  0  0
 24 10  1  0  0  0  0
 27 25  1  1  0  0  0
 27 26  1  0  0  0  0
 29 30  1  0  0  0  0
 30 28  2  0  0  0  0
 30 32  1  0  0  0  0
 31 32  2  0  0  0  0
 31 33  1  0  0  0  0
 34 33  1  0  0  0  0
 34 40  1  0  0  0  0
 35 36  1  0  0  0  0
 35 34  1  0  0  0  0
 36 34  1  0  0  0  0
 39 40  1  0  0  0  0
 40 38  1  0  0  0  0
 40 37  1  0  0  0  0
 41 42  1  0  0  0  0
 44 50  1  0  0  0  0
 44 45  1  0  0  0  0
 45 46  1  0  0  0  0
 45 47  1  0  0  0  0
 46 49  1  0  0  0  0
 47 51  1  0  0  0  0
 49 48  1  0  0  0  0
 50 45  1  0  0  0  0
 51 43  1  6  0  0  0
 51 48  1  0  0  0  0
M  END
>  <MODEL>
4

>  <REMARK>
 VINA RESULT:      -5.8      7.802     11.688
  Name = 
  14 active torsions:
  status: ('A' for Active; 'I' for Inactive)
    1  A    between atoms: C_9  and  C_15
    2  A    between atoms: C_9  and  C_22
    3  A    between atoms: C_10  and  C_12
    4  A    between atoms: C_10  and  C_27
    5  A    between atoms: C_11  and  O_14
    6  A    between atoms: C_11  and  C_31
    7  A    between atoms: C_15  and  C_37
    8  A    between atoms: C_17  and  C_27
    9  A    between atoms: N_19  and  C_23
   10  A    between atoms: N_19  and  C_44
   11  A    between atoms: N_29  and  C_38
   12  A    between atoms: C_35  and  C_50
   13  A    between atoms: C_38  and  C_45
   14  A    between atoms: N_43  and  C_47
                            x       y       z     vdW  Elec       q    Type
                         _______ _______ _______ _____ _____    ______ ____

>  <TORSDO>
F 14

$$$$
=
 OpenBabel10222420573D

 51 57  0  0  1  0  0  0  0  0999 V2000
  186.9620  178.5850  141.5980 C   0  0  0  0  0  2  0  0  0  0  0  0
  188.6180  178.1080  138.3120 C   0  0  0  0  0  0  0  0  0  0  0  0
  187.9960  177.5130  141.9140 C   0  0  1  0  0  3  0  0  0  0  0  0
  188.1530  178.0620  139.5850 C   0  0  0  0  0  0  0  0  0  0  0  0
  188.8520  177.3230  140.6730 C   0  0  0  0  0  2  0  0  0  0  0  0
  186.9360  178.7570  140.0890 C   0  0  1  0  0  3  0  0  0  0  0  0
  191.6970  175.3210  137.1840 C   0  0  1  0  0  0  0  0  0  0  0  0
  190.5250  176.7190  138.8860 C   0  0  0  0  0  3  0  0  0  0  0  0
  192.7980  174.4120  136.8460 C   0  0  1  0  0  3  0  0  0  0  0  0
  191.4480  173.8580  137.1910 N   0  0  0  0  0  0  0  0  0  0  0  0
  189.7770  177.2810  137.9230 C   0  0  0  0  0  0  0  0  0  0  0  0
  190.0820  177.0470  136.4860 C   0  0  0  0  0  0  0  0  0  0  0  0
  191.7580  175.9130  138.5870 C   0  0  0  0  0  2  0  0  0  0  0  0
  190.9980  176.1470  136.1230 C   0  0  0  0  0  3  0  0  0  0  0  0
  189.4030  177.8410  135.4220 C   0  0  0  0  0  1  0  0  0  0  0  0
  193.1600  174.4190  135.3460 C   0  0  0  0  0  2  0  0  0  0  0  0
  194.6280  176.4470  135.6920 C   0  0  0  0  0  1  0  0  0  0  0  0
  194.5230  175.0610  135.0710 C   0  0  1  0  0  3  0  0  0  0  0  0
  195.7100  174.1650  135.4510 C   0  0  0  0  0  0  0  0  0  0  0  0
  197.6560  174.8780  135.9780 C   0  0  0  0  0  2  0  0  0  0  0  0
  195.4150  172.8010  135.4410 O   0  0  0  0  0  1  0  0  0  0  0  0
  196.9770  174.4740  134.6820 C   0  0  0  0  0  2  0  0  0  0  0  0
  196.3790  174.5790  136.7450 C   0  0  0  0  0  2  0  0  0  0  0  0
  190.7100  173.3900  136.0110 C   0  0  0  0  0  2  0  0  0  0  0  0
  188.4400  173.7250  136.9270 C   0  0  0  0  0  1  0  0  0  0  0  0
  188.8780  172.0060  135.3480 O   0  0  0  0  0  1  0  0  0  0  0  0
  189.4290  172.6900  136.4330 C   0  0  1  0  0  3  0  0  0  0  0  0
  184.5500  180.1920  139.1310 O   0  0  0  0  0  0  0  0  0  0  0  0
  185.7100  178.1910  139.5200 N   0  0  0  0  0  2  0  0  0  0  0  0
  184.5760  178.9350  139.0480 C   0  0  0  0  0  0  0  0  0  0  0  0
  183.5620  177.3700  137.4740 C   0  0  0  0  0  3  0  0  0  0  0  0
  183.4240  178.2400  138.4680 C   0  0  0  0  0  3  0  0  0  0  0  0
  182.3690  176.6810  136.8960 C   0  0  0  0  0  2  0  0  0  0  0  0
  182.0860  175.3450  137.5810 C   0  0  0  0  0  0  0  0  0  0  0  0
  182.5590  174.1720  136.7430 C   0  0  0  0  0  2  0  0  0  0  0  0
  183.3040  174.5550  138.0140 C   0  0  0  0  0  2  0  0  0  0  0  0
  180.3490  173.7800  138.2070 F   0  0  0  0  0  0  0  0  0  0  0  0
  180.9800  175.3420  139.8450 C   0  0  0  0  0  1  0  0  0  0  0  0
  179.6750  176.0050  137.8510 C   0  0  0  0  0  1  0  0  0  0  0  0
  180.7760  175.0910  138.3600 C   0  0  0  0  0  0  0  0  0  0  0  0
  188.0660  178.9180  137.3050 O   0  0  0  0  0  0  0  0  0  0  0  0
  186.9060  178.6060  136.5480 C   0  0  0  0  0  1  0  0  0  0  0  0
  188.8220  177.9400  143.0330 N   0  0  0  0  0  2  0  0  0  0  0  0
  190.3140  177.1990  146.3810 C   0  0  0  0  0  2  0  0  0  0  0  0
  191.1020  177.1900  145.0940 C   0  0  0  0  0  0  0  0  0  0  0  0
  191.9210  178.3050  144.8530 O   0  0  0  0  0  0  0  0  0  0  0  0
  190.5600  176.4140  143.9020 C   0  0  0  0  0  2  0  0  0  0  0  0
  191.1120  178.4580  142.6860 O   0  0  0  0  0  0  0  0  0  0  0  0
  191.2310  179.1130  143.9320 C   0  0  0  0  0  2  0  0  0  0  0  0
  191.5680  176.3390  146.2480 C   0  0  0  0  0  2  0  0  0  0  0  0
  190.1670  177.4130  142.8130 C   0  0  2  0  0  3  0  0  0  0  0  0
  1  3  1  0  0  0  0
  2  4  2  0  0  0  0
  3 43  1  1  0  0  0
  4  6  1  0  0  0  0
  4  5  1  0  0  0  0
  5  3  1  0  0  0  0
  6 29  1  6  0  0  0
  6  1  1  0  0  0  0
  7 14  1  6  0  0  0
  7 10  1  0  0  0  0
  7 13  1  0  0  0  0
  9 16  1  6  0  0  0
  9  7  1  0  0  0  0
  9 10  1  0  0  0  0
 11  2  1  0  0  0  0
 11  8  2  0  0  0  0
 12 11  1  0  0  0  0
 13  8  1  0  0  0  0
 14 12  2  0  0  0  0
 15 12  1  0  0  0  0
 18 16  1  0  0  0  0
 18 19  1  0  0  0  0
 18 17  1  1  0  0  0
 19 23  1  0  0  0  0
 20 23  1  0  0  0  0
 21 19  1  0  0  0  0
 22 19  1  0  0  0  0
 22 20  1  0  0  0  0
 24 27  1  0  0  0  0
 24 10  1  0  0  0  0
 26 27  1  0  0  0  0
 27 25  1  6  0  0  0
 30 28  2  0  0  0  0
 30 29  1  0  0  0  0
 31 32  2  0  0  0  0
 32 30  1  0  0  0  0
 33 31  1  0  0  0  0
 33 34  1  0  0  0  0
 34 36  1  0  0  0  0
 34 40  1  0  0  0  0
 35 34  1  0  0  0  0
 35 36  1  0  0  0  0
 37 40  1  0  0  0  0
 39 40  1  0  0  0  0
 40 38  1  0  0  0  0
 41  2  1  0  0  0  0
 42 41  1  0  0  0  0
 45 50  1  0  0  0  0
 45 44  1  0  0  0  0
 46 45  1  0  0  0  0
 47 45  1  0  0  0  0
 48 51  1  0  0  0  0
 48 49  1  0  0  0  0
 49 46  1  0  0  0  0
 50 44  1  0  0  0  0
 51 43  1  1  0  0  0
 51 47  1  0  0  0  0
M  END
>  <MODEL>
5

>  <REMARK>
 VINA RESULT:      -5.7      1.889      3.033
  Name = 
  14 active torsions:
  status: ('A' for Active; 'I' for Inactive)
    1  A    between atoms: C_9  and  C_15
    2  A    between atoms: C_9  and  C_22
    3  A    between atoms: C_10  and  C_12
    4  A    between atoms: C_10  and  C_27
    5  A    between atoms: C_11  and  O_14
    6  A    between atoms: C_11  and  C_31
    7  A    between atoms: C_15  and  C_37
    8  A    between atoms: C_17  and  C_27
    9  A    between atoms: N_19  and  C_23
   10  A    between atoms: N_19  and  C_44
   11  A    between atoms: N_29  and  C_38
   12  A    between atoms: C_35  and  C_50
   13  A    between atoms: C_38  and  C_45
   14  A    between atoms: N_43  and  C_47
                            x       y       z     vdW  Elec       q    Type
                         _______ _______ _______ _____ _____    ______ ____

>  <TORSDO>
F 14

$$$$
=
 OpenBabel10222420573D

 51 57  0  0  1  0  0  0  0  0999 V2000
  189.1990  177.6970  138.1360 C   0  0  0  0  0  2  0  0  0  0  0  0
  185.4940  177.7880  137.9650 C   0  0  0  0  0  0  0  0  0  0  0  0
  188.8610  176.2590  137.7670 C   0  0  1  0  0  3  0  0  0  0  0  0
  186.8150  177.4870  138.0080 C   0  0  0  0  0  0  0  0  0  0  0  0
  187.3640  176.1900  137.5210 C   0  0  0  0  0  2  0  0  0  0  0  0
  187.8960  178.3910  138.4910 C   0  0  1  0  0  3  0  0  0  0  0  0
  182.3100  175.1210  136.8380 C   0  0  1  0  0  0  0  0  0  0  0  0
  183.9100  176.0340  138.5210 C   0  0  0  0  0  3  0  0  0  0  0  0
  181.2620  174.1540  136.4960 C   0  0  1  0  0  3  0  0  0  0  0  0
  180.8900  175.5410  136.9250 N   0  0  0  0  0  0  0  0  0  0  0  0
  184.5180  176.7560  137.5660 C   0  0  0  0  0  0  0  0  0  0  0  0
  184.1880  176.5520  136.1290 C   0  0  0  0  0  0  0  0  0  0  0  0
  182.9490  174.9210  138.2070 C   0  0  0  0  0  2  0  0  0  0  0  0
  183.1690  175.7680  135.7700 C   0  0  0  0  0  3  0  0  0  0  0  0
  185.0130  177.1820  135.0590 C   0  0  0  0  0  1  0  0  0  0  0  0
  181.1620  173.8670  134.9830 C   0  0  0  0  0  2  0  0  0  0  0  0
  183.1870  172.3960  134.6310 C   0  0  0  0  0  1  0  0  0  0  0  0
  181.6660  172.4690  134.6120 C   0  0  1  0  0  3  0  0  0  0  0  0
  181.0240  171.3470  135.4390 C   0  0  0  0  0  0  0  0  0  0  0  0
  179.3570  170.1670  134.8060 C   0  0  0  0  0  2  0  0  0  0  0  0
  181.6350  171.1340  136.6760 O   0  0  0  0  0  1  0  0  0  0  0  0
  179.5200  171.4700  135.5670 C   0  0  0  0  0  2  0  0  0  0  0  0
  180.8660  170.0530  134.6680 C   0  0  0  0  0  2  0  0  0  0  0  0
  180.4650  176.3860  135.8020 C   0  0  0  0  0  2  0  0  0  0  0  0
  179.9810  177.7710  137.7900 C   0  0  0  0  0  1  0  0  0  0  0  0
  181.2100  178.6510  135.9590 O   0  0  0  0  0  1  0  0  0  0  0  0
  180.1590  177.7930  136.2860 C   0  0  1  0  0  3  0  0  0  0  0  0
  189.1030  176.8140  140.6650 O   0  0  0  0  0  0  0  0  0  0  0  0
  187.8050  178.6260  139.9350 N   0  0  0  0  0  2  0  0  0  0  0  0
  188.4290  177.8380  140.9600 C   0  0  0  0  0  0  0  0  0  0  0  0
  188.3680  177.3040  143.3400 C   0  0  0  0  0  3  0  0  0  0  0  0
  188.2830  178.2070  142.3690 C   0  0  0  0  0  3  0  0  0  0  0  0
  188.2060  177.7060  144.7700 C   0  0  0  0  0  2  0  0  0  0  0  0
  189.4930  177.5170  145.5720 C   0  0  0  0  0  0  0  0  0  0  0  0
  190.5710  176.8350  144.7510 C   0  0  0  0  0  2  0  0  0  0  0  0
  190.6910  178.3130  145.0940 C   0  0  0  0  0  2  0  0  0  0  0  0
  188.4020  176.2770  147.3400 F   0  0  0  0  0  0  0  0  0  0  0  0
  190.7470  176.3820  147.4400 C   0  0  0  0  0  1  0  0  0  0  0  0
  189.3360  178.3500  147.9380 C   0  0  0  0  0  1  0  0  0  0  0  0
  189.4710  177.1160  147.0640 C   0  0  0  0  0  0  0  0  0  0  0  0
  184.9690  179.0540  138.2750 O   0  0  0  0  0  0  0  0  0  0  0  0
  184.3650  179.4100  139.5100 C   0  0  0  0  0  1  0  0  0  0  0  0
  189.5860  175.8760  136.5640 N   0  0  0  0  0  2  0  0  0  0  0  0
  191.8470  173.4710  134.8080 C   0  0  0  0  0  2  0  0  0  0  0  0
  192.3410  174.5840  135.6990 C   0  0  0  0  0  0  0  0  0  0  0  0
  192.7660  174.2160  136.9870 O   0  0  0  0  0  0  0  0  0  0  0  0
  191.8060  175.9930  135.4860 C   0  0  0  0  0  2  0  0  0  0  0  0
  191.5380  175.9500  137.9120 O   0  0  0  0  0  0  0  0  0  0  0  0
  191.7170  174.5500  137.8620 C   0  0  0  0  0  2  0  0  0  0  0  0
  193.2350  174.0700  134.6000 C   0  0  0  0  0  2  0  0  0  0  0  0
  190.9530  176.3750  136.6970 C   0  0  2  0  0  3  0  0  0  0  0  0
  1  6  1  0  0  0  0
  2  4  2  0  0  0  0
  2 41  1  0  0  0  0
  3 43  1  6  0  0  0
  3  1  1  0  0  0  0
  4  6  1  0  0  0  0
  5  3  1  0  0  0  0
  5  4  1  0  0  0  0
  6 29  1  1  0  0  0
  7 14  1  6  0  0  0
  7 10  1  0  0  0  0
  7 13  1  0  0  0  0
  9 16  1  6  0  0  0
  9  7  1  0  0  0  0
  9 10  1  0  0  0  0
 11  2  1  0  0  0  0
 11  8  2  0  0  0  0
 12 11  1  0  0  0  0
 13  8  1  0  0  0  0
 14 12  2  0  0  0  0
 15 12  1  0  0  0  0
 18 17  1  1  0  0  0
 18 16  1  0  0  0  0
 18 19  1  0  0  0  0
 19 22  1  0  0  0  0
 19 21  1  0  0  0  0
 20 22  1  0  0  0  0
 23 20  1  0  0  0  0
 23 19  1  0  0  0  0
 24 27  1  0  0  0  0
 24 10  1  0  0  0  0
 26 27  1  0  0  0  0
 27 25  1  1  0  0  0
 28 30  2  0  0  0  0
 29 30  1  0  0  0  0
 30 32  1  0  0  0  0
 31 33  1  0  0  0  0
 32 31  2  0  0  0  0
 33 34  1  0  0  0  0
 34 40  1  0  0  0  0
 35 36  1  0  0  0  0
 35 34  1  0  0  0  0
 36 34  1  0  0  0  0
 40 37  1  0  0  0  0
 40 38  1  0  0  0  0
 40 39  1  0  0  0  0
 41 42  1  0  0  0  0
 44 45  1  0  0  0  0
 45 46  1  0  0  0  0
 46 49  1  0  0  0  0
 47 45  1  0  0  0  0
 47 51  1  0  0  0  0
 49 48  1  0  0  0  0
 50 44  1  0  0  0  0
 50 45  1  0  0  0  0
 51 43  1  6  0  0  0
 51 48  1  0  0  0  0
M  END
>  <MODEL>
6

>  <REMARK>
 VINA RESULT:      -5.6      3.959     10.877
  Name = 
  14 active torsions:
  status: ('A' for Active; 'I' for Inactive)
    1  A    between atoms: C_9  and  C_15
    2  A    between atoms: C_9  and  C_22
    3  A    between atoms: C_10  and  C_12
    4  A    between atoms: C_10  and  C_27
    5  A    between atoms: C_11  and  O_14
    6  A    between atoms: C_11  and  C_31
    7  A    between atoms: C_15  and  C_37
    8  A    between atoms: C_17  and  C_27
    9  A    between atoms: N_19  and  C_23
   10  A    between atoms: N_19  and  C_44
   11  A    between atoms: N_29  and  C_38
   12  A    between atoms: C_35  and  C_50
   13  A    between atoms: C_38  and  C_45
   14  A    between atoms: N_43  and  C_47
                            x       y       z     vdW  Elec       q    Type
                         _______ _______ _______ _____ _____    ______ ____

>  <TORSDO>
F 14

$$$$
=
 OpenBabel10222420573D

 51 57  0  0  1  0  0  0  0  0999 V2000
  182.1730  177.6400  139.9590 C   0  0  0  0  0  2  0  0  0  0  0  0
  184.4480  177.3320  137.0440 C   0  0  0  0  0  0  0  0  0  0  0  0
  183.5330  177.5060  140.6290 C   0  0  1  0  0  3  0  0  0  0  0  0
  183.8360  177.3770  138.2530 C   0  0  0  0  0  0  0  0  0  0  0  0
  184.5850  177.5170  139.5330 C   0  0  0  0  0  2  0  0  0  0  0  0
  182.3650  177.3400  138.4820 C   0  0  1  0  0  3  0  0  0  0  0  0
  188.7440  177.2550  137.2890 C   0  0  1  0  0  0  0  0  0  0  0  0
  186.6050  178.3800  136.6680 C   0  0  0  0  0  3  0  0  0  0  0  0
  190.2110  177.2610  137.2990 C   0  0  1  0  0  3  0  0  0  0  0  0
  189.4520  177.7240  138.5060 N   0  0  0  0  0  0  0  0  0  0  0  0
  185.9210  177.2650  136.9680 C   0  0  0  0  0  0  0  0  0  0  0  0
  186.6300  175.9890  137.2600 C   0  0  0  0  0  0  0  0  0  0  0  0
  188.1000  178.3940  136.5080 C   0  0  0  0  0  2  0  0  0  0  0  0
  187.9570  175.9640  137.3900 C   0  0  0  0  0  3  0  0  0  0  0  0
  185.8780  174.7060  137.3700 C   0  0  0  0  0  1  0  0  0  0  0  0
  190.8290  175.8510  137.3930 C   0  0  0  0  0  2  0  0  0  0  0  0
  191.3540  176.3820  134.9790 C   0  0  0  0  0  1  0  0  0  0  0  0
  191.6890  175.5000  136.1740 C   0  0  1  0  0  3  0  0  0  0  0  0
  193.1940  175.4770  136.4720 C   0  0  0  0  0  0  0  0  0  0  0  0
  194.3810  173.7050  136.6160 C   0  0  0  0  0  2  0  0  0  0  0  0
  193.7570  176.7440  136.6370 O   0  0  0  0  0  1  0  0  0  0  0  0
  193.5770  174.5390  137.5970 C   0  0  0  0  0  2  0  0  0  0  0  0
  193.9840  174.6420  135.4870 C   0  0  0  0  0  2  0  0  0  0  0  0
  189.4570  176.7350  139.5920 C   0  0  0  0  0  2  0  0  0  0  0  0
  189.8680  177.4030  141.9350 C   0  0  0  0  0  1  0  0  0  0  0  0
  188.3330  178.6010  140.5750 O   0  0  0  0  0  1  0  0  0  0  0  0
  188.8230  177.3210  140.8420 C   0  0  1  0  0  3  0  0  0  0  0  0
  179.5210  176.6150  138.2470 O   0  0  0  0  0  0  0  0  0  0  0  0
  181.7910  176.0380  138.1340 N   0  0  0  0  0  2  0  0  0  0  0  0
  180.3920  175.7350  138.0130 C   0  0  0  0  0  0  0  0  0  0  0  0
  180.7960  173.3640  137.6060 C   0  0  0  0  0  3  0  0  0  0  0  0
  179.9560  174.3930  137.6240 C   0  0  0  0  0  3  0  0  0  0  0  0
  180.3270  172.0060  137.1970 C   0  0  0  0  0  2  0  0  0  0  0  0
  181.1760  171.4160  136.0710 C   0  0  0  0  0  0  0  0  0  0  0  0
  180.4230  170.3520  135.2960 C   0  0  0  0  0  2  0  0  0  0  0  0
  180.7000  171.7090  134.6630 C   0  0  0  0  0  2  0  0  0  0  0  0
  183.0410  171.1660  137.5930 F   0  0  0  0  0  0  0  0  0  0  0  0
  183.0390  169.7570  135.7130 C   0  0  0  0  0  1  0  0  0  0  0  0
  183.5090  172.1780  135.5240 C   0  0  0  0  0  1  0  0  0  0  0  0
  182.6840  171.1330  136.2540 C   0  0  0  0  0  0  0  0  0  0  0  0
  183.7630  177.3540  135.8170 O   0  0  0  0  0  0  0  0  0  0  0  0
  183.6070  176.2420  134.9470 C   0  0  0  0  0  1  0  0  0  0  0  0
  183.7450  178.6230  141.5390 N   0  0  0  0  0  2  0  0  0  0  0  0
  183.4730  178.6270  145.2680 C   0  0  0  0  0  2  0  0  0  0  0  0
  184.7810  178.7430  144.5250 C   0  0  0  0  0  0  0  0  0  0  0  0
  185.3500  180.0260  144.4550 O   0  0  0  0  0  0  0  0  0  0  0  0
  185.0920  177.7480  143.4160 C   0  0  0  0  0  2  0  0  0  0  0  0
  185.7280  179.7570  142.1840 O   0  0  0  0  0  0  0  0  0  0  0  0
  185.0620  180.5180  143.1690 C   0  0  0  0  0  2  0  0  0  0  0  0
  184.7740  178.1640  145.9170 C   0  0  0  0  0  2  0  0  0  0  0  0
  185.0960  178.4960  142.0820 C   0  0  2  0  0  3  0  0  0  0  0  0
  1  3  1  0  0  0  0
  2  4  2  0  0  0  0
  3 43  1  1  0  0  0
  4  6  1  0  0  0  0
  4  5  1  0  0  0  0
  5  3  1  0  0  0  0
  6 29  1  1  0  0  0
  6  1  1  0  0  0  0
  7 13  1  6  0  0  0
  7  9  1  0  0  0  0
  7 14  1  0  0  0  0
  7 10  1  0  0  0  0
  8 11  2  0  0  0  0
  9 16  1  1  0  0  0
  9 10  1  0  0  0  0
 10 24  1  0  0  0  0
 11  2  1  0  0  0  0
 11 12  1  0  0  0  0
 12 15  1  0  0  0  0
 12 14  2  0  0  0  0
 13  8  1  0  0  0  0
 18 17  1  6  0  0  0
 18 19  1  0  0  0  0
 18 16  1  0  0  0  0
 19 21  1  0  0  0  0
 19 22  1  0  0  0  0
 20 22  1  0  0  0  0
 23 19  1  0  0  0  0
 23 20  1  0  0  0  0
 24 27  1  0  0  0  0
 26 27  1  0  0  0  0
 27 25  1  1  0  0  0
 30 29  1  0  0  0  0
 30 28  2  0  0  0  0
 31 32  2  0  0  0  0
 32 30  1  0  0  0  0
 33 31  1  0  0  0  0
 34 40  1  0  0  0  0
 34 33  1  0  0  0  0
 35 34  1  0  0  0  0
 36 35  1  0  0  0  0
 36 34  1  0  0  0  0
 38 40  1  0  0  0  0
 39 40  1  0  0  0  0
 40 37  1  0  0  0  0
 41  2  1  0  0  0  0
 42 41  1  0  0  0  0
 44 50  1  0  0  0  0
 45 44  1  0  0  0  0
 45 50  1  0  0  0  0
 46 45  1  0  0  0  0
 47 45  1  0  0  0  0
 48 49  1  0  0  0  0
 49 46  1  0  0  0  0
 51 43  1  1  0  0  0
 51 48  1  0  0  0  0
 51 47  1  0  0  0  0
M  END
>  <MODEL>
7

>  <REMARK>
 VINA RESULT:      -5.6      3.667      6.311
  Name = 
  14 active torsions:
  status: ('A' for Active; 'I' for Inactive)
    1  A    between atoms: C_9  and  C_15
    2  A    between atoms: C_9  and  C_22
    3  A    between atoms: C_10  and  C_12
    4  A    between atoms: C_10  and  C_27
    5  A    between atoms: C_11  and  O_14
    6  A    between atoms: C_11  and  C_31
    7  A    between atoms: C_15  and  C_37
    8  A    between atoms: C_17  and  C_27
    9  A    between atoms: N_19  and  C_23
   10  A    between atoms: N_19  and  C_44
   11  A    between atoms: N_29  and  C_38
   12  A    between atoms: C_35  and  C_50
   13  A    between atoms: C_38  and  C_45
   14  A    between atoms: N_43  and  C_47
                            x       y       z     vdW  Elec       q    Type
                         _______ _______ _______ _____ _____    ______ ____

>  <TORSDO>
F 14

$$$$
=
 OpenBabel10222420573D

 51 57  0  0  1  0  0  0  0  0999 V2000
  189.4390  177.7710  138.7200 C   0  0  0  0  0  2  0  0  0  0  0  0
  185.8450  178.3170  139.4640 C   0  0  0  0  0  0  0  0  0  0  0  0
  188.7800  176.6170  137.9780 C   0  0  1  0  0  3  0  0  0  0  0  0
  187.0740  177.8810  139.0920 C   0  0  0  0  0  0  0  0  0  0  0  0
  187.2760  176.8050  138.0820 C   0  0  0  0  0  2  0  0  0  0  0  0
  188.3720  178.4210  139.5840 C   0  0  1  0  0  3  0  0  0  0  0  0
  182.1030  176.7010  138.0820 C   0  0  1  0  0  0  0  0  0  0  0  0
  183.7890  177.0950  139.8800 C   0  0  0  0  0  3  0  0  0  0  0  0
  180.8440  176.0840  137.6530 C   0  0  1  0  0  3  0  0  0  0  0  0
  180.8630  177.5160  138.0980 N   0  0  0  0  0  0  0  0  0  0  0  0
  184.6390  177.6170  138.9810 C   0  0  0  0  0  0  0  0  0  0  0  0
  184.3560  177.5310  137.5230 C   0  0  0  0  0  0  0  0  0  0  0  0
  182.5690  176.3120  139.4790 C   0  0  0  0  0  2  0  0  0  0  0  0
  183.1790  177.0810  137.0840 C   0  0  0  0  0  3  0  0  0  0  0  0
  185.3940  177.9050  136.5200 C   0  0  0  0  0  1  0  0  0  0  0  0
  180.7620  175.8530  136.1300 C   0  0  0  0  0  2  0  0  0  0  0  0
  179.7850  174.1000  134.5940 C   0  0  0  0  0  1  0  0  0  0  0  0
  180.7280  174.3670  135.7590 C   0  0  1  0  0  3  0  0  0  0  0  0
  182.1180  173.7610  135.5270 C   0  0  0  0  0  0  0  0  0  0  0  0
  182.7660  171.8690  136.2830 C   0  0  0  0  0  2  0  0  0  0  0  0
  182.9600  174.5580  134.7480 O   0  0  0  0  0  1  0  0  0  0  0  0
  182.7990  173.2970  136.7980 C   0  0  0  0  0  2  0  0  0  0  0  0
  182.0720  172.3370  135.0160 C   0  0  0  0  0  2  0  0  0  0  0  0
  180.7730  178.4580  136.9760 C   0  0  0  0  0  2  0  0  0  0  0  0
  181.7980  180.3100  138.2500 C   0  0  0  0  0  1  0  0  0  0  0  0
  180.3460  180.7420  136.4200 O   0  0  0  0  0  1  0  0  0  0  0  0
  180.5640  179.8720  137.4900 C   0  0  1  0  0  3  0  0  0  0  0  0
  190.7580  177.2400  140.8410 O   0  0  0  0  0  0  0  0  0  0  0  0
  188.5880  178.1150  141.0010 N   0  0  0  0  0  2  0  0  0  0  0  0
  189.7800  177.5540  141.5720 C   0  0  0  0  0  0  0  0  0  0  0  0
  188.9220  177.7360  143.8490 C   0  0  0  0  0  3  0  0  0  0  0  0
  189.8740  177.3290  143.0160 C   0  0  0  0  0  3  0  0  0  0  0  0
  189.0480  177.5000  145.3190 C   0  0  0  0  0  2  0  0  0  0  0  0
  187.7210  177.7030  146.0510 C   0  0  0  0  0  0  0  0  0  0  0  0
  186.6500  178.2540  145.1300 C   0  0  0  0  0  2  0  0  0  0  0  0
  186.5810  176.8100  145.6070 C   0  0  0  0  0  2  0  0  0  0  0  0
  188.7860  178.9990  147.7940 F   0  0  0  0  0  0  0  0  0  0  0  0
  186.4420  179.1230  147.6930 C   0  0  0  0  0  1  0  0  0  0  0  0
  187.6040  177.0890  148.4860 C   0  0  0  0  0  1  0  0  0  0  0  0
  187.6640  178.2400  147.4980 C   0  0  0  0  0  0  0  0  0  0  0  0
  185.6270  179.4290  140.2970 O   0  0  0  0  0  0  0  0  0  0  0  0
  185.4690  179.3760  141.7070 C   0  0  0  0  0  1  0  0  0  0  0  0
  189.1920  176.6300  136.5820 N   0  0  0  0  0  2  0  0  0  0  0  0
  192.7620  176.1900  137.6050 C   0  0  0  0  0  2  0  0  0  0  0  0
  192.0110  175.2020  136.7480 C   0  0  0  0  0  0  0  0  0  0  0  0
  192.2920  175.2240  135.3720 O   0  0  0  0  0  0  0  0  0  0  0  0
  190.6390  174.7250  137.2010 C   0  0  0  0  0  2  0  0  0  0  0  0
  190.0260  175.1950  134.8850 O   0  0  0  0  0  0  0  0  0  0  0  0
  191.2320  175.9180  134.7600 C   0  0  0  0  0  2  0  0  0  0  0  0
  193.1630  174.7180  137.5900 C   0  0  0  0  0  2  0  0  0  0  0  0
  189.5910  175.2690  136.2290 C   0  0  2  0  0  3  0  0  0  0  0  0
  1  6  1  0  0  0  0
  2 41  1  0  0  0  0
  3 43  1  6  0  0  0
  3  5  1  0  0  0  0
  3  1  1  0  0  0  0
  4  2  2  0  0  0  0
  4  6  1  0  0  0  0
  5  4  1  0  0  0  0
  6 29  1  1  0  0  0
  7 14  1  6  0  0  0
  7 10  1  0  0  0  0
  7 13  1  0  0  0  0
  9 16  1  6  0  0  0
  9  7  1  0  0  0  0
  9 10  1  0  0  0  0
 11  2  1  0  0  0  0
 11  8  2  0  0  0  0
 12 11  1  0  0  0  0
 13  8  1  0  0  0  0
 14 12  2  0  0  0  0
 15 12  1  0  0  0  0
 18 17  1  6  0  0  0
 18 16  1  0  0  0  0
 19 18  1  0  0  0  0
 19 22  1  0  0  0  0
 20 22  1  0  0  0  0
 21 19  1  0  0  0  0
 23 19  1  0  0  0  0
 23 20  1  0  0  0  0
 24 27  1  0  0  0  0
 24 10  1  0  0  0  0
 26 27  1  0  0  0  0
 27 25  1  6  0  0  0
 28 30  2  0  0  0  0
 29 30  1  0  0  0  0
 30 32  1  0  0  0  0
 31 33  1  0  0  0  0
 32 31  2  0  0  0  0
 33 34  1  0  0  0  0
 34 40  1  0  0  0  0
 35 36  1  0  0  0  0
 35 34  1  0  0  0  0
 36 34  1  0  0  0  0
 40 38  1  0  0  0  0
 40 37  1  0  0  0  0
 40 39  1  0  0  0  0
 41 42  1  0  0  0  0
 45 47  1  0  0  0  0
 45 50  1  0  0  0  0
 45 44  1  0  0  0  0
 46 45  1  0  0  0  0
 48 51  1  0  0  0  0
 49 48  1  0  0  0  0
 49 46  1  0  0  0  0
 50 44  1  0  0  0  0
 51 43  1  1  0  0  0
 51 47  1  0  0  0  0
M  END
>  <MODEL>
8

>  <REMARK>
 VINA RESULT:      -5.5      3.586     10.523
  Name = 
  14 active torsions:
  status: ('A' for Active; 'I' for Inactive)
    1  A    between atoms: C_9  and  C_15
    2  A    between atoms: C_9  and  C_22
    3  A    between atoms: C_10  and  C_12
    4  A    between atoms: C_10  and  C_27
    5  A    between atoms: C_11  and  O_14
    6  A    between atoms: C_11  and  C_31
    7  A    between atoms: C_15  and  C_37
    8  A    between atoms: C_17  and  C_27
    9  A    between atoms: N_19  and  C_23
   10  A    between atoms: N_19  and  C_44
   11  A    between atoms: N_29  and  C_38
   12  A    between atoms: C_35  and  C_50
   13  A    between atoms: C_38  and  C_45
   14  A    between atoms: N_43  and  C_47
                            x       y       z     vdW  Elec       q    Type
                         _______ _______ _______ _____ _____    ______ ____

>  <TORSDO>
F 14

$$$$
=
 OpenBabel10222420573D

 51 57  0  0  1  0  0  0  0  0999 V2000
  179.6590  174.9130  136.3000 C   0  0  0  0  0  2  0  0  0  0  0  0
  182.9350  176.1390  137.5380 C   0  0  0  0  0  0  0  0  0  0  0  0
  180.5730  174.6350  135.1150 C   0  0  1  0  0  3  0  0  0  0  0  0
  181.8650  175.6740  136.8480 C   0  0  0  0  0  0  0  0  0  0  0  0
  181.9920  174.9620  135.5450 C   0  0  0  0  0  2  0  0  0  0  0  0
  180.4450  175.7580  137.2880 C   0  0  1  0  0  3  0  0  0  0  0  0
  187.0100  176.2300  136.1580 C   0  0  1  0  0  0  0  0  0  0  0  0
  184.6690  177.0940  136.1340 C   0  0  0  0  0  3  0  0  0  0  0  0
  188.3720  176.2720  135.6130 C   0  0  1  0  0  3  0  0  0  0  0  0
  188.0420  177.0290  136.8650 N   0  0  0  0  0  0  0  0  0  0  0  0
  184.2800  176.0870  136.9320 C   0  0  0  0  0  0  0  0  0  0  0  0
  185.1980  174.9560  137.2370 C   0  0  0  0  0  0  0  0  0  0  0  0
  185.9950  177.0970  135.4240 C   0  0  0  0  0  2  0  0  0  0  0  0
  186.4760  174.9970  136.8600 C   0  0  0  0  0  3  0  0  0  0  0  0
  184.6990  173.7350  137.9320 C   0  0  0  0  0  1  0  0  0  0  0  0
  189.1510  174.9550  135.8090 C   0  0  0  0  0  2  0  0  0  0  0  0
  190.9810  176.4930  134.9880 C   0  0  0  0  0  1  0  0  0  0  0  0
  190.6170  175.0670  135.3790 C   0  0  1  0  0  3  0  0  0  0  0  0
  191.6010  174.4790  136.3990 C   0  0  0  0  0  0  0  0  0  0  0  0
  193.6930  174.1980  136.0550 C   0  0  0  0  0  2  0  0  0  0  0  0
  191.0150  174.1380  137.6190 O   0  0  0  0  0  1  0  0  0  0  0  0
  192.4490  173.3520  135.8480 C   0  0  0  0  0  2  0  0  0  0  0  0
  192.8370  175.3310  136.5960 C   0  0  0  0  0  2  0  0  0  0  0  0
  188.5560  176.3740  138.0740 C   0  0  0  0  0  2  0  0  0  0  0  0
  187.8550  178.1390  139.6550 C   0  0  0  0  0  1  0  0  0  0  0  0
  189.7610  176.7920  140.0940 O   0  0  0  0  0  1  0  0  0  0  0  0
  189.0470  177.4130  139.0680 C   0  0  1  0  0  3  0  0  0  0  0  0
  179.6820  177.3970  139.6130 O   0  0  0  0  0  0  0  0  0  0  0  0
  179.9580  177.1400  137.2980 N   0  0  0  0  0  2  0  0  0  0  0  0
  179.6150  177.9070  138.4620 C   0  0  0  0  0  0  0  0  0  0  0  0
  179.8550  180.1820  137.6140 C   0  0  0  0  0  3  0  0  0  0  0  0
  179.1710  179.2960  138.3290 C   0  0  0  0  0  3  0  0  0  0  0  0
  179.3840  181.5960  137.5010 C   0  0  0  0  0  2  0  0  0  0  0  0
  179.8050  182.2410  136.1810 C   0  0  0  0  0  0  0  0  0  0  0  0
  180.2600  181.2060  135.1700 C   0  0  0  0  0  2  0  0  0  0  0  0
  178.9310  181.9250  134.9850 C   0  0  0  0  0  2  0  0  0  0  0  0
  181.5040  183.5780  135.0960 F   0  0  0  0  0  0  0  0  0  0  0  0
  179.6470  184.7440  135.9390 C   0  0  0  0  0  1  0  0  0  0  0  0
  181.3580  183.7690  137.4350 C   0  0  0  0  0  1  0  0  0  0  0  0
  180.5910  183.5700  136.1400 C   0  0  0  0  0  0  0  0  0  0  0  0
  182.8580  176.6760  138.8350 O   0  0  0  0  0  0  0  0  0  0  0  0
  183.1510  178.0210  139.1820 C   0  0  0  0  0  1  0  0  0  0  0  0
  180.4730  173.2330  134.7350 N   0  0  0  0  0  2  0  0  0  0  0  0
  183.2320  170.7100  134.6530 C   0  0  0  0  0  2  0  0  0  0  0  0
  182.1140  170.6940  135.6660 C   0  0  0  0  0  0  0  0  0  0  0  0
  181.0950  169.7500  135.4600 O   0  0  0  0  0  0  0  0  0  0  0  0
  181.7770  171.9760  136.4150 C   0  0  0  0  0  2  0  0  0  0  0  0
  179.4840  171.3750  135.8310 O   0  0  0  0  0  0  0  0  0  0  0  0
  180.0110  170.4510  134.9020 C   0  0  0  0  0  2  0  0  0  0  0  0
  183.4420  170.0780  136.0250 C   0  0  0  0  0  2  0  0  0  0  0  0
  180.3940  172.4490  135.9660 C   0  0  2  0  0  3  0  0  0  0  0  0
  1  6  1  0  0  0  0
  2 41  1  0  0  0  0
  3 43  1  1  0  0  0
  3  5  1  0  0  0  0
  3  1  1  0  0  0  0
  4  6  1  0  0  0  0
  4  2  2  0  0  0  0
  5  4  1  0  0  0  0
  6 29  1  6  0  0  0
  7 13  1  6  0  0  0
  7 14  1  0  0  0  0
  7 10  1  0  0  0  0
  8 11  2  0  0  0  0
  9 16  1  1  0  0  0
  9  7  1  0  0  0  0
  9 10  1  0  0  0  0
 10 24  1  0  0  0  0
 11 12  1  0  0  0  0
 11  2  1  0  0  0  0
 12 15  1  0  0  0  0
 13  8  1  0  0  0  0
 14 12  2  0  0  0  0
 18 17  1  1  0  0  0
 18 16  1  0  0  0  0
 18 19  1  0  0  0  0
 19 23  1  0  0  0  0
 19 21  1  0  0  0  0
 20 23  1  0  0  0  0
 22 20  1  0  0  0  0
 22 19  1  0  0  0  0
 24 27  1  0  0  0  0
 27 25  1  1  0  0  0
 27 26  1  0  0  0  0
 29 30  1  0  0  0  0
 30 28  2  0  0  0  0
 31 32  2  0  0  0  0
 32 30  1  0  0  0  0
 33 31  1  0  0  0  0
 34 33  1  0  0  0  0
 35 34  1  0  0  0  0
 36 35  1  0  0  0  0
 36 34  1  0  0  0  0
 37 40  1  0  0  0  0
 38 40  1  0  0  0  0
 40 34  1  0  0  0  0
 40 39  1  0  0  0  0
 41 42  1  0  0  0  0
 44 45  1  0  0  0  0
 44 50  1  0  0  0  0
 45 50  1  0  0  0  0
 45 47  1  0  0  0  0
 46 45  1  0  0  0  0
 48 51  1  0  0  0  0
 49 46  1  0  0  0  0
 49 48  1  0  0  0  0
 51 43  1  6  0  0  0
 51 47  1  0  0  0  0
M  END
>  <MODEL>
9

>  <REMARK>
 VINA RESULT:      -5.5      4.416      8.857
  Name = 
  14 active torsions:
  status: ('A' for Active; 'I' for Inactive)
    1  A    between atoms: C_9  and  C_15
    2  A    between atoms: C_9  and  C_22
    3  A    between atoms: C_10  and  C_12
    4  A    between atoms: C_10  and  C_27
    5  A    between atoms: C_11  and  O_14
    6  A    between atoms: C_11  and  C_31
    7  A    between atoms: C_15  and  C_37
    8  A    between atoms: C_17  and  C_27
    9  A    between atoms: N_19  and  C_23
   10  A    between atoms: N_19  and  C_44
   11  A    between atoms: N_29  and  C_38
   12  A    between atoms: C_35  and  C_50
   13  A    between atoms: C_38  and  C_45
   14  A    between atoms: N_43  and  C_47
                            x       y       z     vdW  Elec       q    Type
                         _______ _______ _______ _____ _____    ______ ____

>  <TORSDO>
F 14

$$$$
