=
 OpenBabel10222415553D

 58 65  0  0  1  0  0  0  0  0999 V2000
  187.8320  178.3610  140.7590 C   0  0  0  0  0  0  0  0  0  0  0  0
  189.6480  176.5670  138.9390 C   0  0  0  0  0  0  0  0  0  0  0  0
  188.6840  177.4280  138.5540 C   0  0  0  0  0  0  0  0  0  0  0  0
  189.6000  176.7210  141.4840 C   0  0  0  0  0  0  0  0  0  0  0  0
  187.7840  178.1640  139.4460 C   0  0  0  0  0  3  0  0  0  0  0  0
  189.9560  176.1830  140.3220 C   0  0  0  0  0  3  0  0  0  0  0  0
  188.8050  177.8630  141.6250 O   0  0  0  0  0  0  0  0  0  0  0  0
  188.1530  173.1660  136.7020 C   0  0  0  0  0  3  0  0  0  0  0  0
  189.9300  174.7350  137.2010 C   0  0  0  0  0  0  0  0  0  0  0  0
  188.6130  174.2930  137.3810 C   0  0  0  0  0  3  0  0  0  0  0  0
  192.1160  174.4170  136.1180 C   0  0  0  0  0  0  0  0  0  0  0  0
  193.8870  176.1400  136.8810 C   0  0  1  0  0  3  0  0  0  0  0  0
  194.8960  175.0100  136.9210 C   0  0  0  0  0  2  0  0  0  0  0  0
  191.7760  176.1940  137.6890 C   0  0  0  0  0  0  0  0  0  0  0  0
  190.7770  174.0090  136.3090 C   0  0  0  0  0  0  0  0  0  0  0  0
  192.5380  175.5570  136.7930 C   0  0  0  0  0  0  0  0  0  0  0  0
  189.0160  172.4780  135.8480 C   0  0  0  0  0  3  0  0  0  0  0  0
  192.5900  177.0880  138.4090 N   0  0  0  0  0  2  0  0  0  0  0  0
  190.4440  175.8440  137.9240 C   0  0  0  0  0  0  0  0  0  0  0  0
  190.2950  172.9060  135.6730 N   0  0  0  0  0  0  0  0  0  0  0  0
  193.3040  173.3820  135.2250 S   0  0  0  0  0  0  0  0  0  0  0  0
  193.9080  176.9280  138.0710 O   0  0  0  0  0  0  0  0  0  0  0  0
  194.8720  174.3040  135.5670 C   0  0  2  0  0  3  0  0  0  0  0  0
  196.0650  173.3660  135.4660 C   0  0  0  0  0  2  0  0  0  0  0  0
  195.6590  171.9230  135.7190 C   0  0  0  0  0  2  0  0  0  0  0  0
  196.5680  171.0190  135.0320 N   0  0  0  0  0  1  0  0  0  0  0  0
  190.1100  176.1000  142.6300 O   0  0  0  0  0  0  0  0  0  0  0  0
  192.1190  175.3770  143.7960 O   0  0  0  0  0  1  0  0  0  0  0  0
  191.8010  177.5500  143.1680 O   0  0  0  0  0  0  0  0  0  0  0  0
  191.3560  176.3750  143.2030 C   0  0  0  0  0  0  0  0  0  0  0  0
  188.4290  177.6790  137.0920 C   0  0  0  0  0  2  0  0  0  0  0  0
  187.0230  177.3440  136.7090 C   0  0  0  0  0  0  0  0  0  0  0  0
  186.0190  177.7320  137.5080 C   0  0  0  0  0  3  0  0  0  0  0  0
  181.9920  177.0010  135.1280 O   0  0  0  0  0  0  0  0  0  0  0  0
  182.4590  176.7770  137.4060 O   0  0  0  0  0  0  0  0  0  0  0  0
  184.6240  177.4980  137.2630 N   0  0  0  0  0  0  0  0  0  0  0  0
  184.0900  177.5090  136.0000 O   0  0  0  0  0  0  0  0  0  0  0  0
  182.7880  177.0870  136.0980 C   0  0  0  0  0  0  0  0  0  0  0  0
  183.6180  177.0060  138.2100 C   0  0  0  0  0  2  0  0  0  0  0  0
  186.6630  175.8780  134.5940 N   0  0  0  0  0  0  0  0  0  0  0  0
  186.8190  176.5320  135.5350 C   0  0  0  0  0  0  0  0  0  0  0  0
  186.5550  179.3920  141.4700 S   0  0  0  0  0  0  0  0  0  0  0  0
  185.4460  177.9810  141.7680 C   0  0  0  0  0  2  0  0  0  0  0  0
  184.4250  178.3360  142.8340 C   0  0  0  0  0  2  0  0  0  0  0  0
  186.7740  178.1060  147.9640 F   0  0  0  0  0  0  0  0  0  0  0  0
  185.0510  178.2700  144.1850 C   0  0  0  0  0  0  0  0  0  0  0  0
  184.9520  178.6770  146.5680 C   0  0  0  0  0  3  0  0  0  0  0  0
  186.9420  177.6710  145.5900 C   0  0  0  0  0  0  0  0  0  0  0  0
  186.2360  178.1440  146.7200 C   0  0  0  0  0  0  0  0  0  0  0  0
  186.3350  177.7410  144.3310 C   0  0  0  0  0  3  0  0  0  0  0  0
  184.3600  178.7410  145.3050 C   0  0  0  0  0  3  0  0  0  0  0  0
  188.2360  177.1380  145.6600 O   0  0  0  0  0  0  0  0  0  0  0  0
  189.4210  177.9210  145.7330 C   0  0  0  0  0  2  0  0  0  0  0  0
  189.7680  178.1920  147.1860 C   0  0  0  0  0  2  0  0  0  0  0  0
  190.4560  176.9840  147.8040 C   0  0  0  0  0  2  0  0  0  0  0  0
  191.7490  176.7700  147.1750 N   0  0  0  0  0  0  0  0  0  0  0  0
  192.5570  176.0030  148.1350 C   0  0  0  0  0  2  0  0  0  0  0  0
  191.9140  175.3140  147.0240 C   0  0  0  0  0  2  0  0  0  0  0  0
  1 42  1  0  0  0  0
  1  7  1  0  0  0  0
  2  6  1  0  0  0  0
  3  2  2  0  0  0  0
  3  5  1  0  0  0  0
  4  7  1  0  0  0  0
  4 27  1  0  0  0  0
  5  1  2  0  0  0  0
  6  4  2  0  0  0  0
  8 10  1  0  0  0  0
  9 10  2  0  0  0  0
  9 19  1  0  0  0  0
 11 15  1  0  0  0  0
 11 16  2  0  0  0  0
 12 13  1  1  0  0  0
 12 22  1  0  0  0  0
 14 19  2  0  0  0  0
 14 18  1  0  0  0  0
 15  9  1  0  0  0  0
 16 12  1  0  0  0  0
 16 14  1  0  0  0  0
 17  8  2  0  0  0  0
 19  2  1  0  0  0  0
 20 17  1  0  0  0  0
 20 15  2  0  0  0  0
 21 23  1  0  0  0  0
 21 11  1  0  0  0  0
 22 18  1  0  0  0  0
 23 24  1  1  0  0  0
 23 13  1  0  0  0  0
 24 25  1  0  0  0  0
 26 25  1  0  0  0  0
 27 30  1  0  0  0  0
 29 30  2  0  0  0  0
 30 28  1  0  0  0  0
 31  3  1  0  0  0  0
 32 31  1  0  0  0  0
 32 33  2  0  0  0  0
 34 38  2  0  0  0  0
 35 39  1  0  0  0  0
 36 33  1  0  0  0  0
 36 39  1  0  0  0  0
 37 38  1  0  0  0  0
 37 36  1  0  0  0  0
 38 35  1  0  0  0  0
 40 41  3  0  0  0  0
 41 32  1  0  0  0  0
 42 43  1  0  0  0  0
 43 44  1  0  0  0  0
 44 46  1  0  0  0  0
 46 50  2  0  0  0  0
 46 51  1  0  0  0  0
 47 49  1  0  0  0  0
 48 52  1  0  0  0  0
 48 49  2  0  0  0  0
 49 45  1  0  0  0  0
 50 48  1  0  0  0  0
 51 47  2  0  0  0  0
 52 53  1  0  0  0  0
 53 54  1  0  0  0  0
 54 55  1  0  0  0  0
 56 55  1  0  0  0  0
 56 57  1  0  0  0  0
 58 56  1  0  0  0  0
 58 57  1  0  0  0  0
M  END
>  <MODEL>
1

>  <REMARK>
 VINA RESULT:      -7.2      0.000      0.000
  Name = 
  18 active torsions:
  status: ('A' for Active; 'I' for Inactive)
    1  A    between atoms: C_2  and  C_26
    2  A    between atoms: C_2  and  O_36
    3  A    between atoms: N_3  and  C_8
    4  A    between atoms: C_7  and  S_31
    5  A    between atoms: C_8  and  C_26
    6  A    between atoms: C_10  and  C_32
    7  A    between atoms: C_10  and  C_37
    8  A    between atoms: C_11  and  C_54
    9  A    between atoms: C_13  and  N_44
   10  A    between atoms: C_19  and  C_29
   11  A    between atoms: C_22  and  C_29
   12  A    between atoms: C_22  and  S_31
   13  A    between atoms: C_23  and  O_47
   14  A    between atoms: C_27  and  C_43
   15  A    between atoms: C_32  and  C_35
   16  A    between atoms: C_33  and  O_36
   17  A    between atoms: C_38  and  O_47
   18  A    between atoms: C_54  and  C_58
                            x       y       z     vdW  Elec       q    Type
                         _______ _______ _______ _____ _____    ______ ____

>  <TORSDO>
F 18

$$$$
=
 OpenBabel10222415553D

 58 65  0  0  1  0  0  0  0  0999 V2000
  187.0250  178.6130  140.7950 C   0  0  0  0  0  0  0  0  0  0  0  0
  189.1850  177.0980  139.1010 C   0  0  0  0  0  0  0  0  0  0  0  0
  189.1400  177.2500  140.4400 C   0  0  0  0  0  0  0  0  0  0  0  0
  187.1280  178.3700  138.2900 C   0  0  0  0  0  0  0  0  0  0  0  0
  188.1700  178.0600  141.1800 C   0  0  0  0  0  3  0  0  0  0  0  0
  188.2880  177.7410  138.1320 C   0  0  0  0  0  3  0  0  0  0  0  0
  186.4750  178.5440  139.5150 O   0  0  0  0  0  0  0  0  0  0  0  0
  188.4520  173.5820  136.6710 C   0  0  0  0  0  3  0  0  0  0  0  0
  189.9950  175.1510  137.6850 C   0  0  0  0  0  0  0  0  0  0  0  0
  188.6840  174.7440  137.4060 C   0  0  0  0  0  3  0  0  0  0  0  0
  192.4090  174.7250  137.4770 C   0  0  0  0  0  0  0  0  0  0  0  0
  193.8590  176.4640  138.7260 C   0  0  1  0  0  3  0  0  0  0  0  0
  194.7420  175.3230  139.1880 C   0  0  0  0  0  2  0  0  0  0  0  0
  191.6020  176.6070  138.7190 C   0  0  0  0  0  0  0  0  0  0  0  0
  191.0760  174.3530  137.1990 C   0  0  0  0  0  0  0  0  0  0  0  0
  192.6080  175.9000  138.1930 C   0  0  0  0  0  0  0  0  0  0  0  0
  189.5350  172.8240  136.2230 C   0  0  0  0  0  3  0  0  0  0  0  0
  192.1410  177.5330  139.6320 N   0  0  0  0  0  2  0  0  0  0  0  0
  190.2620  176.2960  138.4810 C   0  0  0  0  0  0  0  0  0  0  0  0
  190.8090  173.2180  136.4940 N   0  0  0  0  0  0  0  0  0  0  0  0
  193.7960  173.6120  137.1280 S   0  0  0  0  0  0  0  0  0  0  0  0
  193.4860  177.3300  139.7980 O   0  0  0  0  0  0  0  0  0  0  0  0
  195.1740  174.5280  137.9570 C   0  0  2  0  0  3  0  0  0  0  0  0
  196.2870  173.5660  138.3430 C   0  0  0  0  0  2  0  0  0  0  0  0
  197.5880  173.9090  137.6350 C   0  0  0  0  0  2  0  0  0  0  0  0
  198.1230  175.1600  138.1500 N   0  0  0  0  0  1  0  0  0  0  0  0
  186.5220  178.8430  137.1210 O   0  0  0  0  0  0  0  0  0  0  0  0
  185.5470  176.9710  135.9100 O   0  0  0  0  0  1  0  0  0  0  0  0
  186.9400  178.4710  134.8980 O   0  0  0  0  0  0  0  0  0  0  0  0
  186.3560  178.1000  135.9480 C   0  0  0  0  0  0  0  0  0  0  0  0
  190.1680  176.5830  141.3150 C   0  0  0  0  0  2  0  0  0  0  0  0
  190.0800  177.0560  142.7320 C   0  0  0  0  0  0  0  0  0  0  0  0
  189.0390  176.6720  143.4830 C   0  0  0  0  0  3  0  0  0  0  0  0
  186.8060  178.0880  147.4110 O   0  0  0  0  0  0  0  0  0  0  0  0
  188.9200  177.1330  147.1400 O   0  0  0  0  0  0  0  0  0  0  0  0
  188.8300  177.0300  144.8580 N   0  0  0  0  0  0  0  0  0  0  0  0
  187.6450  177.5580  145.3050 O   0  0  0  0  0  0  0  0  0  0  0  0
  187.7150  177.6270  146.6740 C   0  0  0  0  0  0  0  0  0  0  0  0
  189.6830  176.7120  146.0070 C   0  0  0  0  0  2  0  0  0  0  0  0
  191.8780  178.7350  143.5700 N   0  0  0  0  0  0  0  0  0  0  0  0
  191.0800  177.9850  143.1950 C   0  0  0  0  0  0  0  0  0  0  0  0
  186.0860  179.4850  142.0430 S   0  0  0  0  0  0  0  0  0  0  0  0
  185.2580  177.9700  142.6170 C   0  0  0  0  0  2  0  0  0  0  0  0
  184.3010  178.2960  143.7500 C   0  0  0  0  0  2  0  0  0  0  0  0
  179.1750  179.5020  141.7150 F   0  0  0  0  0  0  0  0  0  0  0  0
  182.9520  178.6150  143.2050 C   0  0  0  0  0  0  0  0  0  0  0  0
  180.6430  179.2490  143.5520 C   0  0  0  0  0  3  0  0  0  0  0  0
  181.4710  178.8660  141.2940 C   0  0  0  0  0  0  0  0  0  0  0  0
  180.4180  179.2110  142.1720 C   0  0  0  0  0  0  0  0  0  0  0  0
  182.7310  178.5720  141.8270 C   0  0  0  0  0  3  0  0  0  0  0  0
  181.9050  178.9520  144.0690 C   0  0  0  0  0  3  0  0  0  0  0  0
  181.3190  178.7930  139.9030 O   0  0  0  0  0  0  0  0  0  0  0  0
  181.9370  179.6830  138.9830 C   0  0  0  0  0  2  0  0  0  0  0  0
  183.1770  179.0340  138.3950 C   0  0  0  0  0  2  0  0  0  0  0  0
  182.8570  177.6370  137.8860 C   0  0  0  0  0  2  0  0  0  0  0  0
  183.4110  176.6380  138.7850 N   0  0  0  0  0  0  0  0  0  0  0  0
  182.3350  175.6710  139.0480 C   0  0  0  0  0  2  0  0  0  0  0  0
  183.3670  175.3510  138.0720 C   0  0  0  0  0  2  0  0  0  0  0  0
  1  5  2  0  0  0  0
  1 42  1  0  0  0  0
  2  3  2  0  0  0  0
  3  5  1  0  0  0  0
  3 31  1  0  0  0  0
  4  7  1  0  0  0  0
  6  4  2  0  0  0  0
  6  2  1  0  0  0  0
  7  1  1  0  0  0  0
  8 10  1  0  0  0  0
  9 19  1  0  0  0  0
 10  9  2  0  0  0  0
 11 16  2  0  0  0  0
 12 13  1  1  0  0  0
 12 22  1  0  0  0  0
 14 18  1  0  0  0  0
 15 11  1  0  0  0  0
 15  9  1  0  0  0  0
 16 14  1  0  0  0  0
 16 12  1  0  0  0  0
 17 20  1  0  0  0  0
 17  8  2  0  0  0  0
 18 22  1  0  0  0  0
 19 14  2  0  0  0  0
 19  2  1  0  0  0  0
 20 15  2  0  0  0  0
 21 11  1  0  0  0  0
 21 23  1  0  0  0  0
 23 24  1  1  0  0  0
 23 13  1  0  0  0  0
 25 26  1  0  0  0  0
 25 24  1  0  0  0  0
 27  4  1  0  0  0  0
 28 30  1  0  0  0  0
 29 30  2  0  0  0  0
 30 27  1  0  0  0  0
 31 32  1  0  0  0  0
 32 41  1  0  0  0  0
 32 33  2  0  0  0  0
 33 36  1  0  0  0  0
 36 37  1  0  0  0  0
 36 39  1  0  0  0  0
 37 38  1  0  0  0  0
 38 35  1  0  0  0  0
 38 34  2  0  0  0  0
 39 35  1  0  0  0  0
 41 40  3  0  0  0  0
 42 43  1  0  0  0  0
 43 44  1  0  0  0  0
 45 49  1  0  0  0  0
 46 44  1  0  0  0  0
 46 51  1  0  0  0  0
 47 51  2  0  0  0  0
 48 50  1  0  0  0  0
 48 49  2  0  0  0  0
 49 47  1  0  0  0  0
 50 46  2  0  0  0  0
 52 48  1  0  0  0  0
 53 52  1  0  0  0  0
 54 53  1  0  0  0  0
 55 54  1  0  0  0  0
 55 56  1  0  0  0  0
 56 57  1  0  0  0  0
 58 56  1  0  0  0  0
 58 57  1  0  0  0  0
M  END
>  <MODEL>
2

>  <REMARK>
 VINA RESULT:      -7.2      2.564      6.830
  Name = 
  18 active torsions:
  status: ('A' for Active; 'I' for Inactive)
    1  A    between atoms: C_2  and  C_26
    2  A    between atoms: C_2  and  O_36
    3  A    between atoms: N_3  and  C_8
    4  A    between atoms: C_7  and  S_31
    5  A    between atoms: C_8  and  C_26
    6  A    between atoms: C_10  and  C_32
    7  A    between atoms: C_10  and  C_37
    8  A    between atoms: C_11  and  C_54
    9  A    between atoms: C_13  and  N_44
   10  A    between atoms: C_19  and  C_29
   11  A    between atoms: C_22  and  C_29
   12  A    between atoms: C_22  and  S_31
   13  A    between atoms: C_23  and  O_47
   14  A    between atoms: C_27  and  C_43
   15  A    between atoms: C_32  and  C_35
   16  A    between atoms: C_33  and  O_36
   17  A    between atoms: C_38  and  O_47
   18  A    between atoms: C_54  and  C_58
                            x       y       z     vdW  Elec       q    Type
                         _______ _______ _______ _____ _____    ______ ____

>  <TORSDO>
F 18

$$$$
=
 OpenBabel10222415553D

 58 65  0  0  1  0  0  0  0  0999 V2000
  186.9130  178.5310  140.6950 C   0  0  0  0  0  0  0  0  0  0  0  0
  189.1610  177.0820  139.0570 C   0  0  0  0  0  0  0  0  0  0  0  0
  189.0460  177.1810  140.3970 C   0  0  0  0  0  0  0  0  0  0  0  0
  187.1470  178.3850  138.1910 C   0  0  0  0  0  0  0  0  0  0  0  0
  188.0380  177.9630  141.1170 C   0  0  0  0  0  3  0  0  0  0  0  0
  188.3150  177.7620  138.0690 C   0  0  0  0  0  3  0  0  0  0  0  0
  186.4310  178.5130  139.3860 O   0  0  0  0  0  0  0  0  0  0  0  0
  188.5640  173.5480  136.6160 C   0  0  0  0  0  3  0  0  0  0  0  0
  190.0480  175.1520  137.6640 C   0  0  0  0  0  0  0  0  0  0  0  0
  188.7530  174.7160  137.3540 C   0  0  0  0  0  3  0  0  0  0  0  0
  192.4750  174.7800  137.5120 C   0  0  0  0  0  0  0  0  0  0  0  0
  193.8550  176.5530  138.7930 C   0  0  1  0  0  3  0  0  0  0  0  0
  194.7530  175.4330  139.2770 C   0  0  0  0  0  2  0  0  0  0  0  0
  191.5970  176.6450  138.7330 C   0  0  0  0  0  0  0  0  0  0  0  0
  191.1570  174.3780  137.2030 C   0  0  0  0  0  0  0  0  0  0  0  0
  192.6310  175.9610  138.2310 C   0  0  0  0  0  0  0  0  0  0  0  0
  189.6740  172.8150  136.1950 C   0  0  0  0  0  3  0  0  0  0  0  0
  192.0930  177.5840  139.6570 N   0  0  0  0  0  2  0  0  0  0  0  0
  190.2690  176.3040  138.4640 C   0  0  0  0  0  0  0  0  0  0  0  0
  190.9320  173.2370  136.4950 N   0  0  0  0  0  0  0  0  0  0  0  0
  193.8940  173.6990  137.1980 S   0  0  0  0  0  0  0  0  0  0  0  0
  193.4380  177.4110  139.8540 O   0  0  0  0  0  0  0  0  0  0  0  0
  195.2320  174.6470  138.0570 C   0  0  2  0  0  3  0  0  0  0  0  0
  196.3560  173.7100  138.4710 C   0  0  0  0  0  2  0  0  0  0  0  0
  197.6670  174.0870  137.7980 C   0  0  0  0  0  2  0  0  0  0  0  0
  198.2610  175.2340  138.4650 N   0  0  0  0  0  1  0  0  0  0  0  0
  186.6020  178.9040  137.0110 O   0  0  0  0  0  0  0  0  0  0  0  0
  185.4400  177.0660  135.9190 O   0  0  0  0  0  1  0  0  0  0  0  0
  186.8160  178.4800  134.7690 O   0  0  0  0  0  0  0  0  0  0  0  0
  186.3030  178.1540  135.8690 C   0  0  0  0  0  0  0  0  0  0  0  0
  190.0280  176.4810  141.2980 C   0  0  0  0  0  2  0  0  0  0  0  0
  189.9330  176.9710  142.7090 C   0  0  0  0  0  0  0  0  0  0  0  0
  188.9470  176.5140  143.4920 C   0  0  0  0  0  3  0  0  0  0  0  0
  189.9230  177.4840  148.0230 O   0  0  0  0  0  0  0  0  0  0  0  0
  187.9710  177.8440  146.7910 O   0  0  0  0  0  0  0  0  0  0  0  0
  188.7400  176.8790  144.8650 N   0  0  0  0  0  0  0  0  0  0  0  0
  189.7450  176.8230  145.7980 O   0  0  0  0  0  0  0  0  0  0  0  0
  189.2690  177.3920  146.9530 C   0  0  0  0  0  0  0  0  0  0  0  0
  187.5770  177.5560  145.4480 C   0  0  0  0  0  2  0  0  0  0  0  0
  191.6050  178.8070  143.4760 N   0  0  0  0  0  0  0  0  0  0  0  0
  190.8600  177.9910  143.1310 C   0  0  0  0  0  0  0  0  0  0  0  0
  185.9090  179.3550  141.9240 S   0  0  0  0  0  0  0  0  0  0  0  0
  184.7220  177.9790  142.0160 C   0  0  0  0  0  2  0  0  0  0  0  0
  183.3180  178.4820  141.7320 C   0  0  0  0  0  2  0  0  0  0  0  0
  182.1270  177.8290  136.2510 F   0  0  0  0  0  0  0  0  0  0  0  0
  182.9990  178.3170  140.2860 C   0  0  0  0  0  0  0  0  0  0  0  0
  182.9450  176.9510  138.2890 C   0  0  0  0  0  3  0  0  0  0  0  0
  182.1510  179.2510  138.2080 C   0  0  0  0  0  0  0  0  0  0  0  0
  182.3980  178.0160  137.5670 C   0  0  0  0  0  0  0  0  0  0  0  0
  182.4560  179.3850  139.5670 C   0  0  0  0  0  3  0  0  0  0  0  0
  183.2460  177.0990  139.6450 C   0  0  0  0  0  3  0  0  0  0  0  0
  181.6190  180.3670  137.5480 O   0  0  0  0  0  0  0  0  0  0  0  0
  180.5630  180.3070  136.5990 C   0  0  0  0  0  2  0  0  0  0  0  0
  179.8800  181.6600  136.5040 C   0  0  0  0  0  2  0  0  0  0  0  0
  180.6400  182.6980  137.3150 C   0  0  0  0  0  2  0  0  0  0  0  0
  181.1570  183.7360  136.4380 N   0  0  0  0  0  0  0  0  0  0  0  0
  180.2460  184.8840  136.5700 C   0  0  0  0  0  2  0  0  0  0  0  0
  181.5100  184.8810  137.2940 C   0  0  0  0  0  2  0  0  0  0  0  0
  1  5  2  0  0  0  0
  1 42  1  0  0  0  0
  2  3  2  0  0  0  0
  3  5  1  0  0  0  0
  3 31  1  0  0  0  0
  4  7  1  0  0  0  0
  6  4  2  0  0  0  0
  6  2  1  0  0  0  0
  7  1  1  0  0  0  0
  8 10  1  0  0  0  0
  9 19  1  0  0  0  0
 10  9  2  0  0  0  0
 11 16  2  0  0  0  0
 12 13  1  1  0  0  0
 12 22  1  0  0  0  0
 14 18  1  0  0  0  0
 15 11  1  0  0  0  0
 15  9  1  0  0  0  0
 16 14  1  0  0  0  0
 16 12  1  0  0  0  0
 17 20  1  0  0  0  0
 17  8  2  0  0  0  0
 18 22  1  0  0  0  0
 19 14  2  0  0  0  0
 19  2  1  0  0  0  0
 20 15  2  0  0  0  0
 21 11  1  0  0  0  0
 21 23  1  0  0  0  0
 23 24  1  1  0  0  0
 23 13  1  0  0  0  0
 25 26  1  0  0  0  0
 25 24  1  0  0  0  0
 27  4  1  0  0  0  0
 29 30  2  0  0  0  0
 30 28  1  0  0  0  0
 30 27  1  0  0  0  0
 31 32  1  0  0  0  0
 32 41  1  0  0  0  0
 32 33  2  0  0  0  0
 33 36  1  0  0  0  0
 35 38  1  0  0  0  0
 36 39  1  0  0  0  0
 36 37  1  0  0  0  0
 37 38  1  0  0  0  0
 38 34  2  0  0  0  0
 39 35  1  0  0  0  0
 41 40  3  0  0  0  0
 42 43  1  0  0  0  0
 44 43  1  0  0  0  0
 45 49  1  0  0  0  0
 46 44  1  0  0  0  0
 47 51  2  0  0  0  0
 48 50  1  0  0  0  0
 49 48  2  0  0  0  0
 49 47  1  0  0  0  0
 50 46  2  0  0  0  0
 51 46  1  0  0  0  0
 52 48  1  0  0  0  0
 53 52  1  0  0  0  0
 54 53  1  0  0  0  0
 54 55  1  0  0  0  0
 56 57  1  0  0  0  0
 56 58  1  0  0  0  0
 56 55  1  0  0  0  0
 57 58  1  0  0  0  0
M  END
>  <MODEL>
3

>  <REMARK>
 VINA RESULT:      -7.1      3.327      8.050
  Name = 
  18 active torsions:
  status: ('A' for Active; 'I' for Inactive)
    1  A    between atoms: C_2  and  C_26
    2  A    between atoms: C_2  and  O_36
    3  A    between atoms: N_3  and  C_8
    4  A    between atoms: C_7  and  S_31
    5  A    between atoms: C_8  and  C_26
    6  A    between atoms: C_10  and  C_32
    7  A    between atoms: C_10  and  C_37
    8  A    between atoms: C_11  and  C_54
    9  A    between atoms: C_13  and  N_44
   10  A    between atoms: C_19  and  C_29
   11  A    between atoms: C_22  and  C_29
   12  A    between atoms: C_22  and  S_31
   13  A    between atoms: C_23  and  O_47
   14  A    between atoms: C_27  and  C_43
   15  A    between atoms: C_32  and  C_35
   16  A    between atoms: C_33  and  O_36
   17  A    between atoms: C_38  and  O_47
   18  A    between atoms: C_54  and  C_58
                            x       y       z     vdW  Elec       q    Type
                         _______ _______ _______ _____ _____    ______ ____

>  <TORSDO>
F 18

$$$$
=
 OpenBabel10222415553D

 58 65  0  0  1  0  0  0  0  0999 V2000
  187.0190  178.5510  140.8740 C   0  0  0  0  0  0  0  0  0  0  0  0
  189.2390  177.1110  139.1900 C   0  0  0  0  0  0  0  0  0  0  0  0
  189.1530  177.2140  140.5320 C   0  0  0  0  0  0  0  0  0  0  0  0
  187.1970  178.4000  138.3660 C   0  0  0  0  0  0  0  0  0  0  0  0
  188.1570  177.9920  141.2730 C   0  0  0  0  0  3  0  0  0  0  0  0
  188.3660  177.7840  138.2190 C   0  0  0  0  0  3  0  0  0  0  0  0
  186.5080  178.5260  139.5770 O   0  0  0  0  0  0  0  0  0  0  0  0
  188.6030  173.6370  136.6740 C   0  0  0  0  0  3  0  0  0  0  0  0
  190.1030  175.2070  137.7490 C   0  0  0  0  0  0  0  0  0  0  0  0
  188.8040  174.7870  137.4370 C   0  0  0  0  0  3  0  0  0  0  0  0
  192.5270  174.8200  137.5770 C   0  0  0  0  0  0  0  0  0  0  0  0
  193.9270  176.5530  138.8890 C   0  0  1  0  0  3  0  0  0  0  0  0
  194.8190  175.4160  139.3430 C   0  0  0  0  0  2  0  0  0  0  0  0
  191.6690  176.6640  138.8430 C   0  0  0  0  0  0  0  0  0  0  0  0
  191.2040  174.4350  137.2660 C   0  0  0  0  0  0  0  0  0  0  0  0
  192.6950  175.9830  138.3210 C   0  0  0  0  0  0  0  0  0  0  0  0
  189.7050  172.9050  136.2300 C   0  0  0  0  0  3  0  0  0  0  0  0
  192.1770  177.5780  139.7850 N   0  0  0  0  0  2  0  0  0  0  0  0
  190.3380  176.3380  138.5740 C   0  0  0  0  0  0  0  0  0  0  0  0
  190.9670  173.3120  136.5330 N   0  0  0  0  0  0  0  0  0  0  0  0
  193.9360  173.7360  137.2310 S   0  0  0  0  0  0  0  0  0  0  0  0
  193.5220  177.3900  139.9720 O   0  0  0  0  0  0  0  0  0  0  0  0
  195.2850  174.6540  138.1040 C   0  0  2  0  0  3  0  0  0  0  0  0
  196.4050  173.7000  138.4910 C   0  0  0  0  0  2  0  0  0  0  0  0
  197.7400  174.1530  137.9230 C   0  0  0  0  0  2  0  0  0  0  0  0
  197.5530  175.3150  137.0690 N   0  0  0  0  0  1  0  0  0  0  0  0
  186.6230  178.9120  137.1980 O   0  0  0  0  0  0  0  0  0  0  0  0
  185.3210  177.3030  135.9190 O   0  0  0  0  0  1  0  0  0  0  0  0
  187.1690  178.3260  135.0500 O   0  0  0  0  0  0  0  0  0  0  0  0
  186.3940  178.1780  136.0290 C   0  0  0  0  0  0  0  0  0  0  0  0
  190.1600  176.5220  141.4120 C   0  0  0  0  0  2  0  0  0  0  0  0
  190.1020  177.0230  142.8210 C   0  0  0  0  0  0  0  0  0  0  0  0
  189.1110  176.6060  143.6210 C   0  0  0  0  0  3  0  0  0  0  0  0
  186.9740  178.0720  147.5840 O   0  0  0  0  0  0  0  0  0  0  0  0
  189.0900  177.1320  147.2710 O   0  0  0  0  0  0  0  0  0  0  0  0
  188.9370  176.9880  144.9940 N   0  0  0  0  0  0  0  0  0  0  0  0
  187.7600  177.5130  145.4650 O   0  0  0  0  0  0  0  0  0  0  0  0
  187.8670  177.6070  146.8300 C   0  0  0  0  0  0  0  0  0  0  0  0
  189.8240  176.6970  146.1240 C   0  0  0  0  0  2  0  0  0  0  0  0
  191.8510  178.8010  143.5510 N   0  0  0  0  0  0  0  0  0  0  0  0
  191.0710  178.0120  143.2240 C   0  0  0  0  0  0  0  0  0  0  0  0
  186.0390  179.3720  142.1240 S   0  0  0  0  0  0  0  0  0  0  0  0
  184.7840  178.0540  142.1430 C   0  0  0  0  0  2  0  0  0  0  0  0
  183.4450  178.6160  142.5860 C   0  0  0  0  0  2  0  0  0  0  0  0
  179.7720  178.5540  138.2980 F   0  0  0  0  0  0  0  0  0  0  0  0
  182.4830  178.5990  141.4480 C   0  0  0  0  0  0  0  0  0  0  0  0
  180.2550  178.9660  140.5760 C   0  0  0  0  0  3  0  0  0  0  0  0
  182.0200  178.1650  139.1010 C   0  0  0  0  0  0  0  0  0  0  0  0
  180.6790  178.5620  139.3060 C   0  0  0  0  0  0  0  0  0  0  0  0
  182.9090  178.1900  140.1830 C   0  0  0  0  0  3  0  0  0  0  0  0
  181.1530  178.9850  141.6450 C   0  0  0  0  0  3  0  0  0  0  0  0
  182.5150  177.7340  137.8640 O   0  0  0  0  0  0  0  0  0  0  0  0
  182.0310  176.5970  137.1610 C   0  0  0  0  0  2  0  0  0  0  0  0
  182.2060  175.3530  138.0150 C   0  0  0  0  0  2  0  0  0  0  0  0
  183.6520  174.8820  137.9790 C   0  0  0  0  0  2  0  0  0  0  0  0
  183.7450  173.6120  137.2780 N   0  0  0  0  0  0  0  0  0  0  0  0
  184.9250  173.7050  136.4040 C   0  0  0  0  0  2  0  0  0  0  0  0
  185.0240  172.9990  137.6740 C   0  0  0  0  0  2  0  0  0  0  0  0
  1  5  2  0  0  0  0
  1 42  1  0  0  0  0
  2  3  2  0  0  0  0
  3  5  1  0  0  0  0
  3 31  1  0  0  0  0
  4  7  1  0  0  0  0
  6  4  2  0  0  0  0
  6  2  1  0  0  0  0
  7  1  1  0  0  0  0
  8 10  1  0  0  0  0
  9 19  1  0  0  0  0
 10  9  2  0  0  0  0
 11 16  2  0  0  0  0
 12 13  1  1  0  0  0
 12 22  1  0  0  0  0
 14 18  1  0  0  0  0
 15 11  1  0  0  0  0
 15  9  1  0  0  0  0
 16 14  1  0  0  0  0
 16 12  1  0  0  0  0
 17 20  1  0  0  0  0
 17  8  2  0  0  0  0
 18 22  1  0  0  0  0
 19 14  2  0  0  0  0
 19  2  1  0  0  0  0
 20 15  2  0  0  0  0
 21 11  1  0  0  0  0
 21 23  1  0  0  0  0
 23 24  1  1  0  0  0
 23 13  1  0  0  0  0
 25 24  1  0  0  0  0
 26 25  1  0  0  0  0
 27  4  1  0  0  0  0
 28 30  1  0  0  0  0
 29 30  2  0  0  0  0
 30 27  1  0  0  0  0
 31 32  1  0  0  0  0
 32 41  1  0  0  0  0
 32 33  2  0  0  0  0
 33 36  1  0  0  0  0
 36 37  1  0  0  0  0
 36 39  1  0  0  0  0
 37 38  1  0  0  0  0
 38 35  1  0  0  0  0
 38 34  2  0  0  0  0
 39 35  1  0  0  0  0
 41 40  3  0  0  0  0
 42 43  1  0  0  0  0
 43 44  1  0  0  0  0
 45 49  1  0  0  0  0
 46 51  1  0  0  0  0
 46 44  1  0  0  0  0
 47 51  2  0  0  0  0
 48 49  2  0  0  0  0
 48 50  1  0  0  0  0
 49 47  1  0  0  0  0
 50 46  2  0  0  0  0
 52 48  1  0  0  0  0
 53 52  1  0  0  0  0
 53 54  1  0  0  0  0
 55 54  1  0  0  0  0
 56 58  1  0  0  0  0
 56 55  1  0  0  0  0
 57 56  1  0  0  0  0
 57 58  1  0  0  0  0
M  END
>  <MODEL>
4

>  <REMARK>
 VINA RESULT:      -7.1      2.707      7.166
  Name = 
  18 active torsions:
  status: ('A' for Active; 'I' for Inactive)
    1  A    between atoms: C_2  and  C_26
    2  A    between atoms: C_2  and  O_36
    3  A    between atoms: N_3  and  C_8
    4  A    between atoms: C_7  and  S_31
    5  A    between atoms: C_8  and  C_26
    6  A    between atoms: C_10  and  C_32
    7  A    between atoms: C_10  and  C_37
    8  A    between atoms: C_11  and  C_54
    9  A    between atoms: C_13  and  N_44
   10  A    between atoms: C_19  and  C_29
   11  A    between atoms: C_22  and  C_29
   12  A    between atoms: C_22  and  S_31
   13  A    between atoms: C_23  and  O_47
   14  A    between atoms: C_27  and  C_43
   15  A    between atoms: C_32  and  C_35
   16  A    between atoms: C_33  and  O_36
   17  A    between atoms: C_38  and  O_47
   18  A    between atoms: C_54  and  C_58
                            x       y       z     vdW  Elec       q    Type
                         _______ _______ _______ _____ _____    ______ ____

>  <TORSDO>
F 18

$$$$
=
 OpenBabel10222415553D

 58 65  0  0  1  0  0  0  0  0999 V2000
  187.6570  178.5810  140.8080 C   0  0  0  0  0  0  0  0  0  0  0  0
  189.4710  176.8930  138.8870 C   0  0  0  0  0  0  0  0  0  0  0  0
  189.6060  177.0600  140.2180 C   0  0  0  0  0  0  0  0  0  0  0  0
  187.4270  178.3060  138.3140 C   0  0  0  0  0  0  0  0  0  0  0  0
  188.7990  177.9490  141.0580 C   0  0  0  0  0  3  0  0  0  0  0  0
  188.5090  177.5910  138.0250 C   0  0  0  0  0  3  0  0  0  0  0  0
  186.9480  178.5420  139.6070 O   0  0  0  0  0  0  0  0  0  0  0  0
  188.1740  173.4830  136.5430 C   0  0  0  0  0  3  0  0  0  0  0  0
  189.9490  174.8980  137.3890 C   0  0  0  0  0  0  0  0  0  0  0  0
  188.5850  174.6110  137.2510 C   0  0  0  0  0  3  0  0  0  0  0  0
  192.2800  174.2630  136.9210 C   0  0  0  0  0  0  0  0  0  0  0  0
  194.0040  175.8540  138.0110 C   0  0  1  0  0  3  0  0  0  0  0  0
  194.8260  174.6340  138.3730 C   0  0  0  0  0  2  0  0  0  0  0  0
  191.7810  176.1950  138.2470 C   0  0  0  0  0  0  0  0  0  0  0  0
  190.8970  174.0130  136.7870 C   0  0  0  0  0  0  0  0  0  0  0  0
  192.6580  175.4080  137.6140 C   0  0  0  0  0  0  0  0  0  0  0  0
  189.1310  172.6380  135.9800 C   0  0  0  0  0  3  0  0  0  0  0  0
  192.4940  177.0590  139.0980 N   0  0  0  0  0  2  0  0  0  0  0  0
  190.4000  176.0060  138.1530 C   0  0  0  0  0  0  0  0  0  0  0  0
  190.4560  172.9150  136.1140 N   0  0  0  0  0  0  0  0  0  0  0  0
  193.5170  173.0370  136.4230 S   0  0  0  0  0  0  0  0  0  0  0  0
  193.8250  176.7360  139.1180 O   0  0  0  0  0  0  0  0  0  0  0  0
  195.0520  173.8190  137.1010 C   0  0  2  0  0  3  0  0  0  0  0  0
  196.1100  172.7580  137.3640 C   0  0  0  0  0  2  0  0  0  0  0  0
  195.5720  171.3610  137.0970 C   0  0  0  0  0  2  0  0  0  0  0  0
  195.4530  170.6230  138.3440 N   0  0  0  0  0  1  0  0  0  0  0  0
  186.7150  178.8120  137.2210 O   0  0  0  0  0  0  0  0  0  0  0  0
  185.4500  177.0570  136.1080 O   0  0  0  0  0  1  0  0  0  0  0  0
  186.9380  178.3740  134.9820 O   0  0  0  0  0  0  0  0  0  0  0  0
  186.3860  178.0840  136.0740 C   0  0  0  0  0  0  0  0  0  0  0  0
  190.6840  176.3280  140.9710 C   0  0  0  0  0  2  0  0  0  0  0  0
  190.4130  176.3000  142.4420 C   0  0  0  0  0  0  0  0  0  0  0  0
  191.4010  176.6110  143.2930 C   0  0  0  0  0  3  0  0  0  0  0  0
  192.3490  175.7160  147.8440 O   0  0  0  0  0  0  0  0  0  0  0  0
  190.9220  177.2970  146.8840 O   0  0  0  0  0  0  0  0  0  0  0  0
  191.2850  176.6430  144.7230 N   0  0  0  0  0  0  0  0  0  0  0  0
  192.0560  175.8560  145.5390 O   0  0  0  0  0  0  0  0  0  0  0  0
  191.8220  176.2470  146.8340 C   0  0  0  0  0  0  0  0  0  0  0  0
  190.5490  177.6130  145.5410 C   0  0  0  0  0  2  0  0  0  0  0  0
  188.0780  175.4820  143.2370 N   0  0  0  0  0  0  0  0  0  0  0  0
  189.1170  175.8460  142.8790 C   0  0  0  0  0  0  0  0  0  0  0  0
  186.9490  179.5340  142.1450 S   0  0  0  0  0  0  0  0  0  0  0  0
  186.0500  178.1020  142.8180 C   0  0  0  0  0  2  0  0  0  0  0  0
  185.0220  178.5630  143.8360 C   0  0  0  0  0  2  0  0  0  0  0  0
  179.9200  178.9400  141.4480 F   0  0  0  0  0  0  0  0  0  0  0  0
  183.6800  178.6630  143.1970 C   0  0  0  0  0  0  0  0  0  0  0  0
  181.2940  179.0330  143.3700 C   0  0  0  0  0  3  0  0  0  0  0  0
  182.2960  178.5610  141.2010 C   0  0  0  0  0  0  0  0  0  0  0  0
  181.1590  178.8470  141.9910 C   0  0  0  0  0  0  0  0  0  0  0  0
  183.5480  178.4720  141.8200 C   0  0  0  0  0  3  0  0  0  0  0  0
  182.5500  178.9410  143.9740 C   0  0  0  0  0  3  0  0  0  0  0  0
  182.2380  178.3480  139.8180 O   0  0  0  0  0  0  0  0  0  0  0  0
  181.6550  177.2030  139.2090 C   0  0  0  0  0  2  0  0  0  0  0  0
  182.4620  175.9660  139.5620 C   0  0  0  0  0  2  0  0  0  0  0  0
  183.1470  175.4060  138.3260 C   0  0  0  0  0  2  0  0  0  0  0  0
  182.1870  174.6880  137.5040 N   0  0  0  0  0  0  0  0  0  0  0  0
  182.6460  174.8230  136.1130 C   0  0  0  0  0  2  0  0  0  0  0  0
  182.9210  173.5950  136.8460 C   0  0  0  0  0  2  0  0  0  0  0  0
  1  5  2  0  0  0  0
  1 42  1  0  0  0  0
  2  3  2  0  0  0  0
  3 31  1  0  0  0  0
  3  5  1  0  0  0  0
  4  7  1  0  0  0  0
  6  4  2  0  0  0  0
  6  2  1  0  0  0  0
  7  1  1  0  0  0  0
  8 10  1  0  0  0  0
  9 19  1  0  0  0  0
 10  9  2  0  0  0  0
 11 16  2  0  0  0  0
 12 13  1  1  0  0  0
 12 22  1  0  0  0  0
 14 18  1  0  0  0  0
 15 11  1  0  0  0  0
 15  9  1  0  0  0  0
 16 12  1  0  0  0  0
 16 14  1  0  0  0  0
 17 20  1  0  0  0  0
 17  8  2  0  0  0  0
 18 22  1  0  0  0  0
 19 14  2  0  0  0  0
 19  2  1  0  0  0  0
 20 15  2  0  0  0  0
 21 11  1  0  0  0  0
 21 23  1  0  0  0  0
 23 24  1  1  0  0  0
 23 13  1  0  0  0  0
 25 24  1  0  0  0  0
 25 26  1  0  0  0  0
 27  4  1  0  0  0  0
 29 30  2  0  0  0  0
 30 28  1  0  0  0  0
 30 27  1  0  0  0  0
 31 32  1  0  0  0  0
 32 41  1  0  0  0  0
 32 33  2  0  0  0  0
 33 36  1  0  0  0  0
 36 37  1  0  0  0  0
 36 39  1  0  0  0  0
 37 38  1  0  0  0  0
 38 35  1  0  0  0  0
 38 34  2  0  0  0  0
 39 35  1  0  0  0  0
 41 40  3  0  0  0  0
 42 43  1  0  0  0  0
 43 44  1  0  0  0  0
 45 49  1  0  0  0  0
 46 44  1  0  0  0  0
 46 51  1  0  0  0  0
 47 51  2  0  0  0  0
 48 50  1  0  0  0  0
 48 49  2  0  0  0  0
 49 47  1  0  0  0  0
 50 46  2  0  0  0  0
 52 48  1  0  0  0  0
 53 54  1  0  0  0  0
 53 52  1  0  0  0  0
 55 54  1  0  0  0  0
 56 55  1  0  0  0  0
 57 58  1  0  0  0  0
 57 56  1  0  0  0  0
 58 56  1  0  0  0  0
M  END
>  <MODEL>
5

>  <REMARK>
 VINA RESULT:      -7.0      2.347      7.124
  Name = 
  18 active torsions:
  status: ('A' for Active; 'I' for Inactive)
    1  A    between atoms: C_2  and  C_26
    2  A    between atoms: C_2  and  O_36
    3  A    between atoms: N_3  and  C_8
    4  A    between atoms: C_7  and  S_31
    5  A    between atoms: C_8  and  C_26
    6  A    between atoms: C_10  and  C_32
    7  A    between atoms: C_10  and  C_37
    8  A    between atoms: C_11  and  C_54
    9  A    between atoms: C_13  and  N_44
   10  A    between atoms: C_19  and  C_29
   11  A    between atoms: C_22  and  C_29
   12  A    between atoms: C_22  and  S_31
   13  A    between atoms: C_23  and  O_47
   14  A    between atoms: C_27  and  C_43
   15  A    between atoms: C_32  and  C_35
   16  A    between atoms: C_33  and  O_36
   17  A    between atoms: C_38  and  O_47
   18  A    between atoms: C_54  and  C_58
                            x       y       z     vdW  Elec       q    Type
                         _______ _______ _______ _____ _____    ______ ____

>  <TORSDO>
F 18

$$$$
=
 OpenBabel10222415553D

 58 65  0  0  1  0  0  0  0  0999 V2000
  188.2200  178.3880  140.9910 C   0  0  0  0  0  0  0  0  0  0  0  0
  189.7980  176.6080  138.9480 C   0  0  0  0  0  0  0  0  0  0  0  0
  188.8290  177.5090  138.6860 C   0  0  0  0  0  0  0  0  0  0  0  0
  189.9980  176.6750  141.4900 C   0  0  0  0  0  0  0  0  0  0  0  0
  188.0420  178.2380  139.6830 C   0  0  0  0  0  3  0  0  0  0  0  0
  190.2250  176.1680  140.2820 C   0  0  0  0  0  3  0  0  0  0  0  0
  189.2550  177.8320  141.7430 O   0  0  0  0  0  0  0  0  0  0  0  0
  188.0510  173.2380  136.8520 C   0  0  0  0  0  3  0  0  0  0  0  0
  189.8760  174.8010  137.1650 C   0  0  0  0  0  0  0  0  0  0  0  0
  188.5870  174.3560  137.4890 C   0  0  0  0  0  3  0  0  0  0  0  0
  191.9220  174.4980  135.8330 C   0  0  0  0  0  0  0  0  0  0  0  0
  193.7720  176.2100  136.4110 C   0  0  1  0  0  3  0  0  0  0  0  0
  194.7770  175.0810  136.3190 C   0  0  0  0  0  2  0  0  0  0  0  0
  191.7680  176.2530  137.4570 C   0  0  0  0  0  0  0  0  0  0  0  0
  190.6140  174.0870  136.1710 C   0  0  0  0  0  0  0  0  0  0  0  0
  192.4210  175.6290  136.4700 C   0  0  0  0  0  0  0  0  0  0  0  0
  188.8090  172.5630  135.8950 C   0  0  0  0  0  3  0  0  0  0  0  0
  192.6600  177.1370  138.0910 N   0  0  0  0  0  2  0  0  0  0  0  0
  190.4710  175.8990  137.8380 C   0  0  0  0  0  0  0  0  0  0  0  0
  190.0600  172.9930  135.5800 N   0  0  0  0  0  0  0  0  0  0  0  0
  192.9990  173.4760  134.7950 S   0  0  0  0  0  0  0  0  0  0  0  0
  193.9310  176.9830  137.6010 O   0  0  0  0  0  0  0  0  0  0  0  0
  194.5970  174.3930  134.9670 C   0  0  2  0  0  3  0  0  0  0  0  0
  195.7690  173.4570  134.7170 C   0  0  0  0  0  2  0  0  0  0  0  0
  196.7470  173.4700  135.8810 C   0  0  0  0  0  2  0  0  0  0  0  0
  196.8810  172.1330  136.4370 N   0  0  0  0  0  1  0  0  0  0  0  0
  190.5940  175.9990  142.5600 O   0  0  0  0  0  0  0  0  0  0  0  0
  191.6790  175.9820  144.7390 O   0  0  0  0  0  1  0  0  0  0  0  0
  191.9770  177.6910  143.2530 O   0  0  0  0  0  0  0  0  0  0  0  0
  191.4290  176.5900  143.5150 C   0  0  0  0  0  0  0  0  0  0  0  0
  188.4440  177.8190  137.2640 C   0  0  0  0  0  2  0  0  0  0  0  0
  187.0060  177.5050  136.9980 C   0  0  0  0  0  0  0  0  0  0  0  0
  186.6970  176.6320  136.0290 C   0  0  0  0  0  3  0  0  0  0  0  0
  182.7520  174.0200  135.8610 O   0  0  0  0  0  0  0  0  0  0  0  0
  183.1480  176.2020  135.1260 O   0  0  0  0  0  0  0  0  0  0  0  0
  185.3680  176.2230  135.6730 N   0  0  0  0  0  0  0  0  0  0  0  0
  184.8540  175.0040  136.0360 O   0  0  0  0  0  0  0  0  0  0  0  0
  183.5250  174.9970  135.6920 C   0  0  0  0  0  0  0  0  0  0  0  0
  184.2990  177.0480  135.1020 C   0  0  0  0  0  2  0  0  0  0  0  0
  185.2090  178.8180  138.3410 N   0  0  0  0  0  0  0  0  0  0  0  0
  186.0090  178.2360  137.7400 C   0  0  0  0  0  0  0  0  0  0  0  0
  187.0490  179.4280  141.8550 S   0  0  0  0  0  0  0  0  0  0  0  0
  186.2040  178.0090  142.6190 C   0  0  0  0  0  2  0  0  0  0  0  0
  185.3290  178.4800  143.7660 C   0  0  0  0  0  2  0  0  0  0  0  0
  179.9810  179.0600  142.0520 F   0  0  0  0  0  0  0  0  0  0  0  0
  183.9210  178.6330  143.3060 C   0  0  0  0  0  0  0  0  0  0  0  0
  181.5860  179.0510  143.7890 C   0  0  0  0  0  3  0  0  0  0  0  0
  182.2960  178.6350  141.4970 C   0  0  0  0  0  0  0  0  0  0  0  0
  181.2750  178.9180  142.4320 C   0  0  0  0  0  0  0  0  0  0  0  0
  183.6130  178.4960  141.9500 C   0  0  0  0  0  3  0  0  0  0  0  0
  182.9050  178.9090  144.2260 C   0  0  0  0  0  3  0  0  0  0  0  0
  182.0610  178.4740  140.1250 O   0  0  0  0  0  0  0  0  0  0  0  0
  182.1470  177.2320  139.4400 C   0  0  0  0  0  2  0  0  0  0  0  0
  181.6390  177.3930  138.0180 C   0  0  0  0  0  2  0  0  0  0  0  0
  180.6270  178.5260  137.9390 C   0  0  0  0  0  2  0  0  0  0  0  0
  181.1410  179.6000  137.1060 N   0  0  0  0  0  0  0  0  0  0  0  0
  181.1760  179.0790  135.7310 C   0  0  0  0  0  2  0  0  0  0  0  0
  180.0790  179.9410  136.1460 C   0  0  0  0  0  2  0  0  0  0  0  0
  1  7  1  0  0  0  0
  1 42  1  0  0  0  0
  2  6  1  0  0  0  0
  3  2  2  0  0  0  0
  3  5  1  0  0  0  0
  4  7  1  0  0  0  0
  4 27  1  0  0  0  0
  5  1  2  0  0  0  0
  6  4  2  0  0  0  0
  8 10  1  0  0  0  0
  9 10  2  0  0  0  0
  9 19  1  0  0  0  0
 11 15  1  0  0  0  0
 11 16  2  0  0  0  0
 12 13  1  1  0  0  0
 12 16  1  0  0  0  0
 12 22  1  0  0  0  0
 14 19  2  0  0  0  0
 14 18  1  0  0  0  0
 15  9  1  0  0  0  0
 16 14  1  0  0  0  0
 17  8  2  0  0  0  0
 19  2  1  0  0  0  0
 20 17  1  0  0  0  0
 20 15  2  0  0  0  0
 21 23  1  0  0  0  0
 21 11  1  0  0  0  0
 22 18  1  0  0  0  0
 23 24  1  1  0  0  0
 23 13  1  0  0  0  0
 24 25  1  0  0  0  0
 25 26  1  0  0  0  0
 27 30  1  0  0  0  0
 29 30  2  0  0  0  0
 30 28  1  0  0  0  0
 31  3  1  0  0  0  0
 32 31  1  0  0  0  0
 32 41  1  0  0  0  0
 33 32  2  0  0  0  0
 35 38  1  0  0  0  0
 36 33  1  0  0  0  0
 36 37  1  0  0  0  0
 38 34  2  0  0  0  0
 38 37  1  0  0  0  0
 39 35  1  0  0  0  0
 39 36  1  0  0  0  0
 41 40  3  0  0  0  0
 42 43  1  0  0  0  0
 43 44  1  0  0  0  0
 45 49  1  0  0  0  0
 46 44  1  0  0  0  0
 46 51  1  0  0  0  0
 47 51  2  0  0  0  0
 48 50  1  0  0  0  0
 48 49  2  0  0  0  0
 49 47  1  0  0  0  0
 50 46  2  0  0  0  0
 52 48  1  0  0  0  0
 53 52  1  0  0  0  0
 54 53  1  0  0  0  0
 55 54  1  0  0  0  0
 56 55  1  0  0  0  0
 57 58  1  0  0  0  0
 57 56  1  0  0  0  0
 58 56  1  0  0  0  0
M  END
>  <MODEL>
6

>  <REMARK>
 VINA RESULT:      -6.5      2.404      5.259
  Name = 
  18 active torsions:
  status: ('A' for Active; 'I' for Inactive)
    1  A    between atoms: C_2  and  C_26
    2  A    between atoms: C_2  and  O_36
    3  A    between atoms: N_3  and  C_8
    4  A    between atoms: C_7  and  S_31
    5  A    between atoms: C_8  and  C_26
    6  A    between atoms: C_10  and  C_32
    7  A    between atoms: C_10  and  C_37
    8  A    between atoms: C_11  and  C_54
    9  A    between atoms: C_13  and  N_44
   10  A    between atoms: C_19  and  C_29
   11  A    between atoms: C_22  and  C_29
   12  A    between atoms: C_22  and  S_31
   13  A    between atoms: C_23  and  O_47
   14  A    between atoms: C_27  and  C_43
   15  A    between atoms: C_32  and  C_35
   16  A    between atoms: C_33  and  O_36
   17  A    between atoms: C_38  and  O_47
   18  A    between atoms: C_54  and  C_58
                            x       y       z     vdW  Elec       q    Type
                         _______ _______ _______ _____ _____    ______ ____

>  <TORSDO>
F 18

$$$$
=
 OpenBabel10222415553D

 58 65  0  0  1  0  0  0  0  0999 V2000
  186.9240  178.1910  142.6980 C   0  0  0  0  0  0  0  0  0  0  0  0
  188.6200  177.3970  140.1830 C   0  0  0  0  0  0  0  0  0  0  0  0
  188.9070  177.1700  141.4810 C   0  0  0  0  0  0  0  0  0  0  0  0
  186.4040  178.6570  140.2770 C   0  0  0  0  0  0  0  0  0  0  0  0
  188.1380  177.6570  142.6290 C   0  0  0  0  0  3  0  0  0  0  0  0
  187.4990  178.2000  139.6780 C   0  0  0  0  0  3  0  0  0  0  0  0
  186.0740  178.4300  141.6180 O   0  0  0  0  0  0  0  0  0  0  0  0
  187.2770  174.9800  136.8430 C   0  0  0  0  0  3  0  0  0  0  0  0
  189.0570  176.1090  138.0380 C   0  0  0  0  0  0  0  0  0  0  0  0
  187.6980  175.8040  137.8860 C   0  0  0  0  0  3  0  0  0  0  0  0
  191.3670  175.8350  137.2360 C   0  0  0  0  0  0  0  0  0  0  0  0
  193.1070  177.0350  138.7260 C   0  0  1  0  0  3  0  0  0  0  0  0
  194.0020  175.8220  138.5720 C   0  0  0  0  0  2  0  0  0  0  0  0
  190.8980  177.1260  139.1990 C   0  0  0  0  0  0  0  0  0  0  0  0
  189.9880  175.5620  137.1020 C   0  0  0  0  0  0  0  0  0  0  0  0
  191.7530  176.6770  138.2740 C   0  0  0  0  0  0  0  0  0  0  0  0
  188.2190  174.4580  135.9560 C   0  0  0  0  0  3  0  0  0  0  0  0
  191.6410  177.6710  140.2630 N   0  0  0  0  0  2  0  0  0  0  0  0
  189.5220  176.8950  139.1250 C   0  0  0  0  0  0  0  0  0  0  0  0
  189.5390  174.7520  136.1030 N   0  0  0  0  0  0  0  0  0  0  0  0
  192.6080  174.9510  136.2560 S   0  0  0  0  0  0  0  0  0  0  0  0
  192.9820  177.4480  140.0860 O   0  0  0  0  0  0  0  0  0  0  0  0
  194.1600  175.5340  137.0800 C   0  0  2  0  0  3  0  0  0  0  0  0
  195.2750  174.5200  136.8780 C   0  0  0  0  0  2  0  0  0  0  0  0
  196.4530  175.1320  136.1370 C   0  0  0  0  0  2  0  0  0  0  0  0
  196.1240  176.4780  135.6980 N   0  0  0  0  0  1  0  0  0  0  0  0
  185.5180  179.3780  139.4700 O   0  0  0  0  0  0  0  0  0  0  0  0
  183.3630  179.5760  138.3560 O   0  0  0  0  0  0  0  0  0  0  0  0
  184.5220  177.6080  138.4080 O   0  0  0  0  0  1  0  0  0  0  0  0
  184.4640  178.8200  138.7390 C   0  0  0  0  0  0  0  0  0  0  0  0
  190.1320  176.3820  141.8610 C   0  0  0  0  0  2  0  0  0  0  0  0
  190.6100  176.7290  143.2360 C   0  0  0  0  0  0  0  0  0  0  0  0
  190.3900  175.8690  144.2390 C   0  0  0  0  0  3  0  0  0  0  0  0
  193.1590  175.8610  148.0790 O   0  0  0  0  0  0  0  0  0  0  0  0
  191.0850  176.8730  147.7190 O   0  0  0  0  0  0  0  0  0  0  0  0
  190.8030  176.0580  145.6010 N   0  0  0  0  0  0  0  0  0  0  0  0
  192.0140  175.6140  146.0680 O   0  0  0  0  0  0  0  0  0  0  0  0
  192.1680  176.0980  147.3430 C   0  0  0  0  0  0  0  0  0  0  0  0
  190.1700  176.9000  146.6210 C   0  0  0  0  0  2  0  0  0  0  0  0
  191.6810  179.0700  143.5940 N   0  0  0  0  0  0  0  0  0  0  0  0
  191.2080  178.0260  143.4330 C   0  0  0  0  0  0  0  0  0  0  0  0
  186.3100  178.6000  144.3270 S   0  0  0  0  0  0  0  0  0  0  0  0
  184.7840  179.3430  143.6710 C   0  0  0  0  0  2  0  0  0  0  0  0
  183.5730  178.7550  144.3740 C   0  0  0  0  0  2  0  0  0  0  0  0
  179.0690  178.8890  140.9730 F   0  0  0  0  0  0  0  0  0  0  0  0
  182.3900  178.7880  143.4700 C   0  0  0  0  0  0  0  0  0  0  0  0
  180.0790  179.3740  143.0560 C   0  0  0  0  0  3  0  0  0  0  0  0
  181.3830  178.2750  141.3180 C   0  0  0  0  0  0  0  0  0  0  0  0
  180.1690  178.8450  141.7640 C   0  0  0  0  0  0  0  0  0  0  0  0
  182.4830  178.2550  142.1830 C   0  0  0  0  0  3  0  0  0  0  0  0
  181.1850  179.3470  143.9080 C   0  0  0  0  0  3  0  0  0  0  0  0
  181.5460  177.7130  140.0450 O   0  0  0  0  0  0  0  0  0  0  0  0
  181.3940  176.3300  139.7560 C   0  0  0  0  0  2  0  0  0  0  0  0
  181.2770  176.1280  138.2560 C   0  0  0  0  0  2  0  0  0  0  0  0
  182.1610  174.9770  137.8020 C   0  0  0  0  0  2  0  0  0  0  0  0
  182.1340  174.8670  136.3530 N   0  0  0  0  0  0  0  0  0  0  0  0
  183.2900  175.6270  135.8550 C   0  0  0  0  0  2  0  0  0  0  0  0
  183.3710  174.1760  135.9530 C   0  0  0  0  0  2  0  0  0  0  0  0
  1 42  1  0  0  0  0
  2  3  2  0  0  0  0
  3 31  1  0  0  0  0
  3  5  1  0  0  0  0
  4  7  1  0  0  0  0
  5  1  2  0  0  0  0
  6  2  1  0  0  0  0
  6  4  2  0  0  0  0
  7  1  1  0  0  0  0
  8 10  1  0  0  0  0
  9 19  1  0  0  0  0
 10  9  2  0  0  0  0
 11 16  2  0  0  0  0
 12 13  1  1  0  0  0
 12 22  1  0  0  0  0
 14 18  1  0  0  0  0
 15 11  1  0  0  0  0
 15  9  1  0  0  0  0
 16 12  1  0  0  0  0
 16 14  1  0  0  0  0
 17 20  1  0  0  0  0
 17  8  2  0  0  0  0
 19 14  2  0  0  0  0
 19  2  1  0  0  0  0
 20 15  2  0  0  0  0
 21 23  1  0  0  0  0
 21 11  1  0  0  0  0
 22 18  1  0  0  0  0
 23 24  1  1  0  0  0
 23 13  1  0  0  0  0
 25 24  1  0  0  0  0
 26 25  1  0  0  0  0
 27  4  1  0  0  0  0
 28 30  2  0  0  0  0
 29 30  1  0  0  0  0
 30 27  1  0  0  0  0
 31 32  1  0  0  0  0
 32 41  1  0  0  0  0
 32 33  2  0  0  0  0
 33 36  1  0  0  0  0
 36 37  1  0  0  0  0
 36 39  1  0  0  0  0
 37 38  1  0  0  0  0
 38 35  1  0  0  0  0
 38 34  2  0  0  0  0
 39 35  1  0  0  0  0
 41 40  3  0  0  0  0
 43 42  1  0  0  0  0
 43 44  1  0  0  0  0
 45 49  1  0  0  0  0
 46 51  1  0  0  0  0
 46 44  1  0  0  0  0
 47 51  2  0  0  0  0
 48 49  2  0  0  0  0
 48 50  1  0  0  0  0
 49 47  1  0  0  0  0
 50 46  2  0  0  0  0
 52 48  1  0  0  0  0
 53 52  1  0  0  0  0
 54 53  1  0  0  0  0
 55 54  1  0  0  0  0
 56 55  1  0  0  0  0
 57 58  1  0  0  0  0
 57 56  1  0  0  0  0
 58 56  1  0  0  0  0
M  END
>  <MODEL>
7

>  <REMARK>
 VINA RESULT:      -6.1      2.738      7.644
  Name = 
  18 active torsions:
  status: ('A' for Active; 'I' for Inactive)
    1  A    between atoms: C_2  and  C_26
    2  A    between atoms: C_2  and  O_36
    3  A    between atoms: N_3  and  C_8
    4  A    between atoms: C_7  and  S_31
    5  A    between atoms: C_8  and  C_26
    6  A    between atoms: C_10  and  C_32
    7  A    between atoms: C_10  and  C_37
    8  A    between atoms: C_11  and  C_54
    9  A    between atoms: C_13  and  N_44
   10  A    between atoms: C_19  and  C_29
   11  A    between atoms: C_22  and  C_29
   12  A    between atoms: C_22  and  S_31
   13  A    between atoms: C_23  and  O_47
   14  A    between atoms: C_27  and  C_43
   15  A    between atoms: C_32  and  C_35
   16  A    between atoms: C_33  and  O_36
   17  A    between atoms: C_38  and  O_47
   18  A    between atoms: C_54  and  C_58
                            x       y       z     vdW  Elec       q    Type
                         _______ _______ _______ _____ _____    ______ ____

>  <TORSDO>
F 18

$$$$
=
 OpenBabel10222415553D

 58 65  0  0  1  0  0  0  0  0999 V2000
  187.7430  178.3790  141.1790 C   0  0  0  0  0  0  0  0  0  0  0  0
  189.4210  176.7050  139.1240 C   0  0  0  0  0  0  0  0  0  0  0  0
  188.4690  177.6250  138.8630 C   0  0  0  0  0  0  0  0  0  0  0  0
  189.4890  176.6310  141.6730 C   0  0  0  0  0  0  0  0  0  0  0  0
  187.6330  178.3020  139.8570 C   0  0  0  0  0  3  0  0  0  0  0  0
  189.7760  176.1900  140.4520 C   0  0  0  0  0  3  0  0  0  0  0  0
  188.7370  177.7770  141.9510 O   0  0  0  0  0  0  0  0  0  0  0  0
  187.7350  173.5380  136.6890 C   0  0  0  0  0  3  0  0  0  0  0  0
  189.5730  175.0230  137.2280 C   0  0  0  0  0  0  0  0  0  0  0  0
  188.2550  174.5940  137.4360 C   0  0  0  0  0  3  0  0  0  0  0  0
  191.6950  174.7530  136.0120 C   0  0  0  0  0  0  0  0  0  0  0  0
  193.5430  176.3680  136.8260 C   0  0  1  0  0  3  0  0  0  0  0  0
  194.5250  175.2190  136.7200 C   0  0  0  0  0  2  0  0  0  0  0  0
  191.4750  176.3970  137.7420 C   0  0  0  0  0  0  0  0  0  0  0  0
  190.3580  174.3580  136.2360 C   0  0  0  0  0  0  0  0  0  0  0  0
  192.1780  175.8230  136.7580 C   0  0  0  0  0  0  0  0  0  0  0  0
  188.5380  172.9080  135.7380 C   0  0  0  0  0  3  0  0  0  0  0  0
  192.3450  177.2090  138.4920 N   0  0  0  0  0  2  0  0  0  0  0  0
  190.1490  176.0550  138.0140 C   0  0  0  0  0  0  0  0  0  0  0  0
  189.8180  173.3220  135.5350 N   0  0  0  0  0  0  0  0  0  0  0  0
  192.8120  173.7730  134.9760 S   0  0  0  0  0  0  0  0  0  0  0  0
  193.6410  177.0520  138.0750 O   0  0  0  0  0  0  0  0  0  0  0  0
  194.4170  174.6310  135.3150 C   0  0  2  0  0  3  0  0  0  0  0  0
  195.5810  173.6810  135.0760 C   0  0  0  0  0  2  0  0  0  0  0  0
  195.3680  172.3540  135.7870 C   0  0  0  0  0  2  0  0  0  0  0  0
  194.7370  171.4000  134.8890 N   0  0  0  0  0  1  0  0  0  0  0  0
  190.0270  175.8940  142.7340 O   0  0  0  0  0  0  0  0  0  0  0  0
  190.5470  176.3570  145.0650 O   0  0  0  0  0  1  0  0  0  0  0  0
  191.9730  176.9210  143.3740 O   0  0  0  0  0  0  0  0  0  0  0  0
  190.8770  176.4100  143.7170 C   0  0  0  0  0  0  0  0  0  0  0  0
  188.1600  178.0140  137.4420 C   0  0  0  0  0  2  0  0  0  0  0  0
  186.8080  177.5340  137.0180 C   0  0  0  0  0  0  0  0  0  0  0  0
  185.7980  177.5670  137.8990 C   0  0  0  0  0  3  0  0  0  0  0  0
  181.3290  177.7460  136.3460 O   0  0  0  0  0  0  0  0  0  0  0  0
  182.5830  175.9350  137.1230 O   0  0  0  0  0  0  0  0  0  0  0  0
  184.4490  177.1560  137.6310 N   0  0  0  0  0  0  0  0  0  0  0  0
  183.5130  178.0110  137.1080 O   0  0  0  0  0  0  0  0  0  0  0  0
  182.3930  177.2710  136.8190 C   0  0  0  0  0  0  0  0  0  0  0  0
  183.9090  175.7930  137.6390 C   0  0  0  0  0  2  0  0  0  0  0  0
  186.5660  176.5130  134.6400 N   0  0  0  0  0  0  0  0  0  0  0  0
  186.6770  176.9680  135.6990 C   0  0  0  0  0  0  0  0  0  0  0  0
  186.5330  179.3760  142.0370 S   0  0  0  0  0  0  0  0  0  0  0  0
  185.2010  178.9260  140.8820 C   0  0  0  0  0  2  0  0  0  0  0  0
  184.2100  178.0000  141.5650 C   0  0  0  0  0  2  0  0  0  0  0  0
  179.0080  180.1840  141.3410 F   0  0  0  0  0  0  0  0  0  0  0  0
  182.8390  178.5790  141.4980 C   0  0  0  0  0  0  0  0  0  0  0  0
  180.7890  179.2580  142.5910 C   0  0  0  0  0  3  0  0  0  0  0  0
  181.0280  179.5280  140.1830 C   0  0  0  0  0  0  0  0  0  0  0  0
  180.2610  179.6670  141.3620 C   0  0  0  0  0  0  0  0  0  0  0  0
  182.3140  178.9830  140.2680 C   0  0  0  0  0  3  0  0  0  0  0  0
  182.0740  178.7150  142.6610 C   0  0  0  0  0  3  0  0  0  0  0  0
  180.5620  179.9010  138.9150 O   0  0  0  0  0  0  0  0  0  0  0  0
  181.3050  180.6830  137.9890 C   0  0  0  0  0  2  0  0  0  0  0  0
  180.4120  181.0950  136.8320 C   0  0  0  0  0  2  0  0  0  0  0  0
  180.1330  182.5890  136.8800 C   0  0  0  0  0  2  0  0  0  0  0  0
  181.1960  183.3180  136.2080 N   0  0  0  0  0  0  0  0  0  0  0  0
  180.5520  184.4300  135.4940 C   0  0  0  0  0  2  0  0  0  0  0  0
  181.2040  184.6780  136.7720 C   0  0  0  0  0  2  0  0  0  0  0  0
  1  7  1  0  0  0  0
  1 42  1  0  0  0  0
  2  6  1  0  0  0  0
  3  2  2  0  0  0  0
  3  5  1  0  0  0  0
  4  7  1  0  0  0  0
  4 27  1  0  0  0  0
  5  1  2  0  0  0  0
  6  4  2  0  0  0  0
  8 10  1  0  0  0  0
  9 10  2  0  0  0  0
  9 19  1  0  0  0  0
 11 15  1  0  0  0  0
 11 16  2  0  0  0  0
 12 13  1  1  0  0  0
 12 22  1  0  0  0  0
 14 19  2  0  0  0  0
 14 18  1  0  0  0  0
 15  9  1  0  0  0  0
 16 12  1  0  0  0  0
 16 14  1  0  0  0  0
 17  8  2  0  0  0  0
 19  2  1  0  0  0  0
 20 17  1  0  0  0  0
 20 15  2  0  0  0  0
 21 23  1  0  0  0  0
 21 11  1  0  0  0  0
 22 18  1  0  0  0  0
 23 24  1  1  0  0  0
 23 13  1  0  0  0  0
 24 25  1  0  0  0  0
 26 25  1  0  0  0  0
 27 30  1  0  0  0  0
 29 30  2  0  0  0  0
 30 28  1  0  0  0  0
 31  3  1  0  0  0  0
 32 31  1  0  0  0  0
 32 33  2  0  0  0  0
 34 38  2  0  0  0  0
 35 39  1  0  0  0  0
 36 39  1  0  0  0  0
 36 33  1  0  0  0  0
 37 36  1  0  0  0  0
 38 37  1  0  0  0  0
 38 35  1  0  0  0  0
 40 41  3  0  0  0  0
 41 32  1  0  0  0  0
 43 44  1  0  0  0  0
 43 42  1  0  0  0  0
 45 49  1  0  0  0  0
 46 44  1  0  0  0  0
 46 51  1  0  0  0  0
 47 51  2  0  0  0  0
 48 50  1  0  0  0  0
 48 49  2  0  0  0  0
 49 47  1  0  0  0  0
 50 46  2  0  0  0  0
 52 48  1  0  0  0  0
 53 52  1  0  0  0  0
 54 55  1  0  0  0  0
 54 53  1  0  0  0  0
 56 58  1  0  0  0  0
 56 55  1  0  0  0  0
 57 56  1  0  0  0  0
 57 58  1  0  0  0  0
M  END
>  <MODEL>
8

>  <REMARK>
 VINA RESULT:      -6.0      2.847      5.911
  Name = 
  18 active torsions:
  status: ('A' for Active; 'I' for Inactive)
    1  A    between atoms: C_2  and  C_26
    2  A    between atoms: C_2  and  O_36
    3  A    between atoms: N_3  and  C_8
    4  A    between atoms: C_7  and  S_31
    5  A    between atoms: C_8  and  C_26
    6  A    between atoms: C_10  and  C_32
    7  A    between atoms: C_10  and  C_37
    8  A    between atoms: C_11  and  C_54
    9  A    between atoms: C_13  and  N_44
   10  A    between atoms: C_19  and  C_29
   11  A    between atoms: C_22  and  C_29
   12  A    between atoms: C_22  and  S_31
   13  A    between atoms: C_23  and  O_47
   14  A    between atoms: C_27  and  C_43
   15  A    between atoms: C_32  and  C_35
   16  A    between atoms: C_33  and  O_36
   17  A    between atoms: C_38  and  O_47
   18  A    between atoms: C_54  and  C_58
                            x       y       z     vdW  Elec       q    Type
                         _______ _______ _______ _____ _____    ______ ____

>  <TORSDO>
F 18

$$$$
=
 OpenBabel10222415553D

 58 65  0  0  1  0  0  0  0  0999 V2000
  179.8370  178.6160  141.4250 C   0  0  0  0  0  0  0  0  0  0  0  0
  181.3140  177.3490  138.9660 C   0  0  0  0  0  0  0  0  0  0  0  0
  181.3660  178.6270  139.3940 C   0  0  0  0  0  0  0  0  0  0  0  0
  179.7030  176.2390  140.6020 C   0  0  0  0  0  0  0  0  0  0  0  0
  180.5710  179.2000  140.4840 C   0  0  0  0  0  3  0  0  0  0  0  0
  180.4300  176.3010  139.4910 C   0  0  0  0  0  3  0  0  0  0  0  0
  179.6430  177.2430  141.5740 O   0  0  0  0  0  0  0  0  0  0  0  0
  179.8170  174.8050  135.7890 C   0  0  0  0  0  3  0  0  0  0  0  0
  181.6150  176.0910  136.7800 C   0  0  0  0  0  0  0  0  0  0  0  0
  180.2800  175.6680  136.7810 C   0  0  0  0  0  3  0  0  0  0  0  0
  183.8350  176.0160  135.7200 C   0  0  0  0  0  0  0  0  0  0  0  0
  185.6210  177.3720  137.0080 C   0  0  1  0  0  3  0  0  0  0  0  0
  186.5950  176.2410  136.7480 C   0  0  0  0  0  2  0  0  0  0  0  0
  183.4800  177.2720  137.7290 C   0  0  0  0  0  0  0  0  0  0  0  0
  182.4780  175.6220  135.7420 C   0  0  0  0  0  0  0  0  0  0  0  0
  184.2610  176.8940  136.7110 C   0  0  0  0  0  0  0  0  0  0  0  0
  180.6950  174.3620  134.7990 C   0  0  0  0  0  3  0  0  0  0  0  0
  184.2890  177.8860  138.7040 N   0  0  0  0  0  2  0  0  0  0  0  0
  182.1310  176.9210  137.8100 C   0  0  0  0  0  0  0  0  0  0  0  0
  181.9920  174.7710  134.7970 N   0  0  0  0  0  0  0  0  0  0  0  0
  185.0290  175.2380  134.6020 S   0  0  0  0  0  0  0  0  0  0  0  0
  185.6150  177.7800  138.3750 O   0  0  0  0  0  0  0  0  0  0  0  0
  186.6070  175.9590  135.2470 C   0  0  2  0  0  3  0  0  0  0  0  0
  187.7760  175.0450  134.9150 C   0  0  0  0  0  2  0  0  0  0  0  0
  188.6920  174.8590  136.1140 C   0  0  0  0  0  2  0  0  0  0  0  0
  190.0210  174.4650  135.6730 N   0  0  0  0  0  1  0  0  0  0  0  0
  178.9880  175.0530  140.8020 O   0  0  0  0  0  0  0  0  0  0  0  0
  179.7330  172.7710  141.2010 O   0  0  0  0  0  0  0  0  0  0  0  0
  179.3960  174.2480  142.9090 O   0  0  0  0  0  1  0  0  0  0  0  0
  179.3690  174.0260  141.6720 C   0  0  0  0  0  0  0  0  0  0  0  0
  182.2730  179.6190  138.7180 C   0  0  0  0  0  2  0  0  0  0  0  0
  181.5150  180.5340  137.8090 C   0  0  0  0  0  0  0  0  0  0  0  0
  181.2020  181.7650  138.2370 C   0  0  0  0  0  3  0  0  0  0  0  0
  179.4960  185.9870  136.9410 O   0  0  0  0  0  0  0  0  0  0  0  0
  179.5650  183.9660  135.7720 O   0  0  0  0  0  0  0  0  0  0  0  0
  180.4940  182.7540  137.4740 N   0  0  0  0  0  0  0  0  0  0  0  0
  180.3570  184.0500  137.9030 O   0  0  0  0  0  0  0  0  0  0  0  0
  179.7870  184.7660  136.8790 C   0  0  0  0  0  0  0  0  0  0  0  0
  180.0210  182.6500  136.0900 C   0  0  0  0  0  2  0  0  0  0  0  0
  180.7180  179.5950  135.5200 N   0  0  0  0  0  0  0  0  0  0  0  0
  181.0720  180.0100  136.5410 C   0  0  0  0  0  0  0  0  0  0  0  0
  179.0640  179.6870  142.6300 S   0  0  0  0  0  0  0  0  0  0  0  0
  180.6410  180.0530  143.4600 C   0  0  0  0  0  2  0  0  0  0  0  0
  181.1940  178.7950  144.1060 C   0  0  0  0  0  2  0  0  0  0  0  0
  186.7540  178.4420  143.1870 F   0  0  0  0  0  0  0  0  0  0  0  0
  182.6630  178.7040  143.8720 C   0  0  0  0  0  0  0  0  0  0  0  0
  184.5450  178.5880  142.3550 C   0  0  0  0  0  3  0  0  0  0  0  0
  184.9200  178.5550  144.7610 C   0  0  0  0  0  0  0  0  0  0  0  0
  185.4250  178.5300  143.4400 C   0  0  0  0  0  0  0  0  0  0  0  0
  183.5370  178.6420  144.9590 C   0  0  0  0  0  3  0  0  0  0  0  0
  183.1670  178.6740  142.5680 C   0  0  0  0  0  3  0  0  0  0  0  0
  185.7370  178.4860  145.8970 O   0  0  0  0  0  0  0  0  0  0  0  0
  186.7610  177.5190  146.0890 C   0  0  0  0  0  2  0  0  0  0  0  0
  187.9830  178.1810  146.7000 C   0  0  0  0  0  2  0  0  0  0  0  0
  189.2540  177.4880  146.2320 C   0  0  0  0  0  2  0  0  0  0  0  0
  189.1710  177.2000  144.8090 N   0  0  0  0  0  0  0  0  0  0  0  0
  190.2790  177.9280  144.1720 C   0  0  0  0  0  2  0  0  0  0  0  0
  190.4140  176.5030  144.4410 C   0  0  0  0  0  2  0  0  0  0  0  0
  1  7  1  0  0  0  0
  1 42  1  0  0  0  0
  2  3  2  0  0  0  0
  2  6  1  0  0  0  0
  3  5  1  0  0  0  0
  4 27  1  0  0  0  0
  4  7  1  0  0  0  0
  5  1  2  0  0  0  0
  6  4  2  0  0  0  0
  8 10  1  0  0  0  0
  9 10  2  0  0  0  0
  9 19  1  0  0  0  0
 11 15  1  0  0  0  0
 11 16  2  0  0  0  0
 12 13  1  1  0  0  0
 12 22  1  0  0  0  0
 14 19  2  0  0  0  0
 14 18  1  0  0  0  0
 15  9  1  0  0  0  0
 16 12  1  0  0  0  0
 16 14  1  0  0  0  0
 17  8  2  0  0  0  0
 19  2  1  0  0  0  0
 20 17  1  0  0  0  0
 20 15  2  0  0  0  0
 21 23  1  0  0  0  0
 21 11  1  0  0  0  0
 22 18  1  0  0  0  0
 23 24  1  1  0  0  0
 23 13  1  0  0  0  0
 24 25  1  0  0  0  0
 26 25  1  0  0  0  0
 27 30  1  0  0  0  0
 28 30  2  0  0  0  0
 30 29  1  0  0  0  0
 31  3  1  0  0  0  0
 32 33  2  0  0  0  0
 32 31  1  0  0  0  0
 35 39  1  0  0  0  0
 35 38  1  0  0  0  0
 36 37  1  0  0  0  0
 36 33  1  0  0  0  0
 38 34  2  0  0  0  0
 38 37  1  0  0  0  0
 39 36  1  0  0  0  0
 40 41  3  0  0  0  0
 41 32  1  0  0  0  0
 42 43  1  0  0  0  0
 43 44  1  0  0  0  0
 45 49  1  0  0  0  0
 46 44  1  0  0  0  0
 46 50  1  0  0  0  0
 47 51  1  0  0  0  0
 47 49  2  0  0  0  0
 48 50  2  0  0  0  0
 48 52  1  0  0  0  0
 49 48  1  0  0  0  0
 51 46  2  0  0  0  0
 52 53  1  0  0  0  0
 53 54  1  0  0  0  0
 55 54  1  0  0  0  0
 56 55  1  0  0  0  0
 57 58  1  0  0  0  0
 57 56  1  0  0  0  0
 58 56  1  0  0  0  0
M  END
>  <MODEL>
9

>  <REMARK>
 VINA RESULT:      -5.8      4.181      7.549
  Name = 
  18 active torsions:
  status: ('A' for Active; 'I' for Inactive)
    1  A    between atoms: C_2  and  C_26
    2  A    between atoms: C_2  and  O_36
    3  A    between atoms: N_3  and  C_8
    4  A    between atoms: C_7  and  S_31
    5  A    between atoms: C_8  and  C_26
    6  A    between atoms: C_10  and  C_32
    7  A    between atoms: C_10  and  C_37
    8  A    between atoms: C_11  and  C_54
    9  A    between atoms: C_13  and  N_44
   10  A    between atoms: C_19  and  C_29
   11  A    between atoms: C_22  and  C_29
   12  A    between atoms: C_22  and  S_31
   13  A    between atoms: C_23  and  O_47
   14  A    between atoms: C_27  and  C_43
   15  A    between atoms: C_32  and  C_35
   16  A    between atoms: C_33  and  O_36
   17  A    between atoms: C_38  and  O_47
   18  A    between atoms: C_54  and  C_58
                            x       y       z     vdW  Elec       q    Type
                         _______ _______ _______ _____ _____    ______ ____

>  <TORSDO>
F 18

$$$$
