=
 OpenBabel10222417363D

 67 76  0  0  1  0  0  0  0  0999 V2000
  187.1630  178.5310  138.1780 C   0  0  2  0  0  3  0  0  0  0  0  0
  185.6860  178.2420  138.3940 C   0  0  2  0  0  3  0  0  0  0  0  0
  187.3350  178.0210  136.7740 C   0  0  2  0  0  3  0  0  0  0  0  0
  189.7870  176.6540  140.3780 C   0  0  0  0  0  3  0  0  0  0  0  0
  191.1910  176.2870  139.9230 C   0  0  0  0  0  3  0  0  0  0  0  0
  189.1780  177.3800  139.2250 C   0  0  0  0  0  0  0  0  0  0  0  0
  191.2930  176.7920  138.5200 C   0  0  0  0  0  0  0  0  0  0  0  0
  189.5050  176.8290  136.9150 N   0  0  0  0  0  2  0  0  0  0  0  0
  186.2730  176.9660  136.5880 C   0  0  2  0  0  3  0  0  0  0  0  0
  190.0850  177.5170  138.0540 C   0  0  1  0  0  3  0  0  0  0  0  0
  192.2890  176.5430  137.7190 N   0  0  0  0  0  0  0  0  0  0  0  0
  187.8990  177.7730  139.2530 C   0  0  0  0  0  3  0  0  0  0  0  0
  188.7320  177.8130  136.1750 C   0  0  0  0  0  2  0  0  0  0  0  0
  185.2140  177.2800  137.4630 O   0  0  0  0  0  0  0  0  0  0  0  0
  193.5000  175.8550  138.0730 C   0  0  0  0  0  0  0  0  0  0  0  0
  194.2380  176.2960  138.9940 O   0  0  0  0  0  0  0  0  0  0  0  0
  193.9140  174.6840  137.3610 N   0  0  0  0  0  2  0  0  0  0  0  0
  190.8620  172.4030  134.5950 C   0  0  0  0  0  3  0  0  0  0  0  0
  195.8670  172.0470  136.4240 C   0  0  0  0  0  2  0  0  0  0  0  0
  193.1060  173.8630  136.5090 C   0  0  0  0  0  0  0  0  0  0  0  0
  193.4120  172.5790  136.3960 C   0  0  0  0  0  0  0  0  0  0  0  0
  193.8130  170.5710  136.2010 C   0  0  2  0  0  3  0  0  0  0  0  0
  195.9780  171.8810  135.0370 O   0  0  0  0  0  0  0  0  0  0  0  0
  194.4660  171.6550  136.9300 C   0  0  1  0  0  3  0  0  0  0  0  0
  195.9890  170.4980  134.8430 C   0  0  0  0  0  2  0  0  0  0  0  0
  194.5770  169.9440  135.0140 C   0  0  0  0  0  2  0  0  0  0  0  0
  191.9190  174.4160  135.8230 C   0  0  0  0  0  3  0  0  0  0  0  0
  191.6330  171.3500  134.8720 C   0  0  0  0  0  3  0  0  0  0  0  0
  192.7830  171.4560  135.6900 N   0  0  0  0  0  0  0  0  0  0  0  0
  191.0070  173.8140  135.0400 C   0  0  0  0  0  3  0  0  0  0  0  0
  184.8940  179.4620  138.2860 N   0  0  0  0  0  2  0  0  0  0  0  0
  184.1210  179.6200  139.5090 C   0  0  0  0  0  2  0  0  0  0  0  0
  184.6690  178.8360  140.5340 O   0  0  0  0  0  0  0  0  0  0  0  0
  184.1450  179.3580  141.7160 C   0  0  0  0  0  2  0  0  0  0  0  0
  185.2620  179.5770  142.7290 C   0  0  0  0  0  2  0  0  0  0  0  0
  187.7260  177.0380  143.8960 P   0  0  2  0  0  0  0  0  0  0  0  0
  186.8950  177.4390  145.2990 O   0  0  0  0  0  0  0  0  0  0  0  0
  186.0380  178.4510  144.8600 C   0  0  1  0  0  3  0  0  0  0  0  0
  185.7180  178.2670  143.3660 C   0  0  2  0  0  3  0  0  0  0  0  0
  186.8140  177.7380  142.6720 O   0  0  0  0  0  0  0  0  0  0  0  0
  187.7690  175.5370  143.7200 O   0  0  0  0  0  0  0  0  0  0  0  0
  184.7810  178.4370  145.6650 C   0  0  0  0  0  0  0  0  0  0  0  0
  183.5550  178.6640  145.0540 O   0  0  0  0  0  0  0  0  0  0  0  0
  184.8330  178.2530  146.9130 O   0  0  0  0  0  1  0  0  0  0  0  0
  190.3110  176.7680  143.5230 O   0  0  0  0  0  1  0  0  0  0  0  0
  189.3990  177.7420  143.9290 C   0  0  0  0  0  0  0  0  0  0  0  0
  189.4550  178.8250  143.0490 O   0  0  0  0  0  1  0  0  0  0  0  0
  189.7210  178.2030  145.3460 C   0  0  0  0  0  2  0  0  0  0  0  0
  190.4250  177.1160  146.1470 C   0  0  0  0  0  1  0  0  0  0  0  0
  186.7750  175.5640  136.9040 C   0  0  0  0  0  2  0  0  0  0  0  0
  186.5700  174.7380  135.7950 O   0  0  0  0  0  0  0  0  0  0  0  0
  184.5470  173.6390  135.1460 C   0  0  0  0  0  3  0  0  0  0  0  0
  184.9790  174.2480  137.3790 O   0  0  0  0  0  0  0  0  0  0  0  0
  183.6480  174.4950  137.1480 C   0  0  0  0  0  0  0  0  0  0  0  0
  182.8700  174.9740  138.0760 N   0  0  0  0  0  0  0  0  0  0  0  0
  185.6380  173.7820  136.2160 C   0  0  2  0  0  3  0  0  0  0  0  0
  183.2530  174.1750  135.7570 C   0  0  0  0  0  3  0  0  0  0  0  0
  180.4880  174.2690  138.5850 C   0  0  0  0  0  2  0  0  0  0  0  0
  180.5710  174.4870  137.0740 C   0  0  0  0  0  2  0  0  0  0  0  0
  181.4380  175.3000  138.0110 C   0  0  0  0  0  0  0  0  0  0  0  0
  180.3860  177.1240  139.3640 C   0  0  0  0  0  3  0  0  0  0  0  0
  181.0630  176.7350  138.2000 C   0  0  0  0  0  0  0  0  0  0  0  0
  182.1440  177.3620  136.1460 F   0  0  0  0  0  0  0  0  0  0  0  0
  180.4460  179.4330  138.6400 C   0  0  0  0  0  3  0  0  0  0  0  0
  180.0720  178.4700  139.5790 C   0  0  0  0  0  3  0  0  0  0  0  0
  181.4550  177.7120  137.2640 C   0  0  0  0  0  0  0  0  0  0  0  0
  181.1390  179.0550  137.4850 C   0  0  0  0  0  3  0  0  0  0  0  0
  1  2  1  0  0  0  0
  1 12  1  1  0  0  0
  2 31  1  6  0  0  0
  3 13  1  1  0  0  0
  3  1  1  0  0  0  0
  5  4  2  0  0  0  0
  6 12  2  0  0  0  0
  6  4  1  0  0  0  0
  7  5  1  0  0  0  0
  9  3  1  0  0  0  0
  9 50  1  1  0  0  0
  9 14  1  0  0  0  0
 10  8  1  6  0  0  0
 10  7  1  0  0  0  0
 10  6  1  0  0  0  0
 11 15  1  0  0  0  0
 11  7  2  0  0  0  0
 13  8  1  0  0  0  0
 14  2  1  0  0  0  0
 15 16  2  0  0  0  0
 17 15  1  0  0  0  0
 18 28  2  0  0  0  0
 18 30  1  0  0  0  0
 20 17  1  0  0  0  0
 21 20  2  0  0  0  0
 21 24  1  0  0  0  0
 22 26  1  6  0  0  0
 22 24  1  0  0  0  0
 23 19  1  0  0  0  0
 24 19  1  6  0  0  0
 25 26  1  0  0  0  0
 25 23  1  0  0  0  0
 27 20  1  0  0  0  0
 28 29  1  0  0  0  0
 29 22  1  0  0  0  0
 29 21  1  0  0  0  0
 30 27  2  0  0  0  0
 31 32  1  0  0  0  0
 32 33  1  0  0  0  0
 33 34  1  0  0  0  0
 34 35  1  0  0  0  0
 36 41  2  6  0  0  0
 36 46  1  0  0  0  0
 36 37  1  0  0  0  0
 38 37  1  0  0  0  0
 38 42  1  1  0  0  0
 39 35  1  6  0  0  0
 39 38  1  0  0  0  0
 40 39  1  0  0  0  0
 40 36  1  0  0  0  0
 42 44  1  0  0  0  0
 43 42  2  0  0  0  0
 45 46  1  0  0  0  0
 46 48  1  0  0  0  0
 47 46  1  0  0  0  0
 48 49  1  0  0  0  0
 51 50  1  0  0  0  0
 52 57  2  0  0  0  0
 52 56  1  0  0  0  0
 54 53  1  0  0  0  0
 54 55  2  0  0  0  0
 56 51  1  6  0  0  0
 56 53  1  0  0  0  0
 57 54  1  0  0  0  0
 59 60  1  0  0  0  0
 59 58  1  0  0  0  0
 60 55  1  0  0  0  0
 60 62  1  0  0  0  0
 60 58  1  0  0  0  0
 61 65  1  0  0  0  0
 62 61  2  0  0  0  0
 63 66  1  0  0  0  0
 64 65  2  0  0  0  0
 66 67  2  0  0  0  0
 66 62  1  0  0  0  0
 67 64  1  0  0  0  0
M  END
>  <MODEL>
1

>  <REMARK>
 VINA RESULT:      -7.2      0.000      0.000
  Name = 
  16 active torsions:
  status: ('A' for Active; 'I' for Inactive)
    1  A    between atoms: C_3  and  C_31
    2  A    between atoms: C_5  and  N_32
    3  A    between atoms: C_6  and  N_43
    4  A    between atoms: C_7  and  N_32
    5  A    between atoms: C_7  and  O_41
    6  A    between atoms: C_13  and  N_33
    7  A    between atoms: P_16  and  C_62
    8  A    between atoms: C_19  and  C_66
    9  A    between atoms: O_36  and  C_45
   10  A    between atoms: O_36  and  C_57
   11  A    between atoms: C_38  and  C_45
   12  A    between atoms: O_41  and  C_61
   13  A    between atoms: C_44  and  C_67
   14  A    between atoms: N_53  and  C_66
   15  A    between atoms: C_54  and  C_62
   16  A    between atoms: C_61  and  C_67
                            x       y       z     vdW  Elec       q    Type
                         _______ _______ _______ _____ _____    ______ ____

>  <TORSDO>
F 16

$$$$
=
 OpenBabel10222417363D

 67 76  0  0  1  0  0  0  0  0999 V2000
  188.9660  177.6070  142.2510 C   0  0  2  0  0  3  0  0  0  0  0  0
  189.6460  178.3290  143.4040 C   0  0  2  0  0  3  0  0  0  0  0  0
  189.9060  176.4470  142.0690 C   0  0  2  0  0  3  0  0  0  0  0  0
  188.7220  179.4000  138.7910 C   0  0  0  0  0  3  0  0  0  0  0  0
  188.7190  178.6880  137.4480 C   0  0  0  0  0  3  0  0  0  0  0  0
  188.7950  178.3140  139.8120 C   0  0  0  0  0  0  0  0  0  0  0  0
  188.8270  177.2330  137.7740 C   0  0  0  0  0  0  0  0  0  0  0  0
  190.0830  176.3020  139.6000 N   0  0  0  0  0  2  0  0  0  0  0  0
  191.2470  176.9220  142.5720 C   0  0  2  0  0  3  0  0  0  0  0  0
  188.8350  176.9450  139.2300 C   0  0  1  0  0  3  0  0  0  0  0  0
  189.0100  176.2930  136.8930 N   0  0  0  0  0  0  0  0  0  0  0  0
  188.9070  178.5950  141.1150 C   0  0  0  0  0  3  0  0  0  0  0  0
  189.8300  175.5570  140.8220 C   0  0  0  0  0  2  0  0  0  0  0  0
  191.0010  177.9280  143.5280 O   0  0  0  0  0  0  0  0  0  0  0  0
  189.0150  176.4670  135.4670 C   0  0  0  0  0  0  0  0  0  0  0  0
  189.3350  177.5750  134.9610 O   0  0  0  0  0  0  0  0  0  0  0  0
  188.6170  175.4020  134.5950 N   0  0  0  0  0  2  0  0  0  0  0  0
  188.8020  170.7840  135.4890 C   0  0  0  0  0  3  0  0  0  0  0  0
  185.6330  175.0230  136.2060 C   0  0  0  0  0  2  0  0  0  0  0  0
  188.5090  174.0120  134.9270 C   0  0  0  0  0  0  0  0  0  0  0  0
  187.3010  173.5000  135.1060 C   0  0  0  0  0  0  0  0  0  0  0  0
  185.4540  172.6330  135.3660 C   0  0  2  0  0  3  0  0  0  0  0  0
  185.7370  174.4330  137.4730 O   0  0  0  0  0  0  0  0  0  0  0  0
  185.8870  173.9990  135.0840 C   0  0  1  0  0  3  0  0  0  0  0  0
  184.6090  173.6170  137.5800 C   0  0  0  0  0  2  0  0  0  0  0  0
  184.8050  172.3570  136.7400 C   0  0  0  0  0  2  0  0  0  0  0  0
  189.7100  173.1530  135.0020 C   0  0  0  0  0  3  0  0  0  0  0  0
  187.4750  170.8990  135.5540 C   0  0  0  0  0  3  0  0  0  0  0  0
  186.8180  172.1400  135.3770 N   0  0  0  0  0  0  0  0  0  0  0  0
  189.8220  171.8340  135.2350 C   0  0  0  0  0  3  0  0  0  0  0  0
  188.9430  178.0870  144.6580 N   0  0  0  0  0  2  0  0  0  0  0  0
  187.5780  177.6850  144.3530 C   0  0  0  0  0  2  0  0  0  0  0  0
  186.6710  178.6240  144.8630 O   0  0  0  0  0  0  0  0  0  0  0  0
  185.4340  178.2730  144.3220 C   0  0  0  0  0  2  0  0  0  0  0  0
  185.5850  177.9630  142.8370 C   0  0  0  0  0  2  0  0  0  0  0  0
  183.9080  179.1560  139.7320 P   0  0  2  0  0  0  0  0  0  0  0  0
  182.6530  179.0920  140.8450 O   0  0  0  0  0  0  0  0  0  0  0  0
  183.2810  178.5620  141.9740 C   0  0  1  0  0  3  0  0  0  0  0  0
  184.7770  178.9250  141.9710 C   0  0  2  0  0  3  0  0  0  0  0  0
  185.2890  178.9630  140.6680 O   0  0  0  0  0  0  0  0  0  0  0  0
  183.9310  180.5000  139.0400 O   0  0  0  0  0  0  0  0  0  0  0  0
  182.6240  179.0800  143.2110 C   0  0  0  0  0  0  0  0  0  0  0  0
  183.1670  180.1620  143.8920 O   0  0  0  0  0  1  0  0  0  0  0  0
  181.5900  178.5130  143.6610 O   0  0  0  0  0  0  0  0  0  0  0  0
  184.9660  177.6640  137.8480 O   0  0  0  0  0  1  0  0  0  0  0  0
  183.7570  177.8030  138.5300 C   0  0  0  0  0  0  0  0  0  0  0  0
  183.4700  176.6180  139.2120 O   0  0  0  0  0  1  0  0  0  0  0  0
  182.6360  178.1260  137.5490 C   0  0  0  0  0  2  0  0  0  0  0  0
  182.9490  177.6210  136.1480 C   0  0  0  0  0  1  0  0  0  0  0  0
  192.1210  177.4950  141.4650 C   0  0  0  0  0  2  0  0  0  0  0  0
  192.9630  176.4920  140.9740 O   0  0  0  0  0  0  0  0  0  0  0  0
  192.7300  176.9150  138.6320 C   0  0  0  0  0  3  0  0  0  0  0  0
  194.7970  176.3370  139.6000 O   0  0  0  0  0  0  0  0  0  0  0  0
  194.7260  175.6870  138.3920 C   0  0  0  0  0  0  0  0  0  0  0  0
  195.6920  174.9230  137.9690 N   0  0  0  0  0  0  0  0  0  0  0  0
  193.6150  177.0650  139.8770 C   0  0  2  0  0  3  0  0  0  0  0  0
  193.4490  175.9500  137.6900 C   0  0  0  0  0  3  0  0  0  0  0  0
  197.0750  174.3120  135.9330 C   0  0  0  0  0  2  0  0  0  0  0  0
  195.7730  174.9240  135.4150 C   0  0  0  0  0  2  0  0  0  0  0  0
  195.7900  174.1560  136.7190 C   0  0  0  0  0  0  0  0  0  0  0  0
  193.9460  172.6090  136.0310 C   0  0  0  0  0  3  0  0  0  0  0  0
  195.1580  172.8000  136.7080 C   0  0  0  0  0  0  0  0  0  0  0  0
  197.0020  171.8520  137.9250 F   0  0  0  0  0  0  0  0  0  0  0  0
  194.0050  170.2500  136.5690 C   0  0  0  0  0  3  0  0  0  0  0  0
  193.3680  171.3370  135.9680 C   0  0  0  0  0  3  0  0  0  0  0  0
  195.8080  171.6970  137.2960 C   0  0  0  0  0  0  0  0  0  0  0  0
  195.2260  170.4280  137.2290 C   0  0  0  0  0  3  0  0  0  0  0  0
  1 12  1  6  0  0  0
  1  2  1  0  0  0  0
  2 14  1  0  0  0  0
  2 31  1  1  0  0  0
  3 13  1  6  0  0  0
  3  1  1  0  0  0  0
  3  9  1  0  0  0  0
  4  6  1  0  0  0  0
  5  7  1  0  0  0  0
  5  4  2  0  0  0  0
  6 12  2  0  0  0  0
  8 13  1  0  0  0  0
  9 50  1  6  0  0  0
  9 14  1  0  0  0  0
 10  7  1  6  0  0  0
 10  8  1  0  0  0  0
 10  6  1  0  0  0  0
 11  7  2  0  0  0  0
 15 11  1  0  0  0  0
 16 15  2  0  0  0  0
 17 20  1  0  0  0  0
 17 15  1  0  0  0  0
 18 28  2  0  0  0  0
 19 23  1  0  0  0  0
 20 27  1  0  0  0  0
 20 21  2  0  0  0  0
 21 29  1  0  0  0  0
 22 29  1  0  0  0  0
 22 26  1  1  0  0  0
 23 25  1  0  0  0  0
 24 21  1  0  0  0  0
 24 22  1  0  0  0  0
 24 19  1  1  0  0  0
 26 25  1  0  0  0  0
 27 30  2  0  0  0  0
 29 28  1  0  0  0  0
 30 18  1  0  0  0  0
 32 31  1  0  0  0  0
 32 33  1  0  0  0  0
 34 33  1  0  0  0  0
 35 34  1  0  0  0  0
 36 41  2  6  0  0  0
 36 40  1  0  0  0  0
 36 37  1  0  0  0  0
 37 38  1  0  0  0  0
 38 42  1  1  0  0  0
 39 38  1  0  0  0  0
 39 35  1  1  0  0  0
 40 39  1  0  0  0  0
 42 44  2  0  0  0  0
 42 43  1  0  0  0  0
 45 46  1  0  0  0  0
 46 47  1  0  0  0  0
 46 36  1  0  0  0  0
 48 46  1  0  0  0  0
 49 48  1  0  0  0  0
 51 50  1  0  0  0  0
 52 56  1  0  0  0  0
 53 56  1  0  0  0  0
 54 53  1  0  0  0  0
 55 54  2  0  0  0  0
 56 51  1  1  0  0  0
 57 54  1  0  0  0  0
 57 52  2  0  0  0  0
 58 60  1  0  0  0  0
 59 58  1  0  0  0  0
 59 60  1  0  0  0  0
 60 55  1  0  0  0  0
 61 62  1  0  0  0  0
 62 60  1  0  0  0  0
 62 66  2  0  0  0  0
 64 67  2  0  0  0  0
 65 61  2  0  0  0  0
 65 64  1  0  0  0  0
 66 63  1  0  0  0  0
 67 66  1  0  0  0  0
M  END
>  <MODEL>
2

>  <REMARK>
 VINA RESULT:      -5.5      3.108      8.837
  Name = 
  16 active torsions:
  status: ('A' for Active; 'I' for Inactive)
    1  A    between atoms: C_3  and  C_31
    2  A    between atoms: C_5  and  N_32
    3  A    between atoms: C_6  and  N_43
    4  A    between atoms: C_7  and  N_32
    5  A    between atoms: C_7  and  O_41
    6  A    between atoms: C_13  and  N_33
    7  A    between atoms: P_16  and  C_62
    8  A    between atoms: C_19  and  C_66
    9  A    between atoms: O_36  and  C_45
   10  A    between atoms: O_36  and  C_57
   11  A    between atoms: C_38  and  C_45
   12  A    between atoms: O_41  and  C_61
   13  A    between atoms: C_44  and  C_67
   14  A    between atoms: N_53  and  C_66
   15  A    between atoms: C_54  and  C_62
   16  A    between atoms: C_61  and  C_67
                            x       y       z     vdW  Elec       q    Type
                         _______ _______ _______ _____ _____    ______ ____

>  <TORSDO>
F 16

$$$$
=
 OpenBabel10222417363D

 67 76  0  0  1  0  0  0  0  0999 V2000
  188.7530  177.6110  142.2170 C   0  0  2  0  0  3  0  0  0  0  0  0
  189.3040  178.4300  143.3730 C   0  0  2  0  0  3  0  0  0  0  0  0
  189.7800  176.5140  142.1510 C   0  0  2  0  0  3  0  0  0  0  0  0
  188.6160  179.2270  138.6640 C   0  0  0  0  0  3  0  0  0  0  0  0
  188.7500  178.4570  137.3600 C   0  0  0  0  0  3  0  0  0  0  0  0
  188.6960  178.1940  139.7390 C   0  0  0  0  0  0  0  0  0  0  0  0
  188.9360  177.0300  137.7630 C   0  0  0  0  0  0  0  0  0  0  0  0
  190.1290  176.2720  139.7070 N   0  0  0  0  0  2  0  0  0  0  0  0
  191.0490  177.1050  142.7130 C   0  0  2  0  0  3  0  0  0  0  0  0
  188.8670  176.8070  139.2290 C   0  0  1  0  0  3  0  0  0  0  0  0
  189.2400  176.0660  136.9420 N   0  0  0  0  0  0  0  0  0  0  0  0
  188.7020  178.5410  141.0310 C   0  0  0  0  0  3  0  0  0  0  0  0
  189.8470  175.5660  140.9460 C   0  0  0  0  0  2  0  0  0  0  0  0
  190.6730  178.1330  143.6010 O   0  0  0  0  0  0  0  0  0  0  0  0
  189.3280  176.1770  135.5120 C   0  0  0  0  0  0  0  0  0  0  0  0
  190.1660  176.9550  134.9830 O   0  0  0  0  0  0  0  0  0  0  0  0
  188.4400  175.4420  134.6630 N   0  0  0  0  0  2  0  0  0  0  0  0
  186.2670  171.3990  135.7100 C   0  0  0  0  0  3  0  0  0  0  0  0
  185.5700  176.6840  136.0270 C   0  0  0  0  0  2  0  0  0  0  0  0
  187.6400  174.3100  135.0260 C   0  0  0  0  0  0  0  0  0  0  0  0
  186.3290  174.4690  135.1190 C   0  0  0  0  0  0  0  0  0  0  0  0
  184.2830  174.6380  135.2490 C   0  0  2  0  0  3  0  0  0  0  0  0
  185.2950  176.2070  137.3160 O   0  0  0  0  0  0  0  0  0  0  0  0
  185.3500  175.5940  134.9630 C   0  0  1  0  0  3  0  0  0  0  0  0
  183.9070  176.0580  137.3530 C   0  0  0  0  0  2  0  0  0  0  0  0
  183.5040  174.8110  136.5710 C   0  0  0  0  0  2  0  0  0  0  0  0
  188.2530  172.9790  135.2290 C   0  0  0  0  0  3  0  0  0  0  0  0
  185.1680  172.1540  135.6600 C   0  0  0  0  0  3  0  0  0  0  0  0
  185.2220  173.5430  135.3900 N   0  0  0  0  0  0  0  0  0  0  0  0
  187.6850  171.7940  135.5110 C   0  0  0  0  0  3  0  0  0  0  0  0
  188.5380  178.1940  144.5910 N   0  0  0  0  0  2  0  0  0  0  0  0
  187.2430  177.6410  144.2230 C   0  0  0  0  0  2  0  0  0  0  0  0
  186.2850  178.6610  144.1430 O   0  0  0  0  0  0  0  0  0  0  0  0
  185.1530  178.0610  143.5910 C   0  0  0  0  0  2  0  0  0  0  0  0
  184.3060  179.1060  142.8760 C   0  0  0  0  0  2  0  0  0  0  0  0
  181.0580  178.3240  141.2270 P   0  0  2  0  0  0  0  0  0  0  0  0
  181.9300  179.0890  140.0130 O   0  0  0  0  0  0  0  0  0  0  0  0
  183.1070  179.4510  140.6730 C   0  0  1  0  0  3  0  0  0  0  0  0
  183.3890  178.4770  141.8310 C   0  0  2  0  0  3  0  0  0  0  0  0
  182.2000  178.0310  142.4220 O   0  0  0  0  0  0  0  0  0  0  0  0
  180.4850  177.0200  140.7230 O   0  0  0  0  0  0  0  0  0  0  0  0
  184.2470  179.4560  139.7090 C   0  0  0  0  0  0  0  0  0  0  0  0
  184.4080  180.5110  138.8200 O   0  0  0  0  0  0  0  0  0  0  0  0
  185.0510  178.4830  139.6770 O   0  0  0  0  0  1  0  0  0  0  0  0
  178.9310  178.6970  142.7200 O   0  0  0  0  0  1  0  0  0  0  0  0
  179.7490  179.4180  141.8500 C   0  0  0  0  0  0  0  0  0  0  0  0
  180.3340  180.4830  142.5390 O   0  0  0  0  0  1  0  0  0  0  0  0
  178.9310  179.9410  140.6740 C   0  0  0  0  0  2  0  0  0  0  0  0
  179.2750  181.3870  140.3460 C   0  0  0  0  0  1  0  0  0  0  0  0
  191.9530  177.6900  141.6360 C   0  0  0  0  0  2  0  0  0  0  0  0
  192.8650  176.7160  141.2200 O   0  0  0  0  0  0  0  0  0  0  0  0
  192.5590  177.2670  138.9130 C   0  0  0  0  0  3  0  0  0  0  0  0
  194.6040  176.4440  139.7420 O   0  0  0  0  0  0  0  0  0  0  0  0
  194.4070  175.8610  138.5140 C   0  0  0  0  0  0  0  0  0  0  0  0
  195.2680  175.0260  138.0080 N   0  0  0  0  0  0  0  0  0  0  0  0
  193.5160  177.2710  140.1130 C   0  0  2  0  0  3  0  0  0  0  0  0
  193.1290  176.2810  137.8940 C   0  0  0  0  0  3  0  0  0  0  0  0
  196.3210  174.6420  135.7330 C   0  0  0  0  0  2  0  0  0  0  0  0
  194.8870  175.1090  135.4820 C   0  0  0  0  0  2  0  0  0  0  0  0
  195.2240  174.3120  136.7240 C   0  0  0  0  0  0  0  0  0  0  0  0
  193.7010  172.4930  135.9270 C   0  0  0  0  0  3  0  0  0  0  0  0
  194.7570  172.8910  136.7570 C   0  0  0  0  0  0  0  0  0  0  0  0
  196.4710  172.2890  138.3310 F   0  0  0  0  0  0  0  0  0  0  0  0
  193.9320  170.2140  136.7070 C   0  0  0  0  0  3  0  0  0  0  0  0
  193.2850  171.1580  135.9080 C   0  0  0  0  0  3  0  0  0  0  0  0
  195.4200  171.9320  137.5470 C   0  0  0  0  0  0  0  0  0  0  0  0
  195.0010  170.5990  137.5240 C   0  0  0  0  0  3  0  0  0  0  0  0
  1 12  1  6  0  0  0
  1  2  1  0  0  0  0
  2 14  1  0  0  0  0
  2 31  1  1  0  0  0
  3 13  1  6  0  0  0
  3  1  1  0  0  0  0
  3  9  1  0  0  0  0
  4  6  1  0  0  0  0
  5  7  1  0  0  0  0
  5  4  2  0  0  0  0
  6 12  2  0  0  0  0
  8 13  1  0  0  0  0
  9 50  1  6  0  0  0
  9 14  1  0  0  0  0
 10  7  1  6  0  0  0
 10  8  1  0  0  0  0
 10  6  1  0  0  0  0
 11  7  2  0  0  0  0
 15 11  1  0  0  0  0
 16 15  2  0  0  0  0
 17 20  1  0  0  0  0
 17 15  1  0  0  0  0
 19 23  1  0  0  0  0
 20 21  2  0  0  0  0
 20 27  1  0  0  0  0
 21 29  1  0  0  0  0
 22 29  1  0  0  0  0
 22 26  1  1  0  0  0
 23 25  1  0  0  0  0
 24 21  1  0  0  0  0
 24 22  1  0  0  0  0
 24 19  1  1  0  0  0
 26 25  1  0  0  0  0
 27 30  2  0  0  0  0
 28 18  2  0  0  0  0
 29 28  1  0  0  0  0
 30 18  1  0  0  0  0
 32 31  1  0  0  0  0
 33 32  1  0  0  0  0
 34 33  1  0  0  0  0
 35 34  1  0  0  0  0
 36 41  2  6  0  0  0
 36 46  1  0  0  0  0
 36 40  1  0  0  0  0
 37 38  1  0  0  0  0
 37 36  1  0  0  0  0
 38 42  1  6  0  0  0
 38 39  1  0  0  0  0
 39 40  1  0  0  0  0
 39 35  1  1  0  0  0
 43 42  2  0  0  0  0
 44 42  1  0  0  0  0
 46 47  1  0  0  0  0
 46 45  1  0  0  0  0
 48 46  1  0  0  0  0
 49 48  1  0  0  0  0
 51 50  1  0  0  0  0
 52 56  1  0  0  0  0
 53 56  1  0  0  0  0
 54 53  1  0  0  0  0
 55 54  2  0  0  0  0
 56 51  1  1  0  0  0
 57 54  1  0  0  0  0
 57 52  2  0  0  0  0
 58 60  1  0  0  0  0
 59 58  1  0  0  0  0
 59 60  1  0  0  0  0
 60 62  1  0  0  0  0
 60 55  1  0  0  0  0
 61 62  1  0  0  0  0
 62 66  2  0  0  0  0
 64 67  2  0  0  0  0
 65 61  2  0  0  0  0
 65 64  1  0  0  0  0
 66 63  1  0  0  0  0
 67 66  1  0  0  0  0
M  END
>  <MODEL>
3

>  <REMARK>
 VINA RESULT:      -5.5      3.131      9.209
  Name = 
  16 active torsions:
  status: ('A' for Active; 'I' for Inactive)
    1  A    between atoms: C_3  and  C_31
    2  A    between atoms: C_5  and  N_32
    3  A    between atoms: C_6  and  N_43
    4  A    between atoms: C_7  and  N_32
    5  A    between atoms: C_7  and  O_41
    6  A    between atoms: C_13  and  N_33
    7  A    between atoms: P_16  and  C_62
    8  A    between atoms: C_19  and  C_66
    9  A    between atoms: O_36  and  C_45
   10  A    between atoms: O_36  and  C_57
   11  A    between atoms: C_38  and  C_45
   12  A    between atoms: O_41  and  C_61
   13  A    between atoms: C_44  and  C_67
   14  A    between atoms: N_53  and  C_66
   15  A    between atoms: C_54  and  C_62
   16  A    between atoms: C_61  and  C_67
                            x       y       z     vdW  Elec       q    Type
                         _______ _______ _______ _____ _____    ______ ____

>  <TORSDO>
F 16

$$$$
=
 OpenBabel10222417363D

 67 76  0  0  1  0  0  0  0  0999 V2000
  187.9120  177.2510  138.5490 C   0  0  2  0  0  3  0  0  0  0  0  0
  186.5530  177.9320  138.5920 C   0  0  2  0  0  3  0  0  0  0  0  0
  188.6270  178.1380  137.5680 C   0  0  2  0  0  3  0  0  0  0  0  0
  188.1490  173.6140  137.1470 C   0  0  0  0  0  3  0  0  0  0  0  0
  189.3610  173.0440  136.4270 C   0  0  0  0  0  3  0  0  0  0  0  0
  188.5340  175.0070  137.5210 C   0  0  0  0  0  0  0  0  0  0  0  0
  190.3590  174.1560  136.3970 C   0  0  0  0  0  0  0  0  0  0  0  0
  189.8410  176.4920  136.1650 N   0  0  0  0  0  2  0  0  0  0  0  0
  187.5510  178.7380  136.6960 C   0  0  2  0  0  3  0  0  0  0  0  0
  189.9110  175.3830  137.1010 C   0  0  1  0  0  3  0  0  0  0  0  0
  191.4780  174.1230  135.7320 N   0  0  0  0  0  0  0  0  0  0  0  0
  187.6570  175.8360  138.0980 C   0  0  0  0  0  3  0  0  0  0  0  0
  189.9630  177.7120  136.9460 C   0  0  0  0  0  2  0  0  0  0  0  0
  186.3650  178.7640  137.4570 O   0  0  0  0  0  0  0  0  0  0  0  0
  192.0010  172.9870  135.0230 C   0  0  0  0  0  0  0  0  0  0  0  0
  191.2270  172.0910  134.5950 O   0  0  0  0  0  0  0  0  0  0  0  0
  193.4110  172.8300  134.8270 N   0  0  0  0  0  2  0  0  0  0  0  0
  196.2950  176.5340  135.1740 C   0  0  0  0  0  3  0  0  0  0  0  0
  196.2750  171.2260  135.7590 C   0  0  0  0  0  2  0  0  0  0  0  0
  194.4170  173.8410  134.9600 C   0  0  0  0  0  0  0  0  0  0  0  0
  195.6870  173.4860  134.8330 C   0  0  0  0  0  0  0  0  0  0  0  0
  197.6760  173.0100  134.6170 C   0  0  2  0  0  3  0  0  0  0  0  0
  196.8470  171.7160  136.9410 O   0  0  0  0  0  0  0  0  0  0  0  0
  196.4490  172.2170  134.5940 C   0  0  1  0  0  3  0  0  0  0  0  0
  198.2250  171.6510  136.7240 C   0  0  0  0  0  2  0  0  0  0  0  0
  198.6520  172.7820  135.7920 C   0  0  0  0  0  2  0  0  0  0  0  0
  194.0490  175.2580  135.1660 C   0  0  0  0  0  3  0  0  0  0  0  0
  197.2470  175.6180  134.9890 C   0  0  0  0  0  3  0  0  0  0  0  0
  196.9460  174.2430  134.8380 N   0  0  0  0  0  0  0  0  0  0  0  0
  194.8230  176.3540  135.2550 C   0  0  0  0  0  3  0  0  0  0  0  0
  186.4020  178.7180  139.8100 N   0  0  0  0  0  2  0  0  0  0  0  0
  185.0090  178.6570  140.2290 C   0  0  0  0  0  2  0  0  0  0  0  0
  184.8620  179.2140  141.5080 O   0  0  0  0  0  0  0  0  0  0  0  0
  185.9660  178.7660  142.2330 C   0  0  0  0  0  2  0  0  0  0  0  0
  185.5670  177.5900  143.1160 C   0  0  0  0  0  2  0  0  0  0  0  0
  189.1040  177.0320  144.1450 P   0  0  2  0  0  0  0  0  0  0  0  0
  188.5350  178.1120  145.2980 O   0  0  0  0  0  0  0  0  0  0  0  0
  187.2400  178.3760  144.8470 C   0  0  1  0  0  3  0  0  0  0  0  0
  186.6960  177.1740  144.0540 C   0  0  2  0  0  3  0  0  0  0  0  0
  187.7170  176.5320  143.3410 O   0  0  0  0  0  0  0  0  0  0  0  0
  189.7720  175.8520  144.8120 O   0  0  0  0  0  0  0  0  0  0  0  0
  186.3500  178.6760  146.0080 C   0  0  0  0  0  0  0  0  0  0  0  0
  185.1030  179.2540  145.8040 O   0  0  0  0  0  0  0  0  0  0  0  0
  186.7430  178.4360  147.1840 O   0  0  0  0  0  1  0  0  0  0  0  0
  190.0030  179.2420  143.0500 O   0  0  0  0  0  1  0  0  0  0  0  0
  190.2390  177.8680  143.0010 C   0  0  0  0  0  0  0  0  0  0  0  0
  191.5540  177.6090  143.3930 O   0  0  0  0  0  1  0  0  0  0  0  0
  190.0010  177.3460  141.5880 C   0  0  0  0  0  2  0  0  0  0  0  0
  191.2600  177.4320  140.7360 C   0  0  0  0  0  1  0  0  0  0  0  0
  187.3060  177.9340  135.4270 C   0  0  0  0  0  2  0  0  0  0  0  0
  185.9320  177.8820  135.1720 O   0  0  0  0  0  0  0  0  0  0  0  0
  185.1100  175.7120  134.5930 C   0  0  0  0  0  3  0  0  0  0  0  0
  184.3180  176.8900  136.4720 O   0  0  0  0  0  0  0  0  0  0  0  0
  183.2330  176.2670  135.9050 C   0  0  0  0  0  0  0  0  0  0  0  0
  182.0390  176.3800  136.4100 N   0  0  0  0  0  0  0  0  0  0  0  0
  185.5010  176.6710  135.7250 C   0  0  2  0  0  3  0  0  0  0  0  0
  183.5980  175.5070  134.6870 C   0  0  0  0  0  3  0  0  0  0  0  0
  180.2400  176.3130  134.6240 C   0  0  0  0  0  2  0  0  0  0  0  0
  179.5460  176.6800  135.9360 C   0  0  0  0  0  2  0  0  0  0  0  0
  180.7740  175.7950  135.9430 C   0  0  0  0  0  0  0  0  0  0  0  0
  180.8400  173.3930  135.2410 C   0  0  0  0  0  3  0  0  0  0  0  0
  180.5540  174.3440  136.2300 C   0  0  0  0  0  0  0  0  0  0  0  0
  179.8990  174.8170  138.4940 F   0  0  0  0  0  0  0  0  0  0  0  0
  180.2660  171.6090  136.7720 C   0  0  0  0  0  3  0  0  0  0  0  0
  180.6890  172.0290  135.5100 C   0  0  0  0  0  3  0  0  0  0  0  0
  180.1460  173.9150  137.5080 C   0  0  0  0  0  0  0  0  0  0  0  0
  179.9970  172.5510  137.7720 C   0  0  0  0  0  3  0  0  0  0  0  0
  1 12  1  6  0  0  0
  1  2  1  0  0  0  0
  2 31  1  1  0  0  0
  3 13  1  6  0  0  0
  3  1  1  0  0  0  0
  4  6  1  0  0  0  0
  5  4  2  0  0  0  0
  6 12  2  0  0  0  0
  7  5  1  0  0  0  0
  7 10  1  0  0  0  0
  8 13  1  0  0  0  0
  9 50  1  6  0  0  0
  9 14  1  0  0  0  0
  9  3  1  0  0  0  0
 10  8  1  6  0  0  0
 10  6  1  0  0  0  0
 11  7  2  0  0  0  0
 14  2  1  0  0  0  0
 15 11  1  0  0  0  0
 16 15  2  0  0  0  0
 17 20  1  0  0  0  0
 17 15  1  0  0  0  0
 18 30  1  0  0  0  0
 19 23  1  0  0  0  0
 20 27  1  0  0  0  0
 21 29  1  0  0  0  0
 21 20  2  0  0  0  0
 22 29  1  0  0  0  0
 22 26  1  1  0  0  0
 24 22  1  0  0  0  0
 24 21  1  0  0  0  0
 24 19  1  1  0  0  0
 25 23  1  0  0  0  0
 26 25  1  0  0  0  0
 27 30  2  0  0  0  0
 28 18  2  0  0  0  0
 29 28  1  0  0  0  0
 31 32  1  0  0  0  0
 32 33  1  0  0  0  0
 33 34  1  0  0  0  0
 34 35  1  0  0  0  0
 36 41  2  1  0  0  0
 36 37  1  0  0  0  0
 38 37  1  0  0  0  0
 38 42  1  1  0  0  0
 39 35  1  6  0  0  0
 39 38  1  0  0  0  0
 40 39  1  0  0  0  0
 40 36  1  0  0  0  0
 42 44  1  0  0  0  0
 43 42  2  0  0  0  0
 46 45  1  0  0  0  0
 46 47  1  0  0  0  0
 46 36  1  0  0  0  0
 48 46  1  0  0  0  0
 49 48  1  0  0  0  0
 51 50  1  0  0  0  0
 52 57  2  0  0  0  0
 52 56  1  0  0  0  0
 54 55  2  0  0  0  0
 54 53  1  0  0  0  0
 56 51  1  6  0  0  0
 56 53  1  0  0  0  0
 57 54  1  0  0  0  0
 58 59  1  0  0  0  0
 58 60  1  0  0  0  0
 59 60  1  0  0  0  0
 60 62  1  0  0  0  0
 60 55  1  0  0  0  0
 61 65  2  0  0  0  0
 61 62  1  0  0  0  0
 62 66  2  0  0  0  0
 64 67  2  0  0  0  0
 65 64  1  0  0  0  0
 66 67  1  0  0  0  0
 66 63  1  0  0  0  0
M  END
>  <MODEL>
4

>  <REMARK>
 VINA RESULT:      -5.1      2.149      3.559
  Name = 
  16 active torsions:
  status: ('A' for Active; 'I' for Inactive)
    1  A    between atoms: C_3  and  C_31
    2  A    between atoms: C_5  and  N_32
    3  A    between atoms: C_6  and  N_43
    4  A    between atoms: C_7  and  N_32
    5  A    between atoms: C_7  and  O_41
    6  A    between atoms: C_13  and  N_33
    7  A    between atoms: P_16  and  C_62
    8  A    between atoms: C_19  and  C_66
    9  A    between atoms: O_36  and  C_45
   10  A    between atoms: O_36  and  C_57
   11  A    between atoms: C_38  and  C_45
   12  A    between atoms: O_41  and  C_61
   13  A    between atoms: C_44  and  C_67
   14  A    between atoms: N_53  and  C_66
   15  A    between atoms: C_54  and  C_62
   16  A    between atoms: C_61  and  C_67
                            x       y       z     vdW  Elec       q    Type
                         _______ _______ _______ _____ _____    ______ ____

>  <TORSDO>
F 16

$$$$
=
 OpenBabel10222417363D

 67 76  0  0  1  0  0  0  0  0999 V2000
  189.1380  176.8620  139.5730 C   0  0  2  0  0  3  0  0  0  0  0  0
  187.9810  177.8310  139.7540 C   0  0  2  0  0  3  0  0  0  0  0  0
  190.1790  177.7880  139.0070 C   0  0  2  0  0  3  0  0  0  0  0  0
  188.7510  173.9270  137.0260 C   0  0  0  0  0  3  0  0  0  0  0  0
  189.8960  173.3110  136.2380 C   0  0  0  0  0  3  0  0  0  0  0  0
  189.3820  174.9750  137.8810 C   0  0  0  0  0  0  0  0  0  0  0  0
  191.1140  174.0680  136.6590 C   0  0  0  0  0  0  0  0  0  0  0  0
  191.1850  176.4060  137.2100 N   0  0  0  0  0  2  0  0  0  0  0  0
  189.4150  178.8960  138.3240 C   0  0  2  0  0  3  0  0  0  0  0  0
  190.8560  175.0830  137.7100 C   0  0  1  0  0  3  0  0  0  0  0  0
  192.2840  173.9480  136.1010 N   0  0  0  0  0  0  0  0  0  0  0  0
  188.6390  175.7820  138.6460 C   0  0  0  0  0  3  0  0  0  0  0  0
  191.4610  177.2390  138.3690 C   0  0  0  0  0  2  0  0  0  0  0  0
  188.1640  178.9960  138.9650 O   0  0  0  0  0  0  0  0  0  0  0  0
  192.6370  172.9980  135.0830 C   0  0  0  0  0  0  0  0  0  0  0  0
  191.7750  172.1990  134.6300 O   0  0  0  0  0  0  0  0  0  0  0  0
  193.9800  172.9100  134.5940 N   0  0  0  0  0  2  0  0  0  0  0  0
  197.0020  176.5060  134.8970 C   0  0  0  0  0  3  0  0  0  0  0  0
  196.6080  171.3110  136.0720 C   0  0  0  0  0  2  0  0  0  0  0  0
  195.0170  173.8870  134.7430 C   0  0  0  0  0  0  0  0  0  0  0  0
  196.2700  173.4670  134.8270 C   0  0  0  0  0  0  0  0  0  0  0  0
  198.2410  172.8860  134.9300 C   0  0  2  0  0  3  0  0  0  0  0  0
  197.0530  171.9150  137.2550 O   0  0  0  0  0  0  0  0  0  0  0  0
  196.9840  172.1480  134.8350 C   0  0  1  0  0  3  0  0  0  0  0  0
  198.4410  171.7670  137.2310 C   0  0  0  0  0  2  0  0  0  0  0  0
  199.0460  172.7610  136.2430 C   0  0  0  0  0  2  0  0  0  0  0  0
  194.7070  175.3320  134.7370 C   0  0  0  0  0  3  0  0  0  0  0  0
  197.9160  175.5360  134.9440 C   0  0  0  0  0  3  0  0  0  0  0  0
  197.5590  174.1660  134.9120 N   0  0  0  0  0  0  0  0  0  0  0  0
  195.5230  176.3980  134.8030 C   0  0  0  0  0  3  0  0  0  0  0  0
  187.8280  178.2040  141.1560 N   0  0  0  0  0  2  0  0  0  0  0  0
  186.7110  179.1310  141.2680 C   0  0  0  0  0  2  0  0  0  0  0  0
  185.6480  178.5280  141.9540 O   0  0  0  0  0  0  0  0  0  0  0  0
  186.2410  177.5980  142.8080 C   0  0  0  0  0  2  0  0  0  0  0  0
  185.4930  177.5580  144.1350 C   0  0  0  0  0  2  0  0  0  0  0  0
  188.7940  177.2770  145.8380 P   0  0  2  0  0  0  0  0  0  0  0  0
  188.0740  178.5830  146.6100 O   0  0  0  0  0  0  0  0  0  0  0  0
  186.8790  178.7270  145.9020 C   0  0  1  0  0  3  0  0  0  0  0  0
  186.4400  177.3730  145.3160 C   0  0  2  0  0  3  0  0  0  0  0  0
  187.5450  176.5970  144.9450 O   0  0  0  0  0  0  0  0  0  0  0  0
  189.3100  176.2840  146.8530 O   0  0  0  0  0  0  0  0  0  0  0  0
  185.8190  179.2710  146.8010 C   0  0  0  0  0  0  0  0  0  0  0  0
  184.4770  179.0430  146.5210 O   0  0  0  0  0  0  0  0  0  0  0  0
  186.1380  179.9720  147.8020 O   0  0  0  0  0  1  0  0  0  0  0  0
  189.6130  178.7980  143.8600 O   0  0  0  0  0  1  0  0  0  0  0  0
  190.1260  177.8470  144.7420 C   0  0  0  0  0  0  0  0  0  0  0  0
  191.1340  178.4270  145.5150 O   0  0  0  0  0  1  0  0  0  0  0  0
  190.6790  176.6570  143.9660 C   0  0  0  0  0  2  0  0  0  0  0  0
  191.9280  176.0860  144.6240 C   0  0  0  0  0  1  0  0  0  0  0  0
  189.1900  178.6280  136.8420 C   0  0  0  0  0  2  0  0  0  0  0  0
  187.8320  178.7840  136.5450 O   0  0  0  0  0  0  0  0  0  0  0  0
  186.6310  178.1020  134.5940 C   0  0  0  0  0  3  0  0  0  0  0  0
  186.6730  176.8000  136.5560 O   0  0  0  0  0  0  0  0  0  0  0  0
  185.3980  176.7210  136.0510 C   0  0  0  0  0  0  0  0  0  0  0  0
  184.4730  176.0180  136.6380 N   0  0  0  0  0  0  0  0  0  0  0  0
  187.4920  177.6600  135.7840 C   0  0  2  0  0  3  0  0  0  0  0  0
  185.2330  177.5270  134.8190 C   0  0  0  0  0  3  0  0  0  0  0  0
  182.5190  174.4190  136.4070 C   0  0  0  0  0  2  0  0  0  0  0  0
  182.7880  174.9920  135.0150 C   0  0  0  0  0  2  0  0  0  0  0  0
  183.0690  175.8210  136.2500 C   0  0  0  0  0  0  0  0  0  0  0  0
  182.5710  178.0520  137.2700 C   0  0  0  0  0  3  0  0  0  0  0  0
  182.1250  176.9460  136.5330 C   0  0  0  0  0  0  0  0  0  0  0  0
  180.3810  175.9020  135.2490 F   0  0  0  0  0  0  0  0  0  0  0  0
  180.4190  179.1240  136.9840 C   0  0  0  0  0  3  0  0  0  0  0  0
  181.7170  179.1350  137.5000 C   0  0  0  0  0  3  0  0  0  0  0  0
  180.8230  176.9470  135.9970 C   0  0  0  0  0  0  0  0  0  0  0  0
  179.9730  178.0320  136.2300 C   0  0  0  0  0  3  0  0  0  0  0  0
  1 12  1  6  0  0  0
  1  2  1  0  0  0  0
  2 31  1  1  0  0  0
  3 13  1  6  0  0  0
  3  1  1  0  0  0  0
  4  6  1  0  0  0  0
  5  7  1  0  0  0  0
  5  4  2  0  0  0  0
  6 12  2  0  0  0  0
  8 10  1  0  0  0  0
  8 13  1  0  0  0  0
  9 50  1  6  0  0  0
  9 14  1  0  0  0  0
  9  3  1  0  0  0  0
 10  7  1  6  0  0  0
 10  6  1  0  0  0  0
 11  7  2  0  0  0  0
 14  2  1  0  0  0  0
 15 11  1  0  0  0  0
 16 15  2  0  0  0  0
 17 20  1  0  0  0  0
 17 15  1  0  0  0  0
 18 28  2  0  0  0  0
 19 23  1  0  0  0  0
 20 21  2  0  0  0  0
 21 24  1  0  0  0  0
 21 29  1  0  0  0  0
 22 26  1  1  0  0  0
 24 22  1  0  0  0  0
 24 19  1  1  0  0  0
 25 23  1  0  0  0  0
 26 25  1  0  0  0  0
 27 20  1  0  0  0  0
 27 30  2  0  0  0  0
 29 22  1  0  0  0  0
 29 28  1  0  0  0  0
 30 18  1  0  0  0  0
 31 32  1  0  0  0  0
 32 33  1  0  0  0  0
 33 34  1  0  0  0  0
 34 35  1  0  0  0  0
 36 37  1  0  0  0  0
 36 41  2  1  0  0  0
 38 37  1  0  0  0  0
 38 42  1  1  0  0  0
 39 35  1  6  0  0  0
 39 38  1  0  0  0  0
 40 39  1  0  0  0  0
 40 36  1  0  0  0  0
 42 44  1  0  0  0  0
 43 42  2  0  0  0  0
 45 46  1  0  0  0  0
 46 47  1  0  0  0  0
 46 36  1  0  0  0  0
 48 49  1  0  0  0  0
 48 46  1  0  0  0  0
 51 50  1  0  0  0  0
 52 57  2  0  0  0  0
 52 56  1  0  0  0  0
 54 53  1  0  0  0  0
 54 55  2  0  0  0  0
 56 51  1  1  0  0  0
 56 53  1  0  0  0  0
 57 54  1  0  0  0  0
 59 60  1  0  0  0  0
 59 58  1  0  0  0  0
 60 58  1  0  0  0  0
 60 62  1  0  0  0  0
 60 55  1  0  0  0  0
 61 65  1  0  0  0  0
 62 61  2  0  0  0  0
 63 66  1  0  0  0  0
 64 65  2  0  0  0  0
 66 67  2  0  0  0  0
 66 62  1  0  0  0  0
 67 64  1  0  0  0  0
M  END
>  <MODEL>
5

>  <REMARK>
 VINA RESULT:      -4.7      2.249      3.484
  Name = 
  16 active torsions:
  status: ('A' for Active; 'I' for Inactive)
    1  A    between atoms: C_3  and  C_31
    2  A    between atoms: C_5  and  N_32
    3  A    between atoms: C_6  and  N_43
    4  A    between atoms: C_7  and  N_32
    5  A    between atoms: C_7  and  O_41
    6  A    between atoms: C_13  and  N_33
    7  A    between atoms: P_16  and  C_62
    8  A    between atoms: C_19  and  C_66
    9  A    between atoms: O_36  and  C_45
   10  A    between atoms: O_36  and  C_57
   11  A    between atoms: C_38  and  C_45
   12  A    between atoms: O_41  and  C_61
   13  A    between atoms: C_44  and  C_67
   14  A    between atoms: N_53  and  C_66
   15  A    between atoms: C_54  and  C_62
   16  A    between atoms: C_61  and  C_67
                            x       y       z     vdW  Elec       q    Type
                         _______ _______ _______ _____ _____    ______ ____

>  <TORSDO>
F 16

$$$$
=
 OpenBabel10222417363D

 67 76  0  0  1  0  0  0  0  0999 V2000
  186.1440  177.9830  140.3080 C   0  0  2  0  0  3  0  0  0  0  0  0
  187.2300  178.8810  140.8770 C   0  0  2  0  0  3  0  0  0  0  0  0
  186.9100  177.2970  139.2100 C   0  0  2  0  0  3  0  0  0  0  0  0
  183.0270  179.6340  138.6320 C   0  0  0  0  0  3  0  0  0  0  0  0
  182.2330  179.0180  137.4900 C   0  0  0  0  0  3  0  0  0  0  0  0
  184.0890  178.6360  138.9550 C   0  0  0  0  0  0  0  0  0  0  0  0
  182.9090  177.7170  137.1990 C   0  0  0  0  0  0  0  0  0  0  0  0
  185.2730  177.3070  137.3470 N   0  0  0  0  0  2  0  0  0  0  0  0
  188.0130  178.2510  138.8220 C   0  0  2  0  0  3  0  0  0  0  0  0
  184.0410  177.4120  138.1090 C   0  0  1  0  0  3  0  0  0  0  0  0
  182.6270  176.9530  136.1830 N   0  0  0  0  0  0  0  0  0  0  0  0
  185.0320  178.9000  139.8660 C   0  0  0  0  0  3  0  0  0  0  0  0
  186.1840  176.4880  138.1280 C   0  0  0  0  0  2  0  0  0  0  0  0
  188.2910  179.0480  139.9500 O   0  0  0  0  0  0  0  0  0  0  0  0
  181.5540  177.1570  135.2500 C   0  0  0  0  0  0  0  0  0  0  0  0
  181.4750  178.2290  134.5940 O   0  0  0  0  0  0  0  0  0  0  0  0
  180.5320  176.1680  135.0780 N   0  0  0  0  0  2  0  0  0  0  0  0
  180.8660  171.5390  135.8660 C   0  0  0  0  0  3  0  0  0  0  0  0
  180.0130  176.1340  138.4500 C   0  0  0  0  0  2  0  0  0  0  0  0
  180.5860  174.7950  135.4820 C   0  0  0  0  0  0  0  0  0  0  0  0
  179.9600  174.4420  136.5950 C   0  0  0  0  0  0  0  0  0  0  0  0
  178.9830  173.8190  138.2940 C   0  0  2  0  0  3  0  0  0  0  0  0
  181.0250  175.4940  139.1790 O   0  0  0  0  0  0  0  0  0  0  0  0
  179.1590  175.1240  137.6630 C   0  0  1  0  0  3  0  0  0  0  0  0
  180.3560  174.8320  140.2110 C   0  0  0  0  0  2  0  0  0  0  0  0
  179.6670  173.5860  139.6590 C   0  0  0  0  0  2  0  0  0  0  0  0
  181.2650  173.7820  134.6470 C   0  0  0  0  0  3  0  0  0  0  0  0
  180.1440  171.8260  136.9500 C   0  0  0  0  0  3  0  0  0  0  0  0
  179.7470  173.1490  137.2590 N   0  0  0  0  0  0  0  0  0  0  0  0
  181.3780  172.4520  134.8110 C   0  0  0  0  0  3  0  0  0  0  0  0
  187.7490  178.3430  142.1290 N   0  0  0  0  0  2  0  0  0  0  0  0
  186.6360  177.8050  142.8970 C   0  0  0  0  0  2  0  0  0  0  0  0
  186.5650  178.4280  144.1510 O   0  0  0  0  0  0  0  0  0  0  0  0
  186.8890  177.4350  145.0750 C   0  0  0  0  0  2  0  0  0  0  0  0
  188.2100  177.7710  145.7580 C   0  0  0  0  0  2  0  0  0  0  0  0
  190.8800  176.1940  143.6930 P   0  0  2  0  0  0  0  0  0  0  0  0
  191.6810  176.5990  145.1120 O   0  0  0  0  0  0  0  0  0  0  0  0
  190.6900  177.2650  145.8360 C   0  0  1  0  0  3  0  0  0  0  0  0
  189.2970  176.7520  145.4270 C   0  0  2  0  0  3  0  0  0  0  0  0
  189.2580  176.4140  144.0680 O   0  0  0  0  0  0  0  0  0  0  0  0
  191.1400  174.7480  143.3360 O   0  0  0  0  0  0  0  0  0  0  0  0
  190.9070  177.0630  147.2990 C   0  0  0  0  0  0  0  0  0  0  0  0
  192.1010  176.5230  147.7620 O   0  0  0  0  0  0  0  0  0  0  0  0
  189.9920  177.3510  148.1190 O   0  0  0  0  0  1  0  0  0  0  0  0
  191.2000  178.6240  142.7540 O   0  0  0  0  0  1  0  0  0  0  0  0
  191.3800  177.3020  142.3450 C   0  0  0  0  0  0  0  0  0  0  0  0
  192.7300  177.0860  142.0550 O   0  0  0  0  0  1  0  0  0  0  0  0
  190.5270  177.0130  141.1150 C   0  0  0  0  0  2  0  0  0  0  0  0
  191.3820  176.7840  139.8770 C   0  0  0  0  0  1  0  0  0  0  0  0
  187.6260  179.1560  137.6610 C   0  0  0  0  0  2  0  0  0  0  0  0
  187.3090  178.3710  136.5480 O   0  0  0  0  0  0  0  0  0  0  0  0
  188.2790  177.3920  134.5940 C   0  0  0  0  0  3  0  0  0  0  0  0
  189.5620  177.9220  136.4960 O   0  0  0  0  0  0  0  0  0  0  0  0
  190.0360  176.7260  136.0150 C   0  0  0  0  0  0  0  0  0  0  0  0
  191.0220  176.1000  136.5910 N   0  0  0  0  0  0  0  0  0  0  0  0
  188.4550  178.3900  135.7460 C   0  0  2  0  0  3  0  0  0  0  0  0
  189.2870  176.2660  134.8230 C   0  0  0  0  0  3  0  0  0  0  0  0
  191.2720  174.2500  134.8750 C   0  0  0  0  0  2  0  0  0  0  0  0
  190.7770  173.5930  136.1630 C   0  0  0  0  0  2  0  0  0  0  0  0
  191.6540  174.8250  136.2230 C   0  0  0  0  0  0  0  0  0  0  0  0
  193.3730  173.5800  137.5490 C   0  0  0  0  0  3  0  0  0  0  0  0
  193.0690  174.6210  136.6610 C   0  0  0  0  0  0  0  0  0  0  0  0
  193.8420  176.3980  135.2380 F   0  0  0  0  0  0  0  0  0  0  0  0
  195.7250  174.1370  137.4140 C   0  0  0  0  0  3  0  0  0  0  0  0
  194.6980  173.3440  137.9300 C   0  0  0  0  0  3  0  0  0  0  0  0
  194.1100  175.4070  136.1280 C   0  0  0  0  0  0  0  0  0  0  0  0
  195.4320  175.1660  136.5120 C   0  0  0  0  0  3  0  0  0  0  0  0
  1 12  1  6  0  0  0
  1  2  1  0  0  0  0
  2 31  1  1  0  0  0
  3 13  1  6  0  0  0
  3  1  1  0  0  0  0
  4  6  1  0  0  0  0
  5  4  2  0  0  0  0
  6 12  2  0  0  0  0
  7  5  1  0  0  0  0
  8 10  1  0  0  0  0
  8 13  1  0  0  0  0
  9 50  1  6  0  0  0
  9  3  1  0  0  0  0
  9 14  1  0  0  0  0
 10  7  1  6  0  0  0
 10  6  1  0  0  0  0
 11  7  2  0  0  0  0
 14  2  1  0  0  0  0
 15 11  1  0  0  0  0
 16 15  2  0  0  0  0
 17 15  1  0  0  0  0
 17 20  1  0  0  0  0
 18 28  2  0  0  0  0
 19 23  1  0  0  0  0
 20 21  2  0  0  0  0
 21 29  1  0  0  0  0
 21 24  1  0  0  0  0
 22 26  1  1  0  0  0
 23 25  1  0  0  0  0
 24 22  1  0  0  0  0
 24 19  1  1  0  0  0
 26 25  1  0  0  0  0
 27 30  2  0  0  0  0
 27 20  1  0  0  0  0
 28 29  1  0  0  0  0
 29 22  1  0  0  0  0
 30 18  1  0  0  0  0
 31 32  1  0  0  0  0
 32 33  1  0  0  0  0
 33 34  1  0  0  0  0
 34 35  1  0  0  0  0
 36 41  2  6  0  0  0
 36 40  1  0  0  0  0
 36 37  1  0  0  0  0
 37 38  1  0  0  0  0
 38 42  1  1  0  0  0
 39 35  1  6  0  0  0
 39 38  1  0  0  0  0
 40 39  1  0  0  0  0
 42 43  2  0  0  0  0
 42 44  1  0  0  0  0
 46 45  1  0  0  0  0
 46 36  1  0  0  0  0
 47 46  1  0  0  0  0
 48 46  1  0  0  0  0
 49 48  1  0  0  0  0
 51 50  1  0  0  0  0
 52 57  2  0  0  0  0
 52 56  1  0  0  0  0
 54 53  1  0  0  0  0
 54 55  2  0  0  0  0
 56 53  1  0  0  0  0
 56 51  1  1  0  0  0
 57 54  1  0  0  0  0
 58 59  1  0  0  0  0
 58 60  1  0  0  0  0
 59 60  1  0  0  0  0
 60 55  1  0  0  0  0
 60 62  1  0  0  0  0
 61 65  1  0  0  0  0
 62 61  2  0  0  0  0
 63 66  1  0  0  0  0
 64 65  2  0  0  0  0
 66 67  2  0  0  0  0
 66 62  1  0  0  0  0
 67 64  1  0  0  0  0
M  END
>  <MODEL>
6

>  <REMARK>
 VINA RESULT:      -4.4      2.923      9.433
  Name = 
  16 active torsions:
  status: ('A' for Active; 'I' for Inactive)
    1  A    between atoms: C_3  and  C_31
    2  A    between atoms: C_5  and  N_32
    3  A    between atoms: C_6  and  N_43
    4  A    between atoms: C_7  and  N_32
    5  A    between atoms: C_7  and  O_41
    6  A    between atoms: C_13  and  N_33
    7  A    between atoms: P_16  and  C_62
    8  A    between atoms: C_19  and  C_66
    9  A    between atoms: O_36  and  C_45
   10  A    between atoms: O_36  and  C_57
   11  A    between atoms: C_38  and  C_45
   12  A    between atoms: O_41  and  C_61
   13  A    between atoms: C_44  and  C_67
   14  A    between atoms: N_53  and  C_66
   15  A    between atoms: C_54  and  C_62
   16  A    between atoms: C_61  and  C_67
                            x       y       z     vdW  Elec       q    Type
                         _______ _______ _______ _____ _____    ______ ____

>  <TORSDO>
F 16

$$$$
=
 OpenBabel10222417363D

 67 76  0  0  1  0  0  0  0  0999 V2000
  187.6690  177.4850  140.0170 C   0  0  2  0  0  3  0  0  0  0  0  0
  189.0220  178.1250  140.2860 C   0  0  2  0  0  3  0  0  0  0  0  0
  187.9330  176.8500  138.6800 C   0  0  2  0  0  3  0  0  0  0  0  0
  184.5540  179.7960  139.5620 C   0  0  0  0  0  3  0  0  0  0  0  0
  183.3570  179.4690  138.6840 C   0  0  0  0  0  3  0  0  0  0  0  0
  185.4610  178.6160  139.4460 C   0  0  0  0  0  0  0  0  0  0  0  0
  183.6630  178.1340  138.0850 C   0  0  0  0  0  0  0  0  0  0  0  0
  185.8460  177.3600  137.4400 N   0  0  0  0  0  2  0  0  0  0  0  0
  189.0260  177.6720  138.0430 C   0  0  2  0  0  3  0  0  0  0  0  0
  184.9390  177.5420  138.5600 C   0  0  1  0  0  3  0  0  0  0  0  0
  182.9560  177.5670  137.1510 N   0  0  0  0  0  0  0  0  0  0  0  0
  186.6650  178.6100  140.0300 C   0  0  0  0  0  3  0  0  0  0  0  0
  186.7810  176.3140  137.8200 C   0  0  0  0  0  2  0  0  0  0  0  0
  189.7700  178.2570  139.0870 O   0  0  0  0  0  0  0  0  0  0  0  0
  181.7100  178.0550  136.6270 C   0  0  0  0  0  0  0  0  0  0  0  0
  181.6860  178.7340  135.5660 O   0  0  0  0  0  0  0  0  0  0  0  0
  180.4790  177.8180  137.3190 N   0  0  0  0  0  2  0  0  0  0  0  0
  179.7280  174.2320  140.2750 C   0  0  0  0  0  3  0  0  0  0  0  0
  180.5370  179.5110  140.2810 C   0  0  0  0  0  2  0  0  0  0  0  0
  180.2410  176.8470  138.3460 C   0  0  0  0  0  0  0  0  0  0  0  0
  179.7390  177.2610  139.4990 C   0  0  0  0  0  0  0  0  0  0  0  0
  178.9310  177.8310  141.3030 C   0  0  2  0  0  3  0  0  0  0  0  0
  181.4550  179.0050  141.2120 O   0  0  0  0  0  0  0  0  0  0  0  0
  179.3310  178.5690  140.1080 C   0  0  1  0  0  3  0  0  0  0  0  0
  180.8190  179.1380  142.4480 C   0  0  0  0  0  2  0  0  0  0  0  0
  179.7480  178.0590  142.5930 C   0  0  0  0  0  2  0  0  0  0  0  0
  180.4860  175.4100  138.1050 C   0  0  0  0  0  3  0  0  0  0  0  0
  179.2960  175.1950  141.0920 C   0  0  0  0  0  3  0  0  0  0  0  0
  179.3120  176.5600  140.7170 N   0  0  0  0  0  0  0  0  0  0  0  0
  180.2760  174.3460  138.8990 C   0  0  0  0  0  3  0  0  0  0  0  0
  189.7820  177.3480  141.2580 N   0  0  0  0  0  2  0  0  0  0  0  0
  189.9640  178.1570  142.4550 C   0  0  0  0  0  2  0  0  0  0  0  0
  191.2810  178.6330  142.5230 O   0  0  0  0  0  0  0  0  0  0  0  0
  191.5660  178.7320  143.8850 C   0  0  0  0  0  2  0  0  0  0  0  0
  191.1070  177.4700  144.6060 C   0  0  0  0  0  2  0  0  0  0  0  0
  188.3290  178.1260  147.0000 P   0  0  2  0  0  0  0  0  0  0  0  0
  189.0920  176.7820  147.6570 O   0  0  0  0  0  0  0  0  0  0  0  0
  190.0730  176.4990  146.7040 C   0  0  1  0  0  3  0  0  0  0  0  0
  190.4800  177.7850  145.9610 C   0  0  2  0  0  3  0  0  0  0  0  0
  189.3910  178.6520  145.8100 O   0  0  0  0  0  0  0  0  0  0  0  0
  188.1520  179.1980  148.0510 O   0  0  0  0  0  0  0  0  0  0  0  0
  191.2610  175.8840  147.3650 C   0  0  0  0  0  0  0  0  0  0  0  0
  191.3630  174.5030  147.4780 O   0  0  0  0  0  0  0  0  0  0  0  0
  192.1620  176.6190  147.8570 O   0  0  0  0  0  1  0  0  0  0  0  0
  186.9660  176.8290  145.1690 O   0  0  0  0  0  1  0  0  0  0  0  0
  186.7350  177.6540  146.2700 C   0  0  0  0  0  0  0  0  0  0  0  0
  185.9860  176.9580  147.2220 O   0  0  0  0  0  1  0  0  0  0  0  0
  185.9910  178.9120  145.8360 C   0  0  0  0  0  2  0  0  0  0  0  0
  184.5980  178.5910  145.3120 C   0  0  0  0  0  1  0  0  0  0  0  0
  188.4840  178.7760  137.1450 C   0  0  0  0  0  2  0  0  0  0  0  0
  187.6330  178.2170  136.1870 O   0  0  0  0  0  0  0  0  0  0  0  0
  188.0400  176.4700  134.6050 C   0  0  0  0  0  3  0  0  0  0  0  0
  189.7910  177.6920  135.5990 O   0  0  0  0  0  0  0  0  0  0  0  0
  190.2080  176.3850  135.5240 C   0  0  0  0  0  0  0  0  0  0  0  0
  191.3810  176.0160  135.9520 N   0  0  0  0  0  0  0  0  0  0  0  0
  188.4660  177.8500  135.1250 C   0  0  2  0  0  3  0  0  0  0  0  0
  189.1750  175.5010  134.9360 C   0  0  0  0  0  3  0  0  0  0  0  0
  191.6310  173.7740  134.7940 C   0  0  0  0  0  2  0  0  0  0  0  0
  191.0830  173.4900  136.1930 C   0  0  0  0  0  2  0  0  0  0  0  0
  191.9900  174.6780  135.9560 C   0  0  0  0  0  0  0  0  0  0  0  0
  193.6620  173.6920  137.5350 C   0  0  0  0  0  3  0  0  0  0  0  0
  193.3860  174.5730  136.4800 C   0  0  0  0  0  0  0  0  0  0  0  0
  194.2010  176.1130  134.8240 F   0  0  0  0  0  0  0  0  0  0  0  0
  196.0110  174.2630  137.4110 C   0  0  0  0  0  3  0  0  0  0  0  0
  194.9710  173.5440  138.0040 C   0  0  0  0  0  3  0  0  0  0  0  0
  194.4400  175.2820  135.8720 C   0  0  0  0  0  0  0  0  0  0  0  0
  195.7470  175.1290  136.3440 C   0  0  0  0  0  3  0  0  0  0  0  0
  1 12  1  6  0  0  0
  1  2  1  0  0  0  0
  2 31  1  1  0  0  0
  3 13  1  6  0  0  0
  3  1  1  0  0  0  0
  5  4  2  0  0  0  0
  6  4  1  0  0  0  0
  6 12  2  0  0  0  0
  7 10  1  0  0  0  0
  7  5  1  0  0  0  0
  8 13  1  0  0  0  0
  9 50  1  6  0  0  0
  9  3  1  0  0  0  0
  9 14  1  0  0  0  0
 10  8  1  6  0  0  0
 10  6  1  0  0  0  0
 11  7  2  0  0  0  0
 14  2  1  0  0  0  0
 15 11  1  0  0  0  0
 15 17  1  0  0  0  0
 16 15  2  0  0  0  0
 17 20  1  0  0  0  0
 18 28  2  0  0  0  0
 19 23  1  0  0  0  0
 20 21  2  0  0  0  0
 21 24  1  0  0  0  0
 21 29  1  0  0  0  0
 22 26  1  1  0  0  0
 23 25  1  0  0  0  0
 24 19  1  1  0  0  0
 24 22  1  0  0  0  0
 25 26  1  0  0  0  0
 27 20  1  0  0  0  0
 27 30  2  0  0  0  0
 29 28  1  0  0  0  0
 29 22  1  0  0  0  0
 30 18  1  0  0  0  0
 31 32  1  0  0  0  0
 32 33  1  0  0  0  0
 33 34  1  0  0  0  0
 34 35  1  0  0  0  0
 36 37  1  0  0  0  0
 36 41  2  1  0  0  0
 38 42  1  1  0  0  0
 38 37  1  0  0  0  0
 39 35  1  6  0  0  0
 39 38  1  0  0  0  0
 40 39  1  0  0  0  0
 40 36  1  0  0  0  0
 42 43  2  0  0  0  0
 42 44  1  0  0  0  0
 45 46  1  0  0  0  0
 46 36  1  0  0  0  0
 46 47  1  0  0  0  0
 48 46  1  0  0  0  0
 49 48  1  0  0  0  0
 51 50  1  0  0  0  0
 52 57  2  0  0  0  0
 52 56  1  0  0  0  0
 54 53  1  0  0  0  0
 54 55  2  0  0  0  0
 55 60  1  0  0  0  0
 56 53  1  0  0  0  0
 56 51  1  1  0  0  0
 57 54  1  0  0  0  0
 58 60  1  0  0  0  0
 58 59  1  0  0  0  0
 60 59  1  0  0  0  0
 60 62  1  0  0  0  0
 61 65  1  0  0  0  0
 62 61  2  0  0  0  0
 63 66  1  0  0  0  0
 64 65  2  0  0  0  0
 66 67  2  0  0  0  0
 66 62  1  0  0  0  0
 67 64  1  0  0  0  0
M  END
>  <MODEL>
7

>  <REMARK>
 VINA RESULT:      -4.2      3.012     10.065
  Name = 
  16 active torsions:
  status: ('A' for Active; 'I' for Inactive)
    1  A    between atoms: C_3  and  C_31
    2  A    between atoms: C_5  and  N_32
    3  A    between atoms: C_6  and  N_43
    4  A    between atoms: C_7  and  N_32
    5  A    between atoms: C_7  and  O_41
    6  A    between atoms: C_13  and  N_33
    7  A    between atoms: P_16  and  C_62
    8  A    between atoms: C_19  and  C_66
    9  A    between atoms: O_36  and  C_45
   10  A    between atoms: O_36  and  C_57
   11  A    between atoms: C_38  and  C_45
   12  A    between atoms: O_41  and  C_61
   13  A    between atoms: C_44  and  C_67
   14  A    between atoms: N_53  and  C_66
   15  A    between atoms: C_54  and  C_62
   16  A    between atoms: C_61  and  C_67
                            x       y       z     vdW  Elec       q    Type
                         _______ _______ _______ _____ _____    ______ ____

>  <TORSDO>
F 16

$$$$
