=
 OpenBabel10222416593D

 40 42  0  0  1  0  0  0  0  0999 V2000
  192.0930  177.5830  140.8160 C   0  0  0  0  0  3  0  0  0  0  0  0
  192.7300  177.0750  139.7610 C   0  0  0  0  0  3  0  0  0  0  0  0
  190.5880  177.4990  140.9710 C   0  0  1  0  0  3  0  0  0  0  0  0
  191.9640  176.5160  138.6440 C   0  0  0  0  0  0  0  0  0  0  0  0
  189.8880  177.2780  139.6400 C   0  0  0  0  0  3  0  0  0  0  0  0
  192.5610  175.9090  137.7150 O   0  0  0  0  0  0  0  0  0  0  0  0
  190.5120  176.7540  138.5740 C   0  0  0  0  0  0  0  0  0  0  0  0
  189.8530  176.6110  137.3080 N   0  0  0  0  0  2  0  0  0  0  0  0
  187.4740  173.8460  136.8370 C   0  0  0  0  0  0  0  0  0  0  0  0
  187.1870  172.3860  136.8240 C   0  0  0  0  0  1  0  0  0  0  0  0
  188.7120  174.4350  137.0360 C   0  0  0  0  0  0  0  0  0  0  0  0
  187.4010  176.3570  136.8180 C   0  0  0  0  0  0  0  0  0  0  0  0
  186.3270  175.0590  136.6800 S   0  0  0  0  0  0  0  0  0  0  0  0
  189.8750  173.7040  137.2460 O   0  0  0  0  0  1  0  0  0  0  0  0
  188.6820  175.8360  137.0170 C   0  0  0  0  0  0  0  0  0  0  0  0
  186.9960  177.7890  136.9770 C   0  0  0  0  0  2  0  0  0  0  0  0
  186.5020  178.0780  138.3860 C   0  0  0  0  0  2  0  0  0  0  0  0
  185.4230  178.9620  138.3420 O   0  0  0  0  0  0  0  0  0  0  0  0
  183.4010  177.7620  137.9220 C   0  0  0  0  0  1  0  0  0  0  0  0
  184.3750  178.2800  138.9640 C   0  0  2  0  0  3  0  0  0  0  0  0
  183.6620  179.1970  139.9500 C   0  0  0  0  0  2  0  0  0  0  0  0
  183.5480  178.5830  141.2000 O   0  0  0  0  0  0  0  0  0  0  0  0
  184.7810  178.8070  141.8170 C   0  0  0  0  0  2  0  0  0  0  0  0
  185.3180  178.0670  144.0280 O   0  0  0  0  0  1  0  0  0  0  0  0
  184.6010  179.0260  143.3120 C   0  0  2  0  0  3  0  0  0  0  0  0
  183.1350  178.9640  143.6930 C   0  0  0  0  0  1  0  0  0  0  0  0
  190.2280  176.4040  141.9920 C   0  0  2  0  0  3  0  0  0  0  0  0
  188.2680  175.7020  143.1930 O   0  0  0  0  0  0  0  0  0  0  0  0
  188.9100  176.6490  142.6660 C   0  0  0  0  0  0  0  0  0  0  0  0
  188.3420  177.9530  142.6350 N   0  0  0  0  0  1  0  0  0  0  0  0
  191.3130  176.2730  143.0590 C   0  0  0  0  0  2  0  0  0  0  0  0
  191.0540  177.2380  144.2000 C   0  0  0  0  0  2  0  0  0  0  0  0
  191.5060  176.6460  145.4470 N   0  0  0  0  0  2  0  0  0  0  0  0
  191.2960  176.3430  147.7390 O   0  0  0  0  0  0  0  0  0  0  0  0
  190.8520  176.8900  146.6930 C   0  0  0  0  0  0  0  0  0  0  0  0
  187.9300  178.0450  148.4740 C   0  0  0  0  0  2  0  0  0  0  0  0
  187.2870  177.6500  147.1610 C   0  0  0  0  0  2  0  0  0  0  0  0
  189.4040  178.2670  148.1840 C   0  0  0  0  0  2  0  0  0  0  0  0
  188.3990  177.0460  146.3360 C   0  0  0  0  0  2  0  0  0  0  0  0
  189.6490  177.7810  146.7660 C   0  0  0  0  0  3  0  0  0  0  0  0
  1  3  1  0  0  0  0
  2  1  2  0  0  0  0
  3 27  1  1  0  0  0
  4  2  1  0  0  0  0
  5  3  1  0  0  0  0
  6  4  2  0  0  0  0
  7  4  1  0  0  0  0
  7  5  2  0  0  0  0
  8  7  1  0  0  0  0
  9 11  2  0  0  0  0
 10  9  1  0  0  0  0
 11 14  1  0  0  0  0
 12 16  1  0  0  0  0
 12 15  2  0  0  0  0
 13 12  1  0  0  0  0
 13  9  1  0  0  0  0
 15 11  1  0  0  0  0
 15  8  1  0  0  0  0
 16 17  1  0  0  0  0
 18 17  1  0  0  0  0
 18 20  1  0  0  0  0
 20 19  1  6  0  0  0
 20 21  1  0  0  0  0
 21 22  1  0  0  0  0
 22 23  1  0  0  0  0
 23 25  1  0  0  0  0
 25 26  1  6  0  0  0
 25 24  1  0  0  0  0
 27 29  1  0  0  0  0
 27 31  1  1  0  0  0
 29 28  2  0  0  0  0
 30 29  1  0  0  0  0
 31 32  1  0  0  0  0
 32 33  1  0  0  0  0
 33 35  1  0  0  0  0
 35 40  1  0  0  0  0
 35 34  2  0  0  0  0
 37 36  1  0  0  0  0
 38 36  1  0  0  0  0
 39 40  1  0  0  0  0
 39 37  1  0  0  0  0
 40 38  1  0  0  0  0
M  END
>  <MODEL>
1

>  <REMARK>
 VINA RESULT:      -7.5      0.000      0.000
  Name = 
  16 active torsions:
  status: ('A' for Active; 'I' for Inactive)
    1  A    between atoms: C_3  and  C_19
    2  A    between atoms: O_4  and  C_8
    3  A    between atoms: O_4  and  C_35
    4  A    between atoms: C_7  and  C_8
    5  A    between atoms: C_7  and  C_33
    6  A    between atoms: N_9  and  C_27
    7  A    between atoms: C_10  and  O_16
    8  A    between atoms: C_10  and  C_35
    9  A    between atoms: C_12  and  C_19
   10  A    between atoms: C_12  and  C_27
   11  A    between atoms: O_16  and  C_38
   12  A    between atoms: C_18  and  C_19
   13  A    between atoms: C_21  and  C_38
   14  A    between atoms: C_29  and  C_30
   15  A    between atoms: C_32  and  N_34
   16  A    between atoms: N_34  and  C_40
                            x       y       z     vdW  Elec       q    Type
                         _______ _______ _______ _____ _____    ______ ____

>  <TORSDO>
F 16

$$$$
=
 OpenBabel10222416593D

 40 42  0  0  1  0  0  0  0  0999 V2000
  188.7220  176.5350  135.8820 C   0  0  0  0  0  3  0  0  0  0  0  0
  188.8360  177.8610  135.9560 C   0  0  0  0  0  3  0  0  0  0  0  0
  188.4370  175.6770  137.0980 C   0  0  1  0  0  3  0  0  0  0  0  0
  188.8040  178.5260  137.2620 C   0  0  0  0  0  0  0  0  0  0  0  0
  188.8080  176.3800  138.3930 C   0  0  0  0  0  3  0  0  0  0  0  0
  188.7680  179.7830  137.3250 O   0  0  0  0  0  0  0  0  0  0  0  0
  188.9110  177.7150  138.4870 C   0  0  0  0  0  0  0  0  0  0  0  0
  189.3250  178.3570  139.7010 N   0  0  0  0  0  2  0  0  0  0  0  0
  190.5020  176.8250  142.8310 C   0  0  0  0  0  0  0  0  0  0  0  0
  191.6050  176.2330  143.6370 C   0  0  0  0  0  1  0  0  0  0  0  0
  190.5850  177.2430  141.5120 C   0  0  0  0  0  0  0  0  0  0  0  0
  188.3610  177.8050  141.9560 C   0  0  0  0  0  0  0  0  0  0  0  0
  188.9620  177.1630  143.4000 S   0  0  0  0  0  0  0  0  0  0  0  0
  191.7480  177.1450  140.7570 O   0  0  0  0  0  1  0  0  0  0  0  0
  189.3920  177.7810  141.0130 C   0  0  0  0  0  0  0  0  0  0  0  0
  187.0540  178.5200  141.8170 C   0  0  0  0  0  2  0  0  0  0  0  0
  186.0180  177.9890  142.7950 C   0  0  0  0  0  2  0  0  0  0  0  0
  185.3450  179.0510  143.4020 O   0  0  0  0  0  0  0  0  0  0  0  0
  183.2630  178.8820  144.5600 C   0  0  0  0  0  1  0  0  0  0  0  0
  184.7290  178.4910  144.5240 C   0  0  2  0  0  3  0  0  0  0  0  0
  185.4340  178.9470  145.7940 C   0  0  0  0  0  2  0  0  0  0  0  0
  185.9860  177.8570  146.4700 O   0  0  0  0  0  0  0  0  0  0  0  0
  187.3450  178.1590  146.5790 C   0  0  0  0  0  2  0  0  0  0  0  0
  188.0820  178.0520  148.8530 O   0  0  0  0  0  1  0  0  0  0  0  0
  187.9960  177.3200  147.6690 C   0  0  2  0  0  3  0  0  0  0  0  0
  189.3780  176.8640  147.2440 C   0  0  0  0  0  1  0  0  0  0  0  0
  186.9600  175.2380  137.0920 C   0  0  2  0  0  3  0  0  0  0  0  0
  186.0500  173.1260  137.7900 O   0  0  0  0  0  0  0  0  0  0  0  0
  186.7980  173.7490  136.9910 C   0  0  0  0  0  0  0  0  0  0  0  0
  187.5620  173.0270  136.0320 N   0  0  0  0  0  1  0  0  0  0  0  0
  186.1980  175.8990  135.9470 C   0  0  0  0  0  2  0  0  0  0  0  0
  184.9940  176.6540  136.4770 C   0  0  0  0  0  2  0  0  0  0  0  0
  185.4430  177.7990  137.2500 N   0  0  0  0  0  2  0  0  0  0  0  0
  185.1730  179.2820  139.0150 O   0  0  0  0  0  0  0  0  0  0  0  0
  184.7270  178.2840  138.3870 C   0  0  0  0  0  0  0  0  0  0  0  0
  181.2490  178.5130  139.3300 C   0  0  0  0  0  2  0  0  0  0  0  0
  181.7980  177.8080  140.5530 C   0  0  0  0  0  2  0  0  0  0  0  0
  182.2410  178.2650  138.2070 C   0  0  0  0  0  2  0  0  0  0  0  0
  183.2900  177.7320  140.3360 C   0  0  0  0  0  2  0  0  0  0  0  0
  183.4620  177.6190  138.8380 C   0  0  0  0  0  3  0  0  0  0  0  0
  1  2  2  0  0  0  0
  1  3  1  0  0  0  0
  2  4  1  0  0  0  0
  3 27  1  1  0  0  0
  3  5  1  0  0  0  0
  4  6  2  0  0  0  0
  4  7  1  0  0  0  0
  5  7  2  0  0  0  0
  7  8  1  0  0  0  0
  8 15  1  0  0  0  0
  9 13  1  0  0  0  0
  9 10  1  0  0  0  0
 11  9  2  0  0  0  0
 12 13  1  0  0  0  0
 14 11  1  0  0  0  0
 15 11  1  0  0  0  0
 15 12  2  0  0  0  0
 16 12  1  0  0  0  0
 16 17  1  0  0  0  0
 17 18  1  0  0  0  0
 18 20  1  0  0  0  0
 20 19  1  1  0  0  0
 20 21  1  0  0  0  0
 21 22  1  0  0  0  0
 22 23  1  0  0  0  0
 23 25  1  0  0  0  0
 25 26  1  6  0  0  0
 25 24  1  0  0  0  0
 27 31  1  6  0  0  0
 29 27  1  0  0  0  0
 29 28  2  0  0  0  0
 30 29  1  0  0  0  0
 31 32  1  0  0  0  0
 32 33  1  0  0  0  0
 33 35  1  0  0  0  0
 35 40  1  0  0  0  0
 35 34  2  0  0  0  0
 36 37  1  0  0  0  0
 38 40  1  0  0  0  0
 38 36  1  0  0  0  0
 39 37  1  0  0  0  0
 40 39  1  0  0  0  0
M  END
>  <MODEL>
2

>  <REMARK>
 VINA RESULT:      -7.3      2.504      7.134
  Name = 
  16 active torsions:
  status: ('A' for Active; 'I' for Inactive)
    1  A    between atoms: C_3  and  C_19
    2  A    between atoms: O_4  and  C_8
    3  A    between atoms: O_4  and  C_35
    4  A    between atoms: C_7  and  C_8
    5  A    between atoms: C_7  and  C_33
    6  A    between atoms: N_9  and  C_27
    7  A    between atoms: C_10  and  O_16
    8  A    between atoms: C_10  and  C_35
    9  A    between atoms: C_12  and  C_19
   10  A    between atoms: C_12  and  C_27
   11  A    between atoms: O_16  and  C_38
   12  A    between atoms: C_18  and  C_19
   13  A    between atoms: C_21  and  C_38
   14  A    between atoms: C_29  and  C_30
   15  A    between atoms: C_32  and  N_34
   16  A    between atoms: N_34  and  C_40
                            x       y       z     vdW  Elec       q    Type
                         _______ _______ _______ _____ _____    ______ ____

>  <TORSDO>
F 16

$$$$
=
 OpenBabel10222416593D

 40 42  0  0  1  0  0  0  0  0999 V2000
  188.3730  176.9720  142.4530 C   0  0  0  0  0  3  0  0  0  0  0  0
  187.9290  177.7440  141.4620 C   0  0  0  0  0  3  0  0  0  0  0  0
  189.8190  176.5250  142.5460 C   0  0  1  0  0  3  0  0  0  0  0  0
  188.8180  178.0910  140.3500 C   0  0  0  0  0  0  0  0  0  0  0  0
  190.5260  176.5950  141.2020 C   0  0  0  0  0  3  0  0  0  0  0  0
  188.4470  178.9330  139.4890 O   0  0  0  0  0  0  0  0  0  0  0  0
  190.0980  177.3780  140.2000 C   0  0  0  0  0  0  0  0  0  0  0  0
  190.7410  177.3830  138.9180 N   0  0  0  0  0  2  0  0  0  0  0  0
  192.5250  174.6070  137.2940 C   0  0  0  0  0  0  0  0  0  0  0  0
  193.7870  173.8530  137.0580 C   0  0  0  0  0  1  0  0  0  0  0  0
  192.3930  175.7690  138.0370 C   0  0  0  0  0  0  0  0  0  0  0  0
  190.1600  175.4440  137.4270 C   0  0  0  0  0  0  0  0  0  0  0  0
  191.0060  174.1420  136.7590 S   0  0  0  0  0  0  0  0  0  0  0  0
  193.4640  176.3960  138.6630 O   0  0  0  0  0  1  0  0  0  0  0  0
  191.0780  176.2490  138.1080 C   0  0  0  0  0  0  0  0  0  0  0  0
  188.6700  175.5480  137.5040 C   0  0  0  0  0  2  0  0  0  0  0  0
  188.1380  176.6530  136.6040 C   0  0  0  0  0  2  0  0  0  0  0  0
  187.0320  177.2620  137.1990 O   0  0  0  0  0  0  0  0  0  0  0  0
  186.1070  177.2560  134.9970 C   0  0  0  0  0  1  0  0  0  0  0  0
  185.9370  176.8330  136.4450 C   0  0  2  0  0  3  0  0  0  0  0  0
  184.6460  177.4030  137.0190 C   0  0  0  0  0  2  0  0  0  0  0  0
  184.6810  177.3920  138.4150 O   0  0  0  0  0  0  0  0  0  0  0  0
  183.5520  178.1170  138.8020 C   0  0  0  0  0  2  0  0  0  0  0  0
  185.1380  179.5230  139.9130 O   0  0  0  0  0  1  0  0  0  0  0  0
  183.8580  178.9780  140.0180 C   0  0  2  0  0  3  0  0  0  0  0  0
  183.7460  178.1680  141.2950 C   0  0  0  0  0  1  0  0  0  0  0  0
  190.5530  177.3520  143.6180 C   0  0  2  0  0  3  0  0  0  0  0  0
  191.8460  175.3810  144.0860 O   0  0  0  0  0  0  0  0  0  0  0  0
  191.4660  176.5190  144.4690 C   0  0  0  0  0  0  0  0  0  0  0  0
  191.8390  176.9890  145.7590 N   0  0  0  0  0  1  0  0  0  0  0  0
  189.5600  178.0790  144.5220 C   0  0  0  0  0  2  0  0  0  0  0  0
  188.8520  177.0940  145.4330 C   0  0  0  0  0  2  0  0  0  0  0  0
  188.4750  177.7610  146.6670 N   0  0  0  0  0  2  0  0  0  0  0  0
  186.8750  178.7500  148.0280 O   0  0  0  0  0  0  0  0  0  0  0  0
  187.1350  178.1770  146.9350 C   0  0  0  0  0  0  0  0  0  0  0  0
  184.8090  179.4610  144.4900 C   0  0  0  0  0  2  0  0  0  0  0  0
  183.8440  178.7230  145.3940 C   0  0  0  0  0  2  0  0  0  0  0  0
  186.1800  178.8560  144.7350 C   0  0  0  0  0  2  0  0  0  0  0  0
  184.6830  178.2080  146.5390 C   0  0  0  0  0  2  0  0  0  0  0  0
  186.0440  177.9370  145.9370 C   0  0  0  0  0  3  0  0  0  0  0  0
  1  3  1  0  0  0  0
  2  1  2  0  0  0  0
  3 27  1  1  0  0  0
  4  2  1  0  0  0  0
  5  3  1  0  0  0  0
  6  4  2  0  0  0  0
  7  4  1  0  0  0  0
  7  5  2  0  0  0  0
  8  7  1  0  0  0  0
  9 11  2  0  0  0  0
 10  9  1  0  0  0  0
 11 15  1  0  0  0  0
 11 14  1  0  0  0  0
 12 16  1  0  0  0  0
 12 15  2  0  0  0  0
 13  9  1  0  0  0  0
 13 12  1  0  0  0  0
 15  8  1  0  0  0  0
 17 18  1  0  0  0  0
 17 16  1  0  0  0  0
 20 19  1  6  0  0  0
 20 21  1  0  0  0  0
 20 18  1  0  0  0  0
 21 22  1  0  0  0  0
 22 23  1  0  0  0  0
 23 25  1  0  0  0  0
 24 25  1  0  0  0  0
 25 26  1  1  0  0  0
 27 29  1  0  0  0  0
 27 31  1  1  0  0  0
 28 29  2  0  0  0  0
 29 30  1  0  0  0  0
 31 32  1  0  0  0  0
 32 33  1  0  0  0  0
 33 35  1  0  0  0  0
 35 34  2  0  0  0  0
 36 38  1  0  0  0  0
 36 37  1  0  0  0  0
 37 39  1  0  0  0  0
 38 40  1  0  0  0  0
 40 39  1  0  0  0  0
 40 35  1  0  0  0  0
M  END
>  <MODEL>
3

>  <REMARK>
 VINA RESULT:      -7.3      2.191      3.827
  Name = 
  16 active torsions:
  status: ('A' for Active; 'I' for Inactive)
    1  A    between atoms: C_3  and  C_19
    2  A    between atoms: O_4  and  C_8
    3  A    between atoms: O_4  and  C_35
    4  A    between atoms: C_7  and  C_8
    5  A    between atoms: C_7  and  C_33
    6  A    between atoms: N_9  and  C_27
    7  A    between atoms: C_10  and  O_16
    8  A    between atoms: C_10  and  C_35
    9  A    between atoms: C_12  and  C_19
   10  A    between atoms: C_12  and  C_27
   11  A    between atoms: O_16  and  C_38
   12  A    between atoms: C_18  and  C_19
   13  A    between atoms: C_21  and  C_38
   14  A    between atoms: C_29  and  C_30
   15  A    between atoms: C_32  and  N_34
   16  A    between atoms: N_34  and  C_40
                            x       y       z     vdW  Elec       q    Type
                         _______ _______ _______ _____ _____    ______ ____

>  <TORSDO>
F 16

$$$$
=
 OpenBabel10222416593D

 40 42  0  0  1  0  0  0  0  0999 V2000
  189.0010  176.5430  135.9620 C   0  0  0  0  0  3  0  0  0  0  0  0
  189.0520  177.8680  136.0950 C   0  0  0  0  0  3  0  0  0  0  0  0
  188.6960  175.6240  137.1280 C   0  0  1  0  0  3  0  0  0  0  0  0
  188.9290  178.4760  137.4230 C   0  0  0  0  0  0  0  0  0  0  0  0
  188.9740  176.2870  138.4660 C   0  0  0  0  0  3  0  0  0  0  0  0
  188.8340  179.7270  137.5340 O   0  0  0  0  0  0  0  0  0  0  0  0
  189.0140  177.6200  138.6180 C   0  0  0  0  0  0  0  0  0  0  0  0
  189.3400  178.2270  139.8760 N   0  0  0  0  0  2  0  0  0  0  0  0
  186.8320  178.0160  142.5590 C   0  0  0  0  0  0  0  0  0  0  0  0
  185.4370  178.2260  143.0330 C   0  0  0  0  0  1  0  0  0  0  0  0
  187.3360  178.3680  141.3170 C   0  0  0  0  0  0  0  0  0  0  0  0
  189.2440  177.3860  142.2430 C   0  0  0  0  0  0  0  0  0  0  0  0
  188.0420  177.2420  143.4230 S   0  0  0  0  0  0  0  0  0  0  0  0
  186.5720  178.9900  140.3360 O   0  0  0  0  0  1  0  0  0  0  0  0
  188.6840  178.0300  141.1360 C   0  0  0  0  0  0  0  0  0  0  0  0
  190.5710  176.6970  142.2840 C   0  0  0  0  0  2  0  0  0  0  0  0
  191.3900  177.1330  143.4890 C   0  0  0  0  0  2  0  0  0  0  0  0
  191.5680  176.0560  144.3610 O   0  0  0  0  0  0  0  0  0  0  0  0
  192.2060  175.6220  146.6210 C   0  0  0  0  0  1  0  0  0  0  0  0
  191.6610  176.6330  145.6290 C   0  0  2  0  0  3  0  0  0  0  0  0
  190.2960  177.1390  146.0790 C   0  0  0  0  0  2  0  0  0  0  0  0
  189.9660  176.6190  147.3330 O   0  0  0  0  0  0  0  0  0  0  0  0
  188.5720  176.6740  147.3820 C   0  0  0  0  0  2  0  0  0  0  0  0
  188.1190  178.2360  149.1370 O   0  0  0  0  0  1  0  0  0  0  0  0
  188.1010  178.0730  147.7510 C   0  0  2  0  0  3  0  0  0  0  0  0
  186.7060  178.3300  147.2190 C   0  0  0  0  0  1  0  0  0  0  0  0
  187.2430  175.1230  137.0310 C   0  0  2  0  0  3  0  0  0  0  0  0
  186.2030  173.0050  137.4870 O   0  0  0  0  0  0  0  0  0  0  0  0
  187.1490  173.6280  136.9360 C   0  0  0  0  0  0  0  0  0  0  0  0
  188.1860  172.9040  136.2850 N   0  0  0  0  0  1  0  0  0  0  0  0
  186.5300  175.7420  135.8310 C   0  0  0  0  0  2  0  0  0  0  0  0
  185.3860  176.6250  136.2920 C   0  0  0  0  0  2  0  0  0  0  0  0
  184.2380  175.7980  136.6220 N   0  0  0  0  0  2  0  0  0  0  0  0
  182.3860  175.3390  137.9440 O   0  0  0  0  0  0  0  0  0  0  0  0
  183.3660  176.0980  137.7130 C   0  0  0  0  0  0  0  0  0  0  0  0
  182.3020  178.2700  140.3940 C   0  0  0  0  0  2  0  0  0  0  0  0
  182.4850  179.2950  139.2940 C   0  0  0  0  0  2  0  0  0  0  0  0
  183.1320  177.0610  140.0000 C   0  0  0  0  0  2  0  0  0  0  0  0
  182.8420  178.5010  138.0610 C   0  0  0  0  0  2  0  0  0  0  0  0
  183.6030  177.3000  138.5760 C   0  0  0  0  0  3  0  0  0  0  0  0
  1  2  2  0  0  0  0
  1  3  1  0  0  0  0
  2  4  1  0  0  0  0
  3 27  1  1  0  0  0
  3  5  1  0  0  0  0
  4  6  2  0  0  0  0
  4  7  1  0  0  0  0
  5  7  2  0  0  0  0
  7  8  1  0  0  0  0
  8 15  1  0  0  0  0
  9 10  1  0  0  0  0
  9 13  1  0  0  0  0
 11  9  2  0  0  0  0
 12 16  1  0  0  0  0
 12 13  1  0  0  0  0
 14 11  1  0  0  0  0
 15 11  1  0  0  0  0
 15 12  2  0  0  0  0
 16 17  1  0  0  0  0
 17 18  1  0  0  0  0
 18 20  1  0  0  0  0
 20 21  1  0  0  0  0
 20 19  1  1  0  0  0
 21 22  1  0  0  0  0
 22 23  1  0  0  0  0
 23 25  1  0  0  0  0
 25 26  1  1  0  0  0
 25 24  1  0  0  0  0
 27 31  1  6  0  0  0
 29 27  1  0  0  0  0
 29 28  2  0  0  0  0
 30 29  1  0  0  0  0
 31 32  1  0  0  0  0
 32 33  1  0  0  0  0
 33 35  1  0  0  0  0
 35 34  2  0  0  0  0
 35 40  1  0  0  0  0
 37 36  1  0  0  0  0
 38 36  1  0  0  0  0
 39 40  1  0  0  0  0
 39 37  1  0  0  0  0
 40 38  1  0  0  0  0
M  END
>  <MODEL>
4

>  <REMARK>
 VINA RESULT:      -7.1      2.595      7.920
  Name = 
  16 active torsions:
  status: ('A' for Active; 'I' for Inactive)
    1  A    between atoms: C_3  and  C_19
    2  A    between atoms: O_4  and  C_8
    3  A    between atoms: O_4  and  C_35
    4  A    between atoms: C_7  and  C_8
    5  A    between atoms: C_7  and  C_33
    6  A    between atoms: N_9  and  C_27
    7  A    between atoms: C_10  and  O_16
    8  A    between atoms: C_10  and  C_35
    9  A    between atoms: C_12  and  C_19
   10  A    between atoms: C_12  and  C_27
   11  A    between atoms: O_16  and  C_38
   12  A    between atoms: C_18  and  C_19
   13  A    between atoms: C_21  and  C_38
   14  A    between atoms: C_29  and  C_30
   15  A    between atoms: C_32  and  N_34
   16  A    between atoms: N_34  and  C_40
                            x       y       z     vdW  Elec       q    Type
                         _______ _______ _______ _____ _____    ______ ____

>  <TORSDO>
F 16

$$$$
=
 OpenBabel10222416593D

 40 42  0  0  1  0  0  0  0  0999 V2000
  188.4570  176.9030  142.4970 C   0  0  0  0  0  3  0  0  0  0  0  0
  187.9980  177.7000  141.5330 C   0  0  0  0  0  3  0  0  0  0  0  0
  189.9010  176.4470  142.5510 C   0  0  1  0  0  3  0  0  0  0  0  0
  188.8660  178.0670  140.4110 C   0  0  0  0  0  0  0  0  0  0  0  0
  190.5820  176.5430  141.1960 C   0  0  0  0  0  3  0  0  0  0  0  0
  188.4840  178.9300  139.5770 O   0  0  0  0  0  0  0  0  0  0  0  0
  190.1390  177.3510  140.2200 C   0  0  0  0  0  0  0  0  0  0  0  0
  190.7570  177.3820  138.9260 N   0  0  0  0  0  2  0  0  0  0  0  0
  193.1890  174.9490  137.6230 C   0  0  0  0  0  0  0  0  0  0  0  0
  194.5950  174.4740  137.5070 C   0  0  0  0  0  1  0  0  0  0  0  0
  192.7660  176.1060  138.2580 C   0  0  0  0  0  0  0  0  0  0  0  0
  190.6960  175.2580  137.5820 C   0  0  0  0  0  0  0  0  0  0  0  0
  191.8400  174.1260  137.0640 S   0  0  0  0  0  0  0  0  0  0  0  0
  193.6380  176.9960  138.8740 O   0  0  0  0  0  1  0  0  0  0  0  0
  191.3770  176.2920  138.2300 C   0  0  0  0  0  0  0  0  0  0  0  0
  189.2160  175.0390  137.5840 C   0  0  0  0  0  2  0  0  0  0  0  0
  188.8290  173.8220  136.7600 C   0  0  0  0  0  2  0  0  0  0  0  0
  187.6280  174.0610  136.0890 O   0  0  0  0  0  0  0  0  0  0  0  0
  186.0390  173.0140  137.5330 C   0  0  0  0  0  1  0  0  0  0  0  0
  186.6970  174.3120  137.1000 C   0  0  2  0  0  3  0  0  0  0  0  0
  185.6480  175.3050  136.6160 C   0  0  0  0  0  2  0  0  0  0  0  0
  185.9150  176.5840  137.1100 O   0  0  0  0  0  0  0  0  0  0  0  0
  186.4540  177.2770  136.0240 C   0  0  0  0  0  2  0  0  0  0  0  0
  187.4050  179.3960  136.6000 O   0  0  0  0  0  1  0  0  0  0  0  0
  187.7010  178.0420  136.4410 C   0  0  2  0  0  3  0  0  0  0  0  0
  188.8050  177.8730  135.4160 C   0  0  0  0  0  1  0  0  0  0  0  0
  190.6610  177.2450  143.6270 C   0  0  2  0  0  3  0  0  0  0  0  0
  191.9160  175.2470  144.0820 O   0  0  0  0  0  0  0  0  0  0  0  0
  191.5350  176.3780  144.4840 C   0  0  0  0  0  0  0  0  0  0  0  0
  191.8680  176.8070  145.8000 N   0  0  0  0  0  1  0  0  0  0  0  0
  189.6930  178.0140  144.5230 C   0  0  0  0  0  2  0  0  0  0  0  0
  188.8870  177.0540  145.3790 C   0  0  0  0  0  2  0  0  0  0  0  0
  188.5330  177.7010  146.6310 N   0  0  0  0  0  2  0  0  0  0  0  0
  186.9580  178.6590  148.0400 O   0  0  0  0  0  0  0  0  0  0  0  0
  187.1970  178.1030  146.9340 C   0  0  0  0  0  0  0  0  0  0  0  0
  184.8900  179.3830  144.4690 C   0  0  0  0  0  2  0  0  0  0  0  0
  183.9100  178.7160  145.4110 C   0  0  0  0  0  2  0  0  0  0  0  0
  186.2410  178.7360  144.7210 C   0  0  0  0  0  2  0  0  0  0  0  0
  184.7430  178.2120  146.5650 C   0  0  0  0  0  2  0  0  0  0  0  0
  186.0850  177.8680  145.9580 C   0  0  0  0  0  3  0  0  0  0  0  0
  1  3  1  0  0  0  0
  2  1  2  0  0  0  0
  3 27  1  1  0  0  0
  4  2  1  0  0  0  0
  5  3  1  0  0  0  0
  6  4  2  0  0  0  0
  7  4  1  0  0  0  0
  7  5  2  0  0  0  0
  8  7  1  0  0  0  0
  9 11  2  0  0  0  0
 10  9  1  0  0  0  0
 11 14  1  0  0  0  0
 12 16  1  0  0  0  0
 12 15  2  0  0  0  0
 13 12  1  0  0  0  0
 13  9  1  0  0  0  0
 15 11  1  0  0  0  0
 15  8  1  0  0  0  0
 17 16  1  0  0  0  0
 18 17  1  0  0  0  0
 18 20  1  0  0  0  0
 20 19  1  6  0  0  0
 21 20  1  0  0  0  0
 21 22  1  0  0  0  0
 23 25  1  0  0  0  0
 23 22  1  0  0  0  0
 25 26  1  6  0  0  0
 25 24  1  0  0  0  0
 27 29  1  0  0  0  0
 27 31  1  1  0  0  0
 28 29  2  0  0  0  0
 29 30  1  0  0  0  0
 31 32  1  0  0  0  0
 32 33  1  0  0  0  0
 33 35  1  0  0  0  0
 35 34  2  0  0  0  0
 36 38  1  0  0  0  0
 36 37  1  0  0  0  0
 37 39  1  0  0  0  0
 38 40  1  0  0  0  0
 40 39  1  0  0  0  0
 40 35  1  0  0  0  0
M  END
>  <MODEL>
5

>  <REMARK>
 VINA RESULT:      -7.0      2.501      4.873
  Name = 
  16 active torsions:
  status: ('A' for Active; 'I' for Inactive)
    1  A    between atoms: C_3  and  C_19
    2  A    between atoms: O_4  and  C_8
    3  A    between atoms: O_4  and  C_35
    4  A    between atoms: C_7  and  C_8
    5  A    between atoms: C_7  and  C_33
    6  A    between atoms: N_9  and  C_27
    7  A    between atoms: C_10  and  O_16
    8  A    between atoms: C_10  and  C_35
    9  A    between atoms: C_12  and  C_19
   10  A    between atoms: C_12  and  C_27
   11  A    between atoms: O_16  and  C_38
   12  A    between atoms: C_18  and  C_19
   13  A    between atoms: C_21  and  C_38
   14  A    between atoms: C_29  and  C_30
   15  A    between atoms: C_32  and  N_34
   16  A    between atoms: N_34  and  C_40
                            x       y       z     vdW  Elec       q    Type
                         _______ _______ _______ _____ _____    ______ ____

>  <TORSDO>
F 16

$$$$
=
 OpenBabel10222416593D

 40 42  0  0  1  0  0  0  0  0999 V2000
  189.9660  175.3110  137.1210 C   0  0  0  0  0  3  0  0  0  0  0  0
  189.1550  174.2620  136.9820 C   0  0  0  0  0  3  0  0  0  0  0  0
  189.4420  176.7280  137.2490 C   0  0  1  0  0  3  0  0  0  0  0  0
  187.7130  174.4680  136.8280 C   0  0  0  0  0  0  0  0  0  0  0  0
  188.0330  176.8680  136.6980 C   0  0  0  0  0  3  0  0  0  0  0  0
  186.9320  173.4780  136.8390 O   0  0  0  0  0  0  0  0  0  0  0  0
  187.2010  175.8240  136.5660 C   0  0  0  0  0  0  0  0  0  0  0  0
  185.8980  175.9650  135.9840 N   0  0  0  0  0  2  0  0  0  0  0  0
  182.6200  174.9160  137.2820 C   0  0  0  0  0  0  0  0  0  0  0  0
  181.5170  173.9190  137.3310 C   0  0  0  0  0  1  0  0  0  0  0  0
  183.7470  174.8520  136.4790 C   0  0  0  0  0  0  0  0  0  0  0  0
  184.2060  176.8340  137.6280 C   0  0  0  0  0  0  0  0  0  0  0  0
  182.7360  176.2790  138.2520 S   0  0  0  0  0  0  0  0  0  0  0  0
  183.9830  173.8140  135.5850 O   0  0  0  0  0  1  0  0  0  0  0  0
  184.6330  175.9230  136.6580 C   0  0  0  0  0  0  0  0  0  0  0  0
  185.0210  177.9430  138.2150 C   0  0  0  0  0  2  0  0  0  0  0  0
  184.1390  179.0450  138.7830 C   0  0  0  0  0  2  0  0  0  0  0  0
  184.7230  179.5790  139.9330 O   0  0  0  0  0  0  0  0  0  0  0  0
  182.9660  178.5840  141.2090 C   0  0  0  0  0  1  0  0  0  0  0  0
  184.4580  178.6450  140.9370 C   0  0  2  0  0  3  0  0  0  0  0  0
  185.2170  179.0060  142.2070 C   0  0  0  0  0  2  0  0  0  0  0  0
  184.3720  179.6310  143.1260 O   0  0  0  0  0  0  0  0  0  0  0  0
  185.1300  179.7270  144.2950 C   0  0  0  0  0  2  0  0  0  0  0  0
  183.8220  178.9520  146.1430 O   0  0  0  0  0  1  0  0  0  0  0  0
  184.8130  178.5750  145.2360 C   0  0  2  0  0  3  0  0  0  0  0  0
  186.0560  178.1340  145.9850 C   0  0  0  0  0  1  0  0  0  0  0  0
  189.5260  177.1830  138.7180 C   0  0  2  0  0  3  0  0  0  0  0  0
  189.2370  179.5140  138.2060 O   0  0  0  0  0  0  0  0  0  0  0  0
  188.9240  178.5400  138.9410 C   0  0  0  0  0  0  0  0  0  0  0  0
  188.0520  178.7430  140.0470 N   0  0  0  0  0  1  0  0  0  0  0  0
  190.9730  177.1980  139.2050 C   0  0  0  0  0  2  0  0  0  0  0  0
  191.0230  177.1990  140.7210 C   0  0  0  0  0  2  0  0  0  0  0  0
  190.0180  176.2860  141.2390 N   0  0  0  0  0  2  0  0  0  0  0  0
  188.8140  175.3940  143.0120 O   0  0  0  0  0  0  0  0  0  0  0  0
  189.6980  176.2070  142.6290 C   0  0  0  0  0  0  0  0  0  0  0  0
  191.4710  176.5650  145.7540 C   0  0  0  0  0  2  0  0  0  0  0  0
  190.3660  177.5770  145.9720 C   0  0  0  0  0  2  0  0  0  0  0  0
  191.5830  176.3630  144.2530 C   0  0  0  0  0  2  0  0  0  0  0  0
  189.4730  177.4630  144.7600 C   0  0  0  0  0  2  0  0  0  0  0  0
  190.3980  177.0790  143.6270 C   0  0  0  0  0  3  0  0  0  0  0  0
  1  3  1  0  0  0  0
  2  1  2  0  0  0  0
  3 27  1  1  0  0  0
  4  6  2  0  0  0  0
  4  2  1  0  0  0  0
  5  3  1  0  0  0  0
  7  5  2  0  0  0  0
  7  4  1  0  0  0  0
  8  7  1  0  0  0  0
  8 15  1  0  0  0  0
  9 10  1  0  0  0  0
  9 13  1  0  0  0  0
 11 15  1  0  0  0  0
 11  9  2  0  0  0  0
 12 16  1  0  0  0  0
 12 13  1  0  0  0  0
 14 11  1  0  0  0  0
 15 12  2  0  0  0  0
 16 17  1  0  0  0  0
 17 18  1  0  0  0  0
 18 20  1  0  0  0  0
 20 19  1  1  0  0  0
 20 21  1  0  0  0  0
 21 22  1  0  0  0  0
 22 23  1  0  0  0  0
 23 25  1  0  0  0  0
 25 26  1  1  0  0  0
 25 24  1  0  0  0  0
 27 29  1  0  0  0  0
 27 31  1  6  0  0  0
 28 29  2  0  0  0  0
 29 30  1  0  0  0  0
 31 32  1  0  0  0  0
 32 33  1  0  0  0  0
 33 35  1  0  0  0  0
 35 34  2  0  0  0  0
 35 40  1  0  0  0  0
 36 37  1  0  0  0  0
 38 36  1  0  0  0  0
 39 37  1  0  0  0  0
 40 38  1  0  0  0  0
 40 39  1  0  0  0  0
M  END
>  <MODEL>
6

>  <REMARK>
 VINA RESULT:      -6.9      2.259      4.080
  Name = 
  16 active torsions:
  status: ('A' for Active; 'I' for Inactive)
    1  A    between atoms: C_3  and  C_19
    2  A    between atoms: O_4  and  C_8
    3  A    between atoms: O_4  and  C_35
    4  A    between atoms: C_7  and  C_8
    5  A    between atoms: C_7  and  C_33
    6  A    between atoms: N_9  and  C_27
    7  A    between atoms: C_10  and  O_16
    8  A    between atoms: C_10  and  C_35
    9  A    between atoms: C_12  and  C_19
   10  A    between atoms: C_12  and  C_27
   11  A    between atoms: O_16  and  C_38
   12  A    between atoms: C_18  and  C_19
   13  A    between atoms: C_21  and  C_38
   14  A    between atoms: C_29  and  C_30
   15  A    between atoms: C_32  and  N_34
   16  A    between atoms: N_34  and  C_40
                            x       y       z     vdW  Elec       q    Type
                         _______ _______ _______ _____ _____    ______ ____

>  <TORSDO>
F 16

$$$$
=
 OpenBabel10222416593D

 40 42  0  0  1  0  0  0  0  0999 V2000
  191.2560  179.0480  144.4750 C   0  0  0  0  0  3  0  0  0  0  0  0
  192.0530  178.4740  143.5740 C   0  0  0  0  0  3  0  0  0  0  0  0
  189.8230  178.6030  144.6880 C   0  0  1  0  0  3  0  0  0  0  0  0
  191.5180  177.4550  142.6670 C   0  0  0  0  0  0  0  0  0  0  0  0
  189.2700  177.8580  143.4840 C   0  0  0  0  0  3  0  0  0  0  0  0
  192.2980  176.8110  141.9150 O   0  0  0  0  0  0  0  0  0  0  0  0
  190.0600  177.2630  142.5780 C   0  0  0  0  0  0  0  0  0  0  0  0
  189.5230  176.6190  141.4140 N   0  0  0  0  0  2  0  0  0  0  0  0
  189.6280  177.2870  137.7980 C   0  0  0  0  0  0  0  0  0  0  0  0
  190.1520  176.9580  136.4450 C   0  0  0  0  0  1  0  0  0  0  0  0
  190.0080  176.6930  138.9910 C   0  0  0  0  0  0  0  0  0  0  0  0
  188.3910  178.1750  139.7970 C   0  0  0  0  0  0  0  0  0  0  0  0
  188.4170  178.4010  138.1220 S   0  0  0  0  0  0  0  0  0  0  0  0
  190.9660  175.6890  139.0670 O   0  0  0  0  0  1  0  0  0  0  0  0
  189.3300  177.1900  140.1130 C   0  0  0  0  0  0  0  0  0  0  0  0
  187.3530  178.7320  140.7190 C   0  0  0  0  0  2  0  0  0  0  0  0
  185.9480  178.3590  140.2720 C   0  0  0  0  0  2  0  0  0  0  0  0
  185.1630  179.5080  140.1530 O   0  0  0  0  0  0  0  0  0  0  0  0
  183.0270  179.6230  139.0900 C   0  0  0  0  0  1  0  0  0  0  0  0
  184.5150  179.3740  138.9230 C   0  0  2  0  0  3  0  0  0  0  0  0
  184.7620  177.9860  138.3460 C   0  0  0  0  0  2  0  0  0  0  0  0
  183.7560  177.6420  137.4410 O   0  0  0  0  0  0  0  0  0  0  0  0
  183.6170  176.2590  137.5760 C   0  0  0  0  0  2  0  0  0  0  0  0
  181.2790  176.7460  137.4220 O   0  0  0  0  0  1  0  0  0  0  0  0
  182.2090  175.9030  138.0310 C   0  0  2  0  0  3  0  0  0  0  0  0
  182.0880  176.0060  139.5390 C   0  0  0  0  0  1  0  0  0  0  0  0
  189.7240  177.7590  145.9730 C   0  0  2  0  0  3  0  0  0  0  0  0
  191.2660  176.0000  145.4220 O   0  0  0  0  0  0  0  0  0  0  0  0
  190.9480  176.9250  146.2150 C   0  0  0  0  0  0  0  0  0  0  0  0
  191.7110  177.1320  147.3990 N   0  0  0  0  0  1  0  0  0  0  0  0
  188.5020  176.8450  145.9350 C   0  0  0  0  0  2  0  0  0  0  0  0
  187.7800  176.8690  147.2690 C   0  0  0  0  0  2  0  0  0  0  0  0
  187.4320  178.2390  147.6070 N   0  0  0  0  0  2  0  0  0  0  0  0
  186.0560  180.0940  147.3800 O   0  0  0  0  0  0  0  0  0  0  0  0
  186.3020  178.9040  147.0420 C   0  0  0  0  0  0  0  0  0  0  0  0
  184.9060  178.6600  143.7210 C   0  0  0  0  0  2  0  0  0  0  0  0
  183.6280  178.6820  144.5320 C   0  0  0  0  0  2  0  0  0  0  0  0
  186.0090  178.2150  144.6650 C   0  0  0  0  0  2  0  0  0  0  0  0
  184.0650  178.8850  145.9630 C   0  0  0  0  0  2  0  0  0  0  0  0
  185.4120  178.2040  146.0610 C   0  0  0  0  0  3  0  0  0  0  0  0
  1  3  1  0  0  0  0
  2  1  2  0  0  0  0
  3 27  1  1  0  0  0
  4  2  1  0  0  0  0
  5  3  1  0  0  0  0
  6  4  2  0  0  0  0
  7  4  1  0  0  0  0
  7  5  2  0  0  0  0
  8  7  1  0  0  0  0
  9 13  1  0  0  0  0
  9 11  2  0  0  0  0
 10  9  1  0  0  0  0
 11 14  1  0  0  0  0
 11 15  1  0  0  0  0
 12 15  2  0  0  0  0
 12 16  1  0  0  0  0
 13 12  1  0  0  0  0
 15  8  1  0  0  0  0
 17 16  1  0  0  0  0
 18 17  1  0  0  0  0
 20 19  1  1  0  0  0
 20 18  1  0  0  0  0
 21 20  1  0  0  0  0
 22 23  1  0  0  0  0
 22 21  1  0  0  0  0
 23 25  1  0  0  0  0
 24 25  1  0  0  0  0
 25 26  1  1  0  0  0
 27 31  1  6  0  0  0
 27 29  1  0  0  0  0
 28 29  2  0  0  0  0
 29 30  1  0  0  0  0
 31 32  1  0  0  0  0
 32 33  1  0  0  0  0
 35 34  2  0  0  0  0
 35 33  1  0  0  0  0
 36 37  1  0  0  0  0
 36 38  1  0  0  0  0
 37 39  1  0  0  0  0
 38 40  1  0  0  0  0
 39 40  1  0  0  0  0
 40 35  1  0  0  0  0
M  END
>  <MODEL>
7

>  <REMARK>
 VINA RESULT:      -6.8      2.344      4.412
  Name = 
  16 active torsions:
  status: ('A' for Active; 'I' for Inactive)
    1  A    between atoms: C_3  and  C_19
    2  A    between atoms: O_4  and  C_8
    3  A    between atoms: O_4  and  C_35
    4  A    between atoms: C_7  and  C_8
    5  A    between atoms: C_7  and  C_33
    6  A    between atoms: N_9  and  C_27
    7  A    between atoms: C_10  and  O_16
    8  A    between atoms: C_10  and  C_35
    9  A    between atoms: C_12  and  C_19
   10  A    between atoms: C_12  and  C_27
   11  A    between atoms: O_16  and  C_38
   12  A    between atoms: C_18  and  C_19
   13  A    between atoms: C_21  and  C_38
   14  A    between atoms: C_29  and  C_30
   15  A    between atoms: C_32  and  N_34
   16  A    between atoms: N_34  and  C_40
                            x       y       z     vdW  Elec       q    Type
                         _______ _______ _______ _____ _____    ______ ____

>  <TORSDO>
F 16

$$$$
=
 OpenBabel10222416593D

 40 42  0  0  1  0  0  0  0  0999 V2000
  184.1510  177.8780  142.2030 C   0  0  0  0  0  3  0  0  0  0  0  0
  184.1540  178.3080  140.9410 C   0  0  0  0  0  3  0  0  0  0  0  0
  185.3210  178.1060  143.1390 C   0  0  1  0  0  3  0  0  0  0  0  0
  185.3620  178.9200  140.3800 C   0  0  0  0  0  0  0  0  0  0  0  0
  186.6130  178.3740  142.3850 C   0  0  0  0  0  3  0  0  0  0  0  0
  185.3230  179.4540  139.2390 O   0  0  0  0  0  0  0  0  0  0  0  0
  186.6320  178.8200  141.1190 C   0  0  0  0  0  0  0  0  0  0  0  0
  187.8600  179.0060  140.4020 N   0  0  0  0  0  2  0  0  0  0  0  0
  189.2710  177.1650  137.5470 C   0  0  0  0  0  0  0  0  0  0  0  0
  189.4150  176.9890  136.0760 C   0  0  0  0  0  1  0  0  0  0  0  0
  188.4670  178.0960  138.1860 C   0  0  0  0  0  0  0  0  0  0  0  0
  189.4370  177.0800  140.0530 C   0  0  0  0  0  0  0  0  0  0  0  0
  190.1190  176.3080  138.7120 S   0  0  0  0  0  0  0  0  0  0  0  0
  187.6630  179.0000  137.5010 O   0  0  0  0  0  1  0  0  0  0  0  0
  188.5450  178.0490  139.5840 C   0  0  0  0  0  0  0  0  0  0  0  0
  189.9200  176.9350  141.4610 C   0  0  0  0  0  2  0  0  0  0  0  0
  191.3260  177.4900  141.6310 C   0  0  0  0  0  2  0  0  0  0  0  0
  191.9160  176.9540  142.7780 O   0  0  0  0  0  0  0  0  0  0  0  0
  191.5220  178.9710  143.9960 C   0  0  0  0  0  1  0  0  0  0  0  0
  191.1910  177.4970  143.8410 C   0  0  2  0  0  3  0  0  0  0  0  0
  191.4990  176.7430  145.1280 C   0  0  0  0  0  2  0  0  0  0  0  0
  191.1450  177.5050  146.2430 O   0  0  0  0  0  0  0  0  0  0  0  0
  190.4840  176.6090  147.0870 C   0  0  0  0  0  2  0  0  0  0  0  0
  188.4380  177.4480  146.1730 O   0  0  0  0  0  1  0  0  0  0  0  0
  189.0640  177.0800  147.3640 C   0  0  2  0  0  3  0  0  0  0  0  0
  189.0630  178.2490  148.3300 C   0  0  0  0  0  1  0  0  0  0  0  0
  184.9890  179.2460  144.1210 C   0  0  2  0  0  3  0  0  0  0  0  0
  185.3570  179.7520  146.4410 O   0  0  0  0  0  0  0  0  0  0  0  0
  185.2330  178.8690  145.5520 C   0  0  0  0  0  0  0  0  0  0  0  0
  185.4070  177.4980  145.8930 N   0  0  0  0  0  1  0  0  0  0  0  0
  183.5380  179.6950  143.9670 C   0  0  0  0  0  2  0  0  0  0  0  0
  182.5950  178.5310  144.2030 C   0  0  0  0  0  2  0  0  0  0  0  0
  181.2410  179.0310  144.3710 N   0  0  0  0  0  2  0  0  0  0  0  0
  179.1400  179.5160  143.5120 O   0  0  0  0  0  0  0  0  0  0  0  0
  180.3000  179.0710  143.2970 C   0  0  0  0  0  0  0  0  0  0  0  0
  179.7820  179.1140  139.7240 C   0  0  0  0  0  2  0  0  0  0  0  0
  179.6690  177.6260  139.9790 C   0  0  0  0  0  2  0  0  0  0  0  0
  180.5510  179.6960  140.8970 C   0  0  0  0  0  2  0  0  0  0  0  0
  179.7690  177.4670  141.4770 C   0  0  0  0  0  2  0  0  0  0  0  0
  180.6770  178.5890  141.9300 C   0  0  0  0  0  3  0  0  0  0  0  0
  1  3  1  0  0  0  0
  2  1  2  0  0  0  0
  3 27  1  1  0  0  0
  4  2  1  0  0  0  0
  4  7  1  0  0  0  0
  5  3  1  0  0  0  0
  6  4  2  0  0  0  0
  7  5  2  0  0  0  0
  8  7  1  0  0  0  0
  9 11  2  0  0  0  0
  9 13  1  0  0  0  0
 10  9  1  0  0  0  0
 11 15  1  0  0  0  0
 12 16  1  0  0  0  0
 13 12  1  0  0  0  0
 14 11  1  0  0  0  0
 15 12  2  0  0  0  0
 15  8  1  0  0  0  0
 16 17  1  0  0  0  0
 17 18  1  0  0  0  0
 18 20  1  0  0  0  0
 20 19  1  1  0  0  0
 20 21  1  0  0  0  0
 21 22  1  0  0  0  0
 22 23  1  0  0  0  0
 23 25  1  0  0  0  0
 24 25  1  0  0  0  0
 25 26  1  1  0  0  0
 27 31  1  1  0  0  0
 27 29  1  0  0  0  0
 29 30  1  0  0  0  0
 29 28  2  0  0  0  0
 31 32  1  0  0  0  0
 32 33  1  0  0  0  0
 35 34  2  0  0  0  0
 35 33  1  0  0  0  0
 36 37  1  0  0  0  0
 36 38  1  0  0  0  0
 37 39  1  0  0  0  0
 38 40  1  0  0  0  0
 39 40  1  0  0  0  0
 40 35  1  0  0  0  0
M  END
>  <MODEL>
8

>  <REMARK>
 VINA RESULT:      -6.8      2.712      7.791
  Name = 
  16 active torsions:
  status: ('A' for Active; 'I' for Inactive)
    1  A    between atoms: C_3  and  C_19
    2  A    between atoms: O_4  and  C_8
    3  A    between atoms: O_4  and  C_35
    4  A    between atoms: C_7  and  C_8
    5  A    between atoms: C_7  and  C_33
    6  A    between atoms: N_9  and  C_27
    7  A    between atoms: C_10  and  O_16
    8  A    between atoms: C_10  and  C_35
    9  A    between atoms: C_12  and  C_19
   10  A    between atoms: C_12  and  C_27
   11  A    between atoms: O_16  and  C_38
   12  A    between atoms: C_18  and  C_19
   13  A    between atoms: C_21  and  C_38
   14  A    between atoms: C_29  and  C_30
   15  A    between atoms: C_32  and  N_34
   16  A    between atoms: N_34  and  C_40
                            x       y       z     vdW  Elec       q    Type
                         _______ _______ _______ _____ _____    ______ ____

>  <TORSDO>
F 16

$$$$
=
 OpenBabel10222416593D

 40 42  0  0  1  0  0  0  0  0999 V2000
  182.6920  177.9460  137.4730 C   0  0  0  0  0  3  0  0  0  0  0  0
  183.0420  179.0520  138.1290 C   0  0  0  0  0  3  0  0  0  0  0  0
  183.6130  176.7480  137.3560 C   0  0  1  0  0  3  0  0  0  0  0  0
  184.4000  179.1870  138.6640 C   0  0  0  0  0  0  0  0  0  0  0  0
  185.0680  177.1220  137.5810 C   0  0  0  0  0  3  0  0  0  0  0  0
  184.6890  180.1650  139.4040 O   0  0  0  0  0  0  0  0  0  0  0  0
  185.4360  178.2250  138.2520 C   0  0  0  0  0  0  0  0  0  0  0  0
  186.8140  178.5950  138.3990 N   0  0  0  0  0  2  0  0  0  0  0  0
  189.6190  176.8090  136.8260 C   0  0  0  0  0  0  0  0  0  0  0  0
  190.3670  176.4160  135.6020 C   0  0  0  0  0  1  0  0  0  0  0  0
  188.4370  177.5310  136.8680 C   0  0  0  0  0  0  0  0  0  0  0  0
  188.7990  177.2530  139.1600 C   0  0  0  0  0  0  0  0  0  0  0  0
  190.1120  176.5060  138.4000 S   0  0  0  0  0  0  0  0  0  0  0  0
  187.7830  177.9830  135.7270 O   0  0  0  0  0  1  0  0  0  0  0  0
  187.9670  177.7750  138.1650 C   0  0  0  0  0  0  0  0  0  0  0  0
  188.7070  177.5380  140.6250 C   0  0  0  0  0  2  0  0  0  0  0  0
  190.0710  177.4720  141.2950 C   0  0  0  0  0  2  0  0  0  0  0  0
  189.9770  176.7790  142.5040 O   0  0  0  0  0  0  0  0  0  0  0  0
  190.4350  178.4970  144.0990 C   0  0  0  0  0  1  0  0  0  0  0  0
  189.3740  177.6780  143.3860 C   0  0  2  0  0  3  0  0  0  0  0  0
  188.5120  176.9290  144.3940 C   0  0  0  0  0  2  0  0  0  0  0  0
  188.2530  177.7270  145.5110 O   0  0  0  0  0  0  0  0  0  0  0  0
  186.8630  177.8590  145.5360 C   0  0  0  0  0  2  0  0  0  0  0  0
  185.6820  179.3820  146.9550 O   0  0  0  0  0  1  0  0  0  0  0  0
  186.3790  178.1730  146.9430 C   0  0  2  0  0  3  0  0  0  0  0  0
  187.5430  178.2410  147.9110 C   0  0  0  0  0  1  0  0  0  0  0  0
  183.1540  175.6410  138.3240 C   0  0  2  0  0  3  0  0  0  0  0  0
  184.4020  173.6360  137.8820 O   0  0  0  0  0  0  0  0  0  0  0  0
  183.3190  174.2640  137.7520 C   0  0  0  0  0  0  0  0  0  0  0  0
  182.2640  173.6980  136.9820 N   0  0  0  0  0  1  0  0  0  0  0  0
  181.6950  175.8390  138.7290 C   0  0  0  0  0  2  0  0  0  0  0  0
  181.5970  176.2090  140.1970 C   0  0  0  0  0  2  0  0  0  0  0  0
  180.9390  177.4980  140.3280 N   0  0  0  0  0  2  0  0  0  0  0  0
  180.6280  179.5090  141.4450 O   0  0  0  0  0  0  0  0  0  0  0  0
  181.2360  178.4050  141.3910 C   0  0  0  0  0  0  0  0  0  0  0  0
  183.2510  179.3760  144.2250 C   0  0  0  0  0  2  0  0  0  0  0  0
  184.3390  178.8700  143.3010 C   0  0  0  0  0  2  0  0  0  0  0  0
  181.9550  178.7420  143.7540 C   0  0  0  0  0  2  0  0  0  0  0  0
  183.6380  178.5150  142.0120 C   0  0  0  0  0  2  0  0  0  0  0  0
  182.2580  178.0590  142.4310 C   0  0  0  0  0  3  0  0  0  0  0  0
  1  2  2  0  0  0  0
  2  4  1  0  0  0  0
  3  1  1  0  0  0  0
  3  5  1  0  0  0  0
  3 27  1  1  0  0  0
  4  6  2  0  0  0  0
  5  7  2  0  0  0  0
  7  8  1  0  0  0  0
  7  4  1  0  0  0  0
  9 11  2  0  0  0  0
  9 13  1  0  0  0  0
 10  9  1  0  0  0  0
 11 15  1  0  0  0  0
 12 16  1  0  0  0  0
 13 12  1  0  0  0  0
 14 11  1  0  0  0  0
 15  8  1  0  0  0  0
 15 12  2  0  0  0  0
 16 17  1  0  0  0  0
 17 18  1  0  0  0  0
 18 20  1  0  0  0  0
 20 19  1  1  0  0  0
 20 21  1  0  0  0  0
 21 22  1  0  0  0  0
 22 23  1  0  0  0  0
 23 25  1  0  0  0  0
 25 24  1  0  0  0  0
 25 26  1  1  0  0  0
 27 31  1  6  0  0  0
 29 28  2  0  0  0  0
 29 27  1  0  0  0  0
 30 29  1  0  0  0  0
 31 32  1  0  0  0  0
 32 33  1  0  0  0  0
 33 35  1  0  0  0  0
 35 34  2  0  0  0  0
 35 40  1  0  0  0  0
 37 36  1  0  0  0  0
 38 36  1  0  0  0  0
 39 40  1  0  0  0  0
 39 37  1  0  0  0  0
 40 38  1  0  0  0  0
M  END
>  <MODEL>
9

>  <REMARK>
 VINA RESULT:      -6.6      2.927      7.311
  Name = 
  16 active torsions:
  status: ('A' for Active; 'I' for Inactive)
    1  A    between atoms: C_3  and  C_19
    2  A    between atoms: O_4  and  C_8
    3  A    between atoms: O_4  and  C_35
    4  A    between atoms: C_7  and  C_8
    5  A    between atoms: C_7  and  C_33
    6  A    between atoms: N_9  and  C_27
    7  A    between atoms: C_10  and  O_16
    8  A    between atoms: C_10  and  C_35
    9  A    between atoms: C_12  and  C_19
   10  A    between atoms: C_12  and  C_27
   11  A    between atoms: O_16  and  C_38
   12  A    between atoms: C_18  and  C_19
   13  A    between atoms: C_21  and  C_38
   14  A    between atoms: C_29  and  C_30
   15  A    between atoms: C_32  and  N_34
   16  A    between atoms: N_34  and  C_40
                            x       y       z     vdW  Elec       q    Type
                         _______ _______ _______ _____ _____    ______ ____

>  <TORSDO>
F 16

$$$$
