=
 OpenBabel10222420583D

 51 57  0  0  1  0  0  0  0  0999 V2000
  180.8880  179.5400  137.6470 C   0  0  2  0  0  3  0  0  0  0  0  0
  186.0750  176.2200  136.9190 O   0  0  0  0  0  0  0  0  0  0  0  0
  179.9070  179.4310  135.6440 C   0  0  0  0  0  2  0  0  0  0  0  0
  180.0370  180.2670  136.7730 O   0  0  0  0  0  0  0  0  0  0  0  0
  180.0890  177.0350  135.4510 O   0  0  0  0  0  0  0  0  0  0  0  0
  183.9240  176.5630  136.8270 C   0  0  0  0  0  0  0  0  0  0  0  0
  185.1270  177.0490  137.2770 C   0  0  0  0  0  0  0  0  0  0  0  0
  185.3110  178.2640  138.1170 C   0  0  0  0  0  0  0  0  0  0  0  0
  182.0350  179.6510  139.7890 C   0  0  0  0  0  2  0  0  0  0  0  0
  185.5240  175.1930  136.2980 C   0  0  0  0  0  0  0  0  0  0  0  0
  180.1030  178.0500  136.1410 C   0  0  0  0  0  0  0  0  0  0  0  0
  184.5470  180.4120  139.0220 O   0  0  0  0  0  1  0  0  0  0  0  0
  182.4220  177.2660  138.9420 C   0  0  2  0  0  3  0  0  0  0  0  0
  184.1530  175.3390  136.2290 C   0  0  0  0  0  3  0  0  0  0  0  0
  186.4980  178.6960  138.2510 O   0  0  0  0  0  0  0  0  0  0  0  0
  181.3690  176.9630  138.0920 C   0  0  1  0  0  0  0  0  0  0  0  0
  180.4360  178.1010  137.5630 C   0  0  1  0  0  3  0  0  0  0  0  0
  182.9560  178.6690  139.1090 C   0  0  0  0  0  0  0  0  0  0  0  0
  182.7640  176.8660  137.5560 N   0  0  0  0  0  0  0  0  0  0  0  0
  184.2180  179.0840  138.7560 C   0  0  0  0  0  0  0  0  0  0  0  0
  180.7970  179.9990  139.0450 N   0  0  0  0  0  0  0  0  0  0  0  0
  187.0330  171.7650  136.3510 N   0  0  0  0  0  0  0  0  0  0  0  0
  185.3500  172.6820  137.8040 N   0  0  0  0  0  1  0  0  0  0  0  0
  187.9490  171.8750  135.3530 C   0  0  0  0  0  3  0  0  0  0  0  0
  187.1630  174.0740  134.8960 N   0  0  0  0  0  0  0  0  0  0  0  0
  186.2060  172.7980  136.6690 C   0  0  0  0  0  0  0  0  0  0  0  0
  186.2430  173.9760  135.8960 C   0  0  0  0  0  0  0  0  0  0  0  0
  188.0050  173.0510  134.6010 C   0  0  0  0  0  3  0  0  0  0  0  0
  179.3420  181.9240  139.5710 C   0  0  0  0  0  1  0  0  0  0  0  0
  180.7140  181.4660  139.0830 C   0  0  0  0  0  2  0  0  0  0  0  0
  180.7510  175.5830  138.3210 C   0  0  0  0  0  2  0  0  0  0  0  0
  180.5060  175.3410  139.7970 C   0  0  0  0  0  2  0  0  0  0  0  0
  180.1820  177.1200  141.3750 N   0  0  0  0  0  0  0  0  0  0  0  0
  179.7150  176.4740  140.3640 C   0  0  0  0  0  3  0  0  0  0  0  0
  179.3950  178.1630  141.9940 C   0  0  0  0  0  2  0  0  0  0  0  0
  180.2810  179.0850  142.7780 C   0  0  0  0  0  0  0  0  0  0  0  0
  180.0490  180.3260  142.7460 O   0  0  0  0  0  0  0  0  0  0  0  0
  181.3170  178.5990  143.5890 O   0  0  0  0  0  0  0  0  0  0  0  0
  182.4780  179.3630  143.8850 C   0  0  0  0  0  2  0  0  0  0  0  0
  183.7170  178.5490  143.5590 C   0  0  0  0  0  2  0  0  0  0  0  0
  187.3210  178.7340  141.2950 O   0  0  0  0  0  1  0  0  0  0  0  0
  187.1240  177.5190  143.3490 C   0  0  0  0  0  0  0  0  0  0  0  0
  184.9070  179.2130  144.0800 N   0  0  0  0  0  0  0  0  0  0  0  0
  187.0100  177.9530  144.7780 C   0  0  0  0  0  2  0  0  0  0  0  0
  185.7780  179.5720  142.9460 C   0  0  0  0  0  2  0  0  0  0  0  0
  185.5320  178.2820  145.0460 C   0  0  1  0  0  3  0  0  0  0  0  0
  187.6470  176.4460  143.0710 O   0  0  0  0  0  0  0  0  0  0  0  0
  186.4300  178.3330  142.2960 C   0  0  1  0  0  3  0  0  0  0  0  0
  186.1000  179.6590  147.0760 N   0  0  0  0  0  1  0  0  0  0  0  0
  184.2640  178.2150  147.0830 O   0  0  0  0  0  0  0  0  0  0  0  0
  185.2640  178.6770  146.4630 C   0  0  0  0  0  0  0  0  0  0  0  0
  1  4  1  6  0  0  0
  1 21  1  0  0  0  0
  2  7  1  0  0  0  0
  3 11  1  0  0  0  0
  3  4  1  0  0  0  0
  5 11  2  0  0  0  0
  6  7  2  0  0  0  0
  6 19  1  0  0  0  0
  7  8  1  0  0  0  0
  8 15  2  0  0  0  0
  8 20  1  0  0  0  0
 10  2  1  0  0  0  0
 13 18  1  6  0  0  0
 14 10  2  0  0  0  0
 14  6  1  0  0  0  0
 16 31  1  1  0  0  0
 16 13  1  0  0  0  0
 17 11  1  6  0  0  0
 17  1  1  0  0  0  0
 17 16  1  0  0  0  0
 18  9  1  0  0  0  0
 19 16  1  0  0  0  0
 19 13  1  0  0  0  0
 20 12  1  0  0  0  0
 20 18  2  0  0  0  0
 21 30  1  0  0  0  0
 21  9  1  0  0  0  0
 22 26  1  0  0  0  0
 24 22  2  0  0  0  0
 25 27  1  0  0  0  0
 26 23  1  0  0  0  0
 27 10  1  0  0  0  0
 27 26  2  0  0  0  0
 28 25  2  0  0  0  0
 28 24  1  0  0  0  0
 30 29  1  0  0  0  0
 31 32  1  0  0  0  0
 32 34  1  0  0  0  0
 33 35  1  0  0  0  0
 34 33  2  0  0  0  0
 35 36  1  0  0  0  0
 36 38  1  0  0  0  0
 37 36  2  0  0  0  0
 38 39  1  0  0  0  0
 40 39  1  0  0  0  0
 40 43  1  0  0  0  0
 42 44  1  0  0  0  0
 43 46  1  0  0  0  0
 44 46  1  0  0  0  0
 45 43  1  0  0  0  0
 46 51  1  1  0  0  0
 47 42  2  0  0  0  0
 48 41  1  6  0  0  0
 48 45  1  0  0  0  0
 48 42  1  0  0  0  0
 51 49  1  0  0  0  0
 51 50  2  0  0  0  0
M  END
>  <MODEL>
1

>  <REMARK>
 VINA RESULT:      -6.9      0.000      0.000
  Name = 
  12 active torsions:
  status: ('A' for Active; 'I' for Inactive)
    1  A    between atoms: C_3  and  C_7
    2  A    between atoms: C_3  and  C_42
    3  A    between atoms: C_4  and  C_24
    4  A    between atoms: C_4  and  O_33
    5  A    between atoms: C_7  and  C_49
    6  A    between atoms: N_8  and  C_24
    7  A    between atoms: C_14  and  N_15
    8  A    between atoms: C_14  and  C_32
    9  A    between atoms: C_26  and  C_47
   10  A    between atoms: C_29  and  C_38
   11  A    between atoms: C_32  and  O_33
   12  A    between atoms: C_43  and  N_51
                            x       y       z     vdW  Elec       q    Type
                         _______ _______ _______ _____ _____    ______ ____

>  <TORSDO>
F 12

$$$$
=
 OpenBabel10222420583D

 51 57  0  0  1  0  0  0  0  0999 V2000
  191.5020  175.8370  146.0620 C   0  0  2  0  0  3  0  0  0  0  0  0
  185.8780  177.9890  144.5780 O   0  0  0  0  0  0  0  0  0  0  0  0
  191.8060  174.1380  144.6450 C   0  0  0  0  0  2  0  0  0  0  0  0
  192.1550  174.5820  145.9370 O   0  0  0  0  0  0  0  0  0  0  0  0
  191.1980  175.3920  142.6780 O   0  0  0  0  0  0  0  0  0  0  0  0
  187.9280  177.3760  144.1610 C   0  0  0  0  0  0  0  0  0  0  0  0
  187.0080  177.6480  145.1440 C   0  0  0  0  0  0  0  0  0  0  0  0
  187.2800  177.6510  146.6070 C   0  0  0  0  0  0  0  0  0  0  0  0
  191.0820  177.6730  147.6020 C   0  0  0  0  0  2  0  0  0  0  0  0
  186.0470  177.9960  143.2680 C   0  0  0  0  0  0  0  0  0  0  0  0
  191.5530  175.3630  143.8530 C   0  0  0  0  0  0  0  0  0  0  0  0
  188.6100  177.0180  148.5690 O   0  0  0  0  0  1  0  0  0  0  0  0
  190.0870  178.4290  145.3670 C   0  0  2  0  0  3  0  0  0  0  0  0
  187.3390  177.6380  142.9390 C   0  0  0  0  0  3  0  0  0  0  0  0
  186.2720  177.6980  147.3790 O   0  0  0  0  0  0  0  0  0  0  0  0
  190.7750  177.7540  144.3700 C   0  0  1  0  0  0  0  0  0  0  0  0
  191.6740  176.5270  144.7280 C   0  0  1  0  0  3  0  0  0  0  0  0
  189.8570  177.8390  146.7390 C   0  0  0  0  0  0  0  0  0  0  0  0
  189.2860  177.6030  144.4330 N   0  0  0  0  0  0  0  0  0  0  0  0
  188.6300  177.5170  147.2670 C   0  0  0  0  0  0  0  0  0  0  0  0
  192.0790  176.6790  147.1250 N   0  0  0  0  0  0  0  0  0  0  0  0
  182.7940  178.9160  141.6560 N   0  0  0  0  0  0  0  0  0  0  0  0
  183.2380  178.4500  143.9740 N   0  0  0  0  0  1  0  0  0  0  0  0
  183.1670  178.9800  140.3500 C   0  0  0  0  0  3  0  0  0  0  0  0
  185.4200  178.5590  140.9900 N   0  0  0  0  0  0  0  0  0  0  0  0
  183.6960  178.6340  142.6360 C   0  0  0  0  0  0  0  0  0  0  0  0
  185.0570  178.4880  142.3000 C   0  0  0  0  0  0  0  0  0  0  0  0
  184.5120  178.8120  140.0120 C   0  0  0  0  0  3  0  0  0  0  0  0
  193.2600  176.6230  149.2930 C   0  0  0  0  0  1  0  0  0  0  0  0
  192.4010  175.8510  148.2960 C   0  0  0  0  0  2  0  0  0  0  0  0
  191.2060  178.6350  143.1960 C   0  0  0  0  0  2  0  0  0  0  0  0
  190.7640  178.0290  141.8780 C   0  0  0  0  0  2  0  0  0  0  0  0
  191.8030  177.2590  139.8560 N   0  0  0  0  0  0  0  0  0  0  0  0
  191.9660  177.6850  141.0600 C   0  0  0  0  0  3  0  0  0  0  0  0
  192.9450  176.8380  139.0750 C   0  0  0  0  0  2  0  0  0  0  0  0
  192.5240  176.5120  137.6730 C   0  0  0  0  0  0  0  0  0  0  0  0
  193.4120  176.2310  136.8200 O   0  0  0  0  0  0  0  0  0  0  0  0
  191.1710  176.4540  137.3050 O   0  0  0  0  0  0  0  0  0  0  0  0
  190.7290  175.7930  136.1270 C   0  0  0  0  0  2  0  0  0  0  0  0
  189.3330  176.2730  135.7700 C   0  0  0  0  0  2  0  0  0  0  0  0
  185.6140  174.2210  136.0880 O   0  0  0  0  0  1  0  0  0  0  0  0
  185.7940  176.6080  136.0380 C   0  0  0  0  0  0  0  0  0  0  0  0
  188.5130  176.3720  136.9710 N   0  0  0  0  0  0  0  0  0  0  0  0
  186.2860  177.6110  137.0370 C   0  0  0  0  0  2  0  0  0  0  0  0
  187.6050  175.2120  137.0170 C   0  0  0  0  0  2  0  0  0  0  0  0
  187.8160  177.6770  136.9120 C   0  0  1  0  0  3  0  0  0  0  0  0
  184.9300  176.9200  135.2260 O   0  0  0  0  0  0  0  0  0  0  0  0
  186.5040  175.2900  135.9380 C   0  0  1  0  0  3  0  0  0  0  0  0
  188.4260  178.4540  139.2280 N   0  0  0  0  0  1  0  0  0  0  0  0
  189.0400  179.6960  137.3470 O   0  0  0  0  0  0  0  0  0  0  0  0
  188.4380  178.6900  137.8190 C   0  0  0  0  0  0  0  0  0  0  0  0
  1  4  1  6  0  0  0
  1 21  1  0  0  0  0
  2  7  1  0  0  0  0
  3  4  1  0  0  0  0
  5 11  2  0  0  0  0
  6 19  1  0  0  0  0
  6  7  2  0  0  0  0
  7  8  1  0  0  0  0
  8 20  1  0  0  0  0
  8 15  2  0  0  0  0
 10  2  1  0  0  0  0
 11  3  1  0  0  0  0
 13 18  1  1  0  0  0
 14 10  2  0  0  0  0
 14  6  1  0  0  0  0
 16 31  1  6  0  0  0
 16 19  1  0  0  0  0
 16 17  1  0  0  0  0
 16 13  1  0  0  0  0
 17 11  1  6  0  0  0
 17  1  1  0  0  0  0
 18 20  2  0  0  0  0
 18  9  1  0  0  0  0
 19 13  1  0  0  0  0
 20 12  1  0  0  0  0
 21  9  1  0  0  0  0
 21 30  1  0  0  0  0
 22 26  1  0  0  0  0
 24 22  2  0  0  0  0
 25 27  1  0  0  0  0
 26 23  1  0  0  0  0
 27 26  2  0  0  0  0
 27 10  1  0  0  0  0
 28 24  1  0  0  0  0
 28 25  2  0  0  0  0
 30 29  1  0  0  0  0
 32 31  1  0  0  0  0
 33 34  2  0  0  0  0
 34 32  1  0  0  0  0
 35 33  1  0  0  0  0
 36 35  1  0  0  0  0
 37 36  2  0  0  0  0
 38 36  1  0  0  0  0
 39 38  1  0  0  0  0
 40 39  1  0  0  0  0
 40 43  1  0  0  0  0
 42 44  1  0  0  0  0
 43 45  1  0  0  0  0
 46 43  1  0  0  0  0
 46 44  1  0  0  0  0
 46 51  1  1  0  0  0
 47 42  2  0  0  0  0
 48 42  1  0  0  0  0
 48 41  1  1  0  0  0
 48 45  1  0  0  0  0
 50 51  2  0  0  0  0
 51 49  1  0  0  0  0
M  END
>  <MODEL>
2

>  <REMARK>
 VINA RESULT:      -6.4      4.169     10.975
  Name = 
  12 active torsions:
  status: ('A' for Active; 'I' for Inactive)
    1  A    between atoms: C_3  and  C_7
    2  A    between atoms: C_3  and  C_42
    3  A    between atoms: C_4  and  C_24
    4  A    between atoms: C_4  and  O_33
    5  A    between atoms: C_7  and  C_49
    6  A    between atoms: N_8  and  C_24
    7  A    between atoms: C_14  and  N_15
    8  A    between atoms: C_14  and  C_32
    9  A    between atoms: C_26  and  C_47
   10  A    between atoms: C_29  and  C_38
   11  A    between atoms: C_32  and  O_33
   12  A    between atoms: C_43  and  N_51
                            x       y       z     vdW  Elec       q    Type
                         _______ _______ _______ _____ _____    ______ ____

>  <TORSDO>
F 12

$$$$
=
 OpenBabel10222420583D

 51 57  0  0  1  0  0  0  0  0999 V2000
  190.9530  175.3380  137.5510 C   0  0  2  0  0  3  0  0  0  0  0  0
  188.8920  177.8680  142.8230 O   0  0  0  0  0  0  0  0  0  0  0  0
  189.5550  173.6320  137.2030 C   0  0  0  0  0  2  0  0  0  0  0  0
  190.8840  174.0430  136.9710 O   0  0  0  0  0  0  0  0  0  0  0  0
  187.5520  174.9370  137.5070 O   0  0  0  0  0  0  0  0  0  0  0  0
  188.6940  177.1240  140.7840 C   0  0  0  0  0  0  0  0  0  0  0  0
  189.5740  177.4490  141.7880 C   0  0  0  0  0  0  0  0  0  0  0  0
  191.0580  177.4240  141.6800 C   0  0  0  0  0  0  0  0  0  0  0  0
  192.4640  177.1860  138.0170 C   0  0  0  0  0  2  0  0  0  0  0  0
  187.6090  177.8730  142.5100 C   0  0  0  0  0  0  0  0  0  0  0  0
  188.7570  174.8760  137.2870 C   0  0  0  0  0  0  0  0  0  0  0  0
  193.1450  176.6900  140.6190 O   0  0  0  0  0  1  0  0  0  0  0  0
  190.1450  178.0220  138.7080 C   0  0  2  0  0  3  0  0  0  0  0  0
  187.4190  177.4330  141.2170 C   0  0  0  0  0  3  0  0  0  0  0  0
  191.7150  177.5320  142.7620 O   0  0  0  0  0  0  0  0  0  0  0  0
  189.2190  177.3100  137.9600 C   0  0  1  0  0  0  0  0  0  0  0  0
  189.6570  176.0240  137.1880 C   0  0  1  0  0  3  0  0  0  0  0  0
  191.4750  177.4400  139.1260 C   0  0  0  0  0  0  0  0  0  0  0  0
  189.1170  177.2580  139.4530 N   0  0  0  0  0  0  0  0  0  0  0  0
  191.8600  177.1960  140.4230 C   0  0  0  0  0  0  0  0  0  0  0  0
  192.0850  176.1320  137.0410 N   0  0  0  0  0  0  0  0  0  0  0  0
  185.2680  178.4590  145.3750 N   0  0  0  0  0  0  0  0  0  0  0  0
  187.3160  177.1960  145.3490 N   0  0  0  0  0  1  0  0  0  0  0  0
  184.2870  179.1700  144.7600 C   0  0  0  0  0  3  0  0  0  0  0  0
  185.5580  179.1530  142.7480 N   0  0  0  0  0  0  0  0  0  0  0  0
  186.3740  178.0470  144.6970 C   0  0  0  0  0  0  0  0  0  0  0  0
  186.5460  178.4370  143.3530 C   0  0  0  0  0  0  0  0  0  0  0  0
  184.4420  179.5360  143.4200 C   0  0  0  0  0  3  0  0  0  0  0  0
  194.3660  175.9790  136.1060 C   0  0  0  0  0  1  0  0  0  0  0  0
  193.2730  175.2760  136.9050 C   0  0  0  0  0  2  0  0  0  0  0  0
  188.1130  178.1680  137.3450 C   0  0  0  0  0  2  0  0  0  0  0  0
  188.2250  178.1900  135.8330 C   0  0  0  0  0  2  0  0  0  0  0  0
  185.9560  177.4200  135.9660 N   0  0  0  0  0  0  0  0  0  0  0  0
  186.8850  177.9200  135.2300 C   0  0  0  0  0  3  0  0  0  0  0  0
  184.6790  177.0700  135.3840 C   0  0  0  0  0  2  0  0  0  0  0  0
  184.1080  175.8650  136.0710 C   0  0  0  0  0  0  0  0  0  0  0  0
  184.6560  174.7430  135.8890 O   0  0  0  0  0  0  0  0  0  0  0  0
  183.0220  175.9670  136.9540 O   0  0  0  0  0  0  0  0  0  0  0  0
  181.7680  176.5080  136.5630 C   0  0  0  0  0  2  0  0  0  0  0  0
  181.2390  177.4110  137.6630 C   0  0  0  0  0  2  0  0  0  0  0  0
  179.2550  176.4610  141.3110 O   0  0  0  0  0  1  0  0  0  0  0  0
  180.4620  178.5000  140.9680 C   0  0  0  0  0  0  0  0  0  0  0  0
  181.9840  177.1910  138.8970 N   0  0  0  0  0  0  0  0  0  0  0  0
  181.9250  178.8090  140.8660 C   0  0  0  0  0  2  0  0  0  0  0  0
  181.1460  176.4030  139.8170 C   0  0  0  0  0  2  0  0  0  0  0  0
  182.3580  178.5240  139.4190 C   0  0  1  0  0  3  0  0  0  0  0  0
  179.6830  179.3430  141.3980 O   0  0  0  0  0  0  0  0  0  0  0  0
  179.9580  177.2200  140.3690 C   0  0  1  0  0  3  0  0  0  0  0  0
  184.1980  180.2180  139.1250 N   0  0  0  0  0  1  0  0  0  0  0  0
  184.6560  177.9280  139.0590 O   0  0  0  0  0  0  0  0  0  0  0  0
  183.7950  178.8480  139.1600 C   0  0  0  0  0  0  0  0  0  0  0  0
  1  4  1  6  0  0  0
  3 11  1  0  0  0  0
  4  3  1  0  0  0  0
  6 14  1  0  0  0  0
  6  7  2  0  0  0  0
  7  2  1  0  0  0  0
  8  7  1  0  0  0  0
  8 15  2  0  0  0  0
  9 18  1  0  0  0  0
 10  2  1  0  0  0  0
 10 27  1  0  0  0  0
 11  5  2  0  0  0  0
 13 18  1  1  0  0  0
 13 19  1  0  0  0  0
 14 10  2  0  0  0  0
 16 31  1  6  0  0  0
 16 13  1  0  0  0  0
 16 19  1  0  0  0  0
 17 11  1  1  0  0  0
 17  1  1  0  0  0  0
 17 16  1  0  0  0  0
 18 20  2  0  0  0  0
 19  6  1  0  0  0  0
 20 12  1  0  0  0  0
 20  8  1  0  0  0  0
 21  1  1  0  0  0  0
 21  9  1  0  0  0  0
 24 22  1  0  0  0  0
 25 27  2  0  0  0  0
 25 28  1  0  0  0  0
 26 23  1  0  0  0  0
 26 22  2  0  0  0  0
 27 26  1  0  0  0  0
 28 24  2  0  0  0  0
 29 30  1  0  0  0  0
 30 21  1  0  0  0  0
 32 31  1  0  0  0  0
 34 32  1  0  0  0  0
 34 33  2  0  0  0  0
 35 33  1  0  0  0  0
 35 36  1  0  0  0  0
 36 38  1  0  0  0  0
 37 36  2  0  0  0  0
 39 38  1  0  0  0  0
 39 40  1  0  0  0  0
 40 43  1  0  0  0  0
 42 47  2  0  0  0  0
 43 46  1  0  0  0  0
 43 45  1  0  0  0  0
 44 42  1  0  0  0  0
 45 48  1  0  0  0  0
 46 51  1  1  0  0  0
 46 44  1  0  0  0  0
 48 42  1  0  0  0  0
 48 41  1  1  0  0  0
 49 51  1  0  0  0  0
 50 51  2  0  0  0  0
M  END
>  <MODEL>
3

>  <REMARK>
 VINA RESULT:      -6.4      3.508      8.995
  Name = 
  12 active torsions:
  status: ('A' for Active; 'I' for Inactive)
    1  A    between atoms: C_3  and  C_7
    2  A    between atoms: C_3  and  C_42
    3  A    between atoms: C_4  and  C_24
    4  A    between atoms: C_4  and  O_33
    5  A    between atoms: C_7  and  C_49
    6  A    between atoms: N_8  and  C_24
    7  A    between atoms: C_14  and  N_15
    8  A    between atoms: C_14  and  C_32
    9  A    between atoms: C_26  and  C_47
   10  A    between atoms: C_29  and  C_38
   11  A    between atoms: C_32  and  O_33
   12  A    between atoms: C_43  and  N_51
                            x       y       z     vdW  Elec       q    Type
                         _______ _______ _______ _____ _____    ______ ____

>  <TORSDO>
F 12

$$$$
=
 OpenBabel10222420583D

 51 57  0  0  1  0  0  0  0  0999 V2000
  191.4450  175.7500  145.9890 C   0  0  2  0  0  3  0  0  0  0  0  0
  185.8320  177.9900  144.5990 O   0  0  0  0  0  0  0  0  0  0  0  0
  191.6810  174.0210  144.5960 C   0  0  0  0  0  2  0  0  0  0  0  0
  192.0690  174.4800  145.8720 O   0  0  0  0  0  0  0  0  0  0  0  0
  191.0520  175.2530  142.6220 O   0  0  0  0  0  0  0  0  0  0  0  0
  187.8590  177.3290  144.1450 C   0  0  0  0  0  0  0  0  0  0  0  0
  186.9680  177.6360  145.1440 C   0  0  0  0  0  0  0  0  0  0  0  0
  187.2740  177.6590  146.6010 C   0  0  0  0  0  0  0  0  0  0  0  0
  191.0990  177.6200  147.5060 C   0  0  0  0  0  2  0  0  0  0  0  0
  185.9700  177.9710  143.2860 C   0  0  0  0  0  0  0  0  0  0  0  0
  191.4340  175.2370  143.7880 C   0  0  0  0  0  0  0  0  0  0  0  0
  188.6370  177.0330  148.5420 O   0  0  0  0  0  1  0  0  0  0  0  0
  190.0660  178.3580  145.2820 C   0  0  2  0  0  3  0  0  0  0  0  0
  187.2460  177.5810  142.9330 C   0  0  0  0  0  3  0  0  0  0  0  0
  186.2860  177.7400  147.3950 O   0  0  0  0  0  0  0  0  0  0  0  0
  190.7170  177.6520  144.2800 C   0  0  1  0  0  0  0  0  0  0  0  0
  191.5990  176.4130  144.6400 C   0  0  1  0  0  3  0  0  0  0  0  0
  189.8570  177.7970  146.6690 C   0  0  0  0  0  0  0  0  0  0  0  0
  189.2270  177.5320  144.3810 N   0  0  0  0  0  0  0  0  0  0  0  0
  188.6360  177.5090  147.2310 C   0  0  0  0  0  0  0  0  0  0  0  0
  192.0640  176.5980  147.0230 N   0  0  0  0  0  0  0  0  0  0  0  0
  182.7060  178.9900  141.7580 N   0  0  0  0  0  0  0  0  0  0  0  0
  183.2240  178.6270  144.0790 N   0  0  0  0  0  1  0  0  0  0  0  0
  183.0240  178.9610  140.4360 C   0  0  0  0  0  3  0  0  0  0  0  0
  185.2760  178.4450  141.0060 N   0  0  0  0  0  0  0  0  0  0  0  0
  183.6330  178.7100  142.7140 C   0  0  0  0  0  0  0  0  0  0  0  0
  184.9680  178.4670  142.3330 C   0  0  0  0  0  0  0  0  0  0  0  0
  184.3410  178.6960  140.0540 C   0  0  0  0  0  3  0  0  0  0  0  0
  193.2030  176.5920  149.2150 C   0  0  0  0  0  1  0  0  0  0  0  0
  192.3970  175.7840  148.2010 C   0  0  0  0  0  2  0  0  0  0  0  0
  191.1370  178.5030  143.0820 C   0  0  0  0  0  2  0  0  0  0  0  0
  190.5170  177.9750  141.8030 C   0  0  0  0  0  2  0  0  0  0  0  0
  191.2790  177.1000  139.7020 N   0  0  0  0  0  0  0  0  0  0  0  0
  191.5970  177.6410  140.8260 C   0  0  0  0  0  3  0  0  0  0  0  0
  192.3120  176.6890  138.7780 C   0  0  0  0  0  2  0  0  0  0  0  0
  191.8720  175.4770  138.0120 C   0  0  0  0  0  0  0  0  0  0  0  0
  192.7210  174.8550  137.3150 O   0  0  0  0  0  0  0  0  0  0  0  0
  190.5610  174.9860  138.1010 O   0  0  0  0  0  0  0  0  0  0  0  0
  189.7550  174.7490  136.9540 C   0  0  0  0  0  2  0  0  0  0  0  0
  189.9090  175.9020  135.9790 C   0  0  0  0  0  2  0  0  0  0  0  0
  189.0560  179.7570  137.5770 O   0  0  0  0  0  1  0  0  0  0  0  0
  187.9160  177.7690  138.2710 C   0  0  0  0  0  0  0  0  0  0  0  0
  188.6210  176.5480  135.7550 N   0  0  0  0  0  0  0  0  0  0  0  0
  186.8990  176.8960  137.6010 C   0  0  0  0  0  2  0  0  0  0  0  0
  188.7840  177.9990  135.9510 C   0  0  0  0  0  2  0  0  0  0  0  0
  187.6560  175.9210  136.6860 C   0  0  1  0  0  3  0  0  0  0  0  0
  187.9350  177.8680  139.4920 O   0  0  0  0  0  0  0  0  0  0  0  0
  189.0080  178.3660  137.4330 C   0  0  1  0  0  3  0  0  0  0  0  0
  185.5900  174.4810  136.6730 N   0  0  0  0  0  1  0  0  0  0  0  0
  186.9800  174.6000  134.7990 O   0  0  0  0  0  0  0  0  0  0  0  0
  186.7580  174.9450  135.9940 C   0  0  0  0  0  0  0  0  0  0  0  0
  1  4  1  6  0  0  0
  1 21  1  0  0  0  0
  2  7  1  0  0  0  0
  3  4  1  0  0  0  0
  5 11  2  0  0  0  0
  6 19  1  0  0  0  0
  6  7  2  0  0  0  0
  7  8  1  0  0  0  0
  8 20  1  0  0  0  0
  8 15  2  0  0  0  0
 10  2  1  0  0  0  0
 11  3  1  0  0  0  0
 13 18  1  1  0  0  0
 14 10  2  0  0  0  0
 14  6  1  0  0  0  0
 16 31  1  6  0  0  0
 16 19  1  0  0  0  0
 16 17  1  0  0  0  0
 16 13  1  0  0  0  0
 17 11  1  6  0  0  0
 17  1  1  0  0  0  0
 18 20  2  0  0  0  0
 18  9  1  0  0  0  0
 19 13  1  0  0  0  0
 20 12  1  0  0  0  0
 21  9  1  0  0  0  0
 21 30  1  0  0  0  0
 22 26  1  0  0  0  0
 24 22  2  0  0  0  0
 25 27  1  0  0  0  0
 26 23  1  0  0  0  0
 27 26  2  0  0  0  0
 27 10  1  0  0  0  0
 28 24  1  0  0  0  0
 28 25  2  0  0  0  0
 30 29  1  0  0  0  0
 32 31  1  0  0  0  0
 33 34  2  0  0  0  0
 34 32  1  0  0  0  0
 35 33  1  0  0  0  0
 36 38  1  0  0  0  0
 36 35  1  0  0  0  0
 37 36  2  0  0  0  0
 39 38  1  0  0  0  0
 40 39  1  0  0  0  0
 42 47  2  0  0  0  0
 43 45  1  0  0  0  0
 43 40  1  0  0  0  0
 43 46  1  0  0  0  0
 44 42  1  0  0  0  0
 45 48  1  0  0  0  0
 46 51  1  6  0  0  0
 46 44  1  0  0  0  0
 48 41  1  6  0  0  0
 48 42  1  0  0  0  0
 50 51  2  0  0  0  0
 51 49  1  0  0  0  0
M  END
>  <MODEL>
4

>  <REMARK>
 VINA RESULT:      -6.3      4.026     10.915
  Name = 
  12 active torsions:
  status: ('A' for Active; 'I' for Inactive)
    1  A    between atoms: C_3  and  C_7
    2  A    between atoms: C_3  and  C_42
    3  A    between atoms: C_4  and  C_24
    4  A    between atoms: C_4  and  O_33
    5  A    between atoms: C_7  and  C_49
    6  A    between atoms: N_8  and  C_24
    7  A    between atoms: C_14  and  N_15
    8  A    between atoms: C_14  and  C_32
    9  A    between atoms: C_26  and  C_47
   10  A    between atoms: C_29  and  C_38
   11  A    between atoms: C_32  and  O_33
   12  A    between atoms: C_43  and  N_51
                            x       y       z     vdW  Elec       q    Type
                         _______ _______ _______ _____ _____    ______ ____

>  <TORSDO>
F 12

$$$$
=
 OpenBabel10222420583D

 51 57  0  0  1  0  0  0  0  0999 V2000
  189.9730  175.7300  135.6770 C   0  0  2  0  0  3  0  0  0  0  0  0
  184.1880  173.4980  135.6610 O   0  0  0  0  0  0  0  0  0  0  0  0
  189.7910  177.6740  134.5940 C   0  0  0  0  0  2  0  0  0  0  0  0
  190.7000  176.6250  134.8480 O   0  0  0  0  0  0  0  0  0  0  0  0
  187.9210  178.4640  135.8920 O   0  0  0  0  0  0  0  0  0  0  0  0
  185.7180  175.0060  136.0270 C   0  0  0  0  0  0  0  0  0  0  0  0
  185.4810  173.6970  135.6870 C   0  0  0  0  0  0  0  0  0  0  0  0
  186.5220  172.6530  135.4820 C   0  0  0  0  0  0  0  0  0  0  0  0
  190.1040  173.5810  136.8090 C   0  0  0  0  0  2  0  0  0  0  0  0
  183.5820  174.6150  136.0190 C   0  0  0  0  0  0  0  0  0  0  0  0
  188.8720  177.7010  135.7540 C   0  0  0  0  0  0  0  0  0  0  0  0
  188.8270  171.9470  135.0260 O   0  0  0  0  0  1  0  0  0  0  0  0
  187.8840  174.6070  137.5680 C   0  0  2  0  0  3  0  0  0  0  0  0
  184.5020  175.6080  136.2890 C   0  0  0  0  0  3  0  0  0  0  0  0
  186.1460  171.5610  134.9520 O   0  0  0  0  0  0  0  0  0  0  0  0
  188.0170  175.9830  137.4590 C   0  0  1  0  0  0  0  0  0  0  0  0
  189.2060  176.5950  136.6490 C   0  0  1  0  0  3  0  0  0  0  0  0
  188.6060  173.6450  136.6540 C   0  0  0  0  0  0  0  0  0  0  0  0
  186.9020  175.3160  136.7140 N   0  0  0  0  0  0  0  0  0  0  0  0
  187.9980  172.7940  135.7600 C   0  0  0  0  0  0  0  0  0  0  0  0
  190.8470  174.8090  136.4270 N   0  0  0  0  0  0  0  0  0  0  0  0
  180.2850  174.9290  137.7690 N   0  0  0  0  0  0  0  0  0  0  0  0
  182.4910  175.3110  138.6500 N   0  0  0  0  0  1  0  0  0  0  0  0
  179.4370  174.5240  136.7870 C   0  0  0  0  0  3  0  0  0  0  0  0
  181.2800  174.3400  135.2930 N   0  0  0  0  0  0  0  0  0  0  0  0
  181.6270  175.0050  137.5560 C   0  0  0  0  0  0  0  0  0  0  0  0
  182.1390  174.7400  136.2700 C   0  0  0  0  0  0  0  0  0  0  0  0
  179.9450  174.2360  135.5180 C   0  0  0  0  0  3  0  0  0  0  0  0
  193.2920  174.4950  136.2720 C   0  0  0  0  0  1  0  0  0  0  0  0
  191.9470  174.3530  135.5660 C   0  0  0  0  0  2  0  0  0  0  0  0
  187.5030  176.7630  138.6700 C   0  0  0  0  0  2  0  0  0  0  0  0
  188.6230  177.5590  139.3120 C   0  0  0  0  0  2  0  0  0  0  0  0
  186.7810  178.4940  140.5330 N   0  0  0  0  0  0  0  0  0  0  0  0
  188.0550  178.4680  140.3530 C   0  0  0  0  0  3  0  0  0  0  0  0
  186.2010  179.4280  141.4740 C   0  0  0  0  0  2  0  0  0  0  0  0
  185.3910  178.6940  142.5010 C   0  0  0  0  0  0  0  0  0  0  0  0
  184.1860  179.0280  142.6800 O   0  0  0  0  0  0  0  0  0  0  0  0
  185.9190  177.6110  143.2200 O   0  0  0  0  0  0  0  0  0  0  0  0
  186.6080  177.7760  144.4520 C   0  0  0  0  0  2  0  0  0  0  0  0
  187.8960  176.9720  144.4240 C   0  0  0  0  0  2  0  0  0  0  0  0
  191.5080  177.4890  142.2270 O   0  0  0  0  0  1  0  0  0  0  0  0
  191.3960  176.3020  144.3030 C   0  0  0  0  0  0  0  0  0  0  0  0
  188.9980  177.7670  144.9530 N   0  0  0  0  0  0  0  0  0  0  0  0
  191.2050  176.7510  145.7200 C   0  0  0  0  0  2  0  0  0  0  0  0
  189.8500  178.1930  143.8290 C   0  0  0  0  0  2  0  0  0  0  0  0
  189.6960  176.9280  145.9510 C   0  0  1  0  0  3  0  0  0  0  0  0
  192.0340  175.2850  144.0590 O   0  0  0  0  0  0  0  0  0  0  0  0
  190.6430  177.0170  143.2190 C   0  0  1  0  0  3  0  0  0  0  0  0
  188.1060  176.9070  147.9030 N   0  0  0  0  0  1  0  0  0  0  0  0
  190.1970  177.9350  148.0720 O   0  0  0  0  0  0  0  0  0  0  0  0
  189.3580  177.3210  147.3540 C   0  0  0  0  0  0  0  0  0  0  0  0
  1  4  1  6  0  0  0
  1 21  1  0  0  0  0
  1 17  1  0  0  0  0
  2  7  1  0  0  0  0
  2 10  1  0  0  0  0
  3  4  1  0  0  0  0
  3 11  1  0  0  0  0
  6 14  1  0  0  0  0
  6 19  1  0  0  0  0
  7  6  2  0  0  0  0
  8  7  1  0  0  0  0
  8 20  1  0  0  0  0
 10 27  1  0  0  0  0
 10 14  2  0  0  0  0
 11  5  2  0  0  0  0
 12 20  1  0  0  0  0
 13 18  1  6  0  0  0
 15  8  2  0  0  0  0
 16 13  1  0  0  0  0
 16 31  1  1  0  0  0
 17 11  1  6  0  0  0
 17 16  1  0  0  0  0
 18  9  1  0  0  0  0
 19 16  1  0  0  0  0
 19 13  1  0  0  0  0
 20 18  2  0  0  0  0
 21  9  1  0  0  0  0
 24 22  2  0  0  0  0
 25 28  2  0  0  0  0
 25 27  1  0  0  0  0
 26 22  1  0  0  0  0
 26 23  1  0  0  0  0
 27 26  2  0  0  0  0
 28 24  1  0  0  0  0
 30 29  1  0  0  0  0
 30 21  1  0  0  0  0
 31 32  1  0  0  0  0
 32 34  1  0  0  0  0
 33 35  1  0  0  0  0
 34 33  2  0  0  0  0
 35 36  1  0  0  0  0
 36 37  2  0  0  0  0
 36 38  1  0  0  0  0
 38 39  1  0  0  0  0
 40 39  1  0  0  0  0
 40 43  1  0  0  0  0
 42 44  1  0  0  0  0
 43 46  1  0  0  0  0
 44 46  1  0  0  0  0
 45 43  1  0  0  0  0
 46 51  1  1  0  0  0
 47 42  2  0  0  0  0
 48 41  1  6  0  0  0
 48 45  1  0  0  0  0
 48 42  1  0  0  0  0
 51 49  1  0  0  0  0
 51 50  2  0  0  0  0
M  END
>  <MODEL>
5

>  <REMARK>
 VINA RESULT:      -6.2      3.510      7.208
  Name = 
  12 active torsions:
  status: ('A' for Active; 'I' for Inactive)
    1  A    between atoms: C_3  and  C_7
    2  A    between atoms: C_3  and  C_42
    3  A    between atoms: C_4  and  C_24
    4  A    between atoms: C_4  and  O_33
    5  A    between atoms: C_7  and  C_49
    6  A    between atoms: N_8  and  C_24
    7  A    between atoms: C_14  and  N_15
    8  A    between atoms: C_14  and  C_32
    9  A    between atoms: C_26  and  C_47
   10  A    between atoms: C_29  and  C_38
   11  A    between atoms: C_32  and  O_33
   12  A    between atoms: C_43  and  N_51
                            x       y       z     vdW  Elec       q    Type
                         _______ _______ _______ _____ _____    ______ ____

>  <TORSDO>
F 12

$$$$
=
 OpenBabel10222420583D

 51 57  0  0  1  0  0  0  0  0999 V2000
  191.3960  175.8860  145.8150 C   0  0  2  0  0  3  0  0  0  0  0  0
  185.6020  177.8920  144.8900 O   0  0  0  0  0  0  0  0  0  0  0  0
  191.6020  174.1880  144.3790 C   0  0  0  0  0  2  0  0  0  0  0  0
  192.0650  174.6470  145.6300 O   0  0  0  0  0  0  0  0  0  0  0  0
  190.7710  175.4170  142.4800 O   0  0  0  0  0  0  0  0  0  0  0  0
  187.6150  177.3280  144.2730 C   0  0  0  0  0  0  0  0  0  0  0  0
  186.7910  177.5810  145.3420 C   0  0  0  0  0  0  0  0  0  0  0  0
  187.2050  177.5990  146.7710 C   0  0  0  0  0  0  0  0  0  0  0  0
  191.0860  177.7180  147.3850 C   0  0  0  0  0  2  0  0  0  0  0  0
  185.6410  177.8970  143.5700 C   0  0  0  0  0  0  0  0  0  0  0  0
  191.2410  175.4020  143.6130 C   0  0  0  0  0  0  0  0  0  0  0  0
  188.7380  177.0080  148.5930 O   0  0  0  0  0  1  0  0  0  0  0  0
  189.8560  178.4390  145.2580 C   0  0  2  0  0  3  0  0  0  0  0  0
  186.9020  177.5690  143.1150 C   0  0  0  0  0  3  0  0  0  0  0  0
  186.2780  177.6250  147.6390 O   0  0  0  0  0  0  0  0  0  0  0  0
  190.4590  177.7760  144.1990 C   0  0  1  0  0  0  0  0  0  0  0  0
  191.4190  176.5730  144.4700 C   0  0  1  0  0  3  0  0  0  0  0  0
  189.7780  177.8500  146.6470 C   0  0  0  0  0  0  0  0  0  0  0  0
  188.9870  177.5890  144.4090 N   0  0  0  0  0  0  0  0  0  0  0  0
  188.6170  177.5010  147.2950 C   0  0  0  0  0  0  0  0  0  0  0  0
  192.0550  176.7470  146.8140 N   0  0  0  0  0  0  0  0  0  0  0  0
  182.2650  178.9900  142.3700 N   0  0  0  0  0  0  0  0  0  0  0  0
  183.0780  178.8470  144.6300 N   0  0  0  0  0  1  0  0  0  0  0  0
  182.3940  178.7900  141.0320 C   0  0  0  0  0  3  0  0  0  0  0  0
  184.6670  178.1670  141.3600 N   0  0  0  0  0  0  0  0  0  0  0  0
  183.2970  178.7460  143.2240 C   0  0  0  0  0  0  0  0  0  0  0  0
  184.5480  178.3600  142.7030 C   0  0  0  0  0  0  0  0  0  0  0  0
  183.6270  178.3830  140.5150 C   0  0  0  0  0  3  0  0  0  0  0  0
  192.8260  176.8070  149.1600 C   0  0  0  0  0  1  0  0  0  0  0  0
  192.5120  175.9330  147.9490 C   0  0  0  0  0  2  0  0  0  0  0  0
  190.7490  178.6610  142.9860 C   0  0  0  0  0  2  0  0  0  0  0  0
  190.6270  177.8690  141.6990 C   0  0  0  0  0  2  0  0  0  0  0  0
  189.1610  177.8580  139.7990 N   0  0  0  0  0  0  0  0  0  0  0  0
  189.3380  178.2090  141.0250 C   0  0  0  0  0  3  0  0  0  0  0  0
  187.9580  178.2510  139.0990 C   0  0  0  0  0  2  0  0  0  0  0  0
  188.2620  178.5250  137.6560 C   0  0  0  0  0  0  0  0  0  0  0  0
  187.4730  179.2560  136.9950 O   0  0  0  0  0  0  0  0  0  0  0  0
  189.4290  178.0410  137.0450 O   0  0  0  0  0  0  0  0  0  0  0  0
  189.4630  176.8150  136.3290 C   0  0  0  0  0  2  0  0  0  0  0  0
  190.9020  176.3610  136.1670 C   0  0  0  0  0  2  0  0  0  0  0  0
  193.7020  176.8490  139.3400 O   0  0  0  0  0  1  0  0  0  0  0  0
  194.0490  175.3510  137.5050 C   0  0  0  0  0  0  0  0  0  0  0  0
  191.1950  175.2740  137.0940 N   0  0  0  0  0  0  0  0  0  0  0  0
  193.4250  174.0410  137.1330 C   0  0  0  0  0  2  0  0  0  0  0  0
  191.7550  175.8500  138.3300 C   0  0  0  0  0  2  0  0  0  0  0  0
  192.1120  174.3460  136.3950 C   0  0  1  0  0  3  0  0  0  0  0  0
  195.2040  175.5990  137.1780 O   0  0  0  0  0  0  0  0  0  0  0  0
  193.1790  176.4080  138.1200 C   0  0  1  0  0  3  0  0  0  0  0  0
  190.0180  173.1970  135.5970 N   0  0  0  0  0  1  0  0  0  0  0  0
  192.0490  172.0480  135.7010 O   0  0  0  0  0  0  0  0  0  0  0  0
  191.4090  173.1180  135.9110 C   0  0  0  0  0  0  0  0  0  0  0  0
  1  4  1  6  0  0  0
  1 21  1  0  0  0  0
  2  7  1  0  0  0  0
  3  4  1  0  0  0  0
  5 11  2  0  0  0  0
  6 19  1  0  0  0  0
  6  7  2  0  0  0  0
  7  8  1  0  0  0  0
  8 20  1  0  0  0  0
  8 15  2  0  0  0  0
 10  2  1  0  0  0  0
 11  3  1  0  0  0  0
 13 18  1  1  0  0  0
 14 10  2  0  0  0  0
 14  6  1  0  0  0  0
 16 31  1  6  0  0  0
 16 19  1  0  0  0  0
 16 17  1  0  0  0  0
 16 13  1  0  0  0  0
 17 11  1  6  0  0  0
 17  1  1  0  0  0  0
 18 20  2  0  0  0  0
 18  9  1  0  0  0  0
 19 13  1  0  0  0  0
 20 12  1  0  0  0  0
 21  9  1  0  0  0  0
 21 30  1  0  0  0  0
 22 26  1  0  0  0  0
 24 22  2  0  0  0  0
 25 27  1  0  0  0  0
 26 23  1  0  0  0  0
 27 26  2  0  0  0  0
 27 10  1  0  0  0  0
 28 24  1  0  0  0  0
 28 25  2  0  0  0  0
 30 29  1  0  0  0  0
 32 31  1  0  0  0  0
 33 34  2  0  0  0  0
 34 32  1  0  0  0  0
 35 33  1  0  0  0  0
 36 35  1  0  0  0  0
 37 36  2  0  0  0  0
 38 36  1  0  0  0  0
 39 38  1  0  0  0  0
 40 39  1  0  0  0  0
 40 43  1  0  0  0  0
 42 48  1  0  0  0  0
 43 45  1  0  0  0  0
 44 42  1  0  0  0  0
 46 51  1  1  0  0  0
 46 43  1  0  0  0  0
 46 44  1  0  0  0  0
 47 42  2  0  0  0  0
 48 45  1  0  0  0  0
 48 41  1  1  0  0  0
 49 51  1  0  0  0  0
 50 51  2  0  0  0  0
M  END
>  <MODEL>
6

>  <REMARK>
 VINA RESULT:      -6.1      4.454     10.991
  Name = 
  12 active torsions:
  status: ('A' for Active; 'I' for Inactive)
    1  A    between atoms: C_3  and  C_7
    2  A    between atoms: C_3  and  C_42
    3  A    between atoms: C_4  and  C_24
    4  A    between atoms: C_4  and  O_33
    5  A    between atoms: C_7  and  C_49
    6  A    between atoms: N_8  and  C_24
    7  A    between atoms: C_14  and  N_15
    8  A    between atoms: C_14  and  C_32
    9  A    between atoms: C_26  and  C_47
   10  A    between atoms: C_29  and  C_38
   11  A    between atoms: C_32  and  O_33
   12  A    between atoms: C_43  and  N_51
                            x       y       z     vdW  Elec       q    Type
                         _______ _______ _______ _____ _____    ______ ____

>  <TORSDO>
F 12

$$$$
=
 OpenBabel10222420583D

 51 57  0  0  1  0  0  0  0  0999 V2000
  188.9280  178.1520  138.5550 C   0  0  2  0  0  3  0  0  0  0  0  0
  194.6690  175.9640  137.7120 O   0  0  0  0  0  0  0  0  0  0  0  0
  188.5250  179.3080  136.6870 C   0  0  0  0  0  2  0  0  0  0  0  0
  188.2030  179.2680  138.0600 O   0  0  0  0  0  0  0  0  0  0  0  0
  189.2070  177.5410  135.1960 O   0  0  0  0  0  0  0  0  0  0  0  0
  192.5870  176.3010  137.1620 C   0  0  0  0  0  0  0  0  0  0  0  0
  193.5200  176.4000  138.1640 C   0  0  0  0  0  0  0  0  0  0  0  0
  193.2490  176.8360  139.5610 C   0  0  0  0  0  0  0  0  0  0  0  0
  189.4530  176.9120  140.5810 C   0  0  0  0  0  2  0  0  0  0  0  0
  194.5010  175.5410  136.4720 C   0  0  0  0  0  0  0  0  0  0  0  0
  188.8500  177.9140  136.3100 C   0  0  0  0  0  0  0  0  0  0  0  0
  191.8830  177.9710  141.2530 O   0  0  0  0  0  1  0  0  0  0  0  0
  190.4930  175.5560  138.6730 C   0  0  2  0  0  3  0  0  0  0  0  0
  193.1910  175.7060  136.0710 C   0  0  0  0  0  3  0  0  0  0  0  0
  194.2580  177.0870  140.2920 O   0  0  0  0  0  0  0  0  0  0  0  0
  189.7670  175.8480  137.5280 C   0  0  1  0  0  0  0  0  0  0  0  0
  188.7970  177.0740  137.5050 C   0  0  1  0  0  3  0  0  0  0  0  0
  190.6870  176.5540  139.7900 C   0  0  0  0  0  0  0  0  0  0  0  0
  191.2440  176.0950  137.5150 N   0  0  0  0  0  0  0  0  0  0  0  0
  191.8930  177.0930  140.1710 C   0  0  0  0  0  0  0  0  0  0  0  0
  188.4010  177.6510  139.8370 N   0  0  0  0  0  0  0  0  0  0  0  0
  196.5680  172.8040  134.9680 N   0  0  0  0  0  0  0  0  0  0  0  0
  194.4200  172.6420  136.0400 N   0  0  0  0  0  1  0  0  0  0  0  0
  197.6750  173.4970  134.5940 C   0  0  0  0  0  3  0  0  0  0  0  0
  196.6310  175.5140  135.3040 N   0  0  0  0  0  0  0  0  0  0  0  0
  195.5050  173.4270  135.5480 C   0  0  0  0  0  0  0  0  0  0  0  0
  195.5180  174.8290  135.6870 C   0  0  0  0  0  0  0  0  0  0  0  0
  197.7010  174.8850  134.7530 C   0  0  0  0  0  3  0  0  0  0  0  0
  187.1360  178.3250  141.8490 C   0  0  0  0  0  1  0  0  0  0  0  0
  188.0300  178.7820  140.6990 C   0  0  0  0  0  2  0  0  0  0  0  0
  189.3890  174.6240  136.6930 C   0  0  0  0  0  2  0  0  0  0  0  0
  187.9510  174.7180  136.2200 C   0  0  0  0  0  2  0  0  0  0  0  0
  186.0050  173.3170  136.3010 N   0  0  0  0  0  0  0  0  0  0  0  0
  187.1630  173.5860  136.7940 C   0  0  0  0  0  3  0  0  0  0  0  0
  185.1870  172.2820  136.8960 C   0  0  0  0  0  2  0  0  0  0  0  0
  183.7420  172.6830  136.8680 C   0  0  0  0  0  0  0  0  0  0  0  0
  182.8590  171.7830  136.9370 O   0  0  0  0  0  0  0  0  0  0  0  0
  183.3510  174.0300  136.8290 O   0  0  0  0  0  0  0  0  0  0  0  0
  182.6400  174.6490  137.8920 C   0  0  0  0  0  2  0  0  0  0  0  0
  183.3430  175.9340  138.2910 C   0  0  0  0  0  2  0  0  0  0  0  0
  184.5490  179.8520  139.4480 O   0  0  0  0  0  1  0  0  0  0  0  0
  183.1780  178.4460  140.8170 C   0  0  0  0  0  0  0  0  0  0  0  0
  182.3720  177.0110  138.4480 N   0  0  0  0  0  0  0  0  0  0  0  0
  181.7500  178.0060  140.7100 C   0  0  0  0  0  2  0  0  0  0  0  0
  183.0790  178.3000  138.3350 C   0  0  0  0  0  2  0  0  0  0  0  0
  181.7040  176.8050  139.7520 C   0  0  1  0  0  3  0  0  0  0  0  0
  183.7110  178.5480  141.9160 O   0  0  0  0  0  0  0  0  0  0  0  0
  183.9820  178.5780  139.5570 C   0  0  1  0  0  3  0  0  0  0  0  0
  179.4760  176.7440  138.5830 N   0  0  0  0  0  1  0  0  0  0  0  0
  179.9710  175.2360  140.2970 O   0  0  0  0  0  0  0  0  0  0  0  0
  180.3350  176.2250  139.5990 C   0  0  0  0  0  0  0  0  0  0  0  0
  1  4  1  6  0  0  0
  1 21  1  0  0  0  0
  2  7  1  0  0  0  0
  3  4  1  0  0  0  0
  5 11  2  0  0  0  0
  6 19  1  0  0  0  0
  6  7  2  0  0  0  0
  7  8  1  0  0  0  0
  8 20  1  0  0  0  0
  8 15  2  0  0  0  0
 10  2  1  0  0  0  0
 11  3  1  0  0  0  0
 13 18  1  1  0  0  0
 14 10  2  0  0  0  0
 14  6  1  0  0  0  0
 16 31  1  6  0  0  0
 16 13  1  0  0  0  0
 17 11  1  6  0  0  0
 17 16  1  0  0  0  0
 17  1  1  0  0  0  0
 18 20  2  0  0  0  0
 18  9  1  0  0  0  0
 19 16  1  0  0  0  0
 19 13  1  0  0  0  0
 20 12  1  0  0  0  0
 21  9  1  0  0  0  0
 21 30  1  0  0  0  0
 22 26  1  0  0  0  0
 24 28  1  0  0  0  0
 24 22  2  0  0  0  0
 25 27  1  0  0  0  0
 26 27  2  0  0  0  0
 26 23  1  0  0  0  0
 27 10  1  0  0  0  0
 28 25  2  0  0  0  0
 30 29  1  0  0  0  0
 32 31  1  0  0  0  0
 32 34  1  0  0  0  0
 33 34  2  0  0  0  0
 33 35  1  0  0  0  0
 36 35  1  0  0  0  0
 36 37  2  0  0  0  0
 38 36  1  0  0  0  0
 38 39  1  0  0  0  0
 39 40  1  0  0  0  0
 40 43  1  0  0  0  0
 42 47  2  0  0  0  0
 43 46  1  0  0  0  0
 44 42  1  0  0  0  0
 45 43  1  0  0  0  0
 45 48  1  0  0  0  0
 46 51  1  6  0  0  0
 46 44  1  0  0  0  0
 48 41  1  6  0  0  0
 48 42  1  0  0  0  0
 49 51  1  0  0  0  0
 51 50  2  0  0  0  0
M  END
>  <MODEL>
7

>  <REMARK>
 VINA RESULT:      -6.1      5.075      8.336
  Name = 
  12 active torsions:
  status: ('A' for Active; 'I' for Inactive)
    1  A    between atoms: C_3  and  C_7
    2  A    between atoms: C_3  and  C_42
    3  A    between atoms: C_4  and  C_24
    4  A    between atoms: C_4  and  O_33
    5  A    between atoms: C_7  and  C_49
    6  A    between atoms: N_8  and  C_24
    7  A    between atoms: C_14  and  N_15
    8  A    between atoms: C_14  and  C_32
    9  A    between atoms: C_26  and  C_47
   10  A    between atoms: C_29  and  C_38
   11  A    between atoms: C_32  and  O_33
   12  A    between atoms: C_43  and  N_51
                            x       y       z     vdW  Elec       q    Type
                         _______ _______ _______ _____ _____    ______ ____

>  <TORSDO>
F 12

$$$$
=
 OpenBabel10222420583D

 51 57  0  0  1  0  0  0  0  0999 V2000
  191.3980  175.8300  145.7930 C   0  0  2  0  0  3  0  0  0  0  0  0
  185.6760  177.9390  144.6670 O   0  0  0  0  0  0  0  0  0  0  0  0
  191.5890  174.0720  144.4300 C   0  0  0  0  0  2  0  0  0  0  0  0
  192.0390  174.5680  145.6710 O   0  0  0  0  0  0  0  0  0  0  0  0
  190.8280  175.2440  142.4660 O   0  0  0  0  0  0  0  0  0  0  0  0
  187.6870  177.3010  144.1160 C   0  0  0  0  0  0  0  0  0  0  0  0
  186.8470  177.6170  145.1560 C   0  0  0  0  0  0  0  0  0  0  0  0
  187.2340  177.6820  146.5920 C   0  0  0  0  0  0  0  0  0  0  0  0
  191.1030  177.7300  147.2820 C   0  0  0  0  0  2  0  0  0  0  0  0
  185.7420  177.8900  143.3490 C   0  0  0  0  0  0  0  0  0  0  0  0
  191.2750  175.2630  143.6090 C   0  0  0  0  0  0  0  0  0  0  0  0
  188.7140  177.1260  148.4680 O   0  0  0  0  0  1  0  0  0  0  0  0
  189.9350  178.3960  145.1030 C   0  0  2  0  0  3  0  0  0  0  0  0
  187.0030  177.5130  142.9340 C   0  0  0  0  0  3  0  0  0  0  0  0
  186.2900  177.7650  147.4390 O   0  0  0  0  0  0  0  0  0  0  0  0
  190.5410  177.6770  144.0840 C   0  0  1  0  0  0  0  0  0  0  0  0
  191.4650  176.4620  144.4220 C   0  0  1  0  0  3  0  0  0  0  0  0
  189.8130  177.8650  146.5120 C   0  0  0  0  0  0  0  0  0  0  0  0
  189.0620  177.5340  144.2700 N   0  0  0  0  0  0  0  0  0  0  0  0
  188.6310  177.5700  147.1490 C   0  0  0  0  0  0  0  0  0  0  0  0
  192.0580  176.7140  146.7710 N   0  0  0  0  0  0  0  0  0  0  0  0
  182.3870  178.8670  142.0000 N   0  0  0  0  0  0  0  0  0  0  0  0
  183.0670  178.6300  144.2950 N   0  0  0  0  0  1  0  0  0  0  0  0
  182.6090  178.7580  140.6630 C   0  0  0  0  0  3  0  0  0  0  0  0
  184.8910  178.2420  141.1010 N   0  0  0  0  0  0  0  0  0  0  0  0
  183.3770  178.6280  142.9030 C   0  0  0  0  0  0  0  0  0  0  0  0
  184.6790  178.3450  142.4420 C   0  0  0  0  0  0  0  0  0  0  0  0
  183.8930  178.4520  140.2040 C   0  0  0  0  0  3  0  0  0  0  0  0
  192.8050  176.8500  149.1210 C   0  0  0  0  0  1  0  0  0  0  0  0
  192.4710  175.9350  147.9460 C   0  0  0  0  0  2  0  0  0  0  0  0
  190.8780  178.5050  142.8430 C   0  0  0  0  0  2  0  0  0  0  0  0
  192.1110  177.9590  142.1500 C   0  0  0  0  0  2  0  0  0  0  0  0
  190.5830  177.5500  140.3450 N   0  0  0  0  0  0  0  0  0  0  0  0
  191.8070  177.7200  140.7070 C   0  0  0  0  0  3  0  0  0  0  0  0
  190.2720  177.2320  138.9680 C   0  0  0  0  0  2  0  0  0  0  0  0
  189.0460  177.9750  138.5280 C   0  0  0  0  0  0  0  0  0  0  0  0
  188.6440  178.9510  139.2200 O   0  0  0  0  0  0  0  0  0  0  0  0
  188.3750  177.6500  137.3390 O   0  0  0  0  0  0  0  0  0  0  0  0
  187.3390  176.6790  137.2880 C   0  0  0  0  0  2  0  0  0  0  0  0
  186.9840  176.3920  135.8410 C   0  0  0  0  0  2  0  0  0  0  0  0
  184.1590  173.2140  135.5850 O   0  0  0  0  0  1  0  0  0  0  0  0
  185.9050  173.2860  137.2210 C   0  0  0  0  0  0  0  0  0  0  0  0
  187.3940  175.0400  135.4800 N   0  0  0  0  0  0  0  0  0  0  0  0
  187.3890  173.0970  137.1310 C   0  0  0  0  0  2  0  0  0  0  0  0
  186.2160  174.3110  134.9750 C   0  0  0  0  0  2  0  0  0  0  0  0
  188.0000  174.4360  136.6880 C   0  0  1  0  0  3  0  0  0  0  0  0
  185.3100  173.0030  138.2540 O   0  0  0  0  0  0  0  0  0  0  0  0
  185.2040  173.9900  136.0960 C   0  0  1  0  0  3  0  0  0  0  0  0
  190.1370  174.9320  135.4520 N   0  0  0  0  0  1  0  0  0  0  0  0
  190.1800  174.0010  137.5940 O   0  0  0  0  0  0  0  0  0  0  0  0
  189.4940  174.4050  136.6130 C   0  0  0  0  0  0  0  0  0  0  0  0
  1  4  1  6  0  0  0
  1 21  1  0  0  0  0
  2  7  1  0  0  0  0
  3  4  1  0  0  0  0
  5 11  2  0  0  0  0
  6 19  1  0  0  0  0
  6  7  2  0  0  0  0
  7  8  1  0  0  0  0
  8 20  1  0  0  0  0
  8 15  2  0  0  0  0
 10  2  1  0  0  0  0
 11  3  1  0  0  0  0
 13 18  1  1  0  0  0
 14 10  2  0  0  0  0
 14  6  1  0  0  0  0
 16 31  1  6  0  0  0
 16 19  1  0  0  0  0
 16 17  1  0  0  0  0
 16 13  1  0  0  0  0
 17 11  1  6  0  0  0
 17  1  1  0  0  0  0
 18 20  2  0  0  0  0
 18  9  1  0  0  0  0
 19 13  1  0  0  0  0
 20 12  1  0  0  0  0
 21  9  1  0  0  0  0
 21 30  1  0  0  0  0
 22 26  1  0  0  0  0
 24 22  2  0  0  0  0
 25 27  1  0  0  0  0
 26 23  1  0  0  0  0
 27 26  2  0  0  0  0
 27 10  1  0  0  0  0
 28 24  1  0  0  0  0
 28 25  2  0  0  0  0
 30 29  1  0  0  0  0
 32 31  1  0  0  0  0
 33 34  2  0  0  0  0
 34 32  1  0  0  0  0
 35 33  1  0  0  0  0
 36 35  1  0  0  0  0
 36 37  2  0  0  0  0
 38 36  1  0  0  0  0
 39 38  1  0  0  0  0
 40 39  1  0  0  0  0
 42 47  2  0  0  0  0
 43 40  1  0  0  0  0
 43 46  1  0  0  0  0
 44 42  1  0  0  0  0
 45 43  1  0  0  0  0
 45 48  1  0  0  0  0
 46 51  1  6  0  0  0
 46 44  1  0  0  0  0
 48 41  1  6  0  0  0
 48 42  1  0  0  0  0
 49 51  1  0  0  0  0
 51 50  2  0  0  0  0
M  END
>  <MODEL>
8

>  <REMARK>
 VINA RESULT:      -6.0      3.694     10.747
  Name = 
  12 active torsions:
  status: ('A' for Active; 'I' for Inactive)
    1  A    between atoms: C_3  and  C_7
    2  A    between atoms: C_3  and  C_42
    3  A    between atoms: C_4  and  C_24
    4  A    between atoms: C_4  and  O_33
    5  A    between atoms: C_7  and  C_49
    6  A    between atoms: N_8  and  C_24
    7  A    between atoms: C_14  and  N_15
    8  A    between atoms: C_14  and  C_32
    9  A    between atoms: C_26  and  C_47
   10  A    between atoms: C_29  and  C_38
   11  A    between atoms: C_32  and  O_33
   12  A    between atoms: C_43  and  N_51
                            x       y       z     vdW  Elec       q    Type
                         _______ _______ _______ _____ _____    ______ ____

>  <TORSDO>
F 12

$$$$
=
 OpenBabel10222420583D

 51 57  0  0  1  0  0  0  0  0999 V2000
  191.3460  175.8120  145.7650 C   0  0  2  0  0  3  0  0  0  0  0  0
  185.5920  177.9570  144.9020 O   0  0  0  0  0  0  0  0  0  0  0  0
  191.4630  174.0520  144.3960 C   0  0  0  0  0  2  0  0  0  0  0  0
  191.9720  174.5470  145.6150 O   0  0  0  0  0  0  0  0  0  0  0  0
  190.6200  175.2280  142.4690 O   0  0  0  0  0  0  0  0  0  0  0  0
  187.5710  177.3060  144.2600 C   0  0  0  0  0  0  0  0  0  0  0  0
  186.7820  177.6280  145.3370 C   0  0  0  0  0  0  0  0  0  0  0  0
  187.2340  177.6910  146.7540 C   0  0  0  0  0  0  0  0  0  0  0  0
  191.1320  177.7150  147.2650 C   0  0  0  0  0  2  0  0  0  0  0  0
  185.5960  177.9070  143.5830 C   0  0  0  0  0  0  0  0  0  0  0  0
  191.1180  175.2450  143.5900 C   0  0  0  0  0  0  0  0  0  0  0  0
  188.7960  177.1270  148.5600 O   0  0  0  0  0  1  0  0  0  0  0  0
  189.8690  178.3870  145.1410 C   0  0  2  0  0  3  0  0  0  0  0  0
  186.8350  177.5220  143.1100 C   0  0  0  0  0  3  0  0  0  0  0  0
  186.3310  177.7810  147.6430 O   0  0  0  0  0  0  0  0  0  0  0  0
  190.4230  177.6640  144.0960 C   0  0  1  0  0  0  0  0  0  0  0  0
  191.3540  176.4430  144.3920 C   0  0  1  0  0  3  0  0  0  0  0  0
  189.8090  177.8580  146.5550 C   0  0  0  0  0  0  0  0  0  0  0  0
  188.9530  177.5300  144.3500 N   0  0  0  0  0  0  0  0  0  0  0  0
  188.6550  177.5710  147.2460 C   0  0  0  0  0  0  0  0  0  0  0  0
  192.0560  176.6920  146.7110 N   0  0  0  0  0  0  0  0  0  0  0  0
  182.2110  179.0020  142.4130 N   0  0  0  0  0  0  0  0  0  0  0  0
  183.0470  178.8700  144.6650 N   0  0  0  0  0  1  0  0  0  0  0  0
  182.3250  178.7950  141.0750 C   0  0  0  0  0  3  0  0  0  0  0  0
  184.5990  178.1680  141.3820 N   0  0  0  0  0  0  0  0  0  0  0  0
  183.2510  178.7610  143.2570 C   0  0  0  0  0  0  0  0  0  0  0  0
  184.4960  178.3680  142.7250 C   0  0  0  0  0  0  0  0  0  0  0  0
  183.5510  178.3810  140.5470 C   0  0  0  0  0  3  0  0  0  0  0  0
  192.8020  176.8170  149.0620 C   0  0  0  0  0  1  0  0  0  0  0  0
  192.5180  175.9110  147.8670 C   0  0  0  0  0  2  0  0  0  0  0  0
  190.7080  178.4890  142.8410 C   0  0  0  0  0  2  0  0  0  0  0  0
  191.9420  177.9740  142.1260 C   0  0  0  0  0  2  0  0  0  0  0  0
  190.5730  177.3290  140.2640 N   0  0  0  0  0  0  0  0  0  0  0  0
  191.6670  177.8790  140.6610 C   0  0  0  0  0  3  0  0  0  0  0  0
  190.3240  177.1480  138.8510 C   0  0  0  0  0  2  0  0  0  0  0  0
  189.0820  177.8820  138.4430 C   0  0  0  0  0  0  0  0  0  0  0  0
  189.0540  179.1400  138.5540 O   0  0  0  0  0  0  0  0  0  0  0  0
  187.9800  177.2150  137.8880 O   0  0  0  0  0  0  0  0  0  0  0  0
  187.0030  177.8800  137.0990 C   0  0  0  0  0  2  0  0  0  0  0  0
  185.6150  177.4970  137.5810 C   0  0  0  0  0  2  0  0  0  0  0  0
  181.5280  177.7770  136.4150 O   0  0  0  0  0  1  0  0  0  0  0  0
  182.3930  175.9790  137.7380 C   0  0  0  0  0  0  0  0  0  0  0  0
  185.0170  176.5250  136.6730 N   0  0  0  0  0  0  0  0  0  0  0  0
  183.2790  174.8150  137.4140 C   0  0  0  0  0  2  0  0  0  0  0  0
  183.8220  177.1310  136.0590 C   0  0  0  0  0  2  0  0  0  0  0  0
  184.7330  175.3090  137.4680 C   0  0  1  0  0  3  0  0  0  0  0  0
  181.5640  175.8910  138.6360 O   0  0  0  0  0  0  0  0  0  0  0  0
  182.6660  177.2940  137.0690 C   0  0  1  0  0  3  0  0  0  0  0  0
  185.4810  172.9210  137.7390 N   0  0  0  0  0  1  0  0  0  0  0  0
  186.7430  174.4370  136.4880 O   0  0  0  0  0  0  0  0  0  0  0  0
  185.7330  174.2260  137.2190 C   0  0  0  0  0  0  0  0  0  0  0  0
  1  4  1  6  0  0  0
  1 21  1  0  0  0  0
  2  7  1  0  0  0  0
  3  4  1  0  0  0  0
  5 11  2  0  0  0  0
  6 19  1  0  0  0  0
  6  7  2  0  0  0  0
  7  8  1  0  0  0  0
  8 20  1  0  0  0  0
  8 15  2  0  0  0  0
 10  2  1  0  0  0  0
 11  3  1  0  0  0  0
 13 18  1  1  0  0  0
 14 10  2  0  0  0  0
 14  6  1  0  0  0  0
 16 31  1  6  0  0  0
 16 19  1  0  0  0  0
 16 17  1  0  0  0  0
 16 13  1  0  0  0  0
 17 11  1  6  0  0  0
 17  1  1  0  0  0  0
 18 20  2  0  0  0  0
 18  9  1  0  0  0  0
 19 13  1  0  0  0  0
 20 12  1  0  0  0  0
 21  9  1  0  0  0  0
 21 30  1  0  0  0  0
 22 26  1  0  0  0  0
 24 22  2  0  0  0  0
 25 27  1  0  0  0  0
 26 23  1  0  0  0  0
 27 26  2  0  0  0  0
 27 10  1  0  0  0  0
 28 24  1  0  0  0  0
 28 25  2  0  0  0  0
 30 29  1  0  0  0  0
 32 31  1  0  0  0  0
 33 34  2  0  0  0  0
 34 32  1  0  0  0  0
 35 33  1  0  0  0  0
 36 37  2  0  0  0  0
 36 35  1  0  0  0  0
 38 36  1  0  0  0  0
 39 40  1  0  0  0  0
 39 38  1  0  0  0  0
 42 47  2  0  0  0  0
 43 46  1  0  0  0  0
 43 40  1  0  0  0  0
 44 46  1  0  0  0  0
 44 42  1  0  0  0  0
 45 43  1  0  0  0  0
 45 48  1  0  0  0  0
 46 51  1  6  0  0  0
 48 41  1  6  0  0  0
 48 42  1  0  0  0  0
 50 51  2  0  0  0  0
 51 49  1  0  0  0  0
M  END
>  <MODEL>
9

>  <REMARK>
 VINA RESULT:      -6.0      3.556     10.573
  Name = 
  12 active torsions:
  status: ('A' for Active; 'I' for Inactive)
    1  A    between atoms: C_3  and  C_7
    2  A    between atoms: C_3  and  C_42
    3  A    between atoms: C_4  and  C_24
    4  A    between atoms: C_4  and  O_33
    5  A    between atoms: C_7  and  C_49
    6  A    between atoms: N_8  and  C_24
    7  A    between atoms: C_14  and  N_15
    8  A    between atoms: C_14  and  C_32
    9  A    between atoms: C_26  and  C_47
   10  A    between atoms: C_29  and  C_38
   11  A    between atoms: C_32  and  O_33
   12  A    between atoms: C_43  and  N_51
                            x       y       z     vdW  Elec       q    Type
                         _______ _______ _______ _____ _____    ______ ____

>  <TORSDO>
F 12

$$$$
