=
 OpenBabel10222418093D

 25 28  0  0  1  0  0  0  0  0999 V2000
  191.6980  176.0440  144.8920 C   0  0  0  0  0  2  0  0  0  0  0  0
  191.6100  178.5160  144.6350 C   0  0  0  0  0  1  0  0  0  0  0  0
  191.9550  175.8030  146.3830 C   0  0  0  0  0  2  0  0  0  0  0  0
  188.1420  177.9490  147.5370 N   0  0  0  0  0  0  0  0  0  0  0  0
  190.7800  177.2600  144.8480 C   0  0  2  0  0  0  0  0  0  0  0  0
  190.1980  177.2700  146.2240 C   0  0  2  0  0  3  0  0  0  0  0  0
  189.6980  177.1760  143.7670 C   0  0  0  0  0  0  0  0  0  0  0  0
  190.0670  176.7750  142.4460 N   0  0  0  0  0  2  0  0  0  0  0  0
  188.0690  177.9760  145.3200 C   0  0  0  0  0  0  0  0  0  0  0  0
  190.7990  176.4490  147.0600 C   0  0  0  0  0  2  0  0  0  0  0  0
  188.8610  177.8140  146.4080 C   0  0  0  0  0  0  0  0  0  0  0  0
  188.4670  177.5680  144.0050 N   0  0  0  0  0  0  0  0  0  0  0  0
  186.8910  178.2270  147.1750 N   0  0  0  0  0  2  0  0  0  0  0  0
  186.8160  178.2330  145.8220 C   0  0  0  0  0  0  0  0  0  0  0  0
  183.4580  178.7650  144.5830 N   0  0  0  0  0  0  0  0  0  0  0  0
  185.5740  178.4010  145.0600 C   0  0  0  0  0  0  0  0  0  0  0  0
  183.6070  178.5100  142.1080 C   0  0  0  0  0  1  0  0  0  0  0  0
  184.1880  178.5230  143.4770 C   0  0  0  0  0  0  0  0  0  0  0  0
  184.3390  178.6880  145.5980 C   0  0  0  0  0  2  0  0  0  0  0  0
  185.4920  178.2940  143.7210 N   0  0  0  0  0  0  0  0  0  0  0  0
  189.1250  176.7290  141.4100 N   0  0  0  0  0  2  0  0  0  0  0  0
  189.7000  177.4510  140.2900 C   0  0  0  0  0  2  0  0  0  0  0  0
  188.9950  179.1380  138.7640 O   0  0  0  0  0  0  0  0  0  0  0  0
  188.6960  178.3980  139.7380 C   0  0  0  0  0  0  0  0  0  0  0  0
  187.4090  178.4990  140.3350 N   0  0  0  0  0  1  0  0  0  0  0  0
  1  3  1  0  0  0  0
  3 10  1  0  0  0  0
  5  2  1  6  0  0  0
  5  1  1  0  0  0  0
  5  6  1  0  0  0  0
  6 11  1  0  0  0  0
  6 10  1  6  0  0  0
  7 12  2  0  0  0  0
  7  5  1  0  0  0  0
  8  7  1  0  0  0  0
  9 14  2  0  0  0  0
  9 11  1  0  0  0  0
 11  4  2  0  0  0  0
 12  9  1  0  0  0  0
 13  4  1  0  0  0  0
 14 13  1  0  0  0  0
 15 19  1  0  0  0  0
 16 19  1  0  0  0  0
 16 14  1  0  0  0  0
 17 18  1  0  0  0  0
 18 20  1  0  0  0  0
 18 15  2  0  0  0  0
 20 16  2  0  0  0  0
 21  8  1  0  0  0  0
 22 21  1  0  0  0  0
 23 24  2  0  0  0  0
 24 22  1  0  0  0  0
 24 25  1  0  0  0  0
M  END
>  <MODEL>
1

>  <REMARK>
 VINA RESULT:      -9.0      0.000      0.000
  Name = 
  4 active torsions:
  status: ('A' for Active; 'I' for Inactive)
    1  A    between atoms: C_3  and  C_23
    2  A    between atoms: N_8  and  N_13
    3  A    between atoms: N_8  and  C_16
    4  A    between atoms: C_16  and  C_19
                            x       y       z     vdW  Elec       q    Type
                         _______ _______ _______ _____ _____    ______ ____

>  <TORSDO>
F 4

$$$$
=
 OpenBabel10222418093D

 25 28  0  0  1  0  0  0  0  0999 V2000
  189.9970  176.4940  145.8260 C   0  0  0  0  0  2  0  0  0  0  0  0
  189.9960  178.9220  145.2900 C   0  0  0  0  0  1  0  0  0  0  0  0
  189.8100  176.4160  147.3450 C   0  0  0  0  0  2  0  0  0  0  0  0
  185.8340  178.5640  147.1120 N   0  0  0  0  0  0  0  0  0  0  0  0
  189.1360  177.6720  145.3890 C   0  0  2  0  0  0  0  0  0  0  0  0
  188.1800  177.8100  146.5290 C   0  0  2  0  0  3  0  0  0  0  0  0
  188.4120  177.4450  144.0570 C   0  0  0  0  0  0  0  0  0  0  0  0
  189.1460  176.9200  142.9500 N   0  0  0  0  0  2  0  0  0  0  0  0
  186.4060  178.3570  144.9800 C   0  0  0  0  0  0  0  0  0  0  0  0
  188.5100  177.0970  147.5870 C   0  0  0  0  0  2  0  0  0  0  0  0
  186.8480  178.3320  146.2600 C   0  0  0  0  0  0  0  0  0  0  0  0
  187.1670  177.8260  143.8870 N   0  0  0  0  0  0  0  0  0  0  0  0
  184.7430  178.7680  146.3780 N   0  0  0  0  0  2  0  0  0  0  0  0
  185.0630  178.6310  145.0690 C   0  0  0  0  0  0  0  0  0  0  0  0
  183.2350  178.5820  141.9450 N   0  0  0  0  0  0  0  0  0  0  0  0
  184.0950  178.6840  143.9670 C   0  0  0  0  0  0  0  0  0  0  0  0
  180.8850  179.1670  142.5320 C   0  0  0  0  0  1  0  0  0  0  0  0
  182.3110  178.9100  142.8680 C   0  0  0  0  0  0  0  0  0  0  0  0
  184.3780  178.4360  142.6420 C   0  0  0  0  0  2  0  0  0  0  0  0
  182.7920  178.9840  144.1230 N   0  0  0  0  0  0  0  0  0  0  0  0
  188.5440  176.7390  141.6980 N   0  0  0  0  0  2  0  0  0  0  0  0
  189.3510  177.4690  140.7370 C   0  0  0  0  0  2  0  0  0  0  0  0
  188.9630  179.0030  138.9590 O   0  0  0  0  0  0  0  0  0  0  0  0
  188.4810  178.3640  139.9300 C   0  0  0  0  0  0  0  0  0  0  0  0
  187.1120  178.5300  140.2790 N   0  0  0  0  0  1  0  0  0  0  0  0
  1  3  1  0  0  0  0
  3 10  1  0  0  0  0
  5  2  1  6  0  0  0
  5  1  1  0  0  0  0
  5  6  1  0  0  0  0
  6 10  1  6  0  0  0
  7  5  1  0  0  0  0
  8  7  1  0  0  0  0
  9 14  2  0  0  0  0
  9 11  1  0  0  0  0
 11  6  1  0  0  0  0
 11  4  2  0  0  0  0
 12  7  2  0  0  0  0
 12  9  1  0  0  0  0
 13  4  1  0  0  0  0
 14 13  1  0  0  0  0
 15 19  1  0  0  0  0
 15 18  2  0  0  0  0
 16 20  2  0  0  0  0
 16 14  1  0  0  0  0
 17 18  1  0  0  0  0
 18 20  1  0  0  0  0
 19 16  1  0  0  0  0
 21  8  1  0  0  0  0
 22 21  1  0  0  0  0
 23 24  2  0  0  0  0
 24 25  1  0  0  0  0
 24 22  1  0  0  0  0
M  END
>  <MODEL>
2

>  <REMARK>
 VINA RESULT:      -7.9      1.279      1.941
  Name = 
  4 active torsions:
  status: ('A' for Active; 'I' for Inactive)
    1  A    between atoms: C_3  and  C_23
    2  A    between atoms: N_8  and  N_13
    3  A    between atoms: N_8  and  C_16
    4  A    between atoms: C_16  and  C_19
                            x       y       z     vdW  Elec       q    Type
                         _______ _______ _______ _____ _____    ______ ____

>  <TORSDO>
F 4

$$$$
=
 OpenBabel10222418093D

 25 28  0  0  1  0  0  0  0  0999 V2000
  186.5300  177.0400  136.9930 C   0  0  0  0  0  2  0  0  0  0  0  0
  188.0620  178.9990  137.0390 C   0  0  0  0  0  1  0  0  0  0  0  0
  187.3300  175.9190  136.3230 C   0  0  0  0  0  2  0  0  0  0  0  0
  190.5180  176.0780  139.5310 N   0  0  0  0  0  0  0  0  0  0  0  0
  187.5520  177.8020  137.8270 C   0  0  2  0  0  0  0  0  0  0  0  0
  188.6500  176.7990  137.9810 C   0  0  2  0  0  3  0  0  0  0  0  0
  187.0140  178.2760  139.1810 C   0  0  0  0  0  0  0  0  0  0  0  0
  185.7400  178.9220  139.2330 N   0  0  0  0  0  2  0  0  0  0  0  0
  189.0260  177.5550  140.2460 C   0  0  0  0  0  0  0  0  0  0  0  0
  188.5190  175.7460  137.2000 C   0  0  0  0  0  2  0  0  0  0  0  0
  189.4730  176.8480  139.1800 C   0  0  0  0  0  0  0  0  0  0  0  0
  187.7450  178.1960  140.2690 N   0  0  0  0  0  0  0  0  0  0  0  0
  190.7630  176.3100  140.8180 N   0  0  0  0  0  2  0  0  0  0  0  0
  189.8530  177.1990  141.2850 C   0  0  0  0  0  0  0  0  0  0  0  0
  190.1840  178.6020  144.6050 N   0  0  0  0  0  0  0  0  0  0  0  0
  189.7450  177.6180  142.6870 C   0  0  0  0  0  0  0  0  0  0  0  0
  188.2490  177.7170  145.9030 C   0  0  0  0  0  1  0  0  0  0  0  0
  189.0680  177.8490  144.6690 C   0  0  0  0  0  0  0  0  0  0  0  0
  190.6210  178.4580  143.3390 C   0  0  0  0  0  2  0  0  0  0  0  0
  188.7600  177.2270  143.5160 N   0  0  0  0  0  0  0  0  0  0  0  0
  185.2250  179.4160  140.4380 N   0  0  0  0  0  2  0  0  0  0  0  0
  184.2140  178.4720  140.8780 C   0  0  0  0  0  2  0  0  0  0  0  0
  183.0970  178.7380  142.9640 O   0  0  0  0  0  0  0  0  0  0  0  0
  184.1650  178.4490  142.3640 C   0  0  0  0  0  0  0  0  0  0  0  0
  185.3360  178.1410  143.1100 N   0  0  0  0  0  1  0  0  0  0  0  0
  1  5  1  0  0  0  0
  3  1  1  0  0  0  0
  3 10  1  0  0  0  0
  4 13  1  0  0  0  0
  5  2  1  6  0  0  0
  5  6  1  0  0  0  0
  5  7  1  0  0  0  0
  6 10  1  1  0  0  0
  6 11  1  0  0  0  0
  7  8  1  0  0  0  0
  7 12  2  0  0  0  0
  8 21  1  0  0  0  0
  9 12  1  0  0  0  0
  9 14  2  0  0  0  0
 11  4  2  0  0  0  0
 11  9  1  0  0  0  0
 13 14  1  0  0  0  0
 14 16  1  0  0  0  0
 15 18  2  0  0  0  0
 16 19  1  0  0  0  0
 16 20  2  0  0  0  0
 18 17  1  0  0  0  0
 19 15  1  0  0  0  0
 20 18  1  0  0  0  0
 21 22  1  0  0  0  0
 22 24  1  0  0  0  0
 24 23  2  0  0  0  0
 24 25  1  0  0  0  0
M  END
>  <MODEL>
3

>  <REMARK>
 VINA RESULT:      -7.6      2.592      6.850
  Name = 
  4 active torsions:
  status: ('A' for Active; 'I' for Inactive)
    1  A    between atoms: C_3  and  C_23
    2  A    between atoms: N_8  and  N_13
    3  A    between atoms: N_8  and  C_16
    4  A    between atoms: C_16  and  C_19
                            x       y       z     vdW  Elec       q    Type
                         _______ _______ _______ _____ _____    ______ ____

>  <TORSDO>
F 4

$$$$
=
 OpenBabel10222418093D

 25 28  0  0  1  0  0  0  0  0999 V2000
  183.0680  178.4430  144.2870 C   0  0  0  0  0  2  0  0  0  0  0  0
  184.4320  180.5230  144.3150 C   0  0  0  0  0  1  0  0  0  0  0  0
  182.0900  178.6190  143.1220 C   0  0  0  0  0  2  0  0  0  0  0  0
  185.4750  179.0100  140.1450 N   0  0  0  0  0  0  0  0  0  0  0  0
  184.3620  179.0910  143.8090 C   0  0  2  0  0  0  0  0  0  0  0  0
  184.1880  179.0920  142.3240 C   0  0  2  0  0  3  0  0  0  0  0  0
  185.6250  178.3370  144.2380 C   0  0  0  0  0  0  0  0  0  0  0  0
  185.7480  177.9090  145.5960 N   0  0  0  0  0  2  0  0  0  0  0  0
  186.5380  178.5960  142.0470 C   0  0  0  0  0  0  0  0  0  0  0  0
  182.9670  178.7940  141.9330 C   0  0  0  0  0  2  0  0  0  0  0  0
  185.3750  179.0060  141.4860 C   0  0  1  0  0  3  0  0  0  0  0  0
  186.6340  178.1750  143.4130 N   0  0  0  0  0  0  0  0  0  0  0  0
  186.7150  178.6300  139.8420 N   0  0  0  0  0  0  0  0  0  0  0  0
  187.3810  178.3540  140.9890 C   0  0  0  0  0  0  0  0  0  0  0  0
  190.6110  176.8090  140.4570 N   0  0  0  0  0  0  0  0  0  0  0  0
  188.7420  177.8080  141.0470 C   0  0  0  0  0  0  0  0  0  0  0  0
  191.8520  177.0930  142.6010 C   0  0  0  0  0  1  0  0  0  0  0  0
  190.6610  177.2620  141.7260 C   0  0  0  0  0  0  0  0  0  0  0  0
  189.3860  177.1560  140.0190 C   0  0  0  0  0  2  0  0  0  0  0  0
  189.5370  177.8820  142.1300 N   0  0  0  0  0  0  0  0  0  0  0  0
  186.9020  177.2590  146.0510 N   0  0  0  0  0  2  0  0  0  0  0  0
  187.2970  177.9210  147.2810 C   0  0  0  0  0  2  0  0  0  0  0  0
  189.3130  178.2230  148.5130 O   0  0  0  0  0  0  0  0  0  0  0  0
  188.7720  177.8330  147.4440 C   0  0  0  0  0  0  0  0  0  0  0  0
  189.5790  177.3480  146.3780 N   0  0  0  0  0  1  0  0  0  0  0  0
  3  1  1  0  0  0  0
  5  7  1  0  0  0  0
  5  1  1  0  0  0  0
  5  2  1  1  0  0  0
  6 10  1  1  0  0  0
  6  5  1  0  0  0  0
  7  8  1  0  0  0  0
  8 21  1  0  0  0  0
  9 12  1  0  0  0  0
 10  3  1  0  0  0  0
 11  4  1  6  0  0  0
 11  9  1  0  0  0  0
 11  6  1  0  0  0  0
 12  7  2  0  0  0  0
 13  4  2  0  0  0  0
 13 14  1  0  0  0  0
 14 16  1  0  0  0  0
 14  9  2  0  0  0  0
 15 18  2  0  0  0  0
 16 20  2  0  0  0  0
 18 20  1  0  0  0  0
 18 17  1  0  0  0  0
 19 15  1  0  0  0  0
 19 16  1  0  0  0  0
 21 22  1  0  0  0  0
 22 24  1  0  0  0  0
 24 23  2  0  0  0  0
 25 24  1  0  0  0  0
M  END
>  <MODEL>
4

>  <REMARK>
 VINA RESULT:      -7.5      2.709      7.107
  Name = 
  4 active torsions:
  status: ('A' for Active; 'I' for Inactive)
    1  A    between atoms: C_3  and  C_23
    2  A    between atoms: N_8  and  N_13
    3  A    between atoms: N_8  and  C_16
    4  A    between atoms: C_16  and  C_19
                            x       y       z     vdW  Elec       q    Type
                         _______ _______ _______ _____ _____    ______ ____

>  <TORSDO>
F 4

$$$$
=
 OpenBabel10222418093D

 25 28  0  0  1  0  0  0  0  0999 V2000
  182.7610  179.5860  138.6410 C   0  0  0  0  0  2  0  0  0  0  0  0
  182.7280  177.1780  139.2610 C   0  0  0  0  0  1  0  0  0  0  0  0
  181.3530  180.1020  138.9540 C   0  0  0  0  0  2  0  0  0  0  0  0
  181.7630  179.0030  143.3250 N   0  0  0  0  0  0  0  0  0  0  0  0
  183.0610  178.5810  139.7460 C   0  0  2  0  0  0  0  0  0  0  0  0
  182.0970  178.9840  140.8150 C   0  0  2  0  0  3  0  0  0  0  0  0
  184.5120  178.6190  140.2370 C   0  0  0  0  0  0  0  0  0  0  0  0
  185.5690  178.6410  139.2760 N   0  0  0  0  0  2  0  0  0  0  0  0
  183.7600  178.4980  142.5010 C   0  0  0  0  0  0  0  0  0  0  0  0
  181.1870  179.8460  140.4100 C   0  0  0  0  0  2  0  0  0  0  0  0
  182.4620  178.7500  142.2030 C   0  0  0  0  0  0  0  0  0  0  0  0
  184.7990  178.5230  141.5150 N   0  0  0  0  0  0  0  0  0  0  0  0
  182.6060  178.8860  144.3480 N   0  0  0  0  0  2  0  0  0  0  0  0
  183.8390  178.5930  143.8700 C   0  0  0  0  0  0  0  0  0  0  0  0
  186.4360  178.7020  146.3890 N   0  0  0  0  0  0  0  0  0  0  0  0
  185.0480  178.4910  144.6950 C   0  0  0  0  0  0  0  0  0  0  0  0
  188.3840  177.5030  145.3980 C   0  0  0  0  0  1  0  0  0  0  0  0
  186.9930  178.0290  145.3630 C   0  0  0  0  0  0  0  0  0  0  0  0
  185.1920  178.9990  145.9680 C   0  0  0  0  0  2  0  0  0  0  0  0
  186.1780  177.8760  144.3030 N   0  0  0  0  0  0  0  0  0  0  0  0
  186.9120  178.6280  139.6730 N   0  0  0  0  0  2  0  0  0  0  0  0
  187.6320  177.8490  138.6820 C   0  0  0  0  0  2  0  0  0  0  0  0
  189.0560  179.4880  137.7010 O   0  0  0  0  0  0  0  0  0  0  0  0
  188.9620  178.4660  138.4310 C   0  0  0  0  0  0  0  0  0  0  0  0
  190.1340  177.8780  138.9820 N   0  0  0  0  0  1  0  0  0  0  0  0
  1  3  1  0  0  0  0
  1  5  1  0  0  0  0
  3 10  1  0  0  0  0
  4 13  1  0  0  0  0
  5  2  1  6  0  0  0
  5  7  1  0  0  0  0
  5  6  1  0  0  0  0
  6 10  1  1  0  0  0
  6 11  1  0  0  0  0
  7 12  2  0  0  0  0
  8 21  1  0  0  0  0
  8  7  1  0  0  0  0
  9 14  2  0  0  0  0
 11  9  1  0  0  0  0
 11  4  2  0  0  0  0
 12  9  1  0  0  0  0
 14 13  1  0  0  0  0
 14 16  1  0  0  0  0
 16 19  1  0  0  0  0
 18 17  1  0  0  0  0
 18 15  2  0  0  0  0
 19 15  1  0  0  0  0
 20 16  2  0  0  0  0
 20 18  1  0  0  0  0
 22 21  1  0  0  0  0
 23 24  2  0  0  0  0
 24 22  1  0  0  0  0
 24 25  1  0  0  0  0
M  END
>  <MODEL>
5

>  <REMARK>
 VINA RESULT:      -7.2      2.130      6.734
  Name = 
  4 active torsions:
  status: ('A' for Active; 'I' for Inactive)
    1  A    between atoms: C_3  and  C_23
    2  A    between atoms: N_8  and  N_13
    3  A    between atoms: N_8  and  C_16
    4  A    between atoms: C_16  and  C_19
                            x       y       z     vdW  Elec       q    Type
                         _______ _______ _______ _____ _____    ______ ____

>  <TORSDO>
F 4

$$$$
=
 OpenBabel10222418093D

 25 28  0  0  1  0  0  0  0  0999 V2000
  186.7290  178.6380  147.2220 C   0  0  0  0  0  2  0  0  0  0  0  0
  186.0470  176.4520  146.2530 C   0  0  0  0  0  1  0  0  0  0  0  0
  187.9410  178.3270  148.1050 C   0  0  0  0  0  2  0  0  0  0  0  0
  190.2780  176.7170  144.5790 N   0  0  0  0  0  0  0  0  0  0  0  0
  186.8720  177.7080  146.0240 C   0  0  2  0  0  0  0  0  0  0  0  0
  188.3270  177.3660  146.0570 C   0  0  2  0  0  3  0  0  0  0  0  0
  186.4630  178.3500  144.6940 C   0  0  0  0  0  0  0  0  0  0  0  0
  185.2350  179.0760  144.6240 N   0  0  0  0  0  2  0  0  0  0  0  0
  188.3980  177.4260  143.6410 C   0  0  0  0  0  0  0  0  0  0  0  0
  188.9330  177.7370  147.1660 C   0  0  0  0  0  2  0  0  0  0  0  0
  188.9980  177.0670  144.8010 C   0  0  1  0  0  3  0  0  0  0  0  0
  187.1620  178.1520  143.6000 N   0  0  0  0  0  0  0  0  0  0  0  0
  190.4930  176.8230  143.2700 N   0  0  0  0  0  0  0  0  0  0  0  0
  189.3620  177.2720  142.6740 C   0  0  0  0  0  0  0  0  0  0  0  0
  188.6080  178.5820  139.3860 N   0  0  0  0  0  0  0  0  0  0  0  0
  189.2510  177.6080  141.2500 C   0  0  0  0  0  0  0  0  0  0  0  0
  190.0420  177.2950  137.8050 C   0  0  0  0  0  1  0  0  0  0  0  0
  189.5330  177.6280  139.1620 C   0  0  0  0  0  0  0  0  0  0  0  0
  188.4240  178.5730  140.7200 C   0  0  0  0  0  2  0  0  0  0  0  0
  189.9570  177.0050  140.2770 N   0  0  0  0  0  0  0  0  0  0  0  0
  184.7920  179.6410  143.4200 N   0  0  0  0  0  2  0  0  0  0  0  0
  183.8410  178.7060  142.8460 C   0  0  0  0  0  2  0  0  0  0  0  0
  183.5290  177.6520  140.7330 O   0  0  0  0  0  0  0  0  0  0  0  0
  184.0970  178.5650  141.3880 C   0  0  0  0  0  0  0  0  0  0  0  0
  185.0150  179.4370  140.7390 N   0  0  0  0  0  1  0  0  0  0  0  0
  1  3  1  0  0  0  0
  4 11  1  0  0  0  0
  5  6  1  0  0  0  0
  5  2  1  1  0  0  0
  5  1  1  0  0  0  0
  6 10  1  6  0  0  0
  7  5  1  0  0  0  0
  8  7  1  0  0  0  0
 10  3  1  0  0  0  0
 11  9  1  6  0  0  0
 11  6  1  0  0  0  0
 12  9  1  0  0  0  0
 12  7  2  0  0  0  0
 13  4  2  0  0  0  0
 14 13  1  0  0  0  0
 14  9  2  0  0  0  0
 15 19  1  0  0  0  0
 16 14  1  0  0  0  0
 17 18  1  0  0  0  0
 18 15  2  0  0  0  0
 18 20  1  0  0  0  0
 19 16  1  0  0  0  0
 20 16  2  0  0  0  0
 21  8  1  0  0  0  0
 22 21  1  0  0  0  0
 23 24  2  0  0  0  0
 24 22  1  0  0  0  0
 25 24  1  0  0  0  0
M  END
>  <MODEL>
6

>  <REMARK>
 VINA RESULT:      -7.1      2.255      5.094
  Name = 
  4 active torsions:
  status: ('A' for Active; 'I' for Inactive)
    1  A    between atoms: C_3  and  C_23
    2  A    between atoms: N_8  and  N_13
    3  A    between atoms: N_8  and  C_16
    4  A    between atoms: C_16  and  C_19
                            x       y       z     vdW  Elec       q    Type
                         _______ _______ _______ _____ _____    ______ ____

>  <TORSDO>
F 4

$$$$
=
 OpenBabel10222418093D

 25 28  0  0  1  0  0  0  0  0999 V2000
  189.4550  178.1780  144.3630 C   0  0  0  0  0  2  0  0  0  0  0  0
  188.9240  175.8650  143.6190 C   0  0  0  0  0  1  0  0  0  0  0  0
  190.9840  178.2560  144.3750 C   0  0  0  0  0  2  0  0  0  0  0  0
  191.2150  177.3130  139.9550 N   0  0  0  0  0  0  0  0  0  0  0  0
  189.1200  177.3020  143.1620 C   0  0  2  0  0  0  0  0  0  0  0  0
  190.3640  177.4000  142.3380 C   0  0  2  0  0  3  0  0  0  0  0  0
  187.8810  177.7630  142.3880 C   0  0  0  0  0  0  0  0  0  0  0  0
  186.6960  178.0980  143.1130 N   0  0  0  0  0  2  0  0  0  0  0  0
  189.0300  177.4190  140.3220 C   0  0  0  0  0  0  0  0  0  0  0  0
  191.3760  177.9580  142.9710 C   0  0  0  0  0  2  0  0  0  0  0  0
  190.2510  177.2800  140.8930 C   0  0  1  0  0  3  0  0  0  0  0  0
  187.8570  177.7520  141.0750 N   0  0  0  0  0  0  0  0  0  0  0  0
  190.6120  177.4450  138.7760 N   0  0  0  0  0  0  0  0  0  0  0  0
  189.2740  177.5300  138.9740 C   0  0  0  0  0  0  0  0  0  0  0  0
  187.2820  178.7020  136.1890 N   0  0  0  0  0  0  0  0  0  0  0  0
  188.2920  177.7840  137.9140 C   0  0  0  0  0  0  0  0  0  0  0  0
  185.3320  177.1550  136.0600 C   0  0  0  0  0  1  0  0  0  0  0  0
  186.6060  177.6350  136.6580 C   0  0  0  0  0  0  0  0  0  0  0  0
  188.3600  178.8030  136.9890 C   0  0  0  0  0  2  0  0  0  0  0  0
  187.1890  177.0390  137.7150 N   0  0  0  0  0  0  0  0  0  0  0  0
  185.5220  178.4790  142.4500 N   0  0  0  0  0  2  0  0  0  0  0  0
  184.9470  179.5700  143.2140 C   0  0  0  0  0  2  0  0  0  0  0  0
  182.7390  178.7180  143.4740 O   0  0  0  0  0  0  0  0  0  0  0  0
  183.8130  179.0650  144.0320 C   0  0  0  0  0  0  0  0  0  0  0  0
  183.9250  179.0120  145.4490 N   0  0  0  0  0  1  0  0  0  0  0  0
  1  3  1  0  0  0  0
  5  2  1  1  0  0  0
  5  1  1  0  0  0  0
  6 10  1  6  0  0  0
  6  5  1  0  0  0  0
  7  8  1  0  0  0  0
  7  5  1  0  0  0  0
  9 11  1  0  0  0  0
  9 12  1  0  0  0  0
 10  3  1  0  0  0  0
 11  4  1  6  0  0  0
 11  6  1  0  0  0  0
 12  7  2  0  0  0  0
 13 14  1  0  0  0  0
 13  4  2  0  0  0  0
 14  9  2  0  0  0  0
 15 18  2  0  0  0  0
 15 19  1  0  0  0  0
 16 14  1  0  0  0  0
 17 18  1  0  0  0  0
 18 20  1  0  0  0  0
 19 16  1  0  0  0  0
 20 16  2  0  0  0  0
 21  8  1  0  0  0  0
 21 22  1  0  0  0  0
 22 24  1  0  0  0  0
 23 24  2  0  0  0  0
 24 25  1  0  0  0  0
M  END
>  <MODEL>
7

>  <REMARK>
 VINA RESULT:      -7.1      2.714      6.111
  Name = 
  4 active torsions:
  status: ('A' for Active; 'I' for Inactive)
    1  A    between atoms: C_3  and  C_23
    2  A    between atoms: N_8  and  N_13
    3  A    between atoms: N_8  and  C_16
    4  A    between atoms: C_16  and  C_19
                            x       y       z     vdW  Elec       q    Type
                         _______ _______ _______ _____ _____    ______ ____

>  <TORSDO>
F 4

$$$$
=
 OpenBabel10222418093D

 25 28  0  0  1  0  0  0  0  0999 V2000
  187.6720  178.2100  145.1280 C   0  0  0  0  0  2  0  0  0  0  0  0
  187.0290  176.0660  144.0440 C   0  0  0  0  0  1  0  0  0  0  0  0
  188.9920  177.9170  145.8470 C   0  0  0  0  0  2  0  0  0  0  0  0
  191.0230  176.7750  141.9680 N   0  0  0  0  0  0  0  0  0  0  0  0
  187.7410  177.3940  143.8420 C   0  0  2  0  0  0  0  0  0  0  0  0
  189.2100  177.1580  143.6930 C   0  0  2  0  0  3  0  0  0  0  0  0
  187.1480  178.1110  142.6250 C   0  0  0  0  0  0  0  0  0  0  0  0
  185.8760  178.7490  142.7490 N   0  0  0  0  0  2  0  0  0  0  0  0
  189.0100  177.4200  141.2980 C   0  0  0  0  0  0  0  0  0  0  0  0
  189.9100  177.4800  144.7610 C   0  0  0  0  0  2  0  0  0  0  0  0
  189.7570  177.0120  142.3520 C   0  0  1  0  0  3  0  0  0  0  0  0
  187.7340  178.0540  141.4510 N   0  0  0  0  0  0  0  0  0  0  0  0
  191.0860  177.0030  140.6580 N   0  0  0  0  0  0  0  0  0  0  0  0
  189.8700  177.4150  140.2260 C   0  0  0  0  0  0  0  0  0  0  0  0
  188.9420  179.1110  137.1660 N   0  0  0  0  0  0  0  0  0  0  0  0
  189.5810  177.8580  138.8570 C   0  0  0  0  0  0  0  0  0  0  0  0
  189.4410  177.5020  135.3280 C   0  0  0  0  0  1  0  0  0  0  0  0
  189.3920  177.9080  136.7590 C   0  0  0  0  0  0  0  0  0  0  0  0
  189.0600  179.0840  138.5070 C   0  0  0  0  0  2  0  0  0  0  0  0
  189.7950  177.1070  137.7620 N   0  0  0  0  0  0  0  0  0  0  0  0
  185.2680  179.3760  141.6530 N   0  0  0  0  0  2  0  0  0  0  0  0
  184.2050  178.4950  141.2050 C   0  0  0  0  0  2  0  0  0  0  0  0
  182.8150  178.2860  139.2830 O   0  0  0  0  0  0  0  0  0  0  0  0
  183.7180  178.9360  139.8710 C   0  0  0  0  0  0  0  0  0  0  0  0
  184.3020  180.0700  139.2400 N   0  0  0  0  0  1  0  0  0  0  0  0
  1  3  1  0  0  0  0
  4 11  1  0  0  0  0
  5  2  1  1  0  0  0
  5  1  1  0  0  0  0
  6  5  1  0  0  0  0
  6 10  1  6  0  0  0
  7  8  1  0  0  0  0
  7  5  1  0  0  0  0
  9 12  1  0  0  0  0
 10  3  1  0  0  0  0
 11  9  1  6  0  0  0
 11  6  1  0  0  0  0
 12  7  2  0  0  0  0
 13  4  2  0  0  0  0
 14 13  1  0  0  0  0
 14  9  2  0  0  0  0
 15 19  1  0  0  0  0
 16 14  1  0  0  0  0
 17 18  1  0  0  0  0
 18 15  2  0  0  0  0
 18 20  1  0  0  0  0
 19 16  1  0  0  0  0
 20 16  2  0  0  0  0
 21  8  1  0  0  0  0
 22 21  1  0  0  0  0
 23 24  2  0  0  0  0
 24 22  1  0  0  0  0
 25 24  1  0  0  0  0
M  END
>  <MODEL>
8

>  <REMARK>
 VINA RESULT:      -7.1      2.591      5.853
  Name = 
  4 active torsions:
  status: ('A' for Active; 'I' for Inactive)
    1  A    between atoms: C_3  and  C_23
    2  A    between atoms: N_8  and  N_13
    3  A    between atoms: N_8  and  C_16
    4  A    between atoms: C_16  and  C_19
                            x       y       z     vdW  Elec       q    Type
                         _______ _______ _______ _____ _____    ______ ____

>  <TORSDO>
F 4

$$$$
=
 OpenBabel10222418093D

 25 28  0  0  1  0  0  0  0  0999 V2000
  190.7590  177.4990  144.1720 C   0  0  0  0  0  2  0  0  0  0  0  0
  189.8160  175.4220  143.1820 C   0  0  0  0  0  1  0  0  0  0  0  0
  191.9290  177.8840  143.2620 C   0  0  0  0  0  2  0  0  0  0  0  0
  189.2010  178.2610  139.6700 N   0  0  0  0  0  0  0  0  0  0  0  0
  189.7010  176.9370  143.2300 C   0  0  2  0  0  0  0  0  0  0  0  0
  190.1110  177.5120  141.9120 C   0  0  2  0  0  3  0  0  0  0  0  0
  188.2690  177.3290  143.6070 C   0  0  0  0  0  0  0  0  0  0  0  0
  187.8510  177.2000  144.9670 N   0  0  0  0  0  2  0  0  0  0  0  0
  187.7860  177.8100  141.3180 C   0  0  0  0  0  0  0  0  0  0  0  0
  191.3030  178.0710  141.9250 C   0  0  0  0  0  2  0  0  0  0  0  0
  189.0810  177.7730  140.9180 C   0  0  1  0  0  3  0  0  0  0  0  0
  187.3950  177.6740  142.6900 N   0  0  0  0  0  0  0  0  0  0  0  0
  187.9790  178.5850  139.2550 N   0  0  0  0  0  0  0  0  0  0  0  0
  187.0960  178.3350  140.2510 C   0  0  0  0  0  0  0  0  0  0  0  0
  183.5480  178.8350  140.7610 N   0  0  0  0  0  0  0  0  0  0  0  0
  185.6670  178.6630  140.1970 C   0  0  0  0  0  0  0  0  0  0  0  0
  182.7350  180.0100  138.7180 C   0  0  0  0  0  1  0  0  0  0  0  0
  183.7920  179.3770  139.5510 C   0  0  0  0  0  0  0  0  0  0  0  0
  184.7430  178.3770  141.1780 C   0  0  0  0  0  2  0  0  0  0  0  0
  185.0780  179.2940  139.1650 N   0  0  0  0  0  0  0  0  0  0  0  0
  186.5380  177.4980  145.3550 N   0  0  0  0  0  2  0  0  0  0  0  0
  186.5910  177.8690  146.7570 C   0  0  0  0  0  2  0  0  0  0  0  0
  184.4500  178.8980  146.5890 O   0  0  0  0  0  0  0  0  0  0  0  0
  185.6310  178.9730  147.0190 C   0  0  0  0  0  0  0  0  0  0  0  0
  186.0570  180.1350  147.7200 N   0  0  0  0  0  1  0  0  0  0  0  0
  3  1  1  0  0  0  0
  5  2  1  6  0  0  0
  5  7  1  0  0  0  0
  5  1  1  0  0  0  0
  6 10  1  1  0  0  0
  6  5  1  0  0  0  0
  7  8  1  0  0  0  0
  8 21  1  0  0  0  0
  9 12  1  0  0  0  0
 10  3  1  0  0  0  0
 11  4  1  1  0  0  0
 11  9  1  0  0  0  0
 11  6  1  0  0  0  0
 12  7  2  0  0  0  0
 13  4  2  0  0  0  0
 13 14  1  0  0  0  0
 14  9  2  0  0  0  0
 15 19  1  0  0  0  0
 16 14  1  0  0  0  0
 16 19  1  0  0  0  0
 17 18  1  0  0  0  0
 18 15  2  0  0  0  0
 20 18  1  0  0  0  0
 20 16  2  0  0  0  0
 21 22  1  0  0  0  0
 22 24  1  0  0  0  0
 23 24  2  0  0  0  0
 24 25  1  0  0  0  0
M  END
>  <MODEL>
9

>  <REMARK>
 VINA RESULT:      -7.0      2.709      5.270
  Name = 
  4 active torsions:
  status: ('A' for Active; 'I' for Inactive)
    1  A    between atoms: C_3  and  C_23
    2  A    between atoms: N_8  and  N_13
    3  A    between atoms: N_8  and  C_16
    4  A    between atoms: C_16  and  C_19
                            x       y       z     vdW  Elec       q    Type
                         _______ _______ _______ _____ _____    ______ ____

>  <TORSDO>
F 4

$$$$
