=
 OpenBabel10222418403D

 41 47  0  0  1  0  0  0  0  0999 V2000
  183.2800  177.7000  139.2740 C   0  0  0  0  0  2  0  0  0  0  0  0
  184.5760  178.4720  139.0570 C   0  0  0  0  0  2  0  0  0  0  0  0
  184.4400  179.2500  141.5140 C   0  0  2  0  0  3  0  0  0  0  0  0
  182.3930  178.4300  140.2830 C   0  0  2  0  0  3  0  0  0  0  0  0
  186.5750  178.7090  140.4500 N   0  0  0  0  0  0  0  0  0  0  0  0
  183.1160  178.4920  141.6280 C   0  0  0  0  0  2  0  0  0  0  0  0
  185.2750  178.7140  140.3680 C   0  0  0  0  0  0  0  0  0  0  0  0
  189.2230  177.3290  140.9390 N   0  0  0  0  0  0  0  0  0  0  0  0
  190.6120  176.7280  139.3000 O   0  0  0  0  0  0  0  0  0  0  0  0
  189.5600  177.2750  138.7560 C   0  0  0  0  0  0  0  0  0  0  0  0
  187.2250  178.5300  138.1230 N   0  0  0  0  0  0  0  0  0  0  0  0
  188.0840  178.1640  137.1190 C   0  0  0  0  0  3  0  0  0  0  0  0
  188.6990  177.6320  139.7400 C   0  0  0  0  0  0  0  0  0  0  0  0
  187.4880  178.2630  139.4380 C   0  0  0  0  0  0  0  0  0  0  0  0
  189.2960  177.5130  137.4120 C   0  0  0  0  0  3  0  0  0  0  0  0
  190.4130  176.7600  140.6090 C   0  0  0  0  0  3  0  0  0  0  0  0
  179.3740  174.7650  140.0480 C   0  0  0  0  0  2  0  0  0  0  0  0
  181.2830  175.6270  138.9590 C   0  0  0  0  0  3  0  0  0  0  0  0
  181.0650  177.7470  140.4350 C   0  0  0  0  0  0  0  0  0  0  0  0
  179.5400  176.1700  140.3380 N   0  0  0  0  0  0  0  0  0  0  0  0
  180.5400  174.5200  139.1120 C   0  0  0  0  0  3  0  0  0  0  0  0
  180.6160  176.6390  139.7510 C   0  0  0  0  0  0  0  0  0  0  0  0
  180.1890  177.8410  141.5230 C   0  0  0  0  0  3  0  0  0  0  0  0
  179.2810  176.8340  141.4490 N   0  0  0  0  0  0  0  0  0  0  0  0
  185.4630  178.4040  145.6070 C   0  0  0  0  0  0  0  0  0  0  0  0
  184.1400  179.0170  145.2410 C   0  0  0  0  0  2  0  0  0  0  0  0
  185.7350  177.8880  143.2270 C   0  0  0  0  0  2  0  0  0  0  0  0
  186.2310  177.8830  144.6430 C   0  0  0  0  0  3  0  0  0  0  0  0
  184.2880  179.9070  144.0000 C   0  0  0  0  0  2  0  0  0  0  0  0
  185.1420  179.2640  142.8790 C   0  0  2  0  0  3  0  0  0  0  0  0
  185.9640  178.4740  147.0110 C   0  0  0  0  0  2  0  0  0  0  0  0
  187.0960  177.4840  147.2040 C   0  0  0  0  0  2  0  0  0  0  0  0
  188.3700  178.1570  147.0060 N   0  0  0  0  0  2  0  0  0  0  0  0
  189.4250  178.2950  144.3130 F   0  0  0  0  0  0  0  0  0  0  0  0
  189.5800  177.5110  146.5920 C   0  0  0  0  0  0  0  0  0  0  0  0
  191.2700  176.9400  144.9350 C   0  0  0  0  0  0  0  0  0  0  0  0
  190.0770  177.5920  145.2730 C   0  0  0  0  0  0  0  0  0  0  0  0
  190.2940  176.7780  147.5470 C   0  0  0  0  0  3  0  0  0  0  0  0
  191.7530  177.0120  143.6710 F   0  0  0  0  0  0  0  0  0  0  0  0
  191.4840  176.1310  147.2050 C   0  0  0  0  0  3  0  0  0  0  0  0
  191.9710  176.2120  145.9000 C   0  0  0  0  0  3  0  0  0  0  0  0
  1  4  1  0  0  0  0
  2  1  1  0  0  0  0
  2  7  1  0  0  0  0
  3  6  1  1  0  0  0
  3 30  1  0  0  0  0
  4 19  1  1  0  0  0
  4  6  1  0  0  0  0
  7  5  2  0  0  0  0
  7  3  1  0  0  0  0
  9 16  1  0  0  0  0
 10  9  1  0  0  0  0
 10 13  2  0  0  0  0
 11 14  2  0  0  0  0
 12 15  2  0  0  0  0
 12 11  1  0  0  0  0
 13  8  1  0  0  0  0
 14 13  1  0  0  0  0
 14  5  1  0  0  0  0
 15 10  1  0  0  0  0
 16  8  2  0  0  0  0
 17 20  1  0  0  0  0
 18 21  2  0  0  0  0
 18 22  1  0  0  0  0
 19 23  1  0  0  0  0
 20 24  1  0  0  0  0
 21 17  1  0  0  0  0
 22 20  1  0  0  0  0
 22 19  2  0  0  0  0
 24 23  2  0  0  0  0
 25 31  1  0  0  0  0
 26 25  1  0  0  0  0
 27 28  1  0  0  0  0
 28 25  2  0  0  0  0
 29 26  1  0  0  0  0
 30 27  1  1  0  0  0
 30 29  1  0  0  0  0
 31 32  1  0  0  0  0
 33 32  1  0  0  0  0
 34 37  1  0  0  0  0
 35 33  1  0  0  0  0
 35 38  1  0  0  0  0
 36 37  1  0  0  0  0
 36 41  2  0  0  0  0
 37 35  2  0  0  0  0
 39 36  1  0  0  0  0
 40 38  2  0  0  0  0
 41 40  1  0  0  0  0
M  END
>  <MODEL>
1

>  <REMARK>
 VINA RESULT:     -11.1      0.000      0.000
  Name = 
  7 active torsions:
  status: ('A' for Active; 'I' for Inactive)
    1  A    between atoms: C_5  and  C_6
    2  A    between atoms: C_5  and  C_12
    3  A    between atoms: C_12  and  N_14
    4  A    between atoms: N_14  and  C_16
    5  A    between atoms: C_15  and  C_31
    6  A    between atoms: C_26  and  C_37
    7  A    between atoms: C_30  and  N_36
                            x       y       z     vdW  Elec       q    Type
                         _______ _______ _______ _____ _____    ______ ____

>  <TORSDO>
F 7

$$$$
=
 OpenBabel10222418403D

 41 47  0  0  1  0  0  0  0  0999 V2000
  187.8750  177.4210  138.7310 C   0  0  0  0  0  2  0  0  0  0  0  0
  189.3110  177.2750  138.2420 C   0  0  0  0  0  2  0  0  0  0  0  0
  190.1030  177.7330  140.6560 C   0  0  2  0  0  3  0  0  0  0  0  0
  187.8070  178.4340  139.8740 C   0  0  2  0  0  3  0  0  0  0  0  0
  191.2440  176.1240  139.2080 N   0  0  0  0  0  0  0  0  0  0  0  0
  188.6360  177.9170  141.0490 C   0  0  0  0  0  2  0  0  0  0  0  0
  190.2250  176.9180  139.3830 C   0  0  0  0  0  0  0  0  0  0  0  0
  193.4760  176.5660  137.2140 N   0  0  0  0  0  0  0  0  0  0  0  0
  193.7640  175.3020  135.3990 O   0  0  0  0  0  0  0  0  0  0  0  0
  192.7350  174.8380  136.0530 C   0  0  0  0  0  0  0  0  0  0  0  0
  190.6520  174.3010  137.7260 N   0  0  0  0  0  0  0  0  0  0  0  0
  190.8280  173.5310  136.6050 C   0  0  0  0  0  3  0  0  0  0  0  0
  192.5570  175.5870  137.1680 C   0  0  0  0  0  0  0  0  0  0  0  0
  191.5040  175.3200  138.0490 C   0  0  0  0  0  0  0  0  0  0  0  0
  191.8950  173.7800  135.7230 C   0  0  0  0  0  3  0  0  0  0  0  0
  194.2100  176.3380  136.0920 C   0  0  0  0  0  3  0  0  0  0  0  0
  183.0790  178.0420  139.5660 C   0  0  0  0  0  2  0  0  0  0  0  0
  184.9950  178.1170  138.1890 C   0  0  0  0  0  3  0  0  0  0  0  0
  186.3890  178.6770  140.3030 C   0  0  0  0  0  0  0  0  0  0  0  0
  184.1930  178.6320  140.2700 N   0  0  0  0  0  0  0  0  0  0  0  0
  183.6970  177.7760  138.2090 C   0  0  0  0  0  3  0  0  0  0  0  0
  185.2630  178.6490  139.5100 C   0  0  0  0  0  0  0  0  0  0  0  0
  185.8770  178.6030  141.6040 C   0  0  0  0  0  3  0  0  0  0  0  0
  184.5220  178.5440  141.5450 N   0  0  0  0  0  0  0  0  0  0  0  0
  191.2190  176.5960  144.6540 C   0  0  0  0  0  0  0  0  0  0  0  0
  190.9660  178.0320  144.2890 C   0  0  0  0  0  2  0  0  0  0  0  0
  190.1640  176.0060  142.5220 C   0  0  0  0  0  2  0  0  0  0  0  0
  190.8530  175.6310  143.8010 C   0  0  0  0  0  3  0  0  0  0  0  0
  191.3640  178.2930  142.8300 C   0  0  0  0  0  2  0  0  0  0  0  0
  190.8900  177.1870  141.8550 C   0  0  2  0  0  3  0  0  0  0  0  0
  191.9680  176.2540  145.8980 C   0  0  0  0  0  2  0  0  0  0  0  0
  191.2290  176.7900  147.1080 C   0  0  0  0  0  2  0  0  0  0  0  0
  189.8570  176.3110  147.0930 N   0  0  0  0  0  2  0  0  0  0  0  0
  188.0080  176.6260  144.8870 F   0  0  0  0  0  0  0  0  0  0  0  0
  188.6970  177.1510  147.1410 C   0  0  0  0  0  0  0  0  0  0  0  0
  186.6880  178.1240  146.1680 C   0  0  0  0  0  0  0  0  0  0  0  0
  187.8080  177.2890  146.0530 C   0  0  0  0  0  0  0  0  0  0  0  0
  188.4420  177.8520  148.3250 C   0  0  0  0  0  3  0  0  0  0  0  0
  185.8310  178.2640  145.1280 F   0  0  0  0  0  0  0  0  0  0  0  0
  187.3240  178.6820  148.4350 C   0  0  0  0  0  3  0  0  0  0  0  0
  186.4480  178.8180  147.3570 C   0  0  0  0  0  3  0  0  0  0  0  0
  1  4  1  0  0  0  0
  2  1  1  0  0  0  0
  2  7  1  0  0  0  0
  3  6  1  1  0  0  0
  3 30  1  0  0  0  0
  4 19  1  1  0  0  0
  4  6  1  0  0  0  0
  5  7  2  0  0  0  0
  7  3  1  0  0  0  0
  9 10  1  0  0  0  0
  9 16  1  0  0  0  0
 10 13  2  0  0  0  0
 11 14  2  0  0  0  0
 12 11  1  0  0  0  0
 13  8  1  0  0  0  0
 13 14  1  0  0  0  0
 14  5  1  0  0  0  0
 15 10  1  0  0  0  0
 15 12  2  0  0  0  0
 16  8  2  0  0  0  0
 17 20  1  0  0  0  0
 18 21  2  0  0  0  0
 18 22  1  0  0  0  0
 19 23  1  0  0  0  0
 20 24  1  0  0  0  0
 21 17  1  0  0  0  0
 22 20  1  0  0  0  0
 22 19  2  0  0  0  0
 24 23  2  0  0  0  0
 25 31  1  0  0  0  0
 26 25  1  0  0  0  0
 27 28  1  0  0  0  0
 28 25  2  0  0  0  0
 29 26  1  0  0  0  0
 30 27  1  1  0  0  0
 30 29  1  0  0  0  0
 31 32  1  0  0  0  0
 33 32  1  0  0  0  0
 33 35  1  0  0  0  0
 34 37  1  0  0  0  0
 35 38  1  0  0  0  0
 36 41  2  0  0  0  0
 37 36  1  0  0  0  0
 37 35  2  0  0  0  0
 38 40  2  0  0  0  0
 39 36  1  0  0  0  0
 41 40  1  0  0  0  0
M  END
>  <MODEL>
2

>  <REMARK>
 VINA RESULT:     -11.0      2.612      5.192
  Name = 
  7 active torsions:
  status: ('A' for Active; 'I' for Inactive)
    1  A    between atoms: C_5  and  C_6
    2  A    between atoms: C_5  and  C_12
    3  A    between atoms: C_12  and  N_14
    4  A    between atoms: N_14  and  C_16
    5  A    between atoms: C_15  and  C_31
    6  A    between atoms: C_26  and  C_37
    7  A    between atoms: C_30  and  N_36
                            x       y       z     vdW  Elec       q    Type
                         _______ _______ _______ _____ _____    ______ ____

>  <TORSDO>
F 7

$$$$
=
 OpenBabel10222418403D

 41 47  0  0  1  0  0  0  0  0999 V2000
  188.6670  177.3540  137.7250 C   0  0  0  0  0  2  0  0  0  0  0  0
  190.1750  177.5010  137.5640 C   0  0  0  0  0  2  0  0  0  0  0  0
  190.3570  177.7040  140.1310 C   0  0  2  0  0  3  0  0  0  0  0  0
  188.1830  178.1610  138.9290 C   0  0  2  0  0  3  0  0  0  0  0  0
  192.0430  176.5230  138.8090 N   0  0  0  0  0  0  0  0  0  0  0  0
  188.8320  177.6030  140.1960 C   0  0  0  0  0  2  0  0  0  0  0  0
  190.8840  177.1190  138.8360 C   0  0  0  0  0  0  0  0  0  0  0  0
  191.1210  174.0530  137.3240 N   0  0  0  0  0  0  0  0  0  0  0  0
  192.2110  173.1960  135.5770 O   0  0  0  0  0  0  0  0  0  0  0  0
  192.8540  174.2620  135.9690 C   0  0  0  0  0  0  0  0  0  0  0  0
  193.8490  176.4830  137.1940 N   0  0  0  0  0  0  0  0  0  0  0  0
  194.5190  175.9500  136.1240 C   0  0  0  0  0  3  0  0  0  0  0  0
  192.1930  174.8030  137.0220 C   0  0  0  0  0  0  0  0  0  0  0  0
  192.6770  175.9520  137.6560 C   0  0  0  0  0  0  0  0  0  0  0  0
  194.0310  174.8060  135.4680 C   0  0  0  0  0  3  0  0  0  0  0  0
  191.1720  173.0680  136.3890 C   0  0  0  0  0  3  0  0  0  0  0  0
  183.9820  179.1570  140.9200 C   0  0  0  0  0  2  0  0  0  0  0  0
  186.2380  178.7910  141.5110 C   0  0  0  0  0  3  0  0  0  0  0  0
  186.6870  178.1190  139.0470 C   0  0  0  0  0  0  0  0  0  0  0  0
  184.6790  178.4490  139.8720 N   0  0  0  0  0  0  0  0  0  0  0  0
  185.0780  179.2980  141.9560 C   0  0  0  0  0  3  0  0  0  0  0  0
  185.9380  178.2690  140.1930 C   0  0  0  0  0  0  0  0  0  0  0  0
  185.7550  178.2990  138.0180 C   0  0  0  0  0  3  0  0  0  0  0  0
  184.5330  178.5320  138.5620 N   0  0  0  0  0  0  0  0  0  0  0  0
  191.0490  176.6910  144.2550 C   0  0  0  0  0  0  0  0  0  0  0  0
  191.1100  178.1150  143.7770 C   0  0  0  0  0  2  0  0  0  0  0  0
  189.9860  176.1550  142.1130 C   0  0  0  0  0  2  0  0  0  0  0  0
  190.5300  175.7540  143.4520 C   0  0  0  0  0  3  0  0  0  0  0  0
  191.6140  178.1730  142.3290 C   0  0  0  0  0  2  0  0  0  0  0  0
  190.9650  177.1100  141.4080 C   0  0  2  0  0  3  0  0  0  0  0  0
  191.6600  176.3060  145.5610 C   0  0  0  0  0  2  0  0  0  0  0  0
  191.0160  177.0950  146.6840 C   0  0  0  0  0  2  0  0  0  0  0  0
  189.6820  176.5790  146.9380 N   0  0  0  0  0  2  0  0  0  0  0  0
  188.3610  178.4140  148.7480 F   0  0  0  0  0  0  0  0  0  0  0  0
  188.4650  177.2680  146.6240 C   0  0  0  0  0  0  0  0  0  0  0  0
  186.6510  178.8040  147.1510 C   0  0  0  0  0  0  0  0  0  0  0  0
  187.8380  178.1590  147.5220 C   0  0  0  0  0  0  0  0  0  0  0  0
  187.8870  177.0440  145.3690 C   0  0  0  0  0  3  0  0  0  0  0  0
  186.0420  179.6600  148.0080 F   0  0  0  0  0  0  0  0  0  0  0  0
  186.7050  177.6910  145.0040 C   0  0  0  0  0  3  0  0  0  0  0  0
  186.0870  178.5710  145.8940 C   0  0  0  0  0  3  0  0  0  0  0  0
  1  4  1  0  0  0  0
  2  1  1  0  0  0  0
  2  7  1  0  0  0  0
  3  6  1  1  0  0  0
  3 30  1  0  0  0  0
  4 19  1  1  0  0  0
  4  6  1  0  0  0  0
  5  7  2  0  0  0  0
  7  3  1  0  0  0  0
  9 10  1  0  0  0  0
  9 16  1  0  0  0  0
 10 13  2  0  0  0  0
 11 14  2  0  0  0  0
 12 11  1  0  0  0  0
 13  8  1  0  0  0  0
 13 14  1  0  0  0  0
 14  5  1  0  0  0  0
 15 10  1  0  0  0  0
 15 12  2  0  0  0  0
 16  8  2  0  0  0  0
 17 21  1  0  0  0  0
 18 21  2  0  0  0  0
 19 22  2  0  0  0  0
 20 22  1  0  0  0  0
 20 17  1  0  0  0  0
 22 18  1  0  0  0  0
 23 24  2  0  0  0  0
 23 19  1  0  0  0  0
 24 20  1  0  0  0  0
 25 31  1  0  0  0  0
 26 25  1  0  0  0  0
 27 28  1  0  0  0  0
 28 25  2  0  0  0  0
 29 26  1  0  0  0  0
 30 27  1  1  0  0  0
 30 29  1  0  0  0  0
 31 32  1  0  0  0  0
 32 33  1  0  0  0  0
 35 33  1  0  0  0  0
 35 37  1  0  0  0  0
 36 37  2  0  0  0  0
 36 39  1  0  0  0  0
 37 34  1  0  0  0  0
 38 35  2  0  0  0  0
 40 38  1  0  0  0  0
 40 41  2  0  0  0  0
 41 36  1  0  0  0  0
M  END
>  <MODEL>
3

>  <REMARK>
 VINA RESULT:     -10.7      3.029      5.774
  Name = 
  7 active torsions:
  status: ('A' for Active; 'I' for Inactive)
    1  A    between atoms: C_5  and  C_6
    2  A    between atoms: C_5  and  C_12
    3  A    between atoms: C_12  and  N_14
    4  A    between atoms: N_14  and  C_16
    5  A    between atoms: C_15  and  C_31
    6  A    between atoms: C_26  and  C_37
    7  A    between atoms: C_30  and  N_36
                            x       y       z     vdW  Elec       q    Type
                         _______ _______ _______ _____ _____    ______ ____

>  <TORSDO>
F 7

$$$$
=
 OpenBabel10222418403D

 41 47  0  0  1  0  0  0  0  0999 V2000
  185.7750  178.4400  143.5440 C   0  0  0  0  0  2  0  0  0  0  0  0
  185.4960  179.2430  142.2800 C   0  0  0  0  0  2  0  0  0  0  0  0
  187.7010  178.3280  141.2980 C   0  0  2  0  0  3  0  0  0  0  0  0
  187.2810  178.3460  143.7880 C   0  0  2  0  0  3  0  0  0  0  0  0
  185.7150  178.6660  139.9100 N   0  0  0  0  0  0  0  0  0  0  0  0
  187.9290  177.5990  142.6230 C   0  0  0  0  0  2  0  0  0  0  0  0
  186.2330  178.6570  141.1060 C   0  0  0  0  0  0  0  0  0  0  0  0
  183.3720  176.7530  140.0030 N   0  0  0  0  0  0  0  0  0  0  0  0
  181.3010  177.3220  139.4020 O   0  0  0  0  0  0  0  0  0  0  0  0
  182.0630  178.3730  139.2650 C   0  0  0  0  0  0  0  0  0  0  0  0
  184.0520  180.2270  139.0930 N   0  0  0  0  0  0  0  0  0  0  0  0
  182.7790  180.5720  138.7180 C   0  0  0  0  0  3  0  0  0  0  0  0
  183.3230  178.0460  139.6420 C   0  0  0  0  0  0  0  0  0  0  0  0
  184.3570  178.9860  139.5770 C   0  0  0  0  0  0  0  0  0  0  0  0
  181.7290  179.6390  138.7980 C   0  0  0  0  0  3  0  0  0  0  0  0
  182.0840  176.3490  139.8430 C   0  0  0  0  0  3  0  0  0  0  0  0
  190.0650  176.8590  147.3440 C   0  0  0  0  0  2  0  0  0  0  0  0
  190.1500  177.3090  145.0280 C   0  0  0  0  0  3  0  0  0  0  0  0
  187.5810  177.6510  145.0850 C   0  0  0  0  0  0  0  0  0  0  0  0
  188.7390  176.8520  146.7710 N   0  0  0  0  0  0  0  0  0  0  0  0
  190.9120  177.1290  146.1180 C   0  0  0  0  0  3  0  0  0  0  0  0
  188.7890  177.1270  145.4880 C   0  0  0  0  0  0  0  0  0  0  0  0
  186.8400  177.7230  146.2710 C   0  0  0  0  0  3  0  0  0  0  0  0
  187.5960  177.2530  147.2950 N   0  0  0  0  0  0  0  0  0  0  0  0
  190.4020  177.0510  138.2010 C   0  0  0  0  0  0  0  0  0  0  0  0
  189.6820  178.3690  138.1200 C   0  0  0  0  0  2  0  0  0  0  0  0
  189.7210  176.9750  140.5540 C   0  0  0  0  0  2  0  0  0  0  0  0
  190.4030  176.3780  139.3580 C   0  0  0  0  0  3  0  0  0  0  0  0
  188.3090  178.2720  138.7960 C   0  0  0  0  0  2  0  0  0  0  0  0
  188.3430  177.5300  140.1560 C   0  0  2  0  0  3  0  0  0  0  0  0
  191.0120  176.4480  136.9810 C   0  0  0  0  0  2  0  0  0  0  0  0
  190.4020  175.0850  136.7190 C   0  0  0  0  0  2  0  0  0  0  0  0
  189.3780  175.2000  135.6930 N   0  0  0  0  0  2  0  0  0  0  0  0
  187.2030  174.3700  137.4150 F   0  0  0  0  0  0  0  0  0  0  0  0
  188.1540  175.9320  135.8380 C   0  0  0  0  0  0  0  0  0  0  0  0
  185.9370  176.2730  136.7840 C   0  0  0  0  0  0  0  0  0  0  0  0
  187.1060  175.5090  136.6840 C   0  0  0  0  0  0  0  0  0  0  0  0
  188.0070  177.1180  135.1100 C   0  0  0  0  0  3  0  0  0  0  0  0
  184.9260  175.8730  137.5930 F   0  0  0  0  0  0  0  0  0  0  0  0
  186.8400  177.8780  135.2140 C   0  0  0  0  0  3  0  0  0  0  0  0
  185.8050  177.4550  136.0510 C   0  0  0  0  0  3  0  0  0  0  0  0
  1  4  1  0  0  0  0
  2  1  1  0  0  0  0
  3  6  1  1  0  0  0
  4 19  1  1  0  0  0
  5  7  2  0  0  0  0
  6  4  1  0  0  0  0
  7  3  1  0  0  0  0
  7  2  1  0  0  0  0
  9 16  1  0  0  0  0
 10  9  1  0  0  0  0
 10 13  2  0  0  0  0
 11 14  2  0  0  0  0
 12 15  2  0  0  0  0
 12 11  1  0  0  0  0
 13  8  1  0  0  0  0
 14 13  1  0  0  0  0
 14  5  1  0  0  0  0
 15 10  1  0  0  0  0
 16  8  2  0  0  0  0
 18 22  1  0  0  0  0
 18 21  2  0  0  0  0
 19 22  2  0  0  0  0
 19 23  1  0  0  0  0
 20 24  1  0  0  0  0
 20 17  1  0  0  0  0
 21 17  1  0  0  0  0
 22 20  1  0  0  0  0
 23 24  2  0  0  0  0
 25 28  2  0  0  0  0
 26 25  1  0  0  0  0
 26 29  1  0  0  0  0
 28 27  1  0  0  0  0
 30 29  1  6  0  0  0
 30 27  1  0  0  0  0
 30  3  1  0  0  0  0
 31 25  1  0  0  0  0
 32 31  1  0  0  0  0
 33 35  1  0  0  0  0
 33 32  1  0  0  0  0
 35 37  1  0  0  0  0
 36 39  1  0  0  0  0
 37 36  2  0  0  0  0
 37 34  1  0  0  0  0
 38 40  1  0  0  0  0
 38 35  2  0  0  0  0
 40 41  2  0  0  0  0
 41 36  1  0  0  0  0
M  END
>  <MODEL>
4

>  <REMARK>
 VINA RESULT:     -10.4      3.001      8.619
  Name = 
  7 active torsions:
  status: ('A' for Active; 'I' for Inactive)
    1  A    between atoms: C_5  and  C_6
    2  A    between atoms: C_5  and  C_12
    3  A    between atoms: C_12  and  N_14
    4  A    between atoms: N_14  and  C_16
    5  A    between atoms: C_15  and  C_31
    6  A    between atoms: C_26  and  C_37
    7  A    between atoms: C_30  and  N_36
                            x       y       z     vdW  Elec       q    Type
                         _______ _______ _______ _____ _____    ______ ____

>  <TORSDO>
F 7

$$$$
=
 OpenBabel10222418403D

 41 47  0  0  1  0  0  0  0  0999 V2000
  188.8520  176.9330  136.5110 C   0  0  0  0  0  2  0  0  0  0  0  0
  190.3470  177.2180  136.5900 C   0  0  0  0  0  2  0  0  0  0  0  0
  190.1150  177.3380  139.1580 C   0  0  2  0  0  3  0  0  0  0  0  0
  188.1180  177.6480  137.6450 C   0  0  2  0  0  3  0  0  0  0  0  0
  192.0850  176.3600  138.0860 N   0  0  0  0  0  0  0  0  0  0  0  0
  188.6140  177.1020  138.9840 C   0  0  0  0  0  2  0  0  0  0  0  0
  190.8860  176.8510  137.9470 C   0  0  0  0  0  0  0  0  0  0  0  0
  191.9070  173.6580  136.7380 N   0  0  0  0  0  0  0  0  0  0  0  0
  193.3210  172.9860  135.1490 O   0  0  0  0  0  0  0  0  0  0  0  0
  193.6580  174.1960  135.5020 C   0  0  0  0  0  0  0  0  0  0  0  0
  193.9890  176.6600  136.6180 N   0  0  0  0  0  0  0  0  0  0  0  0
  194.8600  176.2410  135.6460 C   0  0  0  0  0  3  0  0  0  0  0  0
  192.7960  174.6240  136.4570 C   0  0  0  0  0  0  0  0  0  0  0  0
  192.9370  175.8910  137.0330 C   0  0  0  0  0  0  0  0  0  0  0  0
  194.7150  174.9760  135.0480 C   0  0  0  0  0  3  0  0  0  0  0  0
  192.2720  172.6600  135.8890 C   0  0  0  0  0  3  0  0  0  0  0  0
  184.0630  175.1680  137.5370 C   0  0  0  0  0  2  0  0  0  0  0  0
  186.3460  174.9540  136.9770 C   0  0  0  0  0  3  0  0  0  0  0  0
  186.6310  177.4710  137.5290 C   0  0  0  0  0  0  0  0  0  0  0  0
  184.6830  176.4650  137.4060 N   0  0  0  0  0  0  0  0  0  0  0  0
  185.2230  174.2540  137.2010 C   0  0  0  0  0  3  0  0  0  0  0  0
  185.9570  176.3420  137.1190 C   0  0  0  0  0  0  0  0  0  0  0  0
  185.6390  178.2410  138.1490 C   0  0  0  0  0  3  0  0  0  0  0  0
  184.4570  177.5760  138.0830 N   0  0  0  0  0  0  0  0  0  0  0  0
  190.8790  176.8230  143.3620 C   0  0  0  0  0  0  0  0  0  0  0  0
  191.4980  177.9510  142.5850 C   0  0  0  0  0  2  0  0  0  0  0  0
  189.3870  176.4970  141.4450 C   0  0  0  0  0  2  0  0  0  0  0  0
  189.8850  176.1170  142.8090 C   0  0  0  0  0  3  0  0  0  0  0  0
  191.7560  177.5250  141.1340 C   0  0  0  0  0  2  0  0  0  0  0  0
  190.5740  176.7510  140.5000 C   0  0  2  0  0  3  0  0  0  0  0  0
  191.4380  176.4210  144.6850 C   0  0  0  0  0  2  0  0  0  0  0  0
  190.8310  177.2750  145.7820 C   0  0  0  0  0  2  0  0  0  0  0  0
  189.5970  176.6640  146.2470 N   0  0  0  0  0  2  0  0  0  0  0  0
  187.4250  176.8010  144.3370 F   0  0  0  0  0  0  0  0  0  0  0  0
  188.3730  177.3720  146.4840 C   0  0  0  0  0  0  0  0  0  0  0  0
  186.1530  178.1310  145.8340 C   0  0  0  0  0  0  0  0  0  0  0  0
  187.3260  177.4250  145.5380 C   0  0  0  0  0  0  0  0  0  0  0  0
  188.2190  178.0270  147.7110 C   0  0  0  0  0  3  0  0  0  0  0  0
  185.1440  178.1880  144.9300 F   0  0  0  0  0  0  0  0  0  0  0  0
  187.0470  178.7280  148.0010 C   0  0  0  0  0  3  0  0  0  0  0  0
  186.0150  178.7800  147.0630 C   0  0  0  0  0  3  0  0  0  0  0  0
  1  2  1  0  0  0  0
  1  4  1  0  0  0  0
  2  7  1  0  0  0  0
  3  6  1  6  0  0  0
  3 30  1  0  0  0  0
  4 19  1  6  0  0  0
  4  6  1  0  0  0  0
  7  5  2  0  0  0  0
  7  3  1  0  0  0  0
  9 10  1  0  0  0  0
  9 16  1  0  0  0  0
 10 13  2  0  0  0  0
 11 14  2  0  0  0  0
 12 11  1  0  0  0  0
 13  8  1  0  0  0  0
 13 14  1  0  0  0  0
 14  5  1  0  0  0  0
 15 10  1  0  0  0  0
 15 12  2  0  0  0  0
 16  8  2  0  0  0  0
 18 22  1  0  0  0  0
 18 21  2  0  0  0  0
 19 23  1  0  0  0  0
 20 17  1  0  0  0  0
 20 24  1  0  0  0  0
 21 17  1  0  0  0  0
 22 20  1  0  0  0  0
 22 19  2  0  0  0  0
 24 23  2  0  0  0  0
 25 31  1  0  0  0  0
 26 25  1  0  0  0  0
 27 28  1  0  0  0  0
 28 25  2  0  0  0  0
 29 26  1  0  0  0  0
 30 29  1  1  0  0  0
 30 27  1  0  0  0  0
 31 32  1  0  0  0  0
 32 33  1  0  0  0  0
 33 35  1  0  0  0  0
 34 37  1  0  0  0  0
 35 38  1  0  0  0  0
 36 41  2  0  0  0  0
 37 36  1  0  0  0  0
 37 35  2  0  0  0  0
 38 40  2  0  0  0  0
 39 36  1  0  0  0  0
 41 40  1  0  0  0  0
M  END
>  <MODEL>
5

>  <REMARK>
 VINA RESULT:     -10.0      3.351      5.868
  Name = 
  7 active torsions:
  status: ('A' for Active; 'I' for Inactive)
    1  A    between atoms: C_5  and  C_6
    2  A    between atoms: C_5  and  C_12
    3  A    between atoms: C_12  and  N_14
    4  A    between atoms: N_14  and  C_16
    5  A    between atoms: C_15  and  C_31
    6  A    between atoms: C_26  and  C_37
    7  A    between atoms: C_30  and  N_36
                            x       y       z     vdW  Elec       q    Type
                         _______ _______ _______ _____ _____    ______ ____

>  <TORSDO>
F 7

$$$$
=
 OpenBabel10222418403D

 41 47  0  0  1  0  0  0  0  0999 V2000
  186.0010  177.9000  144.9630 C   0  0  0  0  0  2  0  0  0  0  0  0
  185.3220  178.6280  143.8100 C   0  0  0  0  0  2  0  0  0  0  0  0
  187.4510  178.2340  142.4040 C   0  0  2  0  0  3  0  0  0  0  0  0
  187.5100  178.1420  144.9270 C   0  0  2  0  0  3  0  0  0  0  0  0
  185.2160  178.1290  141.4150 N   0  0  0  0  0  0  0  0  0  0  0  0
  188.0760  177.5650  143.6290 C   0  0  0  0  0  2  0  0  0  0  0  0
  185.9380  178.2280  142.4950 C   0  0  0  0  0  0  0  0  0  0  0  0
  183.5430  177.0490  139.1370 N   0  0  0  0  0  0  0  0  0  0  0  0
  181.3160  177.1690  139.0880 O   0  0  0  0  0  0  0  0  0  0  0  0
  181.7230  177.7030  140.2070 C   0  0  0  0  0  0  0  0  0  0  0  0
  183.0630  178.7520  142.3350 N   0  0  0  0  0  0  0  0  0  0  0  0
  181.6950  178.8310  142.2990 C   0  0  0  0  0  3  0  0  0  0  0  0
  183.0760  177.6230  140.2580 C   0  0  0  0  0  0  0  0  0  0  0  0
  183.7830  178.1400  141.3480 C   0  0  0  0  0  0  0  0  0  0  0  0
  180.9730  178.2960  141.2160 C   0  0  0  0  0  3  0  0  0  0  0  0
  182.4050  176.7770  138.4440 C   0  0  0  0  0  3  0  0  0  0  0  0
  191.2410  176.6860  147.4880 C   0  0  0  0  0  2  0  0  0  0  0  0
  190.5640  176.9510  145.2430 C   0  0  0  0  0  3  0  0  0  0  0  0
  188.1900  177.5230  146.1130 C   0  0  0  0  0  0  0  0  0  0  0  0
  189.8020  176.7550  147.3910 N   0  0  0  0  0  0  0  0  0  0  0  0
  191.6380  176.7860  146.0300 C   0  0  0  0  0  3  0  0  0  0  0  0
  189.4300  176.9260  146.1440 C   0  0  0  0  0  0  0  0  0  0  0  0
  187.8990  177.7500  147.4650 C   0  0  0  0  0  3  0  0  0  0  0  0
  188.9290  177.2930  148.2220 N   0  0  0  0  0  0  0  0  0  0  0  0
  189.9080  177.4840  138.9510 C   0  0  0  0  0  0  0  0  0  0  0  0
  189.0980  178.7450  139.0790 C   0  0  0  0  0  2  0  0  0  0  0  0
  189.4720  177.1200  141.3350 C   0  0  0  0  0  2  0  0  0  0  0  0
  190.0690  176.7000  140.0240 C   0  0  0  0  0  3  0  0  0  0  0  0
  187.8090  178.4760  139.8650 C   0  0  0  0  0  2  0  0  0  0  0  0
  188.0270  177.6060  141.1280 C   0  0  2  0  0  3  0  0  0  0  0  0
  190.4320  177.0550  137.6220 C   0  0  0  0  0  2  0  0  0  0  0  0
  190.4720  175.5410  137.5480 C   0  0  0  0  0  2  0  0  0  0  0  0
  189.5890  175.0830  136.4890 N   0  0  0  0  0  2  0  0  0  0  0  0
  187.0360  176.1880  137.2920 F   0  0  0  0  0  0  0  0  0  0  0  0
  188.4090  174.2940  136.6920 C   0  0  0  0  0  0  0  0  0  0  0  0
  186.0570  174.0280  137.2600 C   0  0  0  0  0  0  0  0  0  0  0  0
  187.1740  174.8540  137.0830 C   0  0  0  0  0  0  0  0  0  0  0  0
  188.4970  172.9130  136.4830 C   0  0  0  0  0  3  0  0  0  0  0  0
  184.8680  174.5570  137.6370 F   0  0  0  0  0  0  0  0  0  0  0  0
  187.3800  172.0940  136.6590 C   0  0  0  0  0  3  0  0  0  0  0  0
  186.1610  172.6510  137.0470 C   0  0  0  0  0  3  0  0  0  0  0  0
  2  1  1  0  0  0  0
  3  7  1  0  0  0  0
  3  6  1  1  0  0  0
  4  1  1  0  0  0  0
  4 19  1  1  0  0  0
  5  7  2  0  0  0  0
  6  4  1  0  0  0  0
  7  2  1  0  0  0  0
  8 13  1  0  0  0  0
  9 10  1  0  0  0  0
 10 13  2  0  0  0  0
 10 15  1  0  0  0  0
 12 11  1  0  0  0  0
 13 14  1  0  0  0  0
 14  5  1  0  0  0  0
 14 11  2  0  0  0  0
 15 12  2  0  0  0  0
 16  9  1  0  0  0  0
 16  8  2  0  0  0  0
 18 21  2  0  0  0  0
 18 22  1  0  0  0  0
 19 22  2  0  0  0  0
 19 23  1  0  0  0  0
 20 17  1  0  0  0  0
 20 24  1  0  0  0  0
 21 17  1  0  0  0  0
 22 20  1  0  0  0  0
 23 24  2  0  0  0  0
 25 26  1  0  0  0  0
 25 28  2  0  0  0  0
 26 29  1  0  0  0  0
 28 27  1  0  0  0  0
 30 29  1  6  0  0  0
 30 27  1  0  0  0  0
 30  3  1  0  0  0  0
 31 25  1  0  0  0  0
 32 31  1  0  0  0  0
 33 35  1  0  0  0  0
 33 32  1  0  0  0  0
 35 37  1  0  0  0  0
 36 39  1  0  0  0  0
 37 36  2  0  0  0  0
 37 34  1  0  0  0  0
 38 40  1  0  0  0  0
 38 35  2  0  0  0  0
 40 41  2  0  0  0  0
 41 36  1  0  0  0  0
M  END
>  <MODEL>
6

>  <REMARK>
 VINA RESULT:      -9.8      3.342      8.780
  Name = 
  7 active torsions:
  status: ('A' for Active; 'I' for Inactive)
    1  A    between atoms: C_5  and  C_6
    2  A    between atoms: C_5  and  C_12
    3  A    between atoms: C_12  and  N_14
    4  A    between atoms: N_14  and  C_16
    5  A    between atoms: C_15  and  C_31
    6  A    between atoms: C_26  and  C_37
    7  A    between atoms: C_30  and  N_36
                            x       y       z     vdW  Elec       q    Type
                         _______ _______ _______ _____ _____    ______ ____

>  <TORSDO>
F 7

$$$$
=
 OpenBabel10222418403D

 41 47  0  0  1  0  0  0  0  0999 V2000
  183.3570  176.2430  137.7940 C   0  0  0  0  0  2  0  0  0  0  0  0
  184.3100  177.4200  137.6290 C   0  0  0  0  0  2  0  0  0  0  0  0
  183.3320  178.4240  139.7970 C   0  0  2  0  0  3  0  0  0  0  0  0
  182.0590  176.7040  138.4570 C   0  0  2  0  0  3  0  0  0  0  0  0
  185.7080  178.6150  139.2450 N   0  0  0  0  0  0  0  0  0  0  0  0
  182.3730  177.2340  139.8550 C   0  0  0  0  0  2  0  0  0  0  0  0
  184.5480  178.1000  138.9510 C   0  0  0  0  0  0  0  0  0  0  0  0
  188.3590  177.7790  140.4410 N   0  0  0  0  0  0  0  0  0  0  0  0
  190.2290  177.5670  139.2450 O   0  0  0  0  0  0  0  0  0  0  0  0
  189.2700  177.9170  138.4330 C   0  0  0  0  0  0  0  0  0  0  0  0
  186.9790  178.7030  137.1850 N   0  0  0  0  0  0  0  0  0  0  0  0
  188.1320  178.5780  136.4540 C   0  0  0  0  0  3  0  0  0  0  0  0
  188.1220  178.0350  139.1440 C   0  0  0  0  0  0  0  0  0  0  0  0
  186.9310  178.4220  138.5210 C   0  0  0  0  0  0  0  0  0  0  0  0
  189.3310  178.1710  137.0680 C   0  0  0  0  0  3  0  0  0  0  0  0
  189.6860  177.4840  140.4500 C   0  0  0  0  0  3  0  0  0  0  0  0
  180.3530  172.3690  137.5080 C   0  0  0  0  0  2  0  0  0  0  0  0
  181.6750  174.0610  136.5290 C   0  0  0  0  0  3  0  0  0  0  0  0
  181.0600  175.5850  138.5350 C   0  0  0  0  0  0  0  0  0  0  0  0
  180.1160  173.6400  138.1500 N   0  0  0  0  0  0  0  0  0  0  0  0
  181.3560  172.7610  136.4430 C   0  0  0  0  0  3  0  0  0  0  0  0
  180.8710  174.5740  137.6200 C   0  0  0  0  0  0  0  0  0  0  0  0
  180.4010  175.1220  139.6800 C   0  0  0  0  0  3  0  0  0  0  0  0
  179.8580  173.9060  139.4180 N   0  0  0  0  0  0  0  0  0  0  0  0
  183.5850  178.6370  144.0870 C   0  0  0  0  0  0  0  0  0  0  0  0
  182.2590  178.6300  143.3790 C   0  0  0  0  0  2  0  0  0  0  0  0
  184.5750  177.9310  141.9590 C   0  0  0  0  0  2  0  0  0  0  0  0
  184.6920  178.3220  143.4030 C   0  0  0  0  0  3  0  0  0  0  0  0
  182.3760  179.3190  142.0140 C   0  0  0  0  0  2  0  0  0  0  0  0
  183.6410  178.9040  141.2210 C   0  0  2  0  0  3  0  0  0  0  0  0
  183.6830  179.0960  145.5030 C   0  0  0  0  0  2  0  0  0  0  0  0
  184.6660  178.2260  146.2610 C   0  0  0  0  0  2  0  0  0  0  0  0
  185.8730  178.9860  146.5410 N   0  0  0  0  0  2  0  0  0  0  0  0
  187.5880  177.8220  144.5180 F   0  0  0  0  0  0  0  0  0  0  0  0
  187.1560  178.4100  146.8210 C   0  0  0  0  0  0  0  0  0  0  0  0
  189.2220  177.3050  146.1590 C   0  0  0  0  0  0  0  0  0  0  0  0
  187.9760  177.8480  145.8180 C   0  0  0  0  0  0  0  0  0  0  0  0
  187.6050  178.4180  148.1460 C   0  0  0  0  0  3  0  0  0  0  0  0
  190.0150  176.7620  145.2030 F   0  0  0  0  0  0  0  0  0  0  0  0
  188.8480  177.8770  148.4800 C   0  0  0  0  0  3  0  0  0  0  0  0
  189.6560  177.3210  147.4870 C   0  0  0  0  0  3  0  0  0  0  0  0
  1  4  1  0  0  0  0
  2  1  1  0  0  0  0
  2  7  1  0  0  0  0
  3  6  1  1  0  0  0
  3 30  1  0  0  0  0
  4 19  1  1  0  0  0
  4  6  1  0  0  0  0
  7  5  2  0  0  0  0
  7  3  1  0  0  0  0
  8 16  2  0  0  0  0
  9 16  1  0  0  0  0
 10 13  2  0  0  0  0
 10  9  1  0  0  0  0
 11 14  2  0  0  0  0
 12 15  2  0  0  0  0
 12 11  1  0  0  0  0
 13  8  1  0  0  0  0
 14 13  1  0  0  0  0
 14  5  1  0  0  0  0
 15 10  1  0  0  0  0
 17 20  1  0  0  0  0
 18 22  1  0  0  0  0
 19 23  1  0  0  0  0
 20 24  1  0  0  0  0
 21 18  2  0  0  0  0
 21 17  1  0  0  0  0
 22 20  1  0  0  0  0
 22 19  2  0  0  0  0
 24 23  2  0  0  0  0
 25 31  1  0  0  0  0
 26 25  1  0  0  0  0
 27 28  1  0  0  0  0
 28 25  2  0  0  0  0
 29 26  1  0  0  0  0
 30 27  1  1  0  0  0
 30 29  1  0  0  0  0
 31 32  1  0  0  0  0
 32 33  1  0  0  0  0
 33 35  1  0  0  0  0
 34 37  1  0  0  0  0
 35 38  1  0  0  0  0
 36 41  2  0  0  0  0
 37 36  1  0  0  0  0
 37 35  2  0  0  0  0
 38 40  2  0  0  0  0
 39 36  1  0  0  0  0
 41 40  1  0  0  0  0
M  END
>  <MODEL>
7

>  <REMARK>
 VINA RESULT:      -9.8      1.611      2.395
  Name = 
  7 active torsions:
  status: ('A' for Active; 'I' for Inactive)
    1  A    between atoms: C_5  and  C_6
    2  A    between atoms: C_5  and  C_12
    3  A    between atoms: C_12  and  N_14
    4  A    between atoms: N_14  and  C_16
    5  A    between atoms: C_15  and  C_31
    6  A    between atoms: C_26  and  C_37
    7  A    between atoms: C_30  and  N_36
                            x       y       z     vdW  Elec       q    Type
                         _______ _______ _______ _____ _____    ______ ____

>  <TORSDO>
F 7

$$$$
=
 OpenBabel10222418403D

 41 47  0  0  1  0  0  0  0  0999 V2000
  185.7560  178.4470  143.5090 C   0  0  0  0  0  2  0  0  0  0  0  0
  185.4780  179.2340  142.2340 C   0  0  0  0  0  2  0  0  0  0  0  0
  187.6940  178.3220  141.2740 C   0  0  2  0  0  3  0  0  0  0  0  0
  187.2620  178.3660  143.7610 C   0  0  2  0  0  3  0  0  0  0  0  0
  185.7120  178.6310  139.8730 N   0  0  0  0  0  0  0  0  0  0  0  0
  187.9200  177.6100  142.6080 C   0  0  0  0  0  2  0  0  0  0  0  0
  186.2250  178.6390  141.0710 C   0  0  0  0  0  0  0  0  0  0  0  0
  183.4090  176.6690  139.8400 N   0  0  0  0  0  0  0  0  0  0  0  0
  181.3370  177.2220  139.2270 O   0  0  0  0  0  0  0  0  0  0  0  0
  182.0790  178.2930  139.1490 C   0  0  0  0  0  0  0  0  0  0  0  0
  184.0320  180.1930  139.0940 N   0  0  0  0  0  0  0  0  0  0  0  0
  182.7580  180.5280  138.7120 C   0  0  0  0  0  3  0  0  0  0  0  0
  183.3400  177.9750  139.5350 C   0  0  0  0  0  0  0  0  0  0  0  0
  184.3540  178.9380  139.5300 C   0  0  0  0  0  0  0  0  0  0  0  0
  181.7270  179.5710  138.7320 C   0  0  0  0  0  3  0  0  0  0  0  0
  182.1320  176.2470  139.6390 C   0  0  0  0  0  3  0  0  0  0  0  0
  190.0470  176.8900  147.3210 C   0  0  0  0  0  2  0  0  0  0  0  0
  190.1220  177.2990  144.9970 C   0  0  0  0  0  3  0  0  0  0  0  0
  187.5600  177.6880  145.0670 C   0  0  0  0  0  0  0  0  0  0  0  0
  188.7170  176.8980  146.7580 N   0  0  0  0  0  0  0  0  0  0  0  0
  190.8900  177.1240  146.0840 C   0  0  0  0  0  3  0  0  0  0  0  0
  188.7610  177.1500  145.4710 C   0  0  0  0  0  0  0  0  0  0  0  0
  186.8290  177.7930  146.2580 C   0  0  0  0  0  3  0  0  0  0  0  0
  187.5850  177.3270  147.2840 N   0  0  0  0  0  0  0  0  0  0  0  0
  190.3240  177.1120  138.0910 C   0  0  0  0  0  0  0  0  0  0  0  0
  189.4660  178.3410  137.9740 C   0  0  0  0  0  2  0  0  0  0  0  0
  189.7970  177.1320  140.4840 C   0  0  0  0  0  2  0  0  0  0  0  0
  190.4660  176.5250  139.2850 C   0  0  0  0  0  3  0  0  0  0  0  0
  188.1530  178.1530  138.7460 C   0  0  0  0  0  2  0  0  0  0  0  0
  188.3470  177.5150  140.1440 C   0  0  2  0  0  3  0  0  0  0  0  0
  190.9200  176.4900  136.8730 C   0  0  0  0  0  2  0  0  0  0  0  0
  191.0430  174.9910  137.0670 C   0  0  0  0  0  2  0  0  0  0  0  0
  192.1950  174.4980  136.3310 N   0  0  0  0  0  2  0  0  0  0  0  0
  193.6760  175.8100  138.4460 F   0  0  0  0  0  0  0  0  0  0  0  0
  193.3780  173.9530  136.9300 C   0  0  0  0  0  0  0  0  0  0  0  0
  195.2310  174.0200  138.5080 C   0  0  0  0  0  0  0  0  0  0  0  0
  194.0840  174.6100  137.9610 C   0  0  0  0  0  0  0  0  0  0  0  0
  193.8370  172.7140  136.4710 C   0  0  0  0  0  3  0  0  0  0  0  0
  195.9150  174.6450  139.4970 F   0  0  0  0  0  0  0  0  0  0  0  0
  194.9800  172.1290  137.0200 C   0  0  0  0  0  3  0  0  0  0  0  0
  195.6760  172.7820  138.0380 C   0  0  0  0  0  3  0  0  0  0  0  0
  1  4  1  0  0  0  0
  2  1  1  0  0  0  0
  3  6  1  1  0  0  0
  4 19  1  1  0  0  0
  5  7  2  0  0  0  0
  6  4  1  0  0  0  0
  7  3  1  0  0  0  0
  7  2  1  0  0  0  0
  9 16  1  0  0  0  0
 10  9  1  0  0  0  0
 10 13  2  0  0  0  0
 11 14  2  0  0  0  0
 12 15  2  0  0  0  0
 12 11  1  0  0  0  0
 13  8  1  0  0  0  0
 14 13  1  0  0  0  0
 14  5  1  0  0  0  0
 15 10  1  0  0  0  0
 16  8  2  0  0  0  0
 18 22  1  0  0  0  0
 18 21  2  0  0  0  0
 19 22  2  0  0  0  0
 19 23  1  0  0  0  0
 20 24  1  0  0  0  0
 20 17  1  0  0  0  0
 21 17  1  0  0  0  0
 22 20  1  0  0  0  0
 23 24  2  0  0  0  0
 25 28  2  0  0  0  0
 26 25  1  0  0  0  0
 26 29  1  0  0  0  0
 28 27  1  0  0  0  0
 30 29  1  6  0  0  0
 30 27  1  0  0  0  0
 30  3  1  0  0  0  0
 31 32  1  0  0  0  0
 31 25  1  0  0  0  0
 33 35  1  0  0  0  0
 33 32  1  0  0  0  0
 35 37  1  0  0  0  0
 36 39  1  0  0  0  0
 37 34  1  0  0  0  0
 37 36  2  0  0  0  0
 38 35  2  0  0  0  0
 38 40  1  0  0  0  0
 40 41  2  0  0  0  0
 41 36  1  0  0  0  0
M  END
>  <MODEL>
8

>  <REMARK>
 VINA RESULT:      -9.7      3.558      8.348
  Name = 
  7 active torsions:
  status: ('A' for Active; 'I' for Inactive)
    1  A    between atoms: C_5  and  C_6
    2  A    between atoms: C_5  and  C_12
    3  A    between atoms: C_12  and  N_14
    4  A    between atoms: N_14  and  C_16
    5  A    between atoms: C_15  and  C_31
    6  A    between atoms: C_26  and  C_37
    7  A    between atoms: C_30  and  N_36
                            x       y       z     vdW  Elec       q    Type
                         _______ _______ _______ _____ _____    ______ ____

>  <TORSDO>
F 7

$$$$
=
 OpenBabel10222418403D

 41 47  0  0  1  0  0  0  0  0999 V2000
  184.9040  178.3570  143.9420 C   0  0  0  0  0  2  0  0  0  0  0  0
  184.5270  178.9440  142.5870 C   0  0  0  0  0  2  0  0  0  0  0  0
  186.9290  178.4440  141.7830 C   0  0  2  0  0  3  0  0  0  0  0  0
  186.3790  178.6240  144.2410 C   0  0  2  0  0  3  0  0  0  0  0  0
  184.9950  178.1890  140.3050 N   0  0  0  0  0  0  0  0  0  0  0  0
  187.2370  177.9230  143.1870 C   0  0  0  0  0  2  0  0  0  0  0  0
  185.4380  178.4180  141.5090 C   0  0  0  0  0  0  0  0  0  0  0  0
  183.4680  180.5030  139.0950 N   0  0  0  0  0  0  0  0  0  0  0  0
  181.3070  180.3930  138.5500 O   0  0  0  0  0  0  0  0  0  0  0  0
  181.6620  179.2310  139.0230 C   0  0  0  0  0  0  0  0  0  0  0  0
  182.8660  177.0480  140.1250 N   0  0  0  0  0  0  0  0  0  0  0  0
  181.5360  176.9860  139.7950 C   0  0  0  0  0  3  0  0  0  0  0  0
  182.9790  179.2770  139.3450 C   0  0  0  0  0  0  0  0  0  0  0  0
  183.6210  178.1640  139.8970 C   0  0  0  0  0  0  0  0  0  0  0  0
  180.8860  178.0940  139.2220 C   0  0  0  0  0  3  0  0  0  0  0  0
  182.3870  181.1580  138.5920 C   0  0  0  0  0  3  0  0  0  0  0  0
  189.3810  177.3910  147.7160 C   0  0  0  0  0  2  0  0  0  0  0  0
  189.2090  177.3670  145.3620 C   0  0  0  0  0  3  0  0  0  0  0  0
  186.7510  178.1500  145.6160 C   0  0  0  0  0  0  0  0  0  0  0  0
  188.0020  177.5030  147.3010 N   0  0  0  0  0  0  0  0  0  0  0  0
  190.0810  177.2710  146.3780 C   0  0  0  0  0  3  0  0  0  0  0  0
  187.9130  177.5140  145.9910 C   0  0  0  0  0  0  0  0  0  0  0  0
  186.2000  178.5750  146.8320 C   0  0  0  0  0  3  0  0  0  0  0  0
  187.0130  178.1860  147.8460 N   0  0  0  0  0  0  0  0  0  0  0  0
  190.1170  177.4000  139.0880 C   0  0  0  0  0  0  0  0  0  0  0  0
  189.2760  178.6270  138.8700 C   0  0  0  0  0  2  0  0  0  0  0  0
  189.1590  177.3050  141.3410 C   0  0  0  0  0  2  0  0  0  0  0  0
  190.0450  176.7590  140.2610 C   0  0  0  0  0  3  0  0  0  0  0  0
  187.8470  178.3950  139.3780 C   0  0  0  0  0  2  0  0  0  0  0  0
  187.7900  177.6940  140.7580 C   0  0  2  0  0  3  0  0  0  0  0  0
  190.9360  176.8390  137.9740 C   0  0  0  0  0  2  0  0  0  0  0  0
  190.5180  175.4080  137.6970 C   0  0  0  0  0  2  0  0  0  0  0  0
  189.6140  175.3780  136.5590 N   0  0  0  0  0  2  0  0  0  0  0  0
  188.1760  177.7680  135.7790 F   0  0  0  0  0  0  0  0  0  0  0  0
  188.1900  175.5120  136.6420 C   0  0  0  0  0  0  0  0  0  0  0  0
  186.1130  176.7500  136.3580 C   0  0  0  0  0  0  0  0  0  0  0  0
  187.5080  176.6870  136.2560 C   0  0  0  0  0  0  0  0  0  0  0  0
  187.4540  174.4220  137.1210 C   0  0  0  0  0  3  0  0  0  0  0  0
  185.4520  177.8750  135.9910 F   0  0  0  0  0  0  0  0  0  0  0  0
  186.0620  174.4900  137.2200 C   0  0  0  0  0  3  0  0  0  0  0  0
  185.3930  175.6540  136.8390 C   0  0  0  0  0  3  0  0  0  0  0  0
  1  4  1  0  0  0  0
  2  1  1  0  0  0  0
  3  6  1  1  0  0  0
  4 19  1  1  0  0  0
  5  7  2  0  0  0  0
  6  4  1  0  0  0  0
  7  3  1  0  0  0  0
  7  2  1  0  0  0  0
  8 13  1  0  0  0  0
  9 16  1  0  0  0  0
  9 10  1  0  0  0  0
 10 15  1  0  0  0  0
 10 13  2  0  0  0  0
 12 11  1  0  0  0  0
 13 14  1  0  0  0  0
 14 11  2  0  0  0  0
 14  5  1  0  0  0  0
 15 12  2  0  0  0  0
 16  8  2  0  0  0  0
 18 22  1  0  0  0  0
 18 21  2  0  0  0  0
 19 22  2  0  0  0  0
 19 23  1  0  0  0  0
 20 17  1  0  0  0  0
 20 24  1  0  0  0  0
 21 17  1  0  0  0  0
 22 20  1  0  0  0  0
 23 24  2  0  0  0  0
 25 28  2  0  0  0  0
 26 25  1  0  0  0  0
 26 29  1  0  0  0  0
 28 27  1  0  0  0  0
 30 29  1  6  0  0  0
 30 27  1  0  0  0  0
 30  3  1  0  0  0  0
 31 25  1  0  0  0  0
 32 31  1  0  0  0  0
 33 35  1  0  0  0  0
 33 32  1  0  0  0  0
 34 37  1  0  0  0  0
 35 38  1  0  0  0  0
 36 41  2  0  0  0  0
 37 36  1  0  0  0  0
 37 35  2  0  0  0  0
 38 40  2  0  0  0  0
 39 36  1  0  0  0  0
 41 40  1  0  0  0  0
M  END
>  <MODEL>
9

>  <REMARK>
 VINA RESULT:      -9.7      3.203      8.386
  Name = 
  7 active torsions:
  status: ('A' for Active; 'I' for Inactive)
    1  A    between atoms: C_5  and  C_6
    2  A    between atoms: C_5  and  C_12
    3  A    between atoms: C_12  and  N_14
    4  A    between atoms: N_14  and  C_16
    5  A    between atoms: C_15  and  C_31
    6  A    between atoms: C_26  and  C_37
    7  A    between atoms: C_30  and  N_36
                            x       y       z     vdW  Elec       q    Type
                         _______ _______ _______ _____ _____    ______ ____

>  <TORSDO>
F 7

$$$$
