=
 OpenBabel10222418533D

 70 76  0  0  1  0  0  0  0  0999 V2000
  182.8580  178.5680  140.5300 C   0  0  2  0  0  3  0  0  0  0  0  0
  182.5500  179.0330  141.9890 C   0  0  1  0  0  3  0  0  0  0  0  0
  181.6680  178.0620  142.8110 C   0  0  1  0  0  3  0  0  0  0  0  0
  181.8930  178.2150  144.1990 O   0  0  0  0  0  0  0  0  0  0  0  0
  180.6730  178.6990  143.7070 C   0  0  0  0  0  2  0  0  0  0  0  0
  183.7720  179.3480  142.6870 O   0  0  0  0  0  0  0  0  0  0  0  0
  185.0100  178.7290  142.4580 C   0  0  0  0  0  3  0  0  0  0  0  0
  185.6840  178.1420  143.4470 C   0  0  0  0  0  3  0  0  0  0  0  0
  185.1960  178.1260  144.8650 C   0  0  0  0  0  2  0  0  0  0  0  0
  186.0660  177.4060  145.7170 O   0  0  0  0  0  0  0  0  0  0  0  0
  187.1310  176.9400  144.9250 C   0  0  0  0  0  2  0  0  0  0  0  0
  188.1650  178.0280  144.6970 C   0  0  0  0  0  2  0  0  0  0  0  0
  189.3190  176.7610  142.8400 N   0  0  0  0  0  2  0  0  0  0  0  0
  190.4880  177.5390  144.7250 O   0  0  0  0  0  0  0  0  0  0  0  0
  189.3820  177.4060  144.1140 C   0  0  0  0  0  0  0  0  0  0  0  0
  190.5110  176.2710  142.1620 C   0  0  0  0  0  2  0  0  0  0  0  0
  190.9070  177.1920  141.0640 C   0  0  0  0  0  0  0  0  0  0  0  0
  192.0250  177.6770  141.0470 O   0  0  0  0  0  0  0  0  0  0  0  0
  189.9500  177.5030  139.9730 C   0  0  0  0  0  2  0  0  0  0  0  0
  190.3680  176.9160  138.6500 C   0  0  0  0  0  0  0  0  0  0  0  0
  189.7970  177.2940  137.6330 O   0  0  0  0  0  0  0  0  0  0  0  0
  191.4640  175.8860  138.5200 C   0  0  0  0  0  2  0  0  0  0  0  0
  191.1040  174.8890  137.6130 O   0  0  0  0  0  0  0  0  0  0  0  0
  192.1150  174.8710  136.6440 C   0  0  2  0  0  3  0  0  0  0  0  0
  190.5140  175.9680  135.0280 C   0  0  0  0  0  2  0  0  0  0  0  0
  191.9430  176.2250  134.5950 C   0  0  0  0  0  2  0  0  0  0  0  0
  191.5570  174.8810  135.2180 C   0  0  0  0  0  3  0  0  0  0  0  0
  193.0640  173.6730  136.8400 C   0  0  0  0  0  2  0  0  0  0  0  0
  194.5260  174.0830  136.8900 C   0  0  0  0  0  2  0  0  0  0  0  0
  194.8070  174.5760  138.1640 O   0  0  0  0  0  0  0  0  0  0  0  0
  197.9260  173.0150  137.0590 C   0  0  0  0  0  2  0  0  0  0  0  0
  196.0830  174.1160  138.4440 C   0  0  2  0  0  3  0  0  0  0  0  0
  197.0160  175.0230  137.9240 O   0  0  0  0  0  0  0  0  0  0  0  0
  198.2080  174.2990  137.8030 C   0  0  0  0  0  2  0  0  0  0  0  0
  196.3400  172.4720  137.6990 S   0  0  0  0  0  0  0  0  0  0  0  0
  184.0470  179.5990  139.6250 S   0  0  0  0  0  0  0  0  0  0  0  0
  183.3720  179.1930  137.9980 C   0  0  1  0  0  3  0  0  0  0  0  0
  182.2960  180.1680  137.4640 C   0  0  2  0  0  3  0  0  0  0  0  0
  182.0250  181.1600  138.4080 O   0  0  0  0  0  1  0  0  0  0  0  0
  179.8450  180.0510  137.5890 O   0  0  0  0  0  1  0  0  0  0  0  0
  180.9770  179.5580  136.9360 C   0  0  1  0  0  3  0  0  0  0  0  0
  180.8200  179.6630  135.4220 C   0  0  0  0  0  1  0  0  0  0  0  0
  184.3920  178.6410  136.9840 C   0  0  0  0  0  2  0  0  0  0  0  0
  185.0060  177.3790  137.4140 N   0  0  0  0  0  0  0  0  0  0  0  0
  184.4320  176.3090  136.6120 C   0  0  0  0  0  2  0  0  0  0  0  0
  186.3110  177.1160  136.7640 C   0  0  1  0  0  3  0  0  0  0  0  0
  185.7220  176.0070  135.9050 C   0  0  1  0  0  3  0  0  0  0  0  0
  186.8880  178.2210  135.8860 C   0  0  0  0  0  1  0  0  0  0  0  0
  186.0870  172.6350  137.4980 C   0  0  0  0  0  3  0  0  0  0  0  0
  187.3580  172.2620  137.0790 C   0  0  0  0  0  3  0  0  0  0  0  0
  187.5150  174.3220  135.8850 N   0  0  0  0  0  0  0  0  0  0  0  0
  185.5630  173.8240  137.1120 N   0  0  0  0  0  0  0  0  0  0  0  0
  188.0690  173.1380  136.2540 C   0  0  0  0  0  3  0  0  0  0  0  0
  186.2750  174.6720  136.3040 C   0  0  0  0  0  0  0  0  0  0  0  0
  181.6150  178.3840  139.6530 C   0  0  0  0  0  2  0  0  0  0  0  0
  180.8990  177.2200  140.0510 O   0  0  0  0  0  0  0  0  0  0  0  0
  181.2300  175.9320  139.6120 C   0  0  0  0  0  0  0  0  0  0  0  0
  181.0070  174.8970  140.3100 O   0  0  0  0  0  0  0  0  0  0  0  0
  181.8360  175.7910  138.2370 C   0  0  0  0  0  2  0  0  0  0  0  0
  181.0850  174.8720  137.3710 N   0  0  0  0  0  0  0  0  0  0  0  0
  181.3930  173.5000  137.7470 C   0  0  0  0  0  2  0  0  0  0  0  0
  182.1100  172.8570  136.6590 N   0  0  0  0  0  2  0  0  0  0  0  0
  181.5610  171.8310  135.8140 C   0  0  0  0  0  0  0  0  0  0  0  0
  182.3170  171.1590  134.9480 C   0  0  0  0  0  2  0  0  0  0  0  0
  180.2110  171.3000  136.1170 C   0  0  0  0  0  1  0  0  0  0  0  0
  179.6400  175.0910  137.5470 C   0  0  0  0  0  2  0  0  0  0  0  0
  179.9840  175.6940  135.2480 C   0  0  2  0  0  3  0  0  0  0  0  0
  179.4680  174.3830  135.2310 O   0  0  0  0  0  0  0  0  0  0  0  0
  178.9320  175.2510  136.1970 C   0  0  1  0  0  0  0  0  0  0  0  0
  178.9440  176.6820  135.6820 C   0  0  0  0  0  2  0  0  0  0  0  0
  1 55  1  6  0  0  0
  1  2  1  0  0  0  0
  2  6  1  1  0  0  0
  3  2  1  6  0  0  0
  3  5  1  0  0  0  0
  3  4  1  0  0  0  0
  5  4  1  0  0  0  0
  7  6  1  0  0  0  0
  7  8  2  0  0  0  0
  8  9  1  0  0  0  0
  9 10  1  0  0  0  0
 11 10  1  0  0  0  0
 12 11  1  0  0  0  0
 13 15  1  0  0  0  0
 15 12  1  0  0  0  0
 15 14  2  0  0  0  0
 16 13  1  0  0  0  0
 17 16  1  0  0  0  0
 18 17  2  0  0  0  0
 19 17  1  0  0  0  0
 20 19  1  0  0  0  0
 21 20  2  0  0  0  0
 22 20  1  0  0  0  0
 23 22  1  0  0  0  0
 24 28  1  6  0  0  0
 24 23  1  0  0  0  0
 25 27  1  0  0  0  0
 26 25  1  0  0  0  0
 26 27  1  0  0  0  0
 27 24  1  0  0  0  0
 28 29  1  0  0  0  0
 29 30  1  0  0  0  0
 31 35  1  0  0  0  0
 31 34  1  0  0  0  0
 32 30  1  6  0  0  0
 33 32  1  0  0  0  0
 34 33  1  0  0  0  0
 35 32  1  0  0  0  0
 36  1  1  0  0  0  0
 37 43  1  6  0  0  0
 37 36  1  0  0  0  0
 38 37  1  0  0  0  0
 38 39  1  1  0  0  0
 41 42  1  6  0  0  0
 41 38  1  0  0  0  0
 41 40  1  0  0  0  0
 43 44  1  0  0  0  0
 45 44  1  0  0  0  0
 46 48  1  6  0  0  0
 46 44  1  0  0  0  0
 47 54  1  1  0  0  0
 47 45  1  0  0  0  0
 47 46  1  0  0  0  0
 50 49  1  0  0  0  0
 51 53  1  0  0  0  0
 51 54  2  0  0  0  0
 52 49  2  0  0  0  0
 53 50  2  0  0  0  0
 54 52  1  0  0  0  0
 55 56  1  0  0  0  0
 57 56  1  0  0  0  0
 57 58  2  0  0  0  0
 59 57  1  0  0  0  0
 60 66  1  0  0  0  0
 60 61  1  0  0  0  0
 60 59  1  0  0  0  0
 62 61  1  0  0  0  0
 63 65  1  0  0  0  0
 63 62  1  0  0  0  0
 64 63  2  0  0  0  0
 67 70  1  6  0  0  0
 67 69  1  0  0  0  0
 68 67  1  0  0  0  0
 68 69  1  0  0  0  0
 69 66  1  1  0  0  0
 70 69  1  0  0  0  0
M  END
>  <MODEL>
1

>  <REMARK>
 VINA RESULT:      -3.4      0.000      0.000
  Name = 
  38 active torsions:
  status: ('A' for Active; 'I' for Inactive)
    1  A    between atoms: N_1  and  C_51
    2  A    between atoms: C_2  and  C_12
    3  A    between atoms: C_2  and  C_26
    4  A    between atoms: O_3  and  C_9
    5  A    between atoms: O_3  and  C_57
    6  A    between atoms: C_4  and  C_52
    7  A    between atoms: C_6  and  C_57
    8  A    between atoms: C_6  and  C_70
    9  A    between atoms: C_7  and  C_24
   10  A    between atoms: C_7  and  C_51
   11  A    between atoms: C_7  and  S_66
   12  A    between atoms: C_9  and  C_61
   13  A    between atoms: C_10  and  C_52
   14  A    between atoms: C_10  and  S_66
   15  A    between atoms: C_10  and  C_69
   16  A    between atoms: C_11  and  C_26
   17  A    between atoms: C_11  and  N_59
   18  A    between atoms: C_12  and  C_33
   19  A    between atoms: N_15  and  C_27
   20  A    between atoms: N_15  and  C_42
   21  A    between atoms: C_18  and  O_54
   22  A    between atoms: C_19  and  C_45
   23  A    between atoms: C_19  and  N_58
   24  A    between atoms: C_20  and  C_35
   25  A    between atoms: C_20  and  O_54
   26  A    between atoms: C_24  and  C_46
   27  A    between atoms: O_28  and  C_39
   28  A    between atoms: O_28  and  C_69
   29  A    between atoms: C_31  and  O_53
   30  A    between atoms: C_32  and  C_35
   31  A    between atoms: C_32  and  C_62
   32  A    between atoms: C_32  and  O_63
   33  A    between atoms: C_33  and  O_63
   34  A    between atoms: C_37  and  C_49
   35  A    between atoms: C_39  and  C_60
   36  A    between atoms: C_42  and  N_58
   37  A    between atoms: C_52  and  O_53
   38  A    between atoms: N_58  and  C_60
                            x       y       z     vdW  Elec       q    Type
                         _______ _______ _______ _____ _____    ______ ____

>  <TORSDO>
F 38

$$$$
=
 OpenBabel10222418533D

 70 77  0  0  1  0  0  0  0  0999 V2000
  190.0740  176.5480  138.8050 C   0  0  2  0  0  3  0  0  0  0  0  0
  189.5930  176.7420  137.3310 C   0  0  1  0  0  3  0  0  0  0  0  0
  190.7220  176.7500  136.2720 C   0  0  1  0  0  3  0  0  0  0  0  0
  190.7250  175.5540  135.5170 O   0  0  0  0  0  0  0  0  0  0  0  0
  190.2770  176.7070  134.8590 C   0  0  0  0  0  2  0  0  0  0  0  0
  188.5740  175.7750  137.0020 O   0  0  0  0  0  0  0  0  0  0  0  0
  187.7900  175.0840  137.9380 C   0  0  0  0  0  3  0  0  0  0  0  0
  187.2660  173.8900  137.6560 C   0  0  0  0  0  3  0  0  0  0  0  0
  187.4430  173.2200  136.3250 C   0  0  0  0  0  2  0  0  0  0  0  0
  186.2530  172.5970  135.8840 O   0  0  0  0  0  0  0  0  0  0  0  0
  186.3990  171.2160  136.1100 C   0  0  0  0  0  2  0  0  0  0  0  0
  185.4780  170.4100  135.2120 C   0  0  0  0  0  2  0  0  0  0  0  0
  183.3590  170.2110  136.5730 N   0  0  0  0  0  0  0  0  0  0  0  0
  183.5650  171.7590  134.8160 O   0  0  0  0  0  0  0  0  0  0  0  0
  184.0760  170.8130  135.4930 C   0  0  0  0  0  0  0  0  0  0  0  0
  182.0410  170.6770  136.9810 C   0  0  0  0  0  2  0  0  0  0  0  0
  181.5660  171.7630  136.0840 C   0  0  0  0  0  0  0  0  0  0  0  0
  180.4190  171.7550  135.6690 O   0  0  0  0  0  0  0  0  0  0  0  0
  182.4790  172.8710  135.7100 C   0  0  1  0  0  3  0  0  0  0  0  0
  182.9280  173.6790  136.9000 C   0  0  0  0  0  0  0  0  0  0  0  0
  183.7900  173.2130  137.6370 O   0  0  0  0  0  0  0  0  0  0  0  0
  182.3670  175.0430  137.2220 C   0  0  0  0  0  2  0  0  0  0  0  0
  181.6360  175.5460  136.1440 O   0  0  0  0  0  0  0  0  0  0  0  0
  180.5420  176.2180  136.7050 C   0  0  2  0  0  3  0  0  0  0  0  0
  179.8460  173.9600  137.5970 C   0  0  0  0  0  2  0  0  0  0  0  0
  179.3570  175.0550  138.5230 C   0  0  0  0  0  2  0  0  0  0  0  0
  179.3730  175.2770  137.0080 C   0  0  0  0  0  3  0  0  0  0  0  0
  180.0760  177.3830  135.8120 C   0  0  0  0  0  2  0  0  0  0  0  0
  179.9530  178.6930  136.5700 C   0  0  0  0  0  2  0  0  0  0  0  0
  180.8520  178.6760  137.6360 O   0  0  0  0  0  0  0  0  0  0  0  0
  180.3560  179.2860  141.2090 C   0  0  0  0  0  2  0  0  0  0  0  0
  180.0530  178.6060  138.7660 C   0  0  2  0  0  3  0  0  0  0  0  0
  179.5690  179.8870  139.0590 O   0  0  0  0  0  0  0  0  0  0  0  0
  179.2030  179.8450  140.4100 C   0  0  0  0  0  2  0  0  0  0  0  0
  181.0120  177.9710  140.1800 S   0  0  0  0  0  0  0  0  0  0  0  0
  190.3110  178.0800  139.7480 S   0  0  0  0  0  0  0  0  0  0  0  0
  188.5450  178.3510  140.0210 C   0  0  1  0  0  3  0  0  0  0  0  0
  187.7020  178.5700  138.7420 C   0  0  2  0  0  3  0  0  0  0  0  0
  187.9710  179.8230  138.1890 O   0  0  0  0  0  1  0  0  0  0  0  0
  185.5520  179.2300  139.7310 O   0  0  0  0  0  1  0  0  0  0  0  0
  186.1750  178.3480  138.8450 C   0  0  1  0  0  3  0  0  0  0  0  0
  185.4670  178.3450  137.4940 C   0  0  0  0  0  1  0  0  0  0  0  0
  187.9180  177.5050  141.1460 C   0  0  0  0  0  2  0  0  0  0  0  0
  188.0730  178.1090  142.4750 N   0  0  0  0  0  0  0  0  0  0  0  0
  186.8620  177.8300  143.2340 C   0  0  0  0  0  2  0  0  0  0  0  0
  188.8200  177.2480  143.4210 C   0  0  1  0  0  3  0  0  0  0  0  0
  187.5610  176.9320  144.2130 C   0  0  1  0  0  3  0  0  0  0  0  0
  189.4340  175.9680  142.8630 C   0  0  0  0  0  1  0  0  0  0  0  0
  186.5480  178.4590  147.4830 C   0  0  0  0  0  3  0  0  0  0  0  0
  187.7830  178.7390  148.0560 C   0  0  0  0  0  3  0  0  0  0  0  0
  188.8350  177.8090  146.1270 N   0  0  0  0  0  0  0  0  0  0  0  0
  186.4800  177.8710  146.2630 N   0  0  0  0  0  0  0  0  0  0  0  0
  188.9370  178.3970  147.3470 C   0  0  0  0  0  3  0  0  0  0  0  0
  187.6240  177.5440  145.5810 C   0  0  0  0  0  0  0  0  0  0  0  0
  191.3400  175.6970  138.9450 C   0  0  0  0  0  2  0  0  0  0  0  0
  192.4160  176.2920  138.2280 O   0  0  0  0  0  0  0  0  0  0  0  0
  193.7300  176.3310  138.7150 C   0  0  0  0  0  0  0  0  0  0  0  0
  194.0460  176.9620  139.7690 O   0  0  0  0  0  0  0  0  0  0  0  0
  194.7820  175.5530  137.9630 C   0  0  0  0  0  2  0  0  0  0  0  0
  195.2880  174.3970  138.7160 N   0  0  0  0  0  0  0  0  0  0  0  0
  194.6410  173.1880  138.2290 C   0  0  0  0  0  2  0  0  0  0  0  0
  195.0780  172.9290  136.8670 N   0  0  0  0  0  2  0  0  0  0  0  0
  195.3400  171.6220  136.3280 C   0  0  0  0  0  0  0  0  0  0  0  0
  196.2960  170.8390  136.8230 C   0  0  0  0  0  2  0  0  0  0  0  0
  194.3430  171.0110  135.4160 C   0  0  0  0  0  1  0  0  0  0  0  0
  196.7400  174.2650  138.5100 C   0  0  0  0  0  2  0  0  0  0  0  0
  198.3760  174.9310  140.1360 C   0  0  2  0  0  3  0  0  0  0  0  0
  198.8810  175.3440  138.8880 O   0  0  0  0  0  0  0  0  0  0  0  0
  197.4940  175.4740  139.0730 C   0  0  1  0  0  0  0  0  0  0  0  0
  197.1830  175.7440  140.5360 C   0  0  0  0  0  2  0  0  0  0  0  0
  1 55  1  6  0  0  0
  1 36  1  0  0  0  0
  2  6  1  6  0  0  0
  2  1  1  0  0  0  0
  3  2  1  1  0  0  0
  4  3  1  0  0  0  0
  5  4  1  0  0  0  0
  5  3  1  0  0  0  0
  6  7  1  0  0  0  0
  8  7  2  0  0  0  0
  9  8  1  0  0  0  0
 10 11  1  0  0  0  0
 10  9  1  0  0  0  0
 12 15  1  0  0  0  0
 12 11  1  0  0  0  0
 13 16  1  0  0  0  0
 14 15  1  0  0  0  0
 14 19  1  0  0  0  0
 15 13  2  0  0  0  0
 17 16  1  0  0  0  0
 18 17  2  0  0  0  0
 19 17  1  0  0  0  0
 19 20  1  1  0  0  0
 20 22  1  0  0  0  0
 20 21  2  0  0  0  0
 23 24  1  0  0  0  0
 23 22  1  0  0  0  0
 24 28  1  6  0  0  0
 24 27  1  0  0  0  0
 25 26  1  0  0  0  0
 27 25  1  0  0  0  0
 27 26  1  0  0  0  0
 28 29  1  0  0  0  0
 29 30  1  0  0  0  0
 32 30  1  6  0  0  0
 32 33  1  0  0  0  0
 32 35  1  0  0  0  0
 33 34  1  0  0  0  0
 34 31  1  0  0  0  0
 35 31  1  0  0  0  0
 36 37  1  0  0  0  0
 37 43  1  6  0  0  0
 38 39  1  1  0  0  0
 38 41  1  0  0  0  0
 38 37  1  0  0  0  0
 41 42  1  6  0  0  0
 41 40  1  0  0  0  0
 43 44  1  0  0  0  0
 44 45  1  0  0  0  0
 44 46  1  0  0  0  0
 45 47  1  0  0  0  0
 46 48  1  6  0  0  0
 46 47  1  0  0  0  0
 47 54  1  1  0  0  0
 49 50  1  0  0  0  0
 51 53  1  0  0  0  0
 52 49  2  0  0  0  0
 53 50  2  0  0  0  0
 54 51  2  0  0  0  0
 54 52  1  0  0  0  0
 56 57  1  0  0  0  0
 56 55  1  0  0  0  0
 57 58  2  0  0  0  0
 59 57  1  0  0  0  0
 59 60  1  0  0  0  0
 61 60  1  0  0  0  0
 62 61  1  0  0  0  0
 63 64  2  0  0  0  0
 63 62  1  0  0  0  0
 65 63  1  0  0  0  0
 66 60  1  0  0  0  0
 67 70  1  1  0  0  0
 68 69  1  0  0  0  0
 68 67  1  0  0  0  0
 69 66  1  6  0  0  0
 69 67  1  0  0  0  0
 69 70  1  0  0  0  0
M  END
>  <MODEL>
2

>  <REMARK>
 VINA RESULT:      -0.8      2.828     12.164
  Name = 
  38 active torsions:
  status: ('A' for Active; 'I' for Inactive)
    1  A    between atoms: N_1  and  C_51
    2  A    between atoms: C_2  and  C_12
    3  A    between atoms: C_2  and  C_26
    4  A    between atoms: O_3  and  C_9
    5  A    between atoms: O_3  and  C_57
    6  A    between atoms: C_4  and  C_52
    7  A    between atoms: C_6  and  C_57
    8  A    between atoms: C_6  and  C_70
    9  A    between atoms: C_7  and  C_24
   10  A    between atoms: C_7  and  C_51
   11  A    between atoms: C_7  and  S_66
   12  A    between atoms: C_9  and  C_61
   13  A    between atoms: C_10  and  C_52
   14  A    between atoms: C_10  and  S_66
   15  A    between atoms: C_10  and  C_69
   16  A    between atoms: C_11  and  C_26
   17  A    between atoms: C_11  and  N_59
   18  A    between atoms: C_12  and  C_33
   19  A    between atoms: N_15  and  C_27
   20  A    between atoms: N_15  and  C_42
   21  A    between atoms: C_18  and  O_54
   22  A    between atoms: C_19  and  C_45
   23  A    between atoms: C_19  and  N_58
   24  A    between atoms: C_20  and  C_35
   25  A    between atoms: C_20  and  O_54
   26  A    between atoms: C_24  and  C_46
   27  A    between atoms: O_28  and  C_39
   28  A    between atoms: O_28  and  C_69
   29  A    between atoms: C_31  and  O_53
   30  A    between atoms: C_32  and  C_35
   31  A    between atoms: C_32  and  C_62
   32  A    between atoms: C_32  and  O_63
   33  A    between atoms: C_33  and  O_63
   34  A    between atoms: C_37  and  C_49
   35  A    between atoms: C_39  and  C_60
   36  A    between atoms: C_42  and  N_58
   37  A    between atoms: C_52  and  O_53
   38  A    between atoms: N_58  and  C_60
                            x       y       z     vdW  Elec       q    Type
                         _______ _______ _______ _____ _____    ______ ____

>  <TORSDO>
F 38

$$$$
