=
 OpenBabel10222419573D

 36 42  0  0  1  0  0  0  0  0999 V2000
  192.4530  177.1690  139.2270 C   0  0  0  0  0  3  0  0  0  0  0  0
  192.2690  176.9060  140.5820 C   0  0  0  0  0  3  0  0  0  0  0  0
  189.8560  176.9740  140.2890 C   0  0  0  0  0  0  0  0  0  0  0  0
  190.0490  177.1950  138.9000 C   0  0  0  0  0  0  0  0  0  0  0  0
  191.3480  177.3080  138.3920 C   0  0  0  0  0  3  0  0  0  0  0  0
  190.9840  176.7970  141.1290 C   0  0  0  0  0  0  0  0  0  0  0  0
  185.8280  175.8810  136.8990 C   0  0  2  0  0  3  0  0  0  0  0  0
  185.0050  176.8180  137.3720 C   0  0  0  0  0  3  0  0  0  0  0  0
  188.2790  176.0200  137.5010 C   0  0  1  0  0  3  0  0  0  0  0  0
  187.1350  176.5260  136.6290 C   0  0  1  0  0  0  0  0  0  0  0  0
  185.7610  178.0740  137.5440 C   0  0  0  0  0  3  0  0  0  0  0  0
  188.3750  175.9310  135.9870 C   0  0  0  0  0  2  0  0  0  0  0  0
  186.9860  177.9210  137.0520 C   0  0  1  0  0  3  0  0  0  0  0  0
  188.9460  177.2330  137.9850 N   0  0  0  0  0  0  0  0  0  0  0  0
  188.1800  178.4460  137.7350 C   0  0  0  0  0  2  0  0  0  0  0  0
  184.1300  173.0300  135.1560 C   0  0  0  0  0  2  0  0  0  0  0  0
  184.4580  172.4190  137.2990 C   0  0  0  0  0  2  0  0  0  0  0  0
  185.4370  174.5350  136.5770 N   0  0  0  0  0  0  0  0  0  0  0  0
  185.1540  174.1650  135.1870 C   0  0  0  0  0  2  0  0  0  0  0  0
  185.5280  173.4730  137.5780 C   0  0  0  0  0  2  0  0  0  0  0  0
  184.5660  171.9690  135.9710 O   0  0  0  0  0  0  0  0  0  0  0  0
  191.1270  178.0900  144.9310 C   0  0  2  0  0  3  0  0  0  0  0  0
  190.5450  175.3840  143.0090 O   0  0  0  0  0  0  0  0  0  0  0  0
  191.4390  178.9680  143.9140 C   0  0  0  0  0  2  0  0  0  0  0  0
  190.8600  176.5280  142.5850 C   0  0  0  0  0  0  0  0  0  0  0  0
  191.0890  177.5680  143.5330 N   0  0  0  0  0  0  0  0  0  0  0  0
  189.8230  178.3110  145.3700 O   0  0  0  0  0  0  0  0  0  0  0  0
  189.6860  177.5010  146.4970 C   0  0  0  0  0  2  0  0  0  0  0  0
  188.4440  178.0600  148.5290 C   0  0  0  0  0  2  0  0  0  0  0  0
  188.1160  176.7530  148.1220 O   0  0  0  0  0  0  0  0  0  0  0  0
  188.3120  177.7030  147.1030 C   0  0  2  0  0  3  0  0  0  0  0  0
  188.5720  176.9370  140.8550 O   0  0  0  0  0  0  0  0  0  0  0  0
  188.0580  177.9550  141.7080 C   0  0  1  0  0  3  0  0  0  0  0  0
  186.9570  178.7040  140.9810 C   0  0  0  0  0  1  0  0  0  0  0  0
  187.5080  177.3310  142.9820 C   0  0  0  0  0  2  0  0  0  0  0  0
  186.1710  177.9520  143.3400 C   0  0  0  0  0  1  0  0  0  0  0  0
  1  2  1  0  0  0  0
  2  6  2  0  0  0  0
  3 32  1  0  0  0  0
  3  6  1  0  0  0  0
  4  3  2  0  0  0  0
  5  4  1  0  0  0  0
  5  1  2  0  0  0  0
  6 25  1  0  0  0  0
  7 18  1  6  0  0  0
  7  8  1  0  0  0  0
  8 11  2  0  0  0  0
  9 12  1  6  0  0  0
  9 14  1  0  0  0  0
 10 12  1  6  0  0  0
 10  7  1  0  0  0  0
 10 13  1  0  0  0  0
 10  9  1  0  0  0  0
 13 11  1  1  0  0  0
 13 15  1  0  0  0  0
 14  4  1  0  0  0  0
 15 14  1  0  0  0  0
 16 19  1  0  0  0  0
 16 21  1  0  0  0  0
 17 20  1  0  0  0  0
 18 20  1  0  0  0  0
 19 18  1  0  0  0  0
 21 17  1  0  0  0  0
 22 27  1  6  0  0  0
 24 22  1  0  0  0  0
 25 23  2  0  0  0  0
 25 26  1  0  0  0  0
 26 24  1  0  0  0  0
 26 22  1  0  0  0  0
 27 28  1  0  0  0  0
 30 29  1  0  0  0  0
 31 28  1  6  0  0  0
 31 30  1  0  0  0  0
 31 29  1  0  0  0  0
 32 33  1  0  0  0  0
 33 34  1  6  0  0  0
 33 35  1  0  0  0  0
 35 36  1  0  0  0  0
M  END
>  <MODEL>
1

>  <REMARK>
 VINA RESULT:      -6.8      0.000      0.000
  Name = 
  9 active torsions:
  status: ('A' for Active; 'I' for Inactive)
    1  A    between atoms: C_1  and  O_17
    2  A    between atoms: C_1  and  C_19
    3  A    between atoms: C_3  and  O_22
    4  A    between atoms: C_5  and  N_29
    5  A    between atoms: C_14  and  O_17
    6  A    between atoms: C_16  and  N_34
    7  A    between atoms: C_21  and  C_25
    8  A    between atoms: O_22  and  C_25
    9  A    between atoms: C_23  and  C_33
                            x       y       z     vdW  Elec       q    Type
                         _______ _______ _______ _____ _____    ______ ____

>  <TORSDO>
F 9

$$$$
=
 OpenBabel10222419573D

 36 42  0  0  1  0  0  0  0  0999 V2000
  191.8410  177.2590  141.9080 C   0  0  0  0  0  3  0  0  0  0  0  0
  190.9470  177.0680  142.9580 C   0  0  0  0  0  3  0  0  0  0  0  0
  189.0700  177.3010  141.4300 C   0  0  0  0  0  0  0  0  0  0  0  0
  189.9860  177.4480  140.3560 C   0  0  0  0  0  0  0  0  0  0  0  0
  191.3610  177.4430  140.6150 C   0  0  0  0  0  3  0  0  0  0  0  0
  189.5630  177.0770  142.7400 C   0  0  0  0  0  0  0  0  0  0  0  0
  187.1900  176.5770  136.4870 C   0  0  2  0  0  3  0  0  0  0  0  0
  186.4820  177.7040  136.4100 C   0  0  0  0  0  3  0  0  0  0  0  0
  188.9540  176.3860  138.2870 C   0  0  1  0  0  3  0  0  0  0  0  0
  188.5610  176.9360  136.9200 C   0  0  1  0  0  0  0  0  0  0  0  0
  187.3120  178.8230  136.8970 C   0  0  0  0  0  3  0  0  0  0  0  0
  189.7800  176.0420  137.0590 C   0  0  0  0  0  2  0  0  0  0  0  0
  188.5440  178.3850  137.1360 C   0  0  1  0  0  3  0  0  0  0  0  0
  189.5420  177.5280  138.9950 N   0  0  0  0  0  0  0  0  0  0  0  0
  189.3110  178.8000  138.3230 C   0  0  0  0  0  2  0  0  0  0  0  0
  185.8460  173.0840  136.6920 C   0  0  0  0  0  2  0  0  0  0  0  0
  187.1240  173.2130  134.8420 C   0  0  0  0  0  2  0  0  0  0  0  0
  186.7180  175.2840  136.0680 N   0  0  0  0  0  0  0  0  0  0  0  0
  185.6790  174.5970  136.8400 C   0  0  0  0  0  2  0  0  0  0  0  0
  187.0970  174.7390  134.7660 C   0  0  0  0  0  2  0  0  0  0  0  0
  185.8930  172.7380  135.3290 O   0  0  0  0  0  0  0  0  0  0  0  0
  188.9620  177.1210  146.7130 C   0  0  2  0  0  3  0  0  0  0  0  0
  187.4600  176.5510  143.7500 O   0  0  0  0  0  0  0  0  0  0  0  0
  190.2220  177.3950  146.2240 C   0  0  0  0  0  2  0  0  0  0  0  0
  188.6660  176.8800  143.9070 C   0  0  0  0  0  0  0  0  0  0  0  0
  189.1540  177.0690  145.2330 N   0  0  0  0  0  0  0  0  0  0  0  0
  188.3090  178.3060  147.0460 O   0  0  0  0  0  0  0  0  0  0  0  0
  187.0630  177.9010  147.5260 C   0  0  0  0  0  2  0  0  0  0  0  0
  184.8820  178.3210  146.5030 C   0  0  0  0  0  2  0  0  0  0  0  0
  185.8760  179.0210  145.7940 O   0  0  0  0  0  0  0  0  0  0  0  0
  186.0250  178.9520  147.1910 C   0  0  2  0  0  3  0  0  0  0  0  0
  187.6830  177.3830  141.2290 O   0  0  0  0  0  0  0  0  0  0  0  0
  186.9910  178.6070  141.0010 C   0  0  1  0  0  3  0  0  0  0  0  0
  185.9770  178.4060  139.8900 C   0  0  0  0  0  1  0  0  0  0  0  0
  186.2850  179.0440  142.2760 C   0  0  0  0  0  2  0  0  0  0  0  0
  184.9300  178.3710  142.3870 C   0  0  0  0  0  1  0  0  0  0  0  0
  1  2  1  0  0  0  0
  3  6  1  0  0  0  0
  4  5  1  0  0  0  0
  4  3  2  0  0  0  0
  5  1  2  0  0  0  0
  6  2  2  0  0  0  0
  6 25  1  0  0  0  0
  7 18  1  6  0  0  0
  7 10  1  0  0  0  0
  8  7  1  0  0  0  0
  8 11  2  0  0  0  0
  9 12  1  6  0  0  0
  9 14  1  0  0  0  0
 10 12  1  6  0  0  0
 10 13  1  0  0  0  0
 10  9  1  0  0  0  0
 13 11  1  1  0  0  0
 13 15  1  0  0  0  0
 14  4  1  0  0  0  0
 15 14  1  0  0  0  0
 16 19  1  0  0  0  0
 17 21  1  0  0  0  0
 18 19  1  0  0  0  0
 20 17  1  0  0  0  0
 20 18  1  0  0  0  0
 21 16  1  0  0  0  0
 22 27  1  6  0  0  0
 23 25  2  0  0  0  0
 24 22  1  0  0  0  0
 25 26  1  0  0  0  0
 26 24  1  0  0  0  0
 26 22  1  0  0  0  0
 27 28  1  0  0  0  0
 29 31  1  0  0  0  0
 30 29  1  0  0  0  0
 30 31  1  0  0  0  0
 31 28  1  6  0  0  0
 32  3  1  0  0  0  0
 33 34  1  6  0  0  0
 33 32  1  0  0  0  0
 33 35  1  0  0  0  0
 35 36  1  0  0  0  0
M  END
>  <MODEL>
2

>  <REMARK>
 VINA RESULT:      -6.6      1.683      2.352
  Name = 
  9 active torsions:
  status: ('A' for Active; 'I' for Inactive)
    1  A    between atoms: C_1  and  O_17
    2  A    between atoms: C_1  and  C_19
    3  A    between atoms: C_3  and  O_22
    4  A    between atoms: C_5  and  N_29
    5  A    between atoms: C_14  and  O_17
    6  A    between atoms: C_16  and  N_34
    7  A    between atoms: C_21  and  C_25
    8  A    between atoms: O_22  and  C_25
    9  A    between atoms: C_23  and  C_33
                            x       y       z     vdW  Elec       q    Type
                         _______ _______ _______ _____ _____    ______ ____

>  <TORSDO>
F 9

$$$$
=
 OpenBabel10222419573D

 36 42  0  0  1  0  0  0  0  0999 V2000
  180.5670  178.6550  143.7950 C   0  0  0  0  0  3  0  0  0  0  0  0
  181.9470  178.6780  143.9720 C   0  0  0  0  0  3  0  0  0  0  0  0
  182.2680  179.0530  141.5920 C   0  0  0  0  0  0  0  0  0  0  0  0
  180.8590  179.0750  141.4240 C   0  0  0  0  0  0  0  0  0  0  0  0
  180.0280  178.8570  142.5280 C   0  0  0  0  0  3  0  0  0  0  0  0
  182.8120  178.8830  142.8890 C   0  0  0  0  0  0  0  0  0  0  0  0
  180.4780  181.0110  136.9900 C   0  0  2  0  0  3  0  0  0  0  0  0
  180.7020  179.9490  136.2150 C   0  0  0  0  0  3  0  0  0  0  0  0
  180.4460  180.6840  139.4960 C   0  0  1  0  0  3  0  0  0  0  0  0
  179.7060  180.5510  138.1690 C   0  0  1  0  0  0  0  0  0  0  0  0
  180.1980  178.7430  136.9000 C   0  0  0  0  0  3  0  0  0  0  0  0
  179.1080  181.3750  139.2950 C   0  0  0  0  0  2  0  0  0  0  0  0
  179.5620  179.1020  138.0120 C   0  0  1  0  0  3  0  0  0  0  0  0
  180.2570  179.3900  140.1610 N   0  0  0  0  0  0  0  0  0  0  0  0
  179.7140  178.3670  139.2780 C   0  0  0  0  0  2  0  0  0  0  0  0
  181.2220  184.6650  137.3660 C   0  0  0  0  0  2  0  0  0  0  0  0
  180.2870  184.3670  135.3390 C   0  0  0  0  0  2  0  0  0  0  0  0
  180.8060  182.3660  136.6370 N   0  0  0  0  0  0  0  0  0  0  0  0
  181.5930  183.1940  137.5550 C   0  0  0  0  0  2  0  0  0  0  0  0
  180.5580  182.8640  135.2850 C   0  0  0  0  0  2  0  0  0  0  0  0
  181.3380  185.0180  136.0090 O   0  0  0  0  0  0  0  0  0  0  0  0
  185.8910  178.6750  145.4630 C   0  0  2  0  0  3  0  0  0  0  0  0
  185.1010  178.9660  142.2000 O   0  0  0  0  0  0  0  0  0  0  0  0
  184.6040  178.6640  145.9580 C   0  0  0  0  0  2  0  0  0  0  0  0
  184.2750  178.8830  143.1480 C   0  0  0  0  0  0  0  0  0  0  0  0
  184.7730  178.7810  144.4800 N   0  0  0  0  0  0  0  0  0  0  0  0
  186.4030  177.3800  145.4330 O   0  0  0  0  0  0  0  0  0  0  0  0
  187.7300  177.5130  145.8410 C   0  0  0  0  0  2  0  0  0  0  0  0
  189.1810  177.8850  147.7740 C   0  0  0  0  0  2  0  0  0  0  0  0
  188.5420  176.6370  147.9000 O   0  0  0  0  0  0  0  0  0  0  0  0
  187.7830  177.6840  147.3460 C   0  0  2  0  0  3  0  0  0  0  0  0
  183.1400  179.1830  140.4990 O   0  0  0  0  0  0  0  0  0  0  0  0
  183.1940  178.2570  139.4190 C   0  0  1  0  0  3  0  0  0  0  0  0
  184.5140  178.4220  138.6870 C   0  0  0  0  0  1  0  0  0  0  0  0
  183.0680  176.8380  139.9500 C   0  0  0  0  0  2  0  0  0  0  0  0
  182.5830  175.9050  138.8560 C   0  0  0  0  0  1  0  0  0  0  0  0
  1  2  1  0  0  0  0
  3  6  1  0  0  0  0
  4  3  2  0  0  0  0
  4  5  1  0  0  0  0
  5  1  2  0  0  0  0
  6 25  1  0  0  0  0
  6  2  2  0  0  0  0
  7  8  1  6  0  0  0
  7 10  1  0  0  0  0
  8 11  2  0  0  0  0
  9 12  1  1  0  0  0
  9 14  1  0  0  0  0
 10 12  1  1  0  0  0
 10  9  1  0  0  0  0
 13 11  1  6  0  0  0
 13 10  1  0  0  0  0
 13 15  1  0  0  0  0
 14  4  1  0  0  0  0
 15 14  1  0  0  0  0
 16 19  1  0  0  0  0
 17 21  1  0  0  0  0
 18  7  1  0  0  0  0
 18 19  1  0  0  0  0
 20 17  1  0  0  0  0
 20 18  1  0  0  0  0
 21 16  1  0  0  0  0
 22 27  1  6  0  0  0
 22 24  1  0  0  0  0
 23 25  2  0  0  0  0
 25 26  1  0  0  0  0
 26 22  1  0  0  0  0
 26 24  1  0  0  0  0
 27 28  1  0  0  0  0
 29 30  1  0  0  0  0
 31 28  1  6  0  0  0
 31 29  1  0  0  0  0
 31 30  1  0  0  0  0
 32  3  1  0  0  0  0
 33 34  1  1  0  0  0
 33 35  1  0  0  0  0
 33 32  1  0  0  0  0
 36 35  1  0  0  0  0
M  END
>  <MODEL>
3

>  <REMARK>
 VINA RESULT:      -6.5      5.633      8.255
  Name = 
  9 active torsions:
  status: ('A' for Active; 'I' for Inactive)
    1  A    between atoms: C_1  and  O_17
    2  A    between atoms: C_1  and  C_19
    3  A    between atoms: C_3  and  O_22
    4  A    between atoms: C_5  and  N_29
    5  A    between atoms: C_14  and  O_17
    6  A    between atoms: C_16  and  N_34
    7  A    between atoms: C_21  and  C_25
    8  A    between atoms: O_22  and  C_25
    9  A    between atoms: C_23  and  C_33
                            x       y       z     vdW  Elec       q    Type
                         _______ _______ _______ _____ _____    ______ ____

>  <TORSDO>
F 9

$$$$
=
 OpenBabel10222419573D

 36 42  0  0  1  0  0  0  0  0999 V2000
  182.2590  178.7370  144.1400 C   0  0  0  0  0  3  0  0  0  0  0  0
  183.5990  178.7410  143.7620 C   0  0  0  0  0  3  0  0  0  0  0  0
  182.9620  179.0040  141.4300 C   0  0  0  0  0  0  0  0  0  0  0  0
  181.6000  179.0470  141.8260 C   0  0  0  0  0  0  0  0  0  0  0  0
  181.2670  178.8940  143.1760 C   0  0  0  0  0  3  0  0  0  0  0  0
  183.9710  178.8810  142.4180 C   0  0  0  0  0  0  0  0  0  0  0  0
  179.5110  180.8110  137.8170 C   0  0  2  0  0  3  0  0  0  0  0  0
  179.4210  179.7170  137.0590 C   0  0  0  0  0  3  0  0  0  0  0  0
  180.4590  180.5830  140.1480 C   0  0  1  0  0  3  0  0  0  0  0  0
  179.2620  180.4060  139.2210 C   0  0  1  0  0  0  0  0  0  0  0  0
  179.2310  178.5440  137.9340 C   0  0  0  0  0  3  0  0  0  0  0  0
  179.1450  181.2800  140.4560 C   0  0  0  0  0  2  0  0  0  0  0  0
  179.0760  178.9540  139.1900 C   0  0  1  0  0  3  0  0  0  0  0  0
  180.5520  179.3180  140.8850 N   0  0  0  0  0  0  0  0  0  0  0  0
  179.7140  178.2670  140.3260 C   0  0  0  0  0  2  0  0  0  0  0  0
  181.0400  183.7610  136.0830 C   0  0  0  0  0  2  0  0  0  0  0  0
  179.7390  184.5480  137.7440 C   0  0  0  0  0  2  0  0  0  0  0  0
  179.6680  182.1470  137.3090 N   0  0  0  0  0  0  0  0  0  0  0  0
  180.3920  182.3760  136.0560 C   0  0  0  0  0  2  0  0  0  0  0  0
  178.9310  183.2610  137.9040 C   0  0  0  0  0  2  0  0  0  0  0  0
  180.0750  184.7360  136.3910 O   0  0  0  0  0  0  0  0  0  0  0  0
  187.7310  177.7660  143.2920 C   0  0  2  0  0  3  0  0  0  0  0  0
  185.8470  179.4080  141.0310 O   0  0  0  0  0  0  0  0  0  0  0  0
  186.7190  177.4540  144.1750 C   0  0  0  0  0  2  0  0  0  0  0  0
  185.4180  178.8630  142.0830 C   0  0  0  0  0  0  0  0  0  0  0  0
  186.3510  178.2190  142.9480 N   0  0  0  0  0  0  0  0  0  0  0  0
  188.0500  176.6520  142.5190 O   0  0  0  0  0  0  0  0  0  0  0  0
  189.3970  176.4060  142.7900 C   0  0  0  0  0  2  0  0  0  0  0  0
  191.5670  177.4260  142.3080 C   0  0  0  0  0  2  0  0  0  0  0  0
  191.2210  177.6700  143.6500 O   0  0  0  0  0  0  0  0  0  0  0  0
  190.1750  177.7040  142.7100 C   0  0  2  0  0  3  0  0  0  0  0  0
  183.3370  179.0700  140.0780 O   0  0  0  0  0  0  0  0  0  0  0  0
  183.0970  178.0230  139.1430 C   0  0  1  0  0  3  0  0  0  0  0  0
  184.2410  177.9750  138.1470 C   0  0  0  0  0  1  0  0  0  0  0  0
  182.9880  176.6940  139.8740 C   0  0  0  0  0  2  0  0  0  0  0  0
  182.1040  175.7350  139.0980 C   0  0  0  0  0  1  0  0  0  0  0  0
  2  1  1  0  0  0  0
  3  4  2  0  0  0  0
  3  6  1  0  0  0  0
  4  5  1  0  0  0  0
  5  1  2  0  0  0  0
  6  2  2  0  0  0  0
  7  8  1  6  0  0  0
  7 10  1  0  0  0  0
  8 11  2  0  0  0  0
  9 12  1  1  0  0  0
  9 14  1  0  0  0  0
 10  9  1  0  0  0  0
 10 12  1  1  0  0  0
 13 11  1  6  0  0  0
 13 10  1  0  0  0  0
 13 15  1  0  0  0  0
 14  4  1  0  0  0  0
 15 14  1  0  0  0  0
 16 21  1  0  0  0  0
 17 20  1  0  0  0  0
 18  7  1  0  0  0  0
 18 20  1  0  0  0  0
 19 16  1  0  0  0  0
 19 18  1  0  0  0  0
 21 17  1  0  0  0  0
 22 27  1  6  0  0  0
 22 24  1  0  0  0  0
 23 25  2  0  0  0  0
 25  6  1  0  0  0  0
 25 26  1  0  0  0  0
 26 22  1  0  0  0  0
 26 24  1  0  0  0  0
 27 28  1  0  0  0  0
 29 31  1  0  0  0  0
 29 30  1  0  0  0  0
 31 28  1  1  0  0  0
 31 30  1  0  0  0  0
 32  3  1  0  0  0  0
 33 34  1  6  0  0  0
 33 35  1  0  0  0  0
 33 32  1  0  0  0  0
 36 35  1  0  0  0  0
M  END
>  <MODEL>
4

>  <REMARK>
 VINA RESULT:      -6.3      5.632      8.237
  Name = 
  9 active torsions:
  status: ('A' for Active; 'I' for Inactive)
    1  A    between atoms: C_1  and  O_17
    2  A    between atoms: C_1  and  C_19
    3  A    between atoms: C_3  and  O_22
    4  A    between atoms: C_5  and  N_29
    5  A    between atoms: C_14  and  O_17
    6  A    between atoms: C_16  and  N_34
    7  A    between atoms: C_21  and  C_25
    8  A    between atoms: O_22  and  C_25
    9  A    between atoms: C_23  and  C_33
                            x       y       z     vdW  Elec       q    Type
                         _______ _______ _______ _____ _____    ______ ____

>  <TORSDO>
F 9

$$$$
=
 OpenBabel10222419573D

 36 42  0  0  1  0  0  0  0  0999 V2000
  188.6610  178.9110  138.5680 C   0  0  0  0  0  3  0  0  0  0  0  0
  189.8740  178.2430  138.4290 C   0  0  0  0  0  3  0  0  0  0  0  0
  189.6210  177.2780  140.6450 C   0  0  0  0  0  0  0  0  0  0  0  0
  188.3620  177.9230  140.7630 C   0  0  0  0  0  0  0  0  0  0  0  0
  187.9090  178.7470  139.7270 C   0  0  0  0  0  3  0  0  0  0  0  0
  190.3670  177.4180  139.4490 C   0  0  0  0  0  0  0  0  0  0  0  0
  186.7100  178.3380  145.3060 C   0  0  2  0  0  3  0  0  0  0  0  0
  185.6800  179.1690  145.1420 C   0  0  0  0  0  3  0  0  0  0  0  0
  188.0070  177.6110  143.2630 C   0  0  1  0  0  3  0  0  0  0  0  0
  186.7600  177.4450  144.1250 C   0  0  1  0  0  0  0  0  0  0  0  0
  185.0910  178.9400  143.8080 C   0  0  0  0  0  3  0  0  0  0  0  0
  187.6710  176.2580  143.8670 C   0  0  0  0  0  2  0  0  0  0  0  0
  185.6820  177.8920  143.2410 C   0  0  1  0  0  3  0  0  0  0  0  0
  187.5030  177.6960  141.8880 N   0  0  0  0  0  0  0  0  0  0  0  0
  186.0590  177.8770  141.8170 C   0  0  0  0  0  2  0  0  0  0  0  0
  189.5390  177.4280  147.5910 C   0  0  0  0  0  2  0  0  0  0  0  0
  187.6840  177.6240  148.8520 C   0  0  0  0  0  2  0  0  0  0  0  0
  187.5090  178.2520  146.4990 N   0  0  0  0  0  0  0  0  0  0  0  0
  188.9710  178.2040  146.4020 C   0  0  0  0  0  2  0  0  0  0  0  0
  186.9020  178.4320  147.8170 C   0  0  0  0  0  2  0  0  0  0  0  0
  189.0460  177.9650  148.7940 O   0  0  0  0  0  0  0  0  0  0  0  0
  192.5850  174.6200  137.6060 C   0  0  2  0  0  3  0  0  0  0  0  0
  192.7060  177.1280  139.8540 O   0  0  0  0  0  0  0  0  0  0  0  0
  191.2340  174.6830  137.3400 C   0  0  0  0  0  2  0  0  0  0  0  0
  191.6750  176.7460  139.2400 C   0  0  0  0  0  0  0  0  0  0  0  0
  191.7880  175.6550  138.3290 N   0  0  0  0  0  0  0  0  0  0  0  0
  193.3030  175.2330  136.5810 O   0  0  0  0  0  0  0  0  0  0  0  0
  194.3880  174.3870  136.3530 C   0  0  0  0  0  2  0  0  0  0  0  0
  196.8250  174.3700  136.1430 C   0  0  0  0  0  2  0  0  0  0  0  0
  196.4480  175.2530  137.1720 O   0  0  0  0  0  0  0  0  0  0  0  0
  195.6190  175.2130  136.0370 C   0  0  2  0  0  3  0  0  0  0  0  0
  190.1530  176.5100  141.6940 O   0  0  0  0  0  0  0  0  0  0  0  0
  191.3020  176.8900  142.4450 C   0  0  1  0  0  3  0  0  0  0  0  0
  191.0740  178.2680  143.0390 C   0  0  0  0  0  1  0  0  0  0  0  0
  191.5490  175.8800  143.5550 C   0  0  0  0  0  2  0  0  0  0  0  0
  191.6810  176.5860  144.8920 C   0  0  0  0  0  1  0  0  0  0  0  0
  1  5  1  0  0  0  0
  2  1  2  0  0  0  0
  2  6  1  0  0  0  0
  3  4  1  0  0  0  0
  3 32  1  0  0  0  0
  4 14  1  0  0  0  0
  5  4  2  0  0  0  0
  6  3  2  0  0  0  0
  7  8  1  1  0  0  0
  7 18  1  0  0  0  0
  9 12  1  6  0  0  0
  9 10  1  0  0  0  0
 10 12  1  1  0  0  0
 10  7  1  0  0  0  0
 11  8  2  0  0  0  0
 13 15  1  6  0  0  0
 13 11  1  0  0  0  0
 13 10  1  0  0  0  0
 14  9  1  0  0  0  0
 15 14  1  0  0  0  0
 16 21  1  0  0  0  0
 18 20  1  0  0  0  0
 19 18  1  0  0  0  0
 19 16  1  0  0  0  0
 20 17  1  0  0  0  0
 21 17  1  0  0  0  0
 22 27  1  6  0  0  0
 22 26  1  0  0  0  0
 24 22  1  0  0  0  0
 24 26  1  0  0  0  0
 25  6  1  0  0  0  0
 25 23  2  0  0  0  0
 26 25  1  0  0  0  0
 28 27  1  0  0  0  0
 29 30  1  0  0  0  0
 31 29  1  0  0  0  0
 31 28  1  1  0  0  0
 31 30  1  0  0  0  0
 32 33  1  0  0  0  0
 33 34  1  1  0  0  0
 33 35  1  0  0  0  0
 35 36  1  0  0  0  0
M  END
>  <MODEL>
5

>  <REMARK>
 VINA RESULT:      -6.3      3.591      8.498
  Name = 
  9 active torsions:
  status: ('A' for Active; 'I' for Inactive)
    1  A    between atoms: C_1  and  O_17
    2  A    between atoms: C_1  and  C_19
    3  A    between atoms: C_3  and  O_22
    4  A    between atoms: C_5  and  N_29
    5  A    between atoms: C_14  and  O_17
    6  A    between atoms: C_16  and  N_34
    7  A    between atoms: C_21  and  C_25
    8  A    between atoms: O_22  and  C_25
    9  A    between atoms: C_23  and  C_33
                            x       y       z     vdW  Elec       q    Type
                         _______ _______ _______ _____ _____    ______ ____

>  <TORSDO>
F 9

$$$$
=
 OpenBabel10222419573D

 36 42  0  0  1  0  0  0  0  0999 V2000
  187.7780  177.5770  138.1750 C   0  0  0  0  0  3  0  0  0  0  0  0
  188.3440  177.8040  139.4260 C   0  0  0  0  0  3  0  0  0  0  0  0
  186.2260  178.6640  140.2540 C   0  0  0  0  0  0  0  0  0  0  0  0
  185.6410  178.3860  138.9900 C   0  0  0  0  0  0  0  0  0  0  0  0
  186.4330  177.8630  137.9620 C   0  0  0  0  0  3  0  0  0  0  0  0
  187.5870  178.3370  140.4780 C   0  0  0  0  0  0  0  0  0  0  0  0
  180.8780  177.5980  139.4850 C   0  0  2  0  0  3  0  0  0  0  0  0
  180.5150  178.6280  140.2500 C   0  0  0  0  0  3  0  0  0  0  0  0
  183.2920  177.4360  138.7540 C   0  0  1  0  0  3  0  0  0  0  0  0
  181.9250  178.0790  138.5510 C   0  0  1  0  0  0  0  0  0  0  0  0
  181.3800  179.7830  139.9380 C   0  0  0  0  0  3  0  0  0  0  0  0
  182.5930  177.3370  137.4090 C   0  0  0  0  0  2  0  0  0  0  0  0
  182.1600  179.4810  138.9040 C   0  0  1  0  0  3  0  0  0  0  0  0
  184.2370  178.5580  138.7580 N   0  0  0  0  0  0  0  0  0  0  0  0
  183.5830  179.8570  138.8560 C   0  0  0  0  0  2  0  0  0  0  0  0
  179.6640  174.2750  140.7210 C   0  0  0  0  0  2  0  0  0  0  0  0
  180.0200  174.0870  138.5050 C   0  0  0  0  0  2  0  0  0  0  0  0
  180.2380  176.3100  139.4890 N   0  0  0  0  0  0  0  0  0  0  0  0
  179.6170  175.8030  140.7160 C   0  0  0  0  0  2  0  0  0  0  0  0
  180.0030  175.5910  138.2380 C   0  0  0  0  0  2  0  0  0  0  0  0
  179.1090  173.7740  139.5300 O   0  0  0  0  0  0  0  0  0  0  0  0
  188.8510  176.9510  144.0310 C   0  0  2  0  0  3  0  0  0  0  0  0
  188.7420  179.6930  142.0740 O   0  0  0  0  0  0  0  0  0  0  0  0
  188.1530  176.1060  143.1930 C   0  0  0  0  0  2  0  0  0  0  0  0
  188.2580  178.5670  141.7830 C   0  0  0  0  0  0  0  0  0  0  0  0
  188.3740  177.5080  142.7310 N   0  0  0  0  0  0  0  0  0  0  0  0
  190.2170  176.6920  143.9410 O   0  0  0  0  0  0  0  0  0  0  0  0
  190.7790  177.3800  145.0170 C   0  0  0  0  0  2  0  0  0  0  0  0
  190.6650  176.5280  147.3070 C   0  0  0  0  0  2  0  0  0  0  0  0
  191.9340  177.0930  147.0790 O   0  0  0  0  0  0  0  0  0  0  0  0
  191.3530  176.3880  146.0090 C   0  0  2  0  0  3  0  0  0  0  0  0
  185.4900  179.2660  141.2870 O   0  0  0  0  0  0  0  0  0  0  0  0
  184.9940  178.5580  142.4180 C   0  0  1  0  0  3  0  0  0  0  0  0
  185.2810  179.3610  143.6730 C   0  0  0  0  0  1  0  0  0  0  0  0
  183.4970  178.3390  142.2720 C   0  0  0  0  0  2  0  0  0  0  0  0
  182.7530  178.9860  143.4260 C   0  0  0  0  0  1  0  0  0  0  0  0
  1  2  1  0  0  0  0
  2  6  2  0  0  0  0
  3  6  1  0  0  0  0
  3 32  1  0  0  0  0
  4  3  2  0  0  0  0
  5  1  2  0  0  0  0
  5  4  1  0  0  0  0
  6 25  1  0  0  0  0
  7 18  1  6  0  0  0
  7  8  1  0  0  0  0
  9 12  1  6  0  0  0
  9 14  1  0  0  0  0
 10 12  1  6  0  0  0
 10  9  1  0  0  0  0
 10 13  1  0  0  0  0
 10  7  1  0  0  0  0
 11  8  2  0  0  0  0
 13 15  1  1  0  0  0
 13 11  1  0  0  0  0
 14 15  1  0  0  0  0
 14  4  1  0  0  0  0
 17 21  1  0  0  0  0
 18 19  1  0  0  0  0
 19 16  1  0  0  0  0
 20 17  1  0  0  0  0
 20 18  1  0  0  0  0
 21 16  1  0  0  0  0
 22 27  1  6  0  0  0
 24 22  1  0  0  0  0
 25 23  2  0  0  0  0
 25 26  1  0  0  0  0
 26 24  1  0  0  0  0
 26 22  1  0  0  0  0
 27 28  1  0  0  0  0
 30 29  1  0  0  0  0
 31 28  1  6  0  0  0
 31 30  1  0  0  0  0
 31 29  1  0  0  0  0
 32 33  1  0  0  0  0
 33 34  1  1  0  0  0
 35 33  1  0  0  0  0
 35 36  1  0  0  0  0
M  END
>  <MODEL>
6

>  <REMARK>
 VINA RESULT:      -6.2      3.581      4.795
  Name = 
  9 active torsions:
  status: ('A' for Active; 'I' for Inactive)
    1  A    between atoms: C_1  and  O_17
    2  A    between atoms: C_1  and  C_19
    3  A    between atoms: C_3  and  O_22
    4  A    between atoms: C_5  and  N_29
    5  A    between atoms: C_14  and  O_17
    6  A    between atoms: C_16  and  N_34
    7  A    between atoms: C_21  and  C_25
    8  A    between atoms: O_22  and  C_25
    9  A    between atoms: C_23  and  C_33
                            x       y       z     vdW  Elec       q    Type
                         _______ _______ _______ _____ _____    ______ ____

>  <TORSDO>
F 9

$$$$
=
 OpenBabel10222419573D

 36 42  0  0  1  0  0  0  0  0999 V2000
  187.8470  177.1220  137.9900 C   0  0  0  0  0  3  0  0  0  0  0  0
  186.5880  177.7060  138.0950 C   0  0  0  0  0  3  0  0  0  0  0  0
  187.0280  178.2860  140.4150 C   0  0  0  0  0  0  0  0  0  0  0  0
  188.3290  177.7310  140.2880 C   0  0  0  0  0  0  0  0  0  0  0  0
  188.7120  177.1390  139.0790 C   0  0  0  0  0  3  0  0  0  0  0  0
  186.1640  178.2990  139.2920 C   0  0  0  0  0  0  0  0  0  0  0  0
  190.2720  176.9860  144.6710 C   0  0  2  0  0  3  0  0  0  0  0  0
  191.1860  176.0520  144.4030 C   0  0  0  0  0  3  0  0  0  0  0  0
  188.9100  177.9190  142.7570 C   0  0  1  0  0  3  0  0  0  0  0  0
  190.2300  177.9180  143.5200 C   0  0  1  0  0  0  0  0  0  0  0  0
  191.6910  176.2590  143.0320 C   0  0  0  0  0  3  0  0  0  0  0  0
  189.4420  179.2050  143.3660 C   0  0  0  0  0  2  0  0  0  0  0  0
  191.1800  177.3840  142.5400 C   0  0  1  0  0  3  0  0  0  0  0  0
  189.2930  177.8250  141.3450 N   0  0  0  0  0  0  0  0  0  0  0  0
  190.6970  177.4880  141.1530 C   0  0  0  0  0  2  0  0  0  0  0  0
  187.5910  177.8630  147.1390 C   0  0  0  0  0  2  0  0  0  0  0  0
  189.5650  177.9640  148.2170 C   0  0  0  0  0  2  0  0  0  0  0  0
  189.5820  177.1200  145.9270 N   0  0  0  0  0  0  0  0  0  0  0  0
  188.1200  177.0250  145.9750 C   0  0  0  0  0  2  0  0  0  0  0  0
  190.3240  177.1290  147.1860 C   0  0  0  0  0  2  0  0  0  0  0  0
  188.2440  177.4970  148.3300 O   0  0  0  0  0  0  0  0  0  0  0  0
  182.2000  177.8780  139.8020 C   0  0  2  0  0  3  0  0  0  0  0  0
  184.6290  180.1290  139.1750 O   0  0  0  0  0  0  0  0  0  0  0  0
  183.0020  176.7570  139.8430 C   0  0  0  0  0  2  0  0  0  0  0  0
  184.8030  178.8930  139.3400 C   0  0  0  0  0  0  0  0  0  0  0  0
  183.6640  178.0690  139.5820 N   0  0  0  0  0  0  0  0  0  0  0  0
  181.8780  178.2830  141.0950 O   0  0  0  0  0  0  0  0  0  0  0  0
  180.4870  178.1890  141.1600 C   0  0  0  0  0  2  0  0  0  0  0  0
  179.1470  179.4860  142.7430 C   0  0  0  0  0  2  0  0  0  0  0  0
  180.5020  179.5380  143.1210 O   0  0  0  0  0  0  0  0  0  0  0  0
  180.0370  178.3160  142.6020 C   0  0  2  0  0  3  0  0  0  0  0  0
  186.5710  178.8140  141.6330 O   0  0  0  0  0  0  0  0  0  0  0  0
  185.4890  178.2620  142.3750 C   0  0  1  0  0  3  0  0  0  0  0  0
  186.0410  177.4620  143.5400 C   0  0  0  0  0  1  0  0  0  0  0  0
  184.5940  179.3790  142.8890 C   0  0  0  0  0  2  0  0  0  0  0  0
  184.0750  179.0450  144.2760 C   0  0  0  0  0  1  0  0  0  0  0  0
  1  2  2  0  0  0  0
  1  5  1  0  0  0  0
  2  6  1  0  0  0  0
  3 32  1  0  0  0  0
  4  3  1  0  0  0  0
  4 14  1  0  0  0  0
  5  4  2  0  0  0  0
  6 25  1  0  0  0  0
  6  3  2  0  0  0  0
  7  8  1  1  0  0  0
  7 18  1  0  0  0  0
  9 12  1  6  0  0  0
  9 10  1  0  0  0  0
 10 12  1  1  0  0  0
 10  7  1  0  0  0  0
 11  8  2  0  0  0  0
 13 15  1  6  0  0  0
 13 11  1  0  0  0  0
 13 10  1  0  0  0  0
 14  9  1  0  0  0  0
 15 14  1  0  0  0  0
 16 21  1  0  0  0  0
 17 21  1  0  0  0  0
 18 19  1  0  0  0  0
 18 20  1  0  0  0  0
 19 16  1  0  0  0  0
 20 17  1  0  0  0  0
 22 24  1  0  0  0  0
 22 27  1  1  0  0  0
 23 25  2  0  0  0  0
 25 26  1  0  0  0  0
 26 22  1  0  0  0  0
 26 24  1  0  0  0  0
 27 28  1  0  0  0  0
 29 30  1  0  0  0  0
 31 28  1  6  0  0  0
 31 29  1  0  0  0  0
 31 30  1  0  0  0  0
 32 33  1  0  0  0  0
 33 35  1  0  0  0  0
 33 34  1  1  0  0  0
 35 36  1  0  0  0  0
M  END
>  <MODEL>
7

>  <REMARK>
 VINA RESULT:      -6.2      3.349      8.244
  Name = 
  9 active torsions:
  status: ('A' for Active; 'I' for Inactive)
    1  A    between atoms: C_1  and  O_17
    2  A    between atoms: C_1  and  C_19
    3  A    between atoms: C_3  and  O_22
    4  A    between atoms: C_5  and  N_29
    5  A    between atoms: C_14  and  O_17
    6  A    between atoms: C_16  and  N_34
    7  A    between atoms: C_21  and  C_25
    8  A    between atoms: O_22  and  C_25
    9  A    between atoms: C_23  and  C_33
                            x       y       z     vdW  Elec       q    Type
                         _______ _______ _______ _____ _____    ______ ____

>  <TORSDO>
F 9

$$$$
=
 OpenBabel10222419573D

 36 42  0  0  1  0  0  0  0  0999 V2000
  187.5840  177.6890  138.0750 C   0  0  0  0  0  3  0  0  0  0  0  0
  188.2580  177.9030  139.2740 C   0  0  0  0  0  3  0  0  0  0  0  0
  186.1800  178.5660  140.3490 C   0  0  0  0  0  0  0  0  0  0  0  0
  185.4900  178.3010  139.1370 C   0  0  0  0  0  0  0  0  0  0  0  0
  186.2070  177.8830  138.0110 C   0  0  0  0  0  3  0  0  0  0  0  0
  187.5760  178.3330  140.4210 C   0  0  0  0  0  0  0  0  0  0  0  0
  181.1590  179.5120  137.3160 C   0  0  2  0  0  3  0  0  0  0  0  0
  180.7710  178.3630  136.7610 C   0  0  0  0  0  3  0  0  0  0  0  0
  183.3620  179.5670  138.5530 C   0  0  1  0  0  3  0  0  0  0  0  0
  181.8860  179.1840  138.5650 C   0  0  1  0  0  0  0  0  0  0  0  0
  181.3240  177.2430  137.5470 C   0  0  0  0  0  3  0  0  0  0  0  0
  182.4370  180.1260  139.6200 C   0  0  0  0  0  2  0  0  0  0  0  0
  181.9210  177.7220  138.6340 C   0  0  1  0  0  3  0  0  0  0  0  0
  184.0610  178.3780  139.0540 N   0  0  0  0  0  0  0  0  0  0  0  0
  183.2100  177.1980  139.1190 C   0  0  0  0  0  2  0  0  0  0  0  0
  180.8460  182.4740  135.0410 C   0  0  0  0  0  2  0  0  0  0  0  0
  180.8070  183.2370  137.1600 C   0  0  0  0  0  2  0  0  0  0  0  0
  180.7850  180.8170  136.8420 N   0  0  0  0  0  0  0  0  0  0  0  0
  180.5130  181.0300  135.4170 C   0  0  0  0  0  2  0  0  0  0  0  0
  180.4570  181.8870  137.7830 C   0  0  0  0  0  2  0  0  0  0  0  0
  180.1810  183.3610  135.9070 O   0  0  0  0  0  0  0  0  0  0  0  0
  189.4210  176.8720  143.6780 C   0  0  2  0  0  3  0  0  0  0  0  0
  188.7210  179.7120  142.0040 O   0  0  0  0  0  0  0  0  0  0  0  0
  188.7480  176.0030  142.8450 C   0  0  0  0  0  2  0  0  0  0  0  0
  188.3600  178.5540  141.6630 C   0  0  0  0  0  0  0  0  0  0  0  0
  188.7250  177.4540  142.4920 N   0  0  0  0  0  0  0  0  0  0  0  0
  190.7890  176.8180  143.4210 O   0  0  0  0  0  0  0  0  0  0  0  0
  191.3080  176.0130  144.4360 C   0  0  0  0  0  2  0  0  0  0  0  0
  192.0560  175.9960  146.7650 C   0  0  0  0  0  2  0  0  0  0  0  0
  190.7240  176.4460  146.7020 O   0  0  0  0  0  0  0  0  0  0  0  0
  191.5800  176.8570  145.6650 C   0  0  2  0  0  3  0  0  0  0  0  0
  185.5140  179.0680  141.4790 O   0  0  0  0  0  0  0  0  0  0  0  0
  184.8880  178.2420  142.4550 C   0  0  1  0  0  3  0  0  0  0  0  0
  185.5990  178.4170  143.7840 C   0  0  0  0  0  1  0  0  0  0  0  0
  183.4240  178.6290  142.5940 C   0  0  0  0  0  2  0  0  0  0  0  0
  183.1090  179.0010  144.0310 C   0  0  0  0  0  1  0  0  0  0  0  0
  1  2  1  0  0  0  0
  2  6  2  0  0  0  0
  3  6  1  0  0  0  0
  3 32  1  0  0  0  0
  4  3  2  0  0  0  0
  5  1  2  0  0  0  0
  5  4  1  0  0  0  0
  6 25  1  0  0  0  0
  7  8  1  1  0  0  0
  7 10  1  0  0  0  0
  8 11  2  0  0  0  0
  9 10  1  0  0  0  0
  9 14  1  0  0  0  0
  9 12  1  1  0  0  0
 10 13  1  0  0  0  0
 10 12  1  1  0  0  0
 13 11  1  6  0  0  0
 13 15  1  0  0  0  0
 14 15  1  0  0  0  0
 14  4  1  0  0  0  0
 16 19  1  0  0  0  0
 16 21  1  0  0  0  0
 17 20  1  0  0  0  0
 18  7  1  0  0  0  0
 18 20  1  0  0  0  0
 19 18  1  0  0  0  0
 21 17  1  0  0  0  0
 22 27  1  6  0  0  0
 24 22  1  0  0  0  0
 25 23  2  0  0  0  0
 25 26  1  0  0  0  0
 26 24  1  0  0  0  0
 26 22  1  0  0  0  0
 27 28  1  0  0  0  0
 30 29  1  0  0  0  0
 31 28  1  6  0  0  0
 31 30  1  0  0  0  0
 31 29  1  0  0  0  0
 32 33  1  0  0  0  0
 33 35  1  0  0  0  0
 33 34  1  1  0  0  0
 35 36  1  0  0  0  0
M  END
>  <MODEL>
8

>  <REMARK>
 VINA RESULT:      -6.0      4.137      5.816
  Name = 
  9 active torsions:
  status: ('A' for Active; 'I' for Inactive)
    1  A    between atoms: C_1  and  O_17
    2  A    between atoms: C_1  and  C_19
    3  A    between atoms: C_3  and  O_22
    4  A    between atoms: C_5  and  N_29
    5  A    between atoms: C_14  and  O_17
    6  A    between atoms: C_16  and  N_34
    7  A    between atoms: C_21  and  C_25
    8  A    between atoms: O_22  and  C_25
    9  A    between atoms: C_23  and  C_33
                            x       y       z     vdW  Elec       q    Type
                         _______ _______ _______ _____ _____    ______ ____

>  <TORSDO>
F 9

$$$$
=
 OpenBabel10222419573D

 36 42  0  0  1  0  0  0  0  0999 V2000
  192.7600  176.9700  139.8720 C   0  0  0  0  0  3  0  0  0  0  0  0
  191.9390  177.4610  140.8830 C   0  0  0  0  0  3  0  0  0  0  0  0
  189.9690  177.0030  139.5330 C   0  0  0  0  0  0  0  0  0  0  0  0
  190.8080  176.4590  138.5260 C   0  0  0  0  0  0  0  0  0  0  0  0
  192.1960  176.4680  138.7030 C   0  0  0  0  0  3  0  0  0  0  0  0
  190.5450  177.4790  140.7370 C   0  0  0  0  0  0  0  0  0  0  0  0
  187.4530  174.4530  135.6510 C   0  0  2  0  0  3  0  0  0  0  0  0
  187.2050  175.4460  134.7960 C   0  0  0  0  0  3  0  0  0  0  0  0
  189.2220  174.8050  137.4210 C   0  0  1  0  0  3  0  0  0  0  0  0
  188.9010  174.4820  135.9660 C   0  0  1  0  0  0  0  0  0  0  0  0
  188.4390  176.2340  134.6090 C   0  0  0  0  0  3  0  0  0  0  0  0
  189.7140  173.5080  136.8000 C   0  0  0  0  0  2  0  0  0  0  0  0
  189.4430  175.6350  135.2420 C   0  0  1  0  0  3  0  0  0  0  0  0
  190.2680  175.8310  137.3560 N   0  0  0  0  0  0  0  0  0  0  0  0
  190.4430  176.3860  136.0200 C   0  0  0  0  0  2  0  0  0  0  0  0
  185.0910  171.5510  135.4310 C   0  0  0  0  0  2  0  0  0  0  0  0
  184.3240  172.9320  137.0370 C   0  0  0  0  0  2  0  0  0  0  0  0
  186.4940  173.4580  136.0510 N   0  0  0  0  0  0  0  0  0  0  0  0
  186.5050  172.1340  135.4230 C   0  0  0  0  0  2  0  0  0  0  0  0
  185.6490  173.6680  137.2260 C   0  0  0  0  0  2  0  0  0  0  0  0
  184.5680  171.5800  136.7370 O   0  0  0  0  0  0  0  0  0  0  0  0
  188.3190  176.9060  144.0330 C   0  0  2  0  0  3  0  0  0  0  0  0
  189.5650  179.2720  141.9810 O   0  0  0  0  0  0  0  0  0  0  0  0
  188.8060  175.8080  143.3560 C   0  0  0  0  0  2  0  0  0  0  0  0
  189.7290  178.0300  141.8500 C   0  0  0  0  0  0  0  0  0  0  0  0
  189.1200  177.1570  142.7980 N   0  0  0  0  0  0  0  0  0  0  0  0
  189.1100  177.1700  145.1490 O   0  0  0  0  0  0  0  0  0  0  0  0
  188.2260  177.6880  146.0960 C   0  0  0  0  0  2  0  0  0  0  0  0
  188.4120  178.1790  148.4850 C   0  0  0  0  0  2  0  0  0  0  0  0
  189.6730  177.8080  147.9820 O   0  0  0  0  0  0  0  0  0  0  0  0
  188.5590  177.1240  147.4630 C   0  0  2  0  0  3  0  0  0  0  0  0
  188.5780  177.0920  139.3620 O   0  0  0  0  0  0  0  0  0  0  0  0
  187.9330  178.1760  138.7020 C   0  0  1  0  0  3  0  0  0  0  0  0
  188.9680  178.9780  137.9350 C   0  0  0  0  0  1  0  0  0  0  0  0
  186.8770  177.6430  137.7470 C   0  0  0  0  0  2  0  0  0  0  0  0
  185.5090  178.1880  138.1140 C   0  0  0  0  0  1  0  0  0  0  0  0
  1  2  1  0  0  0  0
  3  6  1  0  0  0  0
  4  5  1  0  0  0  0
  4  3  2  0  0  0  0
  5  1  2  0  0  0  0
  6  2  2  0  0  0  0
  6 25  1  0  0  0  0
  7  8  1  6  0  0  0
  7 10  1  0  0  0  0
  7 18  1  0  0  0  0
  9 12  1  1  0  0  0
 10 12  1  6  0  0  0
 10  9  1  0  0  0  0
 11  8  2  0  0  0  0
 13 11  1  1  0  0  0
 13 10  1  0  0  0  0
 13 15  1  0  0  0  0
 14  9  1  0  0  0  0
 14  4  1  0  0  0  0
 15 14  1  0  0  0  0
 16 21  1  0  0  0  0
 17 20  1  0  0  0  0
 18 20  1  0  0  0  0
 19 16  1  0  0  0  0
 19 18  1  0  0  0  0
 21 17  1  0  0  0  0
 22 27  1  1  0  0  0
 24 22  1  0  0  0  0
 25 23  2  0  0  0  0
 25 26  1  0  0  0  0
 26 24  1  0  0  0  0
 26 22  1  0  0  0  0
 27 28  1  0  0  0  0
 30 29  1  0  0  0  0
 31 28  1  6  0  0  0
 31 30  1  0  0  0  0
 31 29  1  0  0  0  0
 32  3  1  0  0  0  0
 33 34  1  6  0  0  0
 33 32  1  0  0  0  0
 35 36  1  0  0  0  0
 35 33  1  0  0  0  0
M  END
>  <MODEL>
9

>  <REMARK>
 VINA RESULT:      -5.9      1.669      2.626
  Name = 
  9 active torsions:
  status: ('A' for Active; 'I' for Inactive)
    1  A    between atoms: C_1  and  O_17
    2  A    between atoms: C_1  and  C_19
    3  A    between atoms: C_3  and  O_22
    4  A    between atoms: C_5  and  N_29
    5  A    between atoms: C_14  and  O_17
    6  A    between atoms: C_16  and  N_34
    7  A    between atoms: C_21  and  C_25
    8  A    between atoms: O_22  and  C_25
    9  A    between atoms: C_23  and  C_33
                            x       y       z     vdW  Elec       q    Type
                         _______ _______ _______ _____ _____    ______ ____

>  <TORSDO>
F 9

$$$$
