=
 OpenBabel10222416173D

 46 51  0  0  1  0  0  0  0  0999 V2000
  189.2860  177.1930  138.0410 C   0  0  1  0  0  3  0  0  0  0  0  0
  187.0380  177.0440  143.3590 C   0  0  0  0  0  3  0  0  0  0  0  0
  191.8630  177.3060  141.9130 S   0  0  0  0  0  0  0  0  0  0  0  0
  188.1400  177.6060  145.5390 C   0  0  0  0  0  0  0  0  0  0  0  0
  189.9800  177.7440  143.8090 C   0  0  0  0  0  0  0  0  0  0  0  0
  189.3050  177.7290  142.6680 C   0  0  0  0  0  0  0  0  0  0  0  0
  189.3810  177.9360  145.1460 C   0  0  0  0  0  3  0  0  0  0  0  0
  189.7920  177.9050  140.3010 C   0  0  0  0  0  0  0  0  0  0  0  0
  191.4700  177.6500  143.6700 C   0  0  2  0  0  3  0  0  0  0  0  0
  192.0590  178.8360  144.0560 F   0  0  0  0  0  0  0  0  0  0  0  0
  190.1500  177.5430  141.5030 C   0  0  0  0  0  0  0  0  0  0  0  0
  189.4540  178.2490  139.0880 C   0  0  0  0  0  3  0  0  0  0  0  0
  187.1610  176.8980  144.6770 C   0  0  0  0  0  3  0  0  0  0  0  0
  187.8390  178.0210  142.5690 C   0  0  0  0  0  2  0  0  0  0  0  0
  188.5130  177.4270  147.8730 O   0  0  0  0  0  1  0  0  0  0  0  0
  186.6060  178.5310  147.2630 O   0  0  0  0  0  0  0  0  0  0  0  0
  187.7780  177.8490  146.9450 C   0  0  0  0  0  0  0  0  0  0  0  0
  190.2930  176.0450  138.2000 C   0  0  0  0  0  2  0  0  0  0  0  0
  190.7580  176.1380  135.8410 N   0  0  0  0  0  2  0  0  0  0  0  0
  191.2040  175.8590  137.0130 C   0  0  0  0  0  0  0  0  0  0  0  0
  193.1790  176.5210  138.4000 C   0  0  0  0  0  1  0  0  0  0  0  0
  192.6820  175.6930  137.2330 C   0  0  0  0  0  3  0  0  0  0  0  0
  193.4740  176.0700  135.9940 C   0  0  0  0  0  1  0  0  0  0  0  0
  187.8410  176.7020  137.9990 C   0  0  0  0  0  2  0  0  0  0  0  0
  186.0620  177.4020  135.3200 C   0  0  0  0  0  2  0  0  0  0  0  0
  185.4440  177.3830  137.6830 C   0  0  0  0  0  2  0  0  0  0  0  0
  187.1110  178.1640  136.1130 C   0  0  0  0  0  2  0  0  0  0  0  0
  185.0830  175.3520  136.3190 C   0  0  0  0  0  1  0  0  0  0  0  0
  186.8950  177.8280  137.5790 C   0  0  2  0  0  3  0  0  0  0  0  0
  185.0430  176.8660  136.3190 C   0  0  2  0  0  0  0  0  0  0  0  0
  183.6560  177.3070  135.9730 C   0  0  0  0  0  3  0  0  0  0  0  0
  182.6490  176.9750  136.6980 N   0  0  0  0  0  0  0  0  0  0  0  0
  181.3240  177.4110  136.3470 C   0  0  0  0  0  2  0  0  0  0  0  0
  181.0900  178.8340  136.8270 C   0  0  1  0  0  3  0  0  0  0  0  0
  179.7120  179.1180  136.7790 O   0  0  0  0  0  0  0  0  0  0  0  0
  180.2520  178.8230  138.0430 C   0  0  2  0  0  3  0  0  0  0  0  0
  180.4630  180.1110  138.8150 C   0  0  0  0  0  2  0  0  0  0  0  0
  180.7490  179.8090  140.2120 N   0  0  0  0  0  2  0  0  0  0  0  0
  184.4250  179.2360  142.9730 C   0  0  0  0  0  2  0  0  0  0  0  0
  182.3930  178.6770  141.6210 C   0  0  2  0  0  0  0  0  0  0  0  0
  182.0040  179.0670  140.2390 C   0  0  1  0  0  3  0  0  0  0  0  0
  181.7770  177.7630  140.7520 O   0  0  0  0  0  0  0  0  0  0  0  0
  181.5090  179.0570  142.7230 N   0  0  0  0  0  2  0  0  0  0  0  0
  183.4690  179.4760  144.1500 C   0  0  0  0  0  2  0  0  0  0  0  0
  182.1380  178.7400  144.0000 C   0  0  0  0  0  2  0  0  0  0  0  0
  183.8510  178.3190  141.8990 C   0  0  0  0  0  2  0  0  0  0  0  0
  1 24  1  1  0  0  0
  1 18  1  0  0  0  0
  1 12  1  0  0  0  0
  2 13  2  0  0  0  0
  3  9  1  0  0  0  0
  4 17  1  0  0  0  0
  5  7  1  0  0  0  0
  6  5  2  0  0  0  0
  7  4  2  0  0  0  0
  8 11  2  0  0  0  0
  9  5  1  0  0  0  0
  9 10  1  6  0  0  0
 11  3  1  0  0  0  0
 11  6  1  0  0  0  0
 12  8  2  0  0  0  0
 13  4  1  0  0  0  0
 14  6  1  0  0  0  0
 14  2  1  0  0  0  0
 17 16  2  0  0  0  0
 17 15  1  0  0  0  0
 19 20  2  0  0  0  0
 20 22  1  0  0  0  0
 20 18  1  0  0  0  0
 22 21  1  0  0  0  0
 23 22  1  0  0  0  0
 25 27  1  0  0  0  0
 25 30  1  0  0  0  0
 27 29  1  0  0  0  0
 29 26  1  0  0  0  0
 29 24  1  6  0  0  0
 30 28  1  1  0  0  0
 30 26  1  0  0  0  0
 31 30  1  0  0  0  0
 31 32  2  0  0  0  0
 33 32  1  0  0  0  0
 34 33  1  6  0  0  0
 34 36  1  0  0  0  0
 35 34  1  0  0  0  0
 35 36  1  0  0  0  0
 36 37  1  1  0  0  0
 37 38  1  0  0  0  0
 39 44  1  0  0  0  0
 40 46  1  1  0  0  0
 40 43  1  0  0  0  0
 41 38  1  1  0  0  0
 41 42  1  0  0  0  0
 41 40  1  0  0  0  0
 42 40  1  0  0  0  0
 43 45  1  0  0  0  0
 45 44  1  0  0  0  0
 46 39  1  0  0  0  0
M  END
>  <MODEL>
1

>  <REMARK>
 VINA RESULT:      -8.3      0.000      0.000
  Name = 
  13 active torsions:
  status: ('A' for Active; 'I' for Inactive)
    1  A    between atoms: C_2  and  C_17
    2  A    between atoms: C_2  and  C_35
    3  A    between atoms: C_2  and  C_44
    4  A    between atoms: C_6  and  C_42
    5  A    between atoms: N_9  and  C_10
    6  A    between atoms: N_9  and  C_46
    7  A    between atoms: C_11  and  C_39
    8  A    between atoms: C_17  and  C_23
    9  A    between atoms: C_20  and  C_22
   10  A    between atoms: C_20  and  N_36
   11  A    between atoms: C_23  and  C_30
   12  A    between atoms: C_37  and  C_44
   13  A    between atoms: C_41  and  C_46
                            x       y       z     vdW  Elec       q    Type
                         _______ _______ _______ _____ _____    ______ ____

>  <TORSDO>
F 13

$$$$
=
 OpenBabel10222416173D

 46 51  0  0  1  0  0  0  0  0999 V2000
  189.2520  177.8330  140.5070 C   0  0  1  0  0  3  0  0  0  0  0  0
  183.4920  178.1130  140.1930 C   0  0  0  0  0  3  0  0  0  0  0  0
  186.4840  177.8950  144.2470 S   0  0  0  0  0  0  0  0  0  0  0  0
  181.8520  178.6730  142.0030 C   0  0  0  0  0  0  0  0  0  0  0  0
  184.1030  178.5760  143.1530 C   0  0  0  0  0  0  0  0  0  0  0  0
  184.9480  178.5690  142.1310 C   0  0  0  0  0  0  0  0  0  0  0  0
  182.6600  178.8780  143.0570 C   0  0  0  0  0  3  0  0  0  0  0  0
  187.3480  178.5980  141.7960 C   0  0  0  0  0  0  0  0  0  0  0  0
  184.7260  178.3480  144.4960 C   0  0  2  0  0  3  0  0  0  0  0  0
  184.6440  179.4950  145.2590 F   0  0  0  0  0  0  0  0  0  0  0  0
  186.3130  178.2590  142.5160 C   0  0  0  0  0  0  0  0  0  0  0  0
  188.3990  178.9160  141.0900 C   0  0  0  0  0  3  0  0  0  0  0  0
  182.2840  178.0160  140.7460 C   0  0  0  0  0  3  0  0  0  0  0  0
  184.5710  178.9820  140.7410 C   0  0  0  0  0  2  0  0  0  0  0  0
  180.0160  180.1710  141.9070 O   0  0  0  0  0  0  0  0  0  0  0  0
  179.5200  178.0480  142.6000 O   0  0  0  0  0  1  0  0  0  0  0  0
  180.4260  179.0090  142.1570 C   0  0  0  0  0  0  0  0  0  0  0  0
  189.7490  176.8440  141.5700 C   0  0  0  0  0  2  0  0  0  0  0  0
  192.0540  177.5010  141.3540 N   0  0  0  0  0  2  0  0  0  0  0  0
  191.0960  177.1940  142.1520 C   0  0  0  0  0  0  0  0  0  0  0  0
  190.0880  176.8900  144.4240 C   0  0  0  0  0  1  0  0  0  0  0  0
  191.2080  177.5150  143.6170 C   0  0  0  0  0  3  0  0  0  0  0  0
  191.2100  179.0130  143.8590 C   0  0  0  0  0  1  0  0  0  0  0  0
  188.5280  177.1400  139.3560 C   0  0  0  0  0  2  0  0  0  0  0  0
  188.1550  177.5510  136.1110 C   0  0  0  0  0  2  0  0  0  0  0  0
  186.5180  177.6080  137.9230 C   0  0  0  0  0  2  0  0  0  0  0  0
  188.6830  178.4350  137.2280 C   0  0  0  0  0  2  0  0  0  0  0  0
  186.9230  175.4840  136.7210 C   0  0  0  0  0  1  0  0  0  0  0  0
  187.8310  178.1620  138.4560 C   0  0  2  0  0  3  0  0  0  0  0  0
  186.8160  176.9880  136.5760 C   0  0  2  0  0  0  0  0  0  0  0  0
  185.7270  177.2970  135.5990 C   0  0  0  0  0  3  0  0  0  0  0  0
  184.5260  176.8800  135.7830 N   0  0  0  0  0  0  0  0  0  0  0  0
  183.4940  177.1890  134.8310 C   0  0  0  0  0  2  0  0  0  0  0  0
  182.1500  177.3180  135.5280 C   0  0  1  0  0  3  0  0  0  0  0  0
  182.2850  178.1680  136.6420 O   0  0  0  0  0  0  0  0  0  0  0  0
  181.6970  178.7220  135.4920 C   0  0  2  0  0  3  0  0  0  0  0  0
  180.1910  178.7740  135.6700 C   0  0  0  0  0  2  0  0  0  0  0  0
  179.7260  180.1500  135.5480 N   0  0  0  0  0  2  0  0  0  0  0  0
  181.5320  184.1790  136.9550 C   0  0  0  0  0  2  0  0  0  0  0  0
  179.8940  182.3030  136.6910 C   0  0  2  0  0  0  0  0  0  0  0  0
  180.0750  180.8290  136.7900 C   0  0  1  0  0  3  0  0  0  0  0  0
  178.9310  181.4910  137.3090 O   0  0  0  0  0  0  0  0  0  0  0  0
  179.4050  182.8580  135.4280 N   0  0  0  0  0  2  0  0  0  0  0  0
  180.8850  184.8030  135.7120 C   0  0  0  0  0  2  0  0  0  0  0  0
  179.4570  184.3140  135.4700 C   0  0  0  0  0  2  0  0  0  0  0  0
  180.6220  183.2000  137.6900 C   0  0  0  0  0  2  0  0  0  0  0  0
  1 24  1  6  0  0  0
  1 12  1  0  0  0  0
  1 18  1  0  0  0  0
  2 14  1  0  0  0  0
  2 13  2  0  0  0  0
  3  9  1  0  0  0  0
  4 17  1  0  0  0  0
  4  7  2  0  0  0  0
  5  9  1  0  0  0  0
  6 11  1  0  0  0  0
  6  5  2  0  0  0  0
  7  5  1  0  0  0  0
  8 11  2  0  0  0  0
  9 10  1  1  0  0  0
 11  3  1  0  0  0  0
 12  8  2  0  0  0  0
 13  4  1  0  0  0  0
 14  6  1  0  0  0  0
 15 17  2  0  0  0  0
 17 16  1  0  0  0  0
 18 20  1  0  0  0  0
 19 20  2  0  0  0  0
 20 22  1  0  0  0  0
 22 23  1  0  0  0  0
 22 21  1  0  0  0  0
 25 30  1  0  0  0  0
 25 27  1  0  0  0  0
 26 29  1  0  0  0  0
 27 29  1  0  0  0  0
 29 24  1  1  0  0  0
 30 28  1  1  0  0  0
 30 26  1  0  0  0  0
 31 32  2  0  0  0  0
 31 30  1  0  0  0  0
 33 32  1  0  0  0  0
 34 33  1  6  0  0  0
 34 35  1  0  0  0  0
 36 34  1  0  0  0  0
 36 37  1  1  0  0  0
 36 35  1  0  0  0  0
 38 37  1  0  0  0  0
 39 46  1  0  0  0  0
 40 41  1  0  0  0  0
 40 42  1  0  0  0  0
 40 46  1  1  0  0  0
 41 38  1  6  0  0  0
 41 42  1  0  0  0  0
 43 45  1  0  0  0  0
 43 40  1  0  0  0  0
 44 39  1  0  0  0  0
 45 44  1  0  0  0  0
M  END
>  <MODEL>
2

>  <REMARK>
 VINA RESULT:      -8.1      3.517      5.751
  Name = 
  13 active torsions:
  status: ('A' for Active; 'I' for Inactive)
    1  A    between atoms: C_2  and  C_17
    2  A    between atoms: C_2  and  C_35
    3  A    between atoms: C_2  and  C_44
    4  A    between atoms: C_6  and  C_42
    5  A    between atoms: N_9  and  C_10
    6  A    between atoms: N_9  and  C_46
    7  A    between atoms: C_11  and  C_39
    8  A    between atoms: C_17  and  C_23
    9  A    between atoms: C_20  and  C_22
   10  A    between atoms: C_20  and  N_36
   11  A    between atoms: C_23  and  C_30
   12  A    between atoms: C_37  and  C_44
   13  A    between atoms: C_41  and  C_46
                            x       y       z     vdW  Elec       q    Type
                         _______ _______ _______ _____ _____    ______ ____

>  <TORSDO>
F 13

$$$$
=
 OpenBabel10222416173D

 46 51  0  0  1  0  0  0  0  0999 V2000
  189.4880  177.4910  138.0530 C   0  0  1  0  0  3  0  0  0  0  0  0
  185.1710  178.4910  141.7580 C   0  0  0  0  0  3  0  0  0  0  0  0
  189.6400  176.2890  142.5460 S   0  0  0  0  0  0  0  0  0  0  0  0
  185.2110  178.4210  144.2620 C   0  0  0  0  0  0  0  0  0  0  0  0
  187.4970  177.6140  143.5380 C   0  0  0  0  0  0  0  0  0  0  0  0
  187.5240  177.9420  142.2530 C   0  0  0  0  0  0  0  0  0  0  0  0
  186.4870  178.0810  144.5100 C   0  0  0  0  0  3  0  0  0  0  0  0
  189.1050  177.8500  140.4180 C   0  0  0  0  0  0  0  0  0  0  0  0
  188.6520  176.7830  144.0080 C   0  0  2  0  0  3  0  0  0  0  0  0
  189.4380  177.5110  144.8770 F   0  0  0  0  0  0  0  0  0  0  0  0
  188.6410  177.3560  141.5340 C   0  0  0  0  0  0  0  0  0  0  0  0
  189.5810  178.3190  139.2970 C   0  0  0  0  0  3  0  0  0  0  0  0
  184.5690  178.3030  142.9300 C   0  0  0  0  0  3  0  0  0  0  0  0
  186.5880  178.9320  141.6310 C   0  0  0  0  0  2  0  0  0  0  0  0
  183.1530  179.0770  145.2390 O   0  0  0  0  0  0  0  0  0  0  0  0
  184.9210  178.9140  146.6820 O   0  0  0  0  0  1  0  0  0  0  0  0
  184.3710  178.8120  145.4060 C   0  0  0  0  0  0  0  0  0  0  0  0
  189.6870  175.9940  138.3290 C   0  0  0  0  0  2  0  0  0  0  0  0
  191.9660  175.3620  137.8860 N   0  0  0  0  0  2  0  0  0  0  0  0
  190.7490  175.3480  137.4750 C   0  0  0  0  0  0  0  0  0  0  0  0
  189.7620  175.1670  135.1810 C   0  0  0  0  0  1  0  0  0  0  0  0
  190.3430  174.4190  136.3640 C   0  0  0  0  0  3  0  0  0  0  0  0
  189.3300  173.3940  136.8410 C   0  0  0  0  0  1  0  0  0  0  0  0
  188.1860  177.7800  137.3110 C   0  0  0  0  0  2  0  0  0  0  0  0
  184.9390  177.6030  136.7960 C   0  0  0  0  0  2  0  0  0  0  0  0
  186.6030  175.8400  137.0960 C   0  0  0  0  0  2  0  0  0  0  0  0
  185.7940  177.9300  138.0090 C   0  0  0  0  0  2  0  0  0  0  0  0
  186.0390  176.5980  134.8100 C   0  0  0  0  0  1  0  0  0  0  0  0
  187.0160  177.0290  137.9510 C   0  0  2  0  0  3  0  0  0  0  0  0
  185.4870  176.3150  136.1920 C   0  0  2  0  0  0  0  0  0  0  0  0
  184.4220  175.2720  136.0760 C   0  0  0  0  0  3  0  0  0  0  0  0
  183.3190  175.3670  136.7280 N   0  0  0  0  0  0  0  0  0  0  0  0
  182.3080  174.3520  136.6010 C   0  0  0  0  0  2  0  0  0  0  0  0
  180.9240  174.9570  136.7690 C   0  0  1  0  0  3  0  0  0  0  0  0
  180.0600  173.9910  137.3180 O   0  0  0  0  0  0  0  0  0  0  0  0
  180.5510  174.9720  138.1970 C   0  0  2  0  0  3  0  0  0  0  0  0
  179.4820  176.0220  138.4310 C   0  0  0  0  0  2  0  0  0  0  0  0
  179.7410  176.7210  139.6830 N   0  0  0  0  0  2  0  0  0  0  0  0
  181.9940  180.5580  138.3920 C   0  0  0  0  0  2  0  0  0  0  0  0
  181.1700  178.6960  139.8480 C   0  0  2  0  0  0  0  0  0  0  0  0
  181.1070  177.2280  139.6130 C   0  0  1  0  0  3  0  0  0  0  0  0
  181.4760  177.7800  140.8670 O   0  0  0  0  0  0  0  0  0  0  0  0
  179.9210  179.4090  140.1180 N   0  0  0  0  0  2  0  0  0  0  0  0
  180.7420  181.3340  138.8240 C   0  0  0  0  0  2  0  0  0  0  0  0
  180.1650  180.8460  140.1520 C   0  0  0  0  0  2  0  0  0  0  0  0
  182.4010  179.4630  139.3710 C   0  0  0  0  0  2  0  0  0  0  0  0
  1 24  1  1  0  0  0
  1 18  1  0  0  0  0
  1 12  1  0  0  0  0
  2 13  2  0  0  0  0
  3  9  1  0  0  0  0
  4  7  2  0  0  0  0
  4 17  1  0  0  0  0
  5  9  1  0  0  0  0
  5  7  1  0  0  0  0
  6  5  2  0  0  0  0
  8 11  2  0  0  0  0
  9 10  1  1  0  0  0
 11  6  1  0  0  0  0
 11  3  1  0  0  0  0
 12  8  2  0  0  0  0
 13  4  1  0  0  0  0
 14  2  1  0  0  0  0
 14  6  1  0  0  0  0
 15 17  2  0  0  0  0
 17 16  1  0  0  0  0
 20 19  2  0  0  0  0
 20 18  1  0  0  0  0
 21 22  1  0  0  0  0
 22 23  1  0  0  0  0
 22 20  1  0  0  0  0
 25 27  1  0  0  0  0
 26 29  1  0  0  0  0
 29 24  1  6  0  0  0
 29 27  1  0  0  0  0
 30 28  1  6  0  0  0
 30 25  1  0  0  0  0
 30 26  1  0  0  0  0
 31 30  1  0  0  0  0
 31 32  2  0  0  0  0
 33 32  1  0  0  0  0
 34 33  1  1  0  0  0
 34 35  1  0  0  0  0
 34 36  1  0  0  0  0
 35 36  1  0  0  0  0
 36 37  1  6  0  0  0
 37 38  1  0  0  0  0
 39 44  1  0  0  0  0
 39 46  1  0  0  0  0
 40 46  1  6  0  0  0
 40 43  1  0  0  0  0
 40 42  1  0  0  0  0
 41 38  1  1  0  0  0
 41 40  1  0  0  0  0
 41 42  1  0  0  0  0
 43 45  1  0  0  0  0
 44 45  1  0  0  0  0
M  END
>  <MODEL>
3

>  <REMARK>
 VINA RESULT:      -8.0      1.970      3.109
  Name = 
  13 active torsions:
  status: ('A' for Active; 'I' for Inactive)
    1  A    between atoms: C_2  and  C_17
    2  A    between atoms: C_2  and  C_35
    3  A    between atoms: C_2  and  C_44
    4  A    between atoms: C_6  and  C_42
    5  A    between atoms: N_9  and  C_10
    6  A    between atoms: N_9  and  C_46
    7  A    between atoms: C_11  and  C_39
    8  A    between atoms: C_17  and  C_23
    9  A    between atoms: C_20  and  C_22
   10  A    between atoms: C_20  and  N_36
   11  A    between atoms: C_23  and  C_30
   12  A    between atoms: C_37  and  C_44
   13  A    between atoms: C_41  and  C_46
                            x       y       z     vdW  Elec       q    Type
                         _______ _______ _______ _____ _____    ______ ____

>  <TORSDO>
F 13

$$$$
=
 OpenBabel10222416173D

 46 51  0  0  1  0  0  0  0  0999 V2000
  189.2740  177.8420  137.8490 C   0  0  1  0  0  3  0  0  0  0  0  0
  185.1650  178.5540  141.8450 C   0  0  0  0  0  3  0  0  0  0  0  0
  189.7350  176.4620  142.2690 S   0  0  0  0  0  0  0  0  0  0  0  0
  185.3600  178.3830  144.3370 C   0  0  0  0  0  0  0  0  0  0  0  0
  187.6200  177.6780  143.4440 C   0  0  0  0  0  0  0  0  0  0  0  0
  187.5590  178.0590  142.1750 C   0  0  0  0  0  0  0  0  0  0  0  0
  186.6580  178.0730  144.4940 C   0  0  0  0  0  3  0  0  0  0  0  0
  189.0260  178.0920  140.2470 C   0  0  0  0  0  0  0  0  0  0  0  0
  188.8240  176.8640  143.8080 C   0  0  2  0  0  3  0  0  0  0  0  0
  189.6410  177.5810  144.6590 F   0  0  0  0  0  0  0  0  0  0  0  0
  188.6460  177.5380  141.3660 C   0  0  0  0  0  0  0  0  0  0  0  0
  189.4190  178.6200  139.1200 C   0  0  0  0  0  3  0  0  0  0  0  0
  184.6410  178.3000  143.0430 C   0  0  0  0  0  3  0  0  0  0  0  0
  186.5590  179.0440  141.6530 C   0  0  0  0  0  2  0  0  0  0  0  0
  183.3770  179.0520  145.4510 O   0  0  0  0  0  0  0  0  0  0  0  0
  185.1740  178.6370  146.8040 O   0  0  0  0  0  1  0  0  0  0  0  0
  184.5810  178.7010  145.5450 C   0  0  0  0  0  0  0  0  0  0  0  0
  189.6270  176.3580  138.0280 C   0  0  0  0  0  2  0  0  0  0  0  0
  190.7950  176.2360  135.9280 N   0  0  0  0  0  2  0  0  0  0  0  0
  189.9920  175.6550  136.7440 C   0  0  0  0  0  0  0  0  0  0  0  0
  190.9730  173.3720  136.4400 C   0  0  0  0  0  1  0  0  0  0  0  0
  189.7050  174.1860  136.5970 C   0  0  0  0  0  3  0  0  0  0  0  0
  188.7980  173.9130  135.4110 C   0  0  0  0  0  1  0  0  0  0  0  0
  187.8850  178.0440  137.2500 C   0  0  0  0  0  2  0  0  0  0  0  0
  184.5970  177.8630  137.2530 C   0  0  0  0  0  2  0  0  0  0  0  0
  186.2900  176.1020  137.2060 C   0  0  0  0  0  2  0  0  0  0  0  0
  185.6350  178.1440  138.3270 C   0  0  0  0  0  2  0  0  0  0  0  0
  185.3670  176.9550  135.0750 C   0  0  0  0  0  1  0  0  0  0  0  0
  186.8330  177.2560  138.0350 C   0  0  2  0  0  3  0  0  0  0  0  0
  185.0430  176.6070  136.5120 C   0  0  2  0  0  0  0  0  0  0  0  0
  183.9740  175.5610  136.5220 C   0  0  0  0  0  3  0  0  0  0  0  0
  183.0710  175.5370  137.4360 N   0  0  0  0  0  0  0  0  0  0  0  0
  182.0530  174.5220  137.4250 C   0  0  0  0  0  2  0  0  0  0  0  0
  180.6720  175.1540  137.4980 C   0  0  1  0  0  3  0  0  0  0  0  0
  179.6990  174.1380  137.5460 O   0  0  0  0  0  0  0  0  0  0  0  0
  180.0100  174.7720  138.7610 C   0  0  2  0  0  3  0  0  0  0  0  0
  178.9310  175.7840  139.0930 C   0  0  0  0  0  2  0  0  0  0  0  0
  179.1540  176.3250  140.4280 N   0  0  0  0  0  2  0  0  0  0  0  0
  179.1660  180.4710  142.4970 C   0  0  0  0  0  2  0  0  0  0  0  0
  180.0170  178.3090  141.5620 C   0  0  2  0  0  0  0  0  0  0  0  0
  179.7590  177.6410  140.2580 C   0  0  1  0  0  3  0  0  0  0  0  0
  181.0430  177.6570  140.8610 O   0  0  0  0  0  0  0  0  0  0  0  0
  179.6620  177.5960  142.7900 N   0  0  0  0  0  2  0  0  0  0  0  0
  178.9530  179.7160  143.8160 C   0  0  0  0  0  2  0  0  0  0  0  0
  179.8300  178.4720  143.9430 C   0  0  0  0  0  2  0  0  0  0  0  0
  180.2040  179.8250  141.5860 C   0  0  0  0  0  2  0  0  0  0  0  0
  1 24  1  1  0  0  0
  1 18  1  0  0  0  0
  1 12  1  0  0  0  0
  2 13  2  0  0  0  0
  3  9  1  0  0  0  0
  4  7  2  0  0  0  0
  4 17  1  0  0  0  0
  5  9  1  0  0  0  0
  5  7  1  0  0  0  0
  6  5  2  0  0  0  0
  8 11  2  0  0  0  0
  9 10  1  1  0  0  0
 11  6  1  0  0  0  0
 11  3  1  0  0  0  0
 12  8  2  0  0  0  0
 13  4  1  0  0  0  0
 14  2  1  0  0  0  0
 14  6  1  0  0  0  0
 15 17  2  0  0  0  0
 17 16  1  0  0  0  0
 19 20  2  0  0  0  0
 20 18  1  0  0  0  0
 21 22  1  0  0  0  0
 22 20  1  0  0  0  0
 23 22  1  0  0  0  0
 25 27  1  0  0  0  0
 26 29  1  0  0  0  0
 29 24  1  6  0  0  0
 29 27  1  0  0  0  0
 30 28  1  6  0  0  0
 30 31  1  0  0  0  0
 30 26  1  0  0  0  0
 30 25  1  0  0  0  0
 31 32  2  0  0  0  0
 33 32  1  0  0  0  0
 34 33  1  1  0  0  0
 34 35  1  0  0  0  0
 34 36  1  0  0  0  0
 35 36  1  0  0  0  0
 36 37  1  6  0  0  0
 37 38  1  0  0  0  0
 39 44  1  0  0  0  0
 40 46  1  1  0  0  0
 40 43  1  0  0  0  0
 41 38  1  1  0  0  0
 41 42  1  0  0  0  0
 41 40  1  0  0  0  0
 42 40  1  0  0  0  0
 43 45  1  0  0  0  0
 44 45  1  0  0  0  0
 46 39  1  0  0  0  0
M  END
>  <MODEL>
4

>  <REMARK>
 VINA RESULT:      -7.9      2.220      2.966
  Name = 
  13 active torsions:
  status: ('A' for Active; 'I' for Inactive)
    1  A    between atoms: C_2  and  C_17
    2  A    between atoms: C_2  and  C_35
    3  A    between atoms: C_2  and  C_44
    4  A    between atoms: C_6  and  C_42
    5  A    between atoms: N_9  and  C_10
    6  A    between atoms: N_9  and  C_46
    7  A    between atoms: C_11  and  C_39
    8  A    between atoms: C_17  and  C_23
    9  A    between atoms: C_20  and  C_22
   10  A    between atoms: C_20  and  N_36
   11  A    between atoms: C_23  and  C_30
   12  A    between atoms: C_37  and  C_44
   13  A    between atoms: C_41  and  C_46
                            x       y       z     vdW  Elec       q    Type
                         _______ _______ _______ _____ _____    ______ ____

>  <TORSDO>
F 13

$$$$
=
 OpenBabel10222416173D

 46 51  0  0  1  0  0  0  0  0999 V2000
  183.2280  178.2180  139.0900 C   0  0  1  0  0  3  0  0  0  0  0  0
  188.9230  177.4640  139.6860 C   0  0  0  0  0  3  0  0  0  0  0  0
  185.7850  175.6330  136.1870 S   0  0  0  0  0  0  0  0  0  0  0  0
  190.5670  176.5810  138.0140 C   0  0  0  0  0  0  0  0  0  0  0  0
  188.3010  176.3140  136.9220 C   0  0  0  0  0  0  0  0  0  0  0  0
  187.5180  177.0460  137.7030 C   0  0  0  0  0  0  0  0  0  0  0  0
  189.7780  176.3220  136.9580 C   0  0  0  0  0  3  0  0  0  0  0  0
  185.1950  177.7370  137.7600 C   0  0  0  0  0  0  0  0  0  0  0  0
  187.5880  175.5070  135.8800 C   0  0  2  0  0  3  0  0  0  0  0  0
  187.8810  175.9920  134.6220 F   0  0  0  0  0  0  0  0  0  0  0  0
  186.1030  176.8550  137.4380 C   0  0  0  0  0  0  0  0  0  0  0  0
  184.2680  178.5960  138.0820 C   0  0  0  0  0  3  0  0  0  0  0  0
  190.0580  176.8370  139.3840 C   0  0  0  0  0  3  0  0  0  0  0  0
  188.0320  178.0760  138.6600 C   0  0  0  0  0  2  0  0  0  0  0  0
  192.8090  176.7470  138.7680 O   0  0  0  0  0  1  0  0  0  0  0  0
  192.5480  176.1100  136.5870 O   0  0  0  0  0  0  0  0  0  0  0  0
  192.0240  176.4800  137.8230 C   0  0  0  0  0  0  0  0  0  0  0  0
  183.1270  176.6980  139.2850 C   0  0  0  0  0  2  0  0  0  0  0  0
  181.8760  175.7940  137.4390 N   0  0  0  0  0  2  0  0  0  0  0  0
  181.8840  176.0850  138.6900 C   0  0  0  0  0  0  0  0  0  0  0  0
  179.9600  174.4950  138.8940 C   0  0  0  0  0  1  0  0  0  0  0  0
  180.8320  175.5130  139.6000 C   0  0  0  0  0  3  0  0  0  0  0  0
  179.9440  176.6020  140.1760 C   0  0  0  0  0  1  0  0  0  0  0  0
  183.4570  178.9610  140.4040 C   0  0  0  0  0  2  0  0  0  0  0  0
  185.3640  179.8490  142.9360 C   0  0  0  0  0  2  0  0  0  0  0  0
  184.0530  177.8210  142.5620 C   0  0  0  0  0  2  0  0  0  0  0  0
  185.6500  179.3240  141.5390 C   0  0  0  0  0  2  0  0  0  0  0  0
  183.0410  179.7090  143.7990 C   0  0  0  0  0  1  0  0  0  0  0  0
  184.5740  178.3020  141.2160 C   0  0  2  0  0  3  0  0  0  0  0  0
  184.3170  178.9300  143.5570 C   0  0  2  0  0  0  0  0  0  0  0  0
  184.7880  178.3690  144.8600 C   0  0  0  0  0  3  0  0  0  0  0  0
  185.1960  179.1340  145.8090 N   0  0  0  0  0  0  0  0  0  0  0  0
  185.6450  178.5720  147.0540 C   0  0  0  0  0  2  0  0  0  0  0  0
  186.7790  177.5880  146.8130 C   0  0  1  0  0  3  0  0  0  0  0  0
  187.8490  178.2580  146.1900 O   0  0  0  0  0  0  0  0  0  0  0  0
  187.9770  178.0070  147.5680 C   0  0  2  0  0  3  0  0  0  0  0  0
  188.8850  176.8110  147.7810 C   0  0  0  0  0  2  0  0  0  0  0  0
  190.2770  177.2150  147.6280 N   0  0  0  0  0  2  0  0  0  0  0  0
  190.7420  176.2310  143.1240 C   0  0  0  0  0  2  0  0  0  0  0  0
  191.3670  176.7990  145.4810 C   0  0  2  0  0  0  0  0  0  0  0  0
  190.9180  176.2200  146.7760 C   0  0  1  0  0  3  0  0  0  0  0  0
  192.2670  176.5920  146.5390 O   0  0  0  0  0  0  0  0  0  0  0  0
  191.1320  178.2230  145.2400 N   0  0  0  0  0  2  0  0  0  0  0  0
  190.6570  177.7430  142.8740 C   0  0  0  0  0  2  0  0  0  0  0  0
  191.4830  178.5610  143.8660 C   0  0  0  0  0  2  0  0  0  0  0  0
  191.6280  175.8570  144.3070 C   0  0  0  0  0  2  0  0  0  0  0  0
  1 12  1  6  0  0  0
  1 18  1  0  0  0  0
  1 24  1  0  0  0  0
  3 11  1  0  0  0  0
  4 13  1  0  0  0  0
  5  7  1  0  0  0  0
  5  6  2  0  0  0  0
  6 14  1  0  0  0  0
  7  4  2  0  0  0  0
  8 12  2  0  0  0  0
  9 10  1  6  0  0  0
  9  3  1  0  0  0  0
  9  5  1  0  0  0  0
 11  6  1  0  0  0  0
 11  8  2  0  0  0  0
 13  2  2  0  0  0  0
 14  2  1  0  0  0  0
 16 17  2  0  0  0  0
 17  4  1  0  0  0  0
 17 15  1  0  0  0  0
 19 20  2  0  0  0  0
 20 18  1  0  0  0  0
 20 22  1  0  0  0  0
 21 22  1  0  0  0  0
 22 23  1  0  0  0  0
 25 30  1  0  0  0  0
 26 30  1  0  0  0  0
 27 25  1  0  0  0  0
 29 24  1  6  0  0  0
 29 27  1  0  0  0  0
 29 26  1  0  0  0  0
 30 28  1  1  0  0  0
 30 31  1  0  0  0  0
 31 32  2  0  0  0  0
 32 33  1  0  0  0  0
 34 33  1  1  0  0  0
 34 36  1  0  0  0  0
 35 34  1  0  0  0  0
 35 36  1  0  0  0  0
 36 37  1  6  0  0  0
 38 37  1  0  0  0  0
 39 46  1  0  0  0  0
 40 46  1  6  0  0  0
 40 42  1  0  0  0  0
 40 41  1  0  0  0  0
 41 38  1  1  0  0  0
 42 41  1  0  0  0  0
 43 40  1  0  0  0  0
 44 39  1  0  0  0  0
 44 45  1  0  0  0  0
 45 43  1  0  0  0  0
M  END
>  <MODEL>
5

>  <REMARK>
 VINA RESULT:      -7.8      4.145      9.209
  Name = 
  13 active torsions:
  status: ('A' for Active; 'I' for Inactive)
    1  A    between atoms: C_2  and  C_17
    2  A    between atoms: C_2  and  C_35
    3  A    between atoms: C_2  and  C_44
    4  A    between atoms: C_6  and  C_42
    5  A    between atoms: N_9  and  C_10
    6  A    between atoms: N_9  and  C_46
    7  A    between atoms: C_11  and  C_39
    8  A    between atoms: C_17  and  C_23
    9  A    between atoms: C_20  and  C_22
   10  A    between atoms: C_20  and  N_36
   11  A    between atoms: C_23  and  C_30
   12  A    between atoms: C_37  and  C_44
   13  A    between atoms: C_41  and  C_46
                            x       y       z     vdW  Elec       q    Type
                         _______ _______ _______ _____ _____    ______ ____

>  <TORSDO>
F 13

$$$$
=
 OpenBabel10222416173D

 46 51  0  0  1  0  0  0  0  0999 V2000
  189.5550  177.4670  138.0820 C   0  0  1  0  0  3  0  0  0  0  0  0
  185.3490  178.4490  141.9160 C   0  0  0  0  0  3  0  0  0  0  0  0
  189.8540  176.2790  142.5710 S   0  0  0  0  0  0  0  0  0  0  0  0
  185.4670  178.3870  144.4180 C   0  0  0  0  0  0  0  0  0  0  0  0
  187.7340  177.5930  143.6250 C   0  0  0  0  0  0  0  0  0  0  0  0
  187.7190  177.9180  142.3400 C   0  0  0  0  0  0  0  0  0  0  0  0
  186.7520  178.0560  144.6270 C   0  0  0  0  0  3  0  0  0  0  0  0
  189.2430  177.8310  140.4570 C   0  0  0  0  0  0  0  0  0  0  0  0
  188.9090  176.7710  144.0620 C   0  0  2  0  0  3  0  0  0  0  0  0
  189.7160  177.5070  144.9050 F   0  0  0  0  0  0  0  0  0  0  0  0
  188.8170  177.3360  141.5880 C   0  0  0  0  0  0  0  0  0  0  0  0
  189.6810  178.2990  139.3200 C   0  0  0  0  0  3  0  0  0  0  0  0
  184.7840  178.2610  143.1070 C   0  0  0  0  0  3  0  0  0  0  0  0
  186.7590  178.9000  141.7440 C   0  0  0  0  0  2  0  0  0  0  0  0
  183.4290  179.0020  145.4620 O   0  0  0  0  0  0  0  0  0  0  0  0
  185.2550  178.9200  146.8370 O   0  0  0  0  0  1  0  0  0  0  0  0
  184.6600  178.7760  145.5860 C   0  0  0  0  0  0  0  0  0  0  0  0
  189.7470  175.9690  138.3610 C   0  0  0  0  0  2  0  0  0  0  0  0
  191.1640  174.1840  137.5890 N   0  0  0  0  0  2  0  0  0  0  0  0
  191.0780  175.4260  137.9060 C   0  0  0  0  0  0  0  0  0  0  0  0
  193.0430  175.8130  136.4040 C   0  0  0  0  0  1  0  0  0  0  0  0
  192.1690  176.3800  137.5040 C   0  0  0  0  0  3  0  0  0  0  0  0
  193.0460  176.7510  138.6850 C   0  0  0  0  0  1  0  0  0  0  0  0
  188.2410  177.7640  137.3660 C   0  0  0  0  0  2  0  0  0  0  0  0
  185.0030  177.5030  136.8280 C   0  0  0  0  0  2  0  0  0  0  0  0
  186.7030  175.7850  137.1870 C   0  0  0  0  0  2  0  0  0  0  0  0
  185.8400  177.8790  138.0390 C   0  0  0  0  0  2  0  0  0  0  0  0
  186.1430  176.4730  134.8780 C   0  0  0  0  0  1  0  0  0  0  0  0
  187.0820  177.0040  138.0150 C   0  0  2  0  0  3  0  0  0  0  0  0
  185.5850  176.2120  136.2610 C   0  0  2  0  0  0  0  0  0  0  0  0
  184.5440  175.1430  136.1630 C   0  0  0  0  0  3  0  0  0  0  0  0
  184.3470  174.5000  135.0670 N   0  0  0  0  0  0  0  0  0  0  0  0
  183.3410  173.4760  134.9960 C   0  0  0  0  0  2  0  0  0  0  0  0
  181.9730  174.0920  134.7510 C   0  0  1  0  0  3  0  0  0  0  0  0
  181.0230  173.0660  134.5940 O   0  0  0  0  0  0  0  0  0  0  0  0
  181.0490  173.7170  135.8390 C   0  0  2  0  0  3  0  0  0  0  0  0
  179.9130  174.7200  135.9080 C   0  0  0  0  0  2  0  0  0  0  0  0
  179.8870  175.3460  137.2240 N   0  0  0  0  0  2  0  0  0  0  0  0
  181.1360  179.0540  139.7050 C   0  0  0  0  0  2  0  0  0  0  0  0
  181.2120  177.2640  137.9570 C   0  0  2  0  0  0  0  0  0  0  0  0
  180.1650  176.7640  137.0260 C   0  0  1  0  0  3  0  0  0  0  0  0
  181.5160  176.9340  136.6270 O   0  0  0  0  0  0  0  0  0  0  0  0
  181.8100  176.3170  138.8990 N   0  0  0  0  0  2  0  0  0  0  0  0
  181.9020  178.0820  140.6110 C   0  0  0  0  0  2  0  0  0  0  0  0
  182.6810  177.0240  139.8310 C   0  0  0  0  0  2  0  0  0  0  0  0
  181.3070  178.7650  138.2180 C   0  0  0  0  0  2  0  0  0  0  0  0
  1 24  1  1  0  0  0
  1 18  1  0  0  0  0
  1 12  1  0  0  0  0
  2 13  2  0  0  0  0
  3  9  1  0  0  0  0
  4  7  2  0  0  0  0
  4 17  1  0  0  0  0
  5  9  1  0  0  0  0
  5  7  1  0  0  0  0
  6  5  2  0  0  0  0
  8 11  2  0  0  0  0
  9 10  1  1  0  0  0
 11  6  1  0  0  0  0
 11  3  1  0  0  0  0
 12  8  2  0  0  0  0
 13  4  1  0  0  0  0
 14  2  1  0  0  0  0
 14  6  1  0  0  0  0
 15 17  2  0  0  0  0
 17 16  1  0  0  0  0
 19 20  2  0  0  0  0
 20 18  1  0  0  0  0
 21 22  1  0  0  0  0
 22 20  1  0  0  0  0
 22 23  1  0  0  0  0
 25 27  1  0  0  0  0
 26 29  1  0  0  0  0
 29 24  1  6  0  0  0
 29 27  1  0  0  0  0
 30 28  1  6  0  0  0
 30 25  1  0  0  0  0
 30 26  1  0  0  0  0
 31 30  1  0  0  0  0
 32 31  2  0  0  0  0
 33 32  1  0  0  0  0
 34 33  1  1  0  0  0
 34 36  1  0  0  0  0
 35 34  1  0  0  0  0
 35 36  1  0  0  0  0
 36 37  1  6  0  0  0
 37 38  1  0  0  0  0
 39 44  1  0  0  0  0
 40 46  1  1  0  0  0
 40 43  1  0  0  0  0
 41 38  1  1  0  0  0
 41 40  1  0  0  0  0
 42 41  1  0  0  0  0
 42 40  1  0  0  0  0
 43 45  1  0  0  0  0
 45 44  1  0  0  0  0
 46 39  1  0  0  0  0
M  END
>  <MODEL>
6

>  <REMARK>
 VINA RESULT:      -7.7      2.115      3.367
  Name = 
  13 active torsions:
  status: ('A' for Active; 'I' for Inactive)
    1  A    between atoms: C_2  and  C_17
    2  A    between atoms: C_2  and  C_35
    3  A    between atoms: C_2  and  C_44
    4  A    between atoms: C_6  and  C_42
    5  A    between atoms: N_9  and  C_10
    6  A    between atoms: N_9  and  C_46
    7  A    between atoms: C_11  and  C_39
    8  A    between atoms: C_17  and  C_23
    9  A    between atoms: C_20  and  C_22
   10  A    between atoms: C_20  and  N_36
   11  A    between atoms: C_23  and  C_30
   12  A    between atoms: C_37  and  C_44
   13  A    between atoms: C_41  and  C_46
                            x       y       z     vdW  Elec       q    Type
                         _______ _______ _______ _____ _____    ______ ____

>  <TORSDO>
F 13

$$$$
=
 OpenBabel10222416173D

 46 51  0  0  1  0  0  0  0  0999 V2000
  183.7170  178.3720  139.5040 C   0  0  1  0  0  3  0  0  0  0  0  0
  188.3220  177.7550  142.9330 C   0  0  0  0  0  3  0  0  0  0  0  0
  183.7170  179.5030  144.0170 S   0  0  0  0  0  0  0  0  0  0  0  0
  188.4250  177.7930  145.4360 C   0  0  0  0  0  0  0  0  0  0  0  0
  186.0330  178.3810  144.8600 C   0  0  0  0  0  0  0  0  0  0  0  0
  185.9610  178.0660  143.5740 C   0  0  0  0  0  0  0  0  0  0  0  0
  187.1390  178.0040  145.7640 C   0  0  0  0  0  3  0  0  0  0  0  0
  184.2720  178.0250  141.8360 C   0  0  0  0  0  0  0  0  0  0  0  0
  184.8330  179.0910  145.4110 C   0  0  2  0  0  3  0  0  0  0  0  0
  184.1740  178.2800  146.3120 F   0  0  0  0  0  0  0  0  0  0  0  0
  184.7520  178.5490  142.9310 C   0  0  0  0  0  0  0  0  0  0  0  0
  183.7780  177.5250  140.7360 C   0  0  0  0  0  3  0  0  0  0  0  0
  188.9720  177.9870  144.0720 C   0  0  0  0  0  3  0  0  0  0  0  0
  186.9490  177.1790  142.8820 C   0  0  0  0  0  2  0  0  0  0  0  0
  190.3570  176.7290  146.3060 O   0  0  0  0  0  0  0  0  0  0  0  0
  189.1560  177.9700  147.8060 O   0  0  0  0  0  1  0  0  0  0  0  0
  189.3660  177.4720  146.5230 C   0  0  0  0  0  0  0  0  0  0  0  0
  182.8790  179.6420  139.7060 C   0  0  0  0  0  2  0  0  0  0  0  0
  180.6530  178.7440  139.8850 N   0  0  0  0  0  2  0  0  0  0  0  0
  181.4500  179.5160  139.2380 C   0  0  0  0  0  0  0  0  0  0  0  0
  180.8650  179.9970  136.8520 C   0  0  0  0  0  1  0  0  0  0  0  0
  180.8960  180.5260  138.2710 C   0  0  0  0  0  3  0  0  0  0  0  0
  181.6960  181.8150  138.2960 C   0  0  0  0  0  1  0  0  0  0  0  0
  185.1210  178.6740  138.9880 C   0  0  0  0  0  2  0  0  0  0  0  0
  186.2010  177.3830  136.1590 C   0  0  0  0  0  2  0  0  0  0  0  0
  187.3150  177.6500  138.3170 C   0  0  0  0  0  2  0  0  0  0  0  0
  185.2790  176.8820  137.2580 C   0  0  0  0  0  2  0  0  0  0  0  0
  187.5690  179.4080  136.5950 C   0  0  0  0  0  1  0  0  0  0  0  0
  185.8400  177.3870  138.5770 C   0  0  2  0  0  3  0  0  0  0  0  0
  187.4600  177.9160  136.8340 C   0  0  2  0  0  0  0  0  0  0  0  0
  188.6880  177.2550  136.2970 C   0  0  0  0  0  3  0  0  0  0  0  0
  189.0310  176.0750  136.6730 N   0  0  0  0  0  0  0  0  0  0  0  0
  190.2170  175.4580  136.1420 C   0  0  0  0  0  2  0  0  0  0  0  0
  191.4600  176.1360  136.6960 C   0  0  1  0  0  3  0  0  0  0  0  0
  191.6560  175.7270  138.0280 O   0  0  0  0  0  0  0  0  0  0  0  0
  192.4690  175.1200  137.0550 C   0  0  2  0  0  3  0  0  0  0  0  0
  193.8450  175.7580  137.0770 C   0  0  0  0  0  2  0  0  0  0  0  0
  194.5880  175.2890  138.2390 N   0  0  0  0  0  2  0  0  0  0  0  0
  198.1640  172.9520  136.4470 C   0  0  0  0  0  2  0  0  0  0  0  0
  196.4480  173.7110  138.1040 C   0  0  2  0  0  0  0  0  0  0  0  0
  194.9810  173.9110  137.9660 C   0  0  1  0  0  3  0  0  0  0  0  0
  195.5620  173.3420  139.1280 O   0  0  0  0  0  0  0  0  0  0  0  0
  197.2720  174.8580  138.4880 N   0  0  0  0  0  2  0  0  0  0  0  0
  199.0580  174.0760  136.9880 C   0  0  0  0  0  2  0  0  0  0  0  0
  198.6850  174.5080  138.4050 C   0  0  0  0  0  2  0  0  0  0  0  0
  197.0900  172.5000  137.4300 C   0  0  0  0  0  2  0  0  0  0  0  0
  1 24  1  1  0  0  0
  1 18  1  0  0  0  0
  1 12  1  0  0  0  0
  2 13  2  0  0  0  0
  3  9  1  0  0  0  0
  4  7  2  0  0  0  0
  4 17  1  0  0  0  0
  5  9  1  0  0  0  0
  5  7  1  0  0  0  0
  6  5  2  0  0  0  0
  8 11  2  0  0  0  0
  9 10  1  1  0  0  0
 11  6  1  0  0  0  0
 11  3  1  0  0  0  0
 12  8  2  0  0  0  0
 13  4  1  0  0  0  0
 14  2  1  0  0  0  0
 14  6  1  0  0  0  0
 15 17  2  0  0  0  0
 17 16  1  0  0  0  0
 20 18  1  0  0  0  0
 20 19  2  0  0  0  0
 21 22  1  0  0  0  0
 22 23  1  0  0  0  0
 22 20  1  0  0  0  0
 25 30  1  0  0  0  0
 25 27  1  0  0  0  0
 26 29  1  0  0  0  0
 27 29  1  0  0  0  0
 29 24  1  6  0  0  0
 30 28  1  6  0  0  0
 30 26  1  0  0  0  0
 31 32  2  0  0  0  0
 31 30  1  0  0  0  0
 33 32  1  0  0  0  0
 34 33  1  6  0  0  0
 34 36  1  0  0  0  0
 34 35  1  0  0  0  0
 36 37  1  1  0  0  0
 36 35  1  0  0  0  0
 37 38  1  0  0  0  0
 39 44  1  0  0  0  0
 39 46  1  0  0  0  0
 40 46  1  6  0  0  0
 40 43  1  0  0  0  0
 40 42  1  0  0  0  0
 41 40  1  0  0  0  0
 41 38  1  1  0  0  0
 41 42  1  0  0  0  0
 44 45  1  0  0  0  0
 45 43  1  0  0  0  0
M  END
>  <MODEL>
7

>  <REMARK>
 VINA RESULT:      -7.6      3.858      9.710
  Name = 
  13 active torsions:
  status: ('A' for Active; 'I' for Inactive)
    1  A    between atoms: C_2  and  C_17
    2  A    between atoms: C_2  and  C_35
    3  A    between atoms: C_2  and  C_44
    4  A    between atoms: C_6  and  C_42
    5  A    between atoms: N_9  and  C_10
    6  A    between atoms: N_9  and  C_46
    7  A    between atoms: C_11  and  C_39
    8  A    between atoms: C_17  and  C_23
    9  A    between atoms: C_20  and  C_22
   10  A    between atoms: C_20  and  N_36
   11  A    between atoms: C_23  and  C_30
   12  A    between atoms: C_37  and  C_44
   13  A    between atoms: C_41  and  C_46
                            x       y       z     vdW  Elec       q    Type
                         _______ _______ _______ _____ _____    ______ ____

>  <TORSDO>
F 13

$$$$
=
 OpenBabel10222416173D

 46 51  0  0  1  0  0  0  0  0999 V2000
  188.7300  177.1280  144.3680 C   0  0  1  0  0  3  0  0  0  0  0  0
  187.5280  177.9010  138.7720 C   0  0  0  0  0  3  0  0  0  0  0  0
  191.9950  177.4360  141.0690 S   0  0  0  0  0  0  0  0  0  0  0  0
  189.0300  177.5830  136.7920 C   0  0  0  0  0  0  0  0  0  0  0  0
  190.5120  177.2330  138.8120 C   0  0  0  0  0  0  0  0  0  0  0  0
  189.6320  177.1230  139.7980 C   0  0  0  0  0  0  0  0  0  0  0  0
  190.1790  177.2000  137.3730 C   0  0  0  0  0  3  0  0  0  0  0  0
  189.6650  176.6740  142.1800 C   0  0  0  0  0  0  0  0  0  0  0  0
  191.9460  177.2990  139.2420 C   0  0  2  0  0  3  0  0  0  0  0  0
  192.6140  176.1600  138.8420 F   0  0  0  0  0  0  0  0  0  0  0  0
  190.2390  177.1690  141.1170 C   0  0  0  0  0  0  0  0  0  0  0  0
  189.1070  176.1960  143.2590 C   0  0  0  0  0  3  0  0  0  0  0  0
  187.8960  178.1950  137.5270 C   0  0  0  0  0  3  0  0  0  0  0  0
  188.1790  176.8330  139.5830 C   0  0  0  0  0  2  0  0  0  0  0  0
  187.9640  178.0050  134.7170 O   0  0  0  0  0  1  0  0  0  0  0  0
  189.9380  176.8570  134.5940 O   0  0  0  0  0  0  0  0  0  0  0  0
  188.9440  177.5040  135.3240 C   0  0  0  0  0  0  0  0  0  0  0  0
  189.9550  177.7270  145.0730 C   0  0  0  0  0  2  0  0  0  0  0  0
  191.1670  176.8480  146.9560 N   0  0  0  0  0  2  0  0  0  0  0  0
  190.0670  177.3560  146.5310 C   0  0  0  0  0  0  0  0  0  0  0  0
  189.6940  178.2660  148.8330 C   0  0  0  0  0  1  0  0  0  0  0  0
  189.0580  177.8890  147.5110 C   0  0  0  0  0  3  0  0  0  0  0  0
  187.9500  176.8860  147.7680 C   0  0  0  0  0  1  0  0  0  0  0  0
  187.7630  178.1970  143.8670 C   0  0  0  0  0  2  0  0  0  0  0  0
  184.8420  179.7080  143.6930 C   0  0  0  0  0  2  0  0  0  0  0  0
  185.5370  177.4890  142.9400 C   0  0  0  0  0  2  0  0  0  0  0  0
  185.6040  179.0190  144.8130 C   0  0  0  0  0  2  0  0  0  0  0  0
  185.6300  179.3910  141.3600 C   0  0  0  0  0  1  0  0  0  0  0  0
  186.3170  177.8250  144.2020 C   0  0  2  0  0  3  0  0  0  0  0  0
  184.8500  178.7630  142.4960 C   0  0  2  0  0  0  0  0  0  0  0  0
  183.4610  178.4750  142.0210 C   0  0  0  0  0  3  0  0  0  0  0  0
  183.2270  178.1500  140.8000 N   0  0  0  0  0  0  0  0  0  0  0  0
  181.8830  177.8780  140.3660 C   0  0  0  0  0  2  0  0  0  0  0  0
  181.8950  177.1030  139.0580 C   0  0  1  0  0  3  0  0  0  0  0  0
  182.9300  176.1490  139.0940 O   0  0  0  0  0  0  0  0  0  0  0  0
  181.6250  175.6750  139.3160 C   0  0  2  0  0  3  0  0  0  0  0  0
  181.1030  175.0210  138.0510 C   0  0  0  0  0  2  0  0  0  0  0  0
  181.9500  173.8900  137.6950 N   0  0  0  0  0  2  0  0  0  0  0  0
  186.0160  175.2820  135.9650 C   0  0  0  0  0  2  0  0  0  0  0  0
  183.9990  173.8540  136.3640 C   0  0  2  0  0  0  0  0  0  0  0  0
  182.5520  174.1990  136.4030 C   0  0  1  0  0  3  0  0  0  0  0  0
  183.0310  173.0060  135.8020 O   0  0  0  0  0  0  0  0  0  0  0  0
  184.6040  173.2680  137.5610 N   0  0  0  0  0  2  0  0  0  0  0  0
  186.6710  174.5310  137.1320 C   0  0  0  0  0  2  0  0  0  0  0  0
  186.0470  173.1600  137.3880 C   0  0  0  0  0  2  0  0  0  0  0  0
  184.8810  174.5090  135.3030 C   0  0  0  0  0  2  0  0  0  0  0  0
  1 12  1  6  0  0  0
  1 18  1  0  0  0  0
  2 14  1  0  0  0  0
  3 11  1  0  0  0  0
  4  7  2  0  0  0  0
  4 13  1  0  0  0  0
  5  9  1  0  0  0  0
  5  6  2  0  0  0  0
  6 11  1  0  0  0  0
  7  5  1  0  0  0  0
  8 12  2  0  0  0  0
  9 10  1  1  0  0  0
  9  3  1  0  0  0  0
 11  8  2  0  0  0  0
 13  2  2  0  0  0  0
 14  6  1  0  0  0  0
 15 17  1  0  0  0  0
 16 17  2  0  0  0  0
 17  4  1  0  0  0  0
 18 20  1  0  0  0  0
 20 19  2  0  0  0  0
 20 22  1  0  0  0  0
 22 23  1  0  0  0  0
 22 21  1  0  0  0  0
 24  1  1  0  0  0  0
 25 27  1  0  0  0  0
 26 29  1  0  0  0  0
 29 24  1  6  0  0  0
 29 27  1  0  0  0  0
 30 28  1  6  0  0  0
 30 26  1  0  0  0  0
 30 25  1  0  0  0  0
 31 30  1  0  0  0  0
 32 31  2  0  0  0  0
 33 32  1  0  0  0  0
 34 35  1  0  0  0  0
 34 36  1  0  0  0  0
 34 33  1  1  0  0  0
 35 36  1  0  0  0  0
 36 37  1  6  0  0  0
 38 37  1  0  0  0  0
 39 44  1  0  0  0  0
 40 46  1  6  0  0  0
 40 41  1  0  0  0  0
 40 43  1  0  0  0  0
 41 38  1  1  0  0  0
 42 40  1  0  0  0  0
 42 41  1  0  0  0  0
 44 45  1  0  0  0  0
 45 43  1  0  0  0  0
 46 39  1  0  0  0  0
M  END
>  <MODEL>
8

>  <REMARK>
 VINA RESULT:      -7.6      3.395      7.519
  Name = 
  13 active torsions:
  status: ('A' for Active; 'I' for Inactive)
    1  A    between atoms: C_2  and  C_17
    2  A    between atoms: C_2  and  C_35
    3  A    between atoms: C_2  and  C_44
    4  A    between atoms: C_6  and  C_42
    5  A    between atoms: N_9  and  C_10
    6  A    between atoms: N_9  and  C_46
    7  A    between atoms: C_11  and  C_39
    8  A    between atoms: C_17  and  C_23
    9  A    between atoms: C_20  and  C_22
   10  A    between atoms: C_20  and  N_36
   11  A    between atoms: C_23  and  C_30
   12  A    between atoms: C_37  and  C_44
   13  A    between atoms: C_41  and  C_46
                            x       y       z     vdW  Elec       q    Type
                         _______ _______ _______ _____ _____    ______ ____

>  <TORSDO>
F 13

$$$$
=
 OpenBabel10222416173D

 46 51  0  0  1  0  0  0  0  0999 V2000
  185.8900  177.7600  136.0160 C   0  0  1  0  0  3  0  0  0  0  0  0
  188.0820  178.1540  141.3450 C   0  0  0  0  0  3  0  0  0  0  0  0
  189.8640  175.7140  137.3070 S   0  0  0  0  0  0  0  0  0  0  0  0
  190.3980  177.6030  142.1280 C   0  0  0  0  0  0  0  0  0  0  0  0
  190.3280  176.8850  139.7040 C   0  0  0  0  0  0  0  0  0  0  0  0
  189.2120  177.4530  139.2680 C   0  0  0  0  0  0  0  0  0  0  0  0
  190.9830  177.1860  140.9930 C   0  0  0  0  0  3  0  0  0  0  0  0
  188.0190  177.6690  137.1690 C   0  0  0  0  0  0  0  0  0  0  0  0
  190.9850  175.9460  138.7380 C   0  0  2  0  0  3  0  0  0  0  0  0
  192.1870  176.4710  138.3090 F   0  0  0  0  0  0  0  0  0  0  0  0
  188.8040  176.9830  137.9560 C   0  0  0  0  0  0  0  0  0  0  0  0
  187.2280  178.3300  136.3680 C   0  0  0  0  0  3  0  0  0  0  0  0
  188.9320  177.7620  142.2920 C   0  0  0  0  0  3  0  0  0  0  0  0
  188.5170  178.5710  139.9820 C   0  0  0  0  0  2  0  0  0  0  0  0
  191.5040  178.9490  143.7360 O   0  0  0  0  0  0  0  0  0  0  0  0
  191.8090  176.6940  143.9620 O   0  0  0  0  0  1  0  0  0  0  0  0
  191.2530  177.7930  143.3120 C   0  0  0  0  0  0  0  0  0  0  0  0
  185.9700  176.7370  134.8740 C   0  0  0  0  0  2  0  0  0  0  0  0
  183.9030  175.5060  134.8990 N   0  0  0  0  0  2  0  0  0  0  0  0
  185.1680  175.4820  135.1160 C   0  0  0  0  0  0  0  0  0  0  0  0
  185.6700  173.5550  136.6330 C   0  0  0  0  0  1  0  0  0  0  0  0
  185.8800  174.1650  135.2620 C   0  0  0  0  0  3  0  0  0  0  0  0
  187.3700  174.3080  135.0140 C   0  0  0  0  0  1  0  0  0  0  0  0
  185.2020  177.1970  137.2570 C   0  0  0  0  0  2  0  0  0  0  0  0
  182.0520  177.8440  137.9630 C   0  0  0  0  0  2  0  0  0  0  0  0
  184.0330  177.8190  139.3930 C   0  0  0  0  0  2  0  0  0  0  0  0
  183.1610  178.6330  137.2880 C   0  0  0  0  0  2  0  0  0  0  0  0
  182.6560  175.7740  139.1930 C   0  0  0  0  0  1  0  0  0  0  0  0
  184.4540  178.2990  138.0120 C   0  0  2  0  0  3  0  0  0  0  0  0
  182.6230  177.2860  139.2630 C   0  0  2  0  0  0  0  0  0  0  0  0
  181.7950  177.6930  140.4400 C   0  0  0  0  0  3  0  0  0  0  0  0
  182.3260  178.2410  141.4740 N   0  0  0  0  0  0  0  0  0  0  0  0
  181.5100  178.6240  142.5940 C   0  0  0  0  0  2  0  0  0  0  0  0
  182.3270  179.4220  143.5970 C   0  0  1  0  0  3  0  0  0  0  0  0
  182.5260  178.6460  144.7550 O   0  0  0  0  0  0  0  0  0  0  0  0
  183.6080  178.7380  143.8610 C   0  0  2  0  0  3  0  0  0  0  0  0
  184.6170  179.7390  144.3910 C   0  0  0  0  0  2  0  0  0  0  0  0
  185.2730  179.1980  145.5750 N   0  0  0  0  0  2  0  0  0  0  0  0
  189.5980  177.8960  146.6080 C   0  0  0  0  0  2  0  0  0  0  0  0
  187.1290  177.7460  146.2210 C   0  0  2  0  0  0  0  0  0  0  0  0
  186.2830  178.2550  145.1080 C   0  0  1  0  0  3  0  0  0  0  0  0
  186.0650  176.9880  145.7080 O   0  0  0  0  0  0  0  0  0  0  0  0
  186.8510  178.2220  147.5770 N   0  0  0  0  0  2  0  0  0  0  0  0
  189.2620  178.2430  148.0640 C   0  0  0  0  0  2  0  0  0  0  0  0
  187.8810  177.7490  148.4930 C   0  0  0  0  0  2  0  0  0  0  0  0
  188.4890  177.1350  145.8900 C   0  0  0  0  0  2  0  0  0  0  0  0
  1 18  1  6  0  0  0
  1 12  1  0  0  0  0
  1 24  1  0  0  0  0
  2 13  2  0  0  0  0
  3 11  1  0  0  0  0
  3  9  1  0  0  0  0
  4 13  1  0  0  0  0
  4 17  1  0  0  0  0
  5  7  1  0  0  0  0
  6  5  2  0  0  0  0
  6 14  1  0  0  0  0
  7  4  2  0  0  0  0
  8 11  2  0  0  0  0
  9 10  1  6  0  0  0
  9  5  1  0  0  0  0
 11  6  1  0  0  0  0
 12  8  2  0  0  0  0
 14  2  1  0  0  0  0
 17 15  2  0  0  0  0
 17 16  1  0  0  0  0
 18 20  1  0  0  0  0
 19 20  2  0  0  0  0
 20 22  1  0  0  0  0
 22 21  1  0  0  0  0
 23 22  1  0  0  0  0
 25 30  1  0  0  0  0
 27 25  1  0  0  0  0
 27 29  1  0  0  0  0
 29 24  1  6  0  0  0
 29 26  1  0  0  0  0
 30 28  1  6  0  0  0
 30 26  1  0  0  0  0
 30 31  1  0  0  0  0
 31 32  2  0  0  0  0
 32 33  1  0  0  0  0
 34 33  1  6  0  0  0
 34 36  1  0  0  0  0
 34 35  1  0  0  0  0
 36 37  1  1  0  0  0
 36 35  1  0  0  0  0
 37 38  1  0  0  0  0
 39 44  1  0  0  0  0
 40 46  1  6  0  0  0
 40 43  1  0  0  0  0
 41 38  1  1  0  0  0
 41 42  1  0  0  0  0
 41 40  1  0  0  0  0
 42 40  1  0  0  0  0
 43 45  1  0  0  0  0
 44 45  1  0  0  0  0
 46 39  1  0  0  0  0
M  END
>  <MODEL>
9

>  <REMARK>
 VINA RESULT:      -7.6      2.645      5.564
  Name = 
  13 active torsions:
  status: ('A' for Active; 'I' for Inactive)
    1  A    between atoms: C_2  and  C_17
    2  A    between atoms: C_2  and  C_35
    3  A    between atoms: C_2  and  C_44
    4  A    between atoms: C_6  and  C_42
    5  A    between atoms: N_9  and  C_10
    6  A    between atoms: N_9  and  C_46
    7  A    between atoms: C_11  and  C_39
    8  A    between atoms: C_17  and  C_23
    9  A    between atoms: C_20  and  C_22
   10  A    between atoms: C_20  and  N_36
   11  A    between atoms: C_23  and  C_30
   12  A    between atoms: C_37  and  C_44
   13  A    between atoms: C_41  and  C_46
                            x       y       z     vdW  Elec       q    Type
                         _______ _______ _______ _____ _____    ______ ____

>  <TORSDO>
F 13

$$$$
