=
 OpenBabel10222417223D

 43 46  0  0  1  0  0  0  0  0999 V2000
  187.0190  178.3430  141.7510 C   0  0  2  0  0  3  0  0  0  0  0  0
  184.0610  178.9200  143.1020 O   0  0  0  0  0  1  0  0  0  0  0  0
  182.8320  177.1870  138.9020 N   0  0  0  0  0  0  0  0  0  0  0  0
  182.9250  177.1370  140.3570 C   0  0  0  0  0  2  0  0  0  0  0  0
  185.5030  179.0890  139.8660 C   0  0  0  0  0  2  0  0  0  0  0  0
  185.6880  179.0080  141.3610 C   0  0  1  0  0  3  0  0  0  0  0  0
  183.3680  178.4920  140.8580 C   0  0  2  0  0  3  0  0  0  0  0  0
  184.0040  179.1660  139.6670 C   0  0  2  0  0  3  0  0  0  0  0  0
  184.4520  178.3150  141.9090 C   0  0  2  0  0  3  0  0  0  0  0  0
  183.6030  178.3460  138.4610 C   0  0  0  0  0  2  0  0  0  0  0  0
  183.4770  176.0910  138.4310 O   0  0  0  0  0  0  0  0  0  0  0  0
  182.4840  175.1160  138.2770 C   0  0  0  0  0  2  0  0  0  0  0  0
  182.9020  174.1280  137.2040 C   0  0  0  0  0  2  0  0  0  0  0  0
  181.7830  173.4550  136.7170 O   0  0  0  0  0  0  0  0  0  0  0  0
  182.0340  172.1120  136.9970 C   0  0  0  0  0  2  0  0  0  0  0  0
  183.5270  171.8570  136.9460 C   0  0  0  0  0  1  0  0  0  0  0  0
  187.6730  177.5160  140.6420 C   0  0  0  0  0  2  0  0  0  0  0  0
  189.0490  177.9970  140.3050 C   0  0  0  0  0  0  0  0  0  0  0  0
  189.9600  177.9030  141.1670 O   0  0  0  0  0  0  0  0  0  0  0  0
  189.3510  178.5620  139.0270 N   0  0  0  0  0  2  0  0  0  0  0  0
  188.3560  178.8170  138.0710 N   0  0  0  0  0  2  0  0  0  0  0  0
  188.9750  178.7020  136.7550 C   0  0  0  0  0  2  0  0  0  0  0  0
  186.8750  176.8940  136.5850 S   0  0  0  0  0  0  0  0  0  0  0  0
  187.4850  175.2430  136.8480 C   0  0  0  0  0  0  0  0  0  0  0  0
  186.5610  174.1350  137.2360 C   0  0  0  0  0  1  0  0  0  0  0  0
  189.5470  176.2930  136.2690 C   0  0  0  0  0  2  0  0  0  0  0  0
  188.7910  175.0790  136.6740 C   0  0  0  0  0  0  0  0  0  0  0  0
  188.5410  177.4180  136.0480 C   0  0  2  0  0  3  0  0  0  0  0  0
  189.4900  173.7840  136.9030 C   0  0  0  0  0  1  0  0  0  0  0  0
  186.8180  177.4970  142.9180 N   0  0  0  0  0  2  0  0  0  0  0  0
  188.0630  177.7200  146.4410 C   0  0  0  0  0  0  0  0  0  0  0  0
  189.4240  177.4650  146.2550 C   0  0  0  0  0  3  0  0  0  0  0  0
  187.7030  177.4880  144.0440 C   0  0  0  0  0  0  0  0  0  0  0  0
  185.8040  177.9900  145.5110 N   0  0  0  0  0  1  0  0  0  0  0  0
  187.1940  177.7290  145.3330 C   0  0  0  0  0  0  0  0  0  0  0  0
  189.0720  177.2420  143.8750 C   0  0  0  0  0  3  0  0  0  0  0  0
  189.9390  177.2260  144.9730 C   0  0  0  0  0  0  0  0  0  0  0  0
  191.5780  175.7910  144.0700 F   0  0  0  0  0  0  0  0  0  0  0  0
  192.0000  176.8060  146.0380 F   0  0  0  0  0  0  0  0  0  0  0  0
  191.4070  176.9550  144.7970 C   0  0  0  0  0  0  0  0  0  0  0  0
  192.0290  177.9960  144.1270 F   0  0  0  0  0  0  0  0  0  0  0  0
  188.7100  178.2720  148.7630 C   0  0  0  0  0  1  0  0  0  0  0  0
  187.5560  177.9600  147.8260 C   0  0  0  0  0  2  0  0  0  0  0  0
  1 17  1  6  0  0  0
  1 30  1  0  0  0  0
  3  4  1  0  0  0  0
  5  6  1  0  0  0  0
  6  1  1  6  0  0  0
  6  9  1  0  0  0  0
  7  4  1  6  0  0  0
  7  9  1  0  0  0  0
  8 10  1  6  0  0  0
  8  5  1  0  0  0  0
  8  7  1  0  0  0  0
  9  2  1  1  0  0  0
 10  3  1  0  0  0  0
 11  3  1  0  0  0  0
 12 11  1  0  0  0  0
 13 12  1  0  0  0  0
 14 15  1  0  0  0  0
 14 13  1  0  0  0  0
 16 15  1  0  0  0  0
 18 17  1  0  0  0  0
 18 19  2  0  0  0  0
 20 18  1  0  0  0  0
 21 20  1  0  0  0  0
 22 21  1  0  0  0  0
 23 24  1  0  0  0  0
 24 25  1  0  0  0  0
 26 27  1  0  0  0  0
 27 24  2  0  0  0  0
 27 29  1  0  0  0  0
 28 26  1  0  0  0  0
 28 23  1  0  0  0  0
 28 22  1  1  0  0  0
 30 33  1  0  0  0  0
 31 43  1  0  0  0  0
 32 31  1  0  0  0  0
 33 35  1  0  0  0  0
 35 34  1  0  0  0  0
 35 31  2  0  0  0  0
 36 33  2  0  0  0  0
 36 37  1  0  0  0  0
 37 32  2  0  0  0  0
 38 40  1  0  0  0  0
 40 37  1  0  0  0  0
 40 39  1  0  0  0  0
 41 40  1  0  0  0  0
 43 42  1  0  0  0  0
M  END
>  <MODEL>
1

>  <REMARK>
 VINA RESULT:      -7.8      0.000      0.000
  Name = 
  15 active torsions:
  status: ('A' for Active; 'I' for Inactive)
    1  A    between atoms: O_3  and  C_7
    2  A    between atoms: O_3  and  C_29
    3  A    between atoms: C_4  and  C_30
    4  A    between atoms: C_7  and  C_31
    5  A    between atoms: N_8  and  O_20
    6  A    between atoms: C_11  and  C_19
    7  A    between atoms: C_11  and  C_38
    8  A    between atoms: C_11  and  N_41
    9  A    between atoms: C_12  and  N_41
   10  A    between atoms: C_14  and  C_38
   11  A    between atoms: C_16  and  C_24
   12  A    between atoms: C_16  and  N_28
   13  A    between atoms: O_20  and  C_31
   14  A    between atoms: N_28  and  N_42
   15  A    between atoms: C_39  and  C_43
                            x       y       z     vdW  Elec       q    Type
                         _______ _______ _______ _____ _____    ______ ____

>  <TORSDO>
F 15

$$$$
=
 OpenBabel10222417223D

 43 46  0  0  1  0  0  0  0  0999 V2000
  187.7040  177.8680  139.9300 C   0  0  2  0  0  3  0  0  0  0  0  0
  190.4380  176.0260  139.7440 O   0  0  0  0  0  1  0  0  0  0  0  0
  190.2430  176.9190  144.3610 N   0  0  0  0  0  0  0  0  0  0  0  0
  190.1790  176.0400  143.1990 C   0  0  0  0  0  2  0  0  0  0  0  0
  189.3080  178.7900  141.6580 C   0  0  0  0  0  2  0  0  0  0  0  0
  189.1530  177.9090  140.4430 C   0  0  1  0  0  3  0  0  0  0  0  0
  190.6660  176.8030  141.9900 C   0  0  2  0  0  3  0  0  0  0  0  0
  190.5390  178.2600  142.3640 C   0  0  2  0  0  3  0  0  0  0  0  0
  189.7270  176.5540  140.8200 C   0  0  2  0  0  3  0  0  0  0  0  0
  190.3250  178.2880  143.8610 C   0  0  0  0  0  2  0  0  0  0  0  0
  189.0520  176.8100  145.0000 O   0  0  0  0  0  0  0  0  0  0  0  0
  189.2110  177.5120  146.2000 C   0  0  0  0  0  2  0  0  0  0  0  0
  190.0070  176.6730  147.1810 C   0  0  0  0  0  2  0  0  0  0  0  0
  191.2790  177.2180  147.3490 O   0  0  0  0  0  0  0  0  0  0  0  0
  192.0670  176.1470  147.7700 C   0  0  0  0  0  2  0  0  0  0  0  0
  192.3930  175.2650  146.5810 C   0  0  0  0  0  1  0  0  0  0  0  0
  187.5620  177.8150  138.4080 C   0  0  0  0  0  2  0  0  0  0  0  0
  188.7380  178.4120  137.7020 C   0  0  0  0  0  0  0  0  0  0  0  0
  188.9840  179.6370  137.8470 O   0  0  0  0  0  0  0  0  0  0  0  0
  189.5870  177.6230  136.8640 N   0  0  0  0  0  2  0  0  0  0  0  0
  189.2940  176.2870  136.5540 N   0  0  0  0  0  2  0  0  0  0  0  0
  188.8500  176.2470  135.1660 C   0  0  0  0  0  2  0  0  0  0  0  0
  186.0900  176.5120  135.2910 S   0  0  0  0  0  0  0  0  0  0  0  0
  185.4220  175.2970  136.4080 C   0  0  0  0  0  0  0  0  0  0  0  0
  184.0620  175.4630  136.9990 C   0  0  0  0  0  1  0  0  0  0  0  0
  187.5230  174.2560  135.9670 C   0  0  0  0  0  2  0  0  0  0  0  0
  186.2100  174.2590  136.6640 C   0  0  0  0  0  0  0  0  0  0  0  0
  187.5530  175.4520  135.0200 C   0  0  2  0  0  3  0  0  0  0  0  0
  185.8460  173.1720  137.6150 C   0  0  0  0  0  1  0  0  0  0  0  0
  186.9750  179.0220  140.4350 N   0  0  0  0  0  2  0  0  0  0  0  0
  183.3820  178.8140  141.4620 C   0  0  0  0  0  0  0  0  0  0  0  0
  183.5110  178.7050  142.8490 C   0  0  0  0  0  3  0  0  0  0  0  0
  185.8050  178.9170  141.2540 C   0  0  0  0  0  0  0  0  0  0  0  0
  184.4120  179.0310  139.2410 N   0  0  0  0  0  1  0  0  0  0  0  0
  184.5320  178.9170  140.6570 C   0  0  0  0  0  0  0  0  0  0  0  0
  185.9170  178.8150  142.6480 C   0  0  0  0  0  3  0  0  0  0  0  0
  184.7760  178.7060  143.4520 C   0  0  0  0  0  0  0  0  0  0  0  0
  185.5690  177.4280  145.2680 F   0  0  0  0  0  0  0  0  0  0  0  0
  183.6260  178.5450  145.5030 F   0  0  0  0  0  0  0  0  0  0  0  0
  184.8910  178.5900  144.9460 C   0  0  0  0  0  0  0  0  0  0  0  0
  185.5760  179.6690  145.4800 F   0  0  0  0  0  0  0  0  0  0  0  0
  181.6810  177.4090  140.3420 C   0  0  0  0  0  1  0  0  0  0  0  0
  182.0140  178.7980  140.8610 C   0  0  0  0  0  2  0  0  0  0  0  0
  1 17  1  6  0  0  0
  1 30  1  0  0  0  0
  3 11  1  0  0  0  0
  4  3  1  0  0  0  0
  6  1  1  1  0  0  0
  6  9  1  0  0  0  0
  6  5  1  0  0  0  0
  7  8  1  0  0  0  0
  7  4  1  1  0  0  0
  8  5  1  6  0  0  0
  8 10  1  0  0  0  0
  9  2  1  6  0  0  0
  9  7  1  0  0  0  0
 10  3  1  0  0  0  0
 11 12  1  0  0  0  0
 12 13  1  0  0  0  0
 13 14  1  0  0  0  0
 14 15  1  0  0  0  0
 16 15  1  0  0  0  0
 18 19  2  0  0  0  0
 18 17  1  0  0  0  0
 20 18  1  0  0  0  0
 21 20  1  0  0  0  0
 22 21  1  0  0  0  0
 23 24  1  0  0  0  0
 24 27  2  0  0  0  0
 24 25  1  0  0  0  0
 26 27  1  0  0  0  0
 27 29  1  0  0  0  0
 28 22  1  1  0  0  0
 28 23  1  0  0  0  0
 28 26  1  0  0  0  0
 30 33  1  0  0  0  0
 31 32  1  0  0  0  0
 32 37  2  0  0  0  0
 33 36  2  0  0  0  0
 34 35  1  0  0  0  0
 35 33  1  0  0  0  0
 35 31  2  0  0  0  0
 36 37  1  0  0  0  0
 37 40  1  0  0  0  0
 40 38  1  0  0  0  0
 40 41  1  0  0  0  0
 40 39  1  0  0  0  0
 42 43  1  0  0  0  0
 43 31  1  0  0  0  0
M  END
>  <MODEL>
2

>  <REMARK>
 VINA RESULT:      -7.8      3.208      7.119
  Name = 
  15 active torsions:
  status: ('A' for Active; 'I' for Inactive)
    1  A    between atoms: O_3  and  C_7
    2  A    between atoms: O_3  and  C_29
    3  A    between atoms: C_4  and  C_30
    4  A    between atoms: C_7  and  C_31
    5  A    between atoms: N_8  and  O_20
    6  A    between atoms: C_11  and  C_19
    7  A    between atoms: C_11  and  C_38
    8  A    between atoms: C_11  and  N_41
    9  A    between atoms: C_12  and  N_41
   10  A    between atoms: C_14  and  C_38
   11  A    between atoms: C_16  and  C_24
   12  A    between atoms: C_16  and  N_28
   13  A    between atoms: O_20  and  C_31
   14  A    between atoms: N_28  and  N_42
   15  A    between atoms: C_39  and  C_43
                            x       y       z     vdW  Elec       q    Type
                         _______ _______ _______ _____ _____    ______ ____

>  <TORSDO>
F 15

$$$$
=
 OpenBabel10222417223D

 43 46  0  0  1  0  0  0  0  0999 V2000
  187.8760  177.6960  139.7500 C   0  0  2  0  0  3  0  0  0  0  0  0
  190.7340  176.0440  139.8640 O   0  0  0  0  0  1  0  0  0  0  0  0
  189.9960  176.9220  144.4280 N   0  0  0  0  0  0  0  0  0  0  0  0
  190.1140  176.0410  143.2720 C   0  0  0  0  0  2  0  0  0  0  0  0
  189.2240  178.7250  141.6300 C   0  0  0  0  0  2  0  0  0  0  0  0
  189.2580  177.8350  140.4110 C   0  0  1  0  0  3  0  0  0  0  0  0
  190.6720  176.8360  142.1150 C   0  0  2  0  0  3  0  0  0  0  0  0
  190.4070  178.2800  142.4640 C   0  0  2  0  0  3  0  0  0  0  0  0
  189.8800  176.5230  140.8560 C   0  0  2  0  0  3  0  0  0  0  0  0
  190.0370  178.2940  143.9300 C   0  0  0  0  0  2  0  0  0  0  0  0
  188.7550  176.7320  144.9400 O   0  0  0  0  0  0  0  0  0  0  0  0
  188.7160  177.4980  146.1110 C   0  0  0  0  0  2  0  0  0  0  0  0
  189.2230  176.6720  147.2780 C   0  0  0  0  0  2  0  0  0  0  0  0
  190.1430  177.4120  148.0200 O   0  0  0  0  0  0  0  0  0  0  0  0
  191.3760  177.1240  147.4370 C   0  0  0  0  0  2  0  0  0  0  0  0
  191.6300  175.6320  147.5080 C   0  0  0  0  0  1  0  0  0  0  0  0
  187.9070  177.5070  138.2320 C   0  0  0  0  0  2  0  0  0  0  0  0
  189.0340  178.2480  137.5850 C   0  0  0  0  0  0  0  0  0  0  0  0
  189.0370  179.5050  137.6120 O   0  0  0  0  0  0  0  0  0  0  0  0
  190.1040  177.5590  136.9340 N   0  0  0  0  0  2  0  0  0  0  0  0
  190.0950  176.1680  136.7520 N   0  0  0  0  0  2  0  0  0  0  0  0
  191.2710  175.8220  135.9630 C   0  0  0  0  0  2  0  0  0  0  0  0
  193.9820  176.3630  135.7190 S   0  0  0  0  0  0  0  0  0  0  0  0
  194.9230  175.0740  136.5080 C   0  0  0  0  0  0  0  0  0  0  0  0
  196.3640  174.8630  136.1800 C   0  0  0  0  0  1  0  0  0  0  0  0
  192.8340  174.7060  137.6000 C   0  0  0  0  0  2  0  0  0  0  0  0
  194.2570  174.3360  137.3900 C   0  0  0  0  0  0  0  0  0  0  0  0
  192.5520  175.9640  136.7840 C   0  0  2  0  0  3  0  0  0  0  0  0
  194.8600  173.1780  138.1070 C   0  0  0  0  0  1  0  0  0  0  0  0
  187.0640  178.8610  140.0670 N   0  0  0  0  0  2  0  0  0  0  0  0
  183.4240  178.7070  140.9240 C   0  0  0  0  0  0  0  0  0  0  0  0
  183.4840  178.6510  142.3190 C   0  0  0  0  0  3  0  0  0  0  0  0
  185.8550  178.7920  140.8320 C   0  0  0  0  0  0  0  0  0  0  0  0
  184.5620  178.8330  138.7490 N   0  0  0  0  0  1  0  0  0  0  0  0
  184.6120  178.7740  140.1730 C   0  0  0  0  0  0  0  0  0  0  0  0
  185.8970  178.7440  142.2320 C   0  0  0  0  0  3  0  0  0  0  0  0
  184.7180  178.6710  142.9830 C   0  0  0  0  0  0  0  0  0  0  0  0
  185.5650  177.5610  144.8830 F   0  0  0  0  0  0  0  0  0  0  0  0
  183.4810  178.4140  144.9720 F   0  0  0  0  0  0  0  0  0  0  0  0
  184.7590  178.6120  144.4850 C   0  0  0  0  0  0  0  0  0  0  0  0
  185.2630  179.7880  145.0160 F   0  0  0  0  0  0  0  0  0  0  0  0
  181.0150  178.2450  141.2470 C   0  0  0  0  0  1  0  0  0  0  0  0
  182.0870  178.6730  140.2580 C   0  0  0  0  0  2  0  0  0  0  0  0
  1 17  1  6  0  0  0
  1 30  1  0  0  0  0
  3 11  1  0  0  0  0
  4  3  1  0  0  0  0
  6  1  1  1  0  0  0
  6  9  1  0  0  0  0
  6  5  1  0  0  0  0
  7  8  1  0  0  0  0
  7  4  1  1  0  0  0
  8  5  1  6  0  0  0
  8 10  1  0  0  0  0
  9  2  1  6  0  0  0
  9  7  1  0  0  0  0
 10  3  1  0  0  0  0
 11 12  1  0  0  0  0
 12 13  1  0  0  0  0
 13 14  1  0  0  0  0
 15 16  1  0  0  0  0
 15 14  1  0  0  0  0
 18 19  2  0  0  0  0
 18 17  1  0  0  0  0
 20 18  1  0  0  0  0
 21 20  1  0  0  0  0
 22 21  1  0  0  0  0
 23 24  1  0  0  0  0
 23 28  1  0  0  0  0
 24 27  2  0  0  0  0
 25 24  1  0  0  0  0
 27 26  1  0  0  0  0
 27 29  1  0  0  0  0
 28 22  1  6  0  0  0
 28 26  1  0  0  0  0
 30 33  1  0  0  0  0
 31 32  1  0  0  0  0
 32 37  2  0  0  0  0
 33 36  2  0  0  0  0
 34 35  1  0  0  0  0
 35 33  1  0  0  0  0
 35 31  2  0  0  0  0
 36 37  1  0  0  0  0
 37 40  1  0  0  0  0
 40 38  1  0  0  0  0
 40 39  1  0  0  0  0
 40 41  1  0  0  0  0
 43 31  1  0  0  0  0
 43 42  1  0  0  0  0
M  END
>  <MODEL>
3

>  <REMARK>
 VINA RESULT:      -7.7      3.836      7.542
  Name = 
  15 active torsions:
  status: ('A' for Active; 'I' for Inactive)
    1  A    between atoms: O_3  and  C_7
    2  A    between atoms: O_3  and  C_29
    3  A    between atoms: C_4  and  C_30
    4  A    between atoms: C_7  and  C_31
    5  A    between atoms: N_8  and  O_20
    6  A    between atoms: C_11  and  C_19
    7  A    between atoms: C_11  and  C_38
    8  A    between atoms: C_11  and  N_41
    9  A    between atoms: C_12  and  N_41
   10  A    between atoms: C_14  and  C_38
   11  A    between atoms: C_16  and  C_24
   12  A    between atoms: C_16  and  N_28
   13  A    between atoms: O_20  and  C_31
   14  A    between atoms: N_28  and  N_42
   15  A    between atoms: C_39  and  C_43
                            x       y       z     vdW  Elec       q    Type
                         _______ _______ _______ _____ _____    ______ ____

>  <TORSDO>
F 15

$$$$
=
 OpenBabel10222417223D

 43 46  0  0  1  0  0  0  0  0999 V2000
  185.1480  178.1870  138.8220 C   0  0  2  0  0  3  0  0  0  0  0  0
  182.1610  179.2230  137.8660 O   0  0  0  0  0  1  0  0  0  0  0  0
  182.1710  174.8090  136.2330 N   0  0  0  0  0  0  0  0  0  0  0  0
  181.7020  175.8720  137.1140 C   0  0  0  0  0  2  0  0  0  0  0  0
  184.6900  177.0900  136.5860 C   0  0  0  0  0  2  0  0  0  0  0  0
  184.2800  178.1740  137.5520 C   0  0  1  0  0  3  0  0  0  0  0  0
  182.2640  177.1860  136.6250 C   0  0  2  0  0  3  0  0  0  0  0  0
  183.4480  176.8150  135.7660 C   0  0  2  0  0  3  0  0  0  0  0  0
  182.7940  177.9830  137.8060 C   0  0  2  0  0  3  0  0  0  0  0  0
  183.3240  175.3300  135.5050 C   0  0  0  0  0  2  0  0  0  0  0  0
  182.6340  173.8150  137.0320 O   0  0  0  0  0  0  0  0  0  0  0  0
  183.8860  173.4740  136.5090 C   0  0  0  0  0  2  0  0  0  0  0  0
  184.5630  172.4690  137.4220 C   0  0  0  0  0  2  0  0  0  0  0  0
  185.6680  173.0550  138.0360 O   0  0  0  0  0  0  0  0  0  0  0  0
  186.7270  172.8090  137.1630 C   0  0  0  0  0  2  0  0  0  0  0  0
  187.4890  174.0960  136.9200 C   0  0  0  0  0  1  0  0  0  0  0  0
  184.5520  178.9610  140.0000 C   0  0  0  0  0  2  0  0  0  0  0  0
  183.9920  178.0590  141.0540 C   0  0  0  0  0  0  0  0  0  0  0  0
  183.1290  177.2030  140.7320 O   0  0  0  0  0  0  0  0  0  0  0  0
  184.4130  178.1510  142.4170 N   0  0  0  0  0  2  0  0  0  0  0  0
  185.2690  179.1670  142.8660 N   0  0  0  0  0  2  0  0  0  0  0  0
  185.0150  179.3560  144.2890 C   0  0  0  0  0  2  0  0  0  0  0  0
  185.5530  178.5710  146.8960 S   0  0  0  0  0  0  0  0  0  0  0  0
  187.2360  178.0040  147.0150 C   0  0  0  0  0  0  0  0  0  0  0  0
  187.9290  177.9280  148.3350 C   0  0  0  0  0  1  0  0  0  0  0  0
  186.9550  177.7850  144.6560 C   0  0  0  0  0  2  0  0  0  0  0  0
  187.8080  177.6610  145.8660 C   0  0  0  0  0  0  0  0  0  0  0  0
  185.5540  178.1860  145.1100 C   0  0  2  0  0  3  0  0  0  0  0  0
  189.2260  177.2170  145.7610 C   0  0  0  0  0  1  0  0  0  0  0  0
  186.4600  178.7340  138.5100 N   0  0  0  0  0  2  0  0  0  0  0  0
  189.7160  176.9140  138.2070 C   0  0  0  0  0  0  0  0  0  0  0  0
  190.0920  176.8230  139.5490 C   0  0  0  0  0  3  0  0  0  0  0  0
  187.6870  178.0870  138.8650 C   0  0  0  0  0  0  0  0  0  0  0  0
  188.1150  177.6470  136.4920 N   0  0  0  0  0  1  0  0  0  0  0  0
  188.5100  177.5510  137.8590 C   0  0  0  0  0  0  0  0  0  0  0  0
  188.0750  177.9800  140.2080 C   0  0  0  0  0  3  0  0  0  0  0  0
  189.2760  177.3530  140.5590 C   0  0  0  0  0  0  0  0  0  0  0  0
  189.3930  178.4170  142.6600 F   0  0  0  0  0  0  0  0  0  0  0  0
  191.0660  177.0310  142.0590 F   0  0  0  0  0  0  0  0  0  0  0  0
  189.7010  177.2430  141.9970 C   0  0  0  0  0  0  0  0  0  0  0  0
  189.0560  176.1920  142.6280 F   0  0  0  0  0  0  0  0  0  0  0  0
  191.2000  175.0200  137.6330 C   0  0  0  0  0  1  0  0  0  0  0  0
  190.6210  176.3440  137.1640 C   0  0  0  0  0  2  0  0  0  0  0  0
  1 17  1  1  0  0  0
  3 11  1  0  0  0  0
  3  4  1  0  0  0  0
  5  6  1  0  0  0  0
  6  9  1  0  0  0  0
  6  1  1  1  0  0  0
  7  4  1  1  0  0  0
  7  9  1  0  0  0  0
  8 10  1  1  0  0  0
  8  5  1  0  0  0  0
  8  7  1  0  0  0  0
  9  2  1  6  0  0  0
 10  3  1  0  0  0  0
 12 11  1  0  0  0  0
 12 13  1  0  0  0  0
 13 14  1  0  0  0  0
 15 14  1  0  0  0  0
 16 15  1  0  0  0  0
 17 18  1  0  0  0  0
 18 20  1  0  0  0  0
 19 18  2  0  0  0  0
 20 21  1  0  0  0  0
 21 22  1  0  0  0  0
 23 24  1  0  0  0  0
 24 25  1  0  0  0  0
 26 28  1  0  0  0  0
 26 27  1  0  0  0  0
 27 24  2  0  0  0  0
 28 22  1  6  0  0  0
 28 23  1  0  0  0  0
 29 27  1  0  0  0  0
 30  1  1  0  0  0  0
 30 33  1  0  0  0  0
 31 32  1  0  0  0  0
 32 37  2  0  0  0  0
 33 36  2  0  0  0  0
 34 35  1  0  0  0  0
 35 31  2  0  0  0  0
 35 33  1  0  0  0  0
 36 37  1  0  0  0  0
 37 40  1  0  0  0  0
 40 39  1  0  0  0  0
 40 41  1  0  0  0  0
 40 38  1  0  0  0  0
 43 42  1  0  0  0  0
 43 31  1  0  0  0  0
M  END
>  <MODEL>
4

>  <REMARK>
 VINA RESULT:      -7.6      2.645      6.598
  Name = 
  15 active torsions:
  status: ('A' for Active; 'I' for Inactive)
    1  A    between atoms: O_3  and  C_7
    2  A    between atoms: O_3  and  C_29
    3  A    between atoms: C_4  and  C_30
    4  A    between atoms: C_7  and  C_31
    5  A    between atoms: N_8  and  O_20
    6  A    between atoms: C_11  and  C_19
    7  A    between atoms: C_11  and  C_38
    8  A    between atoms: C_11  and  N_41
    9  A    between atoms: C_12  and  N_41
   10  A    between atoms: C_14  and  C_38
   11  A    between atoms: C_16  and  C_24
   12  A    between atoms: C_16  and  N_28
   13  A    between atoms: O_20  and  C_31
   14  A    between atoms: N_28  and  N_42
   15  A    between atoms: C_39  and  C_43
                            x       y       z     vdW  Elec       q    Type
                         _______ _______ _______ _____ _____    ______ ____

>  <TORSDO>
F 15

$$$$
=
 OpenBabel10222417223D

 43 46  0  0  1  0  0  0  0  0999 V2000
  185.2350  178.0950  139.0530 C   0  0  2  0  0  3  0  0  0  0  0  0
  185.6030  176.3310  136.2860 O   0  0  0  0  0  1  0  0  0  0  0  0
  190.0060  176.3660  137.9480 N   0  0  0  0  0  0  0  0  0  0  0  0
  188.7500  175.7130  137.5970 C   0  0  0  0  0  2  0  0  0  0  0  0
  187.5110  178.6940  138.1190 C   0  0  0  0  0  2  0  0  0  0  0  0
  186.1760  178.0480  137.8370 C   0  0  1  0  0  3  0  0  0  0  0  0
  187.9050  176.6870  136.8090 C   0  0  2  0  0  3  0  0  0  0  0  0
  188.4650  178.0500  137.1350 C   0  0  2  0  0  3  0  0  0  0  0  0
  186.4750  176.6500  137.3250 C   0  0  2  0  0  3  0  0  0  0  0  0
  189.8010  177.8040  137.8010 C   0  0  0  0  0  2  0  0  0  0  0  0
  190.2100  176.1360  139.2690 O   0  0  0  0  0  0  0  0  0  0  0  0
  191.1370  177.1050  139.6730 C   0  0  0  0  0  2  0  0  0  0  0  0
  191.2620  177.0900  141.1850 C   0  0  0  0  0  2  0  0  0  0  0  0
  190.6510  175.9480  141.7010 O   0  0  0  0  0  0  0  0  0  0  0  0
  190.8640  176.0280  143.0760 C   0  0  0  0  0  2  0  0  0  0  0  0
  191.6290  177.2960  143.3950 C   0  0  0  0  0  1  0  0  0  0  0  0
  183.8130  178.5710  138.7470 C   0  0  0  0  0  2  0  0  0  0  0  0
  182.7790  177.5450  139.0880 C   0  0  0  0  0  0  0  0  0  0  0  0
  183.1360  176.4820  139.6570 O   0  0  0  0  0  0  0  0  0  0  0  0
  181.3980  177.7440  138.7790 N   0  0  0  0  0  2  0  0  0  0  0  0
  180.9530  178.8430  138.0300 N   0  0  0  0  0  2  0  0  0  0  0  0
  180.1730  179.6940  138.9210 C   0  0  0  0  0  2  0  0  0  0  0  0
  179.6620  180.6880  136.3810 S   0  0  0  0  0  0  0  0  0  0  0  0
  180.4700  182.2620  136.1810 C   0  0  0  0  0  0  0  0  0  0  0  0
  180.7330  182.8230  134.8230 C   0  0  0  0  0  1  0  0  0  0  0  0
  180.4470  182.1770  138.5650 C   0  0  0  0  0  2  0  0  0  0  0  0
  180.8080  182.8800  137.3070 C   0  0  0  0  0  0  0  0  0  0  0  0
  179.6500  180.9310  138.1920 C   0  0  2  0  0  3  0  0  0  0  0  0
  181.5410  184.1770  137.3390 C   0  0  0  0  0  1  0  0  0  0  0  0
  185.8090  178.9490  140.0820 N   0  0  0  0  0  2  0  0  0  0  0  0
  186.7450  177.7520  143.5020 C   0  0  0  0  0  0  0  0  0  0  0  0
  185.5930  178.0820  144.2210 C   0  0  0  0  0  3  0  0  0  0  0  0
  185.7320  178.6550  141.4810 C   0  0  0  0  0  0  0  0  0  0  0  0
  187.9910  177.7080  141.3840 N   0  0  0  0  0  1  0  0  0  0  0  0
  186.8200  178.0420  142.1270 C   0  0  0  0  0  0  0  0  0  0  0  0
  184.5800  178.9710  142.2150 C   0  0  0  0  0  3  0  0  0  0  0  0
  184.5030  178.6910  143.5840 C   0  0  0  0  0  0  0  0  0  0  0  0
  182.9290  180.3550  144.1460 F   0  0  0  0  0  0  0  0  0  0  0  0
  183.5290  178.8610  145.7240 F   0  0  0  0  0  0  0  0  0  0  0  0
  183.2720  179.0350  144.3760 C   0  0  0  0  0  0  0  0  0  0  0  0
  182.2060  178.2280  144.0170 F   0  0  0  0  0  0  0  0  0  0  0  0
  188.2280  177.9030  145.4760 C   0  0  0  0  0  1  0  0  0  0  0  0
  187.8870  177.1130  144.2240 C   0  0  0  0  0  2  0  0  0  0  0  0
  1 17  1  6  0  0  0
  1 30  1  0  0  0  0
  3 11  1  0  0  0  0
  4  3  1  0  0  0  0
  6  5  1  0  0  0  0
  6  1  1  1  0  0  0
  7  8  1  0  0  0  0
  7  9  1  0  0  0  0
  7  4  1  1  0  0  0
  8 10  1  1  0  0  0
  8  5  1  0  0  0  0
  9  2  1  6  0  0  0
  9  6  1  0  0  0  0
 10  3  1  0  0  0  0
 11 12  1  0  0  0  0
 12 13  1  0  0  0  0
 13 14  1  0  0  0  0
 14 15  1  0  0  0  0
 15 16  1  0  0  0  0
 17 18  1  0  0  0  0
 18 19  2  0  0  0  0
 20 18  1  0  0  0  0
 21 20  1  0  0  0  0
 21 22  1  0  0  0  0
 23 28  1  0  0  0  0
 24 23  1  0  0  0  0
 24 27  2  0  0  0  0
 25 24  1  0  0  0  0
 27 29  1  0  0  0  0
 27 26  1  0  0  0  0
 28 26  1  0  0  0  0
 28 22  1  1  0  0  0
 30 33  1  0  0  0  0
 31 32  1  0  0  0  0
 31 43  1  0  0  0  0
 33 35  1  0  0  0  0
 33 36  2  0  0  0  0
 34 35  1  0  0  0  0
 35 31  2  0  0  0  0
 36 37  1  0  0  0  0
 37 32  2  0  0  0  0
 37 40  1  0  0  0  0
 38 40  1  0  0  0  0
 40 39  1  0  0  0  0
 41 40  1  0  0  0  0
 43 42  1  0  0  0  0
M  END
>  <MODEL>
5

>  <REMARK>
 VINA RESULT:      -7.5      3.837      7.677
  Name = 
  15 active torsions:
  status: ('A' for Active; 'I' for Inactive)
    1  A    between atoms: O_3  and  C_7
    2  A    between atoms: O_3  and  C_29
    3  A    between atoms: C_4  and  C_30
    4  A    between atoms: C_7  and  C_31
    5  A    between atoms: N_8  and  O_20
    6  A    between atoms: C_11  and  C_19
    7  A    between atoms: C_11  and  C_38
    8  A    between atoms: C_11  and  N_41
    9  A    between atoms: C_12  and  N_41
   10  A    between atoms: C_14  and  C_38
   11  A    between atoms: C_16  and  C_24
   12  A    between atoms: C_16  and  N_28
   13  A    between atoms: O_20  and  C_31
   14  A    between atoms: N_28  and  N_42
   15  A    between atoms: C_39  and  C_43
                            x       y       z     vdW  Elec       q    Type
                         _______ _______ _______ _____ _____    ______ ____

>  <TORSDO>
F 15

$$$$
=
 OpenBabel10222417223D

 43 46  0  0  1  0  0  0  0  0999 V2000
  186.8020  178.2500  137.9560 C   0  0  2  0  0  3  0  0  0  0  0  0
  184.9830  175.5300  137.5060 O   0  0  0  0  0  1  0  0  0  0  0  0
  189.0100  174.3040  135.4000 N   0  0  0  0  0  0  0  0  0  0  0  0
  188.0000  174.1950  136.4460 C   0  0  0  0  0  2  0  0  0  0  0  0
  187.4420  177.3270  135.6870 C   0  0  0  0  0  2  0  0  0  0  0  0
  186.4380  177.2880  136.8120 C   0  0  1  0  0  3  0  0  0  0  0  0
  186.7960  175.0130  136.0410 C   0  0  2  0  0  3  0  0  0  0  0  0
  187.3070  175.9830  135.0040 C   0  0  2  0  0  3  0  0  0  0  0  0
  186.3150  175.8320  137.2270 C   0  0  2  0  0  3  0  0  0  0  0  0
  188.6720  175.4750  134.5950 C   0  0  0  0  0  2  0  0  0  0  0  0
  190.1850  174.5840  136.0170 O   0  0  0  0  0  0  0  0  0  0  0  0
  189.8470  174.8570  137.3480 C   0  0  0  0  0  2  0  0  0  0  0  0
  191.0320  175.4860  138.0560 C   0  0  0  0  0  2  0  0  0  0  0  0
  192.1430  174.6500  137.9570 O   0  0  0  0  0  0  0  0  0  0  0  0
  193.2230  175.5180  137.8060 C   0  0  0  0  0  2  0  0  0  0  0  0
  193.0090  176.7430  138.6720 C   0  0  0  0  0  1  0  0  0  0  0  0
  187.3170  177.5710  139.2270 C   0  0  0  0  0  2  0  0  0  0  0  0
  188.6610  178.0790  139.6440 C   0  0  0  0  0  0  0  0  0  0  0  0
  189.4030  178.6220  138.7870 O   0  0  0  0  0  0  0  0  0  0  0  0
  189.1200  177.9580  140.9920 N   0  0  0  0  0  2  0  0  0  0  0  0
  188.4000  177.2480  141.9640 N   0  0  0  0  0  2  0  0  0  0  0  0
  189.3650  176.5100  142.7710 C   0  0  0  0  0  2  0  0  0  0  0  0
  191.3890  176.6580  144.6640 S   0  0  0  0  0  0  0  0  0  0  0  0
  190.6790  176.7600  146.2930 C   0  0  0  0  0  0  0  0  0  0  0  0
  191.4840  176.4250  147.5050 C   0  0  0  0  0  1  0  0  0  0  0  0
  188.7780  177.4600  145.0340 C   0  0  0  0  0  2  0  0  0  0  0  0
  189.4100  177.1500  146.3420 C   0  0  0  0  0  0  0  0  0  0  0  0
  189.8510  177.3440  143.9560 C   0  0  2  0  0  3  0  0  0  0  0  0
  188.6310  177.2400  147.6090 C   0  0  0  0  0  1  0  0  0  0  0  0
  185.6460  179.0690  138.2910 N   0  0  0  0  0  2  0  0  0  0  0  0
  182.5670  177.9490  140.1000 C   0  0  0  0  0  0  0  0  0  0  0  0
  182.9630  178.1280  141.4280 C   0  0  0  0  0  3  0  0  0  0  0  0
  184.7400  178.7540  139.3540 C   0  0  0  0  0  0  0  0  0  0  0  0
  183.0650  178.0810  137.6960 N   0  0  0  0  0  1  0  0  0  0  0  0
  183.4590  178.2580  139.0550 C   0  0  0  0  0  0  0  0  0  0  0  0
  185.1180  178.9370  140.6910 C   0  0  0  0  0  3  0  0  0  0  0  0
  184.2380  178.6240  141.7340 C   0  0  0  0  0  0  0  0  0  0  0  0
  185.7280  178.0040  143.4530 F   0  0  0  0  0  0  0  0  0  0  0  0
  183.5880  178.4580  143.9930 F   0  0  0  0  0  0  0  0  0  0  0  0
  184.6410  178.8110  143.1700 C   0  0  0  0  0  0  0  0  0  0  0  0
  184.9850  180.1290  143.4240 F   0  0  0  0  0  0  0  0  0  0  0  0
  180.3110  177.5690  141.0400 C   0  0  0  0  0  1  0  0  0  0  0  0
  181.2030  177.4090  139.8200 C   0  0  0  0  0  2  0  0  0  0  0  0
  1 30  1  0  0  0  0
  1 17  1  1  0  0  0
  3 11  1  0  0  0  0
  3  4  1  0  0  0  0
  5  6  1  0  0  0  0
  6  9  1  0  0  0  0
  6  1  1  1  0  0  0
  7  4  1  1  0  0  0
  7  9  1  0  0  0  0
  8 10  1  1  0  0  0
  8  5  1  0  0  0  0
  8  7  1  0  0  0  0
  9  2  1  6  0  0  0
 10  3  1  0  0  0  0
 11 12  1  0  0  0  0
 12 13  1  0  0  0  0
 14 13  1  0  0  0  0
 15 14  1  0  0  0  0
 15 16  1  0  0  0  0
 17 18  1  0  0  0  0
 18 20  1  0  0  0  0
 19 18  2  0  0  0  0
 20 21  1  0  0  0  0
 21 22  1  0  0  0  0
 23 24  1  0  0  0  0
 24 27  2  0  0  0  0
 24 25  1  0  0  0  0
 26 27  1  0  0  0  0
 27 29  1  0  0  0  0
 28 22  1  6  0  0  0
 28 23  1  0  0  0  0
 28 26  1  0  0  0  0
 30 33  1  0  0  0  0
 31 32  1  0  0  0  0
 32 37  2  0  0  0  0
 33 36  2  0  0  0  0
 34 35  1  0  0  0  0
 35 33  1  0  0  0  0
 35 31  2  0  0  0  0
 36 37  1  0  0  0  0
 37 40  1  0  0  0  0
 40 41  1  0  0  0  0
 40 38  1  0  0  0  0
 40 39  1  0  0  0  0
 43 31  1  0  0  0  0
 43 42  1  0  0  0  0
M  END
>  <MODEL>
6

>  <REMARK>
 VINA RESULT:      -7.3      3.307      7.683
  Name = 
  15 active torsions:
  status: ('A' for Active; 'I' for Inactive)
    1  A    between atoms: O_3  and  C_7
    2  A    between atoms: O_3  and  C_29
    3  A    between atoms: C_4  and  C_30
    4  A    between atoms: C_7  and  C_31
    5  A    between atoms: N_8  and  O_20
    6  A    between atoms: C_11  and  C_19
    7  A    between atoms: C_11  and  C_38
    8  A    between atoms: C_11  and  N_41
    9  A    between atoms: C_12  and  N_41
   10  A    between atoms: C_14  and  C_38
   11  A    between atoms: C_16  and  C_24
   12  A    between atoms: C_16  and  N_28
   13  A    between atoms: O_20  and  C_31
   14  A    between atoms: N_28  and  N_42
   15  A    between atoms: C_39  and  C_43
                            x       y       z     vdW  Elec       q    Type
                         _______ _______ _______ _____ _____    ______ ____

>  <TORSDO>
F 15

$$$$
=
 OpenBabel10222417223D

 43 46  0  0  1  0  0  0  0  0999 V2000
  185.6560  177.8630  138.1800 C   0  0  2  0  0  3  0  0  0  0  0  0
  187.2000  176.4260  135.6380 O   0  0  0  0  0  1  0  0  0  0  0  0
  190.5760  176.3680  138.9170 N   0  0  0  0  0  0  0  0  0  0  0  0
  189.6050  175.7320  138.0330 C   0  0  0  0  0  2  0  0  0  0  0  0
  188.0730  178.6100  138.2940 C   0  0  0  0  0  2  0  0  0  0  0  0
  187.0020  177.9720  137.4440 C   0  0  1  0  0  3  0  0  0  0  0  0
  189.0800  176.7700  137.0690 C   0  0  2  0  0  3  0  0  0  0  0  0
  189.3770  178.1000  137.7180 C   0  0  2  0  0  3  0  0  0  0  0  0
  187.5680  176.6460  136.9640 C   0  0  2  0  0  3  0  0  0  0  0  0
  190.3540  177.8090  138.8360 C   0  0  0  0  0  2  0  0  0  0  0  0
  190.2560  175.9970  140.1810 O   0  0  0  0  0  0  0  0  0  0  0  0
  190.4800  177.1330  140.9680 C   0  0  0  0  0  2  0  0  0  0  0  0
  190.9160  176.7120  142.3580 C   0  0  0  0  0  2  0  0  0  0  0  0
  189.9930  175.8160  142.8950 O   0  0  0  0  0  0  0  0  0  0  0  0
  189.1260  176.6110  143.6430 C   0  0  0  0  0  2  0  0  0  0  0  0
  189.9250  177.4270  144.6390 C   0  0  0  0  0  1  0  0  0  0  0  0
  184.4240  177.8850  137.2740 C   0  0  0  0  0  2  0  0  0  0  0  0
  183.7780  176.5410  137.1510 C   0  0  0  0  0  0  0  0  0  0  0  0
  184.3890  175.5270  137.5760 O   0  0  0  0  0  0  0  0  0  0  0  0
  182.4870  176.3840  136.5590 N   0  0  0  0  0  2  0  0  0  0  0  0
  181.8120  177.4510  135.9470 N   0  0  0  0  0  2  0  0  0  0  0  0
  180.4080  177.3580  136.3300 C   0  0  0  0  0  2  0  0  0  0  0  0
  179.6090  179.8920  135.5300 S   0  0  0  0  0  0  0  0  0  0  0  0
  180.5130  181.1220  136.4460 C   0  0  0  0  0  0  0  0  0  0  0  0
  180.6170  182.5270  135.9520 C   0  0  0  0  0  1  0  0  0  0  0  0
  180.8440  179.2720  137.9160 C   0  0  0  0  0  2  0  0  0  0  0  0
  181.0710  180.7010  137.5750 C   0  0  0  0  0  0  0  0  0  0  0  0
  179.8920  178.6890  136.8750 C   0  0  2  0  0  3  0  0  0  0  0  0
  181.9120  181.5700  138.4460 C   0  0  0  0  0  1  0  0  0  0  0  0
  185.5470  178.9370  139.1560 N   0  0  0  0  0  2  0  0  0  0  0  0
  184.9410  178.5160  142.8260 C   0  0  0  0  0  0  0  0  0  0  0  0
  183.5450  178.5220  142.8640 C   0  0  0  0  0  3  0  0  0  0  0  0
  184.8660  178.7950  140.4090 C   0  0  0  0  0  0  0  0  0  0  0  0
  187.0340  178.6490  141.5430 N   0  0  0  0  0  1  0  0  0  0  0  0
  185.6090  178.6560  141.5950 C   0  0  0  0  0  0  0  0  0  0  0  0
  183.4660  178.7900  140.4640 C   0  0  0  0  0  3  0  0  0  0  0  0
  182.7970  178.6580  141.6860 C   0  0  0  0  0  0  0  0  0  0  0  0
  180.8900  178.4810  143.0620 F   0  0  0  0  0  0  0  0  0  0  0  0
  180.7990  177.6270  140.9780 F   0  0  0  0  0  0  0  0  0  0  0  0
  181.2950  178.6600  141.7520 C   0  0  0  0  0  0  0  0  0  0  0  0
  180.7780  179.8570  141.2840 F   0  0  0  0  0  0  0  0  0  0  0  0
  184.7830  178.6440  145.2910 C   0  0  0  0  0  1  0  0  0  0  0  0
  185.6970  178.3790  144.1070 C   0  0  0  0  0  2  0  0  0  0  0  0
  1 17  1  6  0  0  0
  1 30  1  0  0  0  0
  3 11  1  0  0  0  0
  4  3  1  0  0  0  0
  6  1  1  1  0  0  0
  6  5  1  0  0  0  0
  7  8  1  0  0  0  0
  7  4  1  1  0  0  0
  8  5  1  1  0  0  0
  8 10  1  0  0  0  0
  9  2  1  6  0  0  0
  9  7  1  0  0  0  0
  9  6  1  0  0  0  0
 10  3  1  0  0  0  0
 11 12  1  0  0  0  0
 12 13  1  0  0  0  0
 13 14  1  0  0  0  0
 14 15  1  0  0  0  0
 15 16  1  0  0  0  0
 18 17  1  0  0  0  0
 18 19  2  0  0  0  0
 20 18  1  0  0  0  0
 21 22  1  0  0  0  0
 21 20  1  0  0  0  0
 23 24  1  0  0  0  0
 23 28  1  0  0  0  0
 24 27  2  0  0  0  0
 25 24  1  0  0  0  0
 27 26  1  0  0  0  0
 27 29  1  0  0  0  0
 28 22  1  6  0  0  0
 28 26  1  0  0  0  0
 30 33  1  0  0  0  0
 31 32  1  0  0  0  0
 31 43  1  0  0  0  0
 33 36  2  0  0  0  0
 33 35  1  0  0  0  0
 34 35  1  0  0  0  0
 35 31  2  0  0  0  0
 36 37  1  0  0  0  0
 37 40  1  0  0  0  0
 37 32  2  0  0  0  0
 39 40  1  0  0  0  0
 40 38  1  0  0  0  0
 41 40  1  0  0  0  0
 43 42  1  0  0  0  0
M  END
>  <MODEL>
7

>  <REMARK>
 VINA RESULT:      -7.3      4.039      7.960
  Name = 
  15 active torsions:
  status: ('A' for Active; 'I' for Inactive)
    1  A    between atoms: O_3  and  C_7
    2  A    between atoms: O_3  and  C_29
    3  A    between atoms: C_4  and  C_30
    4  A    between atoms: C_7  and  C_31
    5  A    between atoms: N_8  and  O_20
    6  A    between atoms: C_11  and  C_19
    7  A    between atoms: C_11  and  C_38
    8  A    between atoms: C_11  and  N_41
    9  A    between atoms: C_12  and  N_41
   10  A    between atoms: C_14  and  C_38
   11  A    between atoms: C_16  and  C_24
   12  A    between atoms: C_16  and  N_28
   13  A    between atoms: O_20  and  C_31
   14  A    between atoms: N_28  and  N_42
   15  A    between atoms: C_39  and  C_43
                            x       y       z     vdW  Elec       q    Type
                         _______ _______ _______ _____ _____    ______ ____

>  <TORSDO>
F 15

$$$$
=
 OpenBabel10222417223D

 43 46  0  0  1  0  0  0  0  0999 V2000
  188.7830  178.0000  141.2100 C   0  0  2  0  0  3  0  0  0  0  0  0
  189.0580  179.7410  138.4180 O   0  0  0  0  0  1  0  0  0  0  0  0
  188.0870  175.4540  136.7360 N   0  0  0  0  0  0  0  0  0  0  0  0
  187.7780  176.8580  136.9860 C   0  0  0  0  0  2  0  0  0  0  0  0
  189.8300  176.4530  139.5010 C   0  0  0  0  0  2  0  0  0  0  0  0
  189.4850  177.8800  139.8460 C   0  0  1  0  0  3  0  0  0  0  0  0
  189.0280  177.5440  137.4840 C   0  0  2  0  0  3  0  0  0  0  0  0
  189.9160  176.4330  137.9890 C   0  0  2  0  0  3  0  0  0  0  0  0
  188.6840  178.4240  138.6750 C   0  0  2  0  0  3  0  0  0  0  0  0
  189.3190  175.1490  137.4570 C   0  0  0  0  0  2  0  0  0  0  0  0
  187.1040  174.7270  137.3230 O   0  0  0  0  0  0  0  0  0  0  0  0
  187.3940  173.3940  137.0110 C   0  0  0  0  0  2  0  0  0  0  0  0
  186.1050  172.5980  136.9280 C   0  0  0  0  0  2  0  0  0  0  0  0
  185.1920  173.0740  137.8680 O   0  0  0  0  0  0  0  0  0  0  0  0
  183.9480  172.9210  137.2570 C   0  0  0  0  0  2  0  0  0  0  0  0
  183.9050  171.5920  136.5290 C   0  0  0  0  0  1  0  0  0  0  0  0
  187.6020  178.9720  141.2420 C   0  0  0  0  0  2  0  0  0  0  0  0
  186.3540  178.3410  141.7740 C   0  0  0  0  0  0  0  0  0  0  0  0
  186.4370  177.5390  142.7390 O   0  0  0  0  0  0  0  0  0  0  0  0
  185.0730  178.6280  141.2100 N   0  0  0  0  0  2  0  0  0  0  0  0
  184.9250  179.4070  140.0530 N   0  0  0  0  0  2  0  0  0  0  0  0
  183.5800  179.1760  139.5390 C   0  0  0  0  0  2  0  0  0  0  0  0
  182.6400  176.5770  139.2860 S   0  0  0  0  0  0  0  0  0  0  0  0
  180.9300  176.5080  139.7760 C   0  0  0  0  0  0  0  0  0  0  0  0
  180.0540  175.3760  139.3530 C   0  0  0  0  0  1  0  0  0  0  0  0
  181.5300  178.5430  140.8670 C   0  0  0  0  0  2  0  0  0  0  0  0
  180.5100  177.5180  140.5300 C   0  0  0  0  0  0  0  0  0  0  0  0
  182.8710  178.0680  140.3160 C   0  0  2  0  0  3  0  0  0  0  0  0
  179.1000  177.6620  140.9900 C   0  0  0  0  0  1  0  0  0  0  0  0
  189.7500  178.3940  142.2230 N   0  0  0  0  0  2  0  0  0  0  0  0
  190.8430  176.7000  145.3770 C   0  0  0  0  0  0  0  0  0  0  0  0
  189.7210  176.9000  146.1850 C   0  0  0  0  0  3  0  0  0  0  0  0
  189.7360  177.8880  143.5630 C   0  0  0  0  0  0  0  0  0  0  0  0
  191.9940  176.9960  143.2260 N   0  0  0  0  0  1  0  0  0  0  0  0
  190.8560  177.1980  144.0600 C   0  0  0  0  0  0  0  0  0  0  0  0
  188.6150  178.0740  144.3840 C   0  0  0  0  0  3  0  0  0  0  0  0
  188.6000  177.5860  145.6960 C   0  0  0  0  0  0  0  0  0  0  0  0
  186.8150  179.0060  146.2930 F   0  0  0  0  0  0  0  0  0  0  0  0
  187.8050  177.7830  147.9070 F   0  0  0  0  0  0  0  0  0  0  0  0
  187.4030  177.7890  146.5840 C   0  0  0  0  0  0  0  0  0  0  0  0
  186.4680  176.7840  146.3960 F   0  0  0  0  0  0  0  0  0  0  0  0
  192.0090  176.0530  147.4600 C   0  0  0  0  0  1  0  0  0  0  0  0
  192.0180  175.9720  145.9430 C   0  0  0  0  0  2  0  0  0  0  0  0
  1 17  1  6  0  0  0
  1 30  1  0  0  0  0
  3  4  1  0  0  0  0
  3 11  1  0  0  0  0
  3 10  1  0  0  0  0
  5  6  1  0  0  0  0
  6  1  1  1  0  0  0
  7  4  1  1  0  0  0
  7  8  1  0  0  0  0
  7  9  1  0  0  0  0
  8 10  1  6  0  0  0
  8  5  1  0  0  0  0
  9  2  1  6  0  0  0
  9  6  1  0  0  0  0
 12 11  1  0  0  0  0
 13 12  1  0  0  0  0
 13 14  1  0  0  0  0
 15 14  1  0  0  0  0
 16 15  1  0  0  0  0
 17 18  1  0  0  0  0
 18 19  2  0  0  0  0
 20 18  1  0  0  0  0
 21 20  1  0  0  0  0
 22 21  1  0  0  0  0
 23 24  1  0  0  0  0
 23 28  1  0  0  0  0
 24 27  2  0  0  0  0
 25 24  1  0  0  0  0
 27 26  1  0  0  0  0
 27 29  1  0  0  0  0
 28 22  1  6  0  0  0
 28 26  1  0  0  0  0
 30 33  1  0  0  0  0
 31 43  1  0  0  0  0
 31 32  1  0  0  0  0
 33 35  1  0  0  0  0
 33 36  2  0  0  0  0
 34 35  1  0  0  0  0
 35 31  2  0  0  0  0
 36 37  1  0  0  0  0
 37 32  2  0  0  0  0
 37 40  1  0  0  0  0
 38 40  1  0  0  0  0
 40 39  1  0  0  0  0
 41 40  1  0  0  0  0
 43 42  1  0  0  0  0
M  END
>  <MODEL>
8

>  <REMARK>
 VINA RESULT:      -7.2      2.652      5.399
  Name = 
  15 active torsions:
  status: ('A' for Active; 'I' for Inactive)
    1  A    between atoms: O_3  and  C_7
    2  A    between atoms: O_3  and  C_29
    3  A    between atoms: C_4  and  C_30
    4  A    between atoms: C_7  and  C_31
    5  A    between atoms: N_8  and  O_20
    6  A    between atoms: C_11  and  C_19
    7  A    between atoms: C_11  and  C_38
    8  A    between atoms: C_11  and  N_41
    9  A    between atoms: C_12  and  N_41
   10  A    between atoms: C_14  and  C_38
   11  A    between atoms: C_16  and  C_24
   12  A    between atoms: C_16  and  N_28
   13  A    between atoms: O_20  and  C_31
   14  A    between atoms: N_28  and  N_42
   15  A    between atoms: C_39  and  C_43
                            x       y       z     vdW  Elec       q    Type
                         _______ _______ _______ _____ _____    ______ ____

>  <TORSDO>
F 15

$$$$
=
 OpenBabel10222417223D

 43 46  0  0  1  0  0  0  0  0999 V2000
  187.4000  178.3620  138.1220 C   0  0  2  0  0  3  0  0  0  0  0  0
  186.4870  175.3180  137.2220 O   0  0  0  0  0  1  0  0  0  0  0  0
  191.1230  175.1610  136.4300 N   0  0  0  0  0  0  0  0  0  0  0  0
  189.9070  174.7720  137.1340 C   0  0  0  0  0  2  0  0  0  0  0  0
  188.8740  177.7200  136.1670 C   0  0  0  0  0  2  0  0  0  0  0  0
  187.6230  177.3960  136.9460 C   0  0  1  0  0  3  0  0  0  0  0  0
  188.7170  175.3050  136.3710 C   0  0  2  0  0  3  0  0  0  0  0  0
  189.2660  176.4150  135.5070 C   0  0  2  0  0  3  0  0  0  0  0  0
  187.7310  175.9340  137.3420 C   0  0  2  0  0  3  0  0  0  0  0  0
  190.7700  176.2570  135.5320 C   0  0  0  0  0  2  0  0  0  0  0  0
  191.9650  175.6760  137.3590 O   0  0  0  0  0  0  0  0  0  0  0  0
  193.1220  176.0290  136.6550 C   0  0  0  0  0  2  0  0  0  0  0  0
  194.2430  175.0680  137.0020 C   0  0  0  0  0  2  0  0  0  0  0  0
  194.2100  174.7710  138.3630 O   0  0  0  0  0  0  0  0  0  0  0  0
  195.5200  174.4090  138.6750 C   0  0  0  0  0  2  0  0  0  0  0  0
  196.0070  173.3760  137.6790 C   0  0  0  0  0  1  0  0  0  0  0  0
  187.6820  177.7680  139.5040 C   0  0  0  0  0  2  0  0  0  0  0  0
  189.1130  177.9250  139.9130 C   0  0  0  0  0  0  0  0  0  0  0  0
  189.9060  178.5320  139.1490 O   0  0  0  0  0  0  0  0  0  0  0  0
  189.5980  177.3980  141.1510 N   0  0  0  0  0  2  0  0  0  0  0  0
  188.8010  176.5990  141.9840 N   0  0  0  0  0  2  0  0  0  0  0  0
  189.5420  176.3830  143.2210 C   0  0  0  0  0  2  0  0  0  0  0  0
  190.0760  177.1590  145.8320 S   0  0  0  0  0  0  0  0  0  0  0  0
  188.5580  177.6140  146.6430 C   0  0  0  0  0  0  0  0  0  0  0  0
  188.4660  177.6590  148.1320 C   0  0  0  0  0  1  0  0  0  0  0  0
  187.8290  177.8260  144.3810 C   0  0  0  0  0  2  0  0  0  0  0  0
  187.5430  177.9060  145.8370 C   0  0  0  0  0  0  0  0  0  0  0  0
  189.3140  177.5240  144.2110 C   0  0  2  0  0  3  0  0  0  0  0  0
  186.1820  178.2540  146.3320 C   0  0  0  0  0  1  0  0  0  0  0  0
  186.0330  178.8600  138.0910 N   0  0  0  0  0  2  0  0  0  0  0  0
  182.9580  177.3600  139.6080 C   0  0  0  0  0  0  0  0  0  0  0  0
  183.0950  177.7670  140.9380 C   0  0  0  0  0  3  0  0  0  0  0  0
  185.0400  178.4950  139.0560 C   0  0  0  0  0  0  0  0  0  0  0  0
  183.8040  177.3110  137.3010 N   0  0  0  0  0  1  0  0  0  0  0  0
  183.9350  177.7200  138.6610 C   0  0  0  0  0  0  0  0  0  0  0  0
  185.1580  178.9030  140.3910 C   0  0  0  0  0  3  0  0  0  0  0  0
  184.1930  178.5420  141.3390 C   0  0  0  0  0  0  0  0  0  0  0  0
  185.2970  179.9430  142.8810 F   0  0  0  0  0  0  0  0  0  0  0  0
  184.6730  177.8830  143.5500 F   0  0  0  0  0  0  0  0  0  0  0  0
  184.3190  178.9710  142.7740 C   0  0  0  0  0  0  0  0  0  0  0  0
  183.1230  179.4870  143.2470 F   0  0  0  0  0  0  0  0  0  0  0  0
  180.6000  176.8330  140.1370 C   0  0  0  0  0  1  0  0  0  0  0  0
  181.7780  176.5270  139.2270 C   0  0  0  0  0  2  0  0  0  0  0  0
  1 17  1  1  0  0  0
  3  4  1  0  0  0  0
  3 11  1  0  0  0  0
  5  6  1  0  0  0  0
  6  9  1  0  0  0  0
  6  1  1  1  0  0  0
  7  4  1  1  0  0  0
  7  9  1  0  0  0  0
  8 10  1  1  0  0  0
  8  5  1  0  0  0  0
  8  7  1  0  0  0  0
  9  2  1  6  0  0  0
 10  3  1  0  0  0  0
 12 13  1  0  0  0  0
 12 11  1  0  0  0  0
 13 14  1  0  0  0  0
 14 15  1  0  0  0  0
 16 15  1  0  0  0  0
 17 18  1  0  0  0  0
 18 20  1  0  0  0  0
 19 18  2  0  0  0  0
 20 21  1  0  0  0  0
 21 22  1  0  0  0  0
 23 24  1  0  0  0  0
 24 25  1  0  0  0  0
 26 27  1  0  0  0  0
 27 29  1  0  0  0  0
 27 24  2  0  0  0  0
 28 22  1  6  0  0  0
 28 26  1  0  0  0  0
 28 23  1  0  0  0  0
 30  1  1  0  0  0  0
 30 33  1  0  0  0  0
 31 32  1  0  0  0  0
 32 37  2  0  0  0  0
 33 36  2  0  0  0  0
 34 35  1  0  0  0  0
 35 33  1  0  0  0  0
 35 31  2  0  0  0  0
 36 37  1  0  0  0  0
 37 40  1  0  0  0  0
 40 38  1  0  0  0  0
 40 41  1  0  0  0  0
 40 39  1  0  0  0  0
 43 31  1  0  0  0  0
 43 42  1  0  0  0  0
M  END
>  <MODEL>
9

>  <REMARK>
 VINA RESULT:      -7.2      3.577      8.331
  Name = 
  15 active torsions:
  status: ('A' for Active; 'I' for Inactive)
    1  A    between atoms: O_3  and  C_7
    2  A    between atoms: O_3  and  C_29
    3  A    between atoms: C_4  and  C_30
    4  A    between atoms: C_7  and  C_31
    5  A    between atoms: N_8  and  O_20
    6  A    between atoms: C_11  and  C_19
    7  A    between atoms: C_11  and  C_38
    8  A    between atoms: C_11  and  N_41
    9  A    between atoms: C_12  and  N_41
   10  A    between atoms: C_14  and  C_38
   11  A    between atoms: C_16  and  C_24
   12  A    between atoms: C_16  and  N_28
   13  A    between atoms: O_20  and  C_31
   14  A    between atoms: N_28  and  N_42
   15  A    between atoms: C_39  and  C_43
                            x       y       z     vdW  Elec       q    Type
                         _______ _______ _______ _____ _____    ______ ____

>  <TORSDO>
F 15

$$$$
