=
 OpenBabel10222421093D

 29 32  0  0  1  0  0  0  0  0999 V2000
  189.1190  177.5830  145.0630 C   0  0  1  0  0  3  0  0  0  0  0  0
  185.4710  178.7370  146.9470 N   0  0  0  0  0  0  0  0  0  0  0  0
  187.7810  178.1660  147.1340 C   0  0  0  0  0  3  0  0  0  0  0  0
  186.6910  178.1790  144.9800 C   0  0  0  0  0  3  0  0  0  0  0  0
  185.4930  178.5620  145.5940 C   0  0  0  0  0  0  0  0  0  0  0  0
  187.8390  177.9750  145.7480 C   0  0  0  0  0  0  0  0  0  0  0  0
  186.5750  178.5490  147.7200 C   0  0  0  0  0  3  0  0  0  0  0  0
  184.2500  178.8000  144.8210 C   0  0  0  0  0  0  0  0  0  0  0  0
  183.2120  179.1420  145.4470 O   0  0  0  0  0  0  0  0  0  0  0  0
  184.1570  178.6610  143.3940 N   0  0  0  0  0  2  0  0  0  0  0  0
  185.2190  178.2140  142.5070 C   0  0  0  0  0  1  0  0  0  0  0  0
  189.8990  176.6280  147.2270 N   0  0  0  0  0  2  0  0  0  0  0  0
  191.2500  176.7340  147.6650 N   0  0  0  0  0  0  0  0  0  0  0  0
  189.8800  176.4450  145.7670 C   0  0  2  0  0  3  0  0  0  0  0  0
  191.2870  176.4140  145.3990 C   0  0  0  0  0  0  0  0  0  0  0  0
  192.0700  176.5840  146.5380 N   0  0  0  0  0  0  0  0  0  0  0  0
  191.7510  176.2370  144.2420 O   0  0  0  0  0  0  0  0  0  0  0  0
  189.4340  177.8710  142.6870 C   0  0  0  0  0  0  0  0  0  0  0  0
  188.8770  177.2560  143.6730 N   0  0  0  0  0  0  0  0  0  0  0  0
  190.3810  179.0190  142.9040 C   0  0  0  0  0  1  0  0  0  0  0  0
  188.9910  178.3500  139.0950 C   0  0  1  0  0  3  0  0  0  0  0  0
  190.2820  177.5690  139.2600 C   0  0  2  0  0  3  0  0  0  0  0  0
  190.3180  176.5050  138.1750 C   0  0  1  0  0  3  0  0  0  0  0  0
  191.2670  175.4480  138.4880 N   0  0  0  0  0  1  0  0  0  0  0  0
  188.9250  175.9450  138.0400 C   0  0  0  0  0  2  0  0  0  0  0  0
  187.7830  177.3490  138.1570 S   0  0  0  0  0  0  0  0  0  0  0  0
  188.4890  178.5630  140.4970 C   0  0  0  0  0  2  0  0  0  0  0  0
  189.1030  177.4350  141.2940 C   0  0  1  0  0  3  0  0  0  0  0  0
  190.3000  176.9750  140.5990 N   0  0  0  0  0  2  0  0  0  0  0  0
  1 19  1  6  0  0  0
  1  6  1  0  0  0  0
  2  7  1  0  0  0  0
  3  7  2  0  0  0  0
  4  5  1  0  0  0  0
  4  6  2  0  0  0  0
  5  2  2  0  0  0  0
  6  3  1  0  0  0  0
  8  9  2  0  0  0  0
  8  5  1  0  0  0  0
 10  8  1  0  0  0  0
 11 10  1  0  0  0  0
 12 13  1  0  0  0  0
 14  1  1  6  0  0  0
 14 12  1  0  0  0  0
 15 14  1  0  0  0  0
 15 16  1  0  0  0  0
 16 13  2  0  0  0  0
 17 15  2  0  0  0  0
 18 20  1  0  0  0  0
 18 19  2  0  0  0  0
 21 22  1  0  0  0  0
 21 27  1  1  0  0  0
 22 29  1  1  0  0  0
 23 24  1  1  0  0  0
 23 22  1  0  0  0  0
 25 26  1  0  0  0  0
 25 23  1  0  0  0  0
 26 21  1  0  0  0  0
 27 28  1  0  0  0  0
 28 18  1  1  0  0  0
 29 28  1  0  0  0  0
M  END
>  <MODEL>
1

>  <REMARK>
 VINA RESULT:      -8.7      0.000      0.000
  Name = 
  5 active torsions:
  status: ('A' for Active; 'I' for Inactive)
    1  A    between atoms: C_6  and  C_29
    2  A    between atoms: C_9  and  C_11
    3  A    between atoms: C_12  and  C_26
    4  A    between atoms: N_14  and  C_29
    5  A    between atoms: C_19  and  C_29
                            x       y       z     vdW  Elec       q    Type
                         _______ _______ _______ _____ _____    ______ ____

>  <TORSDO>
F 5

$$$$
=
 OpenBabel10222421093D

 29 32  0  0  1  0  0  0  0  0999 V2000
  185.7410  178.1990  142.4200 C   0  0  1  0  0  3  0  0  0  0  0  0
  181.5460  178.7700  142.9260 N   0  0  0  0  0  0  0  0  0  0  0  0
  183.7500  178.8700  143.8350 C   0  0  0  0  0  3  0  0  0  0  0  0
  183.3900  178.1160  141.5700 C   0  0  0  0  0  3  0  0  0  0  0  0
  182.0130  178.3060  141.7310 C   0  0  0  0  0  0  0  0  0  0  0  0
  184.2650  178.3930  142.6230 C   0  0  0  0  0  0  0  0  0  0  0  0
  182.3740  179.0520  143.9670 C   0  0  0  0  0  3  0  0  0  0  0  0
  181.0460  178.0360  140.6390 C   0  0  0  0  0  0  0  0  0  0  0  0
  180.3770  176.9690  140.6840 O   0  0  0  0  0  0  0  0  0  0  0  0
  180.8250  178.9200  139.5290 N   0  0  0  0  0  2  0  0  0  0  0  0
  181.5400  180.1580  139.2660 C   0  0  0  0  0  1  0  0  0  0  0  0
  185.3190  179.4970  140.3370 N   0  0  0  0  0  2  0  0  0  0  0  0
  185.6850  179.0130  139.0490 N   0  0  0  0  0  0  0  0  0  0  0  0
  186.3400  179.0860  141.3130 C   0  0  2  0  0  3  0  0  0  0  0  0
  187.3250  178.3760  140.5120 C   0  0  0  0  0  0  0  0  0  0  0  0
  186.9140  178.3510  139.1820 N   0  0  0  0  0  0  0  0  0  0  0  0
  188.4020  177.8740  140.9280 O   0  0  0  0  0  0  0  0  0  0  0  0
  187.2810  177.5110  144.1480 C   0  0  0  0  0  0  0  0  0  0  0  0
  186.4580  178.3780  143.6650 N   0  0  0  0  0  0  0  0  0  0  0  0
  187.5490  176.2040  143.4540 C   0  0  0  0  0  1  0  0  0  0  0  0
  188.0770  176.9640  147.6680 C   0  0  1  0  0  3  0  0  0  0  0  0
  189.3000  176.5210  146.8850 C   0  0  2  0  0  3  0  0  0  0  0  0
  190.5280  177.0020  147.6400 C   0  0  1  0  0  3  0  0  0  0  0  0
  191.7100  177.0170  146.7930 N   0  0  0  0  0  1  0  0  0  0  0  0
  190.2300  178.3860  148.1600 C   0  0  0  0  0  2  0  0  0  0  0  0
  188.5190  178.3620  148.7590 S   0  0  0  0  0  0  0  0  0  0  0  0
  187.0990  177.4270  146.6230 C   0  0  0  0  0  2  0  0  0  0  0  0
  187.9620  177.8160  145.4440 C   0  0  1  0  0  3  0  0  0  0  0  0
  189.2300  177.1010  145.5430 N   0  0  0  0  0  2  0  0  0  0  0  0
  1  6  1  0  0  0  0
  1 19  1  1  0  0  0
  2  7  1  0  0  0  0
  3  7  2  0  0  0  0
  4  5  1  0  0  0  0
  4  6  2  0  0  0  0
  5  2  2  0  0  0  0
  6  3  1  0  0  0  0
  8  9  2  0  0  0  0
  8  5  1  0  0  0  0
 10  8  1  0  0  0  0
 11 10  1  0  0  0  0
 12 14  1  0  0  0  0
 13 16  2  0  0  0  0
 13 12  1  0  0  0  0
 14  1  1  1  0  0  0
 15 17  2  0  0  0  0
 15 14  1  0  0  0  0
 16 15  1  0  0  0  0
 19 18  2  0  0  0  0
 20 18  1  0  0  0  0
 21 27  1  6  0  0  0
 21 26  1  0  0  0  0
 22 29  1  6  0  0  0
 22 23  1  0  0  0  0
 22 21  1  0  0  0  0
 23 24  1  6  0  0  0
 23 25  1  0  0  0  0
 25 26  1  0  0  0  0
 28 18  1  6  0  0  0
 28 29  1  0  0  0  0
 28 27  1  0  0  0  0
M  END
>  <MODEL>
2

>  <REMARK>
 VINA RESULT:      -8.3      3.547      6.736
  Name = 
  5 active torsions:
  status: ('A' for Active; 'I' for Inactive)
    1  A    between atoms: C_6  and  C_29
    2  A    between atoms: C_9  and  C_11
    3  A    between atoms: C_12  and  C_26
    4  A    between atoms: N_14  and  C_29
    5  A    between atoms: C_19  and  C_29
                            x       y       z     vdW  Elec       q    Type
                         _______ _______ _______ _____ _____    ______ ____

>  <TORSDO>
F 5

$$$$
=
 OpenBabel10222421093D

 29 32  0  0  1  0  0  0  0  0999 V2000
  190.8370  176.0290  138.0000 C   0  0  1  0  0  3  0  0  0  0  0  0
  194.8220  175.3920  136.6210 N   0  0  0  0  0  0  0  0  0  0  0  0
  192.6200  176.2160  136.2100 C   0  0  0  0  0  3  0  0  0  0  0  0
  193.1690  175.1830  138.3220 C   0  0  0  0  0  3  0  0  0  0  0  0
  194.4790  174.9770  137.8750 C   0  0  0  0  0  0  0  0  0  0  0  0
  192.2330  175.8000  137.4900 C   0  0  0  0  0  0  0  0  0  0  0  0
  193.9320  175.9980  135.7910 C   0  0  0  0  0  3  0  0  0  0  0  0
  195.5120  174.3350  138.7250 C   0  0  0  0  0  0  0  0  0  0  0  0
  196.1490  175.0560  139.5380 O   0  0  0  0  0  0  0  0  0  0  0  0
  195.8310  172.9350  138.6770 N   0  0  0  0  0  2  0  0  0  0  0  0
  195.2560  171.9580  137.7660 C   0  0  0  0  0  1  0  0  0  0  0  0
  190.3960  173.6910  137.2660 N   0  0  0  0  0  2  0  0  0  0  0  0
  190.2850  173.3300  135.8930 N   0  0  0  0  0  0  0  0  0  0  0  0
  189.8040  175.0230  137.4620 C   0  0  2  0  0  3  0  0  0  0  0  0
  189.3160  175.3890  136.1420 C   0  0  0  0  0  0  0  0  0  0  0  0
  189.6110  174.3710  135.2380 N   0  0  0  0  0  0  0  0  0  0  0  0
  188.6980  176.4430  135.8410 O   0  0  0  0  0  0  0  0  0  0  0  0
  190.1800  176.9420  140.1370 C   0  0  0  0  0  0  0  0  0  0  0  0
  190.8200  176.0600  139.4480 N   0  0  0  0  0  0  0  0  0  0  0  0
  189.4050  178.0500  139.4780 C   0  0  0  0  0  1  0  0  0  0  0  0
  191.0900  178.1130  143.4720 C   0  0  1  0  0  3  0  0  0  0  0  0
  189.5990  178.3600  143.3310 C   0  0  2  0  0  3  0  0  0  0  0  0
  188.9440  177.9890  144.6510 C   0  0  1  0  0  3  0  0  0  0  0  0
  187.5140  177.7750  144.5020 N   0  0  0  0  0  1  0  0  0  0  0  0
  189.6170  176.7370  145.1570 C   0  0  0  0  0  2  0  0  0  0  0  0
  191.3910  176.9300  144.8330 S   0  0  0  0  0  0  0  0  0  0  0  0
  191.5030  177.4950  142.1650 C   0  0  0  0  0  2  0  0  0  0  0  0
  190.2380  176.8620  141.6290 C   0  0  1  0  0  3  0  0  0  0  0  0
  189.0930  177.5410  142.2280 N   0  0  0  0  0  2  0  0  0  0  0  0
  1 19  1  1  0  0  0
  2  5  1  0  0  0  0
  3  6  2  0  0  0  0
  5  4  2  0  0  0  0
  5  8  1  0  0  0  0
  6  1  1  0  0  0  0
  6  4  1  0  0  0  0
  7  3  1  0  0  0  0
  7  2  2  0  0  0  0
  8  9  2  0  0  0  0
 10  8  1  0  0  0  0
 11 10  1  0  0  0  0
 12 14  1  0  0  0  0
 13 12  1  0  0  0  0
 14  1  1  6  0  0  0
 15 14  1  0  0  0  0
 16 13  2  0  0  0  0
 16 15  1  0  0  0  0
 17 15  2  0  0  0  0
 19 18  2  0  0  0  0
 20 18  1  0  0  0  0
 21 27  1  6  0  0  0
 21 26  1  0  0  0  0
 22 29  1  6  0  0  0
 22 21  1  0  0  0  0
 22 23  1  0  0  0  0
 23 24  1  6  0  0  0
 23 25  1  0  0  0  0
 26 25  1  0  0  0  0
 28 18  1  6  0  0  0
 28 27  1  0  0  0  0
 28 29  1  0  0  0  0
M  END
>  <MODEL>
3

>  <REMARK>
 VINA RESULT:      -8.2      3.829      9.583
  Name = 
  5 active torsions:
  status: ('A' for Active; 'I' for Inactive)
    1  A    between atoms: C_6  and  C_29
    2  A    between atoms: C_9  and  C_11
    3  A    between atoms: C_12  and  C_26
    4  A    between atoms: N_14  and  C_29
    5  A    between atoms: C_19  and  C_29
                            x       y       z     vdW  Elec       q    Type
                         _______ _______ _______ _____ _____    ______ ____

>  <TORSDO>
F 5

$$$$
=
 OpenBabel10222421093D

 29 32  0  0  1  0  0  0  0  0999 V2000
  188.4820  178.1570  141.5780 C   0  0  1  0  0  3  0  0  0  0  0  0
  184.2680  178.7230  141.9120 N   0  0  0  0  0  0  0  0  0  0  0  0
  186.3510  178.1880  142.9470 C   0  0  0  0  0  3  0  0  0  0  0  0
  186.2470  178.6890  140.5880 C   0  0  0  0  0  3  0  0  0  0  0  0
  184.8640  178.8800  140.6950 C   0  0  0  0  0  0  0  0  0  0  0  0
  186.9960  178.3380  141.7140 C   0  0  0  0  0  0  0  0  0  0  0  0
  184.9720  178.3860  143.0250 C   0  0  0  0  0  3  0  0  0  0  0  0
  184.0280  179.2630  139.5310 C   0  0  0  0  0  0  0  0  0  0  0  0
  184.1360  180.4320  139.0760 O   0  0  0  0  0  0  0  0  0  0  0  0
  183.0980  178.3760  138.8880 N   0  0  0  0  0  2  0  0  0  0  0  0
  182.7850  177.0180  139.3020 C   0  0  0  0  0  1  0  0  0  0  0  0
  190.5580  178.3710  142.9360 N   0  0  0  0  0  2  0  0  0  0  0  0
  191.4850  177.3000  143.0880 N   0  0  0  0  0  0  0  0  0  0  0  0
  189.1930  177.8240  142.9020 C   0  0  2  0  0  3  0  0  0  0  0  0
  189.3840  176.3920  143.0780 C   0  0  0  0  0  0  0  0  0  0  0  0
  190.7440  176.1140  143.1870 N   0  0  0  0  0  0  0  0  0  0  0  0
  188.4770  175.5230  143.1490 O   0  0  0  0  0  0  0  0  0  0  0  0
  189.1550  177.4610  139.3660 C   0  0  0  0  0  0  0  0  0  0  0  0
  188.7870  177.1670  140.5670 N   0  0  0  0  0  0  0  0  0  0  0  0
  189.2740  178.8860  138.9030 C   0  0  0  0  0  1  0  0  0  0  0  0
  189.8990  176.0200  136.0960 C   0  0  1  0  0  3  0  0  0  0  0  0
  191.1960  175.9710  136.8830 C   0  0  2  0  0  3  0  0  0  0  0  0
  191.8610  174.6350  136.5920 C   0  0  1  0  0  3  0  0  0  0  0  0
  192.8600  174.3010  137.5930 N   0  0  0  0  0  1  0  0  0  0  0  0
  190.7780  173.5870  136.5520 C   0  0  0  0  0  2  0  0  0  0  0  0
  189.3700  174.3210  135.6760 S   0  0  0  0  0  0  0  0  0  0  0  0
  188.9020  176.6410  137.0350 C   0  0  0  0  0  2  0  0  0  0  0  0
  189.4460  176.3440  138.4150 C   0  0  1  0  0  3  0  0  0  0  0  0
  190.8840  176.1190  138.3060 N   0  0  0  0  0  2  0  0  0  0  0  0
  1 19  1  6  0  0  0
  1  6  1  0  0  0  0
  2  7  1  0  0  0  0
  3  7  2  0  0  0  0
  4  5  1  0  0  0  0
  4  6  2  0  0  0  0
  5  2  2  0  0  0  0
  6  3  1  0  0  0  0
  8  5  1  0  0  0  0
  9  8  2  0  0  0  0
 10 11  1  0  0  0  0
 10  8  1  0  0  0  0
 12 13  1  0  0  0  0
 13 16  2  0  0  0  0
 14  1  1  6  0  0  0
 14 12  1  0  0  0  0
 14 15  1  0  0  0  0
 15 17  2  0  0  0  0
 15 16  1  0  0  0  0
 18 19  2  0  0  0  0
 20 18  1  0  0  0  0
 21 22  1  0  0  0  0
 21 27  1  1  0  0  0
 22 29  1  1  0  0  0
 23 22  1  0  0  0  0
 23 24  1  1  0  0  0
 25 23  1  0  0  0  0
 26 21  1  0  0  0  0
 26 25  1  0  0  0  0
 27 28  1  0  0  0  0
 28 18  1  1  0  0  0
 29 28  1  0  0  0  0
M  END
>  <MODEL>
4

>  <REMARK>
 VINA RESULT:      -8.1      2.984      4.071
  Name = 
  5 active torsions:
  status: ('A' for Active; 'I' for Inactive)
    1  A    between atoms: C_6  and  C_29
    2  A    between atoms: C_9  and  C_11
    3  A    between atoms: C_12  and  C_26
    4  A    between atoms: N_14  and  C_29
    5  A    between atoms: C_19  and  C_29
                            x       y       z     vdW  Elec       q    Type
                         _______ _______ _______ _____ _____    ______ ____

>  <TORSDO>
F 5

$$$$
=
 OpenBabel10222421093D

 29 32  0  0  1  0  0  0  0  0999 V2000
  188.2280  178.2100  141.6260 C   0  0  1  0  0  3  0  0  0  0  0  0
  184.1850  178.9690  142.7530 N   0  0  0  0  0  0  0  0  0  0  0  0
  185.8240  178.7480  141.0320 C   0  0  0  0  0  3  0  0  0  0  0  0
  186.4370  178.4780  143.3520 C   0  0  0  0  0  3  0  0  0  0  0  0
  185.1100  178.7230  143.7250 C   0  0  0  0  0  0  0  0  0  0  0  0
  186.8010  178.4950  142.0040 C   0  0  0  0  0  0  0  0  0  0  0  0
  184.5100  178.9870  141.4320 C   0  0  0  0  0  3  0  0  0  0  0  0
  184.6730  178.7070  145.1430 C   0  0  0  0  0  0  0  0  0  0  0  0
  183.5360  179.1690  145.4230 O   0  0  0  0  0  0  0  0  0  0  0  0
  185.4730  178.1940  146.2200 N   0  0  0  0  0  2  0  0  0  0  0  0
  186.8290  177.6820  146.1100 C   0  0  0  0  0  1  0  0  0  0  0  0
  190.5220  178.1370  142.5920 N   0  0  0  0  0  2  0  0  0  0  0  0
  191.3100  176.9500  142.5990 N   0  0  0  0  0  0  0  0  0  0  0  0
  189.1120  177.7780  142.8100 C   0  0  2  0  0  3  0  0  0  0  0  0
  189.1380  176.3340  142.9780 C   0  0  0  0  0  0  0  0  0  0  0  0
  190.4470  175.8740  142.8510 N   0  0  0  0  0  0  0  0  0  0  0  0
  188.1510  175.5940  143.2260 O   0  0  0  0  0  0  0  0  0  0  0  0
  188.6930  177.5110  139.3620 C   0  0  0  0  0  0  0  0  0  0  0  0
  188.2900  177.2370  140.5560 N   0  0  0  0  0  0  0  0  0  0  0  0
  189.1150  178.9000  138.9700 C   0  0  0  0  0  1  0  0  0  0  0  0
  189.0220  176.1350  135.9980 C   0  0  1  0  0  3  0  0  0  0  0  0
  190.3020  175.7710  136.7290 C   0  0  2  0  0  3  0  0  0  0  0  0
  190.6610  174.3440  136.3460 C   0  0  1  0  0  3  0  0  0  0  0  0
  191.5960  173.7520  137.2890 N   0  0  0  0  0  1  0  0  0  0  0  0
  189.3800  173.5490  136.2980 C   0  0  0  0  0  2  0  0  0  0  0  0
  188.1350  174.6110  135.5160 S   0  0  0  0  0  0  0  0  0  0  0  0
  188.2070  176.8960  137.0060 C   0  0  0  0  0  2  0  0  0  0  0  0
  188.7140  176.4140  138.3460 C   0  0  1  0  0  3  0  0  0  0  0  0
  190.0680  175.9000  138.1690 N   0  0  0  0  0  2  0  0  0  0  0  0
  1 19  1  6  0  0  0
  1  6  1  0  0  0  0
  2  5  1  0  0  0  0
  3  7  1  0  0  0  0
  3  6  2  0  0  0  0
  4  5  2  0  0  0  0
  5  8  1  0  0  0  0
  6  4  1  0  0  0  0
  7  2  2  0  0  0  0
  8  9  2  0  0  0  0
  8 10  1  0  0  0  0
 11 10  1  0  0  0  0
 12 13  1  0  0  0  0
 12 14  1  0  0  0  0
 13 16  2  0  0  0  0
 14  1  1  6  0  0  0
 14 15  1  0  0  0  0
 15 17  2  0  0  0  0
 16 15  1  0  0  0  0
 18 19  2  0  0  0  0
 20 18  1  0  0  0  0
 21 22  1  0  0  0  0
 21 27  1  1  0  0  0
 22 29  1  1  0  0  0
 23 22  1  0  0  0  0
 23 24  1  1  0  0  0
 25 23  1  0  0  0  0
 26 21  1  0  0  0  0
 26 25  1  0  0  0  0
 27 28  1  0  0  0  0
 28 18  1  1  0  0  0
 29 28  1  0  0  0  0
M  END
>  <MODEL>
5

>  <REMARK>
 VINA RESULT:      -8.0      2.267      3.712
  Name = 
  5 active torsions:
  status: ('A' for Active; 'I' for Inactive)
    1  A    between atoms: C_6  and  C_29
    2  A    between atoms: C_9  and  C_11
    3  A    between atoms: C_12  and  C_26
    4  A    between atoms: N_14  and  C_29
    5  A    between atoms: C_19  and  C_29
                            x       y       z     vdW  Elec       q    Type
                         _______ _______ _______ _____ _____    ______ ____

>  <TORSDO>
F 5

$$$$
=
 OpenBabel10222421093D

 29 32  0  0  1  0  0  0  0  0999 V2000
  190.0610  176.7870  138.3940 C   0  0  1  0  0  3  0  0  0  0  0  0
  190.3310  177.4740  142.5950 N   0  0  0  0  0  0  0  0  0  0  0  0
  191.4120  177.3080  140.4740 C   0  0  0  0  0  3  0  0  0  0  0  0
  189.0300  176.9660  140.6660 C   0  0  0  0  0  3  0  0  0  0  0  0
  189.1140  177.1960  142.0440 C   0  0  0  0  0  0  0  0  0  0  0  0
  190.1800  177.0170  139.8750 C   0  0  0  0  0  0  0  0  0  0  0  0
  191.4660  177.5340  141.8490 C   0  0  0  0  0  3  0  0  0  0  0  0
  187.9200  177.1620  142.9240 C   0  0  0  0  0  0  0  0  0  0  0  0
  187.9260  176.3780  143.9100 O   0  0  0  0  0  0  0  0  0  0  0  0
  186.7520  177.9730  142.7190 N   0  0  0  0  0  2  0  0  0  0  0  0
  186.5280  178.8850  141.6090 C   0  0  0  0  0  1  0  0  0  0  0  0
  188.7220  178.8850  138.3420 N   0  0  0  0  0  2  0  0  0  0  0  0
  187.5170  179.0030  137.5920 N   0  0  0  0  0  0  0  0  0  0  0  0
  189.6710  178.0440  137.5970 C   0  0  2  0  0  3  0  0  0  0  0  0
  188.9630  177.7190  136.3690 C   0  0  0  0  0  0  0  0  0  0  0  0
  187.6970  178.2990  136.3920 N   0  0  0  0  0  0  0  0  0  0  0  0
  189.4120  177.0410  135.4080 O   0  0  0  0  0  0  0  0  0  0  0  0
  191.3310  175.0320  137.3270 C   0  0  0  0  0  0  0  0  0  0  0  0
  191.2770  176.2010  137.8690 N   0  0  0  0  0  0  0  0  0  0  0  0
  190.1150  174.1540  137.2190 C   0  0  0  0  0  1  0  0  0  0  0  0
  194.7570  175.4170  136.1290 C   0  0  1  0  0  3  0  0  0  0  0  0
  194.8630  174.8790  137.5440 C   0  0  2  0  0  3  0  0  0  0  0  0
  195.9700  173.8360  137.5580 C   0  0  1  0  0  3  0  0  0  0  0  0
  195.8750  172.9650  138.7180 N   0  0  0  0  0  1  0  0  0  0  0  0
  195.8580  173.0370  136.2840 C   0  0  0  0  0  2  0  0  0  0  0  0
  195.4830  174.2160  134.9580 S   0  0  0  0  0  0  0  0  0  0  0  0
  193.2800  175.5410  135.8750 C   0  0  0  0  0  2  0  0  0  0  0  0
  192.6490  174.5410  136.8180 C   0  0  1  0  0  3  0  0  0  0  0  0
  193.5720  174.3000  137.9210 N   0  0  0  0  0  2  0  0  0  0  0  0
  1 19  1  6  0  0  0
  1  6  1  0  0  0  0
  3  7  1  0  0  0  0
  4  5  2  0  0  0  0
  5  2  1  0  0  0  0
  5  8  1  0  0  0  0
  6  3  2  0  0  0  0
  6  4  1  0  0  0  0
  7  2  2  0  0  0  0
  8  9  2  0  0  0  0
 10  8  1  0  0  0  0
 11 10  1  0  0  0  0
 13 12  1  0  0  0  0
 14 12  1  0  0  0  0
 14  1  1  1  0  0  0
 15 16  1  0  0  0  0
 15 14  1  0  0  0  0
 16 13  2  0  0  0  0
 17 15  2  0  0  0  0
 18 19  2  0  0  0  0
 20 18  1  0  0  0  0
 21 27  1  6  0  0  0
 21 22  1  0  0  0  0
 22 23  1  0  0  0  0
 22 29  1  6  0  0  0
 23 24  1  1  0  0  0
 25 23  1  0  0  0  0
 26 21  1  0  0  0  0
 26 25  1  0  0  0  0
 27 28  1  0  0  0  0
 28 18  1  1  0  0  0
 28 29  1  0  0  0  0
M  END
>  <MODEL>
6

>  <REMARK>
 VINA RESULT:      -7.7      4.043      7.148
  Name = 
  5 active torsions:
  status: ('A' for Active; 'I' for Inactive)
    1  A    between atoms: C_6  and  C_29
    2  A    between atoms: C_9  and  C_11
    3  A    between atoms: C_12  and  C_26
    4  A    between atoms: N_14  and  C_29
    5  A    between atoms: C_19  and  C_29
                            x       y       z     vdW  Elec       q    Type
                         _______ _______ _______ _____ _____    ______ ____

>  <TORSDO>
F 5

$$$$
=
 OpenBabel10222421093D

 29 32  0  0  1  0  0  0  0  0999 V2000
  189.8690  177.0460  138.1300 C   0  0  1  0  0  3  0  0  0  0  0  0
  188.4040  173.3090  136.6880 N   0  0  0  0  0  0  0  0  0  0  0  0
  190.2540  174.7530  137.1230 C   0  0  0  0  0  3  0  0  0  0  0  0
  188.0000  175.4620  137.6200 C   0  0  0  0  0  3  0  0  0  0  0  0
  187.5170  174.2350  137.1520 C   0  0  0  0  0  0  0  0  0  0  0  0
  189.3710  175.7290  137.6040 C   0  0  0  0  0  0  0  0  0  0  0  0
  189.7440  173.5390  136.6640 C   0  0  0  0  0  3  0  0  0  0  0  0
  186.0710  173.9030  137.1590 C   0  0  0  0  0  0  0  0  0  0  0  0
  185.6620  173.0300  137.9690 O   0  0  0  0  0  0  0  0  0  0  0  0
  185.1050  174.5180  136.2920 N   0  0  0  0  0  2  0  0  0  0  0  0
  185.3880  175.4920  135.2500 C   0  0  0  0  0  1  0  0  0  0  0  0
  188.2360  178.9070  137.8610 N   0  0  0  0  0  2  0  0  0  0  0  0
  187.1820  178.8650  136.9040 N   0  0  0  0  0  0  0  0  0  0  0  0
  189.4280  178.2590  137.2920 C   0  0  2  0  0  3  0  0  0  0  0  0
  189.0140  177.8790  135.9500 C   0  0  0  0  0  0  0  0  0  0  0  0
  187.6870  178.2510  135.7490 N   0  0  0  0  0  0  0  0  0  0  0  0
  189.7320  177.3230  135.0790 O   0  0  0  0  0  0  0  0  0  0  0  0
  190.3410  177.4340  140.4660 C   0  0  0  0  0  0  0  0  0  0  0  0
  189.4940  177.2170  139.5180 N   0  0  0  0  0  0  0  0  0  0  0  0
  191.8200  177.5020  140.2040 C   0  0  0  0  0  1  0  0  0  0  0  0
  188.6990  176.3210  143.5300 C   0  0  1  0  0  3  0  0  0  0  0  0
  190.1820  176.3780  143.8440 C   0  0  2  0  0  3  0  0  0  0  0  0
  190.3350  176.9630  145.2390 C   0  0  1  0  0  3  0  0  0  0  0  0
  191.6820  177.4580  145.4720 N   0  0  0  0  0  1  0  0  0  0  0  0
  189.3290  178.0790  145.3780 C   0  0  0  0  0  2  0  0  0  0  0  0
  187.7980  177.5020  144.5950 S   0  0  0  0  0  0  0  0  0  0  0  0
  188.5930  176.7530  142.0940 C   0  0  0  0  0  2  0  0  0  0  0  0
  189.8260  177.5970  141.8610 C   0  0  1  0  0  3  0  0  0  0  0  0
  190.8410  177.2110  142.8360 N   0  0  0  0  0  2  0  0  0  0  0  0
  1 19  1  1  0  0  0
  2  5  1  0  0  0  0
  3  6  2  0  0  0  0
  5  8  1  0  0  0  0
  5  4  2  0  0  0  0
  6  4  1  0  0  0  0
  6  1  1  0  0  0  0
  7  2  2  0  0  0  0
  7  3  1  0  0  0  0
  8  9  2  0  0  0  0
 10  8  1  0  0  0  0
 11 10  1  0  0  0  0
 13 12  1  0  0  0  0
 14 12  1  0  0  0  0
 14  1  1  1  0  0  0
 15 14  1  0  0  0  0
 16 15  1  0  0  0  0
 16 13  2  0  0  0  0
 17 15  2  0  0  0  0
 19 18  2  0  0  0  0
 20 18  1  0  0  0  0
 21 27  1  6  0  0  0
 21 22  1  0  0  0  0
 21 26  1  0  0  0  0
 22 29  1  6  0  0  0
 22 23  1  0  0  0  0
 23 25  1  0  0  0  0
 23 24  1  6  0  0  0
 26 25  1  0  0  0  0
 28 18  1  6  0  0  0
 28 27  1  0  0  0  0
 28 29  1  0  0  0  0
M  END
>  <MODEL>
7

>  <REMARK>
 VINA RESULT:      -7.5      3.918      8.182
  Name = 
  5 active torsions:
  status: ('A' for Active; 'I' for Inactive)
    1  A    between atoms: C_6  and  C_29
    2  A    between atoms: C_9  and  C_11
    3  A    between atoms: C_12  and  C_26
    4  A    between atoms: N_14  and  C_29
    5  A    between atoms: C_19  and  C_29
                            x       y       z     vdW  Elec       q    Type
                         _______ _______ _______ _____ _____    ______ ____

>  <TORSDO>
F 5

$$$$
=
 OpenBabel10222421093D

 29 32  0  0  1  0  0  0  0  0999 V2000
  190.7140  177.1230  137.9070 C   0  0  1  0  0  3  0  0  0  0  0  0
  192.9120  173.6840  136.6690 N   0  0  0  0  0  0  0  0  0  0  0  0
  190.8220  174.6770  137.2550 C   0  0  0  0  0  3  0  0  0  0  0  0
  192.8530  175.9810  137.2920 C   0  0  0  0  0  3  0  0  0  0  0  0
  193.5770  174.8560  136.8810 C   0  0  0  0  0  0  0  0  0  0  0  0
  191.4730  175.8960  137.4850 C   0  0  0  0  0  0  0  0  0  0  0  0
  191.5680  173.5720  136.8450 C   0  0  0  0  0  3  0  0  0  0  0  0
  195.0420  174.9000  136.6530 C   0  0  0  0  0  0  0  0  0  0  0  0
  195.4590  175.0880  135.4800 O   0  0  0  0  0  0  0  0  0  0  0  0
  196.0190  174.7390  137.6940 N   0  0  0  0  0  2  0  0  0  0  0  0
  195.7390  174.4500  139.0920 C   0  0  0  0  0  1  0  0  0  0  0  0
  189.4190  178.9070  136.7500 N   0  0  0  0  0  2  0  0  0  0  0  0
  188.1650  179.3770  137.2360 N   0  0  0  0  0  0  0  0  0  0  0  0
  189.5190  177.4610  136.9990 C   0  0  2  0  0  3  0  0  0  0  0  0
  188.2460  177.1210  137.6160 C   0  0  0  0  0  0  0  0  0  0  0  0
  187.4680  178.2700  137.7400 N   0  0  0  0  0  0  0  0  0  0  0  0
  187.8720  175.9730  137.9680 O   0  0  0  0  0  0  0  0  0  0  0  0
  191.0870  177.1910  140.2920 C   0  0  0  0  0  0  0  0  0  0  0  0
  190.2960  177.0160  139.2890 N   0  0  0  0  0  0  0  0  0  0  0  0
  192.5460  177.5030  140.1020 C   0  0  0  0  0  1  0  0  0  0  0  0
  190.3710  178.3250  143.6870 C   0  0  1  0  0  3  0  0  0  0  0  0
  189.0550  178.3910  142.9340 C   0  0  2  0  0  3  0  0  0  0  0  0
  187.9660  177.8860  143.8660 C   0  0  1  0  0  3  0  0  0  0  0  0
  186.7670  177.5040  143.1370 N   0  0  0  0  0  1  0  0  0  0  0  0
  188.5250  176.7080  144.6230 C   0  0  0  0  0  2  0  0  0  0  0  0
  190.2320  177.1320  145.0650 S   0  0  0  0  0  0  0  0  0  0  0  0
  191.3660  177.8180  142.6790 C   0  0  0  0  0  2  0  0  0  0  0  0
  190.5310  177.0570  141.6740 C   0  0  1  0  0  3  0  0  0  0  0  0
  189.1630  177.5620  141.7310 N   0  0  0  0  0  2  0  0  0  0  0  0
  1 19  1  1  0  0  0
  2  7  2  0  0  0  0
  2  5  1  0  0  0  0
  3  6  2  0  0  0  0
  4  6  1  0  0  0  0
  5  4  2  0  0  0  0
  6  1  1  0  0  0  0
  7  3  1  0  0  0  0
  8  5  1  0  0  0  0
  8 10  1  0  0  0  0
  9  8  2  0  0  0  0
 10 11  1  0  0  0  0
 12 14  1  0  0  0  0
 12 13  1  0  0  0  0
 13 16  2  0  0  0  0
 14 15  1  0  0  0  0
 14  1  1  1  0  0  0
 15 16  1  0  0  0  0
 15 17  2  0  0  0  0
 19 18  2  0  0  0  0
 20 18  1  0  0  0  0
 21 27  1  6  0  0  0
 21 26  1  0  0  0  0
 22 29  1  6  0  0  0
 22 21  1  0  0  0  0
 22 23  1  0  0  0  0
 23 24  1  6  0  0  0
 23 25  1  0  0  0  0
 25 26  1  0  0  0  0
 28 18  1  6  0  0  0
 28 29  1  0  0  0  0
 28 27  1  0  0  0  0
M  END
>  <MODEL>
8

>  <REMARK>
 VINA RESULT:      -7.4      3.847      9.267
  Name = 
  5 active torsions:
  status: ('A' for Active; 'I' for Inactive)
    1  A    between atoms: C_6  and  C_29
    2  A    between atoms: C_9  and  C_11
    3  A    between atoms: C_12  and  C_26
    4  A    between atoms: N_14  and  C_29
    5  A    between atoms: C_19  and  C_29
                            x       y       z     vdW  Elec       q    Type
                         _______ _______ _______ _____ _____    ______ ____

>  <TORSDO>
F 5

$$$$
=
 OpenBabel10222421093D

 29 32  0  0  1  0  0  0  0  0999 V2000
  189.4500  176.8220  138.2190 C   0  0  1  0  0  3  0  0  0  0  0  0
  188.8260  177.8670  142.3060 N   0  0  0  0  0  0  0  0  0  0  0  0
  188.1160  177.9860  140.0310 C   0  0  0  0  0  3  0  0  0  0  0  0
  190.1150  176.7740  140.6300 C   0  0  0  0  0  3  0  0  0  0  0  0
  189.9110  177.1110  141.9730 C   0  0  0  0  0  0  0  0  0  0  0  0
  189.2210  177.2140  139.6520 C   0  0  0  0  0  0  0  0  0  0  0  0
  187.9360  178.3060  141.3760 C   0  0  0  0  0  3  0  0  0  0  0  0
  190.8280  176.6600  143.0480 C   0  0  0  0  0  0  0  0  0  0  0  0
  190.9860  175.4220  143.2190 O   0  0  0  0  0  0  0  0  0  0  0  0
  191.5500  177.5530  143.9110 N   0  0  0  0  0  2  0  0  0  0  0  0
  191.4520  179.0040  143.9150 C   0  0  0  0  0  1  0  0  0  0  0  0
  188.6220  179.1240  137.7520 N   0  0  0  0  0  2  0  0  0  0  0  0
  187.5560  179.3820  136.8440 N   0  0  0  0  0  0  0  0  0  0  0  0
  189.4320  178.0090  137.2380 C   0  0  2  0  0  3  0  0  0  0  0  0
  188.7980  177.6670  135.9740 C   0  0  0  0  0  0  0  0  0  0  0  0
  187.6970  178.4940  135.7670 N   0  0  0  0  0  0  0  0  0  0  0  0
  189.1800  176.7830  135.1640 O   0  0  0  0  0  0  0  0  0  0  0  0
  190.7310  174.8730  137.5940 C   0  0  0  0  0  0  0  0  0  0  0  0
  190.6760  176.0640  138.0850 N   0  0  0  0  0  0  0  0  0  0  0  0
  189.4950  174.1510  137.1340 C   0  0  0  0  0  1  0  0  0  0  0  0
  193.9290  174.0720  136.0290 C   0  0  1  0  0  3  0  0  0  0  0  0
  194.2460  175.0140  137.1770 C   0  0  2  0  0  3  0  0  0  0  0  0
  195.5050  174.5030  137.8570 C   0  0  1  0  0  3  0  0  0  0  0  0
  195.6560  175.0530  139.1950 N   0  0  0  0  0  1  0  0  0  0  0  0
  195.4150  172.9980  137.9100 C   0  0  0  0  0  2  0  0  0  0  0  0
  194.7380  172.4580  136.3170 S   0  0  0  0  0  0  0  0  0  0  0  0
  192.4360  173.9040  136.0700 C   0  0  0  0  0  2  0  0  0  0  0  0
  192.0620  174.1960  137.5060 C   0  0  1  0  0  3  0  0  0  0  0  0
  193.1050  175.0300  138.0950 N   0  0  0  0  0  2  0  0  0  0  0  0
  1 19  1  1  0  0  0
  1  6  1  0  0  0  0
  3  7  1  0  0  0  0
  4  5  2  0  0  0  0
  5  2  1  0  0  0  0
  5  8  1  0  0  0  0
  6  3  2  0  0  0  0
  6  4  1  0  0  0  0
  7  2  2  0  0  0  0
  8  9  2  0  0  0  0
  8 10  1  0  0  0  0
 10 11  1  0  0  0  0
 13 12  1  0  0  0  0
 14 12  1  0  0  0  0
 14  1  1  1  0  0  0
 15 14  1  0  0  0  0
 16 15  1  0  0  0  0
 16 13  2  0  0  0  0
 17 15  2  0  0  0  0
 18 19  2  0  0  0  0
 20 18  1  0  0  0  0
 21 27  1  1  0  0  0
 21 26  1  0  0  0  0
 21 22  1  0  0  0  0
 22 23  1  0  0  0  0
 22 29  1  1  0  0  0
 23 25  1  0  0  0  0
 23 24  1  1  0  0  0
 26 25  1  0  0  0  0
 27 28  1  0  0  0  0
 28 18  1  6  0  0  0
 28 29  1  0  0  0  0
M  END
>  <MODEL>
9

>  <REMARK>
 VINA RESULT:      -7.4      3.924      7.518
  Name = 
  5 active torsions:
  status: ('A' for Active; 'I' for Inactive)
    1  A    between atoms: C_6  and  C_29
    2  A    between atoms: C_9  and  C_11
    3  A    between atoms: C_12  and  C_26
    4  A    between atoms: N_14  and  C_29
    5  A    between atoms: C_19  and  C_29
                            x       y       z     vdW  Elec       q    Type
                         _______ _______ _______ _____ _____    ______ ____

>  <TORSDO>
F 5

$$$$
