=
 OpenBabel10222421193D

 45 50  0  0  1  0  0  0  0  0999 V2000
  190.2630  177.3500  138.2360 C   0  0  2  0  0  3  0  0  0  0  0  0
  189.5310  178.0130  139.4190 C   0  0  1  0  0  3  0  0  0  0  0  0
  188.7590  177.4980  138.2150 C   0  0  1  0  0  3  0  0  0  0  0  0
  190.5820  175.8700  138.3820 C   0  0  1  0  0  3  0  0  0  0  0  0
  190.5840  175.2460  137.1530 C   0  0  0  0  0  2  0  0  0  0  0  0
  193.3260  175.6630  137.7240 C   0  0  0  0  0  0  0  0  0  0  0  0
  193.9370  176.2110  138.6770 O   0  0  0  0  0  0  0  0  0  0  0  0
  191.9040  175.6000  137.7450 N   0  0  0  0  0  0  0  0  0  0  0  0
  194.1070  175.1260  136.5550 C   0  0  1  0  0  3  0  0  0  0  0  0
  194.8790  176.1570  135.7860 C   0  0  0  0  0  0  0  0  0  0  0  0
  196.2700  176.2000  135.8460 O   0  0  0  0  0  1  0  0  0  0  0  0
  194.2610  177.0140  135.1050 O   0  0  0  0  0  0  0  0  0  0  0  0
  193.9410  172.8430  136.7630 C   0  0  0  0  0  1  0  0  0  0  0  0
  194.8210  173.9380  136.8160 O   0  0  0  0  0  0  0  0  0  0  0  0
  188.3720  178.6800  137.3530 C   0  0  0  0  0  2  0  0  0  0  0  0
  186.8840  178.6140  137.0620 C   0  0  0  0  0  2  0  0  0  0  0  0
  185.1780  176.8960  137.6610 C   0  0  0  0  0  3  0  0  0  0  0  0
  186.3940  177.2060  137.1910 C   0  0  0  0  0  3  0  0  0  0  0  0
  184.8850  179.2250  138.4280 C   0  0  0  0  0  3  0  0  0  0  0  0
  182.9680  176.5980  139.7670 O   0  0  0  0  0  0  0  0  0  0  0  0
  184.8240  179.5410  139.6850 N   0  0  0  0  0  0  0  0  0  0  0  0
  184.1120  178.5750  140.3950 N   0  0  0  0  0  0  0  0  0  0  0  0
  183.6910  177.5880  139.4730 C   0  0  0  0  0  0  0  0  0  0  0  0
  184.1820  177.9250  138.1140 C   0  0  2  0  0  3  0  0  0  0  0  0
  183.7790  178.6740  141.7860 C   0  0  0  0  0  0  0  0  0  0  0  0
  183.9150  178.8110  143.9530 N   0  0  0  0  0  0  0  0  0  0  0  0
  184.4160  178.8880  145.2940 C   0  0  0  0  0  0  0  0  0  0  0  0
  182.6260  178.7410  143.6520 N   0  0  0  0  0  0  0  0  0  0  0  0
  182.5020  178.6520  142.3110 C   0  0  0  0  0  3  0  0  0  0  0  0
  184.6650  178.7690  142.8340 C   0  0  0  0  0  3  0  0  0  0  0  0
  183.6090  178.8540  146.2630 O   0  0  0  0  0  0  0  0  0  0  0  0
  186.1830  178.3730  146.9260 C   0  0  0  0  0  2  0  0  0  0  0  0
  185.8930  178.9540  145.5550 C   0  0  0  0  0  3  0  0  0  0  0  0
  186.4930  177.5640  145.6860 C   0  0  0  0  0  2  0  0  0  0  0  0
  189.3980  177.1750  140.7230 C   0  0  1  0  0  3  0  0  0  0  0  0
  191.9480  177.1510  141.4020 C   0  0  0  0  0  2  0  0  0  0  0  0
  190.4930  177.1400  141.8110 C   0  0  0  0  0  0  0  0  0  0  0  0
  191.3030  178.4020  141.9960 C   0  0  0  0  0  2  0  0  0  0  0  0
  190.2040  176.4160  143.1170 C   0  0  0  0  0  2  0  0  0  0  0  0
  190.1210  177.3950  144.2670 C   0  0  0  0  0  2  0  0  0  0  0  0
  191.2330  177.1140  145.2550 C   0  0  0  0  0  2  0  0  0  0  0  0
  190.5370  176.8130  146.9040 S   0  0  0  0  0  0  0  0  0  0  0  0
  191.9900  175.8540  147.4300 C   0  0  0  0  0  1  0  0  0  0  0  0
  187.7890  178.4860  141.5130 C   0  0  0  0  0  1  0  0  0  0  0  0
  188.1030  177.1490  141.2550 O   0  0  0  0  0  0  0  0  0  0  0  0
  1  4  1  1  0  0  0
  1  2  1  0  0  0  0
  2 35  1  1  0  0  0
  3 15  1  6  0  0  0
  3  1  1  0  0  0  0
  3  2  1  0  0  0  0
  4  5  1  6  0  0  0
  5  8  1  0  0  0  0
  6  8  1  0  0  0  0
  6  7  2  0  0  0  0
  8  4  1  0  0  0  0
  9 10  1  1  0  0  0
  9 14  1  0  0  0  0
  9  6  1  0  0  0  0
 10 11  1  0  0  0  0
 12 10  2  0  0  0  0
 13 14  1  0  0  0  0
 16 18  1  0  0  0  0
 16 15  1  0  0  0  0
 18 17  2  0  0  0  0
 19 21  2  0  0  0  0
 21 22  1  0  0  0  0
 22 25  1  0  0  0  0
 23 20  2  0  0  0  0
 23 22  1  0  0  0  0
 24 17  1  1  0  0  0
 24 19  1  0  0  0  0
 24 23  1  0  0  0  0
 25 29  1  0  0  0  0
 25 30  2  0  0  0  0
 26 27  1  0  0  0  0
 27 33  1  0  0  0  0
 27 31  2  0  0  0  0
 28 26  1  0  0  0  0
 29 28  2  0  0  0  0
 30 26  1  0  0  0  0
 33 34  1  0  0  0  0
 33 32  1  0  0  0  0
 34 32  1  0  0  0  0
 35 45  1  1  0  0  0
 35 37  1  0  0  0  0
 36 37  1  0  0  0  0
 36 38  1  0  0  0  0
 37 38  1  0  0  0  0
 37 39  1  0  0  0  0
 39 40  1  0  0  0  0
 40 41  1  0  0  0  0
 41 42  1  0  0  0  0
 42 43  1  0  0  0  0
 45 44  1  0  0  0  0
M  END
>  <MODEL>
1

>  <REMARK>
 VINA RESULT:      -7.2      0.000      0.000
  Name = 
  17 active torsions:
  status: ('A' for Active; 'I' for Inactive)
    1  A    between atoms: C_1  and  C_22
    2  A    between atoms: C_1  and  C_29
    3  A    between atoms: C_3  and  C_45
    4  A    between atoms: C_6  and  N_34
    5  A    between atoms: C_7  and  C_13
    6  A    between atoms: C_8  and  C_39
    7  A    between atoms: C_14  and  C_35
    8  A    between atoms: C_15  and  C_19
    9  A    between atoms: C_20  and  C_29
   10  A    between atoms: C_21  and  C_39
   11  A    between atoms: C_24  and  C_36
   12  A    between atoms: C_24  and  C_43
   13  A    between atoms: S_25  and  C_43
   14  A    between atoms: C_31  and  C_35
   15  A    between atoms: C_31  and  C_36
   16  A    between atoms: C_35  and  O_37
   17  A    between atoms: C_39  and  O_42
                            x       y       z     vdW  Elec       q    Type
                         _______ _______ _______ _____ _____    ______ ____

>  <TORSDO>
F 17

$$$$
=
 OpenBabel10222421193D

 45 50  0  0  1  0  0  0  0  0999 V2000
  182.5360  177.9660  139.6300 C   0  0  2  0  0  3  0  0  0  0  0  0
  181.1570  177.3860  139.2620 C   0  0  1  0  0  3  0  0  0  0  0  0
  181.2740  178.6220  140.1390 C   0  0  1  0  0  3  0  0  0  0  0  0
  183.1700  178.9030  138.6130 C   0  0  1  0  0  3  0  0  0  0  0  0
  184.1070  179.7160  139.2130 C   0  0  0  0  0  2  0  0  0  0  0  0
  185.6420  177.6890  137.9650 C   0  0  0  0  0  0  0  0  0  0  0  0
  185.3430  176.6620  137.3020 O   0  0  0  0  0  0  0  0  0  0  0  0
  184.6070  178.5360  138.4520 N   0  0  0  0  0  0  0  0  0  0  0  0
  187.0870  177.9780  138.2710 C   0  0  1  0  0  3  0  0  0  0  0  0
  187.8740  178.5370  137.1220 C   0  0  0  0  0  0  0  0  0  0  0  0
  188.7790  179.5770  137.3160 O   0  0  0  0  0  1  0  0  0  0  0  0
  187.6890  178.0810  135.9650 O   0  0  0  0  0  0  0  0  0  0  0  0
  188.2700  177.9080  140.2400 C   0  0  0  0  0  1  0  0  0  0  0  0
  187.3120  178.6260  139.5030 O   0  0  0  0  0  0  0  0  0  0  0  0
  181.0270  178.2150  141.5750 C   0  0  0  0  0  2  0  0  0  0  0  0
  181.6910  179.2230  142.4960 C   0  0  0  0  0  2  0  0  0  0  0  0
  182.8270  178.7310  144.6610 C   0  0  0  0  0  3  0  0  0  0  0  0
  181.7270  178.6980  143.8970 C   0  0  0  0  0  3  0  0  0  0  0  0
  184.7210  178.4120  143.1080 C   0  0  0  0  0  3  0  0  0  0  0  0
  185.2060  179.6650  146.3580 O   0  0  0  0  0  0  0  0  0  0  0  0
  185.8240  177.8300  143.4660 N   0  0  0  0  0  0  0  0  0  0  0  0
  186.1640  178.1930  144.7700 N   0  0  0  0  0  0  0  0  0  0  0  0
  185.1750  179.0900  145.2370 C   0  0  0  0  0  0  0  0  0  0  0  0
  184.1400  179.2900  144.1920 C   0  0  2  0  0  3  0  0  0  0  0  0
  187.3750  177.8030  145.4290 C   0  0  0  0  0  0  0  0  0  0  0  0
  189.4250  177.1870  145.8210 N   0  0  0  0  0  0  0  0  0  0  0  0
  190.7970  176.8040  145.6610 C   0  0  0  0  0  0  0  0  0  0  0  0
  188.7990  177.2080  146.9890 N   0  0  0  0  0  0  0  0  0  0  0  0
  187.5190  177.5840  146.7850 C   0  0  0  0  0  3  0  0  0  0  0  0
  188.5860  177.5420  144.8290 C   0  0  0  0  0  3  0  0  0  0  0  0
  191.4600  176.4280  146.6650 O   0  0  0  0  0  0  0  0  0  0  0  0
  191.9620  175.4040  144.0080 C   0  0  0  0  0  2  0  0  0  0  0  0
  191.4330  176.7950  144.3010 C   0  0  0  0  0  3  0  0  0  0  0  0
  190.6860  175.8780  143.3470 C   0  0  0  0  0  2  0  0  0  0  0  0
  180.6580  177.6260  137.8080 C   0  0  1  0  0  3  0  0  0  0  0  0
  179.8740  176.6030  135.5050 C   0  0  0  0  0  2  0  0  0  0  0  0
  180.8190  176.5800  136.6840 C   0  0  0  0  0  0  0  0  0  0  0  0
  181.3140  177.0910  135.3510 C   0  0  0  0  0  2  0  0  0  0  0  0
  181.3620  175.2040  137.0390 C   0  0  0  0  0  2  0  0  0  0  0  0
  180.9840  174.1890  135.9820 C   0  0  0  0  0  2  0  0  0  0  0  0
  182.2010  173.3710  135.6050 C   0  0  0  0  0  2  0  0  0  0  0  0
  183.4340  173.4420  136.9350 S   0  0  0  0  0  0  0  0  0  0  0  0
  183.6630  171.6380  136.9280 C   0  0  0  0  0  1  0  0  0  0  0  0
  179.7990  179.6140  137.3130 C   0  0  0  0  0  1  0  0  0  0  0  0
  179.4480  178.3270  137.7290 O   0  0  0  0  0  0  0  0  0  0  0  0
  1  4  1  6  0  0  0
  1  3  1  0  0  0  0
  2 35  1  6  0  0  0
  2  1  1  0  0  0  0
  2  3  1  0  0  0  0
  3 15  1  1  0  0  0
  4  5  1  1  0  0  0
  6  9  1  0  0  0  0
  6  8  1  0  0  0  0
  7  6  2  0  0  0  0
  8  4  1  0  0  0  0
  8  5  1  0  0  0  0
  9 10  1  6  0  0  0
  9 14  1  0  0  0  0
 10 11  1  0  0  0  0
 12 10  2  0  0  0  0
 14 13  1  0  0  0  0
 15 16  1  0  0  0  0
 16 18  1  0  0  0  0
 18 17  2  0  0  0  0
 19 21  2  0  0  0  0
 19 24  1  0  0  0  0
 21 22  1  0  0  0  0
 22 23  1  0  0  0  0
 22 25  1  0  0  0  0
 23 20  2  0  0  0  0
 24 17  1  1  0  0  0
 24 23  1  0  0  0  0
 25 29  1  0  0  0  0
 26 28  1  0  0  0  0
 27 26  1  0  0  0  0
 27 31  2  0  0  0  0
 29 28  2  0  0  0  0
 30 25  2  0  0  0  0
 30 26  1  0  0  0  0
 32 33  1  0  0  0  0
 33 27  1  0  0  0  0
 34 32  1  0  0  0  0
 34 33  1  0  0  0  0
 35 45  1  1  0  0  0
 36 37  1  0  0  0  0
 37 39  1  0  0  0  0
 37 35  1  0  0  0  0
 38 36  1  0  0  0  0
 38 37  1  0  0  0  0
 40 39  1  0  0  0  0
 41 40  1  0  0  0  0
 41 42  1  0  0  0  0
 43 42  1  0  0  0  0
 44 45  1  0  0  0  0
M  END
>  <MODEL>
2

>  <REMARK>
 VINA RESULT:      -7.1      4.183      8.570
  Name = 
  17 active torsions:
  status: ('A' for Active; 'I' for Inactive)
    1  A    between atoms: C_1  and  C_22
    2  A    between atoms: C_1  and  C_29
    3  A    between atoms: C_3  and  C_45
    4  A    between atoms: C_6  and  N_34
    5  A    between atoms: C_7  and  C_13
    6  A    between atoms: C_8  and  C_39
    7  A    between atoms: C_14  and  C_35
    8  A    between atoms: C_15  and  C_19
    9  A    between atoms: C_20  and  C_29
   10  A    between atoms: C_21  and  C_39
   11  A    between atoms: C_24  and  C_36
   12  A    between atoms: C_24  and  C_43
   13  A    between atoms: S_25  and  C_43
   14  A    between atoms: C_31  and  C_35
   15  A    between atoms: C_31  and  C_36
   16  A    between atoms: C_35  and  O_37
   17  A    between atoms: C_39  and  O_42
                            x       y       z     vdW  Elec       q    Type
                         _______ _______ _______ _____ _____    ______ ____

>  <TORSDO>
F 17

$$$$
=
 OpenBabel10222421193D

 45 50  0  0  1  0  0  0  0  0999 V2000
  191.1320  176.0010  138.9300 C   0  0  2  0  0  3  0  0  0  0  0  0
  189.6600  176.4230  139.0960 C   0  0  1  0  0  3  0  0  0  0  0  0
  190.7830  177.2670  139.6780 C   0  0  1  0  0  3  0  0  0  0  0  0
  191.8080  176.4040  137.6270 C   0  0  1  0  0  3  0  0  0  0  0  0
  193.1270  176.7400  137.8440 C   0  0  0  0  0  2  0  0  0  0  0  0
  193.2410  174.1000  136.8250 C   0  0  0  0  0  0  0  0  0  0  0  0
  192.3630  173.2680  136.4780 O   0  0  0  0  0  0  0  0  0  0  0  0
  192.8450  175.3850  137.2910 N   0  0  0  0  0  0  0  0  0  0  0  0
  194.6930  173.7050  136.7850 C   0  0  1  0  0  3  0  0  0  0  0  0
  195.4160  173.8290  138.0940 C   0  0  0  0  0  0  0  0  0  0  0  0
  195.2250  172.8930  139.1070 O   0  0  0  0  0  1  0  0  0  0  0  0
  196.1780  174.8090  138.2890 O   0  0  0  0  0  0  0  0  0  0  0  0
  196.1670  172.6530  135.3690 C   0  0  0  0  0  1  0  0  0  0  0  0
  194.9620  172.5130  136.0800 O   0  0  0  0  0  0  0  0  0  0  0  0
  190.8470  177.0150  141.1690 C   0  0  0  0  0  2  0  0  0  0  0  0
  189.5500  177.4790  141.8060 C   0  0  0  0  0  2  0  0  0  0  0  0
  187.9290  176.5430  143.4540 C   0  0  0  0  0  3  0  0  0  0  0  0
  188.9200  176.3580  142.5710 C   0  0  0  0  0  3  0  0  0  0  0  0
  186.6210  177.8440  145.0970 C   0  0  0  0  0  3  0  0  0  0  0  0
  186.2710  178.3770  141.6380 O   0  0  0  0  0  0  0  0  0  0  0  0
  185.3440  178.0340  144.9750 N   0  0  0  0  0  0  0  0  0  0  0  0
  185.0080  178.2360  143.6360 N   0  0  0  0  0  0  0  0  0  0  0  0
  186.2010  178.1740  142.8800 C   0  0  0  0  0  0  0  0  0  0  0  0
  187.3510  177.8920  143.7750 C   0  0  2  0  0  3  0  0  0  0  0  0
  183.6930  178.5720  143.1730 C   0  0  0  0  0  0  0  0  0  0  0  0
  181.9830  179.0010  141.8990 N   0  0  0  0  0  0  0  0  0  0  0  0
  181.1380  179.2030  140.7580 C   0  0  0  0  0  0  0  0  0  0  0  0
  181.5920  179.2040  143.1490 N   0  0  0  0  0  0  0  0  0  0  0  0
  182.6320  178.9500  143.9710 C   0  0  0  0  0  3  0  0  0  0  0  0
  183.2730  178.6140  141.8630 C   0  0  0  0  0  3  0  0  0  0  0  0
  179.9630  179.6310  140.9210 O   0  0  0  0  0  0  0  0  0  0  0  0
  180.8140  179.7410  138.3800 C   0  0  0  0  0  2  0  0  0  0  0  0
  181.6580  178.9610  139.3700 C   0  0  0  0  0  3  0  0  0  0  0  0
  182.1940  180.2400  138.7500 C   0  0  0  0  0  2  0  0  0  0  0  0
  188.9490  177.0080  137.8420 C   0  0  1  0  0  3  0  0  0  0  0  0
  188.8310  175.6270  135.5960 C   0  0  0  0  0  2  0  0  0  0  0  0
  188.1530  176.1350  136.8470 C   0  0  0  0  0  0  0  0  0  0  0  0
  188.5490  174.6790  136.7600 C   0  0  0  0  0  2  0  0  0  0  0  0
  186.6540  176.3580  136.7140 C   0  0  0  0  0  2  0  0  0  0  0  0
  185.9980  175.1920  136.0100 C   0  0  0  0  0  2  0  0  0  0  0  0
  184.4950  175.2780  136.1750 C   0  0  0  0  0  2  0  0  0  0  0  0
  183.9480  174.1360  137.4750 S   0  0  0  0  0  0  0  0  0  0  0  0
  183.1990  175.4780  138.4490 C   0  0  0  0  0  1  0  0  0  0  0  0
  189.0750  179.1380  137.2250 C   0  0  0  0  0  1  0  0  0  0  0  0
  188.3640  178.2630  138.0510 O   0  0  0  0  0  0  0  0  0  0  0  0
  1  4  1  6  0  0  0
  1  2  1  0  0  0  0
  1  3  1  0  0  0  0
  2 35  1  6  0  0  0
  2  3  1  0  0  0  0
  3 15  1  1  0  0  0
  4  5  1  1  0  0  0
  6  8  1  0  0  0  0
  7  6  2  0  0  0  0
  8  4  1  0  0  0  0
  8  5  1  0  0  0  0
  9 14  1  1  0  0  0
  9  6  1  0  0  0  0
  9 10  1  0  0  0  0
 10 12  2  0  0  0  0
 10 11  1  0  0  0  0
 13 14  1  0  0  0  0
 15 16  1  0  0  0  0
 16 18  1  0  0  0  0
 18 17  2  0  0  0  0
 20 23  2  0  0  0  0
 21 19  2  0  0  0  0
 22 21  1  0  0  0  0
 23 22  1  0  0  0  0
 23 24  1  0  0  0  0
 24 17  1  6  0  0  0
 24 19  1  0  0  0  0
 25 22  1  0  0  0  0
 25 29  1  0  0  0  0
 26 28  1  0  0  0  0
 27 31  2  0  0  0  0
 27 26  1  0  0  0  0
 28 29  2  0  0  0  0
 30 26  1  0  0  0  0
 30 25  2  0  0  0  0
 32 34  1  0  0  0  0
 32 33  1  0  0  0  0
 33 27  1  0  0  0  0
 34 33  1  0  0  0  0
 35 45  1  1  0  0  0
 36 38  1  0  0  0  0
 36 37  1  0  0  0  0
 37 35  1  0  0  0  0
 38 37  1  0  0  0  0
 39 37  1  0  0  0  0
 40 41  1  0  0  0  0
 40 39  1  0  0  0  0
 41 42  1  0  0  0  0
 42 43  1  0  0  0  0
 44 45  1  0  0  0  0
M  END
>  <MODEL>
3

>  <REMARK>
 VINA RESULT:      -7.0      2.904      5.721
  Name = 
  17 active torsions:
  status: ('A' for Active; 'I' for Inactive)
    1  A    between atoms: C_1  and  C_22
    2  A    between atoms: C_1  and  C_29
    3  A    between atoms: C_3  and  C_45
    4  A    between atoms: C_6  and  N_34
    5  A    between atoms: C_7  and  C_13
    6  A    between atoms: C_8  and  C_39
    7  A    between atoms: C_14  and  C_35
    8  A    between atoms: C_15  and  C_19
    9  A    between atoms: C_20  and  C_29
   10  A    between atoms: C_21  and  C_39
   11  A    between atoms: C_24  and  C_36
   12  A    between atoms: C_24  and  C_43
   13  A    between atoms: S_25  and  C_43
   14  A    between atoms: C_31  and  C_35
   15  A    between atoms: C_31  and  C_36
   16  A    between atoms: C_35  and  O_37
   17  A    between atoms: C_39  and  O_42
                            x       y       z     vdW  Elec       q    Type
                         _______ _______ _______ _____ _____    ______ ____

>  <TORSDO>
F 17

$$$$
=
 OpenBabel10222421193D

 45 50  0  0  1  0  0  0  0  0999 V2000
  187.6510  178.2570  142.4260 C   0  0  2  0  0  3  0  0  0  0  0  0
  186.4520  178.8220  141.6410 C   0  0  1  0  0  3  0  0  0  0  0  0
  187.4260  177.8550  140.9870 C   0  0  1  0  0  3  0  0  0  0  0  0
  187.3760  177.0390  143.2960 C   0  0  1  0  0  3  0  0  0  0  0  0
  188.3460  176.0770  143.1140 C   0  0  0  0  0  2  0  0  0  0  0  0
  189.0830  177.3580  145.5300 C   0  0  0  0  0  0  0  0  0  0  0  0
  188.6010  178.3220  146.1790 O   0  0  0  0  0  0  0  0  0  0  0  0
  188.4490  176.9350  144.3280 N   0  0  0  0  0  0  0  0  0  0  0  0
  190.3460  176.6990  146.0120 C   0  0  1  0  0  3  0  0  0  0  0  0
  191.4750  176.7030  145.0240 C   0  0  0  0  0  0  0  0  0  0  0  0
  191.9690  177.8990  144.5080 O   0  0  0  0  0  0  0  0  0  0  0  0
  191.9600  175.6110  144.6320 O   0  0  0  0  0  1  0  0  0  0  0  0
  191.8750  176.3080  147.6840 C   0  0  0  0  0  1  0  0  0  0  0  0
  190.7230  177.0330  147.3290 O   0  0  0  0  0  0  0  0  0  0  0  0
  188.3500  178.6430  140.0840 C   0  0  0  0  0  2  0  0  0  0  0  0
  187.8890  178.4860  138.6460 C   0  0  0  0  0  2  0  0  0  0  0  0
  188.5740  176.2820  137.7010 C   0  0  0  0  0  3  0  0  0  0  0  0
  187.6660  177.0410  138.3300 C   0  0  0  0  0  3  0  0  0  0  0  0
  190.0280  176.6620  135.7410 C   0  0  0  0  0  3  0  0  0  0  0  0
  191.3540  175.6550  138.8390 O   0  0  0  0  0  0  0  0  0  0  0  0
  190.9510  175.8220  135.3860 N   0  0  0  0  0  0  0  0  0  0  0  0
  191.5780  175.2860  136.5100 N   0  0  0  0  0  0  0  0  0  0  0  0
  190.9830  175.8690  137.6530 C   0  0  0  0  0  0  0  0  0  0  0  0
  189.9060  176.8030  137.2400 C   0  0  2  0  0  3  0  0  0  0  0  0
  192.7060  174.4020  136.4640 C   0  0  0  0  0  0  0  0  0  0  0  0
  194.7340  173.6130  136.4970 N   0  0  0  0  0  0  0  0  0  0  0  0
  196.1590  173.4980  136.5880 C   0  0  0  0  0  0  0  0  0  0  0  0
  193.9310  172.6000  136.2050 N   0  0  0  0  0  0  0  0  0  0  0  0
  192.6600  173.0530  136.1730 C   0  0  0  0  0  3  0  0  0  0  0  0
  194.0240  174.7470  136.6620 C   0  0  0  0  0  3  0  0  0  0  0  0
  196.7110  172.3890  136.3480 O   0  0  0  0  0  0  0  0  0  0  0  0
  198.4580  174.3710  136.6330 C   0  0  0  0  0  2  0  0  0  0  0  0
  197.0030  174.6960  136.9140 C   0  0  0  0  0  3  0  0  0  0  0  0
  197.6840  175.2470  135.6720 C   0  0  0  0  0  2  0  0  0  0  0  0
  185.0490  178.2460  141.9870 C   0  0  1  0  0  3  0  0  0  0  0  0
  184.5660  178.5650  144.5620 C   0  0  0  0  0  2  0  0  0  0  0  0
  184.1700  178.8100  143.1250 C   0  0  0  0  0  0  0  0  0  0  0  0
  184.7570  179.9440  143.9330 C   0  0  0  0  0  2  0  0  0  0  0  0
  182.6730  178.9500  142.8920 C   0  0  0  0  0  2  0  0  0  0  0  0
  181.9000  178.6130  144.1470 C   0  0  0  0  0  2  0  0  0  0  0  0
  180.4250  178.8660  143.9200 C   0  0  0  0  0  2  0  0  0  0  0  0
  180.0190  178.6340  142.1660 S   0  0  0  0  0  0  0  0  0  0  0  0
  179.3210  180.3080  142.0250 C   0  0  0  0  0  1  0  0  0  0  0  0
  184.3940  178.9190  139.9740 C   0  0  0  0  0  1  0  0  0  0  0  0
  184.3030  177.8500  140.8700 O   0  0  0  0  0  0  0  0  0  0  0  0
  1  4  1  1  0  0  0
  2 35  1  1  0  0  0
  2  1  1  0  0  0  0
  3 15  1  6  0  0  0
  3  2  1  0  0  0  0
  3  1  1  0  0  0  0
  4  5  1  6  0  0  0
  4  8  1  0  0  0  0
  5  8  1  0  0  0  0
  6  9  1  0  0  0  0
  6  7  2  0  0  0  0
  8  6  1  0  0  0  0
  9 10  1  6  0  0  0
  9 14  1  0  0  0  0
 11 10  2  0  0  0  0
 12 10  1  0  0  0  0
 14 13  1  0  0  0  0
 16 15  1  0  0  0  0
 17 18  2  0  0  0  0
 18 16  1  0  0  0  0
 19 24  1  0  0  0  0
 21 19  2  0  0  0  0
 21 22  1  0  0  0  0
 22 23  1  0  0  0  0
 23 20  2  0  0  0  0
 24 23  1  0  0  0  0
 24 17  1  1  0  0  0
 25 22  1  0  0  0  0
 25 30  2  0  0  0  0
 26 27  1  0  0  0  0
 26 30  1  0  0  0  0
 27 33  1  0  0  0  0
 28 26  1  0  0  0  0
 29 28  2  0  0  0  0
 29 25  1  0  0  0  0
 31 27  2  0  0  0  0
 32 33  1  0  0  0  0
 34 32  1  0  0  0  0
 34 33  1  0  0  0  0
 35 45  1  6  0  0  0
 35 37  1  0  0  0  0
 37 38  1  0  0  0  0
 37 36  1  0  0  0  0
 38 36  1  0  0  0  0
 39 37  1  0  0  0  0
 39 40  1  0  0  0  0
 41 40  1  0  0  0  0
 42 41  1  0  0  0  0
 43 42  1  0  0  0  0
 44 45  1  0  0  0  0
M  END
>  <MODEL>
4

>  <REMARK>
 VINA RESULT:      -6.9      3.266      9.837
  Name = 
  17 active torsions:
  status: ('A' for Active; 'I' for Inactive)
    1  A    between atoms: C_1  and  C_22
    2  A    between atoms: C_1  and  C_29
    3  A    between atoms: C_3  and  C_45
    4  A    between atoms: C_6  and  N_34
    5  A    between atoms: C_7  and  C_13
    6  A    between atoms: C_8  and  C_39
    7  A    between atoms: C_14  and  C_35
    8  A    between atoms: C_15  and  C_19
    9  A    between atoms: C_20  and  C_29
   10  A    between atoms: C_21  and  C_39
   11  A    between atoms: C_24  and  C_36
   12  A    between atoms: C_24  and  C_43
   13  A    between atoms: S_25  and  C_43
   14  A    between atoms: C_31  and  C_35
   15  A    between atoms: C_31  and  C_36
   16  A    between atoms: C_35  and  O_37
   17  A    between atoms: C_39  and  O_42
                            x       y       z     vdW  Elec       q    Type
                         _______ _______ _______ _____ _____    ______ ____

>  <TORSDO>
F 17

$$$$
=
 OpenBabel10222421193D

 45 50  0  0  1  0  0  0  0  0999 V2000
  183.8290  177.4320  137.3680 C   0  0  2  0  0  3  0  0  0  0  0  0
  184.0470  176.5750  136.1070 C   0  0  1  0  0  3  0  0  0  0  0  0
  185.2040  176.9000  137.0380 C   0  0  1  0  0  3  0  0  0  0  0  0
  183.3320  176.7000  138.6060 C   0  0  1  0  0  3  0  0  0  0  0  0
  183.5490  177.4520  139.7400 C   0  0  0  0  0  2  0  0  0  0  0  0
  180.8070  177.8520  139.1530 C   0  0  0  0  0  0  0  0  0  0  0  0
  180.0530  177.4520  138.2290 O   0  0  0  0  0  0  0  0  0  0  0  0
  182.1710  177.4470  139.1720 N   0  0  0  0  0  0  0  0  0  0  0  0
  180.2650  178.7900  140.1970 C   0  0  1  0  0  3  0  0  0  0  0  0
  180.3220  178.2690  141.6030 C   0  0  0  0  0  0  0  0  0  0  0  0
  179.3680  177.3680  142.0700 O   0  0  0  0  0  0  0  0  0  0  0  0
  181.2240  178.6760  142.3790 O   0  0  0  0  0  1  0  0  0  0  0  0
  179.6470  180.9830  140.5050 C   0  0  0  0  0  1  0  0  0  0  0  0
  180.6730  180.1330  140.0560 O   0  0  0  0  0  0  0  0  0  0  0  0
  186.0370  177.9920  136.4030 C   0  0  0  0  0  2  0  0  0  0  0  0
  187.3740  178.0740  137.1190 C   0  0  0  0  0  2  0  0  0  0  0  0
  188.7670  176.5000  138.4600 C   0  0  0  0  0  3  0  0  0  0  0  0
  187.8220  176.7080  137.5330 C   0  0  0  0  0  3  0  0  0  0  0  0
  190.8280  177.1350  139.6650 C   0  0  0  0  0  3  0  0  0  0  0  0
  187.6800  178.3560  140.6470 O   0  0  0  0  0  0  0  0  0  0  0  0
  190.9140  177.1080  140.9590 N   0  0  0  0  0  0  0  0  0  0  0  0
  189.7180  177.5390  141.5340 N   0  0  0  0  0  0  0  0  0  0  0  0
  188.8310  177.8700  140.4830 C   0  0  0  0  0  0  0  0  0  0  0  0
  189.4810  177.6120  139.1740 C   0  0  2  0  0  3  0  0  0  0  0  0
  189.5170  177.7210  142.9410 C   0  0  0  0  0  0  0  0  0  0  0  0
  188.6020  177.8730  144.9100 N   0  0  0  0  0  0  0  0  0  0  0  0
  187.6540  177.8790  145.9850 C   0  0  0  0  0  0  0  0  0  0  0  0
  189.8810  178.1890  145.0540 N   0  0  0  0  0  0  0  0  0  0  0  0
  190.4830  178.1090  143.8490 C   0  0  0  0  0  3  0  0  0  0  0  0
  188.3290  177.5810  143.6230 C   0  0  0  0  0  3  0  0  0  0  0  0
  188.0230  178.2360  147.1370 O   0  0  0  0  0  0  0  0  0  0  0  0
  185.3400  178.2770  146.7160 C   0  0  0  0  0  2  0  0  0  0  0  0
  186.2180  177.5180  145.7400 C   0  0  0  0  0  3  0  0  0  0  0  0
  185.4170  178.7220  145.2720 C   0  0  0  0  0  2  0  0  0  0  0  0
  183.5260  175.1090  136.1520 C   0  0  1  0  0  3  0  0  0  0  0  0
  184.7890  173.4490  137.7690 C   0  0  0  0  0  2  0  0  0  0  0  0
  184.4590  173.8970  136.3640 C   0  0  0  0  0  0  0  0  0  0  0  0
  183.8200  172.6400  136.9080 C   0  0  0  0  0  2  0  0  0  0  0  0
  185.5440  173.6210  135.3350 C   0  0  0  0  0  2  0  0  0  0  0  0
  186.8070  173.1270  136.0060 C   0  0  0  0  0  2  0  0  0  0  0  0
  188.0120  173.7870  135.3700 C   0  0  0  0  0  2  0  0  0  0  0  0
  189.4180  172.6400  135.3660 S   0  0  0  0  0  0  0  0  0  0  0  0
  188.3420  171.1960  135.1170 C   0  0  0  0  0  1  0  0  0  0  0  0
  181.3590  174.8240  135.7600 C   0  0  0  0  0  1  0  0  0  0  0  0
  182.2900  174.9630  136.7930 O   0  0  0  0  0  0  0  0  0  0  0  0
  1  4  1  1  0  0  0
  2 35  1  1  0  0  0
  2  3  1  0  0  0  0
  2  1  1  0  0  0  0
  3 15  1  6  0  0  0
  3  1  1  0  0  0  0
  4  8  1  0  0  0  0
  4  5  1  1  0  0  0
  6  8  1  0  0  0  0
  7  6  2  0  0  0  0
  8  5  1  0  0  0  0
  9  6  1  6  0  0  0
  9 10  1  0  0  0  0
 10 11  2  0  0  0  0
 10 12  1  0  0  0  0
 14  9  1  0  0  0  0
 14 13  1  0  0  0  0
 15 16  1  0  0  0  0
 16 18  1  0  0  0  0
 18 17  2  0  0  0  0
 19 21  2  0  0  0  0
 21 22  1  0  0  0  0
 22 25  1  0  0  0  0
 23 20  2  0  0  0  0
 23 22  1  0  0  0  0
 24 17  1  1  0  0  0
 24 19  1  0  0  0  0
 24 23  1  0  0  0  0
 25 30  2  0  0  0  0
 25 29  1  0  0  0  0
 26 28  1  0  0  0  0
 26 27  1  0  0  0  0
 27 31  2  0  0  0  0
 29 28  2  0  0  0  0
 30 26  1  0  0  0  0
 33 27  1  0  0  0  0
 33 32  1  0  0  0  0
 34 33  1  0  0  0  0
 34 32  1  0  0  0  0
 35 37  1  0  0  0  0
 35 45  1  1  0  0  0
 37 38  1  0  0  0  0
 37 36  1  0  0  0  0
 38 36  1  0  0  0  0
 39 40  1  0  0  0  0
 39 37  1  0  0  0  0
 41 40  1  0  0  0  0
 42 41  1  0  0  0  0
 43 42  1  0  0  0  0
 44 45  1  0  0  0  0
M  END
>  <MODEL>
5

>  <REMARK>
 VINA RESULT:      -6.6      4.118      9.197
  Name = 
  17 active torsions:
  status: ('A' for Active; 'I' for Inactive)
    1  A    between atoms: C_1  and  C_22
    2  A    between atoms: C_1  and  C_29
    3  A    between atoms: C_3  and  C_45
    4  A    between atoms: C_6  and  N_34
    5  A    between atoms: C_7  and  C_13
    6  A    between atoms: C_8  and  C_39
    7  A    between atoms: C_14  and  C_35
    8  A    between atoms: C_15  and  C_19
    9  A    between atoms: C_20  and  C_29
   10  A    between atoms: C_21  and  C_39
   11  A    between atoms: C_24  and  C_36
   12  A    between atoms: C_24  and  C_43
   13  A    between atoms: S_25  and  C_43
   14  A    between atoms: C_31  and  C_35
   15  A    between atoms: C_31  and  C_36
   16  A    between atoms: C_35  and  O_37
   17  A    between atoms: C_39  and  O_42
                            x       y       z     vdW  Elec       q    Type
                         _______ _______ _______ _____ _____    ______ ____

>  <TORSDO>
F 17

$$$$
=
 OpenBabel10222421193D

 45 50  0  0  1  0  0  0  0  0999 V2000
  182.0500  178.6470  138.9560 C   0  0  2  0  0  3  0  0  0  0  0  0
  182.4390  177.1570  138.9910 C   0  0  1  0  0  3  0  0  0  0  0  0
  180.9800  177.5840  139.0420 C   0  0  1  0  0  3  0  0  0  0  0  0
  181.9560  179.2900  137.5800 C   0  0  1  0  0  3  0  0  0  0  0  0
  180.6400  179.4750  137.2150 C   0  0  0  0  0  2  0  0  0  0  0  0
  181.4810  182.0300  138.1030 C   0  0  0  0  0  0  0  0  0  0  0  0
  182.5600  182.4670  138.5800 O   0  0  0  0  0  0  0  0  0  0  0  0
  181.3840  180.6600  137.7290 N   0  0  0  0  0  0  0  0  0  0  0  0
  180.2980  182.9520  137.9780 C   0  0  1  0  0  3  0  0  0  0  0  0
  180.2220  183.7070  136.6840 C   0  0  0  0  0  0  0  0  0  0  0  0
  180.8150  183.2050  135.5280 O   0  0  0  0  0  0  0  0  0  0  0  0
  179.6430  184.8220  136.6500 O   0  0  0  0  0  1  0  0  0  0  0  0
  179.1830  182.0010  139.7490 C   0  0  0  0  0  1  0  0  0  0  0  0
  179.0720  182.4020  138.4060 O   0  0  0  0  0  0  0  0  0  0  0  0
  180.4950  177.4590  140.4700 C   0  0  0  0  0  2  0  0  0  0  0  0
  180.9500  178.6760  141.2560 C   0  0  0  0  0  2  0  0  0  0  0  0
  181.8230  178.6800  143.5920 C   0  0  0  0  0  3  0  0  0  0  0  0
  180.8370  178.4140  142.7250 C   0  0  0  0  0  3  0  0  0  0  0  0
  183.8190  178.3590  142.1730 C   0  0  0  0  0  3  0  0  0  0  0  0
  184.0640  179.7530  145.3920 O   0  0  0  0  0  0  0  0  0  0  0  0
  184.9130  177.8260  142.6210 N   0  0  0  0  0  0  0  0  0  0  0  0
  185.1600  178.2500  143.9270 N   0  0  0  0  0  0  0  0  0  0  0  0
  184.1200  179.1340  144.2960 C   0  0  0  0  0  0  0  0  0  0  0  0
  183.1470  179.2600  143.1820 C   0  0  2  0  0  3  0  0  0  0  0  0
  186.3380  177.9230  144.6750 C   0  0  0  0  0  0  0  0  0  0  0  0
  188.3820  177.4120  145.2190 N   0  0  0  0  0  0  0  0  0  0  0  0
  189.7800  177.0980  145.1610 C   0  0  0  0  0  0  0  0  0  0  0  0
  187.6730  177.4050  146.3380 N   0  0  0  0  0  0  0  0  0  0  0  0
  186.3940  177.7160  146.0390 C   0  0  0  0  0  3  0  0  0  0  0  0
  187.6010  177.7220  144.1660 C   0  0  0  0  0  3  0  0  0  0  0  0
  190.3860  176.7590  146.2140 O   0  0  0  0  0  0  0  0  0  0  0  0
  191.5820  176.0400  143.8630 C   0  0  0  0  0  2  0  0  0  0  0  0
  190.5130  177.1170  143.8510 C   0  0  0  0  0  3  0  0  0  0  0  0
  190.3040  175.8240  143.0820 C   0  0  0  0  0  2  0  0  0  0  0  0
  182.9160  176.5220  137.6530 C   0  0  1  0  0  3  0  0  0  0  0  0
  185.1160  175.1600  137.1350 C   0  0  0  0  0  2  0  0  0  0  0  0
  184.4000  176.4870  137.2260 C   0  0  0  0  0  0  0  0  0  0  0  0
  184.6980  175.9000  135.8660 C   0  0  0  0  0  2  0  0  0  0  0  0
  185.2900  177.6690  137.5780 C   0  0  0  0  0  2  0  0  0  0  0  0
  186.7460  177.2580  137.5970 C   0  0  0  0  0  2  0  0  0  0  0  0
  187.4790  178.0320  138.6720 C   0  0  0  0  0  2  0  0  0  0  0  0
  189.1750  178.3880  138.1330 S   0  0  0  0  0  0  0  0  0  0  0  0
  189.8940  177.3480  139.4400 C   0  0  0  0  0  1  0  0  0  0  0  0
  181.3120  175.7770  136.3100 C   0  0  0  0  0  1  0  0  0  0  0  0
  182.2190  175.3640  137.2900 O   0  0  0  0  0  0  0  0  0  0  0  0
  1  4  1  6  0  0  0
  1  2  1  0  0  0  0
  1  3  1  0  0  0  0
  2 35  1  6  0  0  0
  2  3  1  0  0  0  0
  3 15  1  1  0  0  0
  4  5  1  6  0  0  0
  4  8  1  0  0  0  0
  5  8  1  0  0  0  0
  6  7  2  0  0  0  0
  8  6  1  0  0  0  0
  9 10  1  6  0  0  0
  9  6  1  0  0  0  0
  9 14  1  0  0  0  0
 11 10  2  0  0  0  0
 12 10  1  0  0  0  0
 14 13  1  0  0  0  0
 15 16  1  0  0  0  0
 16 18  1  0  0  0  0
 18 17  2  0  0  0  0
 19 21  2  0  0  0  0
 19 24  1  0  0  0  0
 21 22  1  0  0  0  0
 22 23  1  0  0  0  0
 22 25  1  0  0  0  0
 23 20  2  0  0  0  0
 24 17  1  1  0  0  0
 24 23  1  0  0  0  0
 25 29  1  0  0  0  0
 26 28  1  0  0  0  0
 27 26  1  0  0  0  0
 27 31  2  0  0  0  0
 29 28  2  0  0  0  0
 30 25  2  0  0  0  0
 30 26  1  0  0  0  0
 33 32  1  0  0  0  0
 33 27  1  0  0  0  0
 34 33  1  0  0  0  0
 34 32  1  0  0  0  0
 35 45  1  1  0  0  0
 36 37  1  0  0  0  0
 37 39  1  0  0  0  0
 37 35  1  0  0  0  0
 38 36  1  0  0  0  0
 38 37  1  0  0  0  0
 39 40  1  0  0  0  0
 40 41  1  0  0  0  0
 42 41  1  0  0  0  0
 42 43  1  0  0  0  0
 44 45  1  0  0  0  0
M  END
>  <MODEL>
6

>  <REMARK>
 VINA RESULT:      -6.6      4.464      9.410
  Name = 
  17 active torsions:
  status: ('A' for Active; 'I' for Inactive)
    1  A    between atoms: C_1  and  C_22
    2  A    between atoms: C_1  and  C_29
    3  A    between atoms: C_3  and  C_45
    4  A    between atoms: C_6  and  N_34
    5  A    between atoms: C_7  and  C_13
    6  A    between atoms: C_8  and  C_39
    7  A    between atoms: C_14  and  C_35
    8  A    between atoms: C_15  and  C_19
    9  A    between atoms: C_20  and  C_29
   10  A    between atoms: C_21  and  C_39
   11  A    between atoms: C_24  and  C_36
   12  A    between atoms: C_24  and  C_43
   13  A    between atoms: S_25  and  C_43
   14  A    between atoms: C_31  and  C_35
   15  A    between atoms: C_31  and  C_36
   16  A    between atoms: C_35  and  O_37
   17  A    between atoms: C_39  and  O_42
                            x       y       z     vdW  Elec       q    Type
                         _______ _______ _______ _____ _____    ______ ____

>  <TORSDO>
F 17

$$$$
=
 OpenBabel10222421193D

 45 50  0  0  1  0  0  0  0  0999 V2000
  182.4040  179.2990  139.9230 C   0  0  2  0  0  3  0  0  0  0  0  0
  183.1800  177.9820  139.7300 C   0  0  1  0  0  3  0  0  0  0  0  0
  182.5990  178.3540  141.0860 C   0  0  1  0  0  3  0  0  0  0  0  0
  180.9290  179.2760  139.5490 C   0  0  1  0  0  3  0  0  0  0  0  0
  180.3280  180.4780  139.8540 C   0  0  0  0  0  2  0  0  0  0  0  0
  180.8010  180.6250  137.0650 C   0  0  0  0  0  0  0  0  0  0  0  0
  181.3460  179.8490  136.2390 O   0  0  0  0  0  0  0  0  0  0  0  0
  180.7020  180.2390  138.4320 N   0  0  0  0  0  0  0  0  0  0  0  0
  180.3040  181.9680  136.6030 C   0  0  1  0  0  3  0  0  0  0  0  0
  180.5410  183.0930  137.5680 C   0  0  0  0  0  0  0  0  0  0  0  0
  179.4940  183.6250  138.3160 O   0  0  0  0  0  1  0  0  0  0  0  0
  181.6930  183.5830  137.6780 O   0  0  0  0  0  0  0  0  0  0  0  0
  179.6190  183.1490  134.7540 C   0  0  0  0  0  1  0  0  0  0  0  0
  180.6010  182.2790  135.2600 O   0  0  0  0  0  0  0  0  0  0  0  0
  183.7240  178.8520  141.9670 C   0  0  0  0  0  2  0  0  0  0  0  0
  183.3980  178.5280  143.4140 C   0  0  0  0  0  2  0  0  0  0  0  0
  185.2720  179.1440  144.9410 C   0  0  0  0  0  3  0  0  0  0  0  0
  184.1240  179.4640  144.3290 C   0  0  0  0  0  3  0  0  0  0  0  0
  186.8660  177.5510  145.9520 C   0  0  0  0  0  3  0  0  0  0  0  0
  186.7130  178.0310  142.4710 O   0  0  0  0  0  0  0  0  0  0  0  0
  188.1170  177.5080  145.6130 N   0  0  0  0  0  0  0  0  0  0  0  0
  188.2560  177.7150  144.2400 N   0  0  0  0  0  0  0  0  0  0  0  0
  186.9600  177.8850  143.6990 C   0  0  0  0  0  0  0  0  0  0  0  0
  185.9480  177.8110  144.7810 C   0  0  2  0  0  3  0  0  0  0  0  0
  189.4980  177.6320  143.5300 C   0  0  0  0  0  0  0  0  0  0  0  0
  190.9860  177.5070  141.9470 N   0  0  0  0  0  0  0  0  0  0  0  0
  191.6210  177.4370  140.6640 C   0  0  0  0  0  0  0  0  0  0  0  0
  191.6400  177.4300  143.0970 N   0  0  0  0  0  0  0  0  0  0  0  0
  190.7470  177.5010  144.1060 C   0  0  0  0  0  3  0  0  0  0  0  0
  189.6620  177.6280  142.1640 C   0  0  0  0  0  3  0  0  0  0  0  0
  192.8670  177.2570  140.5950 O   0  0  0  0  0  0  0  0  0  0  0  0
  191.4720  176.6850  138.3270 C   0  0  0  0  0  2  0  0  0  0  0  0
  190.8090  177.5230  139.4040 C   0  0  0  0  0  3  0  0  0  0  0  0
  190.2330  176.1690  139.0250 C   0  0  0  0  0  2  0  0  0  0  0  0
  182.4490  176.8400  138.9670 C   0  0  1  0  0  3  0  0  0  0  0  0
  182.3520  175.1580  136.9360 C   0  0  0  0  0  2  0  0  0  0  0  0
  182.7250  176.5160  137.4820 C   0  0  0  0  0  0  0  0  0  0  0  0
  181.5170  176.3870  136.5830 C   0  0  0  0  0  2  0  0  0  0  0  0
  183.9150  177.1730  136.7990 C   0  0  0  0  0  2  0  0  0  0  0  0
  184.4820  176.2730  135.7240 C   0  0  0  0  0  2  0  0  0  0  0  0
  185.9510  176.0250  135.9910 C   0  0  0  0  0  2  0  0  0  0  0  0
  186.7590  177.5690  136.4960 S   0  0  0  0  0  0  0  0  0  0  0  0
  188.4210  176.8670  136.2700 C   0  0  0  0  0  1  0  0  0  0  0  0
  180.8360  175.6730  139.9510 C   0  0  0  0  0  1  0  0  0  0  0  0
  182.2170  175.6950  139.7390 O   0  0  0  0  0  0  0  0  0  0  0  0
  1  4  1  6  0  0  0
  1  3  1  0  0  0  0
  2 35  1  6  0  0  0
  2  1  1  0  0  0  0
  2  3  1  0  0  0  0
  3 15  1  1  0  0  0
  4  5  1  1  0  0  0
  6  8  1  0  0  0  0
  7  6  2  0  0  0  0
  8  4  1  0  0  0  0
  8  5  1  0  0  0  0
  9 14  1  6  0  0  0
  9  6  1  0  0  0  0
  9 10  1  0  0  0  0
 10 12  2  0  0  0  0
 10 11  1  0  0  0  0
 13 14  1  0  0  0  0
 15 16  1  0  0  0  0
 16 18  1  0  0  0  0
 18 17  2  0  0  0  0
 20 23  2  0  0  0  0
 21 19  2  0  0  0  0
 22 21  1  0  0  0  0
 23 22  1  0  0  0  0
 23 24  1  0  0  0  0
 24 17  1  1  0  0  0
 24 19  1  0  0  0  0
 25 29  1  0  0  0  0
 25 22  1  0  0  0  0
 26 30  1  0  0  0  0
 26 28  1  0  0  0  0
 27 26  1  0  0  0  0
 28 29  2  0  0  0  0
 30 25  2  0  0  0  0
 31 27  2  0  0  0  0
 32 34  1  0  0  0  0
 32 33  1  0  0  0  0
 33 27  1  0  0  0  0
 34 33  1  0  0  0  0
 35 45  1  1  0  0  0
 36 37  1  0  0  0  0
 37 35  1  0  0  0  0
 38 36  1  0  0  0  0
 38 37  1  0  0  0  0
 39 37  1  0  0  0  0
 40 41  1  0  0  0  0
 40 39  1  0  0  0  0
 41 42  1  0  0  0  0
 43 42  1  0  0  0  0
 45 44  1  0  0  0  0
M  END
>  <MODEL>
7

>  <REMARK>
 VINA RESULT:      -6.5      3.942     10.263
  Name = 
  17 active torsions:
  status: ('A' for Active; 'I' for Inactive)
    1  A    between atoms: C_1  and  C_22
    2  A    between atoms: C_1  and  C_29
    3  A    between atoms: C_3  and  C_45
    4  A    between atoms: C_6  and  N_34
    5  A    between atoms: C_7  and  C_13
    6  A    between atoms: C_8  and  C_39
    7  A    between atoms: C_14  and  C_35
    8  A    between atoms: C_15  and  C_19
    9  A    between atoms: C_20  and  C_29
   10  A    between atoms: C_21  and  C_39
   11  A    between atoms: C_24  and  C_36
   12  A    between atoms: C_24  and  C_43
   13  A    between atoms: S_25  and  C_43
   14  A    between atoms: C_31  and  C_35
   15  A    between atoms: C_31  and  C_36
   16  A    between atoms: C_35  and  O_37
   17  A    between atoms: C_39  and  O_42
                            x       y       z     vdW  Elec       q    Type
                         _______ _______ _______ _____ _____    ______ ____

>  <TORSDO>
F 17

$$$$
=
 OpenBabel10222421193D

 45 50  0  0  1  0  0  0  0  0999 V2000
  187.3140  178.4950  144.7390 C   0  0  2  0  0  3  0  0  0  0  0  0
  187.6330  178.4090  146.2440 C   0  0  1  0  0  3  0  0  0  0  0  0
  186.2920  177.9400  145.7030 C   0  0  1  0  0  3  0  0  0  0  0  0
  187.8100  177.3440  143.8750 C   0  0  1  0  0  3  0  0  0  0  0  0
  186.7570  176.7140  143.2480 C   0  0  0  0  0  2  0  0  0  0  0  0
  187.8550  178.3930  141.2480 C   0  0  0  0  0  0  0  0  0  0  0  0
  188.8010  179.2220  141.2380 O   0  0  0  0  0  0  0  0  0  0  0  0
  187.5590  177.6780  142.4430 N   0  0  0  0  0  0  0  0  0  0  0  0
  187.0230  178.2040  140.0080 C   0  0  1  0  0  3  0  0  0  0  0  0
  185.7610  179.0150  139.9670 C   0  0  0  0  0  0  0  0  0  0  0  0
  184.9300  178.9870  138.8500 O   0  0  0  0  0  0  0  0  0  0  0  0
  185.4670  179.7520  140.9420 O   0  0  0  0  0  1  0  0  0  0  0  0
  188.7050  177.1660  138.8340 C   0  0  0  0  0  1  0  0  0  0  0  0
  187.7530  178.2000  138.8010 O   0  0  0  0  0  0  0  0  0  0  0  0
  185.2540  178.9960  146.0150 C   0  0  0  0  0  2  0  0  0  0  0  0
  184.3590  179.1850  144.8030 C   0  0  0  0  0  2  0  0  0  0  0  0
  182.0100  178.6370  144.1690 C   0  0  0  0  0  3  0  0  0  0  0  0
  182.9970  178.6280  145.0750 C   0  0  0  0  0  3  0  0  0  0  0  0
  180.8090  179.5890  142.2320 C   0  0  0  0  0  3  0  0  0  0  0  0
  183.6180  177.5140  141.8100 O   0  0  0  0  0  0  0  0  0  0  0  0
  180.4720  178.8740  141.2030 N   0  0  0  0  0  0  0  0  0  0  0  0
  181.4750  177.9530  140.9020 N   0  0  0  0  0  0  0  0  0  0  0  0
  182.5240  178.1400  141.8320 C   0  0  0  0  0  0  0  0  0  0  0  0
  182.1620  179.2140  142.7910 C   0  0  2  0  0  3  0  0  0  0  0  0
  181.4590  177.0810  139.7640 C   0  0  0  0  0  0  0  0  0  0  0  0
  182.0610  175.7210  138.1760 N   0  0  0  0  0  0  0  0  0  0  0  0
  182.8320  174.8760  137.3130 C   0  0  0  0  0  0  0  0  0  0  0  0
  180.7740  175.9830  137.9920 N   0  0  0  0  0  0  0  0  0  0  0  0
  180.3650  176.8290  138.9600 C   0  0  0  0  0  3  0  0  0  0  0  0
  182.5270  176.3800  139.2540 C   0  0  0  0  0  3  0  0  0  0  0  0
  182.2910  174.3670  136.2930 O   0  0  0  0  0  0  0  0  0  0  0  0
  185.0060  174.3990  136.2660 C   0  0  0  0  0  2  0  0  0  0  0  0
  184.2890  174.6360  137.5820 C   0  0  0  0  0  3  0  0  0  0  0  0
  185.1510  175.7290  136.9730 C   0  0  0  0  0  2  0  0  0  0  0  0
  188.6160  177.2890  146.6920 C   0  0  1  0  0  3  0  0  0  0  0  0
  191.1050  176.7350  147.3710 C   0  0  0  0  0  2  0  0  0  0  0  0
  190.1290  177.3320  146.3850 C   0  0  0  0  0  0  0  0  0  0  0  0
  190.7910  176.0120  146.0630 C   0  0  0  0  0  2  0  0  0  0  0  0
  190.6770  178.4930  145.5690 C   0  0  0  0  0  2  0  0  0  0  0  0
  191.7350  178.0160  144.5990 C   0  0  0  0  0  2  0  0  0  0  0  0
  191.2900  178.3000  143.1810 C   0  0  0  0  0  2  0  0  0  0  0  0
  191.1830  176.7510  142.2420 S   0  0  0  0  0  0  0  0  0  0  0  0
  191.9280  177.5030  140.7630 C   0  0  0  0  0  1  0  0  0  0  0  0
  188.1430  177.8600  148.7860 C   0  0  0  0  0  1  0  0  0  0  0  0
  188.3330  176.7530  147.9540 O   0  0  0  0  0  0  0  0  0  0  0  0
  1  4  1  6  0  0  0
  1  3  1  0  0  0  0
  1  2  1  0  0  0  0
  2 35  1  6  0  0  0
  3 15  1  1  0  0  0
  3  2  1  0  0  0  0
  4  5  1  1  0  0  0
  6  8  1  0  0  0  0
  7  6  2  0  0  0  0
  8  5  1  0  0  0  0
  8  4  1  0  0  0  0
  9 14  1  6  0  0  0
  9  6  1  0  0  0  0
 10  9  1  0  0  0  0
 10 12  1  0  0  0  0
 11 10  2  0  0  0  0
 14 13  1  0  0  0  0
 16 18  1  0  0  0  0
 16 15  1  0  0  0  0
 17 18  2  0  0  0  0
 19 24  1  0  0  0  0
 20 23  2  0  0  0  0
 21 19  2  0  0  0  0
 22 21  1  0  0  0  0
 22 23  1  0  0  0  0
 23 24  1  0  0  0  0
 24 17  1  1  0  0  0
 25 22  1  0  0  0  0
 26 30  1  0  0  0  0
 27 33  1  0  0  0  0
 27 26  1  0  0  0  0
 28 26  1  0  0  0  0
 28 29  2  0  0  0  0
 29 25  1  0  0  0  0
 30 25  2  0  0  0  0
 31 27  2  0  0  0  0
 32 34  1  0  0  0  0
 32 33  1  0  0  0  0
 34 33  1  0  0  0  0
 35 45  1  1  0  0  0
 37 35  1  0  0  0  0
 37 36  1  0  0  0  0
 38 37  1  0  0  0  0
 38 36  1  0  0  0  0
 39 37  1  0  0  0  0
 40 39  1  0  0  0  0
 41 40  1  0  0  0  0
 42 41  1  0  0  0  0
 43 42  1  0  0  0  0
 45 44  1  0  0  0  0
M  END
>  <MODEL>
8

>  <REMARK>
 VINA RESULT:      -6.5      3.668      7.140
  Name = 
  17 active torsions:
  status: ('A' for Active; 'I' for Inactive)
    1  A    between atoms: C_1  and  C_22
    2  A    between atoms: C_1  and  C_29
    3  A    between atoms: C_3  and  C_45
    4  A    between atoms: C_6  and  N_34
    5  A    between atoms: C_7  and  C_13
    6  A    between atoms: C_8  and  C_39
    7  A    between atoms: C_14  and  C_35
    8  A    between atoms: C_15  and  C_19
    9  A    between atoms: C_20  and  C_29
   10  A    between atoms: C_21  and  C_39
   11  A    between atoms: C_24  and  C_36
   12  A    between atoms: C_24  and  C_43
   13  A    between atoms: S_25  and  C_43
   14  A    between atoms: C_31  and  C_35
   15  A    between atoms: C_31  and  C_36
   16  A    between atoms: C_35  and  O_37
   17  A    between atoms: C_39  and  O_42
                            x       y       z     vdW  Elec       q    Type
                         _______ _______ _______ _____ _____    ______ ____

>  <TORSDO>
F 17

$$$$
=
 OpenBabel10222421193D

 45 50  0  0  1  0  0  0  0  0999 V2000
  191.2950  176.1250  139.2210 C   0  0  2  0  0  3  0  0  0  0  0  0
  189.8220  176.5600  139.1080 C   0  0  1  0  0  3  0  0  0  0  0  0
  190.7570  177.2260  140.1050 C   0  0  1  0  0  3  0  0  0  0  0  0
  192.2660  176.7560  138.2330 C   0  0  1  0  0  3  0  0  0  0  0  0
  193.5280  176.8480  138.7780 C   0  0  0  0  0  2  0  0  0  0  0  0
  193.6580  174.5670  137.1040 C   0  0  0  0  0  0  0  0  0  0  0  0
  192.8150  173.9750  136.3810 O   0  0  0  0  0  0  0  0  0  0  0  0
  193.2700  175.7300  137.8270 N   0  0  0  0  0  0  0  0  0  0  0  0
  195.0500  174.0080  137.2280 C   0  0  1  0  0  3  0  0  0  0  0  0
  195.3630  173.3860  138.5570 C   0  0  0  0  0  0  0  0  0  0  0  0
  195.0700  172.0480  138.8070 O   0  0  0  0  0  0  0  0  0  0  0  0
  195.8660  174.0910  139.4680 O   0  0  0  0  0  1  0  0  0  0  0  0
  196.3900  174.0270  135.3610 C   0  0  0  0  0  1  0  0  0  0  0  0
  195.4870  173.2580  136.1160 O   0  0  0  0  0  0  0  0  0  0  0  0
  190.4560  176.6760  141.4830 C   0  0  0  0  0  2  0  0  0  0  0  0
  191.6720  176.8730  142.3710 C   0  0  0  0  0  2  0  0  0  0  0  0
  191.6280  175.8590  144.6490 C   0  0  0  0  0  3  0  0  0  0  0  0
  191.8040  175.7290  143.3270 C   0  0  0  0  0  3  0  0  0  0  0  0
  191.1930  176.9780  146.8080 C   0  0  0  0  0  3  0  0  0  0  0  0
  189.4190  177.8510  143.8990 O   0  0  0  0  0  0  0  0  0  0  0  0
  189.9940  177.1680  147.2640 N   0  0  0  0  0  0  0  0  0  0  0  0
  189.1260  177.5000  146.2230 N   0  0  0  0  0  0  0  0  0  0  0  0
  189.8790  177.5250  145.0260 C   0  0  0  0  0  0  0  0  0  0  0  0
  191.2900  177.1650  145.3120 C   0  0  2  0  0  3  0  0  0  0  0  0
  187.7520  177.8690  146.4010 C   0  0  0  0  0  0  0  0  0  0  0  0
  185.6580  178.3330  146.0350 N   0  0  0  0  0  0  0  0  0  0  0  0
  184.3910  178.5470  145.4000 C   0  0  0  0  0  0  0  0  0  0  0  0
  185.8840  178.5630  147.3210 N   0  0  0  0  0  0  0  0  0  0  0  0
  187.1790  178.2870  147.5860 C   0  0  0  0  0  3  0  0  0  0  0  0
  186.7820  177.9080  145.4260 C   0  0  0  0  0  3  0  0  0  0  0  0
  183.4290  179.0110  146.0700 O   0  0  0  0  0  0  0  0  0  0  0  0
  183.3630  179.3690  143.3220 C   0  0  0  0  0  2  0  0  0  0  0  0
  184.2160  178.2730  143.9340 C   0  0  0  0  0  3  0  0  0  0  0  0
  184.8580  179.3600  143.0890 C   0  0  0  0  0  2  0  0  0  0  0  0
  189.4340  177.4130  137.8650 C   0  0  1  0  0  3  0  0  0  0  0  0
  189.9330  176.5530  135.4200 C   0  0  0  0  0  2  0  0  0  0  0  0
  188.9460  176.7870  136.5410 C   0  0  0  0  0  0  0  0  0  0  0  0
  189.4110  175.3790  136.2470 C   0  0  0  0  0  2  0  0  0  0  0  0
  187.5190  177.0540  136.0870 C   0  0  0  0  0  2  0  0  0  0  0  0
  186.5820  175.9830  136.6000 C   0  0  0  0  0  2  0  0  0  0  0  0
  185.6810  175.5150  135.4770 C   0  0  0  0  0  2  0  0  0  0  0  0
  185.2650  173.7630  135.7040 S   0  0  0  0  0  0  0  0  0  0  0  0
  183.5140  174.0450  135.2990 C   0  0  0  0  0  1  0  0  0  0  0  0
  187.9090  178.2830  139.2250 C   0  0  0  0  0  1  0  0  0  0  0  0
  188.7740  178.6080  138.1770 O   0  0  0  0  0  0  0  0  0  0  0  0
  1  4  1  6  0  0  0
  1  3  1  0  0  0  0
  2 35  1  6  0  0  0
  2  1  1  0  0  0  0
  2  3  1  0  0  0  0
  3 15  1  1  0  0  0
  4  5  1  1  0  0  0
  6  9  1  0  0  0  0
  6  8  1  0  0  0  0
  7  6  2  0  0  0  0
  8  4  1  0  0  0  0
  8  5  1  0  0  0  0
  9 14  1  6  0  0  0
  9 10  1  0  0  0  0
 10 11  2  0  0  0  0
 10 12  1  0  0  0  0
 13 14  1  0  0  0  0
 15 16  1  0  0  0  0
 16 18  1  0  0  0  0
 18 17  2  0  0  0  0
 19 21  2  0  0  0  0
 20 23  2  0  0  0  0
 22 25  1  0  0  0  0
 22 21  1  0  0  0  0
 23 24  1  0  0  0  0
 23 22  1  0  0  0  0
 24 17  1  6  0  0  0
 24 19  1  0  0  0  0
 25 29  1  0  0  0  0
 26 28  1  0  0  0  0
 27 26  1  0  0  0  0
 27 31  2  0  0  0  0
 28 29  2  0  0  0  0
 30 26  1  0  0  0  0
 30 25  2  0  0  0  0
 32 33  1  0  0  0  0
 33 27  1  0  0  0  0
 34 32  1  0  0  0  0
 34 33  1  0  0  0  0
 35 45  1  1  0  0  0
 36 38  1  0  0  0  0
 36 37  1  0  0  0  0
 37 35  1  0  0  0  0
 38 37  1  0  0  0  0
 39 37  1  0  0  0  0
 39 40  1  0  0  0  0
 41 42  1  0  0  0  0
 41 40  1  0  0  0  0
 43 42  1  0  0  0  0
 45 44  1  0  0  0  0
M  END
>  <MODEL>
9

>  <REMARK>
 VINA RESULT:      -6.5      3.139      6.374
  Name = 
  17 active torsions:
  status: ('A' for Active; 'I' for Inactive)
    1  A    between atoms: C_1  and  C_22
    2  A    between atoms: C_1  and  C_29
    3  A    between atoms: C_3  and  C_45
    4  A    between atoms: C_6  and  N_34
    5  A    between atoms: C_7  and  C_13
    6  A    between atoms: C_8  and  C_39
    7  A    between atoms: C_14  and  C_35
    8  A    between atoms: C_15  and  C_19
    9  A    between atoms: C_20  and  C_29
   10  A    between atoms: C_21  and  C_39
   11  A    between atoms: C_24  and  C_36
   12  A    between atoms: C_24  and  C_43
   13  A    between atoms: S_25  and  C_43
   14  A    between atoms: C_31  and  C_35
   15  A    between atoms: C_31  and  C_36
   16  A    between atoms: C_35  and  O_37
   17  A    between atoms: C_39  and  O_42
                            x       y       z     vdW  Elec       q    Type
                         _______ _______ _______ _____ _____    ______ ____

>  <TORSDO>
F 17

$$$$
