=
 OpenBabel10222419003D

 38 44  0  0  1  0  0  0  0  0999 V2000
  189.1440  177.9250  137.3720 O   0  0  0  0  0  0  0  0  0  0  0  0
  187.7100  178.5330  141.3950 C   0  0  0  0  0  2  0  0  0  0  0  0
  185.5690  178.3930  140.0970 C   0  0  0  0  0  0  0  0  0  0  0  0
  190.9650  177.1600  141.4330 O   0  0  0  0  0  0  0  0  0  0  0  0
  188.5670  177.2870  141.6020 C   0  0  1  0  0  3  0  0  0  0  0  0
  189.7820  177.1800  140.6660 C   0  0  1  0  0  3  0  0  0  0  0  0
  186.9140  178.4050  140.1790 N   0  0  0  0  0  0  0  0  0  0  0  0
  189.1750  177.3230  142.9660 C   0  0  2  0  0  3  0  0  0  0  0  0
  188.8100  178.1320  138.5690 C   0  0  0  0  0  0  0  0  0  0  0  0
  189.8810  178.2770  139.6030 C   0  0  0  0  0  2  0  0  0  0  0  0
  187.3820  178.2380  138.9260 C   0  0  0  0  0  0  0  0  0  0  0  0
  190.5890  176.8100  142.7420 C   0  0  1  0  0  3  0  0  0  0  0  0
  185.1730  178.2380  138.7780 C   0  0  0  0  0  3  0  0  0  0  0  0
  186.3350  178.1300  138.0280 C   0  0  0  0  0  3  0  0  0  0  0  0
  181.2210  179.4720  140.0370 C   0  0  1  0  0  3  0  0  0  0  0  0
  182.4410  178.6100  140.0420 C   0  0  0  0  0  0  0  0  0  0  0  0
  179.2060  178.9190  139.0100 N   0  0  0  0  0  0  0  0  0  0  0  0
  180.3970  178.8170  142.2960 N   0  0  0  0  0  0  0  0  0  0  0  0
  184.0650  179.0300  143.3830 C   0  0  0  0  0  0  0  0  0  0  0  0
  179.0070  178.6680  140.3690 N   0  0  0  0  0  2  0  0  0  0  0  0
  181.6070  179.0040  143.0560 C   0  0  0  0  0  2  0  0  0  0  0  0
  183.3200  178.6930  141.2140 C   0  0  0  0  0  0  0  0  0  0  0  0
  185.1240  178.7910  142.6250 C   0  0  0  0  0  2  0  0  0  0  0  0
  182.8580  178.9750  142.5720 C   0  0  0  0  0  0  0  0  0  0  0  0
  180.4070  179.3510  138.7790 C   0  0  0  0  0  3  0  0  0  0  0  0
  182.6880  177.8100  139.0980 O   0  0  0  0  0  0  0  0  0  0  0  0
  184.1260  179.2690  144.8520 C   0  0  0  0  0  1  0  0  0  0  0  0
  184.6550  178.5810  141.2480 C   0  0  0  0  0  0  0  0  0  0  0  0
  180.2290  178.9630  141.0160 C   0  0  0  0  0  0  0  0  0  0  0  0
  190.6680  175.4190  142.8920 O   0  0  0  0  0  0  0  0  0  0  0  0
  191.6880  175.2190  143.8210 C   0  0  0  0  0  1  0  0  0  0  0  0
  188.3560  176.5020  143.9590 C   0  0  0  0  0  2  0  0  0  0  0  0
  187.8330  177.3780  145.0850 C   0  0  0  0  0  2  0  0  0  0  0  0
  188.9850  178.1030  145.7630 C   0  0  0  0  0  2  0  0  0  0  0  0
  190.6530  176.6260  147.1720 C   0  0  0  0  0  1  0  0  0  0  0  0
  188.2200  176.9520  147.9400 C   0  0  0  0  0  2  0  0  0  0  0  0
  189.3600  177.4090  147.0600 C   0  0  0  0  0  0  0  0  0  0  0  0
  189.0170  178.2020  148.2980 C   0  0  0  0  0  2  0  0  0  0  0  0
  1  9  2  0  0  0  0
  3  7  1  0  0  0  0
  3 28  1  0  0  0  0
  4 12  1  0  0  0  0
  5  2  1  6  0  0  0
  5  8  1  0  0  0  0
  6 10  1  6  0  0  0
  6  4  1  0  0  0  0
  6  5  1  0  0  0  0
  7  2  1  0  0  0  0
  8 32  1  1  0  0  0
  9 11  1  0  0  0  0
  9 10  1  0  0  0  0
 11  7  1  0  0  0  0
 12 30  1  6  0  0  0
 12  8  1  0  0  0  0
 13  3  2  0  0  0  0
 14 13  1  0  0  0  0
 14 11  2  0  0  0  0
 15 25  1  6  0  0  0
 15 16  1  0  0  0  0
 15 29  1  0  0  0  0
 16 22  1  0  0  0  0
 17 20  1  0  0  0  0
 18 21  1  0  0  0  0
 19 27  1  0  0  0  0
 20 29  1  0  0  0  0
 22 28  2  0  0  0  0
 22 24  1  0  0  0  0
 23 19  1  0  0  0  0
 24 21  1  0  0  0  0
 24 19  2  0  0  0  0
 25 17  2  0  0  0  0
 26 16  2  0  0  0  0
 28 23  1  0  0  0  0
 29 18  2  0  0  0  0
 30 31  1  0  0  0  0
 32 33  1  0  0  0  0
 33 34  1  0  0  0  0
 34 37  1  0  0  0  0
 36 38  1  0  0  0  0
 37 35  1  0  0  0  0
 37 36  1  0  0  0  0
 37 38  1  0  0  0  0
M  END
>  <MODEL>
1

>  <REMARK>
 VINA RESULT:     -10.1      0.000      0.000
  Name = 
  6 active torsions:
  status: ('A' for Active; 'I' for Inactive)
    1  A    between atoms: C_5  and  C_35
    2  A    between atoms: O_7  and  C_30
    3  A    between atoms: C_16  and  C_19
    4  A    between atoms: C_16  and  C_23
    5  A    between atoms: C_23  and  C_34
    6  A    between atoms: C_25  and  C_34
                            x       y       z     vdW  Elec       q    Type
                         _______ _______ _______ _____ _____    ______ ____

>  <TORSDO>
F 6

$$$$
=
 OpenBabel10222419003D

 38 44  0  0  1  0  0  0  0  0999 V2000
  184.8230  178.6650  147.0560 O   0  0  0  0  0  0  0  0  0  0  0  0
  186.1320  177.4440  143.1300 C   0  0  0  0  0  2  0  0  0  0  0  0
  184.0490  178.7370  142.6040 C   0  0  0  0  0  0  0  0  0  0  0  0
  188.8440  177.4560  145.3940 O   0  0  0  0  0  0  0  0  0  0  0  0
  187.3850  178.1670  143.6170 C   0  0  1  0  0  3  0  0  0  0  0  0
  187.6170  178.1000  145.1350 C   0  0  1  0  0  3  0  0  0  0  0  0
  184.9390  178.2110  143.4690 N   0  0  0  0  0  0  0  0  0  0  0  0
  188.5950  177.5050  143.0460 C   0  0  2  0  0  3  0  0  0  0  0  0
  185.2580  178.2440  145.9510 C   0  0  0  0  0  0  0  0  0  0  0  0
  186.5030  177.4170  145.9320 C   0  0  0  0  0  2  0  0  0  0  0  0
  184.5340  178.5640  144.7050 C   0  0  0  0  0  0  0  0  0  0  0  0
  189.5850  177.5090  144.2000 C   0  0  1  0  0  3  0  0  0  0  0  0
  183.0550  179.4140  143.2930 C   0  0  0  0  0  3  0  0  0  0  0  0
  183.3700  179.3110  144.6400 C   0  0  0  0  0  3  0  0  0  0  0  0
  181.2020  176.4800  139.9810 C   0  0  1  0  0  3  0  0  0  0  0  0
  181.7910  177.6320  140.7280 C   0  0  0  0  0  0  0  0  0  0  0  0
  178.9310  176.1930  139.5580 N   0  0  0  0  0  0  0  0  0  0  0  0
  181.6480  177.3620  137.6940 N   0  0  0  0  0  0  0  0  0  0  0  0
  185.0480  178.4500  139.0840 C   0  0  0  0  0  0  0  0  0  0  0  0
  179.4680  176.6740  138.3640 N   0  0  0  0  0  2  0  0  0  0  0  0
  183.0400  177.7020  137.8350 C   0  0  0  0  0  2  0  0  0  0  0  0
  183.1380  178.0670  140.3410 C   0  0  0  0  0  0  0  0  0  0  0  0
  185.3080  178.8050  140.3330 C   0  0  0  0  0  2  0  0  0  0  0  0
  183.6750  177.9760  138.9850 C   0  0  0  0  0  0  0  0  0  0  0  0
  179.8390  176.0800  140.4760 C   0  0  0  0  0  3  0  0  0  0  0  0
  181.1440  178.2370  141.6270 O   0  0  0  0  0  0  0  0  0  0  0  0
  186.0180  178.5720  137.9610 C   0  0  0  0  0  1  0  0  0  0  0  0
  184.1000  178.5590  141.1330 C   0  0  0  0  0  0  0  0  0  0  0  0
  180.8450  176.8920  138.6010 C   0  0  0  0  0  0  0  0  0  0  0  0
  190.3820  178.6610  144.1980 O   0  0  0  0  0  0  0  0  0  0  0  0
  191.6860  178.1920  144.3540 C   0  0  0  0  0  1  0  0  0  0  0  0
  189.0830  178.2290  141.7930 C   0  0  0  0  0  2  0  0  0  0  0  0
  188.7240  177.4470  140.5410 C   0  0  0  0  0  2  0  0  0  0  0  0
  189.3230  178.1170  139.3140 C   0  0  0  0  0  2  0  0  0  0  0  0
  191.1570  176.3110  138.7460 C   0  0  0  0  0  1  0  0  0  0  0  0
  189.6620  177.2880  136.8950 C   0  0  0  0  0  2  0  0  0  0  0  0
  189.9050  177.0780  138.3720 C   0  0  0  0  0  0  0  0  0  0  0  0
  188.8640  176.2420  137.6680 C   0  0  0  0  0  2  0  0  0  0  0  0
  2  7  1  0  0  0  0
  3 13  2  0  0  0  0
  3  7  1  0  0  0  0
  5  2  1  1  0  0  0
  5  6  1  0  0  0  0
  6  4  1  0  0  0  0
  6 10  1  1  0  0  0
  7 11  1  0  0  0  0
  8 32  1  6  0  0  0
  8  5  1  0  0  0  0
  8 12  1  0  0  0  0
  9  1  2  0  0  0  0
 10  9  1  0  0  0  0
 11  9  1  0  0  0  0
 12 30  1  1  0  0  0
 12  4  1  0  0  0  0
 13 14  1  0  0  0  0
 14 11  2  0  0  0  0
 15 25  1  1  0  0  0
 15 16  1  0  0  0  0
 16 26  2  0  0  0  0
 17 25  2  0  0  0  0
 18 21  1  0  0  0  0
 18 29  2  0  0  0  0
 19 23  1  0  0  0  0
 20 29  1  0  0  0  0
 20 17  1  0  0  0  0
 21 24  1  0  0  0  0
 22 16  1  0  0  0  0
 22 28  2  0  0  0  0
 23 28  1  0  0  0  0
 24 19  2  0  0  0  0
 24 22  1  0  0  0  0
 27 19  1  0  0  0  0
 28  3  1  0  0  0  0
 29 15  1  0  0  0  0
 30 31  1  0  0  0  0
 33 32  1  0  0  0  0
 34 33  1  0  0  0  0
 36 38  1  0  0  0  0
 36 37  1  0  0  0  0
 37 35  1  0  0  0  0
 37 34  1  0  0  0  0
 38 37  1  0  0  0  0
M  END
>  <MODEL>
2

>  <REMARK>
 VINA RESULT:      -9.8      2.353      5.453
  Name = 
  6 active torsions:
  status: ('A' for Active; 'I' for Inactive)
    1  A    between atoms: C_5  and  C_35
    2  A    between atoms: O_7  and  C_30
    3  A    between atoms: C_16  and  C_19
    4  A    between atoms: C_16  and  C_23
    5  A    between atoms: C_23  and  C_34
    6  A    between atoms: C_25  and  C_34
                            x       y       z     vdW  Elec       q    Type
                         _______ _______ _______ _____ _____    ______ ____

>  <TORSDO>
F 6

$$$$
=
 OpenBabel10222419003D

 38 44  0  0  1  0  0  0  0  0999 V2000
  179.9490  180.2430  142.0360 O   0  0  0  0  0  0  0  0  0  0  0  0
  183.4500  177.8370  141.2830 C   0  0  0  0  0  2  0  0  0  0  0  0
  182.9970  178.8170  139.0190 C   0  0  0  0  0  0  0  0  0  0  0  0
  183.2390  178.6830  144.7070 O   0  0  0  0  0  0  0  0  0  0  0  0
  183.9700  178.7200  142.4140 C   0  0  1  0  0  3  0  0  0  0  0  0
  182.9020  179.1660  143.4260 C   0  0  1  0  0  3  0  0  0  0  0  0
  182.6980  178.6350  140.3210 N   0  0  0  0  0  0  0  0  0  0  0  0
  184.9400  177.9450  143.2440 C   0  0  2  0  0  3  0  0  0  0  0  0
  180.9530  179.4960  141.8950 C   0  0  0  0  0  0  0  0  0  0  0  0
  181.4690  178.7490  143.0830 C   0  0  0  0  0  2  0  0  0  0  0  0
  181.5920  179.3630  140.5710 C   0  0  0  0  0  0  0  0  0  0  0  0
  184.6070  178.3620  144.6680 C   0  0  1  0  0  3  0  0  0  0  0  0
  182.0630  179.6520  138.4270 C   0  0  0  0  0  3  0  0  0  0  0  0
  181.1660  180.0090  139.4230 C   0  0  0  0  0  3  0  0  0  0  0  0
  183.2370  174.6340  137.4330 C   0  0  1  0  0  3  0  0  0  0  0  0
  182.9680  176.1030  137.4480 C   0  0  0  0  0  0  0  0  0  0  0  0
  182.0500  173.0790  136.1710 N   0  0  0  0  0  0  0  0  0  0  0  0
  185.1250  174.7030  135.8080 N   0  0  0  0  0  0  0  0  0  0  0  0
  186.2790  177.8180  137.7170 C   0  0  0  0  0  0  0  0  0  0  0  0
  183.2390  173.2890  135.4710 N   0  0  0  0  0  2  0  0  0  0  0  0
  185.9230  175.7400  136.4110 C   0  0  0  0  0  2  0  0  0  0  0  0
  184.1130  176.9950  137.6660 C   0  0  0  0  0  0  0  0  0  0  0  0
  185.5030  178.6870  138.3450 C   0  0  0  0  0  2  0  0  0  0  0  0
  185.4780  176.7040  137.2320 C   0  0  0  0  0  0  0  0  0  0  0  0
  181.9990  173.8010  137.2470 C   0  0  0  0  0  3  0  0  0  0  0  0
  181.8130  176.5660  137.2400 O   0  0  0  0  0  0  0  0  0  0  0  0
  187.7430  178.0020  137.5110 C   0  0  0  0  0  1  0  0  0  0  0  0
  184.1290  178.1650  138.3180 C   0  0  0  0  0  0  0  0  0  0  0  0
  183.9680  174.2590  136.1970 C   0  0  0  0  0  0  0  0  0  0  0  0
  185.3570  179.4740  145.0740 O   0  0  0  0  0  0  0  0  0  0  0  0
  185.7240  179.1940  146.3900 C   0  0  0  0  0  1  0  0  0  0  0  0
  186.3800  178.2300  142.8230 C   0  0  0  0  0  2  0  0  0  0  0  0
  187.3250  177.1810  143.3830 C   0  0  0  0  0  2  0  0  0  0  0  0
  188.7640  177.5310  143.0330 C   0  0  0  0  0  2  0  0  0  0  0  0
  188.9420  177.6060  145.6620 C   0  0  0  0  0  1  0  0  0  0  0  0
  190.7420  178.7110  144.1930 C   0  0  0  0  0  2  0  0  0  0  0  0
  189.5790  177.7500  144.2940 C   0  0  0  0  0  0  0  0  0  0  0  0
  190.9850  177.2050  144.2150 C   0  0  0  0  0  2  0  0  0  0  0  0
  3  7  1  0  0  0  0
  5  2  1  6  0  0  0
  5  8  1  0  0  0  0
  5  6  1  0  0  0  0
  6 10  1  6  0  0  0
  6  4  1  0  0  0  0
  7 11  1  0  0  0  0
  7  2  1  0  0  0  0
  8 32  1  6  0  0  0
  8 12  1  0  0  0  0
  9  1  2  0  0  0  0
  9 10  1  0  0  0  0
 11  9  1  0  0  0  0
 12  4  1  0  0  0  0
 12 30  1  6  0  0  0
 13  3  2  0  0  0  0
 13 14  1  0  0  0  0
 14 11  2  0  0  0  0
 15 25  1  6  0  0  0
 15 16  1  0  0  0  0
 16 22  1  0  0  0  0
 17 25  2  0  0  0  0
 18 29  2  0  0  0  0
 18 21  1  0  0  0  0
 19 23  1  0  0  0  0
 20 17  1  0  0  0  0
 20 29  1  0  0  0  0
 21 24  1  0  0  0  0
 22 28  2  0  0  0  0
 24 22  1  0  0  0  0
 24 19  2  0  0  0  0
 26 16  2  0  0  0  0
 27 19  1  0  0  0  0
 28 23  1  0  0  0  0
 28  3  1  0  0  0  0
 29 15  1  0  0  0  0
 30 31  1  0  0  0  0
 32 33  1  0  0  0  0
 34 33  1  0  0  0  0
 34 37  1  0  0  0  0
 36 38  1  0  0  0  0
 36 37  1  0  0  0  0
 37 35  1  0  0  0  0
 38 37  1  0  0  0  0
M  END
>  <MODEL>
3

>  <REMARK>
 VINA RESULT:      -9.7      3.237      6.096
  Name = 
  6 active torsions:
  status: ('A' for Active; 'I' for Inactive)
    1  A    between atoms: C_5  and  C_35
    2  A    between atoms: O_7  and  C_30
    3  A    between atoms: C_16  and  C_19
    4  A    between atoms: C_16  and  C_23
    5  A    between atoms: C_23  and  C_34
    6  A    between atoms: C_25  and  C_34
                            x       y       z     vdW  Elec       q    Type
                         _______ _______ _______ _____ _____    ______ ____

>  <TORSDO>
F 6

$$$$
=
 OpenBabel10222419003D

 38 44  0  0  1  0  0  0  0  0999 V2000
  188.3110  177.8130  147.2870 O   0  0  0  0  0  0  0  0  0  0  0  0
  187.2550  177.2110  143.1470 C   0  0  0  0  0  2  0  0  0  0  0  0
  185.4050  178.7060  143.9420 C   0  0  0  0  0  0  0  0  0  0  0  0
  190.7090  176.6560  143.6390 O   0  0  0  0  0  0  0  0  0  0  0  0
  188.6710  177.7570  142.9850 C   0  0  1  0  0  3  0  0  0  0  0  0
  189.6290  177.4120  144.1370 C   0  0  1  0  0  3  0  0  0  0  0  0
  186.5240  177.9820  144.1460 N   0  0  0  0  0  0  0  0  0  0  0  0
  189.3130  177.1270  141.7930 C   0  0  2  0  0  3  0  0  0  0  0  0
  188.0590  177.5640  146.0770 C   0  0  0  0  0  0  0  0  0  0  0  0
  188.9880  176.6740  145.3150 C   0  0  0  0  0  2  0  0  0  0  0  0
  186.8590  178.1400  145.4420 C   0  0  0  0  0  0  0  0  0  0  0  0
  190.7400  176.8680  142.2490 C   0  0  1  0  0  3  0  0  0  0  0  0
  185.0090  179.3160  145.1220 C   0  0  0  0  0  3  0  0  0  0  0  0
  185.9450  178.9600  146.0820 C   0  0  0  0  0  3  0  0  0  0  0  0
  181.0160  178.1990  143.2010 C   0  0  1  0  0  3  0  0  0  0  0  0
  182.3060  178.8900  143.5010 C   0  0  0  0  0  0  0  0  0  0  0  0
  178.9320  178.8760  143.9880 N   0  0  0  0  0  0  0  0  0  0  0  0
  180.6500  179.2320  140.9630 N   0  0  0  0  0  0  0  0  0  0  0  0
  184.4020  178.6840  140.4120 C   0  0  0  0  0  0  0  0  0  0  0  0
  178.9860  179.3180  142.6650 N   0  0  0  0  0  2  0  0  0  0  0  0
  181.9410  178.9870  140.3720 C   0  0  0  0  0  2  0  0  0  0  0  0
  183.3510  178.8410  142.4730 C   0  0  0  0  0  0  0  0  0  0  0  0
  185.3410  178.6880  141.3450 C   0  0  0  0  0  2  0  0  0  0  0  0
  183.0910  178.7930  141.0350 C   0  0  0  0  0  0  0  0  0  0  0  0
  180.0240  178.2670  144.3300 C   0  0  0  0  0  3  0  0  0  0  0  0
  182.4790  179.5280  144.5770 O   0  0  0  0  0  0  0  0  0  0  0  0
  184.6760  178.6240  138.9500 C   0  0  0  0  0  1  0  0  0  0  0  0
  184.6780  178.7830  142.6530 C   0  0  0  0  0  0  0  0  0  0  0  0
  180.2590  178.9510  142.1700 C   0  0  0  0  0  0  0  0  0  0  0  0
  191.5830  177.9500  141.9630 O   0  0  0  0  0  0  0  0  0  0  0  0
  192.4470  177.4750  140.9760 C   0  0  0  0  0  1  0  0  0  0  0  0
  189.1970  178.0250  140.5630 C   0  0  0  0  0  2  0  0  0  0  0  0
  189.2270  177.2020  139.2870 C   0  0  0  0  0  2  0  0  0  0  0  0
  187.9110  177.3460  138.5380 C   0  0  0  0  0  2  0  0  0  0  0  0
  186.9800  178.2160  136.2300 C   0  0  0  0  0  1  0  0  0  0  0  0
  189.5000  177.8110  136.5600 C   0  0  0  0  0  2  0  0  0  0  0  0
  188.1370  177.9980  137.1870 C   0  0  0  0  0  0  0  0  0  0  0  0
  189.1270  179.1370  137.2150 C   0  0  0  0  0  2  0  0  0  0  0  0
  2  7  1  0  0  0  0
  3  7  1  0  0  0  0
  3 13  2  0  0  0  0
  4  6  1  0  0  0  0
  5  2  1  1  0  0  0
  5  6  1  0  0  0  0
  6 10  1  1  0  0  0
  7 11  1  0  0  0  0
  8 32  1  6  0  0  0
  8 12  1  0  0  0  0
  8  5  1  0  0  0  0
  9  1  2  0  0  0  0
 10  9  1  0  0  0  0
 11  9  1  0  0  0  0
 11 14  2  0  0  0  0
 12 30  1  1  0  0  0
 12  4  1  0  0  0  0
 13 14  1  0  0  0  0
 15 16  1  0  0  0  0
 15 25  1  1  0  0  0
 16 26  2  0  0  0  0
 17 25  2  0  0  0  0
 18 29  2  0  0  0  0
 19 24  2  0  0  0  0
 19 23  1  0  0  0  0
 20 17  1  0  0  0  0
 21 18  1  0  0  0  0
 21 24  1  0  0  0  0
 22 28  2  0  0  0  0
 22 16  1  0  0  0  0
 23 28  1  0  0  0  0
 24 22  1  0  0  0  0
 27 19  1  0  0  0  0
 28  3  1  0  0  0  0
 29 20  1  0  0  0  0
 29 15  1  0  0  0  0
 31 30  1  0  0  0  0
 33 32  1  0  0  0  0
 34 33  1  0  0  0  0
 35 37  1  0  0  0  0
 36 37  1  0  0  0  0
 36 38  1  0  0  0  0
 37 38  1  0  0  0  0
 37 34  1  0  0  0  0
M  END
>  <MODEL>
4

>  <REMARK>
 VINA RESULT:      -9.7      1.966      5.616
  Name = 
  6 active torsions:
  status: ('A' for Active; 'I' for Inactive)
    1  A    between atoms: C_5  and  C_35
    2  A    between atoms: O_7  and  C_30
    3  A    between atoms: C_16  and  C_19
    4  A    between atoms: C_16  and  C_23
    5  A    between atoms: C_23  and  C_34
    6  A    between atoms: C_25  and  C_34
                            x       y       z     vdW  Elec       q    Type
                         _______ _______ _______ _____ _____    ______ ____

>  <TORSDO>
F 6

$$$$
=
 OpenBabel10222419003D

 38 44  0  0  1  0  0  0  0  0999 V2000
  180.4210  179.3780  143.7930 O   0  0  0  0  0  0  0  0  0  0  0  0
  183.6840  178.7870  141.0340 C   0  0  0  0  0  2  0  0  0  0  0  0
  184.8310  178.5520  143.2520 C   0  0  0  0  0  0  0  0  0  0  0  0
  180.5970  178.0660  139.4760 O   0  0  0  0  0  0  0  0  0  0  0  0
  182.7220  177.7070  140.5460 C   0  0  1  0  0  3  0  0  0  0  0  0
  181.2330  178.0390  140.7330 C   0  0  1  0  0  3  0  0  0  0  0  0
  183.7440  178.7930  142.4910 N   0  0  0  0  0  0  0  0  0  0  0  0
  182.8650  177.5460  139.0680 C   0  0  2  0  0  3  0  0  0  0  0  0
  181.3210  179.2450  142.9220 C   0  0  0  0  0  0  0  0  0  0  0  0
  180.9490  179.3470  141.4770 C   0  0  0  0  0  2  0  0  0  0  0  0
  182.7160  179.0020  143.3370 C   0  0  0  0  0  0  0  0  0  0  0  0
  181.4330  177.3660  138.5880 C   0  0  1  0  0  3  0  0  0  0  0  0
  184.5000  178.6280  144.5950 C   0  0  0  0  0  3  0  0  0  0  0  0
  183.1420  178.9090  144.6510 C   0  0  0  0  0  3  0  0  0  0  0  0
  188.6390  177.9630  145.5370 C   0  0  1  0  0  3  0  0  0  0  0  0
  187.3660  177.6110  144.8390 C   0  0  0  0  0  0  0  0  0  0  0  0
  189.5380  176.7890  147.3350 N   0  0  0  0  0  0  0  0  0  0  0  0
  190.1740  176.8820  143.8980 N   0  0  0  0  0  0  0  0  0  0  0  0
  187.8710  178.3420  141.2070 C   0  0  0  0  0  0  0  0  0  0  0  0
  190.2770  176.3800  146.2240 N   0  0  0  0  0  2  0  0  0  0  0  0
  189.6540  177.4410  142.6770 C   0  0  0  0  0  3  0  0  0  0  0  0
  187.2750  177.9210  143.4070 C   0  0  0  0  0  0  0  0  0  0  0  0
  186.5710  178.5660  141.3230 C   0  0  0  0  0  3  0  0  0  0  0  0
  188.4110  177.9100  142.4880 C   0  0  0  0  0  0  0  0  0  0  0  0
  188.6230  177.6470  147.0070 C   0  0  0  0  0  3  0  0  0  0  0  0
  186.4210  177.0310  145.4410 O   0  0  0  0  0  0  0  0  0  0  0  0
  188.6310  178.4750  139.9340 C   0  0  0  0  0  1  0  0  0  0  0  0
  186.1910  178.3040  142.7190 C   0  0  0  0  0  0  0  0  0  0  0  0
  189.7290  177.0520  145.1070 C   0  0  0  0  0  0  0  0  0  0  0  0
  181.0580  176.0160  138.5620 O   0  0  0  0  0  0  0  0  0  0  0  0
  180.3520  175.8660  137.3690 C   0  0  0  0  0  1  0  0  0  0  0  0
  183.7960  176.3860  138.7250 C   0  0  0  0  0  2  0  0  0  0  0  0
  184.5690  176.6720  137.4490 C   0  0  0  0  0  2  0  0  0  0  0  0
  185.6150  177.7470  137.6990 C   0  0  0  0  0  2  0  0  0  0  0  0
  187.6640  176.1680  137.1890 C   0  0  0  0  0  1  0  0  0  0  0  0
  187.6850  178.6280  136.4380 C   0  0  0  0  0  2  0  0  0  0  0  0
  186.8860  177.4430  136.9260 C   0  0  0  0  0  0  0  0  0  0  0  0
  186.8220  177.8280  135.4680 C   0  0  0  0  0  2  0  0  0  0  0  0
  2  7  1  0  0  0  0
  3 13  2  0  0  0  0
  4  6  1  0  0  0  0
  5  6  1  0  0  0  0
  5  2  1  6  0  0  0
  6 10  1  6  0  0  0
  7  3  1  0  0  0  0
  7 11  1  0  0  0  0
  8 32  1  1  0  0  0
  8  5  1  0  0  0  0
  9 11  1  0  0  0  0
  9  1  2  0  0  0  0
 10  9  1  0  0  0  0
 11 14  2  0  0  0  0
 12 30  1  1  0  0  0
 12  8  1  0  0  0  0
 12  4  1  0  0  0  0
 13 14  1  0  0  0  0
 15 25  1  1  0  0  0
 16 26  2  0  0  0  0
 16 15  1  0  0  0  0
 18 29  2  0  0  0  0
 19 23  2  0  0  0  0
 19 24  1  0  0  0  0
 20 17  1  0  0  0  0
 21 18  1  0  0  0  0
 22 16  1  0  0  0  0
 23 28  1  0  0  0  0
 24 21  2  0  0  0  0
 24 22  1  0  0  0  0
 25 17  2  0  0  0  0
 27 19  1  0  0  0  0
 28  3  1  0  0  0  0
 28 22  2  0  0  0  0
 29 15  1  0  0  0  0
 29 20  1  0  0  0  0
 31 30  1  0  0  0  0
 33 34  1  0  0  0  0
 33 32  1  0  0  0  0
 36 37  1  0  0  0  0
 37 35  1  0  0  0  0
 37 34  1  0  0  0  0
 38 36  1  0  0  0  0
 38 37  1  0  0  0  0
M  END
>  <MODEL>
5

>  <REMARK>
 VINA RESULT:      -9.5      2.760      8.754
  Name = 
  6 active torsions:
  status: ('A' for Active; 'I' for Inactive)
    1  A    between atoms: C_5  and  C_35
    2  A    between atoms: O_7  and  C_30
    3  A    between atoms: C_16  and  C_19
    4  A    between atoms: C_16  and  C_23
    5  A    between atoms: C_23  and  C_34
    6  A    between atoms: C_25  and  C_34
                            x       y       z     vdW  Elec       q    Type
                         _______ _______ _______ _____ _____    ______ ____

>  <TORSDO>
F 6

$$$$
=
 OpenBabel10222419003D

 38 44  0  0  1  0  0  0  0  0999 V2000
  192.9310  176.8030  139.1490 O   0  0  0  0  0  0  0  0  0  0  0  0
  188.6810  176.7550  139.8910 C   0  0  0  0  0  2  0  0  0  0  0  0
  189.5640  177.7970  141.9950 C   0  0  0  0  0  0  0  0  0  0  0  0
  189.3350  176.6560  136.4210 O   0  0  0  0  0  0  0  0  0  0  0  0
  188.7150  177.5290  138.5760 C   0  0  1  0  0  3  0  0  0  0  0  0
  189.8660  177.1450  137.6320 C   0  0  1  0  0  3  0  0  0  0  0  0
  189.7330  177.2270  140.7850 N   0  0  0  0  0  0  0  0  0  0  0  0
  187.4890  177.2150  137.7830 C   0  0  2  0  0  3  0  0  0  0  0  0
  191.6830  176.7270  139.2980 C   0  0  0  0  0  0  0  0  0  0  0  0
  190.8600  176.1290  138.2020 C   0  0  0  0  0  2  0  0  0  0  0  0
  191.0590  177.2140  140.5440 C   0  0  0  0  0  0  0  0  0  0  0  0
  188.0040  177.1010  136.3570 C   0  0  1  0  0  3  0  0  0  0  0  0
  190.7920  178.1320  142.5410 C   0  0  0  0  0  3  0  0  0  0  0  0
  191.7520  177.7650  141.6080 C   0  0  0  0  0  3  0  0  0  0  0  0
  188.5280  177.1300  146.3020 C   0  0  1  0  0  3  0  0  0  0  0  0
  188.9740  177.8540  145.0740 C   0  0  0  0  0  0  0  0  0  0  0  0
  189.2670  177.5930  148.4610 N   0  0  0  0  0  0  0  0  0  0  0  0
  186.4010  178.3890  146.6220 N   0  0  0  0  0  0  0  0  0  0  0  0
  186.0030  178.1210  142.8210 C   0  0  0  0  0  0  0  0  0  0  0  0
  188.0060  178.1860  148.3690 N   0  0  0  0  0  2  0  0  0  0  0  0
  185.8590  178.2870  145.2910 C   0  0  0  0  0  3  0  0  0  0  0  0
  188.0060  177.9820  143.9790 C   0  0  0  0  0  0  0  0  0  0  0  0
  186.9810  178.0720  141.9300 C   0  0  0  0  0  3  0  0  0  0  0  0
  186.5600  178.0830  144.1650 C   0  0  0  0  0  0  0  0  0  0  0  0
  189.5990  177.0120  147.3510 C   0  0  0  0  0  3  0  0  0  0  0  0
  190.1210  178.3740  144.9940 O   0  0  0  0  0  0  0  0  0  0  0  0
  184.5610  178.2440  142.4710 C   0  0  0  0  0  1  0  0  0  0  0  0
  188.2530  177.9790  142.6620 C   0  0  0  0  0  0  0  0  0  0  0  0
  187.5450  177.9500  147.0530 C   0  0  0  0  0  0  0  0  0  0  0  0
  187.9560  178.3310  135.6870 O   0  0  0  0  0  0  0  0  0  0  0  0
  187.1180  178.1090  134.5940 C   0  0  0  0  0  1  0  0  0  0  0  0
  186.4120  178.2790  137.9830 C   0  0  0  0  0  2  0  0  0  0  0  0
  185.0600  177.6390  138.2450 C   0  0  0  0  0  2  0  0  0  0  0  0
  184.1330  178.6320  138.9280 C   0  0  0  0  0  2  0  0  0  0  0  0
  182.6800  176.5830  139.7270 C   0  0  0  0  0  1  0  0  0  0  0  0
  181.6240  178.4800  138.3470 C   0  0  0  0  0  2  0  0  0  0  0  0
  182.7790  177.9990  139.1950 C   0  0  0  0  0  0  0  0  0  0  0  0
  181.7680  178.9480  139.7920 C   0  0  0  0  0  2  0  0  0  0  0  0
  1  9  2  0  0  0  0
  2  7  1  0  0  0  0
  3 13  2  0  0  0  0
  3 28  1  0  0  0  0
  4  6  1  0  0  0  0
  5  2  1  1  0  0  0
  6 10  1  1  0  0  0
  6  5  1  0  0  0  0
  7  3  1  0  0  0  0
  8 32  1  6  0  0  0
  8  5  1  0  0  0  0
  9 11  1  0  0  0  0
 10  9  1  0  0  0  0
 11  7  1  0  0  0  0
 11 14  2  0  0  0  0
 12 30  1  1  0  0  0
 12  4  1  0  0  0  0
 12  8  1  0  0  0  0
 14 13  1  0  0  0  0
 15 29  1  0  0  0  0
 15 25  1  1  0  0  0
 16 15  1  0  0  0  0
 18 29  2  0  0  0  0
 19 24  1  0  0  0  0
 20 17  1  0  0  0  0
 21 18  1  0  0  0  0
 22 24  1  0  0  0  0
 22 16  1  0  0  0  0
 23 28  1  0  0  0  0
 23 19  2  0  0  0  0
 24 21  2  0  0  0  0
 25 17  2  0  0  0  0
 26 16  2  0  0  0  0
 27 19  1  0  0  0  0
 28 22  2  0  0  0  0
 29 20  1  0  0  0  0
 31 30  1  0  0  0  0
 32 33  1  0  0  0  0
 33 34  1  0  0  0  0
 34 37  1  0  0  0  0
 36 37  1  0  0  0  0
 36 38  1  0  0  0  0
 37 35  1  0  0  0  0
 37 38  1  0  0  0  0
M  END
>  <MODEL>
6

>  <REMARK>
 VINA RESULT:      -9.2      3.260      7.515
  Name = 
  6 active torsions:
  status: ('A' for Active; 'I' for Inactive)
    1  A    between atoms: C_5  and  C_35
    2  A    between atoms: O_7  and  C_30
    3  A    between atoms: C_16  and  C_19
    4  A    between atoms: C_16  and  C_23
    5  A    between atoms: C_23  and  C_34
    6  A    between atoms: C_25  and  C_34
                            x       y       z     vdW  Elec       q    Type
                         _______ _______ _______ _____ _____    ______ ____

>  <TORSDO>
F 6

$$$$
=
 OpenBabel10222419003D

 38 44  0  0  1  0  0  0  0  0999 V2000
  187.3220  178.2450  147.6220 O   0  0  0  0  0  0  0  0  0  0  0  0
  187.1810  177.3150  143.4110 C   0  0  0  0  0  2  0  0  0  0  0  0
  185.2460  178.8910  143.6600 C   0  0  0  0  0  0  0  0  0  0  0  0
  190.4260  176.7640  144.6950 O   0  0  0  0  0  0  0  0  0  0  0  0
  188.6130  177.8300  143.5240 C   0  0  1  0  0  3  0  0  0  0  0  0
  189.2850  177.5710  144.8820 C   0  0  1  0  0  3  0  0  0  0  0  0
  186.2720  178.1740  144.1610 N   0  0  0  0  0  0  0  0  0  0  0  0
  189.4820  177.0970  142.5560 C   0  0  2  0  0  3  0  0  0  0  0  0
  187.3340  177.9000  146.4110 C   0  0  0  0  0  0  0  0  0  0  0  0
  188.3810  176.9390  145.9440 C   0  0  0  0  0  2  0  0  0  0  0  0
  186.3190  178.4350  145.4830 C   0  0  0  0  0  0  0  0  0  0  0  0
  190.7670  176.8600  143.3340 C   0  0  1  0  0  3  0  0  0  0  0  0
  184.6190  179.6000  144.6720 C   0  0  0  0  0  3  0  0  0  0  0  0
  185.3120  179.3150  145.8400 C   0  0  0  0  0  3  0  0  0  0  0  0
  181.1870  177.9830  141.9950 C   0  0  1  0  0  3  0  0  0  0  0  0
  182.3190  178.7920  142.5400 C   0  0  0  0  0  0  0  0  0  0  0  0
  178.9330  178.4970  142.2710 N   0  0  0  0  0  0  0  0  0  0  0  0
  181.2500  178.9200  139.6860 N   0  0  0  0  0  0  0  0  0  0  0  0
  185.0610  178.6860  140.0010 C   0  0  0  0  0  0  0  0  0  0  0  0
  179.2470  178.9060  140.9740 N   0  0  0  0  0  2  0  0  0  0  0  0
  182.6550  178.7720  139.4060 C   0  0  0  0  0  2  0  0  0  0  0  0
  183.5680  178.8070  141.7690 C   0  0  0  0  0  0  0  0  0  0  0  0
  185.7650  178.7970  141.1160 C   0  0  0  0  0  2  0  0  0  0  0  0
  183.6400  178.6970  140.3140 C   0  0  0  0  0  0  0  0  0  0  0  0
  179.9660  177.9950  142.8730 C   0  0  0  0  0  3  0  0  0  0  0  0
  182.1970  179.4710  143.5960 O   0  0  0  0  0  0  0  0  0  0  0  0
  185.6590  178.6100  138.6390 C   0  0  0  0  0  1  0  0  0  0  0  0
  184.8210  178.8690  142.2400 C   0  0  0  0  0  0  0  0  0  0  0  0
  180.6230  178.6380  140.7890 C   0  0  0  0  0  0  0  0  0  0  0  0
  191.6830  177.9050  143.1570 O   0  0  0  0  0  0  0  0  0  0  0  0
  192.0190  178.3070  144.4500 C   0  0  0  0  0  1  0  0  0  0  0  0
  189.6640  177.8910  141.2640 C   0  0  0  0  0  2  0  0  0  0  0  0
  189.9290  176.9640  140.0910 C   0  0  0  0  0  2  0  0  0  0  0  0
  188.8970  177.1930  138.9970 C   0  0  0  0  0  2  0  0  0  0  0  0
  191.0010  176.7400  137.4750 C   0  0  0  0  0  1  0  0  0  0  0  0
  189.0490  178.1810  136.6200 C   0  0  0  0  0  2  0  0  0  0  0  0
  189.5580  177.1810  137.6310 C   0  0  0  0  0  0  0  0  0  0  0  0
  188.6530  176.7120  136.5180 C   0  0  0  0  0  2  0  0  0  0  0  0
  2  7  1  0  0  0  0
  3  7  1  0  0  0  0
  3 13  2  0  0  0  0
  4  6  1  0  0  0  0
  5  2  1  1  0  0  0
  5  6  1  0  0  0  0
  6 10  1  1  0  0  0
  7 11  1  0  0  0  0
  8 32  1  6  0  0  0
  8 12  1  0  0  0  0
  8  5  1  0  0  0  0
  9  1  2  0  0  0  0
 10  9  1  0  0  0  0
 11 14  2  0  0  0  0
 11  9  1  0  0  0  0
 12 30  1  1  0  0  0
 12  4  1  0  0  0  0
 13 14  1  0  0  0  0
 15 16  1  0  0  0  0
 15 25  1  1  0  0  0
 16 26  2  0  0  0  0
 17 25  2  0  0  0  0
 18 29  2  0  0  0  0
 19 24  2  0  0  0  0
 19 23  1  0  0  0  0
 20 17  1  0  0  0  0
 21 18  1  0  0  0  0
 21 24  1  0  0  0  0
 22 28  2  0  0  0  0
 22 16  1  0  0  0  0
 23 28  1  0  0  0  0
 24 22  1  0  0  0  0
 27 19  1  0  0  0  0
 28  3  1  0  0  0  0
 29 20  1  0  0  0  0
 29 15  1  0  0  0  0
 30 31  1  0  0  0  0
 33 32  1  0  0  0  0
 34 33  1  0  0  0  0
 35 37  1  0  0  0  0
 36 37  1  0  0  0  0
 37 34  1  0  0  0  0
 38 36  1  0  0  0  0
 38 37  1  0  0  0  0
M  END
>  <MODEL>
7

>  <REMARK>
 VINA RESULT:      -9.0      2.015      5.480
  Name = 
  6 active torsions:
  status: ('A' for Active; 'I' for Inactive)
    1  A    between atoms: C_5  and  C_35
    2  A    between atoms: O_7  and  C_30
    3  A    between atoms: C_16  and  C_19
    4  A    between atoms: C_16  and  C_23
    5  A    between atoms: C_23  and  C_34
    6  A    between atoms: C_25  and  C_34
                            x       y       z     vdW  Elec       q    Type
                         _______ _______ _______ _____ _____    ______ ____

>  <TORSDO>
F 6

$$$$
=
 OpenBabel10222419003D

 38 44  0  0  1  0  0  0  0  0999 V2000
  191.4900  176.1020  136.6240 O   0  0  0  0  0  0  0  0  0  0  0  0
  188.4360  177.8450  139.1240 C   0  0  0  0  0  2  0  0  0  0  0  0
  187.0800  176.8630  137.2570 C   0  0  0  0  0  0  0  0  0  0  0  0
  191.3540  177.1920  141.0050 O   0  0  0  0  0  0  0  0  0  0  0  0
  189.1240  176.9350  140.1380 C   0  0  1  0  0  3  0  0  0  0  0  0
  190.6260  176.7200  139.8940 C   0  0  1  0  0  3  0  0  0  0  0  0
  188.2540  177.1470  137.8560 N   0  0  0  0  0  0  0  0  0  0  0  0
  189.0730  177.5690  141.4890 C   0  0  2  0  0  3  0  0  0  0  0  0
  190.6640  176.6620  137.3940 C   0  0  0  0  0  0  0  0  0  0  0  0
  191.1740  177.3600  138.6150 C   0  0  0  0  0  2  0  0  0  0  0  0
  189.2240  176.6280  137.0770 C   0  0  0  0  0  0  0  0  0  0  0  0
  190.4450  177.2750  142.0740 C   0  0  1  0  0  3  0  0  0  0  0  0
  187.3020  176.1740  136.0750 C   0  0  0  0  0  3  0  0  0  0  0  0
  188.6760  176.0170  135.9630 C   0  0  0  0  0  3  0  0  0  0  0  0
  183.1100  174.8910  136.6090 C   0  0  1  0  0  3  0  0  0  0  0  0
  184.4180  175.2060  137.2580 C   0  0  0  0  0  0  0  0  0  0  0  0
  182.0590  172.8140  136.6760 N   0  0  0  0  0  0  0  0  0  0  0  0
  181.6620  175.8250  138.4080 N   0  0  0  0  0  0  0  0  0  0  0  0
  184.1820  178.7070  138.5480 C   0  0  0  0  0  0  0  0  0  0  0  0
  181.3870  173.5960  137.6160 N   0  0  0  0  0  2  0  0  0  0  0  0
  182.2790  177.1170  138.5670 C   0  0  0  0  0  2  0  0  0  0  0  0
  184.6150  176.5770  137.7440 C   0  0  0  0  0  0  0  0  0  0  0  0
  185.4760  178.6320  138.2800 C   0  0  0  0  0  2  0  0  0  0  0  0
  183.5440  177.4330  138.2500 C   0  0  0  0  0  0  0  0  0  0  0  0
  183.0170  173.4760  136.1050 C   0  0  0  0  0  3  0  0  0  0  0  0
  185.3030  174.3220  137.4240 O   0  0  0  0  0  0  0  0  0  0  0  0
  183.5140  179.9130  139.1130 C   0  0  0  0  0  1  0  0  0  0  0  0
  185.7530  177.2830  137.7650 C   0  0  0  0  0  0  0  0  0  0  0  0
  182.0280  174.8570  137.6230 C   0  0  0  0  0  0  0  0  0  0  0  0
  190.4590  176.0700  142.7890 O   0  0  0  0  0  0  0  0  0  0  0  0
  191.2940  176.3130  143.8800 C   0  0  0  0  0  1  0  0  0  0  0  0
  187.9060  177.0260  142.3110 C   0  0  0  0  0  2  0  0  0  0  0  0
  187.4220  178.0610  143.3130 C   0  0  0  0  0  2  0  0  0  0  0  0
  186.1430  177.5840  143.9830 C   0  0  0  0  0  2  0  0  0  0  0  0
  184.0060  179.0230  144.5380 C   0  0  0  0  0  1  0  0  0  0  0  0
  184.3840  178.0960  142.1680 C   0  0  0  0  0  2  0  0  0  0  0  0
  184.9610  178.4190  143.5270 C   0  0  0  0  0  0  0  0  0  0  0  0
  185.2670  179.3250  142.3590 C   0  0  0  0  0  2  0  0  0  0  0  0
  1  9  2  0  0  0  0
  3 28  1  0  0  0  0
  3  7  1  0  0  0  0
  4 12  1  0  0  0  0
  5  2  1  6  0  0  0
  5  8  1  0  0  0  0
  6 10  1  6  0  0  0
  6  5  1  0  0  0  0
  6  4  1  0  0  0  0
  7  2  1  0  0  0  0
  8 12  1  0  0  0  0
  8 32  1  1  0  0  0
  9 10  1  0  0  0  0
 11  9  1  0  0  0  0
 11  7  1  0  0  0  0
 12 30  1  6  0  0  0
 13  3  2  0  0  0  0
 14 13  1  0  0  0  0
 14 11  2  0  0  0  0
 15 25  1  1  0  0  0
 15 16  1  0  0  0  0
 15 29  1  0  0  0  0
 16 26  2  0  0  0  0
 16 22  1  0  0  0  0
 17 20  1  0  0  0  0
 18 21  1  0  0  0  0
 19 27  1  0  0  0  0
 20 29  1  0  0  0  0
 22 28  2  0  0  0  0
 22 24  1  0  0  0  0
 23 19  1  0  0  0  0
 24 19  2  0  0  0  0
 24 21  1  0  0  0  0
 25 17  2  0  0  0  0
 28 23  1  0  0  0  0
 29 18  2  0  0  0  0
 30 31  1  0  0  0  0
 32 33  1  0  0  0  0
 33 34  1  0  0  0  0
 36 38  1  0  0  0  0
 36 37  1  0  0  0  0
 37 34  1  0  0  0  0
 37 35  1  0  0  0  0
 38 37  1  0  0  0  0
M  END
>  <MODEL>
8

>  <REMARK>
 VINA RESULT:      -8.9      2.822      4.403
  Name = 
  6 active torsions:
  status: ('A' for Active; 'I' for Inactive)
    1  A    between atoms: C_5  and  C_35
    2  A    between atoms: O_7  and  C_30
    3  A    between atoms: C_16  and  C_19
    4  A    between atoms: C_16  and  C_23
    5  A    between atoms: C_23  and  C_34
    6  A    between atoms: C_25  and  C_34
                            x       y       z     vdW  Elec       q    Type
                         _______ _______ _______ _____ _____    ______ ____

>  <TORSDO>
F 6

$$$$
=
 OpenBabel10222419003D

 38 44  0  0  1  0  0  0  0  0999 V2000
  180.1600  180.1170  141.9640 O   0  0  0  0  0  0  0  0  0  0  0  0
  183.8540  177.9170  141.6060 C   0  0  0  0  0  2  0  0  0  0  0  0
  183.6430  178.9500  139.3310 C   0  0  0  0  0  0  0  0  0  0  0  0
  183.1600  178.6320  144.9960 O   0  0  0  0  0  0  0  0  0  0  0  0
  184.1760  178.7850  142.8200 C   0  0  1  0  0  3  0  0  0  0  0  0
  182.9650  179.1410  143.6960 C   0  0  1  0  0  3  0  0  0  0  0  0
  183.1900  178.7080  140.5780 N   0  0  0  0  0  0  0  0  0  0  0  0
  185.0720  178.0310  143.7460 C   0  0  2  0  0  3  0  0  0  0  0  0
  181.2130  179.4260  141.9340 C   0  0  0  0  0  0  0  0  0  0  0  0
  181.6130  178.6650  143.1580 C   0  0  0  0  0  2  0  0  0  0  0  0
  182.0230  179.3710  140.7020 C   0  0  0  0  0  0  0  0  0  0  0  0
  184.5370  178.3810  145.1260 C   0  0  1  0  0  3  0  0  0  0  0  0
  182.7490  179.7570  138.6460 C   0  0  0  0  0  3  0  0  0  0  0  0
  181.7140  180.0340  139.5260 C   0  0  0  0  0  3  0  0  0  0  0  0
  184.1140  175.2880  136.7930 C   0  0  1  0  0  3  0  0  0  0  0  0
  183.9060  176.7280  137.1340 C   0  0  0  0  0  0  0  0  0  0  0  0
  183.2240  174.2240  134.9230 N   0  0  0  0  0  0  0  0  0  0  0  0
  186.3510  175.5650  135.7290 N   0  0  0  0  0  0  0  0  0  0  0  0
  187.1070  177.9750  138.6100 C   0  0  0  0  0  0  0  0  0  0  0  0
  184.5580  174.4780  134.6000 N   0  0  0  0  0  2  0  0  0  0  0  0
  187.0100  176.3320  136.7550 C   0  0  0  0  0  2  0  0  0  0  0  0
  184.9930  177.4160  137.8400 C   0  0  0  0  0  0  0  0  0  0  0  0
  186.2310  178.7350  139.2480 C   0  0  0  0  0  2  0  0  0  0  0  0
  186.4110  177.1030  137.6750 C   0  0  0  0  0  0  0  0  0  0  0  0
  182.9320  174.6580  136.1090 C   0  0  0  0  0  3  0  0  0  0  0  0
  182.8590  177.3430  136.7930 O   0  0  0  0  0  0  0  0  0  0  0  0
  188.5810  178.0530  138.8070 C   0  0  0  0  0  1  0  0  0  0  0  0
  184.8890  178.3800  138.7650 C   0  0  0  0  0  0  0  0  0  0  0  0
  185.1170  175.1580  135.7070 C   0  0  0  0  0  0  0  0  0  0  0  0
  185.1680  179.5150  145.6570 O   0  0  0  0  0  0  0  0  0  0  0  0
  185.7200  179.0820  146.8620 C   0  0  0  0  0  1  0  0  0  0  0  0
  186.5370  178.4020  143.5250 C   0  0  0  0  0  2  0  0  0  0  0  0
  187.2780  177.2810  142.8170 C   0  0  0  0  0  2  0  0  0  0  0  0
  188.0540  176.4470  143.8250 C   0  0  0  0  0  2  0  0  0  0  0  0
  190.4360  175.9070  142.8330 C   0  0  0  0  0  1  0  0  0  0  0  0
  190.1920  177.3600  144.9420 C   0  0  0  0  0  2  0  0  0  0  0  0
  189.5400  176.7410  143.7270 C   0  0  0  0  0  0  0  0  0  0  0  0
  189.8720  178.2140  143.7190 C   0  0  0  0  0  2  0  0  0  0  0  0
  3  7  1  0  0  0  0
  4 12  1  0  0  0  0
  5  2  1  6  0  0  0
  5  6  1  0  0  0  0
  5  8  1  0  0  0  0
  6 10  1  6  0  0  0
  6  4  1  0  0  0  0
  7 11  1  0  0  0  0
  7  2  1  0  0  0  0
  8 32  1  1  0  0  0
  8 12  1  0  0  0  0
  9  1  2  0  0  0  0
  9 10  1  0  0  0  0
 11  9  1  0  0  0  0
 12 30  1  6  0  0  0
 13  3  2  0  0  0  0
 13 14  1  0  0  0  0
 14 11  2  0  0  0  0
 15 25  1  6  0  0  0
 15 16  1  0  0  0  0
 16 22  1  0  0  0  0
 17 25  2  0  0  0  0
 18 21  1  0  0  0  0
 19 27  1  0  0  0  0
 19 23  1  0  0  0  0
 20 17  1  0  0  0  0
 20 29  1  0  0  0  0
 21 24  1  0  0  0  0
 22 28  2  0  0  0  0
 24 22  1  0  0  0  0
 24 19  2  0  0  0  0
 26 16  2  0  0  0  0
 28 23  1  0  0  0  0
 28  3  1  0  0  0  0
 29 18  2  0  0  0  0
 29 15  1  0  0  0  0
 30 31  1  0  0  0  0
 33 32  1  0  0  0  0
 33 34  1  0  0  0  0
 35 37  1  0  0  0  0
 37 34  1  0  0  0  0
 37 36  1  0  0  0  0
 38 37  1  0  0  0  0
 38 36  1  0  0  0  0
M  END
>  <MODEL>
9

>  <REMARK>
 VINA RESULT:      -8.8      3.094      6.087
  Name = 
  6 active torsions:
  status: ('A' for Active; 'I' for Inactive)
    1  A    between atoms: C_5  and  C_35
    2  A    between atoms: O_7  and  C_30
    3  A    between atoms: C_16  and  C_19
    4  A    between atoms: C_16  and  C_23
    5  A    between atoms: C_23  and  C_34
    6  A    between atoms: C_25  and  C_34
                            x       y       z     vdW  Elec       q    Type
                         _______ _______ _______ _____ _____    ______ ____

>  <TORSDO>
F 6

$$$$
