=
 OpenBabel10222415153D

 34 35  0  0  1  0  0  0  0  0999 V2000
  184.5510  178.9690  140.8500 C   0  0  2  0  0  3  0  0  0  0  0  0
  185.6160  178.4490  138.6290 C   0  0  0  0  0  1  0  0  0  0  0  0
  185.6570  178.1930  140.1270 C   0  0  1  0  0  3  0  0  0  0  0  0
  188.1570  177.8600  140.0380 N   0  0  0  0  0  2  0  0  0  0  0  0
  187.1770  179.1970  141.6900 O   0  0  0  0  0  0  0  0  0  0  0  0
  187.0260  178.4550  140.6810 C   0  0  0  0  0  0  0  0  0  0  0  0
  189.4610  177.7200  140.6150 C   0  0  0  0  0  0  0  0  0  0  0  0
  190.4640  177.7500  139.8530 O   0  0  0  0  0  0  0  0  0  0  0  0
  191.2030  177.7180  144.8610 C   0  0  0  0  0  2  0  0  0  0  0  0
  189.6510  177.4800  142.0640 C   0  0  1  0  0  3  0  0  0  0  0  0
  191.6100  176.3710  144.2620 C   0  0  0  0  0  3  0  0  0  0  0  0
  190.9350  178.7780  143.8240 C   0  0  0  0  0  2  0  0  0  0  0  0
  189.6050  176.0970  142.6710 C   0  0  0  0  0  2  0  0  0  0  0  0
  190.9230  175.6750  143.3200 C   0  0  0  0  0  3  0  0  0  0  0  0
  190.2310  178.3440  142.8320 C   0  0  0  0  0  2  0  0  0  0  0  0
  184.1550  178.3020  142.0850 N   0  0  0  0  0  2  0  0  0  0  0  0
  182.6010  178.7270  143.8150 C   0  0  0  0  0  2  0  0  0  0  0  0
  183.7690  179.0210  143.2600 C   0  0  0  0  0  0  0  0  0  0  0  0
  184.7530  179.8770  143.9590 C   0  0  0  0  0  3  0  0  0  0  0  0
  185.5220  179.5600  145.0110 C   0  0  0  0  0  3  0  0  0  0  0  0
  184.7100  178.2360  146.8970 C   0  0  0  0  0  2  0  0  0  0  0  0
  185.4870  178.3250  145.8180 C   0  0  0  0  0  0  0  0  0  0  0  0
  186.7490  176.9420  144.1720 C   0  0  0  0  0  1  0  0  0  0  0  0
  187.9310  177.9120  146.1410 C   0  0  0  0  0  1  0  0  0  0  0  0
  186.6130  177.3550  145.6270 C   0  0  0  0  0  3  0  0  0  0  0  0
  183.1030  179.2030  139.7700 S   0  0  0  0  0  0  0  0  0  0  0  0
  182.3610  177.6020  140.2340 C   0  0  1  0  0  3  0  0  0  0  0  0
  180.8980  177.7910  140.6240 C   0  0  0  0  0  1  0  0  0  0  0  0
  182.5500  176.6000  139.1750 N   0  0  0  0  0  0  0  0  0  0  0  0
  181.5360  176.0080  137.1390 C   0  0  0  0  0  2  0  0  0  0  0  0
  180.1490  174.3450  138.2030 N   0  0  0  0  0  1  0  0  0  0  0  0
  181.7220  175.5470  139.4360 O   0  0  0  0  0  0  0  0  0  0  0  0
  182.1830  177.1380  137.8690 C   0  0  0  0  0  2  0  0  0  0  0  0
  181.4700  174.9430  138.1950 C   0  0  2  0  0  3  0  0  0  0  0  0
  1 26  1  6  0  0  0
  1 16  1  0  0  0  0
  3  2  1  6  0  0  0
  3  6  1  0  0  0  0
  3  1  1  0  0  0  0
  4  7  1  0  0  0  0
  4  6  1  0  0  0  0
  6  5  2  0  0  0  0
  8  7  2  0  0  0  0
 10  7  1  6  0  0  0
 10 13  1  0  0  0  0
 10 15  1  0  0  0  0
 11  9  1  0  0  0  0
 12  9  1  0  0  0  0
 13 14  1  0  0  0  0
 14 11  2  0  0  0  0
 15 12  1  0  0  0  0
 16 18  1  0  0  0  0
 18 17  2  0  0  0  0
 18 19  1  0  0  0  0
 19 20  2  0  0  0  0
 20 22  1  0  0  0  0
 22 21  2  0  0  0  0
 23 25  1  0  0  0  0
 25 22  1  0  0  0  0
 25 24  1  0  0  0  0
 26 27  1  0  0  0  0
 27 28  1  6  0  0  0
 29 32  1  0  0  0  0
 29 27  1  0  0  0  0
 30 33  1  0  0  0  0
 30 34  1  0  0  0  0
 33 29  1  0  0  0  0
 34 31  1  1  0  0  0
 34 32  1  0  0  0  0
M  END
>  <MODEL>
1

>  <REMARK>
 VINA RESULT:      -7.2      0.000      0.000
  Name = 
  11 active torsions:
  status: ('A' for Active; 'I' for Inactive)
    1  A    between atoms: N_1  and  C_11
    2  A    between atoms: C_3  and  C_32
    3  A    between atoms: C_4  and  C_23
    4  A    between atoms: C_11  and  S_28
    5  A    between atoms: N_16  and  C_31
    6  A    between atoms: N_16  and  C_32
    7  A    between atoms: C_19  and  C_20
    8  A    between atoms: C_20  and  C_31
    9  A    between atoms: S_28  and  C_31
   10  A    between atoms: C_30  and  C_34
   11  A    between atoms: C_33  and  C_34
                            x       y       z     vdW  Elec       q    Type
                         _______ _______ _______ _____ _____    ______ ____

>  <TORSDO>
F 11

$$$$
=
 OpenBabel10222415153D

 34 35  0  0  1  0  0  0  0  0999 V2000
  184.0970  178.6490  140.8590 C   0  0  2  0  0  3  0  0  0  0  0  0
  185.1850  178.6360  138.5890 C   0  0  0  0  0  1  0  0  0  0  0  0
  185.2760  178.1390  140.0240 C   0  0  1  0  0  3  0  0  0  0  0  0
  187.7950  178.0010  139.9640 N   0  0  0  0  0  2  0  0  0  0  0  0
  186.6910  179.1480  141.6800 O   0  0  0  0  0  0  0  0  0  0  0  0
  186.6130  178.4660  140.6210 C   0  0  0  0  0  0  0  0  0  0  0  0
  189.0970  177.9210  140.5580 C   0  0  0  0  0  0  0  0  0  0  0  0
  190.1070  178.0770  139.8200 O   0  0  0  0  0  0  0  0  0  0  0  0
  190.8070  177.7070  144.8110 C   0  0  0  0  0  2  0  0  0  0  0  0
  189.2820  177.5990  141.9910 C   0  0  1  0  0  3  0  0  0  0  0  0
  191.2520  176.4090  144.1360 C   0  0  0  0  0  3  0  0  0  0  0  0
  190.5210  178.8200  143.8360 C   0  0  0  0  0  2  0  0  0  0  0  0
  189.2660  176.1820  142.5140 C   0  0  0  0  0  2  0  0  0  0  0  0
  190.5890  175.7540  143.1480 C   0  0  0  0  0  3  0  0  0  0  0  0
  189.8350  178.4300  142.8140 C   0  0  0  0  0  2  0  0  0  0  0  0
  184.2310  178.2600  142.2580 N   0  0  0  0  0  2  0  0  0  0  0  0
  182.4620  178.5900  143.7910 C   0  0  0  0  0  2  0  0  0  0  0  0
  183.6340  179.0020  143.3260 C   0  0  0  0  0  0  0  0  0  0  0  0
  184.4190  180.0330  144.0390 C   0  0  0  0  0  3  0  0  0  0  0  0
  185.3160  179.8560  145.0190 C   0  0  0  0  0  3  0  0  0  0  0  0
  184.9510  178.2080  146.7860 C   0  0  0  0  0  2  0  0  0  0  0  0
  185.6520  178.6040  145.7230 C   0  0  0  0  0  0  0  0  0  0  0  0
  187.7650  177.7770  146.7560 C   0  0  0  0  0  1  0  0  0  0  0  0
  186.9190  176.7320  144.6560 C   0  0  0  0  0  1  0  0  0  0  0  0
  187.0060  178.0170  145.4620 C   0  0  0  0  0  3  0  0  0  0  0  0
  182.5120  178.0490  140.1900 S   0  0  0  0  0  0  0  0  0  0  0  0
  181.8430  179.7320  139.9700 C   0  0  1  0  0  3  0  0  0  0  0  0
  182.1520  180.2430  138.5650 C   0  0  0  0  0  1  0  0  0  0  0  0
  180.4120  179.7860  140.3000 N   0  0  0  0  0  0  0  0  0  0  0  0
  178.9310  181.2520  141.3850 C   0  0  0  0  0  2  0  0  0  0  0  0
  179.1790  180.1000  143.4900 N   0  0  0  0  0  1  0  0  0  0  0  0
  180.2540  179.3190  141.5730 O   0  0  0  0  0  0  0  0  0  0  0  0
  179.9140  181.1570  140.2670 C   0  0  0  0  0  2  0  0  0  0  0  0
  179.0790  179.9170  142.0550 C   0  0  2  0  0  3  0  0  0  0  0  0
  1 26  1  6  0  0  0
  1 16  1  0  0  0  0
  3  2  1  6  0  0  0
  3  6  1  0  0  0  0
  3  1  1  0  0  0  0
  4  7  1  0  0  0  0
  4  6  1  0  0  0  0
  6  5  2  0  0  0  0
  8  7  2  0  0  0  0
 10  7  1  6  0  0  0
 10 13  1  0  0  0  0
 10 15  1  0  0  0  0
 11  9  1  0  0  0  0
 12  9  1  0  0  0  0
 13 14  1  0  0  0  0
 14 11  2  0  0  0  0
 15 12  1  0  0  0  0
 16 18  1  0  0  0  0
 18 17  2  0  0  0  0
 18 19  1  0  0  0  0
 19 20  2  0  0  0  0
 20 22  1  0  0  0  0
 22 21  2  0  0  0  0
 24 25  1  0  0  0  0
 25 22  1  0  0  0  0
 25 23  1  0  0  0  0
 27 28  1  6  0  0  0
 27 26  1  0  0  0  0
 27 29  1  0  0  0  0
 29 32  1  0  0  0  0
 30 34  1  0  0  0  0
 32 34  1  0  0  0  0
 33 29  1  0  0  0  0
 33 30  1  0  0  0  0
 34 31  1  1  0  0  0
M  END
>  <MODEL>
2

>  <REMARK>
 VINA RESULT:      -6.8      2.050      2.761
  Name = 
  11 active torsions:
  status: ('A' for Active; 'I' for Inactive)
    1  A    between atoms: N_1  and  C_11
    2  A    between atoms: C_3  and  C_32
    3  A    between atoms: C_4  and  C_23
    4  A    between atoms: C_11  and  S_28
    5  A    between atoms: N_16  and  C_31
    6  A    between atoms: N_16  and  C_32
    7  A    between atoms: C_19  and  C_20
    8  A    between atoms: C_20  and  C_31
    9  A    between atoms: S_28  and  C_31
   10  A    between atoms: C_30  and  C_34
   11  A    between atoms: C_33  and  C_34
                            x       y       z     vdW  Elec       q    Type
                         _______ _______ _______ _____ _____    ______ ____

>  <TORSDO>
F 11

$$$$
=
 OpenBabel10222415153D

 34 35  0  0  1  0  0  0  0  0999 V2000
  188.1840  178.3470  139.4380 C   0  0  2  0  0  3  0  0  0  0  0  0
  190.3890  177.1860  139.7960 C   0  0  0  0  0  1  0  0  0  0  0  0
  188.9780  177.3860  140.3290 C   0  0  1  0  0  3  0  0  0  0  0  0
  190.1230  178.5360  142.2620 N   0  0  0  0  0  2  0  0  0  0  0  0
  188.0430  177.4990  142.5370 O   0  0  0  0  0  0  0  0  0  0  0  0
  189.0020  177.7950  141.7720 C   0  0  0  0  0  0  0  0  0  0  0  0
  190.4680  178.7020  143.6430 C   0  0  0  0  0  0  0  0  0  0  0  0
  191.0440  179.7650  143.9970 O   0  0  0  0  0  0  0  0  0  0  0  0
  189.5710  176.5040  147.5700 C   0  0  0  0  0  2  0  0  0  0  0  0
  190.2250  177.6350  144.6410 C   0  0  1  0  0  3  0  0  0  0  0  0
  191.0930  176.4620  147.4280 C   0  0  0  0  0  3  0  0  0  0  0  0
  188.9320  177.6450  146.8220 C   0  0  0  0  0  2  0  0  0  0  0  0
  191.1850  176.4890  144.8560 C   0  0  0  0  0  2  0  0  0  0  0  0
  191.7860  176.4560  146.2600 C   0  0  0  0  0  3  0  0  0  0  0  0
  189.4100  177.7970  145.6320 C   0  0  0  0  0  2  0  0  0  0  0  0
  186.8410  177.8400  139.1770 N   0  0  0  0  0  2  0  0  0  0  0  0
  185.6610  179.0180  140.8540 C   0  0  0  0  0  2  0  0  0  0  0  0
  185.6620  178.5150  139.6260 C   0  0  0  0  0  0  0  0  0  0  0  0
  184.5900  178.8490  138.6640 C   0  0  0  0  0  3  0  0  0  0  0  0
  183.2940  178.5090  138.7200 C   0  0  0  0  0  3  0  0  0  0  0  0
  182.7010  176.2840  139.5380 C   0  0  0  0  0  2  0  0  0  0  0  0
  182.6360  177.6070  139.6850 C   0  0  0  0  0  0  0  0  0  0  0  0
  182.1910  178.6790  141.8920 C   0  0  0  0  0  1  0  0  0  0  0  0
  180.8570  179.3510  139.8950 C   0  0  0  0  0  1  0  0  0  0  0  0
  181.5930  178.2090  140.5760 C   0  0  0  0  0  3  0  0  0  0  0  0
  189.0540  178.6570  137.8690 S   0  0  0  0  0  0  0  0  0  0  0  0
  187.9790  177.5280  136.9230 C   0  0  1  0  0  3  0  0  0  0  0  0
  187.1680  178.3100  135.8930 C   0  0  0  0  0  1  0  0  0  0  0  0
  188.7500  176.4260  136.3310 N   0  0  0  0  0  0  0  0  0  0  0  0
  190.0610  174.6230  137.0760 C   0  0  0  0  0  2  0  0  0  0  0  0
  192.0980  175.9000  136.8860 N   0  0  0  0  0  1  0  0  0  0  0  0
  190.0540  176.8200  136.2440 O   0  0  0  0  0  0  0  0  0  0  0  0
  188.7040  175.2370  137.1760 C   0  0  0  0  0  2  0  0  0  0  0  0
  190.8130  175.6400  136.2680 C   0  0  2  0  0  3  0  0  0  0  0  0
  1 26  1  6  0  0  0
  1  3  1  0  0  0  0
  3  2  1  6  0  0  0
  3  6  1  0  0  0  0
  4  7  1  0  0  0  0
  6  4  1  0  0  0  0
  6  5  2  0  0  0  0
  7  8  2  0  0  0  0
 10  7  1  1  0  0  0
 10 13  1  0  0  0  0
 10 15  1  0  0  0  0
 11  9  1  0  0  0  0
 12  9  1  0  0  0  0
 13 14  1  0  0  0  0
 14 11  2  0  0  0  0
 15 12  1  0  0  0  0
 16  1  1  0  0  0  0
 16 18  1  0  0  0  0
 18 17  2  0  0  0  0
 19 20  2  0  0  0  0
 19 18  1  0  0  0  0
 20 22  1  0  0  0  0
 21 22  2  0  0  0  0
 22 25  1  0  0  0  0
 24 25  1  0  0  0  0
 25 23  1  0  0  0  0
 27 28  1  6  0  0  0
 27 26  1  0  0  0  0
 29 27  1  0  0  0  0
 29 33  1  0  0  0  0
 30 33  1  0  0  0  0
 32 34  1  0  0  0  0
 32 29  1  0  0  0  0
 34 31  1  1  0  0  0
 34 30  1  0  0  0  0
M  END
>  <MODEL>
3

>  <REMARK>
 VINA RESULT:      -6.7      3.097      5.968
  Name = 
  11 active torsions:
  status: ('A' for Active; 'I' for Inactive)
    1  A    between atoms: N_1  and  C_11
    2  A    between atoms: C_3  and  C_32
    3  A    between atoms: C_4  and  C_23
    4  A    between atoms: C_11  and  S_28
    5  A    between atoms: N_16  and  C_31
    6  A    between atoms: N_16  and  C_32
    7  A    between atoms: C_19  and  C_20
    8  A    between atoms: C_20  and  C_31
    9  A    between atoms: S_28  and  C_31
   10  A    between atoms: C_30  and  C_34
   11  A    between atoms: C_33  and  C_34
                            x       y       z     vdW  Elec       q    Type
                         _______ _______ _______ _____ _____    ______ ____

>  <TORSDO>
F 11

$$$$
=
 OpenBabel10222415153D

 34 35  0  0  1  0  0  0  0  0999 V2000
  188.5980  177.3340  142.5560 C   0  0  2  0  0  3  0  0  0  0  0  0
  187.2130  177.5240  144.6490 C   0  0  0  0  0  1  0  0  0  0  0  0
  187.1940  177.2200  143.1590 C   0  0  1  0  0  3  0  0  0  0  0  0
  184.8360  178.0970  142.9580 N   0  0  0  0  0  2  0  0  0  0  0  0
  186.4940  178.7350  141.4330 O   0  0  0  0  0  0  0  0  0  0  0  0
  186.1740  178.0620  142.4510 C   0  0  0  0  0  0  0  0  0  0  0  0
  183.6860  178.5520  142.2330 C   0  0  0  0  0  0  0  0  0  0  0  0
  182.7420  179.0860  142.8750 O   0  0  0  0  0  0  0  0  0  0  0  0
  182.4500  179.0420  137.8410 C   0  0  0  0  0  2  0  0  0  0  0  0
  183.5570  178.3530  140.7720 C   0  0  1  0  0  3  0  0  0  0  0  0
  181.5400  177.9430  138.3920 C   0  0  0  0  0  3  0  0  0  0  0  0
  182.9800  179.9690  138.9050 C   0  0  0  0  0  2  0  0  0  0  0  0
  183.1660  177.0260  140.1650 C   0  0  0  0  0  2  0  0  0  0  0  0
  181.8490  177.0770  139.3910 C   0  0  0  0  0  3  0  0  0  0  0  0
  183.3920  179.3430  139.9570 C   0  0  0  0  0  2  0  0  0  0  0  0
  188.5910  177.0160  141.1320 N   0  0  0  0  0  2  0  0  0  0  0  0
  190.6670  176.8030  140.0200 C   0  0  0  0  0  2  0  0  0  0  0  0
  189.5720  177.5250  140.2240 C   0  0  0  0  0  0  0  0  0  0  0  0
  189.2510  178.6850  139.3630 C   0  0  0  0  0  3  0  0  0  0  0  0
  188.7870  178.6760  138.1060 C   0  0  0  0  0  3  0  0  0  0  0  0
  189.5900  177.0920  136.4280 C   0  0  0  0  0  2  0  0  0  0  0  0
  188.6020  177.5130  137.2170 C   0  0  0  0  0  0  0  0  0  0  0  0
  187.0070  175.5970  137.1990 C   0  0  0  0  0  1  0  0  0  0  0  0
  186.1890  177.8870  137.7520 C   0  0  0  0  0  1  0  0  0  0  0  0
  187.1930  177.0830  136.9420 C   0  0  0  0  0  3  0  0  0  0  0  0
  189.7770  176.2590  143.4340 S   0  0  0  0  0  0  0  0  0  0  0  0
  190.8840  177.6420  143.8690 C   0  0  1  0  0  3  0  0  0  0  0  0
  190.3020  178.9610  143.3670 C   0  0  0  0  0  1  0  0  0  0  0  0
  191.1820  177.6550  145.3080 N   0  0  0  0  0  0  0  0  0  0  0  0
  191.1910  176.1310  147.0970 C   0  0  0  0  0  2  0  0  0  0  0  0
  188.9490  176.7360  147.7490 N   0  0  0  0  0  1  0  0  0  0  0  0
  190.0080  177.8280  145.9830 O   0  0  0  0  0  0  0  0  0  0  0  0
  191.7570  176.3850  145.7390 C   0  0  0  0  0  2  0  0  0  0  0  0
  190.2060  177.2540  147.2470 C   0  0  2  0  0  3  0  0  0  0  0  0
  1 16  1  6  0  0  0
  1  3  1  0  0  0  0
  1 26  1  0  0  0  0
  3  2  1  1  0  0  0
  5  6  2  0  0  0  0
  6  4  1  0  0  0  0
  6  3  1  0  0  0  0
  7  8  2  0  0  0  0
  7  4  1  0  0  0  0
  9 11  1  0  0  0  0
  9 12  1  0  0  0  0
 10  7  1  1  0  0  0
 11 14  2  0  0  0  0
 12 15  1  0  0  0  0
 13 10  1  0  0  0  0
 14 13  1  0  0  0  0
 15 10  1  0  0  0  0
 17 18  2  0  0  0  0
 18 16  1  0  0  0  0
 19 18  1  0  0  0  0
 20 19  2  0  0  0  0
 21 22  2  0  0  0  0
 22 20  1  0  0  0  0
 25 23  1  0  0  0  0
 25 22  1  0  0  0  0
 25 24  1  0  0  0  0
 26 27  1  0  0  0  0
 27 28  1  1  0  0  0
 27 29  1  0  0  0  0
 29 33  1  0  0  0  0
 29 32  1  0  0  0  0
 30 34  1  0  0  0  0
 32 34  1  0  0  0  0
 33 30  1  0  0  0  0
 34 31  1  6  0  0  0
M  END
>  <MODEL>
4

>  <REMARK>
 VINA RESULT:      -6.5      3.084      8.812
  Name = 
  11 active torsions:
  status: ('A' for Active; 'I' for Inactive)
    1  A    between atoms: N_1  and  C_11
    2  A    between atoms: C_3  and  C_32
    3  A    between atoms: C_4  and  C_23
    4  A    between atoms: C_11  and  S_28
    5  A    between atoms: N_16  and  C_31
    6  A    between atoms: N_16  and  C_32
    7  A    between atoms: C_19  and  C_20
    8  A    between atoms: C_20  and  C_31
    9  A    between atoms: S_28  and  C_31
   10  A    between atoms: C_30  and  C_34
   11  A    between atoms: C_33  and  C_34
                            x       y       z     vdW  Elec       q    Type
                         _______ _______ _______ _____ _____    ______ ____

>  <TORSDO>
F 11

$$$$
=
 OpenBabel10222415153D

 34 35  0  0  1  0  0  0  0  0999 V2000
  188.3040  177.6530  138.4940 C   0  0  2  0  0  3  0  0  0  0  0  0
  187.1100  177.7150  136.2790 C   0  0  0  0  0  1  0  0  0  0  0  0
  187.1840  178.3060  137.6780 C   0  0  1  0  0  3  0  0  0  0  0  0
  185.1040  179.4650  138.5150 N   0  0  0  0  0  2  0  0  0  0  0  0
  185.3810  177.1540  138.7680 O   0  0  0  0  0  0  0  0  0  0  0  0
  185.8470  178.2520  138.3560 C   0  0  0  0  0  0  0  0  0  0  0  0
  184.0060  179.6530  139.4170 C   0  0  0  0  0  0  0  0  0  0  0  0
  183.0940  180.4610  139.0970 O   0  0  0  0  0  0  0  0  0  0  0  0
  182.7730  178.4280  143.6640 C   0  0  0  0  0  2  0  0  0  0  0  0
  183.9530  178.9740  140.7320 C   0  0  1  0  0  3  0  0  0  0  0  0
  183.9490  179.3860  143.8510 C   0  0  0  0  0  3  0  0  0  0  0  0
  182.0410  178.6250  142.3610 C   0  0  0  0  0  2  0  0  0  0  0  0
  185.1560  178.8640  141.6380 C   0  0  0  0  0  2  0  0  0  0  0  0
  184.9740  179.5730  142.9790 C   0  0  0  0  0  3  0  0  0  0  0  0
  182.8370  178.7740  141.3560 C   0  0  0  0  0  2  0  0  0  0  0  0
  188.6390  178.4500  139.6680 N   0  0  0  0  0  2  0  0  0  0  0  0
  188.0370  177.4870  141.7420 C   0  0  0  0  0  2  0  0  0  0  0  0
  189.0080  177.8630  140.9200 C   0  0  0  0  0  0  0  0  0  0  0  0
  190.4120  177.4660  141.1650 C   0  0  0  0  0  3  0  0  0  0  0  0
  191.0920  177.5100  142.3190 C   0  0  0  0  0  3  0  0  0  0  0  0
  190.9470  179.3460  143.9240 C   0  0  0  0  0  2  0  0  0  0  0  0
  190.6560  178.0850  143.6050 C   0  0  0  0  0  0  0  0  0  0  0  0
  191.2960  177.0110  145.7630 C   0  0  0  0  0  1  0  0  0  0  0  0
  188.8980  177.4970  145.2820 C   0  0  0  0  0  1  0  0  0  0  0  0
  190.2400  177.1220  144.6760 C   0  0  0  0  0  3  0  0  0  0  0  0
  189.7880  177.3860  137.4720 S   0  0  0  0  0  0  0  0  0  0  0  0
  189.9120  175.6210  137.9180 C   0  0  1  0  0  3  0  0  0  0  0  0
  189.3980  174.7500  136.7750 C   0  0  0  0  0  1  0  0  0  0  0  0
  191.2750  175.2700  138.3410 N   0  0  0  0  0  0  0  0  0  0  0  0
  193.4760  175.6650  137.6180 C   0  0  0  0  0  2  0  0  0  0  0  0
  193.5370  173.6020  136.3680 N   0  0  0  0  0  1  0  0  0  0  0  0
  191.6660  174.1670  137.6390 O   0  0  0  0  0  0  0  0  0  0  0  0
  192.2140  176.3450  138.0340 C   0  0  0  0  0  2  0  0  0  0  0  0
  193.0670  174.2210  137.5920 C   0  0  2  0  0  3  0  0  0  0  0  0
  1 26  1  6  0  0  0
  1 16  1  0  0  0  0
  3  2  1  6  0  0  0
  3  6  1  0  0  0  0
  3  1  1  0  0  0  0
  4  7  1  0  0  0  0
  6  4  1  0  0  0  0
  6  5  2  0  0  0  0
  8  7  2  0  0  0  0
  9 11  1  0  0  0  0
 10  7  1  1  0  0  0
 10 15  1  0  0  0  0
 10 13  1  0  0  0  0
 12  9  1  0  0  0  0
 13 14  1  0  0  0  0
 14 11  2  0  0  0  0
 15 12  1  0  0  0  0
 16 18  1  0  0  0  0
 18 19  1  0  0  0  0
 18 17  2  0  0  0  0
 19 20  2  0  0  0  0
 20 22  1  0  0  0  0
 22 21  2  0  0  0  0
 22 25  1  0  0  0  0
 25 24  1  0  0  0  0
 25 23  1  0  0  0  0
 26 27  1  0  0  0  0
 27 28  1  6  0  0  0
 27 29  1  0  0  0  0
 30 33  1  0  0  0  0
 32 29  1  0  0  0  0
 33 29  1  0  0  0  0
 34 31  1  6  0  0  0
 34 30  1  0  0  0  0
 34 32  1  0  0  0  0
M  END
>  <MODEL>
5

>  <REMARK>
 VINA RESULT:      -6.4      3.271      7.340
  Name = 
  11 active torsions:
  status: ('A' for Active; 'I' for Inactive)
    1  A    between atoms: N_1  and  C_11
    2  A    between atoms: C_3  and  C_32
    3  A    between atoms: C_4  and  C_23
    4  A    between atoms: C_11  and  S_28
    5  A    between atoms: N_16  and  C_31
    6  A    between atoms: N_16  and  C_32
    7  A    between atoms: C_19  and  C_20
    8  A    between atoms: C_20  and  C_31
    9  A    between atoms: S_28  and  C_31
   10  A    between atoms: C_30  and  C_34
   11  A    between atoms: C_33  and  C_34
                            x       y       z     vdW  Elec       q    Type
                         _______ _______ _______ _____ _____    ______ ____

>  <TORSDO>
F 11

$$$$
=
 OpenBabel10222415153D

 34 35  0  0  1  0  0  0  0  0999 V2000
  184.5710  178.5700  142.0240 C   0  0  2  0  0  3  0  0  0  0  0  0
  183.7680  179.7230  144.1130 C   0  0  0  0  0  1  0  0  0  0  0  0
  184.9810  179.1950  143.3620 C   0  0  1  0  0  3  0  0  0  0  0  0
  186.1770  178.7120  145.5310 N   0  0  0  0  0  2  0  0  0  0  0  0
  186.1070  177.1230  143.8130 O   0  0  0  0  0  0  0  0  0  0  0  0
  185.7870  178.2720  144.2270 C   0  0  0  0  0  0  0  0  0  0  0  0
  187.2100  178.1220  146.3310 C   0  0  0  0  0  0  0  0  0  0  0  0
  187.0950  178.1580  147.5850 O   0  0  0  0  0  0  0  0  0  0  0  0
  191.5560  176.8410  145.6040 C   0  0  0  0  0  2  0  0  0  0  0  0
  188.4270  177.5360  145.7240 C   0  0  1  0  0  3  0  0  0  0  0  0
  191.3710  178.1120  144.7740 C   0  0  0  0  0  3  0  0  0  0  0  0
  190.5980  176.7380  146.7630 C   0  0  0  0  0  2  0  0  0  0  0  0
  188.8540  177.8380  144.3070 C   0  0  0  0  0  2  0  0  0  0  0  0
  190.2080  178.5400  144.2170 C   0  0  0  0  0  3  0  0  0  0  0  0
  189.3880  177.0540  146.4440 C   0  0  0  0  0  2  0  0  0  0  0  0
  185.2400  179.2270  140.9060 N   0  0  0  0  0  2  0  0  0  0  0  0
  187.4940  178.5130  140.9280 C   0  0  0  0  0  2  0  0  0  0  0  0
  186.3690  178.6540  140.2390 C   0  0  0  0  0  0  0  0  0  0  0  0
  186.2000  178.0190  138.9140 C   0  0  0  0  0  3  0  0  0  0  0  0
  187.1510  177.7000  138.0250 C   0  0  0  0  0  3  0  0  0  0  0  0
  189.0540  179.1770  137.6170 C   0  0  0  0  0  2  0  0  0  0  0  0
  188.5900  178.0190  138.0850 C   0  0  0  0  0  0  0  0  0  0  0  0
  190.5300  176.7440  137.1740 C   0  0  0  0  0  1  0  0  0  0  0  0
  190.2610  176.9990  139.6390 C   0  0  0  0  0  1  0  0  0  0  0  0
  189.5320  176.8750  138.3120 C   0  0  0  0  0  3  0  0  0  0  0  0
  182.7650  178.6300  141.7980 S   0  0  0  0  0  0  0  0  0  0  0  0
  182.8640  178.2300  140.0210 C   0  0  1  0  0  3  0  0  0  0  0  0
  182.7850  176.7210  139.8140 C   0  0  0  0  0  1  0  0  0  0  0  0
  181.8560  178.9710  139.2500 N   0  0  0  0  0  0  0  0  0  0  0  0
  181.2980  181.2120  138.8160 C   0  0  0  0  0  2  0  0  0  0  0  0
  179.6850  181.2580  140.6090 N   0  0  0  0  0  1  0  0  0  0  0  0
  180.8320  179.2950  140.0920 O   0  0  0  0  0  0  0  0  0  0  0  0
  182.4050  180.2160  138.7220 C   0  0  0  0  0  2  0  0  0  0  0  0
  180.2360  180.4420  139.5460 C   0  0  2  0  0  3  0  0  0  0  0  0
  1 16  1  6  0  0  0
  1  3  1  0  0  0  0
  3  2  1  1  0  0  0
  3  6  1  0  0  0  0
  4  7  1  0  0  0  0
  5  6  2  0  0  0  0
  6  4  1  0  0  0  0
  7  8  2  0  0  0  0
  9 12  1  0  0  0  0
 10  7  1  1  0  0  0
 10 15  1  0  0  0  0
 11  9  1  0  0  0  0
 13 10  1  0  0  0  0
 14 13  1  0  0  0  0
 14 11  2  0  0  0  0
 15 12  1  0  0  0  0
 18 16  1  0  0  0  0
 18 17  2  0  0  0  0
 19 18  1  0  0  0  0
 20 22  1  0  0  0  0
 20 19  2  0  0  0  0
 21 22  2  0  0  0  0
 22 25  1  0  0  0  0
 23 25  1  0  0  0  0
 25 24  1  0  0  0  0
 26  1  1  0  0  0  0
 27 28  1  1  0  0  0
 27 26  1  0  0  0  0
 29 27  1  0  0  0  0
 29 32  1  0  0  0  0
 30 34  1  0  0  0  0
 33 30  1  0  0  0  0
 33 29  1  0  0  0  0
 34 32  1  0  0  0  0
 34 31  1  1  0  0  0
M  END
>  <MODEL>
6

>  <REMARK>
 VINA RESULT:      -6.4      2.565      5.222
  Name = 
  11 active torsions:
  status: ('A' for Active; 'I' for Inactive)
    1  A    between atoms: N_1  and  C_11
    2  A    between atoms: C_3  and  C_32
    3  A    between atoms: C_4  and  C_23
    4  A    between atoms: C_11  and  S_28
    5  A    between atoms: N_16  and  C_31
    6  A    between atoms: N_16  and  C_32
    7  A    between atoms: C_19  and  C_20
    8  A    between atoms: C_20  and  C_31
    9  A    between atoms: S_28  and  C_31
   10  A    between atoms: C_30  and  C_34
   11  A    between atoms: C_33  and  C_34
                            x       y       z     vdW  Elec       q    Type
                         _______ _______ _______ _____ _____    ______ ____

>  <TORSDO>
F 11

$$$$
=
 OpenBabel10222415153D

 34 35  0  0  1  0  0  0  0  0999 V2000
  189.0830  177.8640  142.7460 C   0  0  2  0  0  3  0  0  0  0  0  0
  190.2030  175.6250  142.4860 C   0  0  0  0  0  1  0  0  0  0  0  0
  190.1910  177.0780  142.0380 C   0  0  1  0  0  3  0  0  0  0  0  0
  189.4910  178.3150  139.9520 N   0  0  0  0  0  2  0  0  0  0  0  0
  190.6390  176.2790  139.8190 O   0  0  0  0  0  0  0  0  0  0  0  0
  190.1280  177.1780  140.5420 C   0  0  0  0  0  0  0  0  0  0  0  0
  189.0440  178.4030  138.5930 C   0  0  0  0  0  0  0  0  0  0  0  0
  189.0550  179.5280  138.0270 O   0  0  0  0  0  0  0  0  0  0  0  0
  188.0780  175.3640  135.2930 C   0  0  0  0  0  2  0  0  0  0  0  0
  188.5150  177.2250  137.8690 C   0  0  1  0  0  3  0  0  0  0  0  0
  186.8410  176.2590  135.3850 C   0  0  0  0  0  3  0  0  0  0  0  0
  189.3360  176.0290  135.7890 C   0  0  0  0  0  2  0  0  0  0  0  0
  187.0510  176.8540  137.8810 C   0  0  0  0  0  2  0  0  0  0  0  0
  186.4010  176.9000  136.4990 C   0  0  0  0  0  3  0  0  0  0  0  0
  189.1630  176.6700  136.8960 C   0  0  0  0  0  2  0  0  0  0  0  0
  189.5000  178.2850  144.0780 N   0  0  0  0  0  2  0  0  0  0  0  0
  191.6560  179.1990  144.4080 C   0  0  0  0  0  2  0  0  0  0  0  0
  190.8480  178.1550  144.5410 C   0  0  0  0  0  0  0  0  0  0  0  0
  191.2380  176.9860  145.3600 C   0  0  0  0  0  3  0  0  0  0  0  0
  190.8420  176.6810  146.6030 C   0  0  0  0  0  3  0  0  0  0  0  0
  190.5890  178.3490  148.3710 C   0  0  0  0  0  2  0  0  0  0  0  0
  190.0210  177.4970  147.5180 C   0  0  0  0  0  0  0  0  0  0  0  0
  187.9300  177.8800  148.8210 C   0  0  0  0  0  1  0  0  0  0  0  0
  187.7920  177.1270  146.4480 C   0  0  0  0  0  1  0  0  0  0  0  0
  188.6030  177.0620  147.7320 C   0  0  0  0  0  3  0  0  0  0  0  0
  187.5490  176.8880  142.8470 S   0  0  0  0  0  0  0  0  0  0  0  0
  186.4770  178.3420  142.5940 C   0  0  1  0  0  3  0  0  0  0  0  0
  186.3240  178.6320  141.1040 C   0  0  0  0  0  1  0  0  0  0  0  0
  185.1890  178.1840  143.2850 N   0  0  0  0  0  0  0  0  0  0  0  0
  183.6590  179.5380  144.4460 C   0  0  0  0  0  2  0  0  0  0  0  0
  184.6530  178.9990  146.5770 N   0  0  0  0  0  1  0  0  0  0  0  0
  185.4400  178.0140  144.6160 O   0  0  0  0  0  0  0  0  0  0  0  0
  184.3620  179.3770  143.1390 C   0  0  0  0  0  2  0  0  0  0  0  0
  184.2890  178.4610  145.2810 C   0  0  2  0  0  3  0  0  0  0  0  0
  1 26  1  1  0  0  0
  1 16  1  0  0  0  0
  3  2  1  6  0  0  0
  3  1  1  0  0  0  0
  4  6  1  0  0  0  0
  5  6  2  0  0  0  0
  6  3  1  0  0  0  0
  7  4  1  0  0  0  0
  8  7  2  0  0  0  0
  9 11  1  0  0  0  0
  9 12  1  0  0  0  0
 10 13  1  0  0  0  0
 10  7  1  6  0  0  0
 11 14  2  0  0  0  0
 12 15  1  0  0  0  0
 14 13  1  0  0  0  0
 15 10  1  0  0  0  0
 16 18  1  0  0  0  0
 17 18  2  0  0  0  0
 18 19  1  0  0  0  0
 19 20  2  0  0  0  0
 20 22  1  0  0  0  0
 22 25  1  0  0  0  0
 22 21  2  0  0  0  0
 24 25  1  0  0  0  0
 25 23  1  0  0  0  0
 27 28  1  6  0  0  0
 27 26  1  0  0  0  0
 27 29  1  0  0  0  0
 29 32  1  0  0  0  0
 30 34  1  0  0  0  0
 32 34  1  0  0  0  0
 33 29  1  0  0  0  0
 33 30  1  0  0  0  0
 34 31  1  1  0  0  0
M  END
>  <MODEL>
7

>  <REMARK>
 VINA RESULT:      -6.4      3.173      6.393
  Name = 
  11 active torsions:
  status: ('A' for Active; 'I' for Inactive)
    1  A    between atoms: N_1  and  C_11
    2  A    between atoms: C_3  and  C_32
    3  A    between atoms: C_4  and  C_23
    4  A    between atoms: C_11  and  S_28
    5  A    between atoms: N_16  and  C_31
    6  A    between atoms: N_16  and  C_32
    7  A    between atoms: C_19  and  C_20
    8  A    between atoms: C_20  and  C_31
    9  A    between atoms: S_28  and  C_31
   10  A    between atoms: C_30  and  C_34
   11  A    between atoms: C_33  and  C_34
                            x       y       z     vdW  Elec       q    Type
                         _______ _______ _______ _____ _____    ______ ____

>  <TORSDO>
F 11

$$$$
=
 OpenBabel10222415153D

 34 35  0  0  1  0  0  0  0  0999 V2000
  187.8080  177.8600  138.8010 C   0  0  2  0  0  3  0  0  0  0  0  0
  186.2490  177.9240  136.8250 C   0  0  0  0  0  1  0  0  0  0  0  0
  186.5750  178.5280  138.1820 C   0  0  1  0  0  3  0  0  0  0  0  0
  184.3780  177.5010  138.8810 N   0  0  0  0  0  2  0  0  0  0  0  0
  185.2530  179.3590  140.0050 O   0  0  0  0  0  0  0  0  0  0  0  0
  185.3750  178.5080  139.0810 C   0  0  0  0  0  0  0  0  0  0  0  0
  183.0430  177.5410  139.4000 C   0  0  0  0  0  0  0  0  0  0  0  0
  182.4730  176.4530  139.6820 O   0  0  0  0  0  0  0  0  0  0  0  0
  179.8270  180.6350  140.4690 C   0  0  0  0  0  2  0  0  0  0  0  0
  182.3020  178.8150  139.5500 C   0  0  1  0  0  3  0  0  0  0  0  0
  179.5840  180.3010  138.9970 C   0  0  0  0  0  3  0  0  0  0  0  0
  180.5400  179.5420  141.2220 C   0  0  0  0  0  2  0  0  0  0  0  0
  182.0180  179.7310  138.3830 C   0  0  0  0  0  2  0  0  0  0  0  0
  180.5280  179.9120  138.1000 C   0  0  0  0  0  3  0  0  0  0  0  0
  181.5360  179.0470  140.5650 C   0  0  0  0  0  2  0  0  0  0  0  0
  188.3210  178.6340  139.9260 N   0  0  0  0  0  2  0  0  0  0  0  0
  187.6390  178.0620  142.1160 C   0  0  0  0  0  2  0  0  0  0  0  0
  188.6000  178.0480  141.2010 C   0  0  0  0  0  0  0  0  0  0  0  0
  189.8240  177.2400  141.3910 C   0  0  0  0  0  3  0  0  0  0  0  0
  190.5650  177.1130  142.5010 C   0  0  0  0  0  3  0  0  0  0  0  0
  190.9620  179.0570  143.9280 C   0  0  0  0  0  2  0  0  0  0  0  0
  190.4230  177.8480  143.7730 C   0  0  0  0  0  0  0  0  0  0  0  0
  191.1730  176.8830  145.9460 C   0  0  0  0  0  1  0  0  0  0  0  0
  188.8220  177.6710  145.6840 C   0  0  0  0  0  1  0  0  0  0  0  0
  190.0160  177.0530  144.9760 C   0  0  0  0  0  3  0  0  0  0  0  0
  189.1160  177.6180  137.5560 S   0  0  0  0  0  0  0  0  0  0  0  0
  189.2650  175.8320  137.9010 C   0  0  1  0  0  3  0  0  0  0  0  0
  188.8060  175.0220  136.6920 C   0  0  0  0  0  1  0  0  0  0  0  0
  190.6220  175.4860  138.3450 N   0  0  0  0  0  0  0  0  0  0  0  0
  192.8350  175.9640  137.7150 C   0  0  0  0  0  2  0  0  0  0  0  0
  192.9780  173.9770  136.3550 N   0  0  0  0  0  1  0  0  0  0  0  0
  191.0570  174.4320  137.5960 O   0  0  0  0  0  0  0  0  0  0  0  0
  191.5460  176.5940  138.1300 C   0  0  0  0  0  2  0  0  0  0  0  0
  192.4580  174.5160  137.5960 C   0  0  2  0  0  3  0  0  0  0  0  0
  1 26  1  6  0  0  0
  1 16  1  0  0  0  0
  3  2  1  6  0  0  0
  3  1  1  0  0  0  0
  3  6  1  0  0  0  0
  4  6  1  0  0  0  0
  4  7  1  0  0  0  0
  6  5  2  0  0  0  0
  7  8  2  0  0  0  0
  9 12  1  0  0  0  0
 10  7  1  6  0  0  0
 10 15  1  0  0  0  0
 11  9  1  0  0  0  0
 13 10  1  0  0  0  0
 14 13  1  0  0  0  0
 14 11  2  0  0  0  0
 15 12  1  0  0  0  0
 16 18  1  0  0  0  0
 18 19  1  0  0  0  0
 18 17  2  0  0  0  0
 19 20  2  0  0  0  0
 20 22  1  0  0  0  0
 22 21  2  0  0  0  0
 22 25  1  0  0  0  0
 25 24  1  0  0  0  0
 25 23  1  0  0  0  0
 26 27  1  0  0  0  0
 27 28  1  6  0  0  0
 27 29  1  0  0  0  0
 30 33  1  0  0  0  0
 32 29  1  0  0  0  0
 33 29  1  0  0  0  0
 34 31  1  6  0  0  0
 34 32  1  0  0  0  0
 34 30  1  0  0  0  0
M  END
>  <MODEL>
8

>  <REMARK>
 VINA RESULT:      -6.3      2.990      7.908
  Name = 
  11 active torsions:
  status: ('A' for Active; 'I' for Inactive)
    1  A    between atoms: N_1  and  C_11
    2  A    between atoms: C_3  and  C_32
    3  A    between atoms: C_4  and  C_23
    4  A    between atoms: C_11  and  S_28
    5  A    between atoms: N_16  and  C_31
    6  A    between atoms: N_16  and  C_32
    7  A    between atoms: C_19  and  C_20
    8  A    between atoms: C_20  and  C_31
    9  A    between atoms: S_28  and  C_31
   10  A    between atoms: C_30  and  C_34
   11  A    between atoms: C_33  and  C_34
                            x       y       z     vdW  Elec       q    Type
                         _______ _______ _______ _____ _____    ______ ____

>  <TORSDO>
F 11

$$$$
=
 OpenBabel10222415153D

 34 35  0  0  1  0  0  0  0  0999 V2000
  187.7570  177.2430  141.8220 C   0  0  2  0  0  3  0  0  0  0  0  0
  190.2040  176.8090  141.4170 C   0  0  0  0  0  1  0  0  0  0  0  0
  188.9910  177.6270  140.9980 C   0  0  1  0  0  3  0  0  0  0  0  0
  188.1630  178.6460  138.8430 N   0  0  0  0  0  2  0  0  0  0  0  0
  189.1200  176.5100  138.8780 O   0  0  0  0  0  0  0  0  0  0  0  0
  188.7680  177.5390  139.5180 C   0  0  0  0  0  0  0  0  0  0  0  0
  187.5750  178.6010  137.5370 C   0  0  0  0  0  0  0  0  0  0  0  0
  187.6130  179.6380  136.8220 O   0  0  0  0  0  0  0  0  0  0  0  0
  185.7780  175.4110  134.7700 C   0  0  0  0  0  2  0  0  0  0  0  0
  186.8730  177.3960  137.0400 C   0  0  1  0  0  3  0  0  0  0  0  0
  184.6100  176.3300  135.1310 C   0  0  0  0  0  3  0  0  0  0  0  0
  187.1240  176.0790  134.8870 C   0  0  0  0  0  2  0  0  0  0  0  0
  185.4610  177.0500  137.4510 C   0  0  0  0  0  2  0  0  0  0  0  0
  184.4750  177.0350  136.2840 C   0  0  0  0  0  3  0  0  0  0  0  0
  187.2450  176.7800  135.9650 C   0  0  0  0  0  2  0  0  0  0  0  0
  186.9690  178.4180  142.1750 N   0  0  0  0  0  2  0  0  0  0  0  0
  184.7180  178.2060  142.8680 C   0  0  0  0  0  2  0  0  0  0  0  0
  185.5690  178.5190  141.8990 C   0  0  0  0  0  0  0  0  0  0  0  0
  185.1060  179.1870  140.6620 C   0  0  0  0  0  3  0  0  0  0  0  0
  183.9370  179.0270  140.0270 C   0  0  0  0  0  3  0  0  0  0  0  0
  182.9860  176.7770  139.9510 C   0  0  0  0  0  2  0  0  0  0  0  0
  182.8700  178.0510  140.3240 C   0  0  0  0  0  0  0  0  0  0  0  0
  181.4680  179.0010  142.1540 C   0  0  0  0  0  1  0  0  0  0  0  0
  181.1400  179.7800  139.8080 C   0  0  0  0  0  1  0  0  0  0  0  0
  181.5250  178.6030  140.6880 C   0  0  0  0  0  3  0  0  0  0  0  0
  188.2300  176.3290  143.3250 S   0  0  0  0  0  0  0  0  0  0  0  0
  188.0640  177.7940  144.4000 C   0  0  1  0  0  3  0  0  0  0  0  0
  186.9100  177.6000  145.3800 C   0  0  0  0  0  1  0  0  0  0  0  0
  189.3350  178.1170  145.0620 N   0  0  0  0  0  0  0  0  0  0  0  0
  191.6190  178.1720  144.5130 C   0  0  0  0  0  2  0  0  0  0  0  0
  191.9720  175.9360  145.3470 N   0  0  0  0  0  1  0  0  0  0  0  0
  189.8810  176.9540  145.5220 O   0  0  0  0  0  0  0  0  0  0  0  0
  190.2820  178.7110  144.1250 C   0  0  0  0  0  2  0  0  0  0  0  0
  191.2650  177.1790  145.5820 C   0  0  2  0  0  3  0  0  0  0  0  0
  1 16  1  1  0  0  0
  1 26  1  0  0  0  0
  3  2  1  1  0  0  0
  3  1  1  0  0  0  0
  4  6  1  0  0  0  0
  5  6  2  0  0  0  0
  6  3  1  0  0  0  0
  7  4  1  0  0  0  0
  8  7  2  0  0  0  0
  9 12  1  0  0  0  0
  9 11  1  0  0  0  0
 10 13  1  0  0  0  0
 10  7  1  6  0  0  0
 11 14  2  0  0  0  0
 12 15  1  0  0  0  0
 14 13  1  0  0  0  0
 15 10  1  0  0  0  0
 18 16  1  0  0  0  0
 18 17  2  0  0  0  0
 19 18  1  0  0  0  0
 20 22  1  0  0  0  0
 20 19  2  0  0  0  0
 21 22  2  0  0  0  0
 22 25  1  0  0  0  0
 24 25  1  0  0  0  0
 25 23  1  0  0  0  0
 26 27  1  0  0  0  0
 27 29  1  0  0  0  0
 27 28  1  1  0  0  0
 29 32  1  0  0  0  0
 30 34  1  0  0  0  0
 32 34  1  0  0  0  0
 33 30  1  0  0  0  0
 33 29  1  0  0  0  0
 34 31  1  6  0  0  0
M  END
>  <MODEL>
9

>  <REMARK>
 VINA RESULT:      -6.3      3.097      7.682
  Name = 
  11 active torsions:
  status: ('A' for Active; 'I' for Inactive)
    1  A    between atoms: N_1  and  C_11
    2  A    between atoms: C_3  and  C_32
    3  A    between atoms: C_4  and  C_23
    4  A    between atoms: C_11  and  S_28
    5  A    between atoms: N_16  and  C_31
    6  A    between atoms: N_16  and  C_32
    7  A    between atoms: C_19  and  C_20
    8  A    between atoms: C_20  and  C_31
    9  A    between atoms: S_28  and  C_31
   10  A    between atoms: C_30  and  C_34
   11  A    between atoms: C_33  and  C_34
                            x       y       z     vdW  Elec       q    Type
                         _______ _______ _______ _____ _____    ______ ____

>  <TORSDO>
F 11

$$$$
