=
 OpenBabel10222419423D

 36 40  0  0  1  0  0  0  0  0999 V2000
  185.9020  178.8690  141.8920 C   0  0  1  0  0  3  0  0  0  0  0  0
  181.2750  178.9940  141.0830 C   0  0  0  0  0  3  0  0  0  0  0  0
  182.9130  179.3700  138.4760 N   0  0  0  0  0  0  0  0  0  0  0  0
  179.0070  183.2330  137.4820 C   0  0  0  0  0  1  0  0  0  0  0  0
  187.1590  177.3790  143.5740 C   0  0  0  0  0  2  0  0  0  0  0  0
  185.8340  178.5020  140.4190 C   0  0  0  0  0  2  0  0  0  0  0  0
  181.2130  179.9320  140.1320 C   0  0  0  0  0  0  0  0  0  0  0  0
  184.8180  179.2770  139.8050 O   0  0  0  0  0  0  0  0  0  0  0  0
  178.9310  182.2020  138.5020 N   0  0  0  0  0  2  0  0  0  0  0  0
  182.3770  180.4270  139.3270 C   0  0  2  0  0  3  0  0  0  0  0  0
  183.4060  179.0840  142.3810 C   0  0  0  0  0  2  0  0  0  0  0  0
  179.9790  180.5610  139.8360 N   0  0  0  0  0  0  0  0  0  0  0  0
  184.6830  178.3040  142.6630 C   0  0  2  0  0  3  0  0  0  0  0  0
  180.0810  181.4740  138.9340 C   0  0  0  0  0  0  0  0  0  0  0  0
  187.2680  178.4330  142.4660 C   0  0  0  0  0  2  0  0  0  0  0  0
  184.9450  178.2580  144.1420 C   0  0  0  0  0  3  0  0  0  0  0  0
  186.1270  177.8040  144.5770 C   0  0  0  0  0  0  0  0  0  0  0  0
  181.7240  181.7680  138.2720 S   0  0  0  0  0  0  0  0  0  0  0  0
  182.5160  178.2540  141.4700 C   0  0  0  0  0  2  0  0  0  0  0  0
  184.0680  178.8280  138.7150 C   0  0  0  0  0  0  0  0  0  0  0  0
  184.0980  176.4990  137.9280 C   0  0  0  0  0  3  0  0  0  0  0  0
  184.5720  177.7410  137.8580 C   0  0  0  0  0  3  0  0  0  0  0  0
  185.6010  173.3620  135.4460 C   0  0  0  0  0  0  0  0  0  0  0  0
  183.7730  174.3320  136.7030 C   0  0  0  0  0  3  0  0  0  0  0  0
  186.4180  174.4390  135.8050 C   0  0  0  0  0  3  0  0  0  0  0  0
  185.9130  175.4610  136.6130 C   0  0  0  0  0  3  0  0  0  0  0  0
  184.5900  175.4150  137.0680 C   0  0  0  0  0  0  0  0  0  0  0  0
  186.1390  172.2690  134.5940 C   0  0  0  0  0  1  0  0  0  0  0  0
  184.2770  173.3100  135.8950 C   0  0  0  0  0  3  0  0  0  0  0  0
  186.4300  177.7400  146.0380 C   0  0  0  0  0  2  0  0  0  0  0  0
  188.1490  178.0900  147.7310 C   0  0  0  0  0  2  0  0  0  0  0  0
  188.6100  177.0190  146.8350 N   0  0  0  0  0  0  0  0  0  0  0  0
  187.8630  178.1700  146.3050 C   0  0  1  0  0  3  0  0  0  0  0  0
  190.0130  177.2770  146.5550 C   0  0  0  0  0  2  0  0  0  0  0  0
  190.8860  176.3410  147.3710 C   0  0  0  0  0  2  0  0  0  0  0  0
  192.0800  175.8770  146.5520 C   0  0  0  0  0  1  0  0  0  0  0  0
  1  6  1  6  0  0  0
  1 15  1  0  0  0  0
  1 13  1  0  0  0  0
  2 19  1  0  0  0  0
  3 20  2  0  0  0  0
  3 10  1  0  0  0  0
  4  9  1  0  0  0  0
  5 17  1  0  0  0  0
  7  2  2  0  0  0  0
  8  6  1  0  0  0  0
  9 14  1  0  0  0  0
 10 18  1  6  0  0  0
 10  7  1  0  0  0  0
 12  7  1  0  0  0  0
 13 11  1  1  0  0  0
 13 16  1  0  0  0  0
 14 12  2  0  0  0  0
 15  5  1  0  0  0  0
 16 17  2  0  0  0  0
 17 30  1  0  0  0  0
 18 14  1  0  0  0  0
 19 11  1  0  0  0  0
 20  8  1  0  0  0  0
 22 21  2  0  0  0  0
 22 20  1  0  0  0  0
 23 25  2  0  0  0  0
 23 29  1  0  0  0  0
 24 27  1  0  0  0  0
 25 26  1  0  0  0  0
 26 27  2  0  0  0  0
 27 21  1  0  0  0  0
 28 23  1  0  0  0  0
 29 24  2  0  0  0  0
 32 31  1  0  0  0  0
 33 30  1  1  0  0  0
 33 32  1  0  0  0  0
 33 31  1  0  0  0  0
 34 32  1  0  0  0  0
 34 35  1  0  0  0  0
 36 35  1  0  0  0  0
M  END
>  <MODEL>
1

>  <REMARK>
 VINA RESULT:      -8.1      0.000      0.000
  Name = 
  6 active torsions:
  status: ('A' for Active; 'I' for Inactive)
    1  A    between atoms: C_1  and  C_11
    2  A    between atoms: C_11  and  N_23
    3  A    between atoms: C_16  and  C_22
    4  A    between atoms: C_21  and  C_35
    5  A    between atoms: C_26  and  C_32
    6  A    between atoms: C_30  and  C_32
                            x       y       z     vdW  Elec       q    Type
                         _______ _______ _______ _____ _____    ______ ____

>  <TORSDO>
F 6

$$$$
=
 OpenBabel10222419423D

 36 40  0  0  1  0  0  0  0  0999 V2000
  186.5220  178.8420  142.2360 C   0  0  1  0  0  3  0  0  0  0  0  0
  182.0250  178.2220  141.0260 C   0  0  0  0  0  3  0  0  0  0  0  0
  183.7630  179.0850  138.6060 N   0  0  0  0  0  0  0  0  0  0  0  0
  179.3120  182.2730  137.5180 C   0  0  0  0  0  1  0  0  0  0  0  0
  187.8950  177.4650  143.9240 C   0  0  0  0  0  2  0  0  0  0  0  0
  186.6350  178.5870  140.7420 C   0  0  0  0  0  2  0  0  0  0  0  0
  181.8680  179.2070  140.1360 C   0  0  0  0  0  0  0  0  0  0  0  0
  185.5460  179.2200  140.0910 O   0  0  0  0  0  0  0  0  0  0  0  0
  179.3460  181.1670  138.4580 N   0  0  0  0  0  2  0  0  0  0  0  0
  182.9810  179.9600  139.4720 C   0  0  2  0  0  3  0  0  0  0  0  0
  183.9990  178.5790  142.5120 C   0  0  0  0  0  2  0  0  0  0  0  0
  180.5670  179.6330  139.7710 N   0  0  0  0  0  0  0  0  0  0  0  0
  185.3700  178.0130  142.8570 C   0  0  2  0  0  3  0  0  0  0  0  0
  180.5710  180.6190  138.9430 C   0  0  0  0  0  0  0  0  0  0  0  0
  187.8960  178.6070  142.9010 C   0  0  0  0  0  2  0  0  0  0  0  0
  185.5220  177.8960  144.3470 C   0  0  0  0  0  3  0  0  0  0  0  0
  186.7290  177.6220  144.8560 C   0  0  0  0  0  0  0  0  0  0  0  0
  182.1800  181.2460  138.4520 S   0  0  0  0  0  0  0  0  0  0  0  0
  183.3450  177.6810  141.4740 C   0  0  0  0  0  2  0  0  0  0  0  0
  184.9760  178.7350  138.9120 C   0  0  0  0  0  0  0  0  0  0  0  0
  187.0580  177.8680  137.9350 C   0  0  0  0  0  3  0  0  0  0  0  0
  185.7310  177.8250  138.0350 C   0  0  0  0  0  3  0  0  0  0  0  0
  189.3280  175.2380  135.4470 C   0  0  0  0  0  0  0  0  0  0  0  0
  187.2460  175.7750  136.5610 C   0  0  0  0  0  3  0  0  0  0  0  0
  189.8990  176.4120  135.9490 C   0  0  0  0  0  3  0  0  0  0  0  0
  189.1440  177.2660  136.7580 C   0  0  0  0  0  3  0  0  0  0  0  0
  187.8160  176.9540  137.0690 C   0  0  0  0  0  0  0  0  0  0  0  0
  190.1320  174.3230  134.5940 C   0  0  0  0  0  1  0  0  0  0  0  0
  188.0000  174.9210  135.7520 C   0  0  0  0  0  3  0  0  0  0  0  0
  186.9260  177.4950  146.3310 C   0  0  0  0  0  2  0  0  0  0  0  0
  188.4340  178.0080  148.1770 C   0  0  0  0  0  2  0  0  0  0  0  0
  188.9950  176.8670  147.4400 N   0  0  0  0  0  0  0  0  0  0  0  0
  188.3180  177.9590  146.7250 C   0  0  1  0  0  3  0  0  0  0  0  0
  190.4220  177.1110  147.3050 C   0  0  0  0  0  2  0  0  0  0  0  0
  191.1310  175.8310  146.8960 C   0  0  0  0  0  2  0  0  0  0  0  0
  192.4110  175.6540  147.6970 C   0  0  0  0  0  1  0  0  0  0  0  0
  1  6  1  6  0  0  0
  1 13  1  0  0  0  0
  1 15  1  0  0  0  0
  2 19  1  0  0  0  0
  3 20  2  0  0  0  0
  3 10  1  0  0  0  0
  4  9  1  0  0  0  0
  5 17  1  0  0  0  0
  7  2  2  0  0  0  0
  8  6  1  0  0  0  0
  9 14  1  0  0  0  0
 10 18  1  6  0  0  0
 10  7  1  0  0  0  0
 12  7  1  0  0  0  0
 13 11  1  1  0  0  0
 13 16  1  0  0  0  0
 14 12  2  0  0  0  0
 15  5  1  0  0  0  0
 16 17  2  0  0  0  0
 17 30  1  0  0  0  0
 18 14  1  0  0  0  0
 19 11  1  0  0  0  0
 20  8  1  0  0  0  0
 21 22  2  0  0  0  0
 22 20  1  0  0  0  0
 23 29  2  0  0  0  0
 23 25  1  0  0  0  0
 24 27  2  0  0  0  0
 25 26  2  0  0  0  0
 26 27  1  0  0  0  0
 27 21  1  0  0  0  0
 28 23  1  0  0  0  0
 29 24  1  0  0  0  0
 32 31  1  0  0  0  0
 33 30  1  1  0  0  0
 33 32  1  0  0  0  0
 33 31  1  0  0  0  0
 34 32  1  0  0  0  0
 35 34  1  0  0  0  0
 35 36  1  0  0  0  0
M  END
>  <MODEL>
2

>  <REMARK>
 VINA RESULT:      -7.7      1.597      1.993
  Name = 
  6 active torsions:
  status: ('A' for Active; 'I' for Inactive)
    1  A    between atoms: C_1  and  C_11
    2  A    between atoms: C_11  and  N_23
    3  A    between atoms: C_16  and  C_22
    4  A    between atoms: C_21  and  C_35
    5  A    between atoms: C_26  and  C_32
    6  A    between atoms: C_30  and  C_32
                            x       y       z     vdW  Elec       q    Type
                         _______ _______ _______ _____ _____    ______ ____

>  <TORSDO>
F 6

$$$$
=
 OpenBabel10222419423D

 36 40  0  0  1  0  0  0  0  0999 V2000
  187.7530  177.7020  137.2930 C   0  0  1  0  0  3  0  0  0  0  0  0
  190.6150  173.9870  137.0030 C   0  0  0  0  0  3  0  0  0  0  0  0
  191.9250  176.3350  138.5490 N   0  0  0  0  0  0  0  0  0  0  0  0
  196.3930  174.7980  135.5770 C   0  0  0  0  0  1  0  0  0  0  0  0
  185.1970  177.6900  137.6080 C   0  0  0  0  0  2  0  0  0  0  0  0
  188.6860  177.9360  138.4690 C   0  0  0  0  0  2  0  0  0  0  0  0
  191.7960  174.5930  136.8470 C   0  0  0  0  0  0  0  0  0  0  0  0
  189.9970  177.5510  138.0920 O   0  0  0  0  0  0  0  0  0  0  0  0
  195.1820  174.0150  135.7420 N   0  0  0  0  0  2  0  0  0  0  0  0
  192.0710  176.0400  137.1280 C   0  0  2  0  0  3  0  0  0  0  0  0
  188.6910  175.4810  136.4560 C   0  0  0  0  0  2  0  0  0  0  0  0
  192.9080  173.8650  136.3560 N   0  0  0  0  0  0  0  0  0  0  0  0
  187.4950  176.1890  137.0780 C   0  0  2  0  0  3  0  0  0  0  0  0
  193.9630  174.5890  136.2140 C   0  0  0  0  0  0  0  0  0  0  0  0
  186.4690  178.5380  137.4830 C   0  0  0  0  0  2  0  0  0  0  0  0
  186.2650  175.9560  136.2490 C   0  0  0  0  0  3  0  0  0  0  0  0
  185.1620  176.6680  136.5110 C   0  0  0  0  0  0  0  0  0  0  0  0
  193.8060  176.3270  136.6350 S   0  0  0  0  0  0  0  0  0  0  0  0
  189.3800  174.6490  137.5250 C   0  0  0  0  0  2  0  0  0  0  0  0
  190.9350  177.0470  138.9960 C   0  0  0  0  0  0  0  0  0  0  0  0
  190.2800  176.4050  141.2770 C   0  0  0  0  0  3  0  0  0  0  0  0
  190.7950  177.3030  140.4390 C   0  0  0  0  0  3  0  0  0  0  0  0
  189.8260  177.1010  145.4690 C   0  0  0  0  0  0  0  0  0  0  0  0
  191.2670  176.6800  143.5690 C   0  0  0  0  0  3  0  0  0  0  0  0
  188.7100  177.0780  144.6260 C   0  0  0  0  0  3  0  0  0  0  0  0
  188.8720  176.8540  143.2560 C   0  0  0  0  0  3  0  0  0  0  0  0
  190.1490  176.6530  142.7190 C   0  0  0  0  0  0  0  0  0  0  0  0
  189.6540  177.3300  146.9280 C   0  0  0  0  0  1  0  0  0  0  0  0
  191.1050  176.9030  144.9390 C   0  0  0  0  0  3  0  0  0  0  0  0
  183.9160  176.4680  135.7120 C   0  0  0  0  0  2  0  0  0  0  0  0
  182.0520  174.9210  135.4340 C   0  0  0  0  0  2  0  0  0  0  0  0
  183.2340  174.1390  135.8220 N   0  0  0  0  0  0  0  0  0  0  0  0
  182.9970  175.4710  136.3970 C   0  0  1  0  0  3  0  0  0  0  0  0
  182.7950  173.1770  136.8210 C   0  0  0  0  0  2  0  0  0  0  0  0
  183.8960  172.1650  137.0870 C   0  0  0  0  0  2  0  0  0  0  0  0
  185.0910  172.8400  137.7420 C   0  0  0  0  0  1  0  0  0  0  0  0
  1 15  1  1  0  0  0
  1  6  1  0  0  0  0
  2 19  1  0  0  0  0
  3 20  2  0  0  0  0
  4  9  1  0  0  0  0
  7  2  2  0  0  0  0
  7 10  1  0  0  0  0
  8  6  1  0  0  0  0
  8 20  1  0  0  0  0
  9 14  1  0  0  0  0
 10 18  1  1  0  0  0
 10  3  1  0  0  0  0
 11 13  1  0  0  0  0
 11 19  1  0  0  0  0
 12  7  1  0  0  0  0
 13 16  1  6  0  0  0
 13  1  1  0  0  0  0
 14 12  2  0  0  0  0
 14 18  1  0  0  0  0
 15  5  1  0  0  0  0
 16 17  2  0  0  0  0
 17  5  1  0  0  0  0
 20 22  1  0  0  0  0
 21 27  1  0  0  0  0
 22 21  2  0  0  0  0
 23 28  1  0  0  0  0
 24 29  2  0  0  0  0
 25 23  2  0  0  0  0
 26 25  1  0  0  0  0
 27 26  2  0  0  0  0
 27 24  1  0  0  0  0
 29 23  1  0  0  0  0
 30 17  1  0  0  0  0
 31 32  1  0  0  0  0
 31 33  1  0  0  0  0
 32 33  1  0  0  0  0
 32 34  1  0  0  0  0
 33 30  1  6  0  0  0
 34 35  1  0  0  0  0
 35 36  1  0  0  0  0
M  END
>  <MODEL>
3

>  <REMARK>
 VINA RESULT:      -7.7      5.376     10.956
  Name = 
  6 active torsions:
  status: ('A' for Active; 'I' for Inactive)
    1  A    between atoms: C_1  and  C_11
    2  A    between atoms: C_11  and  N_23
    3  A    between atoms: C_16  and  C_22
    4  A    between atoms: C_21  and  C_35
    5  A    between atoms: C_26  and  C_32
    6  A    between atoms: C_30  and  C_32
                            x       y       z     vdW  Elec       q    Type
                         _______ _______ _______ _____ _____    ______ ____

>  <TORSDO>
F 6

$$$$
=
 OpenBabel10222419423D

 36 40  0  0  1  0  0  0  0  0999 V2000
  187.2450  177.6710  137.6970 C   0  0  1  0  0  3  0  0  0  0  0  0
  190.1090  174.0140  136.9880 C   0  0  0  0  0  3  0  0  0  0  0  0
  191.2820  176.0160  139.0470 N   0  0  0  0  0  0  0  0  0  0  0  0
  195.9950  174.9560  136.2490 C   0  0  0  0  0  1  0  0  0  0  0  0
  184.6720  177.6530  137.7790 C   0  0  0  0  0  2  0  0  0  0  0  0
  188.0690  177.6690  138.9750 C   0  0  0  0  0  2  0  0  0  0  0  0
  191.3020  174.6150  137.0510 C   0  0  0  0  0  0  0  0  0  0  0  0
  189.4080  177.3330  138.6500 O   0  0  0  0  0  0  0  0  0  0  0  0
  194.7710  174.1800  136.1610 N   0  0  0  0  0  2  0  0  0  0  0  0
  191.5550  175.9810  137.6140 C   0  0  2  0  0  3  0  0  0  0  0  0
  188.2480  175.6200  136.5550 C   0  0  0  0  0  2  0  0  0  0  0  0
  192.4510  173.9660  136.5350 N   0  0  0  0  0  0  0  0  0  0  0  0
  187.0030  176.2270  137.1890 C   0  0  2  0  0  3  0  0  0  0  0  0
  193.5170  174.6830  136.6210 C   0  0  0  0  0  0  0  0  0  0  0  0
  185.9520  178.4840  137.9230 C   0  0  0  0  0  2  0  0  0  0  0  0
  185.8520  176.1730  136.2250 C   0  0  0  0  0  3  0  0  0  0  0  0
  184.7320  176.8470  136.5140 C   0  0  0  0  0  0  0  0  0  0  0  0
  193.3280  176.3190  137.3370 S   0  0  0  0  0  0  0  0  0  0  0  0
  188.8340  174.5940  137.5120 C   0  0  0  0  0  2  0  0  0  0  0  0
  190.2580  176.6550  139.5270 C   0  0  0  0  0  0  0  0  0  0  0  0
  190.8110  177.2120  141.8560 C   0  0  0  0  0  3  0  0  0  0  0  0
  189.9890  176.6480  140.9750 C   0  0  0  0  0  3  0  0  0  0  0  0
  189.9530  177.2060  146.0420 C   0  0  0  0  0  0  0  0  0  0  0  0
  191.5630  177.0200  144.2430 C   0  0  0  0  0  3  0  0  0  0  0  0
  188.9320  177.4040  145.1060 C   0  0  0  0  0  3  0  0  0  0  0  0
  189.2260  177.4090  143.7400 C   0  0  0  0  0  3  0  0  0  0  0  0
  190.5410  177.2170  143.3000 C   0  0  0  0  0  0  0  0  0  0  0  0
  189.6390  177.1920  147.4950 C   0  0  0  0  0  1  0  0  0  0  0  0
  191.2690  177.0150  145.6100 C   0  0  0  0  0  3  0  0  0  0  0  0
  183.5630  176.8200  135.5860 C   0  0  0  0  0  2  0  0  0  0  0  0
  181.1700  177.2760  135.4770 C   0  0  0  0  0  2  0  0  0  0  0  0
  181.4620  176.7090  136.8020 N   0  0  0  0  0  0  0  0  0  0  0  0
  182.4100  177.6290  136.1560 C   0  0  1  0  0  3  0  0  0  0  0  0
  180.7210  177.4980  137.7730 C   0  0  0  0  0  2  0  0  0  0  0  0
  180.6800  176.7750  139.1070 C   0  0  0  0  0  2  0  0  0  0  0  0
  181.7320  175.6780  139.1500 C   0  0  0  0  0  1  0  0  0  0  0  0
  1 15  1  1  0  0  0
  1  6  1  0  0  0  0
  2  7  2  0  0  0  0
  2 19  1  0  0  0  0
  3 20  2  0  0  0  0
  5 15  1  0  0  0  0
  8  6  1  0  0  0  0
  8 20  1  0  0  0  0
  9  4  1  0  0  0  0
  9 14  1  0  0  0  0
 10  7  1  1  0  0  0
 10  3  1  0  0  0  0
 11 13  1  0  0  0  0
 11 19  1  0  0  0  0
 12 14  2  0  0  0  0
 12  7  1  0  0  0  0
 13 16  1  6  0  0  0
 13  1  1  0  0  0  0
 14 18  1  0  0  0  0
 16 17  2  0  0  0  0
 17  5  1  0  0  0  0
 18 10  1  0  0  0  0
 20 22  1  0  0  0  0
 21 27  1  0  0  0  0
 22 21  2  0  0  0  0
 23 28  1  0  0  0  0
 24 29  2  0  0  0  0
 25 23  2  0  0  0  0
 26 25  1  0  0  0  0
 27 26  2  0  0  0  0
 27 24  1  0  0  0  0
 29 23  1  0  0  0  0
 30 17  1  0  0  0  0
 31 33  1  0  0  0  0
 31 32  1  0  0  0  0
 32 34  1  0  0  0  0
 33 30  1  6  0  0  0
 33 32  1  0  0  0  0
 34 35  1  0  0  0  0
 35 36  1  0  0  0  0
M  END
>  <MODEL>
4

>  <REMARK>
 VINA RESULT:      -7.5      5.116     10.911
  Name = 
  6 active torsions:
  status: ('A' for Active; 'I' for Inactive)
    1  A    between atoms: C_1  and  C_11
    2  A    between atoms: C_11  and  N_23
    3  A    between atoms: C_16  and  C_22
    4  A    between atoms: C_21  and  C_35
    5  A    between atoms: C_26  and  C_32
    6  A    between atoms: C_30  and  C_32
                            x       y       z     vdW  Elec       q    Type
                         _______ _______ _______ _____ _____    ______ ____

>  <TORSDO>
F 6

$$$$
=
 OpenBabel10222419423D

 36 40  0  0  1  0  0  0  0  0999 V2000
  187.5360  178.5680  139.7780 C   0  0  1  0  0  3  0  0  0  0  0  0
  183.1160  178.5170  141.3690 C   0  0  0  0  0  3  0  0  0  0  0  0
  183.2320  178.3020  138.2770 N   0  0  0  0  0  0  0  0  0  0  0  0
  178.9390  181.8530  138.6300 C   0  0  0  0  0  1  0  0  0  0  0  0
  189.6050  177.4870  140.8650 C   0  0  0  0  0  2  0  0  0  0  0  0
  186.8030  177.8830  138.6370 C   0  0  0  0  0  2  0  0  0  0  0  0
  182.4990  179.2200  140.4140 C   0  0  0  0  0  0  0  0  0  0  0  0
  185.5400  178.5040  138.4720 O   0  0  0  0  0  0  0  0  0  0  0  0
  179.4800  181.0750  139.7300 N   0  0  0  0  0  2  0  0  0  0  0  0
  183.0640  179.5220  139.0590 C   0  0  2  0  0  3  0  0  0  0  0  0
  185.5840  178.8900  141.3900 C   0  0  0  0  0  2  0  0  0  0  0  0
  181.2150  179.7690  140.6550 N   0  0  0  0  0  0  0  0  0  0  0  0
  186.9150  178.1900  141.1460 C   0  0  2  0  0  3  0  0  0  0  0  0
  180.7670  180.4590  139.6650 C   0  0  0  0  0  0  0  0  0  0  0  0
  189.0480  178.2690  139.6690 C   0  0  0  0  0  2  0  0  0  0  0  0
  187.8640  178.4730  142.2750 C   0  0  0  0  0  3  0  0  0  0  0  0
  189.1500  178.1260  142.1440 C   0  0  0  0  0  0  0  0  0  0  0  0
  181.8390  180.5960  138.2320 S   0  0  0  0  0  0  0  0  0  0  0  0
  184.4610  177.8800  141.2230 C   0  0  0  0  0  2  0  0  0  0  0  0
  184.4100  177.8250  138.0100 C   0  0  0  0  0  0  0  0  0  0  0  0
  183.9910  175.4320  137.6360 C   0  0  0  0  0  3  0  0  0  0  0  0
  184.5500  176.5750  137.2440 C   0  0  0  0  0  3  0  0  0  0  0  0
  184.4320  171.8290  135.3820 C   0  0  0  0  0  0  0  0  0  0  0  0
  183.4300  173.0180  137.2380 C   0  0  0  0  0  3  0  0  0  0  0  0
  185.1180  172.9900  135.0100 C   0  0  0  0  0  3  0  0  0  0  0  0
  184.9610  174.1630  135.7520 C   0  0  0  0  0  3  0  0  0  0  0  0
  184.1190  174.1850  136.8700 C   0  0  0  0  0  0  0  0  0  0  0  0
  184.6040  170.5770  134.5980 C   0  0  0  0  0  1  0  0  0  0  0  0
  183.5870  171.8440  136.4960 C   0  0  0  0  0  3  0  0  0  0  0  0
  190.1280  178.3870  143.2410 C   0  0  0  0  0  2  0  0  0  0  0  0
  191.1420  177.3520  145.2030 C   0  0  0  0  0  2  0  0  0  0  0  0
  189.9580  178.1010  145.6480 N   0  0  0  0  0  0  0  0  0  0  0  0
  189.9490  177.3820  144.3660 C   0  0  1  0  0  3  0  0  0  0  0  0
  189.2550  177.2550  146.5990 C   0  0  0  0  0  2  0  0  0  0  0  0
  189.3080  177.8740  147.9840 C   0  0  0  0  0  2  0  0  0  0  0  0
  187.9320  177.8530  148.6290 C   0  0  0  0  0  1  0  0  0  0  0  0
  1  6  1  6  0  0  0
  1 13  1  0  0  0  0
  3 10  1  0  0  0  0
  4  9  1  0  0  0  0
  5 17  1  0  0  0  0
  7 12  1  0  0  0  0
  7  2  2  0  0  0  0
  8  6  1  0  0  0  0
 10 18  1  6  0  0  0
 10  7  1  0  0  0  0
 13 11  1  1  0  0  0
 13 16  1  0  0  0  0
 14  9  1  0  0  0  0
 14 12  2  0  0  0  0
 15  1  1  0  0  0  0
 15  5  1  0  0  0  0
 17 16  2  0  0  0  0
 17 30  1  0  0  0  0
 18 14  1  0  0  0  0
 19  2  1  0  0  0  0
 19 11  1  0  0  0  0
 20  3  2  0  0  0  0
 20  8  1  0  0  0  0
 22 21  2  0  0  0  0
 22 20  1  0  0  0  0
 23 29  1  0  0  0  0
 25 23  2  0  0  0  0
 25 26  1  0  0  0  0
 26 27  2  0  0  0  0
 27 24  1  0  0  0  0
 27 21  1  0  0  0  0
 28 23  1  0  0  0  0
 29 24  2  0  0  0  0
 31 32  1  0  0  0  0
 32 34  1  0  0  0  0
 33 30  1  6  0  0  0
 33 31  1  0  0  0  0
 33 32  1  0  0  0  0
 34 35  1  0  0  0  0
 35 36  1  0  0  0  0
M  END
>  <MODEL>
5

>  <REMARK>
 VINA RESULT:      -7.4      1.593      2.442
  Name = 
  6 active torsions:
  status: ('A' for Active; 'I' for Inactive)
    1  A    between atoms: C_1  and  C_11
    2  A    between atoms: C_11  and  N_23
    3  A    between atoms: C_16  and  C_22
    4  A    between atoms: C_21  and  C_35
    5  A    between atoms: C_26  and  C_32
    6  A    between atoms: C_30  and  C_32
                            x       y       z     vdW  Elec       q    Type
                         _______ _______ _______ _____ _____    ______ ____

>  <TORSDO>
F 6

$$$$
=
 OpenBabel10222419423D

 36 40  0  0  1  0  0  0  0  0999 V2000
  189.3670  178.3300  139.6970 C   0  0  1  0  0  3  0  0  0  0  0  0
  190.4840  175.4740  143.2570 C   0  0  0  0  0  3  0  0  0  0  0  0
  188.4350  177.6390  144.1140 N   0  0  0  0  0  0  0  0  0  0  0  0
  191.6580  177.8000  148.6690 C   0  0  0  0  0  1  0  0  0  0  0  0
  189.0750  177.7030  137.2170 C   0  0  0  0  0  2  0  0  0  0  0  0
  188.1630  178.4880  140.6120 C   0  0  0  0  0  2  0  0  0  0  0  0
  190.4910  176.3380  144.2770 C   0  0  0  0  0  0  0  0  0  0  0  0
  188.6120  178.4870  141.9560 O   0  0  0  0  0  0  0  0  0  0  0  0
  191.6820  176.7590  147.6570 N   0  0  0  0  0  2  0  0  0  0  0  0
  189.8850  177.7090  144.2560 C   0  0  2  0  0  3  0  0  0  0  0  0
  190.6850  176.6070  141.0410 C   0  0  0  0  0  2  0  0  0  0  0  0
  191.1300  175.9930  145.4940 N   0  0  0  0  0  0  0  0  0  0  0  0
  189.9220  176.8850  139.7530 C   0  0  2  0  0  3  0  0  0  0  0  0
  191.0970  176.9390  146.3670 C   0  0  0  0  0  0  0  0  0  0  0  0
  188.9960  178.8080  138.2760 C   0  0  0  0  0  2  0  0  0  0  0  0
  190.7900  176.5860  138.5630 C   0  0  0  0  0  3  0  0  0  0  0  0
  190.3770  176.9690  137.3480 C   0  0  0  0  0  0  0  0  0  0  0  0
  190.2910  178.4640  145.8690 S   0  0  0  0  0  0  0  0  0  0  0  0
  189.8300  175.7230  141.9350 C   0  0  0  0  0  2  0  0  0  0  0  0
  187.8420  178.0050  143.0180 C   0  0  0  0  0  0  0  0  0  0  0  0
  185.5580  178.8920  143.2120 C   0  0  0  0  0  3  0  0  0  0  0  0
  186.3790  177.8950  142.8910 C   0  0  0  0  0  3  0  0  0  0  0  0
  181.3060  178.6310  142.8860 C   0  0  0  0  0  0  0  0  0  0  0  0
  183.4800  178.6640  141.8220 C   0  0  0  0  0  3  0  0  0  0  0  0
  181.9170  178.7540  144.1370 C   0  0  0  0  0  3  0  0  0  0  0  0
  183.3090  178.8340  144.2310 C   0  0  0  0  0  3  0  0  0  0  0  0
  184.0990  178.7900  143.0770 C   0  0  0  0  0  0  0  0  0  0  0  0
  179.8240  178.5550  142.7840 C   0  0  0  0  0  1  0  0  0  0  0  0
  182.0880  178.5840  141.7280 C   0  0  0  0  0  3  0  0  0  0  0  0
  191.2070  176.6920  136.1370 C   0  0  0  0  0  2  0  0  0  0  0  0
  192.6860  174.8270  135.6110 C   0  0  0  0  0  2  0  0  0  0  0  0
  193.4440  176.0720  135.4190 N   0  0  0  0  0  0  0  0  0  0  0  0
  192.4740  175.9470  136.5180 C   0  0  1  0  0  3  0  0  0  0  0  0
  194.7580  175.8610  136.0050 C   0  0  0  0  0  2  0  0  0  0  0  0
  195.8350  176.3600  135.0580 C   0  0  0  0  0  2  0  0  0  0  0  0
  195.8030  177.8780  134.9690 C   0  0  0  0  0  1  0  0  0  0  0  0
  1 15  1  6  0  0  0
  1 13  1  0  0  0  0
  1  6  1  0  0  0  0
  2  7  2  0  0  0  0
  5 17  1  0  0  0  0
  5 15  1  0  0  0  0
  6  8  1  0  0  0  0
  7 12  1  0  0  0  0
  8 20  1  0  0  0  0
  9  4  1  0  0  0  0
 10  3  1  1  0  0  0
 10  7  1  0  0  0  0
 10 18  1  0  0  0  0
 11 19  1  0  0  0  0
 12 14  2  0  0  0  0
 13 16  1  6  0  0  0
 13 11  1  0  0  0  0
 14  9  1  0  0  0  0
 17 16  2  0  0  0  0
 18 14  1  0  0  0  0
 19  2  1  0  0  0  0
 20  3  2  0  0  0  0
 22 20  1  0  0  0  0
 22 21  2  0  0  0  0
 23 25  1  0  0  0  0
 24 27  2  0  0  0  0
 25 26  2  0  0  0  0
 27 21  1  0  0  0  0
 27 26  1  0  0  0  0
 28 23  1  0  0  0  0
 29 24  1  0  0  0  0
 29 23  2  0  0  0  0
 30 17  1  0  0  0  0
 31 33  1  0  0  0  0
 32 31  1  0  0  0  0
 32 34  1  0  0  0  0
 32 33  1  0  0  0  0
 33 30  1  6  0  0  0
 35 34  1  0  0  0  0
 36 35  1  0  0  0  0
M  END
>  <MODEL>
6

>  <REMARK>
 VINA RESULT:      -6.7      4.972     10.020
  Name = 
  6 active torsions:
  status: ('A' for Active; 'I' for Inactive)
    1  A    between atoms: C_1  and  C_11
    2  A    between atoms: C_11  and  N_23
    3  A    between atoms: C_16  and  C_22
    4  A    between atoms: C_21  and  C_35
    5  A    between atoms: C_26  and  C_32
    6  A    between atoms: C_30  and  C_32
                            x       y       z     vdW  Elec       q    Type
                         _______ _______ _______ _____ _____    ______ ____

>  <TORSDO>
F 6

$$$$
=
 OpenBabel10222419423D

 36 40  0  0  1  0  0  0  0  0999 V2000
  185.9120  178.4060  138.1830 C   0  0  1  0  0  3  0  0  0  0  0  0
  188.2540  174.5720  136.8080 C   0  0  0  0  0  3  0  0  0  0  0  0
  189.9430  176.3310  138.7240 N   0  0  0  0  0  0  0  0  0  0  0  0
  193.9910  175.0560  135.0990 C   0  0  0  0  0  1  0  0  0  0  0  0
  183.3990  178.6020  138.7120 C   0  0  0  0  0  2  0  0  0  0  0  0
  186.9360  178.2520  139.2950 C   0  0  0  0  0  2  0  0  0  0  0  0
  189.4910  175.0650  136.6900 C   0  0  0  0  0  0  0  0  0  0  0  0
  188.1620  177.8250  138.7260 O   0  0  0  0  0  0  0  0  0  0  0  0
  192.7020  174.3930  135.1880 N   0  0  0  0  0  2  0  0  0  0  0  0
  189.9640  176.3650  137.2660 C   0  0  2  0  0  3  0  0  0  0  0  0
  186.5070  176.3560  136.7850 C   0  0  0  0  0  2  0  0  0  0  0  0
  190.4690  174.3550  135.9510 N   0  0  0  0  0  0  0  0  0  0  0  0
  185.4510  177.0250  137.6550 C   0  0  2  0  0  3  0  0  0  0  0  0
  191.5970  174.9710  135.8840 C   0  0  0  0  0  0  0  0  0  0  0  0
  184.7580  179.3100  138.6710 C   0  0  0  0  0  2  0  0  0  0  0  0
  184.1530  177.1300  136.9060 C   0  0  0  0  0  3  0  0  0  0  0  0
  183.1670  177.8770  137.4190 C   0  0  0  0  0  0  0  0  0  0  0  0
  191.6890  176.5680  136.7000 S   0  0  0  0  0  0  0  0  0  0  0  0
  187.1470  175.2240  137.5730 C   0  0  0  0  0  2  0  0  0  0  0  0
  189.0810  177.0220  139.4060 C   0  0  0  0  0  0  0  0  0  0  0  0
  190.0730  177.3780  141.6270 C   0  0  0  0  0  3  0  0  0  0  0  0
  189.0620  176.9450  140.8770 C   0  0  0  0  0  3  0  0  0  0  0  0
  189.9410  177.1720  145.8930 C   0  0  0  0  0  0  0  0  0  0  0  0
  191.2120  177.0310  143.8370 C   0  0  0  0  0  3  0  0  0  0  0  0
  188.7850  177.4550  145.1580 C   0  0  0  0  0  3  0  0  0  0  0  0
  188.8420  177.5250  143.7630 C   0  0  0  0  0  3  0  0  0  0  0  0
  190.0530  177.3130  143.0950 C   0  0  0  0  0  0  0  0  0  0  0  0
  189.8790  177.0890  147.3770 C   0  0  0  0  0  1  0  0  0  0  0  0
  191.1550  176.9610  145.2320 C   0  0  0  0  0  3  0  0  0  0  0  0
  181.8610  178.0100  136.7090 C   0  0  0  0  0  2  0  0  0  0  0  0
  179.8540  179.3770  136.4910 C   0  0  0  0  0  2  0  0  0  0  0  0
  180.0340  179.0630  137.9160 N   0  0  0  0  0  0  0  0  0  0  0  0
  181.1960  179.3300  137.0560 C   0  0  1  0  0  3  0  0  0  0  0  0
  179.7790  180.2890  138.6550 C   0  0  0  0  0  2  0  0  0  0  0  0
  179.5730  179.9750  140.1270 C   0  0  0  0  0  2  0  0  0  0  0  0
  179.3020  181.2500  140.9090 C   0  0  0  0  0  1  0  0  0  0  0  0
  1 15  1  1  0  0  0
  1  6  1  0  0  0  0
  2 19  1  0  0  0  0
  3 20  2  0  0  0  0
  4  9  1  0  0  0  0
  7  2  2  0  0  0  0
  8  6  1  0  0  0  0
  8 20  1  0  0  0  0
  9 14  1  0  0  0  0
 10  7  1  6  0  0  0
 10  3  1  0  0  0  0
 11 19  1  0  0  0  0
 12  7  1  0  0  0  0
 13 11  1  6  0  0  0
 13  1  1  0  0  0  0
 14 12  2  0  0  0  0
 14 18  1  0  0  0  0
 15  5  1  0  0  0  0
 16 17  2  0  0  0  0
 16 13  1  0  0  0  0
 17  5  1  0  0  0  0
 18 10  1  0  0  0  0
 20 22  1  0  0  0  0
 21 27  1  0  0  0  0
 22 21  2  0  0  0  0
 23 28  1  0  0  0  0
 24 29  2  0  0  0  0
 25 23  2  0  0  0  0
 26 25  1  0  0  0  0
 27 26  2  0  0  0  0
 27 24  1  0  0  0  0
 29 23  1  0  0  0  0
 30 17  1  0  0  0  0
 31 33  1  0  0  0  0
 31 32  1  0  0  0  0
 32 34  1  0  0  0  0
 33 30  1  6  0  0  0
 33 32  1  0  0  0  0
 34 35  1  0  0  0  0
 35 36  1  0  0  0  0
M  END
>  <MODEL>
7

>  <REMARK>
 VINA RESULT:      -6.4      4.266     10.310
  Name = 
  6 active torsions:
  status: ('A' for Active; 'I' for Inactive)
    1  A    between atoms: C_1  and  C_11
    2  A    between atoms: C_11  and  N_23
    3  A    between atoms: C_16  and  C_22
    4  A    between atoms: C_21  and  C_35
    5  A    between atoms: C_26  and  C_32
    6  A    between atoms: C_30  and  C_32
                            x       y       z     vdW  Elec       q    Type
                         _______ _______ _______ _____ _____    ______ ____

>  <TORSDO>
F 6

$$$$
=
 OpenBabel10222419423D

 36 40  0  0  1  0  0  0  0  0999 V2000
  189.2460  178.3820  139.9830 C   0  0  1  0  0  3  0  0  0  0  0  0
  190.5570  175.3880  143.3580 C   0  0  0  0  0  3  0  0  0  0  0  0
  188.5860  177.5340  144.4210 N   0  0  0  0  0  0  0  0  0  0  0  0
  192.0900  177.5020  148.7670 C   0  0  0  0  0  1  0  0  0  0  0  0
  188.7930  177.8490  137.5050 C   0  0  0  0  0  2  0  0  0  0  0  0
  188.1040  178.5140  140.9770 C   0  0  0  0  0  2  0  0  0  0  0  0
  190.6360  176.2130  144.4070 C   0  0  0  0  0  0  0  0  0  0  0  0
  188.6360  178.4600  142.2890 O   0  0  0  0  0  0  0  0  0  0  0  0
  192.0410  176.5000  147.7180 N   0  0  0  0  0  2  0  0  0  0  0  0
  190.0430  177.5880  144.4740 C   0  0  2  0  0  3  0  0  0  0  0  0
  190.6290  176.6000  141.1770 C   0  0  0  0  0  2  0  0  0  0  0  0
  191.3470  175.8190  145.5680 N   0  0  0  0  0  0  0  0  0  0  0  0
  189.7900  176.9320  139.9500 C   0  0  2  0  0  3  0  0  0  0  0  0
  191.3780  176.7310  146.4750 C   0  0  0  0  0  0  0  0  0  0  0  0
  188.7920  178.9150  138.6060 C   0  0  0  0  0  2  0  0  0  0  0  0
  190.5780  176.6710  138.6980 C   0  0  0  0  0  3  0  0  0  0  0  0
  190.0940  177.1010  137.5260 C   0  0  0  0  0  0  0  0  0  0  0  0
  190.5570  178.2790  146.0840 S   0  0  0  0  0  0  0  0  0  0  0  0
  189.8240  175.6900  142.0900 C   0  0  0  0  0  2  0  0  0  0  0  0
  187.9300  177.9440  143.3790 C   0  0  0  0  0  0  0  0  0  0  0  0
  185.6900  178.8660  142.9600 C   0  0  0  0  0  3  0  0  0  0  0  0
  186.4610  177.8500  143.3400 C   0  0  0  0  0  3  0  0  0  0  0  0
  181.4240  178.6290  142.8830 C   0  0  0  0  0  0  0  0  0  0  0  0
  183.5330  178.6440  141.6940 C   0  0  0  0  0  3  0  0  0  0  0  0
  182.1080  178.7550  144.0960 C   0  0  0  0  0  3  0  0  0  0  0  0
  183.5040  178.8270  144.1090 C   0  0  0  0  0  3  0  0  0  0  0  0
  184.2240  178.7720  142.9110 C   0  0  0  0  0  0  0  0  0  0  0  0
  179.9390  178.5610  142.8670 C   0  0  0  0  0  1  0  0  0  0  0  0
  182.1380  178.5720  141.6820 C   0  0  0  0  0  3  0  0  0  0  0  0
  190.8440  176.8640  136.2560 C   0  0  0  0  0  2  0  0  0  0  0  0
  191.0580  175.0060  134.6920 C   0  0  0  0  0  2  0  0  0  0  0  0
  190.3600  174.5120  135.8870 N   0  0  0  0  0  0  0  0  0  0  0  0
  190.1050  175.8680  135.3800 C   0  0  1  0  0  3  0  0  0  0  0  0
  189.2580  173.6840  135.4220 C   0  0  0  0  0  2  0  0  0  0  0  0
  188.5830  173.0070  136.6010 C   0  0  0  0  0  2  0  0  0  0  0  0
  187.5720  171.9800  136.1170 C   0  0  0  0  0  1  0  0  0  0  0  0
  1 15  1  6  0  0  0
  1  6  1  0  0  0  0
  2  7  2  0  0  0  0
  3 10  1  0  0  0  0
  5 17  1  0  0  0  0
  5 15  1  0  0  0  0
  6  8  1  0  0  0  0
  7 12  1  0  0  0  0
  8 20  1  0  0  0  0
  9  4  1  0  0  0  0
 10  7  1  1  0  0  0
 10 18  1  0  0  0  0
 11 19  1  0  0  0  0
 12 14  2  0  0  0  0
 13 16  1  6  0  0  0
 13  1  1  0  0  0  0
 13 11  1  0  0  0  0
 14  9  1  0  0  0  0
 17 16  2  0  0  0  0
 18 14  1  0  0  0  0
 19  2  1  0  0  0  0
 20  3  2  0  0  0  0
 21 22  2  0  0  0  0
 22 20  1  0  0  0  0
 23 25  1  0  0  0  0
 24 27  2  0  0  0  0
 25 26  2  0  0  0  0
 27 21  1  0  0  0  0
 27 26  1  0  0  0  0
 28 23  1  0  0  0  0
 29 24  1  0  0  0  0
 29 23  2  0  0  0  0
 30 17  1  0  0  0  0
 31 33  1  0  0  0  0
 31 32  1  0  0  0  0
 33 32  1  0  0  0  0
 33 30  1  1  0  0  0
 34 32  1  0  0  0  0
 34 35  1  0  0  0  0
 36 35  1  0  0  0  0
M  END
>  <MODEL>
8

>  <REMARK>
 VINA RESULT:      -5.8      4.619     10.000
  Name = 
  6 active torsions:
  status: ('A' for Active; 'I' for Inactive)
    1  A    between atoms: C_1  and  C_11
    2  A    between atoms: C_11  and  N_23
    3  A    between atoms: C_16  and  C_22
    4  A    between atoms: C_21  and  C_35
    5  A    between atoms: C_26  and  C_32
    6  A    between atoms: C_30  and  C_32
                            x       y       z     vdW  Elec       q    Type
                         _______ _______ _______ _____ _____    ______ ____

>  <TORSDO>
F 6

$$$$
=
 OpenBabel10222419423D

 36 40  0  0  1  0  0  0  0  0999 V2000
  189.7270  176.2800  141.7560 C   0  0  1  0  0  3  0  0  0  0  0  0
  193.2280  177.4960  138.8680 C   0  0  0  0  0  3  0  0  0  0  0  0
  191.0280  175.8790  137.3970 N   0  0  0  0  0  0  0  0  0  0  0  0
  195.4630  173.4390  135.0440 C   0  0  0  0  0  1  0  0  0  0  0  0
  188.7310  177.6680  143.6820 C   0  0  0  0  0  2  0  0  0  0  0  0
  189.0450  176.2210  140.3990 C   0  0  0  0  0  2  0  0  0  0  0  0
  193.3040  176.4080  138.0950 C   0  0  0  0  0  0  0  0  0  0  0  0
  189.9610  175.6930  139.4540 O   0  0  0  0  0  0  0  0  0  0  0  0
  195.4870  174.6770  135.8030 N   0  0  0  0  0  2  0  0  0  0  0  0
  192.2500  175.3470  137.9880 C   0  0  2  0  0  3  0  0  0  0  0  0
  192.0430  177.0610  141.0220 C   0  0  0  0  0  2  0  0  0  0  0  0
  194.4600  176.1740  137.3110 N   0  0  0  0  0  0  0  0  0  0  0  0
  190.7820  177.4130  141.8000 C   0  0  2  0  0  3  0  0  0  0  0  0
  194.4110  175.0660  136.6560 C   0  0  0  0  0  0  0  0  0  0  0  0
  188.6550  176.3740  142.8640 C   0  0  0  0  0  2  0  0  0  0  0  0
  191.1320  177.7800  143.2140 C   0  0  0  0  0  3  0  0  0  0  0  0
  190.1480  177.9130  144.1120 C   0  0  0  0  0  0  0  0  0  0  0  0
  192.9380  174.0650  136.8830 S   0  0  0  0  0  0  0  0  0  0  0  0
  192.0550  177.8530  139.7240 C   0  0  0  0  0  2  0  0  0  0  0  0
  189.9500  176.0450  138.1020 C   0  0  0  0  0  0  0  0  0  0  0  0
  187.6940  175.8640  137.1420 C   0  0  0  0  0  3  0  0  0  0  0  0
  188.7390  176.6140  137.4860 C   0  0  0  0  0  3  0  0  0  0  0  0
  184.1900  177.4890  135.3150 C   0  0  0  0  0  0  0  0  0  0  0  0
  185.2750  176.5240  137.2530 C   0  0  0  0  0  3  0  0  0  0  0  0
  185.3880  177.3980  134.6000 C   0  0  0  0  0  3  0  0  0  0  0  0
  186.5290  176.8690  135.2100 C   0  0  0  0  0  3  0  0  0  0  0  0
  186.4800  176.4290  136.5370 C   0  0  0  0  0  0  0  0  0  0  0  0
  182.9730  178.0440  134.6640 C   0  0  0  0  0  1  0  0  0  0  0  0
  184.1340  177.0530  136.6430 C   0  0  0  0  0  3  0  0  0  0  0  0
  190.4490  178.2770  145.5290 C   0  0  0  0  0  2  0  0  0  0  0  0
  189.9060  177.8150  147.8600 C   0  0  0  0  0  2  0  0  0  0  0  0
  188.7290  178.4390  147.2370 N   0  0  0  0  0  0  0  0  0  0  0  0
  189.5630  177.4930  146.4810 C   0  0  1  0  0  3  0  0  0  0  0  0
  187.5660  177.6910  147.6880 C   0  0  0  0  0  2  0  0  0  0  0  0
  186.2960  178.4450  147.3360 C   0  0  0  0  0  2  0  0  0  0  0  0
  185.9780  178.2920  145.8570 C   0  0  0  0  0  1  0  0  0  0  0  0
  1  6  1  6  0  0  0
  1 13  1  0  0  0  0
  1 15  1  0  0  0  0
  2 19  1  0  0  0  0
  3 10  1  0  0  0  0
  3 20  2  0  0  0  0
  4  9  1  0  0  0  0
  5 17  1  0  0  0  0
  7  2  2  0  0  0  0
  8  6  1  0  0  0  0
  9 14  1  0  0  0  0
 10 18  1  6  0  0  0
 10  7  1  0  0  0  0
 12  7  1  0  0  0  0
 13 11  1  6  0  0  0
 13 16  1  0  0  0  0
 14 18  1  0  0  0  0
 14 12  2  0  0  0  0
 15  5  1  0  0  0  0
 16 17  2  0  0  0  0
 17 30  1  0  0  0  0
 19 11  1  0  0  0  0
 20  8  1  0  0  0  0
 21 22  2  0  0  0  0
 22 20  1  0  0  0  0
 23 29  1  0  0  0  0
 25 26  1  0  0  0  0
 25 23  2  0  0  0  0
 26 27  2  0  0  0  0
 27 21  1  0  0  0  0
 27 24  1  0  0  0  0
 28 23  1  0  0  0  0
 29 24  2  0  0  0  0
 32 34  1  0  0  0  0
 32 31  1  0  0  0  0
 33 30  1  6  0  0  0
 33 32  1  0  0  0  0
 33 31  1  0  0  0  0
 35 34  1  0  0  0  0
 36 35  1  0  0  0  0
M  END
>  <MODEL>
9

>  <REMARK>
 VINA RESULT:      -5.1      5.526      8.397
  Name = 
  6 active torsions:
  status: ('A' for Active; 'I' for Inactive)
    1  A    between atoms: C_1  and  C_11
    2  A    between atoms: C_11  and  N_23
    3  A    between atoms: C_16  and  C_22
    4  A    between atoms: C_21  and  C_35
    5  A    between atoms: C_26  and  C_32
    6  A    between atoms: C_30  and  C_32
                            x       y       z     vdW  Elec       q    Type
                         _______ _______ _______ _____ _____    ______ ____

>  <TORSDO>
F 6

$$$$
