=
 OpenBabel10222415413D

 40 42  0  0  1  0  0  0  0  0999 V2000
  188.3830  177.1050  143.0900 C   0  0  0  0  0  3  0  0  0  0  0  0
  186.3620  178.2830  142.6210 O   0  0  0  0  0  0  0  0  0  0  0  0
  187.2470  177.6870  143.4660 C   0  0  0  0  0  0  0  0  0  0  0  0
  186.7490  177.7790  144.7830 N   0  0  0  0  0  0  0  0  0  0  0  0
  185.4830  178.2880  144.7600 O   0  0  0  0  0  0  0  0  0  0  0  0
  185.3200  178.8050  143.4390 C   0  0  2  0  0  3  0  0  0  0  0  0
  187.7040  178.2770  148.3660 C   0  0  0  0  0  3  0  0  0  0  0  0
  186.9710  178.2800  147.1750 C   0  0  0  0  0  3  0  0  0  0  0  0
  188.8300  177.2470  146.0280 C   0  0  0  0  0  3  0  0  0  0  0  0
  189.0000  177.7580  148.3870 C   0  0  0  0  0  3  0  0  0  0  0  0
  189.5630  177.2390  147.2180 C   0  0  0  0  0  0  0  0  0  0  0  0
  187.5260  177.7660  145.9940 C   0  0  0  0  0  0  0  0  0  0  0  0
  191.6470  177.1070  146.0230 N   0  0  0  0  0  1  0  0  0  0  0  0
  190.9500  176.7010  147.2320 C   0  0  0  0  0  2  0  0  0  0  0  0
  183.9600  178.3990  142.8890 C   0  0  0  0  0  2  0  0  0  0  0  0
  182.8620  178.6750  143.9030 C   0  0  0  0  0  2  0  0  0  0  0  0
  181.7030  179.3980  143.2450 C   0  0  0  0  0  2  0  0  0  0  0  0
  180.5060  178.4740  143.1660 C   0  0  2  0  0  3  0  0  0  0  0  0
  180.1050  178.3220  141.7600 N   0  0  0  0  0  0  0  0  0  0  0  0
  179.3540  179.2100  142.6610 C   0  0  0  0  0  2  0  0  0  0  0  0
  179.3810  177.1240  141.6810 N   0  0  0  0  0  2  0  0  0  0  0  0
  179.9260  176.3650  140.5680 C   0  0  0  0  0  2  0  0  0  0  0  0
  181.1790  176.8720  140.2210 O   0  0  0  0  0  0  0  0  0  0  0  0
  181.7850  175.8480  139.4930 C   0  0  0  0  0  2  0  0  0  0  0  0
  182.3030  176.3930  138.1760 C   0  0  0  0  0  2  0  0  0  0  0  0
  183.6290  176.8020  138.3220 O   0  0  0  0  0  0  0  0  0  0  0  0
  183.5890  178.1880  138.1760 C   0  0  0  0  0  2  0  0  0  0  0  0
  184.4720  180.2170  139.0720 O   0  0  0  0  0  1  0  0  0  0  0  0
  184.3270  178.8510  139.3230 C   0  0  0  0  0  2  0  0  0  0  0  0
  188.7940  177.0600  141.6610 C   0  0  0  0  0  2  0  0  0  0  0  0
  190.1410  177.7310  141.5010 C   0  0  0  0  0  2  0  0  0  0  0  0
  190.8770  177.1050  140.3350 C   0  0  0  0  0  2  0  0  0  0  0  0
  189.9170  176.5160  139.4170 N   0  0  0  0  0  2  0  0  0  0  0  0
  190.6740  175.8890  138.3450 C   0  0  0  0  0  2  0  0  0  0  0  0
  189.8430  175.8250  137.0710 C   0  0  0  0  0  2  0  0  0  0  0  0
  189.9160  177.0940  136.3670 N   0  0  0  0  0  2  0  0  0  0  0  0
  189.0680  179.3580  137.7600 O   0  0  0  0  0  1  0  0  0  0  0  0
  188.2300  178.7600  137.0330 C   0  0  0  0  0  0  0  0  0  0  0  0
  188.6080  177.5950  136.3030 N   0  0  0  0  0  2  0  0  0  0  0  0
  186.9300  179.2400  136.9400 O   0  0  0  0  0  0  0  0  0  0  0  0
  1  3  2  0  0  0  0
  2  6  1  0  0  0  0
  2  3  1  0  0  0  0
  3  4  1  0  0  0  0
  4 12  1  0  0  0  0
  5  4  1  0  0  0  0
  6 15  1  6  0  0  0
  6  5  1  0  0  0  0
  7 10  1  0  0  0  0
  8  7  2  0  0  0  0
  9 11  1  0  0  0  0
 11 14  1  0  0  0  0
 11 10  2  0  0  0  0
 12  9  2  0  0  0  0
 12  8  1  0  0  0  0
 13 14  1  0  0  0  0
 15 16  1  0  0  0  0
 17 16  1  0  0  0  0
 18 17  1  6  0  0  0
 19 20  1  0  0  0  0
 19 18  1  0  0  0  0
 20 18  1  0  0  0  0
 21 19  1  0  0  0  0
 22 21  1  0  0  0  0
 23 22  1  0  0  0  0
 24 23  1  0  0  0  0
 25 26  1  0  0  0  0
 25 24  1  0  0  0  0
 27 26  1  0  0  0  0
 27 29  1  0  0  0  0
 28 29  1  0  0  0  0
 30  1  1  0  0  0  0
 31 30  1  0  0  0  0
 32 31  1  0  0  0  0
 33 32  1  0  0  0  0
 34 33  1  0  0  0  0
 35 34  1  0  0  0  0
 36 35  1  0  0  0  0
 38 37  1  0  0  0  0
 39 36  1  0  0  0  0
 39 38  1  0  0  0  0
 40 38  2  0  0  0  0
M  END
>  <MODEL>
1

>  <REMARK>
 VINA RESULT:      -6.8      0.000      0.000
  Name = 
  22 active torsions:
  status: ('A' for Active; 'I' for Inactive)
    1  A    between atoms: O_1  and  C_8
    2  A    between atoms: O_1  and  C_22
    3  A    between atoms: C_2  and  O_4
    4  A    between atoms: C_2  and  C_8
    5  A    between atoms: N_3  and  C_26
    6  A    between atoms: N_3  and  N_27
    7  A    between atoms: O_4  and  C_19
    8  A    between atoms: C_5  and  C_20
    9  A    between atoms: C_7  and  C_40
   10  A    between atoms: C_16  and  N_17
   11  A    between atoms: C_16  and  C_26
   12  A    between atoms: N_17  and  C_31
   13  A    between atoms: C_18  and  C_35
   14  A    between atoms: C_19  and  C_24
   15  A    between atoms: C_20  and  C_28
   16  A    between atoms: C_22  and  N_32
   17  A    between atoms: C_25  and  C_37
   18  A    between atoms: C_25  and  C_38
   19  A    between atoms: C_28  and  C_31
   20  A    between atoms: N_29  and  C_39
   21  A    between atoms: N_32  and  N_33
   22  A    between atoms: C_37  and  C_40
                            x       y       z     vdW  Elec       q    Type
                         _______ _______ _______ _____ _____    ______ ____

>  <TORSDO>
F 22

$$$$
=
 OpenBabel10222415413D

 40 42  0  0  1  0  0  0  0  0999 V2000
  187.4650  178.2650  141.5470 C   0  0  0  0  0  3  0  0  0  0  0  0
  185.8150  179.1270  140.0550 O   0  0  0  0  0  0  0  0  0  0  0  0
  186.2140  178.6050  141.2470 C   0  0  0  0  0  0  0  0  0  0  0  0
  185.0860  178.4720  142.0840 N   0  0  0  0  0  0  0  0  0  0  0  0
  183.9550  178.7590  141.3790 O   0  0  0  0  0  0  0  0  0  0  0  0
  184.4190  179.3770  140.1770 C   0  0  2  0  0  3  0  0  0  0  0  0
  183.9080  178.8660  145.6130 C   0  0  0  0  0  3  0  0  0  0  0  0
  183.9340  178.8670  144.2150 C   0  0  0  0  0  3  0  0  0  0  0  0
  186.2120  178.0590  144.2580 C   0  0  0  0  0  3  0  0  0  0  0  0
  185.0330  178.4610  146.3340 C   0  0  0  0  0  3  0  0  0  0  0  0
  186.1860  178.0530  145.6560 C   0  0  0  0  0  0  0  0  0  0  0  0
  185.0860  178.4650  143.5230 C   0  0  0  0  0  0  0  0  0  0  0  0
  187.3200  178.1530  147.7750 N   0  0  0  0  0  1  0  0  0  0  0  0
  187.3930  177.6370  146.4190 C   0  0  0  0  0  2  0  0  0  0  0  0
  183.6710  178.8070  138.9810 C   0  0  0  0  0  2  0  0  0  0  0  0
  184.5270  177.7960  138.2380 C   0  0  0  0  0  2  0  0  0  0  0  0
  183.6590  176.7130  137.6270 C   0  0  0  0  0  2  0  0  0  0  0  0
  184.4810  175.8870  136.6600 C   0  0  2  0  0  3  0  0  0  0  0  0
  185.7630  176.5630  136.4160 N   0  0  0  0  0  0  0  0  0  0  0  0
  184.6790  176.6360  135.4260 C   0  0  0  0  0  2  0  0  0  0  0  0
  186.6520  175.5780  135.9670 N   0  0  0  0  0  2  0  0  0  0  0  0
  187.9960  176.0350  136.2820 C   0  0  0  0  0  2  0  0  0  0  0  0
  188.0530  177.4260  136.1930 O   0  0  0  0  0  0  0  0  0  0  0  0
  189.3280  177.7580  136.6510 C   0  0  0  0  0  2  0  0  0  0  0  0
  190.1540  176.4980  136.8230 C   0  0  0  0  0  2  0  0  0  0  0  0
  191.4050  176.8200  137.3500 O   0  0  0  0  0  0  0  0  0  0  0  0
  192.1840  175.6860  137.1270 C   0  0  0  0  0  2  0  0  0  0  0  0
  194.5490  175.9460  136.9280 O   0  0  0  0  0  1  0  0  0  0  0  0
  193.3500  176.0290  136.2180 C   0  0  0  0  0  2  0  0  0  0  0  0
  188.5710  178.4400  140.5670 C   0  0  0  0  0  2  0  0  0  0  0  0
  189.1720  177.0900  140.2380 C   0  0  0  0  0  2  0  0  0  0  0  0
  190.4840  176.9320  140.9780 C   0  0  0  0  0  2  0  0  0  0  0  0
  190.3150  175.9820  142.0640 N   0  0  0  0  0  2  0  0  0  0  0  0
  191.1750  176.4150  143.1550 C   0  0  0  0  0  2  0  0  0  0  0  0
  190.8150  177.8300  143.5890 C   0  0  0  0  0  2  0  0  0  0  0  0
  190.6760  177.8850  145.0340 N   0  0  0  0  0  2  0  0  0  0  0  0
  190.6290  176.9810  147.6740 O   0  0  0  0  0  1  0  0  0  0  0  0
  191.5480  176.5640  146.9200 C   0  0  0  0  0  0  0  0  0  0  0  0
  191.6240  176.9980  145.5640 N   0  0  0  0  0  2  0  0  0  0  0  0
  192.4950  175.6760  147.4120 O   0  0  0  0  0  0  0  0  0  0  0  0
  2  6  1  0  0  0  0
  2  3  1  0  0  0  0
  3  1  2  0  0  0  0
  3  4  1  0  0  0  0
  4 12  1  0  0  0  0
  5  4  1  0  0  0  0
  6 15  1  6  0  0  0
  6  5  1  0  0  0  0
  7 10  1  0  0  0  0
  8  7  2  0  0  0  0
  9 11  1  0  0  0  0
 11 10  2  0  0  0  0
 11 14  1  0  0  0  0
 12  8  1  0  0  0  0
 12  9  2  0  0  0  0
 14 13  1  0  0  0  0
 16 15  1  0  0  0  0
 17 16  1  0  0  0  0
 18 17  1  1  0  0  0
 19 18  1  0  0  0  0
 20 19  1  0  0  0  0
 20 18  1  0  0  0  0
 21 22  1  0  0  0  0
 21 19  1  0  0  0  0
 23 22  1  0  0  0  0
 23 24  1  0  0  0  0
 24 25  1  0  0  0  0
 25 26  1  0  0  0  0
 27 26  1  0  0  0  0
 29 28  1  0  0  0  0
 29 27  1  0  0  0  0
 30  1  1  0  0  0  0
 31 30  1  0  0  0  0
 31 32  1  0  0  0  0
 32 33  1  0  0  0  0
 33 34  1  0  0  0  0
 34 35  1  0  0  0  0
 35 36  1  0  0  0  0
 36 39  1  0  0  0  0
 38 40  2  0  0  0  0
 38 37  1  0  0  0  0
 39 38  1  0  0  0  0
M  END
>  <MODEL>
2

>  <REMARK>
 VINA RESULT:      -6.6      2.755      6.827
  Name = 
  22 active torsions:
  status: ('A' for Active; 'I' for Inactive)
    1  A    between atoms: O_1  and  C_8
    2  A    between atoms: O_1  and  C_22
    3  A    between atoms: C_2  and  O_4
    4  A    between atoms: C_2  and  C_8
    5  A    between atoms: N_3  and  C_26
    6  A    between atoms: N_3  and  N_27
    7  A    between atoms: O_4  and  C_19
    8  A    between atoms: C_5  and  C_20
    9  A    between atoms: C_7  and  C_40
   10  A    between atoms: C_16  and  N_17
   11  A    between atoms: C_16  and  C_26
   12  A    between atoms: N_17  and  C_31
   13  A    between atoms: C_18  and  C_35
   14  A    between atoms: C_19  and  C_24
   15  A    between atoms: C_20  and  C_28
   16  A    between atoms: C_22  and  N_32
   17  A    between atoms: C_25  and  C_37
   18  A    between atoms: C_25  and  C_38
   19  A    between atoms: C_28  and  C_31
   20  A    between atoms: N_29  and  C_39
   21  A    between atoms: N_32  and  N_33
   22  A    between atoms: C_37  and  C_40
                            x       y       z     vdW  Elec       q    Type
                         _______ _______ _______ _____ _____    ______ ____

>  <TORSDO>
F 22

$$$$
=
 OpenBabel10222415413D

 40 42  0  0  1  0  0  0  0  0999 V2000
  187.1280  177.9080  143.0660 C   0  0  0  0  0  3  0  0  0  0  0  0
  185.0290  178.9330  143.5500 O   0  0  0  0  0  0  0  0  0  0  0  0
  186.1690  178.2820  143.9090 C   0  0  0  0  0  0  0  0  0  0  0  0
  186.1460  178.0620  145.3030 N   0  0  0  0  0  0  0  0  0  0  0  0
  184.9310  178.4280  145.8050 O   0  0  0  0  0  0  0  0  0  0  0  0
  184.3100  179.1720  144.7550 C   0  0  2  0  0  3  0  0  0  0  0  0
  188.2540  177.9900  148.3920 C   0  0  0  0  0  3  0  0  0  0  0  0
  187.1600  178.1450  147.5360 C   0  0  0  0  0  3  0  0  0  0  0  0
  188.5350  177.4900  145.6590 C   0  0  0  0  0  3  0  0  0  0  0  0
  189.4890  177.5840  147.8820 C   0  0  0  0  0  3  0  0  0  0  0  0
  189.6290  177.3300  146.5140 C   0  0  0  0  0  0  0  0  0  0  0  0
  187.2890  177.8980  146.1610 C   0  0  0  0  0  0  0  0  0  0  0  0
  191.8630  176.6170  147.0510 N   0  0  0  0  0  1  0  0  0  0  0  0
  190.9470  176.9140  145.9630 C   0  0  0  0  0  2  0  0  0  0  0  0
  182.8590  178.7380  144.6030 C   0  0  0  0  0  2  0  0  0  0  0  0
  182.3520  179.0250  143.1990 C   0  0  0  0  0  2  0  0  0  0  0  0
  180.8530  178.8070  143.1220 C   0  0  0  0  0  2  0  0  0  0  0  0
  180.4290  178.7030  141.6720 C   0  0  2  0  0  3  0  0  0  0  0  0
  181.3120  179.5410  140.8480 N   0  0  0  0  0  0  0  0  0  0  0  0
  179.9610  180.0010  141.2060 C   0  0  0  0  0  2  0  0  0  0  0  0
  181.2320  179.0380  139.5430 N   0  0  0  0  0  2  0  0  0  0  0  0
  182.3480  178.1230  139.3660 C   0  0  0  0  0  2  0  0  0  0  0  0
  181.9180  176.9820  138.6880 O   0  0  0  0  0  0  0  0  0  0  0  0
  182.6170  175.9320  139.2830 C   0  0  0  0  0  2  0  0  0  0  0  0
  183.2140  175.0410  138.2110 C   0  0  0  0  0  2  0  0  0  0  0  0
  184.2510  175.7110  137.5610 O   0  0  0  0  0  0  0  0  0  0  0  0
  184.9720  174.7050  136.9190 C   0  0  0  0  0  2  0  0  0  0  0  0
  186.0560  172.8500  137.9590 O   0  0  0  0  0  1  0  0  0  0  0  0
  184.8050  173.3940  137.6640 C   0  0  0  0  0  2  0  0  0  0  0  0
  187.0290  178.1850  141.6080 C   0  0  0  0  0  2  0  0  0  0  0  0
  188.4020  178.0790  140.9790 C   0  0  0  0  0  2  0  0  0  0  0  0
  189.2810  177.2000  141.8440 C   0  0  0  0  0  2  0  0  0  0  0  0
  190.1740  176.4260  140.9970 N   0  0  0  0  0  2  0  0  0  0  0  0
  190.8330  177.3600  140.0970 C   0  0  0  0  0  2  0  0  0  0  0  0
  191.3460  176.6360  138.8590 C   0  0  0  0  0  2  0  0  0  0  0  0
  190.4830  175.5080  138.5500 N   0  0  0  0  0  2  0  0  0  0  0  0
  190.6290  175.1620  135.7860 O   0  0  0  0  0  0  0  0  0  0  0  0
  191.3300  174.4120  136.5160 C   0  0  0  0  0  0  0  0  0  0  0  0
  191.2900  174.5410  137.9350 N   0  0  0  0  0  2  0  0  0  0  0  0
  192.1490  173.4530  135.9350 O   0  0  0  0  0  1  0  0  0  0  0  0
  1  3  2  0  0  0  0
  2  3  1  0  0  0  0
  2  6  1  0  0  0  0
  3  4  1  0  0  0  0
  4  5  1  0  0  0  0
  4 12  1  0  0  0  0
  6 15  1  6  0  0  0
  6  5  1  0  0  0  0
  8  7  2  0  0  0  0
  9 12  2  0  0  0  0
  9 11  1  0  0  0  0
 10  7  1  0  0  0  0
 11 10  2  0  0  0  0
 12  8  1  0  0  0  0
 14 11  1  0  0  0  0
 14 13  1  0  0  0  0
 16 15  1  0  0  0  0
 17 16  1  0  0  0  0
 18 17  1  1  0  0  0
 19 20  1  0  0  0  0
 19 18  1  0  0  0  0
 20 18  1  0  0  0  0
 21 19  1  0  0  0  0
 22 21  1  0  0  0  0
 23 24  1  0  0  0  0
 23 22  1  0  0  0  0
 25 24  1  0  0  0  0
 26 25  1  0  0  0  0
 27 26  1  0  0  0  0
 27 29  1  0  0  0  0
 29 28  1  0  0  0  0
 30  1  1  0  0  0  0
 31 30  1  0  0  0  0
 31 32  1  0  0  0  0
 33 32  1  0  0  0  0
 34 33  1  0  0  0  0
 35 34  1  0  0  0  0
 36 35  1  0  0  0  0
 37 38  2  0  0  0  0
 38 39  1  0  0  0  0
 39 36  1  0  0  0  0
 40 38  1  0  0  0  0
M  END
>  <MODEL>
3

>  <REMARK>
 VINA RESULT:      -6.6      2.161      2.903
  Name = 
  22 active torsions:
  status: ('A' for Active; 'I' for Inactive)
    1  A    between atoms: O_1  and  C_8
    2  A    between atoms: O_1  and  C_22
    3  A    between atoms: C_2  and  O_4
    4  A    between atoms: C_2  and  C_8
    5  A    between atoms: N_3  and  C_26
    6  A    between atoms: N_3  and  N_27
    7  A    between atoms: O_4  and  C_19
    8  A    between atoms: C_5  and  C_20
    9  A    between atoms: C_7  and  C_40
   10  A    between atoms: C_16  and  N_17
   11  A    between atoms: C_16  and  C_26
   12  A    between atoms: N_17  and  C_31
   13  A    between atoms: C_18  and  C_35
   14  A    between atoms: C_19  and  C_24
   15  A    between atoms: C_20  and  C_28
   16  A    between atoms: C_22  and  N_32
   17  A    between atoms: C_25  and  C_37
   18  A    between atoms: C_25  and  C_38
   19  A    between atoms: C_28  and  C_31
   20  A    between atoms: N_29  and  C_39
   21  A    between atoms: N_32  and  N_33
   22  A    between atoms: C_37  and  C_40
                            x       y       z     vdW  Elec       q    Type
                         _______ _______ _______ _____ _____    ______ ____

>  <TORSDO>
F 22

$$$$
=
 OpenBabel10222415413D

 40 42  0  0  1  0  0  0  0  0999 V2000
  188.2560  177.1400  142.9920 C   0  0  0  0  0  3  0  0  0  0  0  0
  186.2310  178.3450  142.6170 O   0  0  0  0  0  0  0  0  0  0  0  0
  187.1450  177.7360  143.4200 C   0  0  0  0  0  0  0  0  0  0  0  0
  186.7080  177.8300  144.7580 N   0  0  0  0  0  0  0  0  0  0  0  0
  185.4490  178.3550  144.7940 O   0  0  0  0  0  0  0  0  0  0  0  0
  185.2330  178.8780  143.4820 C   0  0  2  0  0  3  0  0  0  0  0  0
  187.8210  178.2870  148.3010 C   0  0  0  0  0  3  0  0  0  0  0  0
  187.0360  178.3030  147.1450 C   0  0  0  0  0  3  0  0  0  0  0  0
  188.8440  177.2900  145.9020 C   0  0  0  0  0  3  0  0  0  0  0  0
  189.1180  177.7720  148.2580 C   0  0  0  0  0  3  0  0  0  0  0  0
  189.6300  177.2690  147.0570 C   0  0  0  0  0  0  0  0  0  0  0  0
  187.5390  177.8060  145.9330 C   0  0  0  0  0  0  0  0  0  0  0  0
  191.6780  177.2070  145.7980 N   0  0  0  0  0  1  0  0  0  0  0  0
  191.0170  176.7350  147.0020 C   0  0  0  0  0  2  0  0  0  0  0  0
  183.8450  178.4910  142.9930 C   0  0  0  0  0  2  0  0  0  0  0  0
  182.7900  178.8340  144.0320 C   0  0  0  0  0  2  0  0  0  0  0  0
  181.5080  179.2820  143.3570 C   0  0  0  0  0  2  0  0  0  0  0  0
  181.3890  178.6220  142.0000 C   0  0  2  0  0  3  0  0  0  0  0  0
  180.4640  179.4000  141.1630 N   0  0  0  0  0  0  0  0  0  0  0  0
  180.0250  178.1510  141.8040 C   0  0  0  0  0  2  0  0  0  0  0  0
  180.7700  179.0840  139.8330 N   0  0  0  0  0  2  0  0  0  0  0  0
  180.5230  180.2770  139.0390 C   0  0  0  0  0  2  0  0  0  0  0  0
  181.7030  180.6780  138.4120 O   0  0  0  0  0  0  0  0  0  0  0  0
  181.5920  182.0640  138.3050 C   0  0  0  0  0  2  0  0  0  0  0  0
  180.1870  182.4330  137.8710 C   0  0  0  0  0  2  0  0  0  0  0  0
  180.0900  183.8150  137.7020 O   0  0  0  0  0  0  0  0  0  0  0  0
  181.1840  184.1500  136.9040 C   0  0  0  0  0  2  0  0  0  0  0  0
  179.5080  184.7300  135.3060 O   0  0  0  0  0  1  0  0  0  0  0  0
  180.7740  184.1580  135.4430 C   0  0  0  0  0  2  0  0  0  0  0  0
  188.6010  177.0940  141.5460 C   0  0  0  0  0  2  0  0  0  0  0  0
  190.0840  176.8350  141.3890 C   0  0  0  0  0  2  0  0  0  0  0  0
  190.4000  176.6070  139.9250 C   0  0  0  0  0  2  0  0  0  0  0  0
  189.3310  177.1570  139.1080 N   0  0  0  0  0  2  0  0  0  0  0  0
  189.9020  177.4800  137.8100 C   0  0  0  0  0  2  0  0  0  0  0  0
  189.0860  178.5660  137.1230 C   0  0  0  0  0  2  0  0  0  0  0  0
  187.7990  178.0330  136.7090 N   0  0  0  0  0  2  0  0  0  0  0  0
  185.3780  176.9120  137.5260 O   0  0  0  0  0  0  0  0  0  0  0  0
  185.6040  178.1160  137.8210 C   0  0  0  0  0  0  0  0  0  0  0  0
  186.8220  178.7410  137.4230 N   0  0  0  0  0  2  0  0  0  0  0  0
  184.6600  178.8390  138.5380 O   0  0  0  0  0  1  0  0  0  0  0  0
  1  3  2  0  0  0  0
  2  3  1  0  0  0  0
  2  6  1  0  0  0  0
  3  4  1  0  0  0  0
  4  5  1  0  0  0  0
  4 12  1  0  0  0  0
  6 15  1  6  0  0  0
  6  5  1  0  0  0  0
  8  7  2  0  0  0  0
  9 12  2  0  0  0  0
  9 11  1  0  0  0  0
 10  7  1  0  0  0  0
 11 10  2  0  0  0  0
 12  8  1  0  0  0  0
 13 14  1  0  0  0  0
 14 11  1  0  0  0  0
 15 16  1  0  0  0  0
 17 16  1  0  0  0  0
 18 17  1  1  0  0  0
 19 20  1  0  0  0  0
 19 18  1  0  0  0  0
 20 18  1  0  0  0  0
 21 19  1  0  0  0  0
 22 21  1  0  0  0  0
 23 22  1  0  0  0  0
 24 23  1  0  0  0  0
 25 24  1  0  0  0  0
 26 25  1  0  0  0  0
 27 26  1  0  0  0  0
 28 29  1  0  0  0  0
 29 27  1  0  0  0  0
 30  1  1  0  0  0  0
 31 30  1  0  0  0  0
 32 31  1  0  0  0  0
 33 32  1  0  0  0  0
 34 33  1  0  0  0  0
 35 34  1  0  0  0  0
 36 35  1  0  0  0  0
 36 39  1  0  0  0  0
 37 38  2  0  0  0  0
 38 40  1  0  0  0  0
 39 38  1  0  0  0  0
M  END
>  <MODEL>
4

>  <REMARK>
 VINA RESULT:      -6.6      2.707      3.215
  Name = 
  22 active torsions:
  status: ('A' for Active; 'I' for Inactive)
    1  A    between atoms: O_1  and  C_8
    2  A    between atoms: O_1  and  C_22
    3  A    between atoms: C_2  and  O_4
    4  A    between atoms: C_2  and  C_8
    5  A    between atoms: N_3  and  C_26
    6  A    between atoms: N_3  and  N_27
    7  A    between atoms: O_4  and  C_19
    8  A    between atoms: C_5  and  C_20
    9  A    between atoms: C_7  and  C_40
   10  A    between atoms: C_16  and  N_17
   11  A    between atoms: C_16  and  C_26
   12  A    between atoms: N_17  and  C_31
   13  A    between atoms: C_18  and  C_35
   14  A    between atoms: C_19  and  C_24
   15  A    between atoms: C_20  and  C_28
   16  A    between atoms: C_22  and  N_32
   17  A    between atoms: C_25  and  C_37
   18  A    between atoms: C_25  and  C_38
   19  A    between atoms: C_28  and  C_31
   20  A    between atoms: N_29  and  C_39
   21  A    between atoms: N_32  and  N_33
   22  A    between atoms: C_37  and  C_40
                            x       y       z     vdW  Elec       q    Type
                         _______ _______ _______ _____ _____    ______ ____

>  <TORSDO>
F 22

$$$$
=
 OpenBabel10222415413D

 40 42  0  0  1  0  0  0  0  0999 V2000
  187.5820  178.3390  141.6440 C   0  0  0  0  0  3  0  0  0  0  0  0
  185.8570  178.9260  140.1050 O   0  0  0  0  0  0  0  0  0  0  0  0
  186.3030  178.5100  141.3210 C   0  0  0  0  0  0  0  0  0  0  0  0
  185.1900  178.2780  142.1570 N   0  0  0  0  0  0  0  0  0  0  0  0
  184.0400  178.3940  141.4320 O   0  0  0  0  0  0  0  0  0  0  0  0
  184.4390  179.0090  140.2060 C   0  0  2  0  0  3  0  0  0  0  0  0
  184.0020  178.9080  145.6480 C   0  0  0  0  0  3  0  0  0  0  0  0
  184.0440  178.8450  144.2520 C   0  0  0  0  0  3  0  0  0  0  0  0
  186.2620  177.8890  144.3620 C   0  0  0  0  0  3  0  0  0  0  0  0
  185.0890  178.4610  146.4010 C   0  0  0  0  0  3  0  0  0  0  0  0
  186.2200  177.9480  145.7580 C   0  0  0  0  0  0  0  0  0  0  0  0
  185.1730  178.3360  143.5950 C   0  0  0  0  0  0  0  0  0  0  0  0
  187.4420  178.2130  147.8130 N   0  0  0  0  0  1  0  0  0  0  0  0
  187.3880  177.4870  146.5550 C   0  0  0  0  0  2  0  0  0  0  0  0
  183.7800  178.3000  139.0320 C   0  0  0  0  0  2  0  0  0  0  0  0
  182.9710  177.1050  139.5070 C   0  0  0  0  0  2  0  0  0  0  0  0
  181.7810  176.8740  138.5960 C   0  0  0  0  0  2  0  0  0  0  0  0
  181.8040  175.4510  138.0790 C   0  0  2  0  0  3  0  0  0  0  0  0
  182.8030  175.3430  137.0060 N   0  0  0  0  0  0  0  0  0  0  0  0
  181.3690  175.4300  136.6890 C   0  0  0  0  0  2  0  0  0  0  0  0
  183.1520  173.9880  136.9230 N   0  0  0  0  0  2  0  0  0  0  0  0
  184.4050  173.8220  137.6410 C   0  0  0  0  0  2  0  0  0  0  0  0
  185.3670  173.2790  136.7890 O   0  0  0  0  0  0  0  0  0  0  0  0
  186.5520  173.9290  137.1340 C   0  0  0  0  0  2  0  0  0  0  0  0
  187.0990  174.6700  135.9300 C   0  0  0  0  0  2  0  0  0  0  0  0
  187.7440  175.8360  136.3440 O   0  0  0  0  0  0  0  0  0  0  0  0
  186.7130  176.6810  136.7550 C   0  0  0  0  0  2  0  0  0  0  0  0
  188.3330  178.3860  136.3460 O   0  0  0  0  0  1  0  0  0  0  0  0
  187.2830  178.0180  137.1890 C   0  0  0  0  0  2  0  0  0  0  0  0
  188.6700  178.6040  140.6650 C   0  0  0  0  0  2  0  0  0  0  0  0
  189.3220  177.2960  140.2680 C   0  0  0  0  0  2  0  0  0  0  0  0
  190.1140  176.7560  141.4410 C   0  0  0  0  0  2  0  0  0  0  0  0
  191.3990  177.4310  141.5080 N   0  0  0  0  0  2  0  0  0  0  0  0
  191.5660  177.9070  142.8730 C   0  0  0  0  0  2  0  0  0  0  0  0
  190.6350  177.1580  143.8170 C   0  0  0  0  0  2  0  0  0  0  0  0
  190.7370  177.7130  145.1570 N   0  0  0  0  0  2  0  0  0  0  0  0
  190.6180  176.9170  147.8290 O   0  0  0  0  0  1  0  0  0  0  0  0
  191.6530  176.6310  147.1690 C   0  0  0  0  0  0  0  0  0  0  0  0
  191.7690  177.0180  145.8020 N   0  0  0  0  0  2  0  0  0  0  0  0
  192.6880  175.9330  147.7780 O   0  0  0  0  0  0  0  0  0  0  0  0
  2  6  1  0  0  0  0
  2  3  1  0  0  0  0
  3  1  2  0  0  0  0
  3  4  1  0  0  0  0
  4 12  1  0  0  0  0
  5  4  1  0  0  0  0
  6 15  1  6  0  0  0
  6  5  1  0  0  0  0
  7 10  1  0  0  0  0
  8  7  2  0  0  0  0
  9 11  1  0  0  0  0
 11 10  2  0  0  0  0
 11 14  1  0  0  0  0
 12  8  1  0  0  0  0
 12  9  2  0  0  0  0
 14 13  1  0  0  0  0
 15 16  1  0  0  0  0
 17 16  1  0  0  0  0
 18 17  1  6  0  0  0
 19 18  1  0  0  0  0
 20 19  1  0  0  0  0
 20 18  1  0  0  0  0
 21 19  1  0  0  0  0
 21 22  1  0  0  0  0
 23 24  1  0  0  0  0
 23 22  1  0  0  0  0
 25 26  1  0  0  0  0
 25 24  1  0  0  0  0
 26 27  1  0  0  0  0
 27 29  1  0  0  0  0
 28 29  1  0  0  0  0
 30  1  1  0  0  0  0
 31 30  1  0  0  0  0
 31 32  1  0  0  0  0
 32 33  1  0  0  0  0
 33 34  1  0  0  0  0
 34 35  1  0  0  0  0
 35 36  1  0  0  0  0
 36 39  1  0  0  0  0
 38 40  2  0  0  0  0
 38 37  1  0  0  0  0
 39 38  1  0  0  0  0
M  END
>  <MODEL>
5

>  <REMARK>
 VINA RESULT:      -6.5      2.965      5.691
  Name = 
  22 active torsions:
  status: ('A' for Active; 'I' for Inactive)
    1  A    between atoms: O_1  and  C_8
    2  A    between atoms: O_1  and  C_22
    3  A    between atoms: C_2  and  O_4
    4  A    between atoms: C_2  and  C_8
    5  A    between atoms: N_3  and  C_26
    6  A    between atoms: N_3  and  N_27
    7  A    between atoms: O_4  and  C_19
    8  A    between atoms: C_5  and  C_20
    9  A    between atoms: C_7  and  C_40
   10  A    between atoms: C_16  and  N_17
   11  A    between atoms: C_16  and  C_26
   12  A    between atoms: N_17  and  C_31
   13  A    between atoms: C_18  and  C_35
   14  A    between atoms: C_19  and  C_24
   15  A    between atoms: C_20  and  C_28
   16  A    between atoms: C_22  and  N_32
   17  A    between atoms: C_25  and  C_37
   18  A    between atoms: C_25  and  C_38
   19  A    between atoms: C_28  and  C_31
   20  A    between atoms: N_29  and  C_39
   21  A    between atoms: N_32  and  N_33
   22  A    between atoms: C_37  and  C_40
                            x       y       z     vdW  Elec       q    Type
                         _______ _______ _______ _____ _____    ______ ____

>  <TORSDO>
F 22

$$$$
=
 OpenBabel10222415413D

 40 42  0  0  1  0  0  0  0  0999 V2000
  187.2850  178.4960  141.5090 C   0  0  0  0  0  3  0  0  0  0  0  0
  186.3820  178.7360  139.3130 O   0  0  0  0  0  0  0  0  0  0  0  0
  186.2690  178.5100  140.6500 C   0  0  0  0  0  0  0  0  0  0  0  0
  184.9110  178.2770  140.9570 N   0  0  0  0  0  0  0  0  0  0  0  0
  184.1870  178.2000  139.8030 O   0  0  0  0  0  0  0  0  0  0  0  0
  185.0600  178.7000  138.7880 C   0  0  2  0  0  3  0  0  0  0  0  0
  184.4420  178.7170  144.6420 C   0  0  0  0  0  3  0  0  0  0  0  0
  185.0400  178.4970  143.3980 C   0  0  0  0  0  3  0  0  0  0  0  0
  182.8880  178.7330  142.3220 C   0  0  0  0  0  3  0  0  0  0  0  0
  183.0670  178.9450  144.7270 C   0  0  0  0  0  3  0  0  0  0  0  0
  182.2890  178.9570  143.5650 C   0  0  0  0  0  0  0  0  0  0  0  0
  184.2700  178.5020  142.2250 C   0  0  0  0  0  0  0  0  0  0  0  0
  180.3520  179.8390  142.4430 N   0  0  0  0  0  1  0  0  0  0  0  0
  180.8200  179.1820  143.6510 C   0  0  0  0  0  2  0  0  0  0  0  0
  184.9990  177.7990  137.5640 C   0  0  0  0  0  2  0  0  0  0  0  0
  186.3570  177.1820  137.2770 C   0  0  0  0  0  2  0  0  0  0  0  0
  186.9750  177.8090  136.0420 C   0  0  0  0  0  2  0  0  0  0  0  0
  188.4850  177.7380  136.1370 C   0  0  2  0  0  3  0  0  0  0  0  0
  188.8630  177.2640  137.4760 N   0  0  0  0  0  0  0  0  0  0  0  0
  188.9560  178.6910  137.1330 C   0  0  0  0  0  2  0  0  0  0  0  0
  190.1570  176.7370  137.3600 N   0  0  0  0  0  2  0  0  0  0  0  0
  190.0740  175.3200  137.6760 C   0  0  0  0  0  2  0  0  0  0  0  0
  191.3190  174.8600  138.1050 O   0  0  0  0  0  0  0  0  0  0  0  0
  192.1760  175.9480  137.9320 C   0  0  0  0  0  2  0  0  0  0  0  0
  193.4130  175.5110  137.1730 C   0  0  0  0  0  2  0  0  0  0  0  0
  194.5140  175.4950  138.0300 O   0  0  0  0  0  0  0  0  0  0  0  0
  195.3890  174.5690  137.4620 C   0  0  0  0  0  2  0  0  0  0  0  0
  195.2060  172.8400  139.0980 O   0  0  0  0  0  1  0  0  0  0  0  0
  196.0840  173.7780  138.5540 C   0  0  0  0  0  2  0  0  0  0  0  0
  188.6820  178.7420  141.0590 C   0  0  0  0  0  2  0  0  0  0  0  0
  189.4640  177.4470  141.1100 C   0  0  0  0  0  2  0  0  0  0  0  0
  190.5300  177.5490  142.1810 C   0  0  0  0  0  2  0  0  0  0  0  0
  190.7430  176.2420  142.7780 N   0  0  0  0  0  2  0  0  0  0  0  0
  191.1240  176.4570  144.1650 C   0  0  0  0  0  2  0  0  0  0  0  0
  190.3230  177.6030  144.7670 C   0  0  0  0  0  2  0  0  0  0  0  0
  189.7520  177.1940  146.0400 N   0  0  0  0  0  2  0  0  0  0  0  0
  188.2880  177.3920  148.4070 O   0  0  0  0  0  1  0  0  0  0  0  0
  187.7760  177.8540  147.3520 C   0  0  0  0  0  0  0  0  0  0  0  0
  188.4770  177.7740  146.1130 N   0  0  0  0  0  2  0  0  0  0  0  0
  186.5200  178.4450  147.3960 O   0  0  0  0  0  0  0  0  0  0  0  0
  2  3  1  0  0  0  0
  3  4  1  0  0  0  0
  3  1  2  0  0  0  0
  4 12  1  0  0  0  0
  5  4  1  0  0  0  0
  6 15  1  6  0  0  0
  6  2  1  0  0  0  0
  6  5  1  0  0  0  0
  7 10  1  0  0  0  0
  8  7  2  0  0  0  0
  9 11  1  0  0  0  0
 11 14  1  0  0  0  0
 11 10  2  0  0  0  0
 12  9  2  0  0  0  0
 12  8  1  0  0  0  0
 13 14  1  0  0  0  0
 16 15  1  0  0  0  0
 17 16  1  0  0  0  0
 18 17  1  1  0  0  0
 18 20  1  0  0  0  0
 18 19  1  0  0  0  0
 20 19  1  0  0  0  0
 21 19  1  0  0  0  0
 21 22  1  0  0  0  0
 22 23  1  0  0  0  0
 24 23  1  0  0  0  0
 25 24  1  0  0  0  0
 25 26  1  0  0  0  0
 27 26  1  0  0  0  0
 27 29  1  0  0  0  0
 29 28  1  0  0  0  0
 30 31  1  0  0  0  0
 30  1  1  0  0  0  0
 31 32  1  0  0  0  0
 32 33  1  0  0  0  0
 33 34  1  0  0  0  0
 34 35  1  0  0  0  0
 35 36  1  0  0  0  0
 36 39  1  0  0  0  0
 38 40  2  0  0  0  0
 38 37  1  0  0  0  0
 39 38  1  0  0  0  0
M  END
>  <MODEL>
6

>  <REMARK>
 VINA RESULT:      -6.5      2.991      8.584
  Name = 
  22 active torsions:
  status: ('A' for Active; 'I' for Inactive)
    1  A    between atoms: O_1  and  C_8
    2  A    between atoms: O_1  and  C_22
    3  A    between atoms: C_2  and  O_4
    4  A    between atoms: C_2  and  C_8
    5  A    between atoms: N_3  and  C_26
    6  A    between atoms: N_3  and  N_27
    7  A    between atoms: O_4  and  C_19
    8  A    between atoms: C_5  and  C_20
    9  A    between atoms: C_7  and  C_40
   10  A    between atoms: C_16  and  N_17
   11  A    between atoms: C_16  and  C_26
   12  A    between atoms: N_17  and  C_31
   13  A    between atoms: C_18  and  C_35
   14  A    between atoms: C_19  and  C_24
   15  A    between atoms: C_20  and  C_28
   16  A    between atoms: C_22  and  N_32
   17  A    between atoms: C_25  and  C_37
   18  A    between atoms: C_25  and  C_38
   19  A    between atoms: C_28  and  C_31
   20  A    between atoms: N_29  and  C_39
   21  A    between atoms: N_32  and  N_33
   22  A    between atoms: C_37  and  C_40
                            x       y       z     vdW  Elec       q    Type
                         _______ _______ _______ _____ _____    ______ ____

>  <TORSDO>
F 22

$$$$
=
 OpenBabel10222415413D

 40 42  0  0  1  0  0  0  0  0999 V2000
  188.4090  177.9630  141.6990 C   0  0  0  0  0  3  0  0  0  0  0  0
  186.1240  178.6470  141.6360 O   0  0  0  0  0  0  0  0  0  0  0  0
  187.2090  178.1100  142.2560 C   0  0  0  0  0  0  0  0  0  0  0  0
  186.8410  177.7260  143.5640 N   0  0  0  0  0  0  0  0  0  0  0  0
  185.4940  177.8730  143.7220 O   0  0  0  0  0  0  0  0  0  0  0  0
  185.0750  178.6490  142.5990 C   0  0  2  0  0  3  0  0  0  0  0  0
  188.0310  177.6860  147.1100 C   0  0  0  0  0  3  0  0  0  0  0  0
  187.2010  177.7970  145.9910 C   0  0  0  0  0  3  0  0  0  0  0  0
  189.0800  177.3070  144.5510 C   0  0  0  0  0  3  0  0  0  0  0  0
  189.3850  177.3850  146.9510 C   0  0  0  0  0  3  0  0  0  0  0  0
  189.9100  177.1920  145.6690 C   0  0  0  0  0  0  0  0  0  0  0  0
  187.7170  177.6100  144.7000 C   0  0  0  0  0  0  0  0  0  0  0  0
  191.9810  176.7030  146.7910 N   0  0  0  0  0  1  0  0  0  0  0  0
  191.3560  176.8880  145.4930 C   0  0  0  0  0  2  0  0  0  0  0  0
  183.8070  178.0540  142.0030 C   0  0  0  0  0  2  0  0  0  0  0  0
  182.6550  179.0410  142.0870 C   0  0  0  0  0  2  0  0  0  0  0  0
  182.0340  179.0150  143.4710 C   0  0  0  0  0  2  0  0  0  0  0  0
  180.5380  178.8100  143.3530 C   0  0  2  0  0  3  0  0  0  0  0  0
  180.1690  178.7500  141.9320 N   0  0  0  0  0  0  0  0  0  0  0  0
  179.9350  179.9730  142.7150 C   0  0  0  0  0  2  0  0  0  0  0  0
  178.9430  178.0730  141.8680 N   0  0  0  0  0  2  0  0  0  0  0  0
  179.0480  177.0950  140.7970 C   0  0  0  0  0  2  0  0  0  0  0  0
  180.3640  177.0390  140.3380 O   0  0  0  0  0  0  0  0  0  0  0  0
  180.5660  175.6980  140.0080 C   0  0  0  0  0  2  0  0  0  0  0  0
  181.7360  175.5770  139.0510 C   0  0  0  0  0  2  0  0  0  0  0  0
  181.3350  174.9060  137.8950 O   0  0  0  0  0  0  0  0  0  0  0  0
  181.3740  175.8760  136.8940 C   0  0  0  0  0  2  0  0  0  0  0  0
  182.6010  177.8470  136.3380 O   0  0  0  0  0  1  0  0  0  0  0  0
  182.7190  176.5760  136.9050 C   0  0  0  0  0  2  0  0  0  0  0  0
  188.6700  178.3950  140.3000 C   0  0  0  0  0  2  0  0  0  0  0  0
  189.0210  177.1880  139.4560 C   0  0  0  0  0  2  0  0  0  0  0  0
  190.4080  176.7050  139.8270 C   0  0  0  0  0  2  0  0  0  0  0  0
  190.9360  175.8780  138.7550 N   0  0  0  0  0  2  0  0  0  0  0  0
  192.2500  176.3990  138.4140 C   0  0  0  0  0  2  0  0  0  0  0  0
  192.7770  175.7320  137.1510 C   0  0  0  0  0  2  0  0  0  0  0  0
  193.6720  174.6420  137.5020 N   0  0  0  0  0  2  0  0  0  0  0  0
  195.4240  173.1740  139.1030 O   0  0  0  0  0  0  0  0  0  0  0  0
  195.6190  174.4140  138.9920 C   0  0  0  0  0  0  0  0  0  0  0  0
  194.7510  175.2140  138.1910 N   0  0  0  0  0  2  0  0  0  0  0  0
  196.6860  175.0070  139.6540 O   0  0  0  0  0  1  0  0  0  0  0  0
  1  3  2  0  0  0  0
  2  3  1  0  0  0  0
  2  6  1  0  0  0  0
  3  4  1  0  0  0  0
  4  5  1  0  0  0  0
  4 12  1  0  0  0  0
  6 15  1  6  0  0  0
  6  5  1  0  0  0  0
  8  7  2  0  0  0  0
  9 12  2  0  0  0  0
  9 11  1  0  0  0  0
 10  7  1  0  0  0  0
 11 10  2  0  0  0  0
 12  8  1  0  0  0  0
 14 11  1  0  0  0  0
 14 13  1  0  0  0  0
 15 16  1  0  0  0  0
 16 17  1  0  0  0  0
 18 17  1  6  0  0  0
 19 20  1  0  0  0  0
 19 18  1  0  0  0  0
 20 18  1  0  0  0  0
 21 19  1  0  0  0  0
 22 21  1  0  0  0  0
 23 22  1  0  0  0  0
 24 23  1  0  0  0  0
 25 24  1  0  0  0  0
 26 25  1  0  0  0  0
 27 29  1  0  0  0  0
 27 26  1  0  0  0  0
 28 29  1  0  0  0  0
 30  1  1  0  0  0  0
 31 32  1  0  0  0  0
 31 30  1  0  0  0  0
 33 32  1  0  0  0  0
 34 33  1  0  0  0  0
 35 36  1  0  0  0  0
 35 34  1  0  0  0  0
 36 39  1  0  0  0  0
 38 37  2  0  0  0  0
 38 40  1  0  0  0  0
 39 38  1  0  0  0  0
M  END
>  <MODEL>
7

>  <REMARK>
 VINA RESULT:      -6.4      2.750      3.389
  Name = 
  22 active torsions:
  status: ('A' for Active; 'I' for Inactive)
    1  A    between atoms: O_1  and  C_8
    2  A    between atoms: O_1  and  C_22
    3  A    between atoms: C_2  and  O_4
    4  A    between atoms: C_2  and  C_8
    5  A    between atoms: N_3  and  C_26
    6  A    between atoms: N_3  and  N_27
    7  A    between atoms: O_4  and  C_19
    8  A    between atoms: C_5  and  C_20
    9  A    between atoms: C_7  and  C_40
   10  A    between atoms: C_16  and  N_17
   11  A    between atoms: C_16  and  C_26
   12  A    between atoms: N_17  and  C_31
   13  A    between atoms: C_18  and  C_35
   14  A    between atoms: C_19  and  C_24
   15  A    between atoms: C_20  and  C_28
   16  A    between atoms: C_22  and  N_32
   17  A    between atoms: C_25  and  C_37
   18  A    between atoms: C_25  and  C_38
   19  A    between atoms: C_28  and  C_31
   20  A    between atoms: N_29  and  C_39
   21  A    between atoms: N_32  and  N_33
   22  A    between atoms: C_37  and  C_40
                            x       y       z     vdW  Elec       q    Type
                         _______ _______ _______ _____ _____    ______ ____

>  <TORSDO>
F 22

$$$$
=
 OpenBabel10222415413D

 40 42  0  0  1  0  0  0  0  0999 V2000
  186.7420  177.1870  143.9730 C   0  0  0  0  0  3  0  0  0  0  0  0
  187.8700  178.1850  142.1230 O   0  0  0  0  0  0  0  0  0  0  0  0
  186.7490  177.8130  142.7990 C   0  0  0  0  0  0  0  0  0  0  0  0
  185.6180  178.1840  142.0400 N   0  0  0  0  0  0  0  0  0  0  0  0
  186.0150  178.6460  140.8200 O   0  0  0  0  0  0  0  0  0  0  0  0
  187.4230  178.8520  140.9470 C   0  0  2  0  0  3  0  0  0  0  0  0
  182.8670  179.0470  144.4250 C   0  0  0  0  0  3  0  0  0  0  0  0
  184.1360  178.7710  143.9070 C   0  0  0  0  0  3  0  0  0  0  0  0
  183.1680  178.4290  141.7180 C   0  0  0  0  0  3  0  0  0  0  0  0
  181.7490  179.0140  143.5900 C   0  0  0  0  0  3  0  0  0  0  0  0
  181.9000  178.7080  142.2340 C   0  0  0  0  0  0  0  0  0  0  0  0
  184.3000  178.4590  142.5490 C   0  0  0  0  0  0  0  0  0  0  0  0
  179.5800  178.0920  142.0650 N   0  0  0  0  0  1  0  0  0  0  0  0
  180.7090  178.6550  141.3430 C   0  0  0  0  0  2  0  0  0  0  0  0
  188.1390  178.3030  139.7210 C   0  0  0  0  0  2  0  0  0  0  0  0
  189.3620  177.4970  140.1230 C   0  0  0  0  0  2  0  0  0  0  0  0
  190.4180  177.5570  139.0360 C   0  0  0  0  0  2  0  0  0  0  0  0
  190.9450  176.1650  138.7620 C   0  0  2  0  0  3  0  0  0  0  0  0
  191.3640  176.0750  137.3550 N   0  0  0  0  0  0  0  0  0  0  0  0
  190.0840  175.4990  137.7940 C   0  0  0  0  0  2  0  0  0  0  0  0
  192.2770  175.0140  137.2800 N   0  0  0  0  0  2  0  0  0  0  0  0
  193.3530  175.4350  136.3960 C   0  0  0  0  0  2  0  0  0  0  0  0
  194.5110  175.6610  137.1400 O   0  0  0  0  0  0  0  0  0  0  0  0
  195.2680  174.5010  136.9770 C   0  0  0  0  0  2  0  0  0  0  0  0
  195.9760  174.1650  138.2750 C   0  0  0  0  0  2  0  0  0  0  0  0
  195.9260  175.2600  139.1390 O   0  0  0  0  0  0  0  0  0  0  0  0
  196.6760  174.8690  140.2470 C   0  0  0  0  0  2  0  0  0  0  0  0
  198.3790  175.6270  138.7550 O   0  0  0  0  0  1  0  0  0  0  0  0
  198.1080  175.3450  140.0950 C   0  0  0  0  0  2  0  0  0  0  0  0
  188.0080  176.8340  144.6700 C   0  0  0  0  0  2  0  0  0  0  0  0
  188.3890  177.9490  145.6200 C   0  0  0  0  0  2  0  0  0  0  0  0
  188.2940  177.4460  147.0450 C   0  0  0  0  0  2  0  0  0  0  0  0
  189.6050  177.5100  147.6700 N   0  0  0  0  0  2  0  0  0  0  0  0
  190.1270  176.1540  147.7190 C   0  0  0  0  0  2  0  0  0  0  0  0
  191.5540  176.1110  147.1900 C   0  0  0  0  0  2  0  0  0  0  0  0
  191.7580  177.1800  146.2270 N   0  0  0  0  0  2  0  0  0  0  0  0
  191.6360  178.6530  143.8600 O   0  0  0  0  0  1  0  0  0  0  0  0
  191.6360  177.3960  143.7770 C   0  0  0  0  0  0  0  0  0  0  0  0
  191.6910  176.5940  144.9550 N   0  0  0  0  0  2  0  0  0  0  0  0
  191.5840  176.7860  142.5310 O   0  0  0  0  0  0  0  0  0  0  0  0
  1 30  1  0  0  0  0
  2  3  1  0  0  0  0
  3  1  2  0  0  0  0
  4 12  1  0  0  0  0
  4  3  1  0  0  0  0
  5  6  1  0  0  0  0
  5  4  1  0  0  0  0
  6 15  1  6  0  0  0
  6  2  1  0  0  0  0
  8  7  1  0  0  0  0
  9 11  2  0  0  0  0
  9 12  1  0  0  0  0
 10  7  2  0  0  0  0
 11 10  1  0  0  0  0
 12  8  2  0  0  0  0
 14 13  1  0  0  0  0
 14 11  1  0  0  0  0
 15 16  1  0  0  0  0
 17 16  1  0  0  0  0
 18 17  1  6  0  0  0
 19 20  1  0  0  0  0
 19 18  1  0  0  0  0
 20 18  1  0  0  0  0
 21 19  1  0  0  0  0
 22 23  1  0  0  0  0
 22 21  1  0  0  0  0
 24 23  1  0  0  0  0
 24 25  1  0  0  0  0
 25 26  1  0  0  0  0
 26 27  1  0  0  0  0
 28 29  1  0  0  0  0
 29 27  1  0  0  0  0
 30 31  1  0  0  0  0
 31 32  1  0  0  0  0
 32 33  1  0  0  0  0
 33 34  1  0  0  0  0
 35 34  1  0  0  0  0
 36 35  1  0  0  0  0
 38 37  1  0  0  0  0
 38 39  1  0  0  0  0
 39 36  1  0  0  0  0
 40 38  2  0  0  0  0
M  END
>  <MODEL>
8

>  <REMARK>
 VINA RESULT:      -6.3      3.577      9.584
  Name = 
  22 active torsions:
  status: ('A' for Active; 'I' for Inactive)
    1  A    between atoms: O_1  and  C_8
    2  A    between atoms: O_1  and  C_22
    3  A    between atoms: C_2  and  O_4
    4  A    between atoms: C_2  and  C_8
    5  A    between atoms: N_3  and  C_26
    6  A    between atoms: N_3  and  N_27
    7  A    between atoms: O_4  and  C_19
    8  A    between atoms: C_5  and  C_20
    9  A    between atoms: C_7  and  C_40
   10  A    between atoms: C_16  and  N_17
   11  A    between atoms: C_16  and  C_26
   12  A    between atoms: N_17  and  C_31
   13  A    between atoms: C_18  and  C_35
   14  A    between atoms: C_19  and  C_24
   15  A    between atoms: C_20  and  C_28
   16  A    between atoms: C_22  and  N_32
   17  A    between atoms: C_25  and  C_37
   18  A    between atoms: C_25  and  C_38
   19  A    between atoms: C_28  and  C_31
   20  A    between atoms: N_29  and  C_39
   21  A    between atoms: N_32  and  N_33
   22  A    between atoms: C_37  and  C_40
                            x       y       z     vdW  Elec       q    Type
                         _______ _______ _______ _____ _____    ______ ____

>  <TORSDO>
F 22

$$$$
=
 OpenBabel10222415413D

 40 42  0  0  1  0  0  0  0  0999 V2000
  188.2800  177.8620  141.6890 C   0  0  0  0  0  3  0  0  0  0  0  0
  186.0720  178.7640  141.6460 O   0  0  0  0  0  0  0  0  0  0  0  0
  187.1100  178.1360  142.2610 C   0  0  0  0  0  0  0  0  0  0  0  0
  186.7280  177.8150  143.5810 N   0  0  0  0  0  0  0  0  0  0  0  0
  185.4050  178.0950  143.7570 O   0  0  0  0  0  0  0  0  0  0  0  0
  185.0450  178.8870  142.6240 C   0  0  2  0  0  3  0  0  0  0  0  0
  187.9160  177.5040  147.1150 C   0  0  0  0  0  3  0  0  0  0  0  0
  187.0830  177.6790  146.0060 C   0  0  0  0  0  3  0  0  0  0  0  0
  188.9840  177.4100  144.5370 C   0  0  0  0  0  3  0  0  0  0  0  0
  189.2830  177.2810  146.9350 C   0  0  0  0  0  3  0  0  0  0  0  0
  189.8170  177.2300  145.6440 C   0  0  0  0  0  0  0  0  0  0  0  0
  187.6080  177.6350  144.7060 C   0  0  0  0  0  0  0  0  0  0  0  0
  191.6120  177.1720  144.0440 N   0  0  0  0  0  1  0  0  0  0  0  0
  191.2760  177.0100  145.4480 C   0  0  0  0  0  2  0  0  0  0  0  0
  183.7150  178.4080  142.0600 C   0  0  0  0  0  2  0  0  0  0  0  0
  183.7600  178.3490  140.5430 C   0  0  0  0  0  2  0  0  0  0  0  0
  182.9670  177.1600  140.0340 C   0  0  0  0  0  2  0  0  0  0  0  0
  183.4530  176.7770  138.6530 C   0  0  2  0  0  3  0  0  0  0  0  0
  183.9630  177.9760  137.9710 N   0  0  0  0  0  0  0  0  0  0  0  0
  182.6330  177.4380  137.6470 C   0  0  0  0  0  2  0  0  0  0  0  0
  184.8340  177.5230  136.9710 N   0  0  0  0  0  2  0  0  0  0  0  0
  186.1880  177.6650  137.4830 C   0  0  0  0  0  2  0  0  0  0  0  0
  186.9370  176.5370  137.1500 O   0  0  0  0  0  0  0  0  0  0  0  0
  187.6000  176.8870  135.9740 C   0  0  0  0  0  2  0  0  0  0  0  0
  188.0500  175.6350  135.2470 C   0  0  0  0  0  2  0  0  0  0  0  0
  187.5760  174.5040  135.9130 O   0  0  0  0  0  0  0  0  0  0  0  0
  188.3150  173.4470  135.3830 C   0  0  0  0  0  2  0  0  0  0  0  0
  189.6340  173.3520  137.3700 O   0  0  0  0  0  1  0  0  0  0  0  0
  189.7090  173.4420  135.9790 C   0  0  0  0  0  2  0  0  0  0  0  0
  188.5580  178.2390  140.2770 C   0  0  0  0  0  2  0  0  0  0  0  0
  189.9710  177.8350  139.9150 C   0  0  0  0  0  2  0  0  0  0  0  0
  189.9280  176.6210  139.0100 C   0  0  0  0  0  2  0  0  0  0  0  0
  190.9020  176.7780  137.9430 N   0  0  0  0  0  2  0  0  0  0  0  0
  191.8920  175.7250  138.1040 C   0  0  0  0  0  2  0  0  0  0  0  0
  193.0730  175.9550  137.1700 C   0  0  0  0  0  2  0  0  0  0  0  0
  194.0530  174.8950  137.3400 N   0  0  0  0  0  2  0  0  0  0  0  0
  195.5150  173.2100  139.0160 O   0  0  0  0  0  0  0  0  0  0  0  0
  195.7120  174.4510  139.1050 C   0  0  0  0  0  0  0  0  0  0  0  0
  194.9880  175.3590  138.2770 N   0  0  0  0  0  2  0  0  0  0  0  0
  196.6400  174.9400  140.0150 O   0  0  0  0  0  1  0  0  0  0  0  0
  1  3  2  0  0  0  0
  2  3  1  0  0  0  0
  2  6  1  0  0  0  0
  3  4  1  0  0  0  0
  4  5  1  0  0  0  0
  4 12  1  0  0  0  0
  6 15  1  6  0  0  0
  6  5  1  0  0  0  0
  8  7  2  0  0  0  0
  9 12  2  0  0  0  0
  9 11  1  0  0  0  0
 10  7  1  0  0  0  0
 11 10  2  0  0  0  0
 12  8  1  0  0  0  0
 13 14  1  0  0  0  0
 14 11  1  0  0  0  0
 16 15  1  0  0  0  0
 17 16  1  0  0  0  0
 18 17  1  1  0  0  0
 19 18  1  0  0  0  0
 20 19  1  0  0  0  0
 20 18  1  0  0  0  0
 21 22  1  0  0  0  0
 21 19  1  0  0  0  0
 23 22  1  0  0  0  0
 24 23  1  0  0  0  0
 25 26  1  0  0  0  0
 25 24  1  0  0  0  0
 27 26  1  0  0  0  0
 27 29  1  0  0  0  0
 29 28  1  0  0  0  0
 30  1  1  0  0  0  0
 31 30  1  0  0  0  0
 32 31  1  0  0  0  0
 33 34  1  0  0  0  0
 33 32  1  0  0  0  0
 35 36  1  0  0  0  0
 35 34  1  0  0  0  0
 36 39  1  0  0  0  0
 37 38  2  0  0  0  0
 38 40  1  0  0  0  0
 39 38  1  0  0  0  0
M  END
>  <MODEL>
9

>  <REMARK>
 VINA RESULT:      -6.3      3.291      4.994
  Name = 
  22 active torsions:
  status: ('A' for Active; 'I' for Inactive)
    1  A    between atoms: O_1  and  C_8
    2  A    between atoms: O_1  and  C_22
    3  A    between atoms: C_2  and  O_4
    4  A    between atoms: C_2  and  C_8
    5  A    between atoms: N_3  and  C_26
    6  A    between atoms: N_3  and  N_27
    7  A    between atoms: O_4  and  C_19
    8  A    between atoms: C_5  and  C_20
    9  A    between atoms: C_7  and  C_40
   10  A    between atoms: C_16  and  N_17
   11  A    between atoms: C_16  and  C_26
   12  A    between atoms: N_17  and  C_31
   13  A    between atoms: C_18  and  C_35
   14  A    between atoms: C_19  and  C_24
   15  A    between atoms: C_20  and  C_28
   16  A    between atoms: C_22  and  N_32
   17  A    between atoms: C_25  and  C_37
   18  A    between atoms: C_25  and  C_38
   19  A    between atoms: C_28  and  C_31
   20  A    between atoms: N_29  and  C_39
   21  A    between atoms: N_32  and  N_33
   22  A    between atoms: C_37  and  C_40
                            x       y       z     vdW  Elec       q    Type
                         _______ _______ _______ _____ _____    ______ ____

>  <TORSDO>
F 22

$$$$
