=
 OpenBabel10222415173D

 43 45  0  0  1  0  0  0  0  0999 V2000
  186.7580  178.2740  142.4920 N   0  0  0  0  0  0  0  0  0  0  0  0
  187.1700  178.5400  140.2200 O   0  0  0  0  0  0  0  0  0  0  0  0
  186.3520  178.6420  141.1650 C   0  0  0  0  0  0  0  0  0  0  0  0
  184.8240  178.8930  145.5230 C   0  0  0  0  0  2  0  0  0  0  0  0
  185.2150  179.2840  144.1140 C   0  0  0  0  0  2  0  0  0  0  0  0
  185.7620  178.0070  143.5380 C   0  0  2  0  0  3  0  0  0  0  0  0
  185.6990  177.8010  145.9510 N   0  0  0  0  0  0  0  0  0  0  0  0
  186.3190  177.2620  144.7390 C   0  0  0  0  0  2  0  0  0  0  0  0
  186.7690  178.3880  146.7490 C   0  0  0  0  0  2  0  0  0  0  0  0
  188.0940  177.7150  146.4550 C   0  0  0  0  0  2  0  0  0  0  0  0
  188.7070  177.1680  147.7330 C   0  0  1  0  0  3  0  0  0  0  0  0
  190.1540  177.1870  147.6350 N   0  0  0  0  0  1  0  0  0  0  0  0
  188.2670  178.0220  148.8990 C   0  0  0  0  0  1  0  0  0  0  0  0
  188.1890  178.0470  142.7390 C   0  0  0  0  0  2  0  0  0  0  0  0
  188.4980  176.5550  142.7350 C   0  0  0  0  0  2  0  0  0  0  0  0
  189.7510  176.3030  141.9390 C   0  0  0  0  0  2  0  0  0  0  0  0
  190.7530  177.3130  142.2540 N   0  0  0  0  0  0  0  0  0  0  0  0
  191.5530  176.8850  143.4080 C   0  0  0  0  0  2  0  0  0  0  0  0
  191.6190  177.9290  144.5260 C   0  0  0  0  0  2  0  0  0  0  0  0
  191.2080  179.2820  143.9840 C   0  0  0  0  0  1  0  0  0  0  0  0
  191.6180  177.4720  141.0870 C   0  0  0  0  0  2  0  0  0  0  0  0
  190.8870  177.1120  139.8710 C   0  0  0  0  0  0  0  0  0  0  0  0
  190.2820  176.8290  138.8670 C   0  0  0  0  0  0  0  0  0  0  0  0
  189.5850  176.5020  137.6990 N   0  0  0  0  0  2  0  0  0  0  0  0
  189.5480  177.4270  136.5690 C   0  0  1  0  0  3  0  0  0  0  0  0
  189.2490  176.7370  135.3630 O   0  0  0  0  0  0  0  0  0  0  0  0
  188.9810  179.5630  137.7570 O   0  0  0  0  0  1  0  0  0  0  0  0
  187.8790  176.3920  135.3590 C   0  0  0  0  0  2  0  0  0  0  0  0
  185.6850  177.3420  135.3530 O   0  0  0  0  0  1  0  0  0  0  0  0
  188.6180  178.5900  136.8380 C   0  0  0  0  0  0  0  0  0  0  0  0
  187.4340  178.6670  136.2320 C   0  0  0  0  0  3  0  0  0  0  0  0
  187.0340  177.6560  135.2040 C   0  0  1  0  0  3  0  0  0  0  0  0
  185.0100  179.2430  140.8700 C   0  0  0  0  0  2  0  0  0  0  0  0
  184.0640  178.3270  140.0900 C   0  0  0  0  0  2  0  0  0  0  0  0
  181.5190  179.5350  137.5050 O   0  0  0  0  0  0  0  0  0  0  0  0
  181.0030  177.3580  140.3300 C   0  0  2  0  0  3  0  0  0  0  0  0
  182.7350  178.8910  139.7760 N   0  0  0  0  0  0  0  0  0  0  0  0
  182.2980  178.3490  141.9540 F   0  0  0  0  0  0  0  0  0  0  0  0
  180.8570  177.3000  138.8180 C   0  0  0  0  0  2  0  0  0  0  0  0
  179.6220  177.3720  140.9620 C   0  0  0  0  0  1  0  0  0  0  0  0
  182.1110  178.3730  138.2550 S   0  0  0  0  0  0  0  0  0  0  0  0
  181.7430  178.5660  140.7360 N   0  0  0  0  0  0  0  0  0  0  0  0
  183.1400  177.6740  137.4150 O   0  0  0  0  0  0  0  0  0  0  0  0
  1 14  1  0  0  0  0
  2  3  2  0  0  0  0
  3  1  1  0  0  0  0
  4  7  1  0  0  0  0
  5  4  1  0  0  0  0
  6  1  1  6  0  0  0
  6  5  1  0  0  0  0
  6  8  1  0  0  0  0
  7  9  1  0  0  0  0
  8  7  1  0  0  0  0
 10  9  1  0  0  0  0
 10 11  1  0  0  0  0
 11 13  1  1  0  0  0
 12 11  1  0  0  0  0
 15 14  1  0  0  0  0
 16 17  1  0  0  0  0
 16 15  1  0  0  0  0
 17 18  1  0  0  0  0
 18 19  1  0  0  0  0
 20 19  1  0  0  0  0
 21 17  1  0  0  0  0
 22 21  1  0  0  0  0
 23 22  3  0  0  0  0
 24 23  1  0  0  0  0
 25 30  1  0  0  0  0
 25 24  1  1  0  0  0
 26 25  1  0  0  0  0
 28 26  1  0  0  0  0
 30 27  1  0  0  0  0
 31 30  2  0  0  0  0
 32 29  1  1  0  0  0
 32 28  1  0  0  0  0
 32 31  1  0  0  0  0
 33  3  1  0  0  0  0
 34 33  1  0  0  0  0
 35 41  2  0  0  0  0
 36 42  1  0  0  0  0
 36 40  1  1  0  0  0
 37 34  1  0  0  0  0
 37 42  1  0  0  0  0
 39 36  1  0  0  0  0
 41 39  1  0  0  0  0
 41 37  1  0  0  0  0
 42 38  1  0  0  0  0
 43 41  2  0  0  0  0
M  END
>  <MODEL>
1

>  <REMARK>
 VINA RESULT:      -7.5      0.000      0.000
  Name = 
  17 active torsions:
  status: ('A' for Active; 'I' for Inactive)
    1  A    between atoms: C_1  and  C_10
    2  A    between atoms: C_2  and  C_24
    3  A    between atoms: C_2  and  C_32
    4  A    between atoms: C_3  and  N_40
    5  A    between atoms: C_5  and  C_26
    6  A    between atoms: C_5  and  N_30
    7  A    between atoms: C_6  and  C_36
    8  A    between atoms: C_6  and  N_38
    9  A    between atoms: C_7  and  N_8
   10  A    between atoms: C_7  and  C_26
   11  A    between atoms: N_8  and  C_27
   12  A    between atoms: C_10  and  N_30
   13  A    between atoms: C_14  and  C_36
   14  A    between atoms: C_15  and  N_40
   15  A    between atoms: C_19  and  C_22
   16  A    between atoms: N_21  and  C_24
   17  A    between atoms: C_22  and  N_30
                            x       y       z     vdW  Elec       q    Type
                         _______ _______ _______ _____ _____    ______ ____

>  <TORSDO>
F 17

$$$$
=
 OpenBabel10222415173D

 43 45  0  0  1  0  0  0  0  0999 V2000
  189.3950  177.8360  140.8220 N   0  0  0  0  0  0  0  0  0  0  0  0
  188.8450  179.0490  138.9180 O   0  0  0  0  0  0  0  0  0  0  0  0
  189.3840  178.0240  139.3990 C   0  0  0  0  0  0  0  0  0  0  0  0
  190.7460  175.7040  143.4570 C   0  0  0  0  0  2  0  0  0  0  0  0
  189.6320  176.0490  142.4920 C   0  0  0  0  0  2  0  0  0  0  0  0
  190.3240  176.8860  141.4500 C   0  0  2  0  0  3  0  0  0  0  0  0
  191.7340  176.7830  143.4170 N   0  0  0  0  0  0  0  0  0  0  0  0
  191.4660  177.5500  142.1990 C   0  0  0  0  0  2  0  0  0  0  0  0
  191.4600  177.6660  144.5430 C   0  0  0  0  0  2  0  0  0  0  0  0
  190.8260  176.9030  145.6880 C   0  0  0  0  0  2  0  0  0  0  0  0
  189.6520  177.6800  146.2590 C   0  0  1  0  0  3  0  0  0  0  0  0
  188.4100  177.1860  145.6930 N   0  0  0  0  0  1  0  0  0  0  0  0
  189.6270  177.5100  147.7600 C   0  0  0  0  0  1  0  0  0  0  0  0
  188.5440  178.7090  141.6420 C   0  0  0  0  0  2  0  0  0  0  0  0
  187.0750  178.3590  141.4430 C   0  0  0  0  0  2  0  0  0  0  0  0
  186.4790  177.9220  142.7540 C   0  0  0  0  0  2  0  0  0  0  0  0
  185.0810  178.3280  142.8260 N   0  0  0  0  0  0  0  0  0  0  0  0
  184.9030  179.3320  143.8830 C   0  0  0  0  0  2  0  0  0  0  0  0
  184.3580  178.7510  145.1900 C   0  0  0  0  0  2  0  0  0  0  0  0
  185.3490  178.9940  146.3090 C   0  0  0  0  0  1  0  0  0  0  0  0
  184.7090  178.9020  141.5340 C   0  0  0  0  0  2  0  0  0  0  0  0
  183.3090  178.5950  141.2370 C   0  0  0  0  0  0  0  0  0  0  0  0
  182.1580  178.3440  140.9780 C   0  0  0  0  0  0  0  0  0  0  0  0
  180.8250  178.0470  140.6760 N   0  0  0  0  0  2  0  0  0  0  0  0
  180.2600  178.3930  139.3750 C   0  0  1  0  0  3  0  0  0  0  0  0
  179.4480  179.5550  139.4700 O   0  0  0  0  0  0  0  0  0  0  0  0
  181.9670  177.3560  137.8570 O   0  0  0  0  0  1  0  0  0  0  0  0
  180.2810  180.6870  139.6110 C   0  0  0  0  0  2  0  0  0  0  0  0
  181.9590  181.9580  138.4780 O   0  0  0  0  0  1  0  0  0  0  0  0
  181.3370  178.5010  138.3170 C   0  0  0  0  0  0  0  0  0  0  0  0
  181.7160  179.6920  137.8530 C   0  0  0  0  0  3  0  0  0  0  0  0
  181.0240  180.9410  138.3000 C   0  0  1  0  0  3  0  0  0  0  0  0
  189.9080  176.9920  138.4450 C   0  0  0  0  0  2  0  0  0  0  0  0
  188.9900  176.7060  137.2540 C   0  0  0  0  0  2  0  0  0  0  0  0
  185.3710  177.7570  137.9010 O   0  0  0  0  0  0  0  0  0  0  0  0
  186.6040  175.0660  135.8460 C   0  0  2  0  0  3  0  0  0  0  0  0
  187.5970  176.3440  137.5880 N   0  0  0  0  0  0  0  0  0  0  0  0
  188.3280  174.2290  137.1200 F   0  0  0  0  0  0  0  0  0  0  0  0
  185.7770  176.3290  135.6740 C   0  0  0  0  0  2  0  0  0  0  0  0
  185.7000  173.8550  135.6870 C   0  0  0  0  0  1  0  0  0  0  0  0
  186.4270  177.3980  136.8900 S   0  0  0  0  0  0  0  0  0  0  0  0
  187.2390  175.0350  137.1750 N   0  0  0  0  0  0  0  0  0  0  0  0
  187.0390  178.6380  136.3070 O   0  0  0  0  0  0  0  0  0  0  0  0
  1 14  1  0  0  0  0
  2  3  2  0  0  0  0
  3  1  1  0  0  0  0
  5  4  1  0  0  0  0
  6  1  1  1  0  0  0
  6  8  1  0  0  0  0
  6  5  1  0  0  0  0
  7  4  1  0  0  0  0
  7  9  1  0  0  0  0
  8  7  1  0  0  0  0
  9 10  1  0  0  0  0
 10 11  1  0  0  0  0
 11 13  1  1  0  0  0
 12 11  1  0  0  0  0
 15 14  1  0  0  0  0
 15 16  1  0  0  0  0
 16 17  1  0  0  0  0
 17 18  1  0  0  0  0
 18 19  1  0  0  0  0
 19 20  1  0  0  0  0
 21 17  1  0  0  0  0
 22 21  1  0  0  0  0
 23 22  3  0  0  0  0
 24 23  1  0  0  0  0
 25 26  1  0  0  0  0
 25 24  1  1  0  0  0
 26 28  1  0  0  0  0
 27 30  1  0  0  0  0
 30 25  1  0  0  0  0
 31 32  1  0  0  0  0
 31 30  2  0  0  0  0
 32 29  1  1  0  0  0
 32 28  1  0  0  0  0
 33  3  1  0  0  0  0
 34 37  1  0  0  0  0
 34 33  1  0  0  0  0
 36 40  1  1  0  0  0
 36 42  1  0  0  0  0
 38 42  1  0  0  0  0
 39 36  1  0  0  0  0
 39 41  1  0  0  0  0
 41 37  1  0  0  0  0
 41 35  2  0  0  0  0
 42 37  1  0  0  0  0
 43 41  2  0  0  0  0
M  END
>  <MODEL>
2

>  <REMARK>
 VINA RESULT:      -7.4      2.347      6.389
  Name = 
  17 active torsions:
  status: ('A' for Active; 'I' for Inactive)
    1  A    between atoms: C_1  and  C_10
    2  A    between atoms: C_2  and  C_24
    3  A    between atoms: C_2  and  C_32
    4  A    between atoms: C_3  and  N_40
    5  A    between atoms: C_5  and  C_26
    6  A    between atoms: C_5  and  N_30
    7  A    between atoms: C_6  and  C_36
    8  A    between atoms: C_6  and  N_38
    9  A    between atoms: C_7  and  N_8
   10  A    between atoms: C_7  and  C_26
   11  A    between atoms: N_8  and  C_27
   12  A    between atoms: C_10  and  N_30
   13  A    between atoms: C_14  and  C_36
   14  A    between atoms: C_15  and  N_40
   15  A    between atoms: C_19  and  C_22
   16  A    between atoms: N_21  and  C_24
   17  A    between atoms: C_22  and  N_30
                            x       y       z     vdW  Elec       q    Type
                         _______ _______ _______ _____ _____    ______ ____

>  <TORSDO>
F 17

$$$$
=
 OpenBabel10222415173D

 43 45  0  0  1  0  0  0  0  0999 V2000
  189.3420  177.8560  140.5630 N   0  0  0  0  0  0  0  0  0  0  0  0
  188.9850  179.2070  138.7060 O   0  0  0  0  0  0  0  0  0  0  0  0
  189.4910  178.1560  139.1660 C   0  0  0  0  0  0  0  0  0  0  0  0
  190.5930  175.7570  143.2730 C   0  0  0  0  0  2  0  0  0  0  0  0
  189.4890  176.1340  142.3090 C   0  0  0  0  0  2  0  0  0  0  0  0
  190.2160  176.8750  141.2200 C   0  0  2  0  0  3  0  0  0  0  0  0
  191.6510  176.7640  143.1690 N   0  0  0  0  0  0  0  0  0  0  0  0
  191.4140  177.4910  141.9210 C   0  0  0  0  0  2  0  0  0  0  0  0
  191.4570  177.7140  144.2570 C   0  0  0  0  0  2  0  0  0  0  0  0
  191.1020  176.9970  145.5440 C   0  0  0  0  0  2  0  0  0  0  0  0
  189.9560  177.7050  146.2470 C   0  0  1  0  0  3  0  0  0  0  0  0
  188.9390  178.0780  145.2810 N   0  0  0  0  0  1  0  0  0  0  0  0
  189.3580  176.7780  147.2780 C   0  0  0  0  0  1  0  0  0  0  0  0
  188.3810  178.6480  141.3420 C   0  0  0  0  0  2  0  0  0  0  0  0
  186.9560  178.3250  140.9140 C   0  0  0  0  0  2  0  0  0  0  0  0
  185.9850  179.0770  141.7840 C   0  0  0  0  0  2  0  0  0  0  0  0
  184.7280  178.3460  141.8760 N   0  0  0  0  0  0  0  0  0  0  0  0
  184.0410  178.6830  143.1290 C   0  0  0  0  0  2  0  0  0  0  0  0
  184.9950  179.0660  144.2630 C   0  0  0  0  0  2  0  0  0  0  0  0
  184.3490  178.7620  145.5980 C   0  0  0  0  0  1  0  0  0  0  0  0
  183.8950  178.7330  140.7380 C   0  0  0  0  0  2  0  0  0  0  0  0
  183.1150  177.5830  140.2770 C   0  0  0  0  0  0  0  0  0  0  0  0
  182.4830  176.6270  139.9030 C   0  0  0  0  0  0  0  0  0  0  0  0
  181.7470  175.5170  139.4750 N   0  0  0  0  0  2  0  0  0  0  0  0
  181.1750  175.4740  138.1320 C   0  0  1  0  0  3  0  0  0  0  0  0
  182.1880  175.6280  137.1470 O   0  0  0  0  0  0  0  0  0  0  0  0
  179.1060  174.1230  138.5700 O   0  0  0  0  0  1  0  0  0  0  0  0
  182.9340  174.4320  137.0640 C   0  0  0  0  0  2  0  0  0  0  0  0
  182.7470  172.1160  136.5000 O   0  0  0  0  0  1  0  0  0  0  0  0
  180.3320  174.2330  137.9310 C   0  0  0  0  0  0  0  0  0  0  0  0
  180.7740  173.2250  137.1800 C   0  0  0  0  0  3  0  0  0  0  0  0
  182.0720  173.3340  136.4430 C   0  0  1  0  0  3  0  0  0  0  0  0
  190.1470  177.2120  138.2040 C   0  0  0  0  0  2  0  0  0  0  0  0
  189.2440  176.7450  137.0600 C   0  0  0  0  0  2  0  0  0  0  0  0
  185.5560  177.4810  137.7480 O   0  0  0  0  0  0  0  0  0  0  0  0
  186.9970  174.8050  135.8130 C   0  0  2  0  0  3  0  0  0  0  0  0
  187.9010  176.2710  137.4530 N   0  0  0  0  0  0  0  0  0  0  0  0
  188.8220  174.2120  137.0820 F   0  0  0  0  0  0  0  0  0  0  0  0
  186.0480  175.9720  135.5940 C   0  0  0  0  0  2  0  0  0  0  0  0
  186.2110  173.5070  135.7470 C   0  0  0  0  0  1  0  0  0  0  0  0
  186.6180  177.1670  136.7290 S   0  0  0  0  0  0  0  0  0  0  0  0
  187.6620  174.9120  137.1240 N   0  0  0  0  0  0  0  0  0  0  0  0
  187.0940  178.4230  136.0610 O   0  0  0  0  0  0  0  0  0  0  0  0
  1 14  1  0  0  0  0
  2  3  2  0  0  0  0
  3  1  1  0  0  0  0
  5  4  1  0  0  0  0
  6  1  1  1  0  0  0
  6  8  1  0  0  0  0
  6  5  1  0  0  0  0
  7  4  1  0  0  0  0
  7  9  1  0  0  0  0
  8  7  1  0  0  0  0
  9 10  1  0  0  0  0
 10 11  1  0  0  0  0
 11 13  1  1  0  0  0
 12 11  1  0  0  0  0
 15 14  1  0  0  0  0
 15 16  1  0  0  0  0
 16 17  1  0  0  0  0
 17 18  1  0  0  0  0
 18 19  1  0  0  0  0
 19 20  1  0  0  0  0
 21 17  1  0  0  0  0
 22 21  1  0  0  0  0
 23 22  3  0  0  0  0
 24 23  1  0  0  0  0
 25 24  1  1  0  0  0
 26 25  1  0  0  0  0
 28 26  1  0  0  0  0
 30 25  1  0  0  0  0
 30 27  1  0  0  0  0
 31 30  2  0  0  0  0
 32 29  1  1  0  0  0
 32 28  1  0  0  0  0
 32 31  1  0  0  0  0
 33  3  1  0  0  0  0
 34 37  1  0  0  0  0
 34 33  1  0  0  0  0
 36 40  1  1  0  0  0
 36 42  1  0  0  0  0
 38 42  1  0  0  0  0
 39 36  1  0  0  0  0
 39 41  1  0  0  0  0
 41 37  1  0  0  0  0
 41 35  2  0  0  0  0
 42 37  1  0  0  0  0
 43 41  2  0  0  0  0
M  END
>  <MODEL>
3

>  <REMARK>
 VINA RESULT:      -7.3      2.820      6.456
  Name = 
  17 active torsions:
  status: ('A' for Active; 'I' for Inactive)
    1  A    between atoms: C_1  and  C_10
    2  A    between atoms: C_2  and  C_24
    3  A    between atoms: C_2  and  C_32
    4  A    between atoms: C_3  and  N_40
    5  A    between atoms: C_5  and  C_26
    6  A    between atoms: C_5  and  N_30
    7  A    between atoms: C_6  and  C_36
    8  A    between atoms: C_6  and  N_38
    9  A    between atoms: C_7  and  N_8
   10  A    between atoms: C_7  and  C_26
   11  A    between atoms: N_8  and  C_27
   12  A    between atoms: C_10  and  N_30
   13  A    between atoms: C_14  and  C_36
   14  A    between atoms: C_15  and  N_40
   15  A    between atoms: C_19  and  C_22
   16  A    between atoms: N_21  and  C_24
   17  A    between atoms: C_22  and  N_30
                            x       y       z     vdW  Elec       q    Type
                         _______ _______ _______ _____ _____    ______ ____

>  <TORSDO>
F 17

$$$$
=
 OpenBabel10222415173D

 43 45  0  0  1  0  0  0  0  0999 V2000
  189.8590  176.2120  137.5360 N   0  0  0  0  0  0  0  0  0  0  0  0
  191.4180  175.3430  139.0250 O   0  0  0  0  0  0  0  0  0  0  0  0
  191.1500  175.6650  137.8430 C   0  0  0  0  0  0  0  0  0  0  0  0
  188.1980  177.5890  134.5940 C   0  0  0  0  0  2  0  0  0  0  0  0
  189.3110  177.6460  135.6180 C   0  0  0  0  0  2  0  0  0  0  0  0
  189.3610  176.2410  136.1540 C   0  0  2  0  0  3  0  0  0  0  0  0
  187.2490  176.5550  135.0090 N   0  0  0  0  0  0  0  0  0  0  0  0
  187.9390  175.7310  136.0040 C   0  0  0  0  0  2  0  0  0  0  0  0
  186.1520  177.2220  135.6990 C   0  0  0  0  0  2  0  0  0  0  0  0
  185.8620  176.5540  137.0270 C   0  0  0  0  0  2  0  0  0  0  0  0
  185.4460  177.5870  138.0610 C   0  0  1  0  0  3  0  0  0  0  0  0
  186.2580  178.7810  137.9210 N   0  0  0  0  0  1  0  0  0  0  0  0
  183.9910  177.9370  137.8550 C   0  0  0  0  0  1  0  0  0  0  0  0
  188.9990  176.6250  138.6540 C   0  0  0  0  0  2  0  0  0  0  0  0
  189.6480  177.7630  139.4310 C   0  0  0  0  0  2  0  0  0  0  0  0
  189.0940  177.7990  140.8300 C   0  0  0  0  0  2  0  0  0  0  0  0
  190.0600  177.2340  141.7630 N   0  0  0  0  0  0  0  0  0  0  0  0
  190.4190  178.2310  142.7800 C   0  0  0  0  0  2  0  0  0  0  0  0
  191.7400  177.9270  143.4920 C   0  0  0  0  0  2  0  0  0  0  0  0
  191.4730  177.6040  144.9460 C   0  0  0  0  0  1  0  0  0  0  0  0
  189.4450  176.0740  142.4060 C   0  0  0  0  0  2  0  0  0  0  0  0
  188.2810  176.4960  143.1870 C   0  0  0  0  0  0  0  0  0  0  0  0
  187.3140  176.8360  143.8220 C   0  0  0  0  0  0  0  0  0  0  0  0
  186.1920  177.2250  144.5610 N   0  0  0  0  0  2  0  0  0  0  0  0
  185.7680  178.6220  144.5940 C   0  0  1  0  0  3  0  0  0  0  0  0
  185.4240  179.0760  143.2920 O   0  0  0  0  0  0  0  0  0  0  0  0
  184.9660  178.7890  146.9660 O   0  0  0  0  0  1  0  0  0  0  0  0
  184.1780  178.5180  142.9260 C   0  0  0  0  0  2  0  0  0  0  0  0
  181.8640  178.4920  143.5220 O   0  0  0  0  0  1  0  0  0  0  0  0
  184.6700  178.8410  145.6130 C   0  0  0  0  0  0  0  0  0  0  0  0
  183.4110  179.0410  145.2220 C   0  0  0  0  0  3  0  0  0  0  0  0
  183.0690  179.1450  143.7690 C   0  0  1  0  0  3  0  0  0  0  0  0
  192.2410  175.5480  136.8190 C   0  0  0  0  0  2  0  0  0  0  0  0
  193.3960  174.6310  137.2270 C   0  0  0  0  0  2  0  0  0  0  0  0
  196.1920  175.0860  139.7950 O   0  0  0  0  0  0  0  0  0  0  0  0
  196.4500  174.7650  136.2160 C   0  0  2  0  0  3  0  0  0  0  0  0
  194.6370  175.3100  137.6550 N   0  0  0  0  0  0  0  0  0  0  0  0
  194.6680  176.0220  135.4820 F   0  0  0  0  0  0  0  0  0  0  0  0
  196.9380  174.0300  137.4530 C   0  0  0  0  0  2  0  0  0  0  0  0
  197.6290  175.4530  135.5500 C   0  0  0  0  0  1  0  0  0  0  0  0
  195.6680  174.3160  138.6130 S   0  0  0  0  0  0  0  0  0  0  0  0
  195.4320  175.7690  136.5730 N   0  0  0  0  0  0  0  0  0  0  0  0
  194.9970  173.0510  139.0640 O   0  0  0  0  0  0  0  0  0  0  0  0
  1  3  1  0  0  0  0
  1 14  1  0  0  0  0
  3  2  2  0  0  0  0
  4  7  1  0  0  0  0
  4  5  1  0  0  0  0
  5  6  1  0  0  0  0
  6  1  1  1  0  0  0
  7  9  1  0  0  0  0
  7  8  1  0  0  0  0
  8  6  1  0  0  0  0
  9 10  1  0  0  0  0
 10 11  1  0  0  0  0
 11 13  1  6  0  0  0
 12 11  1  0  0  0  0
 14 15  1  0  0  0  0
 15 16  1  0  0  0  0
 16 17  1  0  0  0  0
 17 21  1  0  0  0  0
 17 18  1  0  0  0  0
 18 19  1  0  0  0  0
 19 20  1  0  0  0  0
 21 22  1  0  0  0  0
 22 23  3  0  0  0  0
 23 24  1  0  0  0  0
 25 24  1  6  0  0  0
 25 30  1  0  0  0  0
 26 25  1  0  0  0  0
 28 26  1  0  0  0  0
 28 32  1  0  0  0  0
 30 27  1  0  0  0  0
 31 30  2  0  0  0  0
 32 29  1  1  0  0  0
 32 31  1  0  0  0  0
 33 34  1  0  0  0  0
 33  3  1  0  0  0  0
 34 37  1  0  0  0  0
 36 40  1  1  0  0  0
 36 42  1  0  0  0  0
 36 39  1  0  0  0  0
 37 41  1  0  0  0  0
 38 42  1  0  0  0  0
 39 41  1  0  0  0  0
 41 43  2  0  0  0  0
 41 35  2  0  0  0  0
 42 37  1  0  0  0  0
M  END
>  <MODEL>
4

>  <REMARK>
 VINA RESULT:      -7.1      4.810     10.017
  Name = 
  17 active torsions:
  status: ('A' for Active; 'I' for Inactive)
    1  A    between atoms: C_1  and  C_10
    2  A    between atoms: C_2  and  C_24
    3  A    between atoms: C_2  and  C_32
    4  A    between atoms: C_3  and  N_40
    5  A    between atoms: C_5  and  C_26
    6  A    between atoms: C_5  and  N_30
    7  A    between atoms: C_6  and  C_36
    8  A    between atoms: C_6  and  N_38
    9  A    between atoms: C_7  and  N_8
   10  A    between atoms: C_7  and  C_26
   11  A    between atoms: N_8  and  C_27
   12  A    between atoms: C_10  and  N_30
   13  A    between atoms: C_14  and  C_36
   14  A    between atoms: C_15  and  N_40
   15  A    between atoms: C_19  and  C_22
   16  A    between atoms: N_21  and  C_24
   17  A    between atoms: C_22  and  N_30
                            x       y       z     vdW  Elec       q    Type
                         _______ _______ _______ _____ _____    ______ ____

>  <TORSDO>
F 17

$$$$
=
 OpenBabel10222415173D

 43 45  0  0  1  0  0  0  0  0999 V2000
  189.3170  177.8760  140.5130 N   0  0  0  0  0  0  0  0  0  0  0  0
  188.9690  179.2200  138.6500 O   0  0  0  0  0  0  0  0  0  0  0  0
  189.4260  178.1460  139.1070 C   0  0  0  0  0  0  0  0  0  0  0  0
  190.5110  175.7050  143.1920 C   0  0  0  0  0  2  0  0  0  0  0  0
  189.4100  176.1390  142.2490 C   0  0  0  0  0  2  0  0  0  0  0  0
  190.1530  176.8500  141.1510 C   0  0  2  0  0  3  0  0  0  0  0  0
  191.6140  176.6610  143.0750 N   0  0  0  0  0  0  0  0  0  0  0  0
  191.3910  177.4050  141.8340 C   0  0  0  0  0  2  0  0  0  0  0  0
  191.4840  177.6130  144.1700 C   0  0  0  0  0  2  0  0  0  0  0  0
  190.5750  177.0690  145.2550 C   0  0  0  0  0  2  0  0  0  0  0  0
  191.2970  177.0500  146.5910 C   0  0  1  0  0  3  0  0  0  0  0  0
  190.3350  177.1230  147.6740 N   0  0  0  0  0  1  0  0  0  0  0  0
  192.0940  175.7720  146.7070 C   0  0  0  0  0  1  0  0  0  0  0  0
  188.4400  178.7380  141.3170 C   0  0  0  0  0  2  0  0  0  0  0  0
  186.9800  178.4910  140.9590 C   0  0  0  0  0  2  0  0  0  0  0  0
  186.0930  179.1450  141.9840 C   0  0  0  0  0  2  0  0  0  0  0  0
  185.1940  178.1580  142.5690 N   0  0  0  0  0  0  0  0  0  0  0  0
  185.3490  178.1390  144.0290 C   0  0  0  0  0  2  0  0  0  0  0  0
  186.7270  177.6600  144.4900 C   0  0  0  0  0  2  0  0  0  0  0  0
  186.8170  177.7420  145.9990 C   0  0  0  0  0  1  0  0  0  0  0  0
  183.8240  178.5310  142.2230 C   0  0  0  0  0  2  0  0  0  0  0  0
  183.5580  178.2060  140.8210 C   0  0  0  0  0  0  0  0  0  0  0  0
  183.3440  177.9250  139.6670 C   0  0  0  0  0  0  0  0  0  0  0  0
  183.0900  177.5950  138.3320 N   0  0  0  0  0  2  0  0  0  0  0  0
  183.6790  176.4010  137.7330 C   0  0  1  0  0  3  0  0  0  0  0  0
  183.2660  175.2320  138.4280 O   0  0  0  0  0  0  0  0  0  0  0  0
  184.0560  177.2150  135.3900 O   0  0  0  0  0  1  0  0  0  0  0  0
  181.9200  174.9540  138.0990 C   0  0  0  0  0  2  0  0  0  0  0  0
  180.4990  174.3620  136.2710 O   0  0  0  0  0  1  0  0  0  0  0  0
  183.4070  176.3380  136.2450 C   0  0  0  0  0  0  0  0  0  0  0  0
  182.5180  175.4770  135.7530 C   0  0  0  0  0  3  0  0  0  0  0  0
  181.8350  174.4890  136.6460 C   0  0  1  0  0  3  0  0  0  0  0  0
  189.9820  177.1490  138.1350 C   0  0  0  0  0  2  0  0  0  0  0  0
  188.9740  176.1010  137.6560 C   0  0  0  0  0  2  0  0  0  0  0  0
  191.1370  174.1930  135.1470 O   0  0  0  0  0  0  0  0  0  0  0  0
  187.6010  173.8880  135.7640 C   0  0  2  0  0  3  0  0  0  0  0  0
  189.1840  175.5830  136.2890 N   0  0  0  0  0  0  0  0  0  0  0  0
  186.9640  176.0800  136.0580 F   0  0  0  0  0  0  0  0  0  0  0  0
  188.8370  173.0060  135.8230 C   0  0  0  0  0  2  0  0  0  0  0  0
  186.7350  173.4530  134.5940 C   0  0  0  0  0  1  0  0  0  0  0  0
  190.1060  174.1280  136.2410 S   0  0  0  0  0  0  0  0  0  0  0  0
  187.9770  175.3030  135.5990 N   0  0  0  0  0  0  0  0  0  0  0  0
  190.7540  173.8080  137.5560 O   0  0  0  0  0  0  0  0  0  0  0  0
  1 14  1  0  0  0  0
  2  3  2  0  0  0  0
  3  1  1  0  0  0  0
  5  4  1  0  0  0  0
  6  1  1  1  0  0  0
  6  8  1  0  0  0  0
  6  5  1  0  0  0  0
  7  4  1  0  0  0  0
  7  9  1  0  0  0  0
  8  7  1  0  0  0  0
  9 10  1  0  0  0  0
 10 11  1  0  0  0  0
 11 13  1  1  0  0  0
 11 12  1  0  0  0  0
 15 14  1  0  0  0  0
 15 16  1  0  0  0  0
 16 17  1  0  0  0  0
 17 18  1  0  0  0  0
 18 19  1  0  0  0  0
 19 20  1  0  0  0  0
 21 17  1  0  0  0  0
 22 21  1  0  0  0  0
 23 22  3  0  0  0  0
 24 23  1  0  0  0  0
 25 24  1  1  0  0  0
 25 26  1  0  0  0  0
 27 30  1  0  0  0  0
 28 26  1  0  0  0  0
 30 25  1  0  0  0  0
 31 30  2  0  0  0  0
 31 32  1  0  0  0  0
 32 29  1  6  0  0  0
 32 28  1  0  0  0  0
 33  3  1  0  0  0  0
 34 33  1  0  0  0  0
 35 41  2  0  0  0  0
 36 40  1  6  0  0  0
 36 39  1  0  0  0  0
 37 34  1  0  0  0  0
 39 41  1  0  0  0  0
 41 37  1  0  0  0  0
 41 43  2  0  0  0  0
 42 36  1  0  0  0  0
 42 38  1  0  0  0  0
 42 37  1  0  0  0  0
M  END
>  <MODEL>
5

>  <REMARK>
 VINA RESULT:      -7.0      2.882      6.459
  Name = 
  17 active torsions:
  status: ('A' for Active; 'I' for Inactive)
    1  A    between atoms: C_1  and  C_10
    2  A    between atoms: C_2  and  C_24
    3  A    between atoms: C_2  and  C_32
    4  A    between atoms: C_3  and  N_40
    5  A    between atoms: C_5  and  C_26
    6  A    between atoms: C_5  and  N_30
    7  A    between atoms: C_6  and  C_36
    8  A    between atoms: C_6  and  N_38
    9  A    between atoms: C_7  and  N_8
   10  A    between atoms: C_7  and  C_26
   11  A    between atoms: N_8  and  C_27
   12  A    between atoms: C_10  and  N_30
   13  A    between atoms: C_14  and  C_36
   14  A    between atoms: C_15  and  N_40
   15  A    between atoms: C_19  and  C_22
   16  A    between atoms: N_21  and  C_24
   17  A    between atoms: C_22  and  N_30
                            x       y       z     vdW  Elec       q    Type
                         _______ _______ _______ _____ _____    ______ ____

>  <TORSDO>
F 17

$$$$
=
 OpenBabel10222415173D

 43 45  0  0  1  0  0  0  0  0999 V2000
  189.3940  177.8250  141.0130 N   0  0  0  0  0  0  0  0  0  0  0  0
  188.7710  178.9370  139.0700 O   0  0  0  0  0  0  0  0  0  0  0  0
  189.3070  177.9270  139.5830 C   0  0  0  0  0  0  0  0  0  0  0  0
  190.7130  175.6510  143.6300 C   0  0  0  0  0  2  0  0  0  0  0  0
  189.6260  175.9920  142.6320 C   0  0  0  0  0  2  0  0  0  0  0  0
  190.3290  176.8850  141.6460 C   0  0  2  0  0  3  0  0  0  0  0  0
  191.6650  176.7620  143.6640 N   0  0  0  0  0  0  0  0  0  0  0  0
  191.4180  177.5600  142.4620 C   0  0  0  0  0  2  0  0  0  0  0  0
  191.3170  177.5980  144.8060 C   0  0  0  0  0  2  0  0  0  0  0  0
  190.0320  177.1230  145.4540 C   0  0  0  0  0  2  0  0  0  0  0  0
  190.2710  176.7730  146.9130 C   0  0  1  0  0  3  0  0  0  0  0  0
  191.6790  176.9160  147.2310 N   0  0  0  0  0  1  0  0  0  0  0  0
  189.4580  177.7000  147.7850 C   0  0  0  0  0  1  0  0  0  0  0  0
  188.6160  178.7730  141.8230 C   0  0  0  0  0  2  0  0  0  0  0  0
  187.1250  178.5830  141.5760 C   0  0  0  0  0  2  0  0  0  0  0  0
  186.4500  178.1760  142.8580 C   0  0  0  0  0  2  0  0  0  0  0  0
  185.0260  178.4760  142.7890 N   0  0  0  0  0  0  0  0  0  0  0  0
  184.6780  179.4950  143.7880 C   0  0  0  0  0  2  0  0  0  0  0  0
  183.7260  178.9850  144.8720 C   0  0  0  0  0  2  0  0  0  0  0  0
  184.5210  178.5500  146.0850 C   0  0  0  0  0  1  0  0  0  0  0  0
  184.7330  178.9800  141.4480 C   0  0  0  0  0  2  0  0  0  0  0  0
  183.5110  178.3570  140.9380 C   0  0  0  0  0  0  0  0  0  0  0  0
  182.4990  177.8580  140.5130 C   0  0  0  0  0  0  0  0  0  0  0  0
  181.3280  177.2790  140.0140 N   0  0  0  0  0  2  0  0  0  0  0  0
  180.1870  178.1090  139.6360 C   0  0  1  0  0  3  0  0  0  0  0  0
  179.1320  177.9730  140.5780 O   0  0  0  0  0  0  0  0  0  0  0  0
  181.3470  179.8760  138.2850 O   0  0  0  0  0  1  0  0  0  0  0  0
  179.4770  178.6680  141.7580 C   0  0  0  0  0  2  0  0  0  0  0  0
  179.9430  180.8560  142.6030 O   0  0  0  0  0  1  0  0  0  0  0  0
  180.6020  179.5460  139.4070 C   0  0  0  0  0  0  0  0  0  0  0  0
  180.2950  180.4910  140.2940 C   0  0  0  0  0  3  0  0  0  0  0  0
  179.4550  180.1720  141.4910 C   0  0  1  0  0  3  0  0  0  0  0  0
  189.7460  176.8230  138.6680 C   0  0  0  0  0  2  0  0  0  0  0  0
  191.2450  176.8160  138.3590 C   0  0  0  0  0  2  0  0  0  0  0  0
  190.9570  173.6650  136.2120 O   0  0  0  0  0  0  0  0  0  0  0  0
  193.7910  175.8480  136.6430 C   0  0  2  0  0  3  0  0  0  0  0  0
  191.8040  175.5250  137.9070 N   0  0  0  0  0  0  0  0  0  0  0  0
  193.7070  176.3210  138.8930 F   0  0  0  0  0  0  0  0  0  0  0  0
  192.9000  175.3650  135.5100 C   0  0  0  0  0  2  0  0  0  0  0  0
  195.1680  175.2220  136.4940 C   0  0  0  0  0  1  0  0  0  0  0  0
  191.3630  175.1130  136.2940 S   0  0  0  0  0  0  0  0  0  0  0  0
  193.2210  175.4770  137.9500 N   0  0  0  0  0  0  0  0  0  0  0  0
  190.2790  175.9940  135.7460 O   0  0  0  0  0  0  0  0  0  0  0  0
  1 14  1  0  0  0  0
  2  3  2  0  0  0  0
  3  1  1  0  0  0  0
  4  7  1  0  0  0  0
  5  4  1  0  0  0  0
  6  1  1  1  0  0  0
  6  8  1  0  0  0  0
  6  5  1  0  0  0  0
  7  9  1  0  0  0  0
  8  7  1  0  0  0  0
  9 10  1  0  0  0  0
 10 11  1  0  0  0  0
 11 12  1  0  0  0  0
 11 13  1  1  0  0  0
 15 14  1  0  0  0  0
 15 16  1  0  0  0  0
 17 16  1  0  0  0  0
 17 18  1  0  0  0  0
 18 19  1  0  0  0  0
 19 20  1  0  0  0  0
 21 17  1  0  0  0  0
 22 21  1  0  0  0  0
 23 22  3  0  0  0  0
 24 23  1  0  0  0  0
 25 24  1  1  0  0  0
 25 26  1  0  0  0  0
 26 28  1  0  0  0  0
 27 30  1  0  0  0  0
 30 25  1  0  0  0  0
 30 31  2  0  0  0  0
 31 32  1  0  0  0  0
 32 28  1  0  0  0  0
 32 29  1  1  0  0  0
 33  3  1  0  0  0  0
 34 33  1  0  0  0  0
 35 41  2  0  0  0  0
 36 40  1  6  0  0  0
 36 42  1  0  0  0  0
 37 42  1  0  0  0  0
 37 34  1  0  0  0  0
 39 41  1  0  0  0  0
 39 36  1  0  0  0  0
 41 37  1  0  0  0  0
 42 38  1  0  0  0  0
 43 41  2  0  0  0  0
M  END
>  <MODEL>
6

>  <REMARK>
 VINA RESULT:      -6.9      3.295      8.113
  Name = 
  17 active torsions:
  status: ('A' for Active; 'I' for Inactive)
    1  A    between atoms: C_1  and  C_10
    2  A    between atoms: C_2  and  C_24
    3  A    between atoms: C_2  and  C_32
    4  A    between atoms: C_3  and  N_40
    5  A    between atoms: C_5  and  C_26
    6  A    between atoms: C_5  and  N_30
    7  A    between atoms: C_6  and  C_36
    8  A    between atoms: C_6  and  N_38
    9  A    between atoms: C_7  and  N_8
   10  A    between atoms: C_7  and  C_26
   11  A    between atoms: N_8  and  C_27
   12  A    between atoms: C_10  and  N_30
   13  A    between atoms: C_14  and  C_36
   14  A    between atoms: C_15  and  N_40
   15  A    between atoms: C_19  and  C_22
   16  A    between atoms: N_21  and  C_24
   17  A    between atoms: C_22  and  N_30
                            x       y       z     vdW  Elec       q    Type
                         _______ _______ _______ _____ _____    ______ ____

>  <TORSDO>
F 17

$$$$
=
 OpenBabel10222415173D

 43 45  0  0  1  0  0  0  0  0999 V2000
  188.5740  177.8910  140.8670 N   0  0  0  0  0  0  0  0  0  0  0  0
  188.3940  178.9940  138.8300 O   0  0  0  0  0  0  0  0  0  0  0  0
  188.7460  177.9590  139.4430 C   0  0  0  0  0  0  0  0  0  0  0  0
  189.5200  176.0300  143.8600 C   0  0  0  0  0  2  0  0  0  0  0  0
  188.4790  176.4200  142.8320 C   0  0  0  0  0  2  0  0  0  0  0  0
  189.3030  176.8980  141.6670 C   0  0  2  0  0  3  0  0  0  0  0  0
  190.7070  176.8580  143.6420 N   0  0  0  0  0  0  0  0  0  0  0  0
  190.5740  177.4340  142.3020 C   0  0  0  0  0  2  0  0  0  0  0  0
  190.6460  177.9650  144.5880 C   0  0  0  0  0  2  0  0  0  0  0  0
  189.4950  177.7860  145.5570 C   0  0  0  0  0  2  0  0  0  0  0  0
  190.0180  177.5260  146.9590 C   0  0  1  0  0  3  0  0  0  0  0  0
  189.0380  176.7760  147.7210 N   0  0  0  0  0  1  0  0  0  0  0  0
  191.3030  176.7370  146.8720 C   0  0  0  0  0  1  0  0  0  0  0  0
  187.7510  178.9220  141.5150 C   0  0  0  0  0  2  0  0  0  0  0  0
  186.2730  178.5780  141.3880 C   0  0  0  0  0  2  0  0  0  0  0  0
  185.4850  179.3600  142.4040 C   0  0  0  0  0  2  0  0  0  0  0  0
  184.8260  178.4500  143.3320 N   0  0  0  0  0  0  0  0  0  0  0  0
  185.6710  178.2390  144.5150 C   0  0  0  0  0  2  0  0  0  0  0  0
  185.0660  178.7990  145.8040 C   0  0  0  0  0  2  0  0  0  0  0  0
  186.0150  178.5600  146.9590 C   0  0  0  0  0  1  0  0  0  0  0  0
  183.5570  179.0530  143.7350 C   0  0  0  0  0  2  0  0  0  0  0  0
  182.5420  178.8130  142.7080 C   0  0  0  0  0  0  0  0  0  0  0  0
  181.7050  178.6020  141.8660 C   0  0  0  0  0  0  0  0  0  0  0  0
  180.7280  178.3580  140.8950 N   0  0  0  0  0  2  0  0  0  0  0  0
  181.1050  178.0500  139.5180 C   0  0  1  0  0  3  0  0  0  0  0  0
  181.0640  179.2190  138.7110 O   0  0  0  0  0  0  0  0  0  0  0  0
  182.5240  176.0140  139.8890 O   0  0  0  0  0  1  0  0  0  0  0  0
  182.1750  180.0320  139.0240 C   0  0  0  0  0  2  0  0  0  0  0  0
  184.5650  180.0830  138.9660 O   0  0  0  0  0  1  0  0  0  0  0  0
  182.4340  177.3290  139.4590 C   0  0  0  0  0  0  0  0  0  0  0  0
  183.5300  177.9580  139.0360 C   0  0  0  0  0  3  0  0  0  0  0  0
  183.4550  179.3630  138.5260 C   0  0  1  0  0  3  0  0  0  0  0  0
  189.2420  176.7970  138.6340 C   0  0  0  0  0  2  0  0  0  0  0  0
  190.2920  177.1620  137.5820 C   0  0  0  0  0  2  0  0  0  0  0  0
  191.7600  174.2190  135.6310 O   0  0  0  0  0  0  0  0  0  0  0  0
  188.2990  175.0620  136.1730 C   0  0  2  0  0  3  0  0  0  0  0  0
  190.3090  176.3170  136.3700 N   0  0  0  0  0  0  0  0  0  0  0  0
  188.3130  177.3530  135.9560 F   0  0  0  0  0  0  0  0  0  0  0  0
  189.2380  173.9040  136.4690 C   0  0  0  0  0  2  0  0  0  0  0  0
  187.3140  174.6400  135.0960 C   0  0  0  0  0  1  0  0  0  0  0  0
  190.7830  174.6880  136.6750 S   0  0  0  0  0  0  0  0  0  0  0  0
  189.0530  176.2420  135.7150 N   0  0  0  0  0  0  0  0  0  0  0  0
  191.3510  174.4980  138.0510 O   0  0  0  0  0  0  0  0  0  0  0  0
  1 14  1  0  0  0  0
  2  3  2  0  0  0  0
  3  1  1  0  0  0  0
  5  4  1  0  0  0  0
  6  1  1  1  0  0  0
  6  8  1  0  0  0  0
  6  5  1  0  0  0  0
  7  4  1  0  0  0  0
  7  9  1  0  0  0  0
  8  7  1  0  0  0  0
  9 10  1  0  0  0  0
 10 11  1  0  0  0  0
 11 13  1  6  0  0  0
 11 12  1  0  0  0  0
 15 14  1  0  0  0  0
 15 16  1  0  0  0  0
 16 17  1  0  0  0  0
 17 21  1  0  0  0  0
 17 18  1  0  0  0  0
 18 19  1  0  0  0  0
 19 20  1  0  0  0  0
 22 21  1  0  0  0  0
 23 22  3  0  0  0  0
 24 23  1  0  0  0  0
 25 24  1  1  0  0  0
 26 28  1  0  0  0  0
 26 25  1  0  0  0  0
 30 25  1  0  0  0  0
 30 27  1  0  0  0  0
 31 30  2  0  0  0  0
 32 29  1  1  0  0  0
 32 28  1  0  0  0  0
 32 31  1  0  0  0  0
 33  3  1  0  0  0  0
 34 33  1  0  0  0  0
 35 41  2  0  0  0  0
 36 40  1  6  0  0  0
 36 39  1  0  0  0  0
 37 41  1  0  0  0  0
 37 34  1  0  0  0  0
 39 41  1  0  0  0  0
 41 43  2  0  0  0  0
 42 38  1  0  0  0  0
 42 36  1  0  0  0  0
 42 37  1  0  0  0  0
M  END
>  <MODEL>
7

>  <REMARK>
 VINA RESULT:      -6.8      2.726      6.815
  Name = 
  17 active torsions:
  status: ('A' for Active; 'I' for Inactive)
    1  A    between atoms: C_1  and  C_10
    2  A    between atoms: C_2  and  C_24
    3  A    between atoms: C_2  and  C_32
    4  A    between atoms: C_3  and  N_40
    5  A    between atoms: C_5  and  C_26
    6  A    between atoms: C_5  and  N_30
    7  A    between atoms: C_6  and  C_36
    8  A    between atoms: C_6  and  N_38
    9  A    between atoms: C_7  and  N_8
   10  A    between atoms: C_7  and  C_26
   11  A    between atoms: N_8  and  C_27
   12  A    between atoms: C_10  and  N_30
   13  A    between atoms: C_14  and  C_36
   14  A    between atoms: C_15  and  N_40
   15  A    between atoms: C_19  and  C_22
   16  A    between atoms: N_21  and  C_24
   17  A    between atoms: C_22  and  N_30
                            x       y       z     vdW  Elec       q    Type
                         _______ _______ _______ _____ _____    ______ ____

>  <TORSDO>
F 17

$$$$
=
 OpenBabel10222415173D

 43 45  0  0  1  0  0  0  0  0999 V2000
  189.3290  177.8300  141.2430 N   0  0  0  0  0  0  0  0  0  0  0  0
  188.3930  178.5810  139.2520 O   0  0  0  0  0  0  0  0  0  0  0  0
  189.1520  177.7600  139.8200 C   0  0  0  0  0  0  0  0  0  0  0  0
  191.0860  175.9170  143.8050 C   0  0  0  0  0  2  0  0  0  0  0  0
  190.0230  176.0030  142.7310 C   0  0  0  0  0  2  0  0  0  0  0  0
  190.4690  177.1710  141.8940 C   0  0  2  0  0  3  0  0  0  0  0  0
  191.6240  177.2610  144.0220 N   0  0  0  0  0  0  0  0  0  0  0  0
  191.2210  178.0640  142.8660 C   0  0  0  0  0  2  0  0  0  0  0  0
  190.9430  177.8200  145.1840 C   0  0  0  0  0  2  0  0  0  0  0  0
  190.8650  176.8040  146.3060 C   0  0  0  0  0  2  0  0  0  0  0  0
  189.5170  176.8830  147.0000 C   0  0  1  0  0  3  0  0  0  0  0  0
  189.5680  177.8640  148.0680 N   0  0  0  0  0  1  0  0  0  0  0  0
  188.4630  177.2830  145.9950 C   0  0  0  0  0  1  0  0  0  0  0  0
  188.4140  178.6840  142.0120 C   0  0  0  0  0  2  0  0  0  0  0  0
  187.1030  177.9540  142.2760 C   0  0  0  0  0  2  0  0  0  0  0  0
  185.9670  178.9420  142.2740 C   0  0  0  0  0  2  0  0  0  0  0  0
  184.6940  178.2380  142.1860 N   0  0  0  0  0  0  0  0  0  0  0  0
  183.8750  178.5300  143.3700 C   0  0  0  0  0  2  0  0  0  0  0  0
  184.5530  179.4810  144.3600 C   0  0  0  0  0  2  0  0  0  0  0  0
  184.8400  178.7500  145.6540 C   0  0  0  0  0  1  0  0  0  0  0  0
  184.0040  178.6990  140.9830 C   0  0  0  0  0  2  0  0  0  0  0  0
  183.2850  177.5850  140.3630 C   0  0  0  0  0  0  0  0  0  0  0  0
  182.6810  176.6710  139.8580 C   0  0  0  0  0  0  0  0  0  0  0  0
  181.9780  175.6160  139.2680 N   0  0  0  0  0  2  0  0  0  0  0  0
  181.9410  175.4620  137.8170 C   0  0  1  0  0  3  0  0  0  0  0  0
  183.2560  175.4440  137.2780 O   0  0  0  0  0  0  0  0  0  0  0  0
  179.7330  174.3020  137.5460 O   0  0  0  0  0  1  0  0  0  0  0  0
  183.8560  174.2000  137.5750 C   0  0  0  0  0  2  0  0  0  0  0  0
  183.6600  171.8540  137.1630 O   0  0  0  0  0  1  0  0  0  0  0  0
  181.1120  174.2640  137.4090 C   0  0  0  0  0  0  0  0  0  0  0  0
  181.6970  173.1540  136.9600 C   0  0  0  0  0  3  0  0  0  0  0  0
  183.1790  173.0980  136.7620 C   0  0  1  0  0  3  0  0  0  0  0  0
  189.7640  176.6750  138.9830 C   0  0  0  0  0  2  0  0  0  0  0  0
  191.2890  176.7420  138.8780 C   0  0  0  0  0  2  0  0  0  0  0  0
  194.2870  176.6510  136.5070 O   0  0  0  0  0  0  0  0  0  0  0  0
  191.8700  174.0660  137.1840 C   0  0  2  0  0  3  0  0  0  0  0  0
  191.8590  176.4150  137.5550 N   0  0  0  0  0  0  0  0  0  0  0  0
  189.9040  175.2550  137.3090 F   0  0  0  0  0  0  0  0  0  0  0  0
  193.3720  174.2660  137.3000 C   0  0  0  0  0  2  0  0  0  0  0  0
  191.5850  173.0840  136.0620 C   0  0  0  0  0  1  0  0  0  0  0  0
  193.5240  175.9750  137.6130 S   0  0  0  0  0  0  0  0  0  0  0  0
  191.1940  175.3450  136.9020 N   0  0  0  0  0  0  0  0  0  0  0  0
  194.1540  176.2690  138.9430 O   0  0  0  0  0  0  0  0  0  0  0  0
  1 14  1  0  0  0  0
  2  3  2  0  0  0  0
  3  1  1  0  0  0  0
  4  7  1  0  0  0  0
  5  4  1  0  0  0  0
  6  1  1  1  0  0  0
  6  5  1  0  0  0  0
  6  8  1  0  0  0  0
  7  9  1  0  0  0  0
  8  7  1  0  0  0  0
  9 10  1  0  0  0  0
 10 11  1  0  0  0  0
 11 13  1  6  0  0  0
 11 12  1  0  0  0  0
 14 15  1  0  0  0  0
 16 15  1  0  0  0  0
 17 16  1  0  0  0  0
 17 18  1  0  0  0  0
 18 19  1  0  0  0  0
 19 20  1  0  0  0  0
 21 17  1  0  0  0  0
 22 21  1  0  0  0  0
 23 22  3  0  0  0  0
 24 23  1  0  0  0  0
 25 24  1  1  0  0  0
 26 28  1  0  0  0  0
 26 25  1  0  0  0  0
 30 27  1  0  0  0  0
 30 25  1  0  0  0  0
 31 30  2  0  0  0  0
 32 31  1  0  0  0  0
 32 29  1  1  0  0  0
 32 28  1  0  0  0  0
 33  3  1  0  0  0  0
 34 33  1  0  0  0  0
 35 41  2  0  0  0  0
 36 40  1  6  0  0  0
 36 39  1  0  0  0  0
 37 41  1  0  0  0  0
 37 34  1  0  0  0  0
 39 41  1  0  0  0  0
 41 43  2  0  0  0  0
 42 36  1  0  0  0  0
 42 38  1  0  0  0  0
 42 37  1  0  0  0  0
M  END
>  <MODEL>
8

>  <REMARK>
 VINA RESULT:      -6.8      3.602      7.583
  Name = 
  17 active torsions:
  status: ('A' for Active; 'I' for Inactive)
    1  A    between atoms: C_1  and  C_10
    2  A    between atoms: C_2  and  C_24
    3  A    between atoms: C_2  and  C_32
    4  A    between atoms: C_3  and  N_40
    5  A    between atoms: C_5  and  C_26
    6  A    between atoms: C_5  and  N_30
    7  A    between atoms: C_6  and  C_36
    8  A    between atoms: C_6  and  N_38
    9  A    between atoms: C_7  and  N_8
   10  A    between atoms: C_7  and  C_26
   11  A    between atoms: N_8  and  C_27
   12  A    between atoms: C_10  and  N_30
   13  A    between atoms: C_14  and  C_36
   14  A    between atoms: C_15  and  N_40
   15  A    between atoms: C_19  and  C_22
   16  A    between atoms: N_21  and  C_24
   17  A    between atoms: C_22  and  N_30
                            x       y       z     vdW  Elec       q    Type
                         _______ _______ _______ _____ _____    ______ ____

>  <TORSDO>
F 17

$$$$
=
 OpenBabel10222415173D

 43 45  0  0  1  0  0  0  0  0999 V2000
  189.6010  177.1930  137.7330 N   0  0  0  0  0  0  0  0  0  0  0  0
  189.0310  179.3380  138.4220 O   0  0  0  0  0  0  0  0  0  0  0  0
  188.7300  178.3350  137.7340 C   0  0  0  0  0  0  0  0  0  0  0  0
  189.9540  173.8980  136.2050 C   0  0  0  0  0  2  0  0  0  0  0  0
  189.3390  174.7970  137.2570 C   0  0  0  0  0  2  0  0  0  0  0  0
  189.5090  176.1760  136.6770 C   0  0  2  0  0  3  0  0  0  0  0  0
  190.9920  174.6580  135.5070 N   0  0  0  0  0  0  0  0  0  0  0  0
  190.7560  176.0690  135.8170 C   0  0  0  0  0  2  0  0  0  0  0  0
  192.2710  174.3010  136.1070 C   0  0  0  0  0  2  0  0  0  0  0  0
  192.8820  175.4870  136.8260 C   0  0  0  0  0  2  0  0  0  0  0  0
  194.2160  175.1030  137.4430 C   0  0  1  0  0  3  0  0  0  0  0  0
  194.4110  175.8250  138.6860 N   0  0  0  0  0  1  0  0  0  0  0  0
  194.2300  173.6170  137.7130 C   0  0  0  0  0  1  0  0  0  0  0  0
  190.6680  177.1370  138.7410 C   0  0  0  0  0  2  0  0  0  0  0  0
  190.0740  176.9710  140.1340 C   0  0  0  0  0  2  0  0  0  0  0  0
  191.1670  177.0790  141.1640 C   0  0  0  0  0  2  0  0  0  0  0  0
  190.5980  177.0040  142.5030 N   0  0  0  0  0  0  0  0  0  0  0  0
  190.0150  178.3000  142.8750 C   0  0  0  0  0  2  0  0  0  0  0  0
  190.8350  179.0590  143.9220 C   0  0  0  0  0  2  0  0  0  0  0  0
  191.4990  178.0740  144.8620 C   0  0  0  0  0  1  0  0  0  0  0  0
  189.5560  175.9790  142.4970 C   0  0  0  0  0  2  0  0  0  0  0  0
  188.4120  176.4250  143.2940 C   0  0  0  0  0  0  0  0  0  0  0  0
  187.4770  176.7890  143.9620 C   0  0  0  0  0  0  0  0  0  0  0  0
  186.3960  177.2170  144.7390 N   0  0  0  0  0  2  0  0  0  0  0  0
  185.9280  178.5990  144.6710 C   0  0  1  0  0  3  0  0  0  0  0  0
  185.5910  178.9520  143.3360 O   0  0  0  0  0  0  0  0  0  0  0  0
  185.0850  178.9030  147.0150 O   0  0  0  0  0  1  0  0  0  0  0  0
  184.3690  178.3310  142.9930 C   0  0  0  0  0  2  0  0  0  0  0  0
  182.0470  178.2720  143.5590 O   0  0  0  0  0  1  0  0  0  0  0  0
  184.8080  178.8520  145.6570 C   0  0  0  0  0  0  0  0  0  0  0  0
  183.5510  178.9850  145.2370 C   0  0  0  0  0  3  0  0  0  0  0  0
  183.2280  178.9790  143.7760 C   0  0  1  0  0  3  0  0  0  0  0  0
  187.4120  178.3440  137.0170 C   0  0  0  0  0  2  0  0  0  0  0  0
  186.2930  177.5910  137.7390 C   0  0  0  0  0  2  0  0  0  0  0  0
  183.0520  177.3480  135.7250 O   0  0  0  0  0  0  0  0  0  0  0  0
  183.4750  177.5790  139.2960 C   0  0  2  0  0  3  0  0  0  0  0  0
  184.9200  178.0650  137.4710 N   0  0  0  0  0  0  0  0  0  0  0  0
  185.1840  179.1090  139.4880 F   0  0  0  0  0  0  0  0  0  0  0  0
  182.8730  176.6110  138.2900 C   0  0  0  0  0  2  0  0  0  0  0  0
  182.3540  178.2450  140.0770 C   0  0  0  0  0  1  0  0  0  0  0  0
  183.8720  176.8330  136.8780 S   0  0  0  0  0  0  0  0  0  0  0  0
  184.2770  178.6090  138.6120 N   0  0  0  0  0  0  0  0  0  0  0  0
  184.6080  175.5860  136.4840 O   0  0  0  0  0  0  0  0  0  0  0  0
  1  3  1  0  0  0  0
  1 14  1  0  0  0  0
  3  2  2  0  0  0  0
  4  5  1  0  0  0  0
  6  5  1  0  0  0  0
  6  1  1  1  0  0  0
  7  8  1  0  0  0  0
  7  9  1  0  0  0  0
  7  4  1  0  0  0  0
  8  6  1  0  0  0  0
  9 10  1  0  0  0  0
 10 11  1  0  0  0  0
 11 13  1  1  0  0  0
 11 12  1  0  0  0  0
 14 15  1  0  0  0  0
 15 16  1  0  0  0  0
 16 17  1  0  0  0  0
 17 18  1  0  0  0  0
 18 19  1  0  0  0  0
 19 20  1  0  0  0  0
 21 17  1  0  0  0  0
 21 22  1  0  0  0  0
 22 23  3  0  0  0  0
 23 24  1  0  0  0  0
 25 24  1  6  0  0  0
 25 30  1  0  0  0  0
 26 25  1  0  0  0  0
 28 26  1  0  0  0  0
 28 32  1  0  0  0  0
 30 27  1  0  0  0  0
 31 30  2  0  0  0  0
 32 29  1  1  0  0  0
 32 31  1  0  0  0  0
 33  3  1  0  0  0  0
 33 34  1  0  0  0  0
 35 41  2  0  0  0  0
 36 40  1  6  0  0  0
 37 34  1  0  0  0  0
 37 42  1  0  0  0  0
 39 36  1  0  0  0  0
 41 37  1  0  0  0  0
 41 39  1  0  0  0  0
 42 36  1  0  0  0  0
 42 38  1  0  0  0  0
 43 41  2  0  0  0  0
M  END
>  <MODEL>
9

>  <REMARK>
 VINA RESULT:      -6.7      2.725      7.268
  Name = 
  17 active torsions:
  status: ('A' for Active; 'I' for Inactive)
    1  A    between atoms: C_1  and  C_10
    2  A    between atoms: C_2  and  C_24
    3  A    between atoms: C_2  and  C_32
    4  A    between atoms: C_3  and  N_40
    5  A    between atoms: C_5  and  C_26
    6  A    between atoms: C_5  and  N_30
    7  A    between atoms: C_6  and  C_36
    8  A    between atoms: C_6  and  N_38
    9  A    between atoms: C_7  and  N_8
   10  A    between atoms: C_7  and  C_26
   11  A    between atoms: N_8  and  C_27
   12  A    between atoms: C_10  and  N_30
   13  A    between atoms: C_14  and  C_36
   14  A    between atoms: C_15  and  N_40
   15  A    between atoms: C_19  and  C_22
   16  A    between atoms: N_21  and  C_24
   17  A    between atoms: C_22  and  N_30
                            x       y       z     vdW  Elec       q    Type
                         _______ _______ _______ _____ _____    ______ ____

>  <TORSDO>
F 17

$$$$
