=
 OpenBabel10222418093D

 25 26  0  0  1  0  0  0  0  0999 V2000
  190.2980  177.7710  144.5070 C   0  0  2  0  0  0  0  0  0  0  0  0
  190.2010  178.2970  143.0770 C   0  0  1  0  0  3  0  0  0  0  0  0
  191.3000  178.7890  144.0060 C   0  0  0  0  0  2  0  0  0  0  0  0
  190.9110  176.3880  144.7540 C   0  0  0  0  0  2  0  0  0  0  0  0
  191.9990  176.4230  145.8180 C   0  0  0  0  0  2  0  0  0  0  0  0
  192.5920  175.7410  148.1210 C   0  0  0  0  0  1  0  0  0  0  0  0
  191.4480  175.9900  147.1620 C   0  0  0  0  0  2  0  0  0  0  0  0
  190.7720  177.3550  142.1130 N   0  0  0  0  0  2  0  0  0  0  0  0
  190.1830  177.5400  140.7840 C   0  0  2  0  0  3  0  0  0  0  0  0
  188.6600  177.4970  140.8330 C   0  0  0  0  0  2  0  0  0  0  0  0
  188.0560  177.3830  138.4110 C   0  0  0  0  0  3  0  0  0  0  0  0
  189.1360  176.8420  137.8440 C   0  0  0  0  0  3  0  0  0  0  0  0
  188.0830  178.2370  139.6410 C   0  0  1  0  0  3  0  0  0  0  0  0
  190.7540  176.5430  139.7820 C   0  0  0  0  0  2  0  0  0  0  0  0
  190.4500  176.9190  138.4070 N   0  0  0  0  0  2  0  0  0  0  0  0
  186.7330  178.6700  139.9540 N   0  0  0  0  0  2  0  0  0  0  0  0
  185.4500  179.5000  141.7660 N   0  0  0  0  0  1  0  0  0  0  0  0
  186.6370  178.7510  141.4010 C   0  0  0  0  0  2  0  0  0  0  0  0
  189.3210  178.3750  145.5180 C   0  0  0  0  0  2  0  0  0  0  0  0
  188.2310  177.4160  146.0170 C   0  0  2  0  0  3  0  0  0  0  0  0
  186.9120  176.7810  144.1360 O   0  0  0  0  0  0  0  0  0  0  0  0
  185.9230  178.2880  145.5500 O   0  0  0  0  0  1  0  0  0  0  0  0
  186.9860  177.4670  145.1890 C   0  0  0  0  0  0  0  0  0  0  0  0
  187.9400  177.5570  147.4790 C   0  0  0  0  0  3  0  0  0  0  0  0
  188.7490  178.1910  148.2450 N   0  0  0  0  0  2  0  0  0  0  0  0
  1  4  1  1  0  0  0
  1 19  1  0  0  0  0
  2  8  1  6  0  0  0
  2  3  1  0  0  0  0
  2  1  1  0  0  0  0
  3  1  1  0  0  0  0
  4  5  1  0  0  0  0
  5  7  1  0  0  0  0
  7  6  1  0  0  0  0
  9 10  1  0  0  0  0
  9  8  1  1  0  0  0
 11 13  1  0  0  0  0
 12 15  1  0  0  0  0
 12 11  2  0  0  0  0
 13 16  1  1  0  0  0
 13 10  1  0  0  0  0
 14  9  1  0  0  0  0
 15 14  1  0  0  0  0
 16 18  1  0  0  0  0
 18 17  1  0  0  0  0
 20 19  1  6  0  0  0
 20 24  1  0  0  0  0
 21 23  2  0  0  0  0
 23 22  1  0  0  0  0
 23 20  1  0  0  0  0
 24 25  2  0  0  0  0
M  END
>  <MODEL>
1

>  <REMARK>
 VINA RESULT:      -6.7      0.000      0.000
  Name = 
  11 active torsions:
  status: ('A' for Active; 'I' for Inactive)
    1  A    between atoms: C_2  and  C_4
    2  A    between atoms: C_2  and  C_24
    3  A    between atoms: C_4  and  C_19
    4  A    between atoms: C_6  and  C_10
    5  A    between atoms: C_7  and  N_14
    6  A    between atoms: C_8  and  N_14
    7  A    between atoms: C_9  and  C_10
    8  A    between atoms: C_10  and  C_19
    9  A    between atoms: N_13  and  C_17
   10  A    between atoms: N_13  and  C_25
   11  A    between atoms: C_18  and  C_24
                            x       y       z     vdW  Elec       q    Type
                         _______ _______ _______ _____ _____    ______ ____

>  <TORSDO>
F 11

$$$$
=
 OpenBabel10222418093D

 25 26  0  0  1  0  0  0  0  0999 V2000
  188.6560  177.4700  144.2070 C   0  0  2  0  0  0  0  0  0  0  0  0
  189.3790  177.6470  142.8740 C   0  0  1  0  0  3  0  0  0  0  0  0
  189.4510  176.3240  143.6200 C   0  0  0  0  0  2  0  0  0  0  0  0
  187.1440  177.2190  144.2090 C   0  0  0  0  0  2  0  0  0  0  0  0
  186.3900  178.2570  145.0290 C   0  0  0  0  0  2  0  0  0  0  0  0
  185.1200  178.2220  142.9060 C   0  0  0  0  0  1  0  0  0  0  0  0
  185.0690  178.6030  144.3690 C   0  0  0  0  0  2  0  0  0  0  0  0
  188.4650  177.5110  141.7390 N   0  0  0  0  0  2  0  0  0  0  0  0
  189.1720  177.6940  140.4690 C   0  0  2  0  0  3  0  0  0  0  0  0
  188.2040  177.7650  139.2920 C   0  0  0  0  0  2  0  0  0  0  0  0
  189.7450  177.6140  137.3310 C   0  0  0  0  0  3  0  0  0  0  0  0
  190.8110  176.9750  137.8180 C   0  0  0  0  0  3  0  0  0  0  0  0
  188.8500  178.5050  138.1360 C   0  0  1  0  0  3  0  0  0  0  0  0
  190.2390  176.6240  140.2700 C   0  0  0  0  0  2  0  0  0  0  0  0
  191.1690  176.9740  139.2040 N   0  0  0  0  0  2  0  0  0  0  0  0
  187.8130  179.0480  137.2760 N   0  0  0  0  0  2  0  0  0  0  0  0
  186.2280  177.6320  136.2250 N   0  0  0  0  0  1  0  0  0  0  0  0
  186.6240  178.2390  137.4820 C   0  0  0  0  0  2  0  0  0  0  0  0
  189.3400  178.0750  145.4350 C   0  0  0  0  0  2  0  0  0  0  0  0
  189.4160  177.1460  146.6550 C   0  0  2  0  0  3  0  0  0  0  0  0
  189.5390  178.3690  148.6970 O   0  0  0  0  0  1  0  0  0  0  0  0
  187.4530  177.5980  148.1540 O   0  0  0  0  0  0  0  0  0  0  0  0
  188.8080  177.7470  147.8840 C   0  0  0  0  0  0  0  0  0  0  0  0
  190.7920  176.6140  146.9110 C   0  0  0  0  0  3  0  0  0  0  0  0
  191.7880  177.0280  146.2190 N   0  0  0  0  0  2  0  0  0  0  0  0
  1  4  1  6  0  0  0
  1 19  1  0  0  0  0
  2  8  1  6  0  0  0
  2  3  1  0  0  0  0
  2  1  1  0  0  0  0
  3  1  1  0  0  0  0
  4  5  1  0  0  0  0
  6  7  1  0  0  0  0
  7  5  1  0  0  0  0
  9  8  1  1  0  0  0
 10  9  1  0  0  0  0
 11 12  2  0  0  0  0
 11 13  1  0  0  0  0
 12 15  1  0  0  0  0
 13 16  1  6  0  0  0
 13 10  1  0  0  0  0
 14  9  1  0  0  0  0
 15 14  1  0  0  0  0
 16 18  1  0  0  0  0
 17 18  1  0  0  0  0
 20 19  1  6  0  0  0
 20 24  1  0  0  0  0
 20 23  1  0  0  0  0
 23 22  2  0  0  0  0
 23 21  1  0  0  0  0
 25 24  2  0  0  0  0
M  END
>  <MODEL>
2

>  <REMARK>
 VINA RESULT:      -6.6      2.120      3.821
  Name = 
  11 active torsions:
  status: ('A' for Active; 'I' for Inactive)
    1  A    between atoms: C_2  and  C_4
    2  A    between atoms: C_2  and  C_24
    3  A    between atoms: C_4  and  C_19
    4  A    between atoms: C_6  and  C_10
    5  A    between atoms: C_7  and  N_14
    6  A    between atoms: C_8  and  N_14
    7  A    between atoms: C_9  and  C_10
    8  A    between atoms: C_10  and  C_19
    9  A    between atoms: N_13  and  C_17
   10  A    between atoms: N_13  and  C_25
   11  A    between atoms: C_18  and  C_24
                            x       y       z     vdW  Elec       q    Type
                         _______ _______ _______ _____ _____    ______ ____

>  <TORSDO>
F 11

$$$$
=
 OpenBabel10222418093D

 25 26  0  0  1  0  0  0  0  0999 V2000
  189.9620  177.6760  144.6200 C   0  0  2  0  0  0  0  0  0  0  0  0
  189.5300  177.8780  143.1700 C   0  0  1  0  0  3  0  0  0  0  0  0
  190.6530  178.7150  143.7640 C   0  0  0  0  0  2  0  0  0  0  0  0
  190.8610  176.4860  144.9720 C   0  0  0  0  0  2  0  0  0  0  0  0
  191.7630  176.7790  146.1630 C   0  0  0  0  0  2  0  0  0  0  0  0
  192.7520  175.7730  148.1950 C   0  0  0  0  0  1  0  0  0  0  0  0
  191.5730  175.7360  147.2470 C   0  0  0  0  0  2  0  0  0  0  0  0
  190.1020  176.8620  142.2870 N   0  0  0  0  0  2  0  0  0  0  0  0
  189.6380  177.0400  140.9090 C   0  0  2  0  0  3  0  0  0  0  0  0
  190.7980  177.0290  139.9180 C   0  0  0  0  0  2  0  0  0  0  0  0
  189.7010  177.7980  137.8100 C   0  0  0  0  0  3  0  0  0  0  0  0
  188.6530  178.5040  138.2410 C   0  0  0  0  0  3  0  0  0  0  0  0
  190.2980  176.6360  138.5410 C   0  0  1  0  0  3  0  0  0  0  0  0
  188.7790  178.2910  140.7710 C   0  0  0  0  0  2  0  0  0  0  0  0
  188.0350  178.3060  139.5170 N   0  0  0  0  0  2  0  0  0  0  0  0
  191.4030  176.0980  137.7670 N   0  0  0  0  0  2  0  0  0  0  0  0
  193.7180  176.4510  137.3970 N   0  0  0  0  0  1  0  0  0  0  0  0
  192.6240  176.6480  138.3300 C   0  0  0  0  0  2  0  0  0  0  0  0
  189.0690  178.3120  145.6880 C   0  0  0  0  0  2  0  0  0  0  0  0
  188.0390  177.3640  146.3180 C   0  0  2  0  0  3  0  0  0  0  0  0
  186.2560  177.4260  144.7380 O   0  0  0  0  0  0  0  0  0  0  0  0
  185.7490  178.2710  146.8050 O   0  0  0  0  0  1  0  0  0  0  0  0
  186.6330  177.6760  145.9120 C   0  0  0  0  0  0  0  0  0  0  0  0
  188.1800  177.2370  147.8030 C   0  0  0  0  0  3  0  0  0  0  0  0
  188.8560  178.0990  148.4680 N   0  0  0  0  0  2  0  0  0  0  0  0
  1  4  1  1  0  0  0
  1 19  1  0  0  0  0
  2  8  1  6  0  0  0
  2  3  1  0  0  0  0
  2  1  1  0  0  0  0
  3  1  1  0  0  0  0
  4  5  1  0  0  0  0
  5  7  1  0  0  0  0
  7  6  1  0  0  0  0
  9  8  1  1  0  0  0
 10  9  1  0  0  0  0
 11 12  2  0  0  0  0
 11 13  1  0  0  0  0
 12 15  1  0  0  0  0
 13 16  1  6  0  0  0
 13 10  1  0  0  0  0
 14  9  1  0  0  0  0
 15 14  1  0  0  0  0
 16 18  1  0  0  0  0
 17 18  1  0  0  0  0
 20 19  1  1  0  0  0
 20 24  1  0  0  0  0
 21 23  2  0  0  0  0
 23 20  1  0  0  0  0
 23 22  1  0  0  0  0
 24 25  2  0  0  0  0
M  END
>  <MODEL>
3

>  <REMARK>
 VINA RESULT:      -6.6      1.182      2.996
  Name = 
  11 active torsions:
  status: ('A' for Active; 'I' for Inactive)
    1  A    between atoms: C_2  and  C_4
    2  A    between atoms: C_2  and  C_24
    3  A    between atoms: C_4  and  C_19
    4  A    between atoms: C_6  and  C_10
    5  A    between atoms: C_7  and  N_14
    6  A    between atoms: C_8  and  N_14
    7  A    between atoms: C_9  and  C_10
    8  A    between atoms: C_10  and  C_19
    9  A    between atoms: N_13  and  C_17
   10  A    between atoms: N_13  and  C_25
   11  A    between atoms: C_18  and  C_24
                            x       y       z     vdW  Elec       q    Type
                         _______ _______ _______ _____ _____    ______ ____

>  <TORSDO>
F 11

$$$$
=
 OpenBabel10222418093D

 25 26  0  0  1  0  0  0  0  0999 V2000
  187.8840  177.5990  144.6140 C   0  0  2  0  0  0  0  0  0  0  0  0
  187.2180  178.0060  143.3020 C   0  0  1  0  0  3  0  0  0  0  0  0
  187.7400  176.5900  143.4950 C   0  0  0  0  0  2  0  0  0  0  0  0
  187.0080  177.2840  145.8310 C   0  0  0  0  0  2  0  0  0  0  0  0
  187.2170  178.2780  146.9640 C   0  0  0  0  0  2  0  0  0  0  0  0
  184.7750  178.3660  146.5840 C   0  0  0  0  0  1  0  0  0  0  0  0
  185.9510  179.0710  147.2210 C   0  0  0  0  0  2  0  0  0  0  0  0
  185.7590  177.9990  143.4110 N   0  0  0  0  0  2  0  0  0  0  0  0
  185.1320  178.0870  142.0890 C   0  0  2  0  0  3  0  0  0  0  0  0
  186.0210  178.8260  141.0940 C   0  0  0  0  0  2  0  0  0  0  0  0
  184.4750  179.1730  139.1610 C   0  0  0  0  0  3  0  0  0  0  0  0
  183.2640  179.1510  139.7200 C   0  0  0  0  0  3  0  0  0  0  0  0
  185.6610  178.4170  139.6770 C   0  0  1  0  0  3  0  0  0  0  0  0
  183.7390  178.6990  142.1770 C   0  0  0  0  0  2  0  0  0  0  0  0
  182.9730  178.4860  140.9550 N   0  0  0  0  0  2  0  0  0  0  0  0
  186.7990  178.6560  138.8070 N   0  0  0  0  0  2  0  0  0  0  0  0
  189.1670  178.6200  138.9110 N   0  0  0  0  0  1  0  0  0  0  0  0
  187.9500  178.0240  139.4290 C   0  0  0  0  0  2  0  0  0  0  0  0
  189.3360  178.0440  144.8030 C   0  0  0  0  0  2  0  0  0  0  0  0
  190.3610  176.9020  144.8490 C   0  0  2  0  0  3  0  0  0  0  0  0
  192.1630  176.2380  146.2620 O   0  0  0  0  0  0  0  0  0  0  0  0
  190.3820  177.1880  147.3440 O   0  0  0  0  0  1  0  0  0  0  0  0
  191.0240  176.7670  146.1840 C   0  0  0  0  0  0  0  0  0  0  0  0
  191.3560  176.9520  143.7310 C   0  0  0  0  0  3  0  0  0  0  0  0
  191.4280  177.9800  142.9690 N   0  0  0  0  0  2  0  0  0  0  0  0
  1 19  1  1  0  0  0
  1  4  1  0  0  0  0
  2  8  1  1  0  0  0
  2  3  1  0  0  0  0
  2  1  1  0  0  0  0
  3  1  1  0  0  0  0
  4  5  1  0  0  0  0
  5  7  1  0  0  0  0
  6  7  1  0  0  0  0
  9 14  1  0  0  0  0
  9  8  1  1  0  0  0
 10  9  1  0  0  0  0
 11 13  1  0  0  0  0
 11 12  2  0  0  0  0
 12 15  1  0  0  0  0
 13 16  1  6  0  0  0
 13 10  1  0  0  0  0
 15 14  1  0  0  0  0
 16 18  1  0  0  0  0
 17 18  1  0  0  0  0
 19 20  1  0  0  0  0
 20 24  1  6  0  0  0
 20 23  1  0  0  0  0
 23 21  2  0  0  0  0
 23 22  1  0  0  0  0
 25 24  2  0  0  0  0
M  END
>  <MODEL>
4

>  <REMARK>
 VINA RESULT:      -6.6      2.412      4.956
  Name = 
  11 active torsions:
  status: ('A' for Active; 'I' for Inactive)
    1  A    between atoms: C_2  and  C_4
    2  A    between atoms: C_2  and  C_24
    3  A    between atoms: C_4  and  C_19
    4  A    between atoms: C_6  and  C_10
    5  A    between atoms: C_7  and  N_14
    6  A    between atoms: C_8  and  N_14
    7  A    between atoms: C_9  and  C_10
    8  A    between atoms: C_10  and  C_19
    9  A    between atoms: N_13  and  C_17
   10  A    between atoms: N_13  and  C_25
   11  A    between atoms: C_18  and  C_24
                            x       y       z     vdW  Elec       q    Type
                         _______ _______ _______ _____ _____    ______ ____

>  <TORSDO>
F 11

$$$$
=
 OpenBabel10222418093D

 25 26  0  0  1  0  0  0  0  0999 V2000
  189.4680  177.7130  143.6620 C   0  0  2  0  0  0  0  0  0  0  0  0
  187.9620  177.5170  143.5050 C   0  0  1  0  0  3  0  0  0  0  0  0
  188.8940  176.3160  143.5680 C   0  0  0  0  0  2  0  0  0  0  0  0
  190.0380  178.0420  145.0460 C   0  0  0  0  0  2  0  0  0  0  0  0
  191.1150  177.0550  145.4740 C   0  0  0  0  0  2  0  0  0  0  0  0
  192.0970  175.9350  147.4490 C   0  0  0  0  0  1  0  0  0  0  0  0
  190.8320  176.5260  146.8670 C   0  0  0  0  0  2  0  0  0  0  0  0
  187.2620  177.6510  144.7830 N   0  0  0  0  0  2  0  0  0  0  0  0
  185.8380  177.9270  144.5770 C   0  0  2  0  0  3  0  0  0  0  0  0
  185.5640  178.4420  143.1680 C   0  0  0  0  0  2  0  0  0  0  0  0
  183.1940  179.2160  143.3400 C   0  0  0  0  0  3  0  0  0  0  0  0
  183.0460  179.4870  144.6380 C   0  0  0  0  0  3  0  0  0  0  0  0
  184.1180  178.1720  142.7920 C   0  0  1  0  0  3  0  0  0  0  0  0
  185.2960  178.8680  145.6460 C   0  0  0  0  0  2  0  0  0  0  0  0
  183.8390  178.8870  145.6680 N   0  0  0  0  0  2  0  0  0  0  0  0
  184.0000  178.1370  141.3450 N   0  0  0  0  0  2  0  0  0  0  0  0
  184.6130  179.7320  139.7020 N   0  0  0  0  0  1  0  0  0  0  0  0
  185.0940  178.9280  140.8090 C   0  0  0  0  0  2  0  0  0  0  0  0
  190.2350  178.1050  142.3970 C   0  0  0  0  0  2  0  0  0  0  0  0
  189.6660  177.5300  141.0920 C   0  0  2  0  0  3  0  0  0  0  0  0
  190.4460  175.9730  139.4660 O   0  0  0  0  0  0  0  0  0  0  0  0
  192.0090  177.4810  140.1900 O   0  0  0  0  0  1  0  0  0  0  0  0
  190.7210  176.9580  140.1980 C   0  0  0  0  0  0  0  0  0  0  0  0
  188.7690  178.4840  140.3650 C   0  0  0  0  0  3  0  0  0  0  0  0
  188.9680  178.7480  139.1270 N   0  0  0  0  0  2  0  0  0  0  0  0
  1 19  1  6  0  0  0
  1  4  1  0  0  0  0
  2  3  1  0  0  0  0
  2  1  1  0  0  0  0
  2  8  1  1  0  0  0
  3  1  1  0  0  0  0
  4  5  1  0  0  0  0
  5  7  1  0  0  0  0
  7  6  1  0  0  0  0
  9  8  1  1  0  0  0
  9 14  1  0  0  0  0
 10  9  1  0  0  0  0
 11 12  2  0  0  0  0
 12 15  1  0  0  0  0
 13 16  1  6  0  0  0
 13 10  1  0  0  0  0
 13 11  1  0  0  0  0
 14 15  1  0  0  0  0
 17 18  1  0  0  0  0
 18 16  1  0  0  0  0
 20 24  1  6  0  0  0
 20 19  1  0  0  0  0
 21 23  2  0  0  0  0
 22 23  1  0  0  0  0
 23 20  1  0  0  0  0
 25 24  2  0  0  0  0
M  END
>  <MODEL>
5

>  <REMARK>
 VINA RESULT:      -6.5      2.813      5.522
  Name = 
  11 active torsions:
  status: ('A' for Active; 'I' for Inactive)
    1  A    between atoms: C_2  and  C_4
    2  A    between atoms: C_2  and  C_24
    3  A    between atoms: C_4  and  C_19
    4  A    between atoms: C_6  and  C_10
    5  A    between atoms: C_7  and  N_14
    6  A    between atoms: C_8  and  N_14
    7  A    between atoms: C_9  and  C_10
    8  A    between atoms: C_10  and  C_19
    9  A    between atoms: N_13  and  C_17
   10  A    between atoms: N_13  and  C_25
   11  A    between atoms: C_18  and  C_24
                            x       y       z     vdW  Elec       q    Type
                         _______ _______ _______ _____ _____    ______ ____

>  <TORSDO>
F 11

$$$$
=
 OpenBabel10222418093D

 25 26  0  0  1  0  0  0  0  0999 V2000
  187.9710  177.4910  144.3420 C   0  0  2  0  0  0  0  0  0  0  0  0
  187.0220  177.8410  143.1990 C   0  0  1  0  0  3  0  0  0  0  0  0
  186.8060  176.5800  144.0220 C   0  0  0  0  0  2  0  0  0  0  0  0
  187.8240  178.2150  145.6840 C   0  0  0  0  0  2  0  0  0  0  0  0
  187.3550  177.2820  146.7920 C   0  0  0  0  0  2  0  0  0  0  0  0
  188.3870  178.2080  148.8410 C   0  0  0  0  0  1  0  0  0  0  0  0
  188.4470  177.0880  147.8260 C   0  0  0  0  0  2  0  0  0  0  0  0
  186.0410  178.8500  143.5990 N   0  0  0  0  0  2  0  0  0  0  0  0
  185.0970  179.1270  142.5130 C   0  0  2  0  0  3  0  0  0  0  0  0
  183.8080  178.3270  142.6720 C   0  0  0  0  0  2  0  0  0  0  0  0
  182.6830  178.6930  140.4710 C   0  0  0  0  0  3  0  0  0  0  0  0
  183.6950  178.9600  139.6430 C   0  0  0  0  0  3  0  0  0  0  0  0
  182.6770  179.0170  141.9340 C   0  0  1  0  0  3  0  0  0  0  0  0
  185.7420  178.9090  141.1500 C   0  0  0  0  0  2  0  0  0  0  0  0
  184.9520  179.4940  140.0740 N   0  0  0  0  0  2  0  0  0  0  0  0
  181.4090  178.6080  142.5110 N   0  0  0  0  0  2  0  0  0  0  0  0
  180.0520  180.5290  142.8060 N   0  0  0  0  0  1  0  0  0  0  0  0
  180.3800  179.4380  141.9080 C   0  0  0  0  0  2  0  0  0  0  0  0
  189.3120  176.8700  143.9420 C   0  0  0  0  0  2  0  0  0  0  0  0
  190.5430  177.5190  144.5910 C   0  0  2  0  0  3  0  0  0  0  0  0
  191.6910  179.5090  143.9550 O   0  0  0  0  0  1  0  0  0  0  0  0
  191.6710  177.8550  142.3730 O   0  0  0  0  0  0  0  0  0  0  0  0
  191.3410  178.3450  143.6310 C   0  0  0  0  0  0  0  0  0  0  0  0
  191.3990  176.5480  145.3430 C   0  0  0  0  0  3  0  0  0  0  0  0
  191.6850  176.7510  146.5760 N   0  0  0  0  0  2  0  0  0  0  0  0
  1 19  1  6  0  0  0
  1  4  1  0  0  0  0
  2  8  1  1  0  0  0
  2  3  1  0  0  0  0
  2  1  1  0  0  0  0
  3  1  1  0  0  0  0
  4  5  1  0  0  0  0
  5  7  1  0  0  0  0
  7  6  1  0  0  0  0
  9 10  1  0  0  0  0
  9  8  1  1  0  0  0
 11 13  1  0  0  0  0
 12 15  1  0  0  0  0
 12 11  2  0  0  0  0
 13 16  1  1  0  0  0
 13 10  1  0  0  0  0
 14  9  1  0  0  0  0
 15 14  1  0  0  0  0
 18 16  1  0  0  0  0
 18 17  1  0  0  0  0
 20 19  1  6  0  0  0
 20 24  1  0  0  0  0
 22 23  2  0  0  0  0
 23 21  1  0  0  0  0
 23 20  1  0  0  0  0
 24 25  2  0  0  0  0
M  END
>  <MODEL>
6

>  <REMARK>
 VINA RESULT:      -6.3      3.196      4.993
  Name = 
  11 active torsions:
  status: ('A' for Active; 'I' for Inactive)
    1  A    between atoms: C_2  and  C_4
    2  A    between atoms: C_2  and  C_24
    3  A    between atoms: C_4  and  C_19
    4  A    between atoms: C_6  and  C_10
    5  A    between atoms: C_7  and  N_14
    6  A    between atoms: C_8  and  N_14
    7  A    between atoms: C_9  and  C_10
    8  A    between atoms: C_10  and  C_19
    9  A    between atoms: N_13  and  C_17
   10  A    between atoms: N_13  and  C_25
   11  A    between atoms: C_18  and  C_24
                            x       y       z     vdW  Elec       q    Type
                         _______ _______ _______ _____ _____    ______ ____

>  <TORSDO>
F 11

$$$$
=
 OpenBabel10222418093D

 25 26  0  0  1  0  0  0  0  0999 V2000
  187.8770  177.6630  144.3620 C   0  0  2  0  0  0  0  0  0  0  0  0
  187.0340  177.9160  143.1140 C   0  0  1  0  0  3  0  0  0  0  0  0
  187.4680  176.5040  143.4790 C   0  0  0  0  0  2  0  0  0  0  0  0
  187.1950  177.6500  145.7340 C   0  0  0  0  0  2  0  0  0  0  0  0
  188.1390  177.2010  146.8410 C   0  0  0  0  0  2  0  0  0  0  0  0
  189.4430  178.2470  148.6650 C   0  0  0  0  0  1  0  0  0  0  0  0
  188.0790  178.1590  148.0160 C   0  0  0  0  0  2  0  0  0  0  0  0
  185.6180  178.0850  143.4420 N   0  0  0  0  0  2  0  0  0  0  0  0
  184.8880  178.6890  142.3250 C   0  0  2  0  0  3  0  0  0  0  0  0
  183.5190  178.0430  142.1330 C   0  0  0  0  0  2  0  0  0  0  0  0
  182.7960  178.9790  139.9330 C   0  0  0  0  0  3  0  0  0  0  0  0
  183.9460  179.2760  139.3250 C   0  0  0  0  0  3  0  0  0  0  0  0
  182.5900  179.0040  141.4160 C   0  0  1  0  0  3  0  0  0  0  0  0
  185.7160  178.6670  141.0450 C   0  0  0  0  0  2  0  0  0  0  0  0
  185.1650  179.5500  140.0250 N   0  0  0  0  0  2  0  0  0  0  0  0
  181.2130  178.6520  141.7160 N   0  0  0  0  0  2  0  0  0  0  0  0
  180.0650  180.5480  142.5570 N   0  0  0  0  0  1  0  0  0  0  0  0
  180.8410  179.3770  142.9190 C   0  0  0  0  0  2  0  0  0  0  0  0
  189.3710  177.9750  144.2450 C   0  0  0  0  0  2  0  0  0  0  0  0
  190.2310  176.8230  143.7040 C   0  0  2  0  0  3  0  0  0  0  0  0
  191.9870  175.3960  144.4490 O   0  0  0  0  0  0  0  0  0  0  0  0
  191.7920  177.3700  145.5920 O   0  0  0  0  0  1  0  0  0  0  0  0
  191.3890  176.4940  144.5910 C   0  0  0  0  0  0  0  0  0  0  0  0
  190.6500  177.0150  142.2790 C   0  0  0  0  0  3  0  0  0  0  0  0
  191.7850  177.5420  142.0000 N   0  0  0  0  0  2  0  0  0  0  0  0
  1 19  1  6  0  0  0
  1  4  1  0  0  0  0
  2  8  1  1  0  0  0
  2  3  1  0  0  0  0
  2  1  1  0  0  0  0
  3  1  1  0  0  0  0
  4  5  1  0  0  0  0
  5  7  1  0  0  0  0
  7  6  1  0  0  0  0
  9  8  1  1  0  0  0
 10  9  1  0  0  0  0
 11 13  1  0  0  0  0
 12 11  2  0  0  0  0
 12 15  1  0  0  0  0
 13 16  1  6  0  0  0
 13 10  1  0  0  0  0
 14  9  1  0  0  0  0
 15 14  1  0  0  0  0
 16 18  1  0  0  0  0
 17 18  1  0  0  0  0
 20 24  1  6  0  0  0
 20 19  1  0  0  0  0
 20 23  1  0  0  0  0
 21 23  2  0  0  0  0
 23 22  1  0  0  0  0
 25 24  2  0  0  0  0
M  END
>  <MODEL>
7

>  <REMARK>
 VINA RESULT:      -6.2      3.034      5.064
  Name = 
  11 active torsions:
  status: ('A' for Active; 'I' for Inactive)
    1  A    between atoms: C_2  and  C_4
    2  A    between atoms: C_2  and  C_24
    3  A    between atoms: C_4  and  C_19
    4  A    between atoms: C_6  and  C_10
    5  A    between atoms: C_7  and  N_14
    6  A    between atoms: C_8  and  N_14
    7  A    between atoms: C_9  and  C_10
    8  A    between atoms: C_10  and  C_19
    9  A    between atoms: N_13  and  C_17
   10  A    between atoms: N_13  and  C_25
   11  A    between atoms: C_18  and  C_24
                            x       y       z     vdW  Elec       q    Type
                         _______ _______ _______ _____ _____    ______ ____

>  <TORSDO>
F 11

$$$$
=
 OpenBabel10222418093D

 25 26  0  0  1  0  0  0  0  0999 V2000
  187.9830  177.7820  144.3270 C   0  0  2  0  0  0  0  0  0  0  0  0
  186.7020  178.0870  143.5550 C   0  0  1  0  0  3  0  0  0  0  0  0
  187.1830  176.6530  143.7140 C   0  0  0  0  0  2  0  0  0  0  0  0
  187.9500  177.7850  145.8600 C   0  0  0  0  0  2  0  0  0  0  0  0
  189.3250  177.5410  146.4650 C   0  0  0  0  0  2  0  0  0  0  0  0
  187.9190  178.1700  148.4020 C   0  0  0  0  0  1  0  0  0  0  0  0
  189.2650  177.6230  147.9780 C   0  0  0  0  0  2  0  0  0  0  0  0
  185.5700  178.3180  144.4520 N   0  0  0  0  0  2  0  0  0  0  0  0
  184.3000  178.2600  143.7230 C   0  0  2  0  0  3  0  0  0  0  0  0
  184.4730  178.6560  142.2610 C   0  0  0  0  0  2  0  0  0  0  0  0
  182.1070  178.8820  141.4900 C   0  0  0  0  0  3  0  0  0  0  0  0
  181.4360  179.1520  142.6120 C   0  0  0  0  0  3  0  0  0  0  0  0
  183.3550  178.0580  141.4270 C   0  0  1  0  0  3  0  0  0  0  0  0
  183.2250  179.0870  144.4180 C   0  0  0  0  0  2  0  0  0  0  0  0
  181.8910  178.7780  143.9170 N   0  0  0  0  0  2  0  0  0  0  0  0
  183.7920  177.9530  140.0460 N   0  0  0  0  0  2  0  0  0  0  0  0
  185.0320  179.3210  138.5600 N   0  0  0  0  0  1  0  0  0  0  0  0
  183.9770  179.3070  139.5550 C   0  0  0  0  0  2  0  0  0  0  0  0
  189.2970  178.0240  143.5830 C   0  0  0  0  0  2  0  0  0  0  0  0
  189.9950  176.7550  143.0730 C   0  0  2  0  0  3  0  0  0  0  0  0
  191.7240  175.3240  143.8740 O   0  0  0  0  0  0  0  0  0  0  0  0
  192.0650  177.5570  144.2460 O   0  0  0  0  0  1  0  0  0  0  0  0
  191.3110  176.5050  143.7410 C   0  0  0  0  0  0  0  0  0  0  0  0
  190.1020  176.6960  141.5800 C   0  0  0  0  0  3  0  0  0  0  0  0
  189.3640  177.4430  140.8450 N   0  0  0  0  0  2  0  0  0  0  0  0
  1 19  1  6  0  0  0
  1  4  1  0  0  0  0
  2  3  1  0  0  0  0
  2  1  1  0  0  0  0
  2  8  1  1  0  0  0
  3  1  1  0  0  0  0
  4  5  1  0  0  0  0
  5  7  1  0  0  0  0
  7  6  1  0  0  0  0
  9 14  1  0  0  0  0
  9  8  1  1  0  0  0
 10  9  1  0  0  0  0
 11 12  2  0  0  0  0
 12 15  1  0  0  0  0
 13 16  1  6  0  0  0
 13 11  1  0  0  0  0
 13 10  1  0  0  0  0
 15 14  1  0  0  0  0
 17 18  1  0  0  0  0
 18 16  1  0  0  0  0
 20 24  1  6  0  0  0
 20 19  1  0  0  0  0
 20 23  1  0  0  0  0
 23 21  2  0  0  0  0
 23 22  1  0  0  0  0
 25 24  2  0  0  0  0
M  END
>  <MODEL>
8

>  <REMARK>
 VINA RESULT:      -6.2      2.959      5.570
  Name = 
  11 active torsions:
  status: ('A' for Active; 'I' for Inactive)
    1  A    between atoms: C_2  and  C_4
    2  A    between atoms: C_2  and  C_24
    3  A    between atoms: C_4  and  C_19
    4  A    between atoms: C_6  and  C_10
    5  A    between atoms: C_7  and  N_14
    6  A    between atoms: C_8  and  N_14
    7  A    between atoms: C_9  and  C_10
    8  A    between atoms: C_10  and  C_19
    9  A    between atoms: N_13  and  C_17
   10  A    between atoms: N_13  and  C_25
   11  A    between atoms: C_18  and  C_24
                            x       y       z     vdW  Elec       q    Type
                         _______ _______ _______ _____ _____    ______ ____

>  <TORSDO>
F 11

$$$$
=
 OpenBabel10222418093D

 25 26  0  0  1  0  0  0  0  0999 V2000
  188.4950  177.7520  143.6070 C   0  0  2  0  0  0  0  0  0  0  0  0
  189.0470  177.9140  142.1930 C   0  0  1  0  0  3  0  0  0  0  0  0
  188.9050  176.5320  142.8110 C   0  0  0  0  0  2  0  0  0  0  0  0
  186.9820  177.8480  143.8330 C   0  0  0  0  0  2  0  0  0  0  0  0
  186.6020  177.6190  145.2890 C   0  0  0  0  0  2  0  0  0  0  0  0
  184.8300  179.1520  144.4980 C   0  0  0  0  0  1  0  0  0  0  0  0
  185.5230  178.5920  145.7200 C   0  0  0  0  0  2  0  0  0  0  0  0
  187.9790  178.1160  141.2140 N   0  0  0  0  0  2  0  0  0  0  0  0
  188.3280  177.5170  139.9230 C   0  0  2  0  0  3  0  0  0  0  0  0
  189.7940  177.7500  139.5730 C   0  0  0  0  0  2  0  0  0  0  0  0
  189.8910  177.0200  137.1850 C   0  0  0  0  0  3  0  0  0  0  0  0
  188.6380  177.1830  136.7570 C   0  0  0  0  0  3  0  0  0  0  0  0
  190.2680  176.6890  138.5970 C   0  0  1  0  0  3  0  0  0  0  0  0
  187.3930  177.9960  138.8190 C   0  0  0  0  0  2  0  0  0  0  0  0
  187.4970  177.1710  137.6210 N   0  0  0  0  0  2  0  0  0  0  0  0
  191.7110  176.5620  138.6920 N   0  0  0  0  0  2  0  0  0  0  0  0
  193.5670  177.4990  139.8310 N   0  0  0  0  0  1  0  0  0  0  0  0
  192.1290  177.3140  139.8620 C   0  0  0  0  0  2  0  0  0  0  0  0
  189.4670  178.0440  144.7520 C   0  0  0  0  0  2  0  0  0  0  0  0
  190.2170  176.8180  145.2910 C   0  0  2  0  0  3  0  0  0  0  0  0
  191.4000  176.7710  147.3600 O   0  0  0  0  0  0  0  0  0  0  0  0
  189.1180  176.7330  147.5470 O   0  0  0  0  0  1  0  0  0  0  0  0
  190.2800  176.7840  146.7860 C   0  0  0  0  0  0  0  0  0  0  0  0
  191.5650  176.6250  144.6670 C   0  0  0  0  0  3  0  0  0  0  0  0
  191.9160  175.4760  144.2200 N   0  0  0  0  0  2  0  0  0  0  0  0
  1  4  1  1  0  0  0
  1 19  1  0  0  0  0
  2  8  1  6  0  0  0
  2  3  1  0  0  0  0
  2  1  1  0  0  0  0
  3  1  1  0  0  0  0
  4  5  1  0  0  0  0
  5  7  1  0  0  0  0
  6  7  1  0  0  0  0
  9  8  1  1  0  0  0
 10  9  1  0  0  0  0
 11 13  1  0  0  0  0
 12 11  2  0  0  0  0
 12 15  1  0  0  0  0
 13 16  1  6  0  0  0
 13 10  1  0  0  0  0
 14  9  1  0  0  0  0
 15 14  1  0  0  0  0
 16 18  1  0  0  0  0
 17 18  1  0  0  0  0
 19 20  1  0  0  0  0
 20 24  1  6  0  0  0
 20 23  1  0  0  0  0
 23 21  2  0  0  0  0
 23 22  1  0  0  0  0
 25 24  2  0  0  0  0
M  END
>  <MODEL>
9

>  <REMARK>
 VINA RESULT:      -6.1      2.314      4.529
  Name = 
  11 active torsions:
  status: ('A' for Active; 'I' for Inactive)
    1  A    between atoms: C_2  and  C_4
    2  A    between atoms: C_2  and  C_24
    3  A    between atoms: C_4  and  C_19
    4  A    between atoms: C_6  and  C_10
    5  A    between atoms: C_7  and  N_14
    6  A    between atoms: C_8  and  N_14
    7  A    between atoms: C_9  and  C_10
    8  A    between atoms: C_10  and  C_19
    9  A    between atoms: N_13  and  C_17
   10  A    between atoms: N_13  and  C_25
   11  A    between atoms: C_18  and  C_24
                            x       y       z     vdW  Elec       q    Type
                         _______ _______ _______ _____ _____    ______ ____

>  <TORSDO>
F 11

$$$$
