=
 OpenBabel10222417283D

 44 45  0  0  1  0  0  0  0  0999 V2000
  185.8640  178.5220  143.6100 N   0  0  0  0  0  0  0  0  0  0  0  0
  187.0900  177.1740  145.1820 N   0  0  0  0  0  0  0  0  0  0  0  0
  185.9910  177.7730  144.8240 C   0  0  0  0  0  3  0  0  0  0  0  0
  188.3690  177.2880  144.5430 C   0  0  0  0  0  0  0  0  0  0  0  0
  190.8160  177.4340  143.2090 C   0  0  0  0  0  0  0  0  0  0  0  0
  190.5660  178.3560  144.3670 C   0  0  0  0  0  2  0  0  0  0  0  0
  191.9370  177.4940  142.5770 N   0  0  0  0  0  2  0  0  0  0  0  0
  188.7680  176.2730  143.5570 C   0  0  0  0  0  3  0  0  0  0  0  0
  189.2040  178.2250  144.8920 N   0  0  0  0  0  0  0  0  0  0  0  0
  189.9070  176.3620  142.9410 N   0  0  0  0  0  0  0  0  0  0  0  0
  184.9530  179.6550  143.6060 C   0  0  0  0  0  2  0  0  0  0  0  0
  183.5600  179.2010  144.0070 C   0  0  0  0  0  2  0  0  0  0  0  0
  182.8990  178.4350  142.8710 C   0  0  0  0  0  2  0  0  0  0  0  0
  181.8300  179.2720  142.1770 C   0  0  1  0  0  3  0  0  0  0  0  0
  181.3930  178.6360  140.8860 C   0  0  0  0  0  3  0  0  0  0  0  0
  181.9820  177.5410  140.3970 C   0  0  0  0  0  3  0  0  0  0  0  0
  182.9010  176.8840  137.9300 S   0  0  0  0  0  0  0  0  0  0  0  0
  181.5220  176.9300  139.1160 C   0  0  1  0  0  3  0  0  0  0  0  0
  181.0390  175.5100  139.3430 C   0  0  0  0  0  2  0  0  0  0  0  0
  182.5810  175.1400  137.5210 C   0  0  0  0  0  2  0  0  0  0  0  0
  181.2080  174.7820  138.0360 C   0  0  0  0  0  2  0  0  0  0  0  0
  180.6610  179.4880  143.1310 C   0  0  0  0  0  2  0  0  0  0  0  0
  180.0240  178.1690  143.5400 C   0  0  0  0  0  2  0  0  0  0  0  0
  179.1040  178.3790  144.5680 O   0  0  0  0  0  0  0  0  0  0  0  0
  178.9310  179.7610  144.6080 C   0  0  0  0  0  1  0  0  0  0  0  0
  186.1850  177.8740  142.3410 C   0  0  0  0  0  2  0  0  0  0  0  0
  186.4400  178.8980  141.2440 C   0  0  2  0  0  3  0  0  0  0  0  0
  185.5740  178.5860  140.0330 C   0  0  0  0  0  2  0  0  0  0  0  0
  184.8780  179.7270  139.6320 O   0  0  0  0  0  1  0  0  0  0  0  0
  187.9100  178.8520  140.8610 C   0  0  0  0  0  2  0  0  0  0  0  0
  188.2040  177.6030  140.1800 N   0  0  0  0  0  2  0  0  0  0  0  0
  189.1390  177.9070  139.1110 C   0  0  0  0  0  2  0  0  0  0  0  0
  188.8600  177.0090  137.9200 C   0  0  1  0  0  3  0  0  0  0  0  0
  187.8400  177.8660  136.7240 S   0  0  0  0  0  0  0  0  0  0  0  0
  188.5700  177.9530  135.4140 O   0  0  0  0  0  0  0  0  0  0  0  0
  187.5440  179.2550  137.2200 O   0  0  0  0  0  0  0  0  0  0  0  0
  186.3090  176.9830  136.4780 C   0  0  0  0  0  2  0  0  0  0  0  0
  186.1160  174.7120  137.1810 O   0  0  0  0  0  1  0  0  0  0  0  0
  187.3320  175.0600  135.2710 O   0  0  0  0  0  0  0  0  0  0  0  0
  186.5670  175.5240  136.3300 C   0  0  0  0  0  0  0  0  0  0  0  0
  190.1830  176.5920  137.2970 C   0  0  0  0  0  2  0  0  0  0  0  0
  189.7100  174.2610  137.4360 O   0  0  0  0  0  0  0  0  0  0  0  0
  191.7480  174.9060  138.2650 O   0  0  0  0  0  1  0  0  0  0  0  0
  190.5250  175.1900  137.6690 C   0  0  0  0  0  0  0  0  0  0  0  0
  1  3  1  0  0  0  0
  3  2  2  0  0  0  0
  4  9  2  0  0  0  0
  4  2  1  0  0  0  0
  5  6  1  0  0  0  0
  6  9  1  0  0  0  0
  7  5  2  0  0  0  0
  8  4  1  0  0  0  0
 10  5  1  0  0  0  0
 10  8  2  0  0  0  0
 11  1  1  0  0  0  0
 11 12  1  0  0  0  0
 13 12  1  0  0  0  0
 14 15  1  6  0  0  0
 14 13  1  0  0  0  0
 14 22  1  0  0  0  0
 16 15  2  0  0  0  0
 17 18  1  0  0  0  0
 18 19  1  0  0  0  0
 18 16  1  1  0  0  0
 20 17  1  0  0  0  0
 20 21  1  0  0  0  0
 21 19  1  0  0  0  0
 22 23  1  0  0  0  0
 23 24  1  0  0  0  0
 24 25  1  0  0  0  0
 26  1  1  0  0  0  0
 27 28  1  6  0  0  0
 27 26  1  0  0  0  0
 29 28  1  0  0  0  0
 30 27  1  0  0  0  0
 31 30  1  0  0  0  0
 32 31  1  0  0  0  0
 33 41  1  6  0  0  0
 33 32  1  0  0  0  0
 34 36  2  0  0  0  0
 34 33  1  0  0  0  0
 35 34  2  0  0  0  0
 37 34  1  0  0  0  0
 39 40  2  0  0  0  0
 40 37  1  0  0  0  0
 40 38  1  0  0  0  0
 41 44  1  0  0  0  0
 42 44  2  0  0  0  0
 44 43  1  0  0  0  0
M  END
>  <MODEL>
1

>  <REMARK>
 VINA RESULT:      -5.8      0.000      0.000
  Name = 
  22 active torsions:
  status: ('A' for Active; 'I' for Inactive)
    1  A    between atoms: C_1  and  C_3
    2  A    between atoms: C_1  and  C_9
    3  A    between atoms: C_1  and  C_18
    4  A    between atoms: C_5  and  C_18
    5  A    between atoms: C_5  and  C_38
    6  A    between atoms: C_6  and  N_32
    7  A    between atoms: C_6  and  C_43
    8  A    between atoms: C_7  and  N_13
    9  A    between atoms: C_7  and  C_35
   10  A    between atoms: C_8  and  N_29
   11  A    between atoms: C_9  and  C_36
   12  A    between atoms: C_10  and  C_25
   13  A    between atoms: C_11  and  S_15
   14  A    between atoms: C_11  and  C_30
   15  A    between atoms: O_12  and  C_36
   16  A    between atoms: N_13  and  C_38
   17  A    between atoms: S_15  and  C_43
   18  A    between atoms: C_22  and  C_35
   19  A    between atoms: C_23  and  C_40
   20  A    between atoms: C_23  and  C_43
   21  A    between atoms: C_26  and  N_32
   22  A    between atoms: C_26  and  C_35
                            x       y       z     vdW  Elec       q    Type
                         _______ _______ _______ _____ _____    ______ ____

>  <TORSDO>
F 22

$$$$
=
 OpenBabel10222417283D

 44 45  0  0  1  0  0  0  0  0999 V2000
  187.9370  177.9280  140.2850 N   0  0  0  0  0  0  0  0  0  0  0  0
  186.4480  179.4450  141.4120 N   0  0  0  0  0  0  0  0  0  0  0  0
  187.6290  178.9190  141.2730 C   0  0  0  0  0  3  0  0  0  0  0  0
  185.2460  179.0300  140.7490 C   0  0  0  0  0  0  0  0  0  0  0  0
  182.8710  178.1650  139.5650 C   0  0  0  0  0  0  0  0  0  0  0  0
  183.7360  179.1420  138.8230 C   0  0  0  0  0  2  0  0  0  0  0  0
  181.7670  177.7620  139.0360 N   0  0  0  0  0  2  0  0  0  0  0  0
  184.4700  177.9130  141.3090 C   0  0  0  0  0  3  0  0  0  0  0  0
  184.8900  179.5720  139.6190 N   0  0  0  0  0  0  0  0  0  0  0  0
  183.3640  177.5300  140.7480 N   0  0  0  0  0  0  0  0  0  0  0  0
  188.9590  176.9450  140.6070 C   0  0  0  0  0  2  0  0  0  0  0  0
  188.9970  176.7110  142.1080 C   0  0  0  0  0  2  0  0  0  0  0  0
  190.4330  176.6370  142.6010 C   0  0  0  0  0  2  0  0  0  0  0  0
  190.5510  177.0710  144.0570 C   0  0  1  0  0  3  0  0  0  0  0  0
  189.2600  176.8500  144.7990 C   0  0  0  0  0  3  0  0  0  0  0  0
  188.3430  177.8120  144.9330 C   0  0  0  0  0  3  0  0  0  0  0  0
  187.2300  178.1420  147.3850 S   0  0  0  0  0  0  0  0  0  0  0  0
  187.0700  177.5590  145.6690 C   0  0  1  0  0  3  0  0  0  0  0  0
  185.9190  178.3010  145.0170 C   0  0  0  0  0  2  0  0  0  0  0  0
  185.6430  179.0280  147.3040 C   0  0  0  0  0  2  0  0  0  0  0  0
  184.8900  178.5330  146.0930 C   0  0  0  0  0  2  0  0  0  0  0  0
  191.7170  176.3390  144.7100 C   0  0  0  0  0  2  0  0  0  0  0  0
  191.6960  176.4940  146.2230 C   0  0  0  0  0  2  0  0  0  0  0  0
  192.2900  175.3860  146.8280 O   0  0  0  0  0  0  0  0  0  0  0  0
  192.6090  175.8160  148.1140 C   0  0  0  0  0  1  0  0  0  0  0  0
  187.6560  178.2160  138.8820 C   0  0  0  0  0  2  0  0  0  0  0  0
  188.2420  177.1500  137.9680 C   0  0  2  0  0  3  0  0  0  0  0  0
  189.2930  177.7660  137.0580 C   0  0  0  0  0  2  0  0  0  0  0  0
  190.5500  177.2300  137.3410 O   0  0  0  0  0  1  0  0  0  0  0  0
  187.1220  176.5460  137.1380 C   0  0  0  0  0  2  0  0  0  0  0  0
  187.5730  176.3450  135.7710 N   0  0  0  0  0  2  0  0  0  0  0  0
  186.9860  175.1010  135.3040 C   0  0  0  0  0  2  0  0  0  0  0  0
  187.3030  173.9890  136.2870 C   0  0  1  0  0  3  0  0  0  0  0  0
  185.8350  173.0170  136.6150 S   0  0  0  0  0  0  0  0  0  0  0  0
  185.6390  172.8910  138.0990 O   0  0  0  0  0  0  0  0  0  0  0  0
  185.9970  171.6460  136.0180 O   0  0  0  0  0  0  0  0  0  0  0  0
  184.4030  173.8100  135.9050 C   0  0  0  0  0  2  0  0  0  0  0  0
  183.9650  175.4590  137.5710 O   0  0  0  0  0  1  0  0  0  0  0  0
  182.3580  173.8440  137.3250 O   0  0  0  0  0  0  0  0  0  0  0  0
  183.5660  174.4260  136.9710 C   0  0  0  0  0  0  0  0  0  0  0  0
  188.4050  173.1180  135.7080 C   0  0  0  0  0  2  0  0  0  0  0  0
  189.7310  173.9830  137.4890 O   0  0  0  0  0  1  0  0  0  0  0  0
  190.8980  173.0060  135.7740 O   0  0  0  0  0  0  0  0  0  0  0  0
  189.7080  173.3990  136.3750 C   0  0  0  0  0  0  0  0  0  0  0  0
  1 11  1  0  0  0  0
  1  3  1  0  0  0  0
  3  2  2  0  0  0  0
  4  8  1  0  0  0  0
  4  2  1  0  0  0  0
  5 10  1  0  0  0  0
  6  5  1  0  0  0  0
  6  9  1  0  0  0  0
  7  5  2  0  0  0  0
  9  4  2  0  0  0  0
 10  8  2  0  0  0  0
 11 12  1  0  0  0  0
 12 13  1  0  0  0  0
 14 13  1  6  0  0  0
 14 22  1  0  0  0  0
 14 15  1  0  0  0  0
 15 16  2  0  0  0  0
 18 16  1  6  0  0  0
 18 17  1  0  0  0  0
 19 18  1  0  0  0  0
 19 21  1  0  0  0  0
 20 17  1  0  0  0  0
 21 20  1  0  0  0  0
 22 23  1  0  0  0  0
 23 24  1  0  0  0  0
 24 25  1  0  0  0  0
 26  1  1  0  0  0  0
 27 28  1  6  0  0  0
 27 26  1  0  0  0  0
 28 29  1  0  0  0  0
 30 27  1  0  0  0  0
 31 30  1  0  0  0  0
 32 31  1  0  0  0  0
 33 32  1  6  0  0  0
 33 34  1  0  0  0  0
 34 35  2  0  0  0  0
 36 34  2  0  0  0  0
 37 34  1  0  0  0  0
 37 40  1  0  0  0  0
 40 39  2  0  0  0  0
 40 38  1  0  0  0  0
 41 33  1  0  0  0  0
 41 44  1  0  0  0  0
 43 44  2  0  0  0  0
 44 42  1  0  0  0  0
M  END
>  <MODEL>
2

>  <REMARK>
 VINA RESULT:      -5.8      3.233      7.357
  Name = 
  22 active torsions:
  status: ('A' for Active; 'I' for Inactive)
    1  A    between atoms: C_1  and  C_3
    2  A    between atoms: C_1  and  C_9
    3  A    between atoms: C_1  and  C_18
    4  A    between atoms: C_5  and  C_18
    5  A    between atoms: C_5  and  C_38
    6  A    between atoms: C_6  and  N_32
    7  A    between atoms: C_6  and  C_43
    8  A    between atoms: C_7  and  N_13
    9  A    between atoms: C_7  and  C_35
   10  A    between atoms: C_8  and  N_29
   11  A    between atoms: C_9  and  C_36
   12  A    between atoms: C_10  and  C_25
   13  A    between atoms: C_11  and  S_15
   14  A    between atoms: C_11  and  C_30
   15  A    between atoms: O_12  and  C_36
   16  A    between atoms: N_13  and  C_38
   17  A    between atoms: S_15  and  C_43
   18  A    between atoms: C_22  and  C_35
   19  A    between atoms: C_23  and  C_40
   20  A    between atoms: C_23  and  C_43
   21  A    between atoms: C_26  and  N_32
   22  A    between atoms: C_26  and  C_35
                            x       y       z     vdW  Elec       q    Type
                         _______ _______ _______ _____ _____    ______ ____

>  <TORSDO>
F 22

$$$$
=
 OpenBabel10222417283D

 44 45  0  0  1  0  0  0  0  0999 V2000
  184.9050  178.5740  139.1780 N   0  0  0  0  0  0  0  0  0  0  0  0
  182.7260  179.5240  138.8010 N   0  0  0  0  0  0  0  0  0  0  0  0
  183.9750  179.6630  139.1400 C   0  0  0  0  0  3  0  0  0  0  0  0
  182.0370  178.2870  138.5760 C   0  0  0  0  0  0  0  0  0  0  0  0
  180.7240  175.8880  138.0170 C   0  0  0  0  0  0  0  0  0  0  0  0
  180.9410  176.2780  139.4500 C   0  0  0  0  0  2  0  0  0  0  0  0
  180.1270  174.7800  137.7410 N   0  0  0  0  0  2  0  0  0  0  0  0
  181.5920  177.9530  137.2150 C   0  0  0  0  0  3  0  0  0  0  0  0
  181.7290  177.5070  139.5740 N   0  0  0  0  0  0  0  0  0  0  0  0
  180.9900  176.8300  136.9730 N   0  0  0  0  0  0  0  0  0  0  0  0
  185.9780  178.6330  140.1560 C   0  0  0  0  0  2  0  0  0  0  0  0
  185.4390  179.1380  141.4850 C   0  0  0  0  0  2  0  0  0  0  0  0
  184.3640  178.2020  142.0150 C   0  0  0  0  0  2  0  0  0  0  0  0
  184.4100  178.0980  143.5350 C   0  0  1  0  0  3  0  0  0  0  0  0
  185.8020  178.3340  144.0560 C   0  0  0  0  0  3  0  0  0  0  0  0
  186.1530  178.0340  145.3090 C   0  0  0  0  0  3  0  0  0  0  0  0
  187.6920  177.7220  147.5220 S   0  0  0  0  0  0  0  0  0  0  0  0
  187.5430  178.2750  145.7950 C   0  0  1  0  0  3  0  0  0  0  0  0
  188.5430  177.5010  144.9570 C   0  0  0  0  0  2  0  0  0  0  0  0
  189.2230  176.8050  147.1680 C   0  0  0  0  0  2  0  0  0  0  0  0
  189.7480  177.2680  145.8300 C   0  0  0  0  0  2  0  0  0  0  0  0
  183.4020  179.0680  144.1390 C   0  0  0  0  0  2  0  0  0  0  0  0
  182.0970  179.0750  143.3570 C   0  0  0  0  0  2  0  0  0  0  0  0
  181.0400  178.6950  144.1830 O   0  0  0  0  0  0  0  0  0  0  0  0
  179.9000  179.1530  143.5280 C   0  0  0  0  0  1  0  0  0  0  0  0
  185.0900  177.7610  137.9790 C   0  0  0  0  0  2  0  0  0  0  0  0
  186.5660  177.5500  137.6730 C   0  0  2  0  0  3  0  0  0  0  0  0
  187.0160  178.5220  136.5940 C   0  0  0  0  0  2  0  0  0  0  0  0
  187.8230  179.5170  137.1460 O   0  0  0  0  0  1  0  0  0  0  0  0
  186.7720  176.1190  137.2070 C   0  0  0  0  0  2  0  0  0  0  0  0
  188.0260  176.0120  136.4800 N   0  0  0  0  0  2  0  0  0  0  0  0
  188.6850  174.8000  136.9360 C   0  0  0  0  0  2  0  0  0  0  0  0
  190.0710  175.1380  137.4510 C   0  0  1  0  0  3  0  0  0  0  0  0
  191.3140  174.6080  136.2770 S   0  0  0  0  0  0  0  0  0  0  0  0
  190.6420  174.0590  135.0500 O   0  0  0  0  0  0  0  0  0  0  0  0
  192.1660  173.5340  136.8980 O   0  0  0  0  0  0  0  0  0  0  0  0
  192.3430  175.9880  135.8080 C   0  0  0  0  0  2  0  0  0  0  0  0
  194.6640  175.5200  136.0930 O   0  0  0  0  0  0  0  0  0  0  0  0
  193.6140  176.4720  137.8930 O   0  0  0  0  0  1  0  0  0  0  0  0
  193.6070  175.9870  136.5940 C   0  0  0  0  0  0  0  0  0  0  0  0
  190.1570  176.6380  137.6840 C   0  0  0  0  0  2  0  0  0  0  0  0
  190.6240  176.1520  139.9700 O   0  0  0  0  0  1  0  0  0  0  0  0
  189.5300  178.1290  139.5840 O   0  0  0  0  0  0  0  0  0  0  0  0
  190.1170  176.9500  139.1410 C   0  0  0  0  0  0  0  0  0  0  0  0
  1 11  1  0  0  0  0
  2  3  2  0  0  0  0
  3  1  1  0  0  0  0
  4  2  1  0  0  0  0
  4  9  2  0  0  0  0
  5  6  1  0  0  0  0
  6  9  1  0  0  0  0
  7  5  2  0  0  0  0
  8  4  1  0  0  0  0
 10  8  2  0  0  0  0
 10  5  1  0  0  0  0
 11 12  1  0  0  0  0
 12 13  1  0  0  0  0
 14 13  1  6  0  0  0
 14 15  1  0  0  0  0
 14 22  1  0  0  0  0
 15 16  2  0  0  0  0
 18 16  1  6  0  0  0
 18 17  1  0  0  0  0
 19 18  1  0  0  0  0
 19 21  1  0  0  0  0
 20 17  1  0  0  0  0
 21 20  1  0  0  0  0
 23 22  1  0  0  0  0
 23 24  1  0  0  0  0
 25 24  1  0  0  0  0
 26  1  1  0  0  0  0
 27 28  1  6  0  0  0
 27 26  1  0  0  0  0
 28 29  1  0  0  0  0
 30 27  1  0  0  0  0
 31 32  1  0  0  0  0
 31 30  1  0  0  0  0
 33 32  1  6  0  0  0
 33 41  1  0  0  0  0
 34 36  2  0  0  0  0
 34 33  1  0  0  0  0
 35 34  2  0  0  0  0
 37 34  1  0  0  0  0
 37 40  1  0  0  0  0
 38 40  2  0  0  0  0
 40 39  1  0  0  0  0
 41 44  1  0  0  0  0
 44 43  2  0  0  0  0
 44 42  1  0  0  0  0
M  END
>  <MODEL>
3

>  <REMARK>
 VINA RESULT:      -5.7      3.379      6.877
  Name = 
  22 active torsions:
  status: ('A' for Active; 'I' for Inactive)
    1  A    between atoms: C_1  and  C_3
    2  A    between atoms: C_1  and  C_9
    3  A    between atoms: C_1  and  C_18
    4  A    between atoms: C_5  and  C_18
    5  A    between atoms: C_5  and  C_38
    6  A    between atoms: C_6  and  N_32
    7  A    between atoms: C_6  and  C_43
    8  A    between atoms: C_7  and  N_13
    9  A    between atoms: C_7  and  C_35
   10  A    between atoms: C_8  and  N_29
   11  A    between atoms: C_9  and  C_36
   12  A    between atoms: C_10  and  C_25
   13  A    between atoms: C_11  and  S_15
   14  A    between atoms: C_11  and  C_30
   15  A    between atoms: O_12  and  C_36
   16  A    between atoms: N_13  and  C_38
   17  A    between atoms: S_15  and  C_43
   18  A    between atoms: C_22  and  C_35
   19  A    between atoms: C_23  and  C_40
   20  A    between atoms: C_23  and  C_43
   21  A    between atoms: C_26  and  N_32
   22  A    between atoms: C_26  and  C_35
                            x       y       z     vdW  Elec       q    Type
                         _______ _______ _______ _____ _____    ______ ____

>  <TORSDO>
F 22

$$$$
=
 OpenBabel10222417283D

 44 45  0  0  1  0  0  0  0  0999 V2000
  188.2630  177.9890  142.7430 N   0  0  0  0  0  0  0  0  0  0  0  0
  187.2560  176.4270  144.2720 N   0  0  0  0  0  0  0  0  0  0  0  0
  187.3800  176.9090  143.0700 C   0  0  0  0  0  3  0  0  0  0  0  0
  187.8250  176.9700  145.4710 C   0  0  0  0  0  0  0  0  0  0  0  0
  188.8160  178.0500  147.8460 C   0  0  0  0  0  0  0  0  0  0  0  0
  189.7650  177.3500  146.9180 C   0  0  0  0  0  2  0  0  0  0  0  0
  189.2560  178.5470  148.9510 N   0  0  0  0  0  2  0  0  0  0  0  0
  187.0080  177.8580  146.3120 C   0  0  0  0  0  3  0  0  0  0  0  0
  189.0750  176.7550  145.7700 N   0  0  0  0  0  0  0  0  0  0  0  0
  187.4840  178.3440  147.4170 N   0  0  0  0  0  0  0  0  0  0  0  0
  187.8730  178.8800  141.6630 C   0  0  0  0  0  2  0  0  0  0  0  0
  186.4020  179.2380  141.7950 C   0  0  0  0  0  2  0  0  0  0  0  0
  185.6290  178.7800  140.5670 C   0  0  0  0  0  2  0  0  0  0  0  0
  184.1280  178.7370  140.8320 C   0  0  1  0  0  3  0  0  0  0  0  0
  183.4230  177.8580  139.8340 C   0  0  0  0  0  3  0  0  0  0  0  0
  182.1940  178.1320  139.3890 C   0  0  0  0  0  3  0  0  0  0  0  0
  182.4070  175.6560  138.3010 S   0  0  0  0  0  0  0  0  0  0  0  0
  181.5240  177.2440  138.3950 C   0  0  1  0  0  3  0  0  0  0  0  0
  180.0890  176.9710  138.8030 C   0  0  0  0  0  2  0  0  0  0  0  0
  180.8590  174.7090  138.4420 C   0  0  0  0  0  2  0  0  0  0  0  0
  179.7080  175.6520  138.1830 C   0  0  0  0  0  2  0  0  0  0  0  0
  183.8820  178.2840  142.2660 C   0  0  0  0  0  2  0  0  0  0  0  0
  182.6070  178.8920  142.8310 C   0  0  0  0  0  2  0  0  0  0  0  0
  182.5840  178.7540  144.2190 O   0  0  0  0  0  0  0  0  0  0  0  0
  183.9080  178.9360  144.6130 C   0  0  0  0  0  1  0  0  0  0  0  0
  189.6790  177.8720  143.0820 C   0  0  0  0  0  2  0  0  0  0  0  0
  190.3600  176.7910  142.2560 C   0  0  2  0  0  3  0  0  0  0  0  0
  190.6680  175.5860  143.1320 C   0  0  0  0  0  2  0  0  0  0  0  0
  191.7980  175.8330  143.9110 O   0  0  0  0  0  1  0  0  0  0  0  0
  191.6440  177.3550  141.6720 C   0  0  0  0  0  2  0  0  0  0  0  0
  191.4830  177.5740  140.2450 N   0  0  0  0  0  2  0  0  0  0  0  0
  190.4740  176.6400  139.7780 C   0  0  0  0  0  2  0  0  0  0  0  0
  189.9840  177.0640  138.4060 C   0  0  1  0  0  3  0  0  0  0  0  0
  190.3990  175.8180  137.1890 S   0  0  0  0  0  0  0  0  0  0  0  0
  190.4990  176.4560  135.8330 O   0  0  0  0  0  0  0  0  0  0  0  0
  189.3260  174.7640  137.1630 O   0  0  0  0  0  0  0  0  0  0  0  0
  191.9650  175.0630  137.5920 C   0  0  0  0  0  2  0  0  0  0  0  0
  193.5500  176.8440  137.6440 O   0  0  0  0  0  1  0  0  0  0  0  0
  193.6070  175.5170  135.7770 O   0  0  0  0  0  0  0  0  0  0  0  0
  193.0880  175.8530  137.0180 C   0  0  0  0  0  0  0  0  0  0  0  0
  188.4810  177.2780  138.4640 C   0  0  0  0  0  2  0  0  0  0  0  0
  186.9340  178.6600  137.2910 O   0  0  0  0  0  0  0  0  0  0  0  0
  189.0180  179.5620  137.6130 O   0  0  0  0  0  1  0  0  0  0  0  0
  188.0970  178.5310  137.7540 C   0  0  0  0  0  0  0  0  0  0  0  0
  1  3  1  0  0  0  0
  1 26  1  0  0  0  0
  2  4  1  0  0  0  0
  3  2  2  0  0  0  0
  4  9  2  0  0  0  0
  4  8  1  0  0  0  0
  5  7  2  0  0  0  0
  6  5  1  0  0  0  0
  8 10  2  0  0  0  0
  9  6  1  0  0  0  0
 10  5  1  0  0  0  0
 11 12  1  0  0  0  0
 11  1  1  0  0  0  0
 13 14  1  0  0  0  0
 13 12  1  0  0  0  0
 14 15  1  6  0  0  0
 14 22  1  0  0  0  0
 16 15  2  0  0  0  0
 17 18  1  0  0  0  0
 17 20  1  0  0  0  0
 18 19  1  0  0  0  0
 18 16  1  1  0  0  0
 21 20  1  0  0  0  0
 21 19  1  0  0  0  0
 22 23  1  0  0  0  0
 23 24  1  0  0  0  0
 24 25  1  0  0  0  0
 27 30  1  1  0  0  0
 27 26  1  0  0  0  0
 27 28  1  0  0  0  0
 28 29  1  0  0  0  0
 31 30  1  0  0  0  0
 32 31  1  0  0  0  0
 33 41  1  1  0  0  0
 33 32  1  0  0  0  0
 34 37  1  0  0  0  0
 34 33  1  0  0  0  0
 35 34  2  0  0  0  0
 36 34  2  0  0  0  0
 39 40  2  0  0  0  0
 40 37  1  0  0  0  0
 40 38  1  0  0  0  0
 42 44  2  0  0  0  0
 43 44  1  0  0  0  0
 44 41  1  0  0  0  0
M  END
>  <MODEL>
4

>  <REMARK>
 VINA RESULT:      -5.5      2.101      4.155
  Name = 
  22 active torsions:
  status: ('A' for Active; 'I' for Inactive)
    1  A    between atoms: C_1  and  C_3
    2  A    between atoms: C_1  and  C_9
    3  A    between atoms: C_1  and  C_18
    4  A    between atoms: C_5  and  C_18
    5  A    between atoms: C_5  and  C_38
    6  A    between atoms: C_6  and  N_32
    7  A    between atoms: C_6  and  C_43
    8  A    between atoms: C_7  and  N_13
    9  A    between atoms: C_7  and  C_35
   10  A    between atoms: C_8  and  N_29
   11  A    between atoms: C_9  and  C_36
   12  A    between atoms: C_10  and  C_25
   13  A    between atoms: C_11  and  S_15
   14  A    between atoms: C_11  and  C_30
   15  A    between atoms: O_12  and  C_36
   16  A    between atoms: N_13  and  C_38
   17  A    between atoms: S_15  and  C_43
   18  A    between atoms: C_22  and  C_35
   19  A    between atoms: C_23  and  C_40
   20  A    between atoms: C_23  and  C_43
   21  A    between atoms: C_26  and  N_32
   22  A    between atoms: C_26  and  C_35
                            x       y       z     vdW  Elec       q    Type
                         _______ _______ _______ _____ _____    ______ ____

>  <TORSDO>
F 22

$$$$
=
 OpenBabel10222417283D

 44 45  0  0  1  0  0  0  0  0999 V2000
  188.9610  177.2960  142.6610 N   0  0  0  0  0  0  0  0  0  0  0  0
  190.1410  178.8910  144.0230 N   0  0  0  0  0  0  0  0  0  0  0  0
  189.5070  178.5940  142.9270 C   0  0  0  0  0  3  0  0  0  0  0  0
  190.5430  177.9740  145.0500 C   0  0  0  0  0  0  0  0  0  0  0  0
  191.4300  176.1680  146.9840 C   0  0  0  0  0  0  0  0  0  0  0  0
  190.2230  177.0110  147.2800 C   0  0  0  0  0  2  0  0  0  0  0  0
  191.8570  175.3350  147.8700 N   0  0  0  0  0  2  0  0  0  0  0  0
  191.5680  176.9640  144.7470 C   0  0  0  0  0  3  0  0  0  0  0  0
  189.9490  177.9740  146.2100 N   0  0  0  0  0  0  0  0  0  0  0  0
  191.9730  176.1380  145.6610 N   0  0  0  0  0  0  0  0  0  0  0  0
  188.9130  176.8520  141.2780 C   0  0  0  0  0  2  0  0  0  0  0  0
  190.3200  176.7780  140.7090 C   0  0  0  0  0  2  0  0  0  0  0  0
  190.3170  177.1310  139.2290 C   0  0  0  0  0  2  0  0  0  0  0  0
  190.7990  175.9660  138.3730 C   0  0  1  0  0  3  0  0  0  0  0  0
  189.6520  175.2950  137.6670 C   0  0  0  0  0  3  0  0  0  0  0  0
  188.8670  175.9490  136.8060 C   0  0  0  0  0  3  0  0  0  0  0  0
  188.3650  173.7720  135.2680 S   0  0  0  0  0  0  0  0  0  0  0  0
  187.7410  175.2550  136.1160 C   0  0  1  0  0  3  0  0  0  0  0  0
  186.6850  174.8250  137.1170 C   0  0  0  0  0  2  0  0  0  0  0  0
  187.0390  172.7340  135.9590 C   0  0  0  0  0  2  0  0  0  0  0  0
  185.9700  173.6470  136.5100 C   0  0  0  0  0  2  0  0  0  0  0  0
  191.8590  176.4620  137.3960 C   0  0  0  0  0  2  0  0  0  0  0  0
  193.2050  176.6450  138.0800 C   0  0  0  0  0  2  0  0  0  0  0  0
  194.1350  175.7450  137.5590 O   0  0  0  0  0  0  0  0  0  0  0  0
  194.1540  176.0110  136.1920 C   0  0  0  0  0  1  0  0  0  0  0  0
  188.0290  176.7110  143.6210 C   0  0  0  0  0  2  0  0  0  0  0  0
  186.9710  177.7160  144.0510 C   0  0  2  0  0  3  0  0  0  0  0  0
  186.5230  177.4220  145.4740 C   0  0  0  0  0  2  0  0  0  0  0  0
  186.4230  178.6070  146.2030 O   0  0  0  0  0  1  0  0  0  0  0  0
  185.7890  177.6220  143.1010 C   0  0  0  0  0  2  0  0  0  0  0  0
  185.8100  178.7400  142.1730 N   0  0  0  0  0  2  0  0  0  0  0  0
  184.4300  179.1390  141.9510 C   0  0  0  0  0  2  0  0  0  0  0  0
  183.9260  178.5270  140.6580 C   0  0  1  0  0  3  0  0  0  0  0  0
  182.1360  178.5260  140.6310 S   0  0  0  0  0  0  0  0  0  0  0  0
  181.6420  177.1640  140.2350 O   0  0  0  0  0  0  0  0  0  0  0  0
  181.6480  179.5400  139.6330 O   0  0  0  0  0  0  0  0  0  0  0  0
  181.4980  178.9270  142.2480 C   0  0  0  0  0  2  0  0  0  0  0  0
  179.5560  180.2890  141.9970 O   0  0  0  0  0  0  0  0  0  0  0  0
  179.1660  178.0640  142.3820 O   0  0  0  0  0  1  0  0  0  0  0  0
  180.0250  179.1360  142.1910 C   0  0  0  0  0  0  0  0  0  0  0  0
  184.4800  179.3230  139.4880 C   0  0  0  0  0  2  0  0  0  0  0  0
  186.4330  178.3810  138.4980 O   0  0  0  0  0  1  0  0  0  0  0  0
  184.4380  177.6340  137.6500 O   0  0  0  0  0  0  0  0  0  0  0  0
  185.1760  178.4270  138.5200 C   0  0  0  0  0  0  0  0  0  0  0  0
  1  3  1  0  0  0  0
  1 26  1  0  0  0  0
  2  4  1  0  0  0  0
  3  2  2  0  0  0  0
  4  9  2  0  0  0  0
  5  6  1  0  0  0  0
  5  7  2  0  0  0  0
  8  4  1  0  0  0  0
  8 10  2  0  0  0  0
  9  6  1  0  0  0  0
 10  5  1  0  0  0  0
 11  1  1  0  0  0  0
 12 11  1  0  0  0  0
 13 12  1  0  0  0  0
 14 22  1  6  0  0  0
 14 13  1  0  0  0  0
 15 14  1  0  0  0  0
 16 15  2  0  0  0  0
 17 20  1  0  0  0  0
 17 18  1  0  0  0  0
 18 16  1  1  0  0  0
 18 19  1  0  0  0  0
 20 21  1  0  0  0  0
 21 19  1  0  0  0  0
 22 23  1  0  0  0  0
 24 23  1  0  0  0  0
 25 24  1  0  0  0  0
 26 27  1  0  0  0  0
 27 30  1  6  0  0  0
 27 28  1  0  0  0  0
 28 29  1  0  0  0  0
 31 30  1  0  0  0  0
 32 31  1  0  0  0  0
 33 41  1  6  0  0  0
 33 32  1  0  0  0  0
 34 33  1  0  0  0  0
 34 37  1  0  0  0  0
 35 34  2  0  0  0  0
 36 34  2  0  0  0  0
 38 40  2  0  0  0  0
 40 37  1  0  0  0  0
 40 39  1  0  0  0  0
 42 44  1  0  0  0  0
 43 44  2  0  0  0  0
 44 41  1  0  0  0  0
M  END
>  <MODEL>
5

>  <REMARK>
 VINA RESULT:      -5.5      2.561      7.692
  Name = 
  22 active torsions:
  status: ('A' for Active; 'I' for Inactive)
    1  A    between atoms: C_1  and  C_3
    2  A    between atoms: C_1  and  C_9
    3  A    between atoms: C_1  and  C_18
    4  A    between atoms: C_5  and  C_18
    5  A    between atoms: C_5  and  C_38
    6  A    between atoms: C_6  and  N_32
    7  A    between atoms: C_6  and  C_43
    8  A    between atoms: C_7  and  N_13
    9  A    between atoms: C_7  and  C_35
   10  A    between atoms: C_8  and  N_29
   11  A    between atoms: C_9  and  C_36
   12  A    between atoms: C_10  and  C_25
   13  A    between atoms: C_11  and  S_15
   14  A    between atoms: C_11  and  C_30
   15  A    between atoms: O_12  and  C_36
   16  A    between atoms: N_13  and  C_38
   17  A    between atoms: S_15  and  C_43
   18  A    between atoms: C_22  and  C_35
   19  A    between atoms: C_23  and  C_40
   20  A    between atoms: C_23  and  C_43
   21  A    between atoms: C_26  and  N_32
   22  A    between atoms: C_26  and  C_35
                            x       y       z     vdW  Elec       q    Type
                         _______ _______ _______ _____ _____    ______ ____

>  <TORSDO>
F 22

$$$$
=
 OpenBabel10222417283D

 44 45  0  0  1  0  0  0  0  0999 V2000
  188.2620  178.0940  142.4480 N   0  0  0  0  0  0  0  0  0  0  0  0
  187.7420  176.1960  143.8330 N   0  0  0  0  0  0  0  0  0  0  0  0
  187.7370  176.7800  142.6700 C   0  0  0  0  0  3  0  0  0  0  0  0
  188.1030  176.7950  145.0860 C   0  0  0  0  0  0  0  0  0  0  0  0
  188.6820  177.9710  147.5490 C   0  0  0  0  0  0  0  0  0  0  0  0
  189.8020  177.3630  146.7560 C   0  0  0  0  0  2  0  0  0  0  0  0
  188.9320  178.5110  148.6930 N   0  0  0  0  0  2  0  0  0  0  0  0
  187.1070  177.6030  145.8050 C   0  0  0  0  0  3  0  0  0  0  0  0
  189.3200  176.7010  145.5410 N   0  0  0  0  0  0  0  0  0  0  0  0
  187.3920  178.1350  146.9530 N   0  0  0  0  0  0  0  0  0  0  0  0
  187.6410  178.9060  141.4140 C   0  0  0  0  0  2  0  0  0  0  0  0
  186.1360  178.9460  141.6220 C   0  0  0  0  0  2  0  0  0  0  0  0
  185.4120  178.9530  140.2840 C   0  0  0  0  0  2  0  0  0  0  0  0
  183.9010  178.8660  140.4630 C   0  0  1  0  0  3  0  0  0  0  0  0
  183.2770  177.9950  139.4070 C   0  0  0  0  0  3  0  0  0  0  0  0
  183.1330  176.6760  139.5660 C   0  0  0  0  0  3  0  0  0  0  0  0
  181.8700  176.9120  137.1770 S   0  0  0  0  0  0  0  0  0  0  0  0
  182.5030  175.8400  138.5030 C   0  0  1  0  0  3  0  0  0  0  0  0
  183.5170  174.8850  137.9030 C   0  0  0  0  0  2  0  0  0  0  0  0
  182.6460  175.8910  135.8860 C   0  0  0  0  0  2  0  0  0  0  0  0
  183.0440  174.5740  136.5070 C   0  0  0  0  0  2  0  0  0  0  0  0
  183.5870  178.3720  141.8700 C   0  0  0  0  0  2  0  0  0  0  0  0
  182.2160  178.8430  142.3320 C   0  0  0  0  0  2  0  0  0  0  0  0
  182.1170  178.7400  143.7200 O   0  0  0  0  0  0  0  0  0  0  0  0
  180.7470  178.7030  143.9720 C   0  0  0  0  0  1  0  0  0  0  0  0
  189.6420  178.3780  142.8310 C   0  0  0  0  0  2  0  0  0  0  0  0
  190.5840  177.2730  142.3750 C   0  0  2  0  0  3  0  0  0  0  0  0
  191.8220  177.2510  143.2580 C   0  0  0  0  0  2  0  0  0  0  0  0
  191.9330  178.4490  143.9640 O   0  0  0  0  0  1  0  0  0  0  0  0
  190.9770  177.5280  140.9300 C   0  0  0  0  0  2  0  0  0  0  0  0
  190.4450  176.4760  140.0810 N   0  0  0  0  0  2  0  0  0  0  0  0
  190.7730  176.8250  138.7090 C   0  0  0  0  0  2  0  0  0  0  0  0
  189.6780  176.3290  137.7830 C   0  0  1  0  0  3  0  0  0  0  0  0
  188.6580  177.6980  137.2430 S   0  0  0  0  0  0  0  0  0  0  0  0
  188.9590  178.0110  135.8050 O   0  0  0  0  0  0  0  0  0  0  0  0
  188.9540  178.9080  138.0870 O   0  0  0  0  0  0  0  0  0  0  0  0
  186.9310  177.2740  137.3960 C   0  0  0  0  0  2  0  0  0  0  0  0
  186.6600  175.3230  136.0510 O   0  0  0  0  0  1  0  0  0  0  0  0
  185.8260  177.2650  135.1650 O   0  0  0  0  0  0  0  0  0  0  0  0
  186.4600  176.5600  136.1770 C   0  0  0  0  0  0  0  0  0  0  0  0
  190.3180  175.6340  136.5920 C   0  0  0  0  0  2  0  0  0  0  0  0
  191.7880  173.7640  136.7310 O   0  0  0  0  0  0  0  0  0  0  0  0
  189.6360  173.3810  137.4220 O   0  0  0  0  0  1  0  0  0  0  0  0
  190.6270  174.2110  136.9130 C   0  0  0  0  0  0  0  0  0  0  0  0
  1  3  1  0  0  0  0
  1 26  1  0  0  0  0
  2  4  1  0  0  0  0
  3  2  2  0  0  0  0
  4  9  2  0  0  0  0
  4  8  1  0  0  0  0
  5  7  2  0  0  0  0
  6  5  1  0  0  0  0
  8 10  2  0  0  0  0
  9  6  1  0  0  0  0
 10  5  1  0  0  0  0
 11 12  1  0  0  0  0
 11  1  1  0  0  0  0
 13 14  1  0  0  0  0
 13 12  1  0  0  0  0
 14 15  1  6  0  0  0
 14 22  1  0  0  0  0
 15 16  2  0  0  0  0
 17 18  1  0  0  0  0
 18 16  1  1  0  0  0
 19 18  1  0  0  0  0
 20 21  1  0  0  0  0
 20 17  1  0  0  0  0
 21 19  1  0  0  0  0
 22 23  1  0  0  0  0
 23 24  1  0  0  0  0
 24 25  1  0  0  0  0
 27 30  1  6  0  0  0
 27 26  1  0  0  0  0
 27 28  1  0  0  0  0
 28 29  1  0  0  0  0
 31 30  1  0  0  0  0
 32 31  1  0  0  0  0
 33 41  1  6  0  0  0
 33 32  1  0  0  0  0
 34 37  1  0  0  0  0
 34 33  1  0  0  0  0
 34 36  2  0  0  0  0
 35 34  2  0  0  0  0
 38 40  1  0  0  0  0
 39 40  2  0  0  0  0
 40 37  1  0  0  0  0
 41 44  1  0  0  0  0
 42 44  2  0  0  0  0
 44 43  1  0  0  0  0
M  END
>  <MODEL>
6

>  <REMARK>
 VINA RESULT:      -5.4      1.954      3.212
  Name = 
  22 active torsions:
  status: ('A' for Active; 'I' for Inactive)
    1  A    between atoms: C_1  and  C_3
    2  A    between atoms: C_1  and  C_9
    3  A    between atoms: C_1  and  C_18
    4  A    between atoms: C_5  and  C_18
    5  A    between atoms: C_5  and  C_38
    6  A    between atoms: C_6  and  N_32
    7  A    between atoms: C_6  and  C_43
    8  A    between atoms: C_7  and  N_13
    9  A    between atoms: C_7  and  C_35
   10  A    between atoms: C_8  and  N_29
   11  A    between atoms: C_9  and  C_36
   12  A    between atoms: C_10  and  C_25
   13  A    between atoms: C_11  and  S_15
   14  A    between atoms: C_11  and  C_30
   15  A    between atoms: O_12  and  C_36
   16  A    between atoms: N_13  and  C_38
   17  A    between atoms: S_15  and  C_43
   18  A    between atoms: C_22  and  C_35
   19  A    between atoms: C_23  and  C_40
   20  A    between atoms: C_23  and  C_43
   21  A    between atoms: C_26  and  N_32
   22  A    between atoms: C_26  and  C_35
                            x       y       z     vdW  Elec       q    Type
                         _______ _______ _______ _____ _____    ______ ____

>  <TORSDO>
F 22

$$$$
=
 OpenBabel10222417283D

 44 45  0  0  1  0  0  0  0  0999 V2000
  189.1430  177.3990  142.6100 N   0  0  0  0  0  0  0  0  0  0  0  0
  190.4070  178.9160  143.9850 N   0  0  0  0  0  0  0  0  0  0  0  0
  189.7630  178.6610  142.8840 C   0  0  0  0  0  3  0  0  0  0  0  0
  190.7480  177.9730  145.0110 C   0  0  0  0  0  0  0  0  0  0  0  0
  191.5130  176.1080  146.9400 C   0  0  0  0  0  0  0  0  0  0  0  0
  190.3860  177.0490  147.2500 C   0  0  0  0  0  2  0  0  0  0  0  0
  191.8850  175.2460  147.8240 N   0  0  0  0  0  2  0  0  0  0  0  0
  191.6810  176.8810  144.6970 C   0  0  0  0  0  3  0  0  0  0  0  0
  190.1750  178.0270  146.1800 N   0  0  0  0  0  0  0  0  0  0  0  0
  192.0310  176.0270  145.6090 N   0  0  0  0  0  0  0  0  0  0  0  0
  189.0760  176.9630  141.2250 C   0  0  0  0  0  2  0  0  0  0  0  0
  190.3640  177.3260  140.5060 C   0  0  0  0  0  2  0  0  0  0  0  0
  190.6270  176.3610  139.3600 C   0  0  0  0  0  2  0  0  0  0  0  0
  190.9780  177.0990  138.0740 C   0  0  1  0  0  3  0  0  0  0  0  0
  192.0960  176.4100  137.3380 C   0  0  0  0  0  3  0  0  0  0  0  0
  193.1660  175.9190  137.9690 C   0  0  0  0  0  3  0  0  0  0  0  0
  195.1830  174.1410  138.3290 S   0  0  0  0  0  0  0  0  0  0  0  0
  194.2550  175.2360  137.2120 C   0  0  1  0  0  3  0  0  0  0  0  0
  193.6800  174.3960  136.0870 C   0  0  0  0  0  2  0  0  0  0  0  0
  195.0920  172.7530  137.1570 C   0  0  0  0  0  2  0  0  0  0  0  0
  194.6780  173.3020  135.8120 C   0  0  0  0  0  2  0  0  0  0  0  0
  189.7280  177.2360  137.2130 C   0  0  0  0  0  2  0  0  0  0  0  0
  188.8050  176.0370  137.3750 C   0  0  0  0  0  2  0  0  0  0  0  0
  188.8450  175.2430  136.2290 O   0  0  0  0  0  0  0  0  0  0  0  0
  188.0050  174.1700  136.5170 C   0  0  0  0  0  1  0  0  0  0  0  0
  188.1720  176.8660  143.5630 C   0  0  0  0  0  2  0  0  0  0  0  0
  187.0600  177.8670  143.8400 C   0  0  2  0  0  3  0  0  0  0  0  0
  186.3230  177.4830  145.1140 C   0  0  0  0  0  2  0  0  0  0  0  0
  187.2000  177.4870  146.1990 O   0  0  0  0  0  1  0  0  0  0  0  0
  186.1000  177.8740  142.6630 C   0  0  0  0  0  2  0  0  0  0  0  0
  184.7780  178.2830  143.1060 N   0  0  0  0  0  2  0  0  0  0  0  0
  184.3080  179.2960  142.1760 C   0  0  0  0  0  2  0  0  0  0  0  0
  183.7120  178.6260  140.9530 C   0  0  1  0  0  3  0  0  0  0  0  0
  181.9250  178.6240  141.0580 S   0  0  0  0  0  0  0  0  0  0  0  0
  181.3990  177.2890  140.6140 O   0  0  0  0  0  0  0  0  0  0  0  0
  181.3670  179.6980  140.1650 O   0  0  0  0  0  0  0  0  0  0  0  0
  181.4090  178.9210  142.7400 C   0  0  0  0  0  2  0  0  0  0  0  0
  179.8900  180.7590  142.7740 O   0  0  0  0  0  0  0  0  0  0  0  0
  178.9330  178.6780  142.8270 O   0  0  0  0  0  1  0  0  0  0  0  0
  180.0420  179.5090  142.7710 C   0  0  0  0  0  0  0  0  0  0  0  0
  184.1750  179.3690  139.7100 C   0  0  0  0  0  2  0  0  0  0  0  0
  184.7640  177.8070  138.0090 O   0  0  0  0  0  0  0  0  0  0  0  0
  186.5120  178.6240  139.2470 O   0  0  0  0  0  1  0  0  0  0  0  0
  185.1580  178.5530  138.9410 C   0  0  0  0  0  0  0  0  0  0  0  0
  1  3  1  0  0  0  0
  1 26  1  0  0  0  0
  2  4  1  0  0  0  0
  3  2  2  0  0  0  0
  4  9  2  0  0  0  0
  5  6  1  0  0  0  0
  5  7  2  0  0  0  0
  8  4  1  0  0  0  0
  8 10  2  0  0  0  0
  9  6  1  0  0  0  0
 10  5  1  0  0  0  0
 11  1  1  0  0  0  0
 12 11  1  0  0  0  0
 13 12  1  0  0  0  0
 14 22  1  6  0  0  0
 14 13  1  0  0  0  0
 15 16  2  0  0  0  0
 15 14  1  0  0  0  0
 18 16  1  1  0  0  0
 18 17  1  0  0  0  0
 19 18  1  0  0  0  0
 20 17  1  0  0  0  0
 21 19  1  0  0  0  0
 21 20  1  0  0  0  0
 22 23  1  0  0  0  0
 24 25  1  0  0  0  0
 24 23  1  0  0  0  0
 26 27  1  0  0  0  0
 27 30  1  6  0  0  0
 27 28  1  0  0  0  0
 28 29  1  0  0  0  0
 30 31  1  0  0  0  0
 32 31  1  0  0  0  0
 33 41  1  6  0  0  0
 33 34  1  0  0  0  0
 33 32  1  0  0  0  0
 34 37  1  0  0  0  0
 35 34  2  0  0  0  0
 36 34  2  0  0  0  0
 37 40  1  0  0  0  0
 40 38  2  0  0  0  0
 40 39  1  0  0  0  0
 42 44  2  0  0  0  0
 44 43  1  0  0  0  0
 44 41  1  0  0  0  0
M  END
>  <MODEL>
7

>  <REMARK>
 VINA RESULT:      -5.2      2.996      8.372
  Name = 
  22 active torsions:
  status: ('A' for Active; 'I' for Inactive)
    1  A    between atoms: C_1  and  C_3
    2  A    between atoms: C_1  and  C_9
    3  A    between atoms: C_1  and  C_18
    4  A    between atoms: C_5  and  C_18
    5  A    between atoms: C_5  and  C_38
    6  A    between atoms: C_6  and  N_32
    7  A    between atoms: C_6  and  C_43
    8  A    between atoms: C_7  and  N_13
    9  A    between atoms: C_7  and  C_35
   10  A    between atoms: C_8  and  N_29
   11  A    between atoms: C_9  and  C_36
   12  A    between atoms: C_10  and  C_25
   13  A    between atoms: C_11  and  S_15
   14  A    between atoms: C_11  and  C_30
   15  A    between atoms: O_12  and  C_36
   16  A    between atoms: N_13  and  C_38
   17  A    between atoms: S_15  and  C_43
   18  A    between atoms: C_22  and  C_35
   19  A    between atoms: C_23  and  C_40
   20  A    between atoms: C_23  and  C_43
   21  A    between atoms: C_26  and  N_32
   22  A    between atoms: C_26  and  C_35
                            x       y       z     vdW  Elec       q    Type
                         _______ _______ _______ _____ _____    ______ ____

>  <TORSDO>
F 22

$$$$
=
 OpenBabel10222417283D

 44 45  0  0  1  0  0  0  0  0999 V2000
  188.0810  177.8270  141.4640 N   0  0  0  0  0  0  0  0  0  0  0  0
  188.6180  178.7700  139.3160 N   0  0  0  0  0  0  0  0  0  0  0  0
  188.2140  178.9170  140.5440 C   0  0  0  0  0  3  0  0  0  0  0  0
  188.8340  177.5270  138.6330 C   0  0  0  0  0  0  0  0  0  0  0  0
  189.3740  175.1130  137.3420 C   0  0  0  0  0  0  0  0  0  0  0  0
  187.9480  175.5680  137.4600 C   0  0  0  0  0  2  0  0  0  0  0  0
  189.6390  173.9960  136.7560 N   0  0  0  0  0  2  0  0  0  0  0  0
  190.2060  177.1330  138.2820 C   0  0  0  0  0  3  0  0  0  0  0  0
  187.8260  176.7970  138.2480 N   0  0  0  0  0  0  0  0  0  0  0  0
  190.4380  176.0030  137.6890 N   0  0  0  0  0  0  0  0  0  0  0  0
  187.0450  177.9200  142.4800 C   0  0  0  0  0  2  0  0  0  0  0  0
  185.9000  178.7810  141.9730 C   0  0  0  0  0  2  0  0  0  0  0  0
  184.7470  177.9110  141.4970 C   0  0  0  0  0  2  0  0  0  0  0  0
  183.4260  178.6700  141.5120 C   0  0  1  0  0  3  0  0  0  0  0  0
  182.3970  177.9930  140.6480 C   0  0  0  0  0  3  0  0  0  0  0  0
  182.2710  178.2650  139.3460 C   0  0  0  0  0  3  0  0  0  0  0  0
  182.0050  176.9850  136.9690 S   0  0  0  0  0  0  0  0  0  0  0  0
  181.2450  177.5720  138.5140 C   0  0  1  0  0  3  0  0  0  0  0  0
  180.6770  176.3750  139.2530 C   0  0  0  0  0  2  0  0  0  0  0  0
  181.2780  175.3280  137.1600 C   0  0  0  0  0  2  0  0  0  0  0  0
  180.1890  175.4110  138.2030 C   0  0  0  0  0  2  0  0  0  0  0  0
  182.9500  178.8260  142.9510 C   0  0  0  0  0  2  0  0  0  0  0  0
  181.4400  179.0000  143.0230 C   0  0  0  0  0  2  0  0  0  0  0  0
  181.0040  178.8670  144.3410 O   0  0  0  0  0  0  0  0  0  0  0  0
  179.6350  178.6350  144.2360 C   0  0  0  0  0  1  0  0  0  0  0  0
  189.2340  176.9660  141.7120 C   0  0  0  0  0  2  0  0  0  0  0  0
  190.5230  177.7730  141.7890 C   0  0  2  0  0  3  0  0  0  0  0  0
  191.7180  176.8650  141.5470 C   0  0  0  0  0  2  0  0  0  0  0  0
  192.6560  177.5080  140.7380 O   0  0  0  0  0  1  0  0  0  0  0  0
  190.6210  178.4120  143.1640 C   0  0  0  0  0  2  0  0  0  0  0  0
  190.1440  177.4830  144.1750 N   0  0  0  0  0  2  0  0  0  0  0  0
  189.3730  178.2530  145.1360 C   0  0  0  0  0  2  0  0  0  0  0  0
  189.6190  177.7130  146.5330 C   0  0  1  0  0  3  0  0  0  0  0  0
  188.0650  177.5120  147.4000 S   0  0  0  0  0  0  0  0  0  0  0  0
  187.8780  178.6490  148.3630 O   0  0  0  0  0  0  0  0  0  0  0  0
  188.0790  176.2140  148.1600 O   0  0  0  0  0  0  0  0  0  0  0  0
  186.7110  177.5060  146.2380 C   0  0  0  0  0  2  0  0  0  0  0  0
  185.9220  179.7570  146.2010 O   0  0  0  0  0  0  0  0  0  0  0  0
  184.6090  178.2620  147.3380 O   0  0  0  0  0  1  0  0  0  0  0  0
  185.7270  178.5710  146.5780 C   0  0  0  0  0  0  0  0  0  0  0  0
  190.3500  176.3860  146.4260 C   0  0  0  0  0  2  0  0  0  0  0  0
  192.4420  175.4890  147.1330 O   0  0  0  0  0  0  0  0  0  0  0  0
  191.7500  177.3720  148.2420 O   0  0  0  0  0  1  0  0  0  0  0  0
  191.5700  176.3830  147.2830 C   0  0  0  0  0  0  0  0  0  0  0  0
  1 26  1  0  0  0  0
  1 11  1  0  0  0  0
  2  3  2  0  0  0  0
  3  1  1  0  0  0  0
  4  2  1  0  0  0  0
  5  6  1  0  0  0  0
  5 10  1  0  0  0  0
  6  9  1  0  0  0  0
  7  5  2  0  0  0  0
  8  4  1  0  0  0  0
  9  4  2  0  0  0  0
 10  8  2  0  0  0  0
 12 11  1  0  0  0  0
 13 14  1  0  0  0  0
 13 12  1  0  0  0  0
 14 15  1  6  0  0  0
 14 22  1  0  0  0  0
 16 15  2  0  0  0  0
 17 20  1  0  0  0  0
 17 18  1  0  0  0  0
 18 19  1  0  0  0  0
 18 16  1  1  0  0  0
 20 21  1  0  0  0  0
 21 19  1  0  0  0  0
 22 23  1  0  0  0  0
 23 24  1  0  0  0  0
 25 24  1  0  0  0  0
 26 27  1  0  0  0  0
 27 28  1  1  0  0  0
 27 30  1  0  0  0  0
 29 28  1  0  0  0  0
 30 31  1  0  0  0  0
 31 32  1  0  0  0  0
 33 32  1  6  0  0  0
 33 34  1  0  0  0  0
 34 36  2  0  0  0  0
 34 35  2  0  0  0  0
 37 40  1  0  0  0  0
 37 34  1  0  0  0  0
 38 40  2  0  0  0  0
 40 39  1  0  0  0  0
 41 33  1  0  0  0  0
 41 44  1  0  0  0  0
 42 44  2  0  0  0  0
 44 43  1  0  0  0  0
M  END
>  <MODEL>
8

>  <REMARK>
 VINA RESULT:      -5.2      3.994      6.718
  Name = 
  22 active torsions:
  status: ('A' for Active; 'I' for Inactive)
    1  A    between atoms: C_1  and  C_3
    2  A    between atoms: C_1  and  C_9
    3  A    between atoms: C_1  and  C_18
    4  A    between atoms: C_5  and  C_18
    5  A    between atoms: C_5  and  C_38
    6  A    between atoms: C_6  and  N_32
    7  A    between atoms: C_6  and  C_43
    8  A    between atoms: C_7  and  N_13
    9  A    between atoms: C_7  and  C_35
   10  A    between atoms: C_8  and  N_29
   11  A    between atoms: C_9  and  C_36
   12  A    between atoms: C_10  and  C_25
   13  A    between atoms: C_11  and  S_15
   14  A    between atoms: C_11  and  C_30
   15  A    between atoms: O_12  and  C_36
   16  A    between atoms: N_13  and  C_38
   17  A    between atoms: S_15  and  C_43
   18  A    between atoms: C_22  and  C_35
   19  A    between atoms: C_23  and  C_40
   20  A    between atoms: C_23  and  C_43
   21  A    between atoms: C_26  and  N_32
   22  A    between atoms: C_26  and  C_35
                            x       y       z     vdW  Elec       q    Type
                         _______ _______ _______ _____ _____    ______ ____

>  <TORSDO>
F 22

$$$$
=
 OpenBabel10222417283D

 44 45  0  0  1  0  0  0  0  0999 V2000
  188.4740  177.7290  140.6520 N   0  0  0  0  0  0  0  0  0  0  0  0
  186.6870  178.4270  139.1990 N   0  0  0  0  0  0  0  0  0  0  0  0
  187.2190  178.3670  140.3840 C   0  0  0  0  0  3  0  0  0  0  0  0
  187.1500  177.7510  138.0210 C   0  0  0  0  0  0  0  0  0  0  0  0
  188.1030  176.5450  135.6920 C   0  0  0  0  0  0  0  0  0  0  0  0
  187.5310  175.6770  136.7750 C   0  0  0  0  0  2  0  0  0  0  0  0
  188.5550  176.0030  134.6140 N   0  0  0  0  0  2  0  0  0  0  0  0
  187.5110  178.5450  136.8370 C   0  0  0  0  0  3  0  0  0  0  0  0
  187.1700  176.4500  137.9670 N   0  0  0  0  0  0  0  0  0  0  0  0
  187.9590  177.9670  135.7660 N   0  0  0  0  0  0  0  0  0  0  0  0
  188.6570  177.1120  141.9550 C   0  0  0  0  0  2  0  0  0  0  0  0
  187.3550  177.1630  142.7380 C   0  0  0  0  0  2  0  0  0  0  0  0
  187.6290  177.1140  144.2330 C   0  0  0  0  0  2  0  0  0  0  0  0
  186.8000  178.1440  144.9910 C   0  0  1  0  0  3  0  0  0  0  0  0
  185.6980  178.6980  144.1290 C   0  0  0  0  0  3  0  0  0  0  0  0
  184.4180  178.6820  144.5130 C   0  0  0  0  0  3  0  0  0  0  0  0
  183.7270  178.8770  141.8970 S   0  0  0  0  0  0  0  0  0  0  0  0
  183.3490  179.2450  143.6380 C   0  0  1  0  0  3  0  0  0  0  0  0
  182.0030  178.6310  143.9750 C   0  0  0  0  0  2  0  0  0  0  0  0
  182.0390  178.2730  141.5860 C   0  0  0  0  0  2  0  0  0  0  0  0
  181.1620  178.7250  142.7300 C   0  0  0  0  0  2  0  0  0  0  0  0
  186.2620  177.5170  146.2720 C   0  0  0  0  0  2  0  0  0  0  0  0
  186.8730  178.1610  147.5070 C   0  0  0  0  0  2  0  0  0  0  0  0
  188.2590  178.2480  147.3670 O   0  0  0  0  0  0  0  0  0  0  0  0
  188.7490  177.1180  148.0180 C   0  0  0  0  0  1  0  0  0  0  0  0
  189.6540  178.1480  139.9010 C   0  0  0  0  0  2  0  0  0  0  0  0
  190.7800  177.1320  140.0240 C   0  0  2  0  0  3  0  0  0  0  0  0
  191.6800  177.4940  141.1950 C   0  0  0  0  0  2  0  0  0  0  0  0
  193.0050  177.1670  140.9040 O   0  0  0  0  0  1  0  0  0  0  0  0
  191.5800  177.1250  138.7320 C   0  0  0  0  0  2  0  0  0  0  0  0
  191.3390  175.8890  138.0080 N   0  0  0  0  0  2  0  0  0  0  0  0
  191.7210  176.1200  136.6250 C   0  0  0  0  0  2  0  0  0  0  0  0
  192.7070  175.0540  136.1860 C   0  0  1  0  0  3  0  0  0  0  0  0
  194.3730  175.5270  136.6400 S   0  0  0  0  0  0  0  0  0  0  0  0
  194.4760  175.6220  138.1360 O   0  0  0  0  0  0  0  0  0  0  0  0
  194.6970  176.8660  136.0340 O   0  0  0  0  0  0  0  0  0  0  0  0
  195.5380  174.3110  136.0530 C   0  0  0  0  0  2  0  0  0  0  0  0
  195.7290  172.6220  137.7270 O   0  0  0  0  0  1  0  0  0  0  0  0
  197.3990  174.1910  137.7030 O   0  0  0  0  0  0  0  0  0  0  0  0
  196.2260  173.6520  137.1980 C   0  0  0  0  0  0  0  0  0  0  0  0
  192.3280  173.7340  136.8370 C   0  0  0  0  0  2  0  0  0  0  0  0
  190.9490  172.9610  135.0540 O   0  0  0  0  0  0  0  0  0  0  0  0
  192.6440  171.5480  135.6740 O   0  0  0  0  0  1  0  0  0  0  0  0
  191.9290  172.7310  135.8080 C   0  0  0  0  0  0  0  0  0  0  0  0
  1 11  1  0  0  0  0
  2  3  2  0  0  0  0
  3  1  1  0  0  0  0
  4  2  1  0  0  0  0
  5 10  1  0  0  0  0
  5  6  1  0  0  0  0
  6  9  1  0  0  0  0
  7  5  2  0  0  0  0
  8  4  1  0  0  0  0
  9  4  2  0  0  0  0
 10  8  2  0  0  0  0
 11 12  1  0  0  0  0
 12 13  1  0  0  0  0
 13 14  1  0  0  0  0
 14 15  1  6  0  0  0
 14 22  1  0  0  0  0
 15 16  2  0  0  0  0
 17 18  1  0  0  0  0
 18 19  1  0  0  0  0
 18 16  1  1  0  0  0
 20 17  1  0  0  0  0
 20 21  1  0  0  0  0
 21 19  1  0  0  0  0
 22 23  1  0  0  0  0
 24 23  1  0  0  0  0
 24 25  1  0  0  0  0
 26 27  1  0  0  0  0
 26  1  1  0  0  0  0
 27 30  1  6  0  0  0
 27 28  1  0  0  0  0
 29 28  1  0  0  0  0
 31 30  1  0  0  0  0
 32 31  1  0  0  0  0
 33 32  1  1  0  0  0
 33 34  1  0  0  0  0
 33 41  1  0  0  0  0
 34 35  2  0  0  0  0
 36 34  2  0  0  0  0
 37 34  1  0  0  0  0
 37 40  1  0  0  0  0
 40 39  2  0  0  0  0
 40 38  1  0  0  0  0
 42 44  2  0  0  0  0
 43 44  1  0  0  0  0
 44 41  1  0  0  0  0
M  END
>  <MODEL>
9

>  <REMARK>
 VINA RESULT:      -5.1      3.667      6.657
  Name = 
  22 active torsions:
  status: ('A' for Active; 'I' for Inactive)
    1  A    between atoms: C_1  and  C_3
    2  A    between atoms: C_1  and  C_9
    3  A    between atoms: C_1  and  C_18
    4  A    between atoms: C_5  and  C_18
    5  A    between atoms: C_5  and  C_38
    6  A    between atoms: C_6  and  N_32
    7  A    between atoms: C_6  and  C_43
    8  A    between atoms: C_7  and  N_13
    9  A    between atoms: C_7  and  C_35
   10  A    between atoms: C_8  and  N_29
   11  A    between atoms: C_9  and  C_36
   12  A    between atoms: C_10  and  C_25
   13  A    between atoms: C_11  and  S_15
   14  A    between atoms: C_11  and  C_30
   15  A    between atoms: O_12  and  C_36
   16  A    between atoms: N_13  and  C_38
   17  A    between atoms: S_15  and  C_43
   18  A    between atoms: C_22  and  C_35
   19  A    between atoms: C_23  and  C_40
   20  A    between atoms: C_23  and  C_43
   21  A    between atoms: C_26  and  N_32
   22  A    between atoms: C_26  and  C_35
                            x       y       z     vdW  Elec       q    Type
                         _______ _______ _______ _____ _____    ______ ____

>  <TORSDO>
F 22

$$$$
