=
 OpenBabel10222418003D

 35 40  0  0  1  0  0  0  0  0999 V2000
  187.3190  178.0550  142.1780 S   0  0  0  0  0  0  0  0  0  0  0  0
  185.1170  179.0740  141.0230 C   0  0  1  0  0  3  0  0  0  0  0  0
  185.7750  178.1750  143.1310 C   0  0  2  0  0  3  0  0  0  0  0  0
  184.8730  179.1140  142.4630 N   0  0  0  0  0  2  0  0  0  0  0  0
  186.2940  178.1670  140.6990 C   0  0  1  0  0  3  0  0  0  0  0  0
  182.1660  179.0850  138.5840 C   0  0  0  0  0  0  0  0  0  0  0  0
  181.5820  177.8640  138.9430 C   0  0  0  0  0  3  0  0  0  0  0  0
  183.9420  180.7150  138.9320 O   0  0  0  0  0  1  0  0  0  0  0  0
  183.8800  178.6890  140.2670 C   0  0  0  0  0  0  0  0  0  0  0  0
  182.1520  177.0880  139.9510 C   0  0  0  0  0  3  0  0  0  0  0  0
  183.2760  177.5140  140.5840 N   0  0  0  0  0  0  0  0  0  0  0  0
  183.3330  179.5060  139.2560 C   0  0  0  0  0  0  0  0  0  0  0  0
  181.3010  179.4100  136.2700 N   0  0  0  0  0  0  0  0  0  0  0  0
  180.7230  180.4600  135.6530 C   0  0  0  0  0  3  0  0  0  0  0  0
  181.5340  179.8830  137.5110 C   0  0  0  0  0  0  0  0  0  0  0  0
  180.6120  181.5140  136.4830 N   0  0  0  0  0  0  0  0  0  0  0  0
  181.1200  181.1540  137.6490 N   0  0  0  0  0  2  0  0  0  0  0  0
  186.0490  178.6130  144.5740 C   0  0  1  0  0  3  0  0  0  0  0  0
  184.0660  178.9090  145.9270 N   0  0  0  0  0  2  0  0  0  0  0  0
  184.9140  179.4280  145.1190 C   0  0  0  0  0  3  0  0  0  0  0  0
  186.2410  177.3890  145.4640 C   0  0  0  0  0  2  0  0  0  0  0  0
  188.4060  178.1910  148.4690 C   0  0  0  0  0  3  0  0  0  0  0  0
  189.8200  177.3170  146.7060 C   0  0  0  0  0  3  0  0  0  0  0  0
  188.7030  177.1800  145.8770 C   0  0  0  0  0  3  0  0  0  0  0  0
  187.4360  177.5500  146.3420 C   0  0  0  0  0  0  0  0  0  0  0  0
  187.2880  178.0540  147.6390 C   0  0  0  0  0  3  0  0  0  0  0  0
  189.6720  177.8220  148.0010 C   0  0  0  0  0  3  0  0  0  0  0  0
  187.0500  178.6210  139.5270 N   0  0  0  0  0  2  0  0  0  0  0  0
  188.7980  177.2920  138.5020 C   0  0  2  0  0  3  0  0  0  0  0  0
  189.2040  178.7500  138.4190 C   0  0  0  0  0  2  0  0  0  0  0  0
  188.4550  178.2420  139.6330 C   0  0  1  0  0  3  0  0  0  0  0  0
  189.9480  176.4950  138.8890 N   0  0  0  0  0  2  0  0  0  0  0  0
  191.7100  175.2410  137.8580 C   0  0  0  0  0  2  0  0  0  0  0  0
  190.3060  175.6890  137.7360 C   0  0  2  0  0  3  0  0  0  0  0  0
  191.3500  176.3250  137.0380 O   0  0  0  0  0  0  0  0  0  0  0  0
  1  3  1  0  0  0  0
  2  9  1  6  0  0  0
  2  4  1  0  0  0  0
  3 18  1  1  0  0  0
  4  3  1  0  0  0  0
  5 28  1  6  0  0  0
  5  2  1  0  0  0  0
  5  1  1  0  0  0  0
  6  7  2  0  0  0  0
  6 12  1  0  0  0  0
  7 10  1  0  0  0  0
  8 12  1  0  0  0  0
  9 11  1  0  0  0  0
 10 11  2  0  0  0  0
 12  9  2  0  0  0  0
 13 15  2  0  0  0  0
 14 13  1  0  0  0  0
 14 16  2  0  0  0  0
 15 17  1  0  0  0  0
 15  6  1  0  0  0  0
 16 17  1  0  0  0  0
 18 20  1  1  0  0  0
 18 21  1  0  0  0  0
 20 19  2  0  0  0  0
 21 25  1  0  0  0  0
 23 27  2  0  0  0  0
 24 25  2  0  0  0  0
 24 23  1  0  0  0  0
 25 26  1  0  0  0  0
 26 22  2  0  0  0  0
 27 22  1  0  0  0  0
 29 32  1  1  0  0  0
 29 31  1  0  0  0  0
 30 29  1  0  0  0  0
 30 31  1  0  0  0  0
 31 28  1  6  0  0  0
 34 33  1  0  0  0  0
 34 32  1  1  0  0  0
 35 34  1  0  0  0  0
 35 33  1  0  0  0  0
M  END
>  <MODEL>
1

>  <REMARK>
 VINA RESULT:      -8.1      0.000      0.000
  Name = 
  10 active torsions:
  status: ('A' for Active; 'I' for Inactive)
    1  A    between atoms: C_6  and  N_18
    2  A    between atoms: C_7  and  C_22
    3  A    between atoms: C_10  and  C_12
    4  A    between atoms: C_10  and  C_16
    5  A    between atoms: C_13  and  C_16
    6  A    between atoms: C_16  and  C_21
    7  A    between atoms: C_17  and  C_19
    8  A    between atoms: N_18  and  C_20
    9  A    between atoms: C_25  and  N_26
   10  A    between atoms: N_26  and  C_34
                            x       y       z     vdW  Elec       q    Type
                         _______ _______ _______ _____ _____    ______ ____

>  <TORSDO>
F 10

$$$$
=
 OpenBabel10222418003D

 35 40  0  0  1  0  0  0  0  0999 V2000
  189.7270  177.1310  140.8880 S   0  0  0  0  0  0  0  0  0  0  0  0
  187.5120  178.6340  141.1300 C   0  0  1  0  0  3  0  0  0  0  0  0
  188.5860  176.8380  142.2730 C   0  0  2  0  0  3  0  0  0  0  0  0
  187.7180  178.0050  142.4330 N   0  0  0  0  0  2  0  0  0  0  0  0
  188.3490  177.9480  140.0610 C   0  0  1  0  0  3  0  0  0  0  0  0
  183.6910  178.7420  141.3330 C   0  0  0  0  0  0  0  0  0  0  0  0
  183.4000  178.7620  139.9650 C   0  0  0  0  0  3  0  0  0  0  0  0
  185.3720  178.6750  143.0950 O   0  0  0  0  0  1  0  0  0  0  0  0
  186.0570  178.6800  140.7660 C   0  0  0  0  0  0  0  0  0  0  0  0
  184.4340  178.7370  139.0310 C   0  0  0  0  0  3  0  0  0  0  0  0
  185.7260  178.6970  139.4490 N   0  0  0  0  0  0  0  0  0  0  0  0
  185.0400  178.7000  141.7430 C   0  0  0  0  0  0  0  0  0  0  0  0
  181.2710  178.7710  141.9270 N   0  0  0  0  0  0  0  0  0  0  0  0
  180.6230  178.7950  143.1100 C   0  0  0  0  0  3  0  0  0  0  0  0
  182.5670  178.7690  142.2970 C   0  0  0  0  0  0  0  0  0  0  0  0
  181.4890  178.8050  144.1410 N   0  0  0  0  0  0  0  0  0  0  0  0
  182.7090  178.7880  143.6330 N   0  0  0  0  0  2  0  0  0  0  0  0
  189.3520  176.5460  143.5680 C   0  0  1  0  0  3  0  0  0  0  0  0
  191.6170  175.9160  144.1400 N   0  0  0  0  0  2  0  0  0  0  0  0
  190.6650  175.8770  143.2840 C   0  0  0  0  0  3  0  0  0  0  0  0
  189.6210  177.8460  144.3190 C   0  0  0  0  0  2  0  0  0  0  0  0
  187.0320  177.8940  147.0860 C   0  0  0  0  0  3  0  0  0  0  0  0
  189.2220  177.5980  148.0800 C   0  0  0  0  0  3  0  0  0  0  0  0
  189.8050  177.6420  146.8100 C   0  0  0  0  0  3  0  0  0  0  0  0
  189.0020  177.8150  145.6760 C   0  0  0  0  0  0  0  0  0  0  0  0
  187.6150  177.9390  145.8150 C   0  0  0  0  0  3  0  0  0  0  0  0
  187.8360  177.7240  148.2180 C   0  0  0  0  0  3  0  0  0  0  0  0
  188.7950  178.8730  139.0130 N   0  0  0  0  0  2  0  0  0  0  0  0
  188.2550  177.7410  136.9400 C   0  0  2  0  0  3  0  0  0  0  0  0
  189.1310  178.9320  136.6120 C   0  0  0  0  0  2  0  0  0  0  0  0
  189.3680  178.1480  137.8850 C   0  0  1  0  0  3  0  0  0  0  0  0
  188.6910  176.5950  136.1640 N   0  0  0  0  0  2  0  0  0  0  0  0
  187.9520  174.4230  135.4760 C   0  0  0  0  0  2  0  0  0  0  0  0
  187.5280  175.7470  135.9760 C   0  0  2  0  0  3  0  0  0  0  0  0
  187.4250  175.4020  134.6160 O   0  0  0  0  0  0  0  0  0  0  0  0
  1  3  1  0  0  0  0
  2  9  1  6  0  0  0
  2  4  1  0  0  0  0
  3  4  1  0  0  0  0
  3 18  1  1  0  0  0
  5 28  1  6  0  0  0
  5  1  1  0  0  0  0
  5  2  1  0  0  0  0
  6 12  1  0  0  0  0
  6 15  1  0  0  0  0
  7  6  2  0  0  0  0
  9 12  2  0  0  0  0
 10 11  2  0  0  0  0
 10  7  1  0  0  0  0
 11  9  1  0  0  0  0
 12  8  1  0  0  0  0
 13 15  2  0  0  0  0
 13 14  1  0  0  0  0
 14 16  2  0  0  0  0
 15 17  1  0  0  0  0
 17 16  1  0  0  0  0
 18 20  1  6  0  0  0
 18 21  1  0  0  0  0
 20 19  2  0  0  0  0
 21 25  1  0  0  0  0
 22 27  1  0  0  0  0
 23 27  2  0  0  0  0
 24 23  1  0  0  0  0
 25 26  1  0  0  0  0
 25 24  2  0  0  0  0
 26 22  2  0  0  0  0
 29 32  1  6  0  0  0
 29 31  1  0  0  0  0
 30 29  1  0  0  0  0
 30 31  1  0  0  0  0
 31 28  1  1  0  0  0
 33 34  1  0  0  0  0
 34 32  1  6  0  0  0
 35 33  1  0  0  0  0
 35 34  1  0  0  0  0
M  END
>  <MODEL>
2

>  <REMARK>
 VINA RESULT:      -7.5      2.801      4.063
  Name = 
  10 active torsions:
  status: ('A' for Active; 'I' for Inactive)
    1  A    between atoms: C_6  and  N_18
    2  A    between atoms: C_7  and  C_22
    3  A    between atoms: C_10  and  C_12
    4  A    between atoms: C_10  and  C_16
    5  A    between atoms: C_13  and  C_16
    6  A    between atoms: C_16  and  C_21
    7  A    between atoms: C_17  and  C_19
    8  A    between atoms: N_18  and  C_20
    9  A    between atoms: C_25  and  N_26
   10  A    between atoms: N_26  and  C_34
                            x       y       z     vdW  Elec       q    Type
                         _______ _______ _______ _____ _____    ______ ____

>  <TORSDO>
F 10

$$$$
=
 OpenBabel10222418003D

 35 40  0  0  1  0  0  0  0  0999 V2000
  187.6060  177.3340  144.1470 S   0  0  0  0  0  0  0  0  0  0  0  0
  187.9150  178.3570  141.6820 C   0  0  1  0  0  3  0  0  0  0  0  0
  186.1420  177.6830  143.1270 C   0  0  2  0  0  3  0  0  0  0  0  0
  186.5200  178.5940  142.0460 N   0  0  0  0  0  2  0  0  0  0  0  0
  188.5490  177.3340  142.6110 C   0  0  1  0  0  3  0  0  0  0  0  0
  189.2010  176.8830  138.3910 C   0  0  0  0  0  0  0  0  0  0  0  0
  188.1800  177.3230  137.5410 C   0  0  0  0  0  3  0  0  0  0  0  0
  190.1340  176.7970  140.6400 O   0  0  0  0  0  1  0  0  0  0  0  0
  188.0470  177.9710  140.2390 C   0  0  0  0  0  0  0  0  0  0  0  0
  187.1230  178.0750  138.0510 C   0  0  0  0  0  3  0  0  0  0  0  0
  187.0810  178.3790  139.3740 N   0  0  0  0  0  0  0  0  0  0  0  0
  189.1350  177.2120  139.7620 C   0  0  0  0  0  0  0  0  0  0  0  0
  190.3200  174.7400  137.7900 N   0  0  0  0  0  0  0  0  0  0  0  0
  191.4920  174.4630  137.1840 C   0  0  0  0  0  3  0  0  0  0  0  0
  190.3080  176.0870  137.8150 C   0  0  0  0  0  0  0  0  0  0  0  0
  192.1530  175.5910  136.8590 N   0  0  0  0  0  0  0  0  0  0  0  0
  191.4110  176.6110  137.2540 N   0  0  0  0  0  2  0  0  0  0  0  0
  185.0090  178.2780  143.9720 C   0  0  1  0  0  3  0  0  0  0  0  0
  184.8560  178.8590  146.3150 N   0  0  0  0  0  2  0  0  0  0  0  0
  185.5380  178.8980  145.2310 C   0  0  0  0  0  3  0  0  0  0  0  0
  184.2710  179.3490  143.1750 C   0  0  0  0  0  2  0  0  0  0  0  0
  180.6330  178.5610  143.8820 C   0  0  0  0  0  3  0  0  0  0  0  0
  181.0160  178.3760  141.4970 C   0  0  0  0  0  3  0  0  0  0  0  0
  182.3590  178.7140  141.6860 C   0  0  0  0  0  3  0  0  0  0  0  0
  182.8420  178.9730  142.9740 C   0  0  0  0  0  0  0  0  0  0  0  0
  181.9770  178.8980  144.0720 C   0  0  0  0  0  3  0  0  0  0  0  0
  180.1520  178.3000  142.5940 C   0  0  0  0  0  3  0  0  0  0  0  0
  189.9780  177.5810  142.8320 N   0  0  0  0  0  2  0  0  0  0  0  0
  191.6000  177.4850  144.6290 C   0  0  2  0  0  3  0  0  0  0  0  0
  191.4070  178.9380  144.2460 C   0  0  0  0  0  2  0  0  0  0  0  0
  190.2320  177.9850  144.2110 C   0  0  1  0  0  3  0  0  0  0  0  0
  191.6390  177.3710  146.0750 N   0  0  0  0  0  2  0  0  0  0  0  0
  191.4750  175.6040  147.6850 C   0  0  0  0  0  2  0  0  0  0  0  0
  192.0350  176.0070  146.3780 C   0  0  2  0  0  3  0  0  0  0  0  0
  192.8150  176.0060  147.5500 O   0  0  0  0  0  0  0  0  0  0  0  0
  2  9  1  6  0  0  0
  2  4  1  0  0  0  0
  2  5  1  0  0  0  0
  3 18  1  1  0  0  0
  3  1  1  0  0  0  0
  4  3  1  0  0  0  0
  5 28  1  1  0  0  0
  5  1  1  0  0  0  0
  6 12  1  0  0  0  0
  7 10  1  0  0  0  0
  7  6  2  0  0  0  0
 10 11  2  0  0  0  0
 11  9  1  0  0  0  0
 12  9  2  0  0  0  0
 12  8  1  0  0  0  0
 13 15  2  0  0  0  0
 14 13  1  0  0  0  0
 15  6  1  0  0  0  0
 16 14  2  0  0  0  0
 16 17  1  0  0  0  0
 17 15  1  0  0  0  0
 18 21  1  6  0  0  0
 18 20  1  0  0  0  0
 20 19  2  0  0  0  0
 22 26  1  0  0  0  0
 23 24  2  0  0  0  0
 23 27  1  0  0  0  0
 24 25  1  0  0  0  0
 25 21  1  0  0  0  0
 25 26  2  0  0  0  0
 27 22  2  0  0  0  0
 29 32  1  1  0  0  0
 30 29  1  0  0  0  0
 31 28  1  6  0  0  0
 31 30  1  0  0  0  0
 31 29  1  0  0  0  0
 34 32  1  1  0  0  0
 34 35  1  0  0  0  0
 34 33  1  0  0  0  0
 35 33  1  0  0  0  0
M  END
>  <MODEL>
3

>  <REMARK>
 VINA RESULT:      -7.4      3.432      7.297
  Name = 
  10 active torsions:
  status: ('A' for Active; 'I' for Inactive)
    1  A    between atoms: C_6  and  N_18
    2  A    between atoms: C_7  and  C_22
    3  A    between atoms: C_10  and  C_12
    4  A    between atoms: C_10  and  C_16
    5  A    between atoms: C_13  and  C_16
    6  A    between atoms: C_16  and  C_21
    7  A    between atoms: C_17  and  C_19
    8  A    between atoms: N_18  and  C_20
    9  A    between atoms: C_25  and  N_26
   10  A    between atoms: N_26  and  C_34
                            x       y       z     vdW  Elec       q    Type
                         _______ _______ _______ _____ _____    ______ ____

>  <TORSDO>
F 10

$$$$
=
 OpenBabel10222418003D

 35 40  0  0  1  0  0  0  0  0999 V2000
  188.4260  177.6020  140.0010 S   0  0  0  0  0  0  0  0  0  0  0  0
  190.5810  177.0170  138.5060 C   0  0  1  0  0  3  0  0  0  0  0  0
  188.2140  177.1450  138.2540 C   0  0  2  0  0  3  0  0  0  0  0  0
  189.4960  177.2850  137.5640 N   0  0  0  0  0  2  0  0  0  0  0  0
  190.0370  176.7970  139.9090 C   0  0  1  0  0  3  0  0  0  0  0  0
  193.5910  174.7840  137.7260 C   0  0  0  0  0  0  0  0  0  0  0  0
  192.9160  173.7020  137.1500 C   0  0  0  0  0  3  0  0  0  0  0  0
  193.4760  176.9890  138.7560 O   0  0  0  0  0  1  0  0  0  0  0  0
  191.4390  175.8760  138.0460 C   0  0  0  0  0  0  0  0  0  0  0  0
  191.5280  173.7290  137.0310 C   0  0  0  0  0  3  0  0  0  0  0  0
  190.8280  174.8040  137.4760 N   0  0  0  0  0  0  0  0  0  0  0  0
  192.8430  175.8900  138.1810 C   0  0  0  0  0  0  0  0  0  0  0  0
  195.7110  174.1400  138.8670 N   0  0  0  0  0  0  0  0  0  0  0  0
  197.0080  174.3170  138.5450 C   0  0  0  0  0  3  0  0  0  0  0  0
  195.0660  174.7220  137.8360 C   0  0  0  0  0  0  0  0  0  0  0  0
  197.1370  174.9720  137.3760 N   0  0  0  0  0  0  0  0  0  0  0  0
  195.9190  175.2270  136.9290 N   0  0  0  0  0  2  0  0  0  0  0  0
  187.1370  178.0060  137.5850 C   0  0  1  0  0  3  0  0  0  0  0  0
  187.1140  178.0580  135.1660 N   0  0  0  0  0  2  0  0  0  0  0  0
  187.6030  178.5230  136.2560 C   0  0  0  0  0  3  0  0  0  0  0  0
  185.8700  177.1850  137.3700 C   0  0  0  0  0  2  0  0  0  0  0  0
  183.6740  179.5710  139.3310 C   0  0  0  0  0  3  0  0  0  0  0  0
  182.2920  178.3780  137.7380 C   0  0  0  0  0  3  0  0  0  0  0  0
  183.4150  177.6770  137.2880 C   0  0  0  0  0  3  0  0  0  0  0  0
  184.6690  177.9200  137.8610 C   0  0  0  0  0  0  0  0  0  0  0  0
  184.7970  178.8700  138.8810 C   0  0  0  0  0  3  0  0  0  0  0  0
  182.4210  179.3250  138.7590 C   0  0  0  0  0  3  0  0  0  0  0  0
  190.9560  177.2650  140.9510 N   0  0  0  0  0  2  0  0  0  0  0  0
  191.5900  177.1920  143.2890 C   0  0  2  0  0  3  0  0  0  0  0  0
  190.2710  177.9290  143.1810 C   0  0  0  0  0  2  0  0  0  0  0  0
  190.5610  176.7610  142.2620 C   0  0  1  0  0  3  0  0  0  0  0  0
  191.5400  176.2800  144.4170 N   0  0  0  0  0  2  0  0  0  0  0  0
  191.8240  176.2370  146.7950 C   0  0  0  0  0  2  0  0  0  0  0  0
  191.5770  177.0960  145.6180 C   0  0  2  0  0  3  0  0  0  0  0  0
  190.5350  176.6960  146.4750 O   0  0  0  0  0  0  0  0  0  0  0  0
  2  9  1  6  0  0  0
  2  5  1  0  0  0  0
  3 18  1  6  0  0  0
  3  1  1  0  0  0  0
  4  3  1  0  0  0  0
  4  2  1  0  0  0  0
  5  1  1  0  0  0  0
  5 28  1  1  0  0  0
  6 15  1  0  0  0  0
  6 12  1  0  0  0  0
  7  6  2  0  0  0  0
  9 12  2  0  0  0  0
 10  7  1  0  0  0  0
 10 11  2  0  0  0  0
 11  9  1  0  0  0  0
 12  8  1  0  0  0  0
 14 13  1  0  0  0  0
 15 13  2  0  0  0  0
 16 14  2  0  0  0  0
 17 16  1  0  0  0  0
 17 15  1  0  0  0  0
 18 20  1  6  0  0  0
 19 20  2  0  0  0  0
 21 18  1  0  0  0  0
 21 25  1  0  0  0  0
 23 27  1  0  0  0  0
 24 23  2  0  0  0  0
 24 25  1  0  0  0  0
 25 26  2  0  0  0  0
 26 22  1  0  0  0  0
 27 22  2  0  0  0  0
 29 32  1  1  0  0  0
 30 29  1  0  0  0  0
 31 28  1  6  0  0  0
 31 30  1  0  0  0  0
 31 29  1  0  0  0  0
 34 32  1  6  0  0  0
 34 35  1  0  0  0  0
 34 33  1  0  0  0  0
 35 33  1  0  0  0  0
M  END
>  <MODEL>
4

>  <REMARK>
 VINA RESULT:      -7.3      4.313     10.106
  Name = 
  10 active torsions:
  status: ('A' for Active; 'I' for Inactive)
    1  A    between atoms: C_6  and  N_18
    2  A    between atoms: C_7  and  C_22
    3  A    between atoms: C_10  and  C_12
    4  A    between atoms: C_10  and  C_16
    5  A    between atoms: C_13  and  C_16
    6  A    between atoms: C_16  and  C_21
    7  A    between atoms: C_17  and  C_19
    8  A    between atoms: N_18  and  C_20
    9  A    between atoms: C_25  and  N_26
   10  A    between atoms: N_26  and  C_34
                            x       y       z     vdW  Elec       q    Type
                         _______ _______ _______ _____ _____    ______ ____

>  <TORSDO>
F 10

$$$$
=
 OpenBabel10222418003D

 35 40  0  0  1  0  0  0  0  0999 V2000
  187.4980  177.9660  142.5600 S   0  0  0  0  0  0  0  0  0  0  0  0
  185.5550  179.3330  141.3040 C   0  0  1  0  0  3  0  0  0  0  0  0
  185.9240  178.2830  143.4130 C   0  0  2  0  0  3  0  0  0  0  0  0
  185.2170  179.3640  142.7260 N   0  0  0  0  0  2  0  0  0  0  0  0
  186.6080  178.2730  141.0220 C   0  0  1  0  0  3  0  0  0  0  0  0
  182.1730  178.1480  139.9580 C   0  0  0  0  0  0  0  0  0  0  0  0
  182.1210  178.9180  138.7900 C   0  0  0  0  0  3  0  0  0  0  0  0
  183.3880  177.5150  141.9720 O   0  0  0  0  0  1  0  0  0  0  0  0
  184.3320  179.1570  140.4530 C   0  0  0  0  0  0  0  0  0  0  0  0
  183.1680  179.7830  138.4780 C   0  0  0  0  0  3  0  0  0  0  0  0
  184.2390  179.8820  139.3070 N   0  0  0  0  0  0  0  0  0  0  0  0
  183.2960  178.2670  140.8040 C   0  0  0  0  0  0  0  0  0  0  0  0
  180.9510  175.9840  139.7760 N   0  0  0  0  0  0  0  0  0  0  0  0
  179.7890  175.5470  140.3030 C   0  0  0  0  0  3  0  0  0  0  0  0
  181.0440  177.2400  140.2570 C   0  0  0  0  0  0  0  0  0  0  0  0
  179.2120  176.4940  141.0650 N   0  0  0  0  0  0  0  0  0  0  0  0
  179.9970  177.5570  141.0390 N   0  0  0  0  0  2  0  0  0  0  0  0
  186.1550  178.6320  144.8870 C   0  0  1  0  0  3  0  0  0  0  0  0
  183.9520  178.6420  145.8870 N   0  0  0  0  0  2  0  0  0  0  0  0
  184.9590  179.3200  145.4770 C   0  0  0  0  0  3  0  0  0  0  0  0
  186.4300  177.3630  145.6880 C   0  0  0  0  0  2  0  0  0  0  0  0
  188.7200  178.1470  148.6030 C   0  0  0  0  0  3  0  0  0  0  0  0
  190.0540  177.2520  146.7890 C   0  0  0  0  0  3  0  0  0  0  0  0
  188.9030  177.1260  146.0050 C   0  0  0  0  0  3  0  0  0  0  0  0
  187.6600  177.5130  146.5180 C   0  0  0  0  0  0  0  0  0  0  0  0
  187.5690  178.0220  147.8180 C   0  0  0  0  0  3  0  0  0  0  0  0
  189.9630  177.7620  148.0880 C   0  0  0  0  0  3  0  0  0  0  0  0
  187.5040  178.6450  139.9230 N   0  0  0  0  0  2  0  0  0  0  0  0
  188.2390  177.4100  137.9720 C   0  0  2  0  0  3  0  0  0  0  0  0
  189.4630  177.9910  138.6500 C   0  0  0  0  0  2  0  0  0  0  0  0
  188.2980  177.5020  139.4840 C   0  0  1  0  0  3  0  0  0  0  0  0
  188.5150  176.0430  137.5720 N   0  0  0  0  0  2  0  0  0  0  0  0
  188.4420  175.0280  135.4030 C   0  0  0  0  0  2  0  0  0  0  0  0
  189.0470  176.0990  136.2220 C   0  0  2  0  0  3  0  0  0  0  0  0
  189.7320  174.9010  135.9480 O   0  0  0  0  0  0  0  0  0  0  0  0
  1  3  1  0  0  0  0
  2  9  1  6  0  0  0
  2  4  1  0  0  0  0
  3 18  1  1  0  0  0
  4  3  1  0  0  0  0
  5 28  1  6  0  0  0
  5  2  1  0  0  0  0
  5  1  1  0  0  0  0
  6 15  1  0  0  0  0
  6 12  1  0  0  0  0
  7  6  2  0  0  0  0
  9 12  2  0  0  0  0
 10  7  1  0  0  0  0
 10 11  2  0  0  0  0
 11  9  1  0  0  0  0
 12  8  1  0  0  0  0
 13 15  2  0  0  0  0
 13 14  1  0  0  0  0
 14 16  2  0  0  0  0
 15 17  1  0  0  0  0
 17 16  1  0  0  0  0
 18 20  1  1  0  0  0
 18 21  1  0  0  0  0
 20 19  2  0  0  0  0
 21 25  1  0  0  0  0
 23 27  2  0  0  0  0
 24 25  2  0  0  0  0
 24 23  1  0  0  0  0
 25 26  1  0  0  0  0
 26 22  2  0  0  0  0
 27 22  1  0  0  0  0
 29 32  1  1  0  0  0
 29 30  1  0  0  0  0
 29 31  1  0  0  0  0
 30 31  1  0  0  0  0
 31 28  1  6  0  0  0
 33 35  1  0  0  0  0
 33 34  1  0  0  0  0
 34 32  1  1  0  0  0
 35 34  1  0  0  0  0
M  END
>  <MODEL>
5

>  <REMARK>
 VINA RESULT:      -7.1      1.953      2.626
  Name = 
  10 active torsions:
  status: ('A' for Active; 'I' for Inactive)
    1  A    between atoms: C_6  and  N_18
    2  A    between atoms: C_7  and  C_22
    3  A    between atoms: C_10  and  C_12
    4  A    between atoms: C_10  and  C_16
    5  A    between atoms: C_13  and  C_16
    6  A    between atoms: C_16  and  C_21
    7  A    between atoms: C_17  and  C_19
    8  A    between atoms: N_18  and  C_20
    9  A    between atoms: C_25  and  N_26
   10  A    between atoms: N_26  and  C_34
                            x       y       z     vdW  Elec       q    Type
                         _______ _______ _______ _____ _____    ______ ____

>  <TORSDO>
F 10

$$$$
=
 OpenBabel10222418003D

 35 40  0  0  1  0  0  0  0  0999 V2000
  187.8880  177.9780  142.7410 S   0  0  0  0  0  0  0  0  0  0  0  0
  185.9740  179.0390  141.1820 C   0  0  1  0  0  3  0  0  0  0  0  0
  186.1840  178.0970  143.3630 C   0  0  2  0  0  3  0  0  0  0  0  0
  185.4430  179.0560  142.5430 N   0  0  0  0  0  2  0  0  0  0  0  0
  187.1870  178.1250  141.0870 C   0  0  1  0  0  3  0  0  0  0  0  0
  182.6310  178.0970  139.5730 C   0  0  0  0  0  0  0  0  0  0  0  0
  183.0460  178.0160  138.2390 C   0  0  0  0  0  3  0  0  0  0  0  0
  183.2070  178.5200  141.9020 O   0  0  0  0  0  1  0  0  0  0  0  0
  184.9140  178.6780  140.1830 C   0  0  0  0  0  0  0  0  0  0  0  0
  184.3770  178.2620  137.9060 C   0  0  0  0  0  3  0  0  0  0  0  0
  185.2710  178.5840  138.8760 N   0  0  0  0  0  0  0  0  0  0  0  0
  183.5790  178.4330  140.5620 C   0  0  0  0  0  0  0  0  0  0  0  0
  180.3050  178.7990  140.1270 N   0  0  0  0  0  0  0  0  0  0  0  0
  179.1750  178.1020  140.3600 C   0  0  0  0  0  3  0  0  0  0  0  0
  181.2100  177.8280  139.8900 C   0  0  0  0  0  0  0  0  0  0  0  0
  179.3900  176.7760  140.2670 N   0  0  0  0  0  0  0  0  0  0  0  0
  180.6660  176.6020  139.9710 N   0  0  0  0  0  2  0  0  0  0  0  0
  186.1610  178.5080  144.8390 C   0  0  1  0  0  3  0  0  0  0  0  0
  184.1800  178.6520  146.2210 N   0  0  0  0  0  2  0  0  0  0  0  0
  184.8370  179.1040  145.2170 C   0  0  0  0  0  3  0  0  0  0  0  0
  186.4190  177.2930  145.7240 C   0  0  0  0  0  2  0  0  0  0  0  0
  190.0420  177.3290  146.8320 C   0  0  0  0  0  3  0  0  0  0  0  0
  188.6790  178.2510  148.6100 C   0  0  0  0  0  3  0  0  0  0  0  0
  187.5330  178.0530  147.8350 C   0  0  0  0  0  3  0  0  0  0  0  0
  187.6390  177.4900  146.5580 C   0  0  0  0  0  0  0  0  0  0  0  0
  188.8950  177.1300  146.0560 C   0  0  0  0  0  3  0  0  0  0  0  0
  189.9340  177.8890  148.1090 C   0  0  0  0  0  3  0  0  0  0  0  0
  188.1680  178.5900  140.1030 N   0  0  0  0  0  2  0  0  0  0  0  0
  190.1480  177.7880  138.9590 C   0  0  2  0  0  3  0  0  0  0  0  0
  189.8580  176.8500  140.1130 C   0  0  0  0  0  2  0  0  0  0  0  0
  188.7150  177.4730  139.3400 C   0  0  1  0  0  3  0  0  0  0  0  0
  190.5050  177.0100  137.7870 N   0  0  0  0  0  2  0  0  0  0  0  0
  192.2350  175.6110  136.8980 C   0  0  0  0  0  2  0  0  0  0  0  0
  191.7660  176.3550  138.0860 C   0  0  2  0  0  3  0  0  0  0  0  0
  191.5980  174.9620  137.9710 O   0  0  0  0  0  0  0  0  0  0  0  0
  1  3  1  0  0  0  0
  2  9  1  6  0  0  0
  2  4  1  0  0  0  0
  3 18  1  1  0  0  0
  4  3  1  0  0  0  0
  5 28  1  6  0  0  0
  5  2  1  0  0  0  0
  5  1  1  0  0  0  0
  6 15  1  0  0  0  0
  6 12  1  0  0  0  0
  7  6  2  0  0  0  0
  9 12  2  0  0  0  0
 10  7  1  0  0  0  0
 10 11  2  0  0  0  0
 11  9  1  0  0  0  0
 12  8  1  0  0  0  0
 13 14  1  0  0  0  0
 15 17  1  0  0  0  0
 15 13  2  0  0  0  0
 16 14  2  0  0  0  0
 17 16  1  0  0  0  0
 18 20  1  1  0  0  0
 18 21  1  0  0  0  0
 20 19  2  0  0  0  0
 21 25  1  0  0  0  0
 22 27  1  0  0  0  0
 24 23  1  0  0  0  0
 25 24  2  0  0  0  0
 26 25  1  0  0  0  0
 26 22  2  0  0  0  0
 27 23  2  0  0  0  0
 29 32  1  6  0  0  0
 29 31  1  0  0  0  0
 29 30  1  0  0  0  0
 31 28  1  1  0  0  0
 31 30  1  0  0  0  0
 33 35  1  0  0  0  0
 33 34  1  0  0  0  0
 34 32  1  6  0  0  0
 35 34  1  0  0  0  0
M  END
>  <MODEL>
6

>  <REMARK>
 VINA RESULT:      -7.1      1.858      2.449
  Name = 
  10 active torsions:
  status: ('A' for Active; 'I' for Inactive)
    1  A    between atoms: C_6  and  N_18
    2  A    between atoms: C_7  and  C_22
    3  A    between atoms: C_10  and  C_12
    4  A    between atoms: C_10  and  C_16
    5  A    between atoms: C_13  and  C_16
    6  A    between atoms: C_16  and  C_21
    7  A    between atoms: C_17  and  C_19
    8  A    between atoms: N_18  and  C_20
    9  A    between atoms: C_25  and  N_26
   10  A    between atoms: N_26  and  C_34
                            x       y       z     vdW  Elec       q    Type
                         _______ _______ _______ _____ _____    ______ ____

>  <TORSDO>
F 10

$$$$
=
 OpenBabel10222418003D

 35 40  0  0  1  0  0  0  0  0999 V2000
  188.0610  177.5220  144.0790 S   0  0  0  0  0  0  0  0  0  0  0  0
  188.2900  178.2790  141.5100 C   0  0  1  0  0  3  0  0  0  0  0  0
  186.6010  177.4870  142.9960 C   0  0  2  0  0  3  0  0  0  0  0  0
  186.8620  178.3130  141.8160 N   0  0  0  0  0  2  0  0  0  0  0  0
  189.0510  177.5000  142.5720 C   0  0  1  0  0  3  0  0  0  0  0  0
  187.8890  177.3380  137.8210 C   0  0  0  0  0  0  0  0  0  0  0  0
  189.1310  176.7250  137.6160 C   0  0  0  0  0  3  0  0  0  0  0  0
  186.3620  178.4710  139.3440 O   0  0  0  0  0  1  0  0  0  0  0  0
  188.5430  177.7490  140.1300 C   0  0  0  0  0  0  0  0  0  0  0  0
  190.0460  176.6350  138.6640 C   0  0  0  0  0  3  0  0  0  0  0  0
  189.7340  177.1430  139.8840 N   0  0  0  0  0  0  0  0  0  0  0  0
  187.5880  177.8580  139.0980 C   0  0  0  0  0  0  0  0  0  0  0  0
  185.7040  176.8820  136.7130 N   0  0  0  0  0  0  0  0  0  0  0  0
  185.2180  177.1950  135.4950 C   0  0  0  0  0  3  0  0  0  0  0  0
  186.9420  177.4150  136.6870 C   0  0  0  0  0  0  0  0  0  0  0  0
  186.1210  177.8830  134.7710 N   0  0  0  0  0  0  0  0  0  0  0  0
  187.2030  178.0230  135.5170 N   0  0  0  0  0  2  0  0  0  0  0  0
  185.3520  177.9750  143.7390 C   0  0  1  0  0  3  0  0  0  0  0  0
  184.8150  178.9690  145.8780 N   0  0  0  0  0  2  0  0  0  0  0  0
  185.6730  178.3500  145.1550 C   0  0  0  0  0  3  0  0  0  0  0  0
  184.7680  179.1940  143.0330 C   0  0  0  0  0  2  0  0  0  0  0  0
  181.8430  178.2940  140.7990 C   0  0  0  0  0  3  0  0  0  0  0  0
  181.0050  178.7460  143.0270 C   0  0  0  0  0  3  0  0  0  0  0  0
  182.3060  179.0140  143.4630 C   0  0  0  0  0  3  0  0  0  0  0  0
  183.3770  178.9250  142.5660 C   0  0  0  0  0  0  0  0  0  0  0  0
  183.1440  178.5620  141.2340 C   0  0  0  0  0  3  0  0  0  0  0  0
  180.7730  178.3860  141.6960 C   0  0  0  0  0  3  0  0  0  0  0  0
  190.4070  178.0150  142.7860 N   0  0  0  0  0  2  0  0  0  0  0  0
  191.6870  177.5660  144.7940 C   0  0  2  0  0  3  0  0  0  0  0  0
  191.9970  178.9790  144.3440 C   0  0  0  0  0  2  0  0  0  0  0  0
  190.6000  178.4210  144.1740 C   0  0  1  0  0  3  0  0  0  0  0  0
  191.5100  177.5480  146.2340 N   0  0  0  0  0  2  0  0  0  0  0  0
  192.1150  175.7930  147.7480 C   0  0  0  0  0  2  0  0  0  0  0  0
  191.2530  176.1690  146.6080 C   0  0  2  0  0  3  0  0  0  0  0  0
  192.4300  175.4180  146.4310 O   0  0  0  0  0  0  0  0  0  0  0  0
  2  9  1  6  0  0  0
  2  4  1  0  0  0  0
  2  5  1  0  0  0  0
  3 18  1  1  0  0  0
  3  1  1  0  0  0  0
  4  3  1  0  0  0  0
  5 28  1  1  0  0  0
  5  1  1  0  0  0  0
  6 12  1  0  0  0  0
  7  6  2  0  0  0  0
  7 10  1  0  0  0  0
 10 11  2  0  0  0  0
 11  9  1  0  0  0  0
 12  8  1  0  0  0  0
 12  9  2  0  0  0  0
 14 13  1  0  0  0  0
 15 13  2  0  0  0  0
 15  6  1  0  0  0  0
 16 14  2  0  0  0  0
 16 17  1  0  0  0  0
 17 15  1  0  0  0  0
 18 21  1  6  0  0  0
 18 20  1  0  0  0  0
 20 19  2  0  0  0  0
 22 26  2  0  0  0  0
 22 27  1  0  0  0  0
 23 24  1  0  0  0  0
 25 21  1  0  0  0  0
 25 24  2  0  0  0  0
 26 25  1  0  0  0  0
 27 23  2  0  0  0  0
 29 32  1  1  0  0  0
 30 29  1  0  0  0  0
 31 28  1  6  0  0  0
 31 30  1  0  0  0  0
 31 29  1  0  0  0  0
 34 32  1  6  0  0  0
 34 33  1  0  0  0  0
 35 34  1  0  0  0  0
 35 33  1  0  0  0  0
M  END
>  <MODEL>
7

>  <REMARK>
 VINA RESULT:      -7.1      3.263      6.362
  Name = 
  10 active torsions:
  status: ('A' for Active; 'I' for Inactive)
    1  A    between atoms: C_6  and  N_18
    2  A    between atoms: C_7  and  C_22
    3  A    between atoms: C_10  and  C_12
    4  A    between atoms: C_10  and  C_16
    5  A    between atoms: C_13  and  C_16
    6  A    between atoms: C_16  and  C_21
    7  A    between atoms: C_17  and  C_19
    8  A    between atoms: N_18  and  C_20
    9  A    between atoms: C_25  and  N_26
   10  A    between atoms: N_26  and  C_34
                            x       y       z     vdW  Elec       q    Type
                         _______ _______ _______ _____ _____    ______ ____

>  <TORSDO>
F 10

$$$$
=
 OpenBabel10222418003D

 35 40  0  0  1  0  0  0  0  0999 V2000
  188.1670  178.2530  139.8550 S   0  0  0  0  0  0  0  0  0  0  0  0
  188.6230  176.8830  142.1220 C   0  0  1  0  0  3  0  0  0  0  0  0
  187.2360  178.6670  141.3610 C   0  0  2  0  0  3  0  0  0  0  0  0
  187.3390  177.5550  142.3070 N   0  0  0  0  0  2  0  0  0  0  0  0
  189.3780  177.4760  140.9410 C   0  0  1  0  0  3  0  0  0  0  0  0
  189.6960  177.1990  145.7830 C   0  0  0  0  0  0  0  0  0  0  0  0
  191.0550  176.8990  145.6380 C   0  0  0  0  0  3  0  0  0  0  0  0
  187.5160  177.4980  144.7370 O   0  0  0  0  0  1  0  0  0  0  0  0
  189.4380  176.8980  143.3810 C   0  0  0  0  0  0  0  0  0  0  0  0
  191.5760  176.6100  144.3780 C   0  0  0  0  0  3  0  0  0  0  0  0
  190.7640  176.6160  143.2890 N   0  0  0  0  0  0  0  0  0  0  0  0
  188.8730  177.2000  144.6370 C   0  0  0  0  0  0  0  0  0  0  0  0
  187.9690  177.0980  147.5760 N   0  0  0  0  0  0  0  0  0  0  0  0
  187.9300  177.5880  148.8320 C   0  0  0  0  0  3  0  0  0  0  0  0
  189.1780  177.5010  147.1350 C   0  0  0  0  0  0  0  0  0  0  0  0
  189.0620  178.2530  149.1320 N   0  0  0  0  0  0  0  0  0  0  0  0
  189.8460  178.1990  148.0690 N   0  0  0  0  0  2  0  0  0  0  0  0
  185.7690  178.9730  141.0360 C   0  0  1  0  0  3  0  0  0  0  0  0
  184.5570  179.7540  139.0930 N   0  0  0  0  0  2  0  0  0  0  0  0
  185.5540  179.0940  139.5570 C   0  0  0  0  0  3  0  0  0  0  0  0
  184.8730  177.8590  141.5680 C   0  0  0  0  0  2  0  0  0  0  0  0
  181.6570  179.1090  143.1350 C   0  0  0  0  0  3  0  0  0  0  0  0
  183.3940  179.1110  144.8250 C   0  0  0  0  0  3  0  0  0  0  0  0
  184.3100  178.6280  143.8850 C   0  0  0  0  0  3  0  0  0  0  0  0
  183.9010  178.3890  142.5680 C   0  0  0  0  0  0  0  0  0  0  0  0
  182.5740  178.6280  142.1950 C   0  0  0  0  0  3  0  0  0  0  0  0
  182.0680  179.3510  144.4510 C   0  0  0  0  0  3  0  0  0  0  0  0
  190.2010  176.4840  140.2420 N   0  0  0  0  0  2  0  0  0  0  0  0
  191.8750  176.0620  138.5420 C   0  0  2  0  0  3  0  0  0  0  0  0
  190.6010  176.5000  137.8500 C   0  0  0  0  0  2  0  0  0  0  0  0
  190.9850  177.1080  139.1820 C   0  0  1  0  0  3  0  0  0  0  0  0
  193.0090  176.7230  137.9240 N   0  0  0  0  0  2  0  0  0  0  0  0
  194.3260  176.1710  136.0000 C   0  0  0  0  0  2  0  0  0  0  0  0
  193.8090  175.6860  137.2970 C   0  0  2  0  0  3  0  0  0  0  0  0
  193.2110  175.3190  136.0770 O   0  0  0  0  0  0  0  0  0  0  0  0
  1  5  1  0  0  0  0
  1  3  1  0  0  0  0
  2  4  1  0  0  0  0
  2  9  1  1  0  0  0
  3 18  1  6  0  0  0
  3  4  1  0  0  0  0
  5 28  1  6  0  0  0
  5  2  1  0  0  0  0
  6 15  1  0  0  0  0
  7  6  1  0  0  0  0
  9 12  1  0  0  0  0
 10  7  2  0  0  0  0
 11  9  2  0  0  0  0
 11 10  1  0  0  0  0
 12  8  1  0  0  0  0
 12  6  2  0  0  0  0
 13 14  1  0  0  0  0
 14 16  2  0  0  0  0
 15 13  2  0  0  0  0
 15 17  1  0  0  0  0
 17 16  1  0  0  0  0
 18 20  1  6  0  0  0
 18 21  1  0  0  0  0
 19 20  2  0  0  0  0
 21 25  1  0  0  0  0
 22 27  1  0  0  0  0
 24 23  1  0  0  0  0
 25 24  2  0  0  0  0
 26 25  1  0  0  0  0
 26 22  2  0  0  0  0
 27 23  2  0  0  0  0
 29 32  1  6  0  0  0
 29 31  1  0  0  0  0
 30 29  1  0  0  0  0
 30 31  1  0  0  0  0
 31 28  1  1  0  0  0
 33 35  1  0  0  0  0
 33 34  1  0  0  0  0
 34 32  1  1  0  0  0
 35 34  1  0  0  0  0
M  END
>  <MODEL>
8

>  <REMARK>
 VINA RESULT:      -7.1      3.032      7.798
  Name = 
  10 active torsions:
  status: ('A' for Active; 'I' for Inactive)
    1  A    between atoms: C_6  and  N_18
    2  A    between atoms: C_7  and  C_22
    3  A    between atoms: C_10  and  C_12
    4  A    between atoms: C_10  and  C_16
    5  A    between atoms: C_13  and  C_16
    6  A    between atoms: C_16  and  C_21
    7  A    between atoms: C_17  and  C_19
    8  A    between atoms: N_18  and  C_20
    9  A    between atoms: C_25  and  N_26
   10  A    between atoms: N_26  and  C_34
                            x       y       z     vdW  Elec       q    Type
                         _______ _______ _______ _____ _____    ______ ____

>  <TORSDO>
F 10

$$$$
=
 OpenBabel10222418003D

 35 40  0  0  1  0  0  0  0  0999 V2000
  186.6410  178.9860  141.3810 S   0  0  0  0  0  0  0  0  0  0  0  0
  187.2840  177.4920  143.5200 C   0  0  1  0  0  3  0  0  0  0  0  0
  185.3700  178.5920  142.6190 C   0  0  2  0  0  3  0  0  0  0  0  0
  185.8260  177.4610  143.4290 N   0  0  0  0  0  2  0  0  0  0  0  0
  187.8560  178.6070  142.6580 C   0  0  1  0  0  3  0  0  0  0  0  0
  189.3800  177.2390  146.7130 C   0  0  0  0  0  0  0  0  0  0  0  0
  188.4750  177.8110  147.6140 C   0  0  0  0  0  3  0  0  0  0  0  0
  189.8810  176.5560  144.4290 O   0  0  0  0  0  1  0  0  0  0  0  0
  187.7430  177.5850  144.9450 C   0  0  0  0  0  0  0  0  0  0  0  0
  187.2310  178.2520  147.1680 C   0  0  0  0  0  3  0  0  0  0  0  0
  186.8960  178.1300  145.8570 N   0  0  0  0  0  0  0  0  0  0  0  0
  189.0100  177.1230  145.3560 C   0  0  0  0  0  0  0  0  0  0  0  0
  191.2680  175.6190  146.8550 N   0  0  0  0  0  0  0  0  0  0  0  0
  192.4240  175.6260  147.5500 C   0  0  0  0  0  3  0  0  0  0  0  0
  190.6920  176.7820  147.2220 C   0  0  0  0  0  0  0  0  0  0  0  0
  192.5380  176.7400  148.2980 N   0  0  0  0  0  0  0  0  0  0  0  0
  191.4530  177.4670  148.0930 N   0  0  0  0  0  2  0  0  0  0  0  0
  184.0260  178.2770  141.9500 C   0  0  1  0  0  3  0  0  0  0  0  0
  183.0840  179.4470  143.8470 N   0  0  0  0  0  2  0  0  0  0  0  0
  182.8770  178.7520  142.7900 C   0  0  0  0  0  3  0  0  0  0  0  0
  183.9480  178.9590  140.5890 C   0  0  0  0  0  2  0  0  0  0  0  0
  181.7680  178.0230  137.6340 C   0  0  0  0  0  3  0  0  0  0  0  0
  182.2170  176.0250  138.9300 C   0  0  0  0  0  3  0  0  0  0  0  0
  182.9740  176.7790  139.8310 C   0  0  0  0  0  3  0  0  0  0  0  0
  183.1270  178.1570  139.6370 C   0  0  0  0  0  0  0  0  0  0  0  0
  182.5250  178.7780  138.5360 C   0  0  0  0  0  3  0  0  0  0  0  0
  181.6140  176.6470  137.8310 C   0  0  0  0  0  3  0  0  0  0  0  0
  189.1690  178.2710  142.0980 N   0  0  0  0  0  2  0  0  0  0  0  0
  189.7260  177.7590  139.7970 C   0  0  2  0  0  3  0  0  0  0  0  0
  190.4290  176.7540  140.6860 C   0  0  0  0  0  2  0  0  0  0  0  0
  189.0500  177.2560  141.0570 C   0  0  1  0  0  3  0  0  0  0  0  0
  189.1590  177.0730  138.6510 N   0  0  0  0  0  2  0  0  0  0  0  0
  188.8560  177.2730  136.2830 C   0  0  0  0  0  2  0  0  0  0  0  0
  189.4890  177.8650  137.4800 C   0  0  2  0  0  3  0  0  0  0  0  0
  190.2150  177.0680  136.5760 O   0  0  0  0  0  0  0  0  0  0  0  0
  1  3  1  0  0  0  0
  1  5  1  0  0  0  0
  2  9  1  1  0  0  0
  3 18  1  6  0  0  0
  3  4  1  0  0  0  0
  4  2  1  0  0  0  0
  5 28  1  6  0  0  0
  5  2  1  0  0  0  0
  6 15  1  0  0  0  0
  6  7  1  0  0  0  0
  8 12  1  0  0  0  0
  9 12  1  0  0  0  0
  9 11  2  0  0  0  0
 10  7  2  0  0  0  0
 11 10  1  0  0  0  0
 12  6  2  0  0  0  0
 13 15  2  0  0  0  0
 13 14  1  0  0  0  0
 14 16  2  0  0  0  0
 15 17  1  0  0  0  0
 17 16  1  0  0  0  0
 18 21  1  6  0  0  0
 18 20  1  0  0  0  0
 20 19  2  0  0  0  0
 22 27  2  0  0  0  0
 22 26  1  0  0  0  0
 23 24  2  0  0  0  0
 25 24  1  0  0  0  0
 25 21  1  0  0  0  0
 26 25  2  0  0  0  0
 27 23  1  0  0  0  0
 29 32  1  6  0  0  0
 29 30  1  0  0  0  0
 29 31  1  0  0  0  0
 30 31  1  0  0  0  0
 31 28  1  1  0  0  0
 33 35  1  0  0  0  0
 33 34  1  0  0  0  0
 34 32  1  1  0  0  0
 35 34  1  0  0  0  0
M  END
>  <MODEL>
9

>  <REMARK>
 VINA RESULT:      -7.0      3.209      8.680
  Name = 
  10 active torsions:
  status: ('A' for Active; 'I' for Inactive)
    1  A    between atoms: C_6  and  N_18
    2  A    between atoms: C_7  and  C_22
    3  A    between atoms: C_10  and  C_12
    4  A    between atoms: C_10  and  C_16
    5  A    between atoms: C_13  and  C_16
    6  A    between atoms: C_16  and  C_21
    7  A    between atoms: C_17  and  C_19
    8  A    between atoms: N_18  and  C_20
    9  A    between atoms: C_25  and  N_26
   10  A    between atoms: N_26  and  C_34
                            x       y       z     vdW  Elec       q    Type
                         _______ _______ _______ _____ _____    ______ ____

>  <TORSDO>
F 10

$$$$
