=
 OpenBabel10222417013D

 30 36  0  0  1  0  0  0  0  0999 V2000
  187.5690  178.2440  144.7610 C   0  0  1  0  0  3  0  0  0  0  0  0
  184.4920  178.9970  145.4910 N   0  0  0  0  0  0  0  0  0  0  0  0
  188.9660  177.2020  142.6340 C   0  0  1  0  0  3  0  0  0  0  0  0
  186.4290  177.2200  142.7230 N   0  0  0  0  0  2  0  0  0  0  0  0
  185.7150  178.6230  146.1290 C   0  0  0  0  0  0  0  0  0  0  0  0
  183.9610  179.0680  140.8270 N   0  0  0  0  0  0  0  0  0  0  0  0
  186.0180  179.2390  147.2850 C   0  0  0  0  0  2  0  0  0  0  0  0
  183.5070  179.1840  142.1680 C   0  0  2  0  0  3  0  0  0  0  0  0
  188.5700  177.3200  147.1190 C   0  0  2  0  0  3  0  0  0  0  0  0
  183.8930  178.2350  144.3980 C   0  0  2  0  0  3  0  0  0  0  0  0
  185.1130  178.4760  140.9190 C   0  0  0  0  0  3  0  0  0  0  0  0
  185.4420  178.1790  142.3240 C   0  0  0  0  0  0  0  0  0  0  0  0
  188.2220  178.2700  148.1760 C   0  0  0  0  0  3  0  0  0  0  0  0
  187.9370  177.3420  145.9650 C   0  0  1  0  0  3  0  0  0  0  0  0
  184.4500  178.6480  143.0750 C   0  0  0  0  0  0  0  0  0  0  0  0
  189.4740  176.1880  147.4440 C   0  0  0  0  0  1  0  0  0  0  0  0
  187.6840  177.6220  143.3660 C   0  0  1  0  0  0  0  0  0  0  0  0
  186.5360  177.5750  145.4460 C   0  0  2  0  0  3  0  0  0  0  0  0
  181.0930  179.3390  141.6820 C   0  0  0  0  0  1  0  0  0  0  0  0
  182.1020  178.6690  144.3030 S   0  0  0  0  0  0  0  0  0  0  0  0
  182.2630  179.2140  142.5940 C   0  0  1  0  0  3  0  0  0  0  0  0
  187.1580  179.0840  148.2220 C   0  0  0  0  0  3  0  0  0  0  0  0
  188.4070  178.5930  142.4440 C   0  0  0  0  0  2  0  0  0  0  0  0
  191.2340  179.7890  143.8730 Cl  0  0  0  0  0  0  0  0  0  0  0  0
  191.6010  177.5860  145.3990 C   0  0  0  0  0  2  0  0  0  0  0  0
  190.7820  175.9710  143.7870 N   0  0  0  0  0  2  0  0  0  0  0  0
  192.2140  175.2530  145.4940 O   0  0  0  0  0  0  0  0  0  0  0  0
  191.5830  176.1830  144.9300 C   0  0  0  0  0  0  0  0  0  0  0  0
  190.3340  177.2710  143.3370 C   0  0  2  0  0  3  0  0  0  0  0  0
  190.5730  178.2580  144.4930 C   0  0  2  0  0  3  0  0  0  0  0  0
  1 18  1  0  0  0  0
  1 14  1  0  0  0  0
  2  5  2  0  0  0  0
  3 29  1  0  0  0  0
  3 17  1  0  0  0  0
  4 17  1  0  0  0  0
  5  7  1  0  0  0  0
  6 11  2  0  0  0  0
  6  8  1  0  0  0  0
  7 22  1  0  0  0  0
  8 21  1  0  0  0  0
  8 15  1  0  0  0  0
  9 16  1  0  0  0  0
  9 13  1  0  0  0  0
 10  2  1  0  0  0  0
 11 12  1  0  0  0  0
 12  4  1  0  0  0  0
 12 15  2  0  0  0  0
 13 22  2  0  0  0  0
 14  9  1  0  0  0  0
 15 10  1  0  0  0  0
 17  1  1  0  0  0  0
 18 14  1  0  0  0  0
 18  5  1  0  0  0  0
 19 21  1  0  0  0  0
 20 10  1  0  0  0  0
 21 20  1  0  0  0  0
 23  3  1  0  0  0  0
 23 17  1  0  0  0  0
 24 30  1  0  0  0  0
 26 28  1  0  0  0  0
 28 25  1  0  0  0  0
 28 27  2  0  0  0  0
 29 26  1  0  0  0  0
 29 30  1  0  0  0  0
 30 25  1  0  0  0  0
M  END
>  <MODEL>
1

>  <REMARK>
 VINA RESULT:      -8.9      0.000      0.000
  Name = 
  1 active torsions:
  status: ('A' for Active; 'I' for Inactive)
    1  A    between atoms: C_4  and  C_25
                            x       y       z     vdW  Elec       q    Type
                         _______ _______ _______ _____ _____    ______ ____

>  <TORSDO>
F 1

$$$$
=
 OpenBabel10222417013D

 30 36  0  0  1  0  0  0  0  0999 V2000
  188.0070  178.1940  144.2340 C   0  0  1  0  0  3  0  0  0  0  0  0
  184.8520  178.9240  143.9500 N   0  0  0  0  0  0  0  0  0  0  0  0
  190.0070  177.1400  142.6690 C   0  0  1  0  0  3  0  0  0  0  0  0
  187.5710  177.1320  141.9580 N   0  0  0  0  0  2  0  0  0  0  0  0
  185.8150  178.5710  144.9450 C   0  0  0  0  0  0  0  0  0  0  0  0
  185.8110  178.9300  139.3550 N   0  0  0  0  0  0  0  0  0  0  0  0
  185.7370  179.2040  146.1280 C   0  0  0  0  0  2  0  0  0  0  0  0
  184.9580  179.0580  140.4840 C   0  0  2  0  0  3  0  0  0  0  0  0
  188.2230  177.3110  146.8010 C   0  0  2  0  0  3  0  0  0  0  0  0
  184.6310  178.1410  142.7360 C   0  0  2  0  0  3  0  0  0  0  0  0
  186.8800  178.3510  139.8120 C   0  0  0  0  0  3  0  0  0  0  0  0
  186.7530  178.0760  141.2540 C   0  0  0  0  0  0  0  0  0  0  0  0
  187.5550  178.2710  147.6810 C   0  0  0  0  0  3  0  0  0  0  0  0
  187.9840  177.3120  145.5070 C   0  0  1  0  0  3  0  0  0  0  0  0
  185.5720  178.5440  141.6490 C   0  0  0  0  0  0  0  0  0  0  0  0
  188.9860  176.1930  147.4110 C   0  0  0  0  0  1  0  0  0  0  0  0
  188.5580  177.5560  142.9550 C   0  0  1  0  0  0  0  0  0  0  0  0
  186.8150  177.5230  144.5710 C   0  0  2  0  0  3  0  0  0  0  0  0
  182.8180  179.1810  139.2630 C   0  0  0  0  0  1  0  0  0  0  0  0
  182.9570  178.5550  142.0770 S   0  0  0  0  0  0  0  0  0  0  0  0
  183.6430  179.0790  140.4970 C   0  0  1  0  0  3  0  0  0  0  0  0
  186.5260  179.0730  147.3790 C   0  0  0  0  0  3  0  0  0  0  0  0
  189.5280  178.5230  142.2920 C   0  0  0  0  0  2  0  0  0  0  0  0
  191.8010  179.7670  144.4730 Cl  0  0  0  0  0  0  0  0  0  0  0  0
  191.6420  177.6200  146.1100 C   0  0  0  0  0  2  0  0  0  0  0  0
  191.3530  175.9490  144.3760 N   0  0  0  0  0  2  0  0  0  0  0  0
  192.1660  175.2910  146.4710 O   0  0  0  0  0  0  0  0  0  0  0  0
  191.7550  176.2010  145.7060 C   0  0  0  0  0  0  0  0  0  0  0  0
  191.0850  177.2330  143.7650 C   0  0  2  0  0  3  0  0  0  0  0  0
  190.9600  178.2600  144.9040 C   0  0  2  0  0  3  0  0  0  0  0  0
  1 18  1  0  0  0  0
  1 14  1  0  0  0  0
  2  5  2  0  0  0  0
  3 17  1  0  0  0  0
  3 29  1  0  0  0  0
  4 17  1  0  0  0  0
  5  7  1  0  0  0  0
  6 11  2  0  0  0  0
  6  8  1  0  0  0  0
  7 22  1  0  0  0  0
  8 21  1  0  0  0  0
  8 15  1  0  0  0  0
  9 16  1  0  0  0  0
  9 13  1  0  0  0  0
 10  2  1  0  0  0  0
 11 12  1  0  0  0  0
 12 15  2  0  0  0  0
 12  4  1  0  0  0  0
 14  9  1  0  0  0  0
 15 10  1  0  0  0  0
 17  1  1  0  0  0  0
 18  5  1  0  0  0  0
 18 14  1  0  0  0  0
 19 21  1  0  0  0  0
 20 10  1  0  0  0  0
 21 20  1  0  0  0  0
 22 13  2  0  0  0  0
 23  3  1  0  0  0  0
 23 17  1  0  0  0  0
 24 30  1  0  0  0  0
 26 28  1  0  0  0  0
 28 25  1  0  0  0  0
 28 27  2  0  0  0  0
 29 26  1  0  0  0  0
 29 30  1  0  0  0  0
 30 25  1  0  0  0  0
M  END
>  <MODEL>
2

>  <REMARK>
 VINA RESULT:      -8.9      1.277      1.462
  Name = 
  1 active torsions:
  status: ('A' for Active; 'I' for Inactive)
    1  A    between atoms: C_4  and  C_25
                            x       y       z     vdW  Elec       q    Type
                         _______ _______ _______ _____ _____    ______ ____

>  <TORSDO>
F 1

$$$$
=
 OpenBabel10222417013D

 30 36  0  0  1  0  0  0  0  0999 V2000
  182.2770  178.5590  141.6420 C   0  0  1  0  0  3  0  0  0  0  0  0
  183.2230  178.4770  144.7510 N   0  0  0  0  0  2  0  0  0  0  0  0
  183.4260  178.9030  139.1670 C   0  0  1  0  0  3  0  0  0  0  0  0
  184.6930  179.3120  141.3280 N   0  0  0  0  0  2  0  0  0  0  0  0
  182.0720  178.7730  143.9580 C   0  0  0  0  0  0  0  0  0  0  0  0
  187.4300  177.5340  142.8940 N   0  0  0  0  0  0  0  0  0  0  0  0
  180.8800  178.3680  144.4300 C   0  0  0  0  0  3  0  0  0  0  0  0
  186.5300  177.7720  143.9670 C   0  0  2  0  0  3  0  0  0  0  0  0
  179.8430  179.7760  141.7530 C   0  0  2  0  0  3  0  0  0  0  0  0
  184.5320  179.0850  144.5200 C   0  0  2  0  0  3  0  0  0  0  0  0
  186.7970  177.9400  141.8350 C   0  0  0  0  0  3  0  0  0  0  0  0
  185.4650  178.4630  142.1870 C   0  0  0  0  0  0  0  0  0  0  0  0
  179.0490  179.1320  142.8010 C   0  0  0  0  0  3  0  0  0  0  0  0
  181.1500  179.6180  141.7130 C   0  0  1  0  0  3  0  0  0  0  0  0
  185.3140  178.3240  143.5010 C   0  0  0  0  0  0  0  0  0  0  0  0
  179.1940  180.7900  140.8860 C   0  0  0  0  0  1  0  0  0  0  0  0
  183.4500  178.8550  140.7010 C   0  0  1  0  0  0  0  0  0  0  0  0
  182.3090  179.5130  142.6790 C   0  0  2  0  0  3  0  0  0  0  0  0
  188.2040  177.9100  145.7730 C   0  0  0  0  0  1  0  0  0  0  0  0
  185.5210  178.9340  146.0710 S   0  0  0  0  0  0  0  0  0  0  0  0
  186.8270  178.0310  145.2220 C   0  0  1  0  0  3  0  0  0  0  0  0
  179.5000  178.5270  143.9090 C   0  0  0  0  0  3  0  0  0  0  0  0
  183.7550  177.6110  139.8780 C   0  0  0  0  0  2  0  0  0  0  0  0
  180.8500  181.1100  137.8020 Cl  0  0  0  0  0  0  0  0  0  0  0  0
  180.9090  178.8830  136.2680 C   0  0  0  0  0  2  0  0  0  0  0  0
  181.8860  177.4090  137.9270 N   0  0  0  0  0  2  0  0  0  0  0  0
  180.6730  176.4840  136.1510 O   0  0  0  0  0  0  0  0  0  0  0  0
  181.1220  177.4980  136.7440 C   0  0  0  0  0  0  0  0  0  0  0  0
  182.1020  178.7610  138.3940 C   0  0  2  0  0  3  0  0  0  0  0  0
  181.7720  179.7030  137.2240 C   0  0  2  0  0  3  0  0  0  0  0  0
  1 14  1  0  0  0  0
  1 18  1  0  0  0  0
  3 23  1  0  0  0  0
  3 17  1  0  0  0  0
  4 12  1  0  0  0  0
  5  7  2  0  0  0  0
  5  2  1  0  0  0  0
  6  8  1  0  0  0  0
  8 21  1  0  0  0  0
  9 13  1  0  0  0  0
 10  2  1  0  0  0  0
 10 20  1  0  0  0  0
 11 12  1  0  0  0  0
 11  6  2  0  0  0  0
 12 15  2  0  0  0  0
 13 22  2  0  0  0  0
 14  9  1  0  0  0  0
 14 18  1  0  0  0  0
 15  8  1  0  0  0  0
 15 10  1  0  0  0  0
 16  9  1  0  0  0  0
 17  4  1  0  0  0  0
 17  1  1  0  0  0  0
 18  5  1  0  0  0  0
 21 19  1  0  0  0  0
 21 20  1  0  0  0  0
 22  7  1  0  0  0  0
 23 17  1  0  0  0  0
 25 28  1  0  0  0  0
 25 30  1  0  0  0  0
 26 29  1  0  0  0  0
 27 28  2  0  0  0  0
 28 26  1  0  0  0  0
 29  3  1  0  0  0  0
 30 24  1  0  0  0  0
 30 29  1  0  0  0  0
M  END
>  <MODEL>
3

>  <REMARK>
 VINA RESULT:      -8.6      4.256      8.198
  Name = 
  1 active torsions:
  status: ('A' for Active; 'I' for Inactive)
    1  A    between atoms: C_4  and  C_25
                            x       y       z     vdW  Elec       q    Type
                         _______ _______ _______ _____ _____    ______ ____

>  <TORSDO>
F 1

$$$$
=
 OpenBabel10222417013D

 30 36  0  0  1  0  0  0  0  0999 V2000
  184.4970  177.8400  140.9880 C   0  0  1  0  0  3  0  0  0  0  0  0
  187.7290  177.9100  140.6430 N   0  0  0  0  0  0  0  0  0  0  0  0
  182.2680  178.1460  139.4070 C   0  0  1  0  0  3  0  0  0  0  0  0
  184.6080  178.6850  138.5850 N   0  0  0  0  0  2  0  0  0  0  0  0
  186.7230  178.1270  141.6340 C   0  0  0  0  0  0  0  0  0  0  0  0
  186.7330  177.0840  136.1300 N   0  0  0  0  0  0  0  0  0  0  0  0
  186.9800  177.6880  142.8780 C   0  0  0  0  0  2  0  0  0  0  0  0
  187.6070  177.3200  137.2250 C   0  0  2  0  0  3  0  0  0  0  0  0
  184.0990  178.9540  143.4410 C   0  0  2  0  0  3  0  0  0  0  0  0
  187.7210  178.5640  139.3370 C   0  0  2  0  0  3  0  0  0  0  0  0
  185.5580  177.4240  136.5670 C   0  0  0  0  0  3  0  0  0  0  0  0
  185.6320  177.9010  137.9590 C   0  0  0  0  0  0  0  0  0  0  0  0
  185.0060  178.3140  144.3950 C   0  0  0  0  0  3  0  0  0  0  0  0
  184.3100  178.8520  142.1460 C   0  0  1  0  0  3  0  0  0  0  0  0
  186.8990  177.8020  138.3500 C   0  0  0  0  0  0  0  0  0  0  0  0
  183.0830  179.9080  143.9520 C   0  0  0  0  0  1  0  0  0  0  0  0
  183.7800  178.1520  139.6710 C   0  0  1  0  0  0  0  0  0  0  0  0
  185.4800  178.8300  141.1870 C   0  0  2  0  0  3  0  0  0  0  0  0
  189.6870  177.5940  135.9270 C   0  0  0  0  0  1  0  0  0  0  0  0
  189.4340  178.5120  138.6530 S   0  0  0  0  0  0  0  0  0  0  0  0
  188.8830  177.6360  137.1790 C   0  0  1  0  0  3  0  0  0  0  0  0
  186.2040  177.7690  144.1410 C   0  0  0  0  0  3  0  0  0  0  0  0
  183.0830  176.8940  139.1720 C   0  0  0  0  0  2  0  0  0  0  0  0
  180.3150  180.1900  141.7250 Cl  0  0  0  0  0  0  0  0  0  0  0  0
  178.9520  177.8890  141.3230 C   0  0  0  0  0  2  0  0  0  0  0  0
  180.8480  176.5370  140.6480 N   0  0  0  0  0  2  0  0  0  0  0  0
  178.9310  175.4800  141.4790 O   0  0  0  0  0  0  0  0  0  0  0  0
  179.5380  176.5390  141.1740 C   0  0  0  0  0  0  0  0  0  0  0  0
  181.2680  177.9190  140.5560 C   0  0  2  0  0  3  0  0  0  0  0  0
  180.0040  178.7870  140.6770 C   0  0  2  0  0  3  0  0  0  0  0  0
  1 18  1  0  0  0  0
  1 14  1  0  0  0  0
  2  5  2  0  0  0  0
  3 17  1  0  0  0  0
  3 29  1  0  0  0  0
  4 17  1  0  0  0  0
  5  7  1  0  0  0  0
  6 11  2  0  0  0  0
  6  8  1  0  0  0  0
  7 22  1  0  0  0  0
  8 15  1  0  0  0  0
  9 16  1  0  0  0  0
  9 13  1  0  0  0  0
 10  2  1  0  0  0  0
 11 12  1  0  0  0  0
 12 15  2  0  0  0  0
 12  4  1  0  0  0  0
 14  9  1  0  0  0  0
 15 10  1  0  0  0  0
 17  1  1  0  0  0  0
 18  5  1  0  0  0  0
 18 14  1  0  0  0  0
 19 21  1  0  0  0  0
 20 10  1  0  0  0  0
 21  8  1  0  0  0  0
 21 20  1  0  0  0  0
 22 13  2  0  0  0  0
 23  3  1  0  0  0  0
 23 17  1  0  0  0  0
 26 28  1  0  0  0  0
 28 25  1  0  0  0  0
 28 27  2  0  0  0  0
 29 26  1  0  0  0  0
 29 30  1  0  0  0  0
 30 25  1  0  0  0  0
 30 24  1  0  0  0  0
M  END
>  <MODEL>
4

>  <REMARK>
 VINA RESULT:      -8.3      4.749      7.933
  Name = 
  1 active torsions:
  status: ('A' for Active; 'I' for Inactive)
    1  A    between atoms: C_4  and  C_25
                            x       y       z     vdW  Elec       q    Type
                         _______ _______ _______ _____ _____    ______ ____

>  <TORSDO>
F 1

$$$$
=
 OpenBabel10222417013D

 30 36  0  0  1  0  0  0  0  0999 V2000
  186.7750  177.7360  141.5270 C   0  0  1  0  0  3  0  0  0  0  0  0
  185.2870  178.1260  144.3910 N   0  0  0  0  0  2  0  0  0  0  0  0
  189.3400  177.7820  140.5360 C   0  0  1  0  0  3  0  0  0  0  0  0
  188.7730  178.5390  142.8910 N   0  0  0  0  0  2  0  0  0  0  0  0
  185.0330  178.2600  142.9910 C   0  0  0  0  0  0  0  0  0  0  0  0
  189.5280  177.1130  146.1320 N   0  0  0  0  0  0  0  0  0  0  0  0
  183.8250  177.8750  142.5460 C   0  0  0  0  0  3  0  0  0  0  0  0
  188.1530  177.4590  146.2310 C   0  0  2  0  0  3  0  0  0  0  0  0
  185.0360  178.8520  139.7540 C   0  0  2  0  0  3  0  0  0  0  0  0
  186.4260  178.7500  145.0620 C   0  0  2  0  0  3  0  0  0  0  0  0
  189.8370  177.3410  144.8910 C   0  0  0  0  0  3  0  0  0  0  0  0
  188.6730  177.8510  144.1450 C   0  0  0  0  0  0  0  0  0  0  0  0
  183.6960  178.3270  140.0230 C   0  0  0  0  0  3  0  0  0  0  0  0
  185.9890  178.7460  140.6550 C   0  0  1  0  0  3  0  0  0  0  0  0
  187.6430  177.8890  144.9850 C   0  0  0  0  0  0  0  0  0  0  0  0
  185.2410  179.7080  138.5580 C   0  0  0  0  0  1  0  0  0  0  0  0
  188.2880  177.9470  141.6420 C   0  0  1  0  0  0  0  0  0  0  0  0
  186.1410  178.8250  142.1580 C   0  0  2  0  0  3  0  0  0  0  0  0
  188.1070  177.9170  148.6550 C   0  0  0  0  0  1  0  0  0  0  0  0
  186.0470  178.8580  146.8650 S   0  0  0  0  0  0  0  0  0  0  0  0
  187.5120  177.9020  147.2910 C   0  0  1  0  0  3  0  0  0  0  0  0
  183.2090  177.9020  141.1960 C   0  0  0  0  0  3  0  0  0  0  0  0
  188.9950  176.6150  141.4330 C   0  0  0  0  0  2  0  0  0  0  0  0
  188.9230  179.6250  137.4060 Cl  0  0  0  0  0  0  0  0  0  0  0  0
  189.5730  177.0780  136.7690 C   0  0  0  0  0  2  0  0  0  0  0  0
  188.8180  176.0570  138.8350 N   0  0  0  0  0  2  0  0  0  0  0  0
  189.0070  174.7360  136.9110 O   0  0  0  0  0  0  0  0  0  0  0  0
  189.1170  175.8570  137.4700 C   0  0  0  0  0  0  0  0  0  0  0  0
  188.9190  177.4780  139.0860 C   0  0  2  0  0  3  0  0  0  0  0  0
  189.6830  178.0950  137.9020 C   0  0  2  0  0  3  0  0  0  0  0  0
  1 17  1  0  0  0  0
  1 18  1  0  0  0  0
  2 10  1  0  0  0  0
  3 23  1  0  0  0  0
  3 17  1  0  0  0  0
  4 12  1  0  0  0  0
  5  2  1  0  0  0  0
  6  8  1  0  0  0  0
  7  5  2  0  0  0  0
  8 21  1  0  0  0  0
  9 13  1  0  0  0  0
  9 14  1  0  0  0  0
 10 20  1  0  0  0  0
 11  6  2  0  0  0  0
 12 11  1  0  0  0  0
 12 15  2  0  0  0  0
 13 22  2  0  0  0  0
 14  1  1  0  0  0  0
 14 18  1  0  0  0  0
 15 10  1  0  0  0  0
 15  8  1  0  0  0  0
 16  9  1  0  0  0  0
 17  4  1  0  0  0  0
 18  5  1  0  0  0  0
 20 21  1  0  0  0  0
 21 19  1  0  0  0  0
 22  7  1  0  0  0  0
 23 17  1  0  0  0  0
 24 30  1  0  0  0  0
 25 28  1  0  0  0  0
 25 30  1  0  0  0  0
 26 29  1  0  0  0  0
 27 28  2  0  0  0  0
 28 26  1  0  0  0  0
 29  3  1  0  0  0  0
 30 29  1  0  0  0  0
M  END
>  <MODEL>
5

>  <REMARK>
 VINA RESULT:      -8.2      3.303      6.244
  Name = 
  1 active torsions:
  status: ('A' for Active; 'I' for Inactive)
    1  A    between atoms: C_4  and  C_25
                            x       y       z     vdW  Elec       q    Type
                         _______ _______ _______ _____ _____    ______ ____

>  <TORSDO>
F 1

$$$$
=
 OpenBabel10222417013D

 30 36  0  0  1  0  0  0  0  0999 V2000
  185.0220  178.1200  141.1840 C   0  0  1  0  0  3  0  0  0  0  0  0
  188.1970  177.4580  141.4130 N   0  0  0  0  0  0  0  0  0  0  0  0
  183.2440  178.9480  139.2570 C   0  0  1  0  0  3  0  0  0  0  0  0
  185.7550  178.9530  138.8880 N   0  0  0  0  0  2  0  0  0  0  0  0
  187.1000  177.8840  142.2240 C   0  0  0  0  0  0  0  0  0  0  0  0
  187.8870  176.9480  136.7570 N   0  0  0  0  0  0  0  0  0  0  0  0
  187.0220  177.3790  143.4680 C   0  0  0  0  0  2  0  0  0  0  0  0
  188.5760  176.9630  137.9990 C   0  0  2  0  0  3  0  0  0  0  0  0
  184.4380  179.2580  143.5880 C   0  0  2  0  0  3  0  0  0  0  0  0
  188.5730  178.1170  140.1640 C   0  0  2  0  0  3  0  0  0  0  0  0
  186.7560  177.5390  137.0000 C   0  0  0  0  0  3  0  0  0  0  0  0
  186.6770  177.9660  138.4080 C   0  0  0  0  0  0  0  0  0  0  0  0
  184.9920  178.4140  144.6480 C   0  0  0  0  0  3  0  0  0  0  0  0
  184.8550  179.1300  142.3460 C   0  0  1  0  0  3  0  0  0  0  0  0
  187.7980  177.5760  139.0080 C   0  0  0  0  0  0  0  0  0  0  0  0
  183.5820  180.4100  143.9650 C   0  0  0  0  0  1  0  0  0  0  0  0
  184.6460  178.6070  139.7810 C   0  0  1  0  0  0  0  0  0  0  0  0
  186.1460  178.8580  141.6060 C   0  0  2  0  0  3  0  0  0  0  0  0
  190.8660  176.7760  137.1020 C   0  0  0  0  0  1  0  0  0  0  0  0
  190.3280  177.6860  139.7890 S   0  0  0  0  0  0  0  0  0  0  0  0
  189.8760  176.9810  138.1950 C   0  0  1  0  0  3  0  0  0  0  0  0
  186.0650  177.6160  144.5770 C   0  0  0  0  0  3  0  0  0  0  0  0
  183.7910  177.5470  139.0980 C   0  0  0  0  0  2  0  0  0  0  0  0
  180.4660  181.1710  140.0970 Cl  0  0  0  0  0  0  0  0  0  0  0  0
  179.6220  178.6320  140.4890 C   0  0  0  0  0  2  0  0  0  0  0  0
  181.8120  177.6380  140.7990 N   0  0  0  0  0  2  0  0  0  0  0  0
  179.9300  176.5400  141.6540 O   0  0  0  0  0  0  0  0  0  0  0  0
  180.4260  177.5170  141.0360 C   0  0  0  0  0  0  0  0  0  0  0  0
  182.0260  178.9370  140.1980 C   0  0  2  0  0  3  0  0  0  0  0  0
  180.6560  179.4440  139.7150 C   0  0  2  0  0  3  0  0  0  0  0  0
  1 18  1  0  0  0  0
  1 14  1  0  0  0  0
  2  5  2  0  0  0  0
  3 17  1  0  0  0  0
  3 29  1  0  0  0  0
  4 17  1  0  0  0  0
  5  7  1  0  0  0  0
  6 11  2  0  0  0  0
  6  8  1  0  0  0  0
  7 22  1  0  0  0  0
  8 21  1  0  0  0  0
  8 15  1  0  0  0  0
  9 16  1  0  0  0  0
  9 13  1  0  0  0  0
 10  2  1  0  0  0  0
 11 12  1  0  0  0  0
 12  4  1  0  0  0  0
 12 15  2  0  0  0  0
 14  9  1  0  0  0  0
 15 10  1  0  0  0  0
 17  1  1  0  0  0  0
 18  5  1  0  0  0  0
 18 14  1  0  0  0  0
 19 21  1  0  0  0  0
 20 10  1  0  0  0  0
 21 20  1  0  0  0  0
 22 13  2  0  0  0  0
 23  3  1  0  0  0  0
 23 17  1  0  0  0  0
 25 28  1  0  0  0  0
 26 28  1  0  0  0  0
 28 27  2  0  0  0  0
 29 26  1  0  0  0  0
 30 24  1  0  0  0  0
 30 29  1  0  0  0  0
 30 25  1  0  0  0  0
M  END
>  <MODEL>
6

>  <REMARK>
 VINA RESULT:      -7.9      4.585      7.703
  Name = 
  1 active torsions:
  status: ('A' for Active; 'I' for Inactive)
    1  A    between atoms: C_4  and  C_25
                            x       y       z     vdW  Elec       q    Type
                         _______ _______ _______ _____ _____    ______ ____

>  <TORSDO>
F 1

$$$$
=
 OpenBabel10222417013D

 30 36  0  0  1  0  0  0  0  0999 V2000
  187.8650  178.0410  141.0100 C   0  0  1  0  0  3  0  0  0  0  0  0
  190.6450  177.3640  142.5550 N   0  0  0  0  0  2  0  0  0  0  0  0
  185.1750  178.0910  141.5780 C   0  0  1  0  0  3  0  0  0  0  0  0
  186.8860  177.0980  143.1670 N   0  0  0  0  0  2  0  0  0  0  0  0
  190.0920  177.3740  141.2370 C   0  0  0  0  0  0  0  0  0  0  0  0
  188.0880  178.1820  146.4060 N   0  0  0  0  0  0  0  0  0  0  0  0
  190.8850  177.8060  140.2410 C   0  0  0  0  0  3  0  0  0  0  0  0
  189.2750  177.8320  145.7090 C   0  0  2  0  0  3  0  0  0  0  0  0
  188.3030  177.1170  138.4870 C   0  0  2  0  0  3  0  0  0  0  0  0
  190.0200  176.6710  143.6800 C   0  0  2  0  0  3  0  0  0  0  0  0
  187.1440  178.0820  145.5190 C   0  0  0  0  0  3  0  0  0  0  0  0
  187.6870  177.6540  144.2180 C   0  0  0  0  0  0  0  0  0  0  0  0
  189.6000  177.6150  138.0270 C   0  0  0  0  0  3  0  0  0  0  0  0
  187.9980  177.1280  139.7670 C   0  0  1  0  0  3  0  0  0  0  0  0
  189.0040  177.5320  144.3540 C   0  0  0  0  0  0  0  0  0  0  0  0
  187.4370  176.3870  137.5270 C   0  0  0  0  0  1  0  0  0  0  0  0
  186.6480  177.8160  141.9120 C   0  0  1  0  0  0  0  0  0  0  0  0
  188.6810  176.8950  141.0970 C   0  0  2  0  0  3  0  0  0  0  0  0
  190.6040  177.1280  147.6650 C   0  0  0  0  0  1  0  0  0  0  0  0
  191.3100  176.3800  144.9680 S   0  0  0  0  0  0  0  0  0  0  0  0
  190.3640  177.2840  146.2050 C   0  0  1  0  0  3  0  0  0  0  0  0
  190.6680  177.9190  138.7770 C   0  0  0  0  0  3  0  0  0  0  0  0
  186.0140  179.1600  142.2400 C   0  0  0  0  0  2  0  0  0  0  0  0
  184.1390  176.5240  138.4400 Cl  0  0  0  0  0  0  0  0  0  0  0  0
  182.9720  178.9610  138.5570 C   0  0  0  0  0  2  0  0  0  0  0  0
  184.5550  179.9730  140.0890 N   0  0  0  0  0  2  0  0  0  0  0  0
  183.2610  181.3530  138.7100 O   0  0  0  0  0  0  0  0  0  0  0  0
  183.5800  180.1980  139.0940 C   0  0  0  0  0  0  0  0  0  0  0  0
  184.7590  178.5430  140.1660 C   0  0  2  0  0  3  0  0  0  0  0  0
  183.5720  177.8770  139.4470 C   0  0  2  0  0  3  0  0  0  0  0  0
  1 18  1  0  0  0  0
  1 17  1  0  0  0  0
  2 10  1  0  0  0  0
  3 17  1  0  0  0  0
  3 23  1  0  0  0  0
  4 12  1  0  0  0  0
  5  2  1  0  0  0  0
  7  5  2  0  0  0  0
  8 21  1  0  0  0  0
  8  6  1  0  0  0  0
  9 14  1  0  0  0  0
 10 15  1  0  0  0  0
 10 20  1  0  0  0  0
 11  6  2  0  0  0  0
 12 15  2  0  0  0  0
 12 11  1  0  0  0  0
 13  9  1  0  0  0  0
 13 22  2  0  0  0  0
 14  1  1  0  0  0  0
 14 18  1  0  0  0  0
 15  8  1  0  0  0  0
 16  9  1  0  0  0  0
 17 23  1  0  0  0  0
 17  4  1  0  0  0  0
 18  5  1  0  0  0  0
 20 21  1  0  0  0  0
 21 19  1  0  0  0  0
 22  7  1  0  0  0  0
 24 30  1  0  0  0  0
 25 28  1  0  0  0  0
 25 30  1  0  0  0  0
 26 29  1  0  0  0  0
 27 28  2  0  0  0  0
 28 26  1  0  0  0  0
 29  3  1  0  0  0  0
 30 29  1  0  0  0  0
M  END
>  <MODEL>
7

>  <REMARK>
 VINA RESULT:      -7.8      4.124      7.817
  Name = 
  1 active torsions:
  status: ('A' for Active; 'I' for Inactive)
    1  A    between atoms: C_4  and  C_25
                            x       y       z     vdW  Elec       q    Type
                         _______ _______ _______ _____ _____    ______ ____

>  <TORSDO>
F 1

$$$$
=
 OpenBabel10222417013D

 30 36  0  0  1  0  0  0  0  0999 V2000
  186.9850  177.6020  140.3000 C   0  0  1  0  0  3  0  0  0  0  0  0
  190.0700  176.8500  140.9960 N   0  0  0  0  0  0  0  0  0  0  0  0
  185.5600  178.6180  138.1790 C   0  0  1  0  0  3  0  0  0  0  0  0
  188.0980  178.5940  138.2320 N   0  0  0  0  0  2  0  0  0  0  0  0
  188.8580  177.2370  141.6470 C   0  0  0  0  0  0  0  0  0  0  0  0
  190.5340  176.7120  136.3270 N   0  0  0  0  0  0  0  0  0  0  0  0
  188.5690  176.6380  142.8150 C   0  0  0  0  0  2  0  0  0  0  0  0
  191.0070  176.6140  137.6630 C   0  0  2  0  0  3  0  0  0  0  0  0
  186.0200  178.5610  142.6590 C   0  0  2  0  0  3  0  0  0  0  0  0
  190.6550  177.5950  139.8840 C   0  0  2  0  0  3  0  0  0  0  0  0
  189.3850  177.3090  136.4270 C   0  0  0  0  0  3  0  0  0  0  0  0
  189.0770  177.6260  137.8320 C   0  0  0  0  0  0  0  0  0  0  0  0
  186.3810  177.6250  143.7250 C   0  0  0  0  0  3  0  0  0  0  0  0
  186.6370  178.5210  141.4960 C   0  0  1  0  0  3  0  0  0  0  0  0
  190.0790  177.1650  138.5760 C   0  0  0  0  0  0  0  0  0  0  0  0
  185.1250  179.7000  142.9810 C   0  0  0  0  0  1  0  0  0  0  0  0
  186.8520  178.2040  138.8980 C   0  0  1  0  0  0  0  0  0  0  0  0
  188.0300  178.2780  140.9610 C   0  0  2  0  0  3  0  0  0  0  0  0
  193.4130  176.4450  137.1440 C   0  0  0  0  0  1  0  0  0  0  0  0
  192.4440  177.1550  139.7700 S   0  0  0  0  0  0  0  0  0  0  0  0
  192.2570  176.5870  138.0710 C   0  0  1  0  0  3  0  0  0  0  0  0
  187.4430  176.8100  143.7670 C   0  0  0  0  0  3  0  0  0  0  0  0
  186.1120  177.2220  138.0010 C   0  0  0  0  0  2  0  0  0  0  0  0
  182.7390  180.8600  138.7950 Cl  0  0  0  0  0  0  0  0  0  0  0  0
  181.7770  178.3330  138.7620 C   0  0  0  0  0  2  0  0  0  0  0  0
  183.8580  177.2180  139.3140 N   0  0  0  0  0  2  0  0  0  0  0  0
  181.8320  176.1200  139.7250 O   0  0  0  0  0  0  0  0  0  0  0  0
  182.4490  177.1330  139.3080 C   0  0  0  0  0  0  0  0  0  0  0  0
  184.2020  178.5620  138.9030 C   0  0  2  0  0  3  0  0  0  0  0  0
  182.9460  179.1760  138.2610 C   0  0  2  0  0  3  0  0  0  0  0  0
  1 18  1  0  0  0  0
  1 14  1  0  0  0  0
  2  5  2  0  0  0  0
  3 17  1  0  0  0  0
  3 29  1  0  0  0  0
  4 17  1  0  0  0  0
  5  7  1  0  0  0  0
  6 11  2  0  0  0  0
  6  8  1  0  0  0  0
  7 22  1  0  0  0  0
  8 21  1  0  0  0  0
  8 15  1  0  0  0  0
  9 16  1  0  0  0  0
  9 13  1  0  0  0  0
 10  2  1  0  0  0  0
 11 12  1  0  0  0  0
 12  4  1  0  0  0  0
 12 15  2  0  0  0  0
 13 22  2  0  0  0  0
 14  9  1  0  0  0  0
 15 10  1  0  0  0  0
 17  1  1  0  0  0  0
 18 14  1  0  0  0  0
 18  5  1  0  0  0  0
 19 21  1  0  0  0  0
 20 10  1  0  0  0  0
 21 20  1  0  0  0  0
 23  3  1  0  0  0  0
 23 17  1  0  0  0  0
 25 28  1  0  0  0  0
 28 26  1  0  0  0  0
 28 27  2  0  0  0  0
 29 26  1  0  0  0  0
 30 25  1  0  0  0  0
 30 24  1  0  0  0  0
 30 29  1  0  0  0  0
M  END
>  <MODEL>
8

>  <REMARK>
 VINA RESULT:      -7.8      4.985      8.021
  Name = 
  1 active torsions:
  status: ('A' for Active; 'I' for Inactive)
    1  A    between atoms: C_4  and  C_25
                            x       y       z     vdW  Elec       q    Type
                         _______ _______ _______ _____ _____    ______ ____

>  <TORSDO>
F 1

$$$$
=
 OpenBabel10222417013D

 30 36  0  0  1  0  0  0  0  0999 V2000
  189.0790  177.8790  141.7840 C   0  0  1  0  0  3  0  0  0  0  0  0
  187.5270  177.9380  138.9280 N   0  0  0  0  0  0  0  0  0  0  0  0
  191.3610  176.7710  142.8440 C   0  0  1  0  0  3  0  0  0  0  0  0
  190.4730  176.1340  140.5530 N   0  0  0  0  0  2  0  0  0  0  0  0
  187.2640  178.0650  140.3270 C   0  0  0  0  0  0  0  0  0  0  0  0
  191.7350  176.7530  137.2170 N   0  0  0  0  0  0  0  0  0  0  0  0
  186.3690  178.9960  140.7010 C   0  0  0  0  0  2  0  0  0  0  0  0
  190.3520  177.0590  137.1130 C   0  0  0  0  0  0  0  0  0  0  0  0
  187.0540  177.8430  143.6040 C   0  0  2  0  0  3  0  0  0  0  0  0
  188.2470  176.8060  138.3480 C   0  0  2  0  0  3  0  0  0  0  0  0
  191.9290  176.5280  138.4820 C   0  0  0  0  0  2  0  0  0  0  0  0
  190.6740  176.6720  139.2400 C   0  0  0  0  0  0  0  0  0  0  0  0
  186.0930  178.8900  143.2510 C   0  0  0  0  0  3  0  0  0  0  0  0
  187.9360  177.4210  142.7220 C   0  0  1  0  0  3  0  0  0  0  0  0
  189.7240  177.0260  138.3790 C   0  0  0  0  0  0  0  0  0  0  0  0
  186.8690  177.1040  144.8770 C   0  0  0  0  0  1  0  0  0  0  0  0
  190.3300  176.9960  141.7300 C   0  0  1  0  0  0  0  0  0  0  0  0
  188.0100  177.1420  141.2380 C   0  0  2  0  0  3  0  0  0  0  0  0
  190.0610  176.4470  134.7410 C   0  0  0  0  0  1  0  0  0  0  0  0
  187.8290  176.7130  136.5530 S   0  0  0  0  0  0  0  0  0  0  0  0
  189.5610  176.8580  136.0810 C   0  0  1  0  0  3  0  0  0  0  0  0
  185.8320  179.3780  142.0310 C   0  0  0  0  0  3  0  0  0  0  0  0
  191.5670  177.8770  141.8350 C   0  0  0  0  0  2  0  0  0  0  0  0
  191.3060  180.0850  144.3870 Cl  0  0  0  0  0  0  0  0  0  0  0  0
  189.6690  178.4890  145.8310 C   0  0  0  0  0  2  0  0  0  0  0  0
  190.6790  176.3780  145.1940 N   0  0  0  0  0  2  0  0  0  0  0  0
  189.4310  176.4950  147.1710 O   0  0  0  0  0  0  0  0  0  0  0  0
  189.8950  177.0610  146.1490 C   0  0  0  0  0  0  0  0  0  0  0  0
  191.1490  177.3670  144.2480 C   0  0  2  0  0  3  0  0  0  0  0  0
  190.2880  178.6260  144.4430 C   0  0  2  0  0  3  0  0  0  0  0  0
  1 14  1  0  0  0  0
  2  5  2  0  0  0  0
  3 29  1  0  0  0  0
  4 17  1  0  0  0  0
  5  7  1  0  0  0  0
  5 18  1  0  0  0  0
  6 11  1  0  0  0  0
  7 22  1  0  0  0  0
  8  6  2  0  0  0  0
  8 15  1  0  0  0  0
  9 16  1  0  0  0  0
 10 15  1  0  0  0  0
 10  2  1  0  0  0  0
 11 12  1  0  0  0  0
 12  4  1  0  0  0  0
 13  9  1  0  0  0  0
 14  9  1  0  0  0  0
 15 12  2  0  0  0  0
 17  1  1  0  0  0  0
 17 23  1  0  0  0  0
 17  3  1  0  0  0  0
 18  1  1  0  0  0  0
 18 14  1  0  0  0  0
 19 21  1  0  0  0  0
 20 10  1  0  0  0  0
 21 20  1  0  0  0  0
 21  8  1  0  0  0  0
 22 13  2  0  0  0  0
 23  3  1  0  0  0  0
 24 30  1  0  0  0  0
 25 28  1  0  0  0  0
 26 28  1  0  0  0  0
 28 27  2  0  0  0  0
 29 30  1  0  0  0  0
 29 26  1  0  0  0  0
 30 25  1  0  0  0  0
M  END
>  <MODEL>
9

>  <REMARK>
 VINA RESULT:      -7.7      3.798      5.902
  Name = 
  1 active torsions:
  status: ('A' for Active; 'I' for Inactive)
    1  A    between atoms: C_4  and  C_25
                            x       y       z     vdW  Elec       q    Type
                         _______ _______ _______ _____ _____    ______ ____

>  <TORSDO>
F 1

$$$$
