=
 OpenBabel10222420283D

 31 34  0  0  1  0  0  0  0  0999 V2000
  188.4800  178.4130  141.8210 C   0  0  1  0  0  3  0  0  0  0  0  0
  189.0080  177.8910  140.5640 N   0  0  0  0  0  2  0  0  0  0  0  0
  190.0040  177.5440  137.9040 N   0  0  0  0  0  1  0  0  0  0  0  0
  188.6160  178.7710  139.5450 N   0  0  0  0  0  2  0  0  0  0  0  0
  189.1730  178.6510  138.2370 C   0  0  0  0  0  0  0  0  0  0  0  0
  188.9560  179.5470  137.3800 O   0  0  0  0  0  0  0  0  0  0  0  0
  187.0020  178.0840  141.9310 C   0  0  0  0  0  2  0  0  0  0  0  0
  186.2090  179.3030  141.8630 N   0  0  0  0  0  2  0  0  0  0  0  0
  184.8540  179.0090  142.3260 C   0  0  1  0  0  0  0  0  0  0  0  0
  183.8010  179.0940  141.3250 C   0  0  0  0  0  2  0  0  0  0  0  0
  184.3370  177.7750  141.7210 N   0  0  0  0  0  2  0  0  0  0  0  0
  182.9820  179.2930  143.9730 C   0  0  0  0  0  1  0  0  0  0  0  0
  184.4850  179.1310  143.8060 C   0  0  1  0  0  3  0  0  0  0  0  0
  184.9460  177.9870  144.5180 O   0  0  0  0  0  0  0  0  0  0  0  0
  187.8720  177.4110  146.6340 N   0  0  0  0  0  0  0  0  0  0  0  0
  185.5370  178.8250  146.7440 C   0  0  0  0  0  3  0  0  0  0  0  0
  187.5750  178.1530  147.7320 C   0  0  0  0  0  0  0  0  0  0  0  0
  187.0190  177.3490  145.5780 C   0  0  0  0  0  3  0  0  0  0  0  0
  188.4870  178.2110  148.8180 N   0  0  0  0  0  1  0  0  0  0  0  0
  186.4150  178.8610  147.7780 N   0  0  0  0  0  0  0  0  0  0  0  0
  185.8190  178.0570  145.6090 C   0  0  0  0  0  0  0  0  0  0  0  0
  189.2300  177.8490  143.0310 C   0  0  0  0  0  2  0  0  0  0  0  0
  191.3420  178.1200  144.4580 C   0  0  2  0  0  3  0  0  0  0  0  0
  191.7420  176.7170  142.5980 C   0  0  0  0  0  2  0  0  0  0  0  0
  190.4700  178.6890  143.4110 C   0  0  1  0  0  3  0  0  0  0  0  0
  191.7940  178.1140  143.0450 N   0  0  1  0  0  0  0  0  0  0  0  0
  191.0640  176.6730  144.8620 C   0  0  1  0  0  3  0  0  0  0  0  0
  191.7370  175.8310  143.8160 C   0  0  0  0  0  2  0  0  0  0  0  0
  191.4330  177.2480  147.3140 N   0  0  0  0  0  1  0  0  0  0  0  0
  191.6050  176.3500  146.2190 C   0  0  0  0  0  0  0  0  0  0  0  0
  192.2850  175.3040  146.3780 O   0  0  0  0  0  0  0  0  0  0  0  0
  1  7  1  1  0  0  0
  1 22  1  0  0  0  0
  2  1  1  0  0  0  0
  3  5  1  0  0  0  0
  4  2  1  0  0  0  0
  5  4  1  0  0  0  0
  6  5  2  0  0  0  0
  8  7  1  0  0  0  0
  9  8  1  6  0  0  0
  9 13  1  0  0  0  0
 10 11  1  0  0  0  0
 10  9  1  0  0  0  0
 11  9  1  0  0  0  0
 13 12  1  6  0  0  0
 13 14  1  0  0  0  0
 14 21  1  0  0  0  0
 15 17  2  0  0  0  0
 16 20  2  0  0  0  0
 17 20  1  0  0  0  0
 17 19  1  0  0  0  0
 18 21  2  0  0  0  0
 18 15  1  0  0  0  0
 21 16  1  0  0  0  0
 22 25  1  0  0  0  0
 23 27  1  0  0  0  0
 24 26  1  0  0  0  0
 24 28  1  0  0  0  0
 25 23  1  0  0  0  0
 26 25  1  0  0  0  0
 26 23  1  0  0  0  0
 27 30  1  0  0  0  0
 28 27  1  0  0  0  0
 30 31  2  0  0  0  0
 30 29  1  0  0  0  0
M  END
>  <MODEL>
1

>  <REMARK>
 VINA RESULT:      -7.6      0.000      0.000
  Name = 
  11 active torsions:
  status: ('A' for Active; 'I' for Inactive)
    1  A    between atoms: N_3  and  N_9
    2  A    between atoms: N_3  and  C_14
    3  A    between atoms: N_5  and  C_12
    4  A    between atoms: N_5  and  C_19
    5  A    between atoms: C_7  and  C_25
    6  A    between atoms: C_12  and  C_29
    7  A    between atoms: C_14  and  C_19
    8  A    between atoms: C_14  and  C_30
    9  A    between atoms: O_16  and  C_29
   10  A    between atoms: O_16  and  C_31
   11  A    between atoms: C_21  and  C_30
                            x       y       z     vdW  Elec       q    Type
                         _______ _______ _______ _____ _____    ______ ____

>  <TORSDO>
F 11

$$$$
=
 OpenBabel10222420283D

 31 34  0  0  1  0  0  0  0  0999 V2000
  188.7230  177.1370  145.5300 C   0  0  1  0  0  3  0  0  0  0  0  0
  189.7650  177.5170  146.4790 N   0  0  0  0  0  2  0  0  0  0  0  0
  191.8170  177.5200  148.4740 N   0  0  0  0  0  1  0  0  0  0  0  0
  190.6730  176.4510  146.5560 N   0  0  0  0  0  2  0  0  0  0  0  0
  191.7460  176.4870  147.4960 C   0  0  0  0  0  0  0  0  0  0  0  0
  192.6560  175.6200  147.4390 O   0  0  0  0  0  0  0  0  0  0  0  0
  187.4660  177.9440  145.8000 C   0  0  0  0  0  2  0  0  0  0  0  0
  186.4520  177.6460  144.7980 N   0  0  0  0  0  2  0  0  0  0  0  0
  185.2140  178.3320  145.1620 C   0  0  1  0  0  0  0  0  0  0  0  0
  184.8570  178.3100  146.5730 C   0  0  0  0  0  2  0  0  0  0  0  0
  185.4810  179.5160  145.9900 N   0  0  0  0  0  2  0  0  0  0  0  0
  182.8840  179.1810  144.7770 C   0  0  0  0  0  1  0  0  0  0  0  0
  184.1210  178.5840  144.1220 C   0  0  1  0  0  3  0  0  0  0  0  0
  184.6100  179.4480  143.1000 O   0  0  0  0  0  0  0  0  0  0  0  0
  183.6740  178.3310  139.7470 N   0  0  0  0  0  0  0  0  0  0  0  0
  185.9440  179.0560  141.0820 C   0  0  0  0  0  3  0  0  0  0  0  0
  184.8750  178.3110  139.1120 C   0  0  0  0  0  0  0  0  0  0  0  0
  183.5770  178.7000  141.0500 C   0  0  0  0  0  3  0  0  0  0  0  0
  184.9510  177.9320  137.7460 N   0  0  0  0  0  1  0  0  0  0  0  0
  186.0010  178.6810  139.7790 N   0  0  0  0  0  0  0  0  0  0  0  0
  184.7190  179.0700  141.7580 C   0  0  0  0  0  0  0  0  0  0  0  0
  189.1720  177.3430  144.0790 C   0  0  0  0  0  2  0  0  0  0  0  0
  189.6330  176.1410  141.8630 C   0  0  2  0  0  3  0  0  0  0  0  0
  191.6390  176.5640  143.0400 C   0  0  0  0  0  2  0  0  0  0  0  0
  189.2270  176.0230  143.2780 C   0  0  1  0  0  3  0  0  0  0  0  0
  190.5790  175.5660  142.8510 N   0  0  1  0  0  0  0  0  0  0  0  0
  190.1860  177.4960  141.4250 C   0  0  1  0  0  3  0  0  0  0  0  0
  191.6240  177.4980  141.8590 C   0  0  0  0  0  2  0  0  0  0  0  0
  190.8930  176.9410  139.0440 N   0  0  0  0  0  1  0  0  0  0  0  0
  190.0870  177.6970  139.9460 C   0  0  0  0  0  0  0  0  0  0  0  0
  189.3330  178.5980  139.4970 O   0  0  0  0  0  0  0  0  0  0  0  0
  1 22  1  6  0  0  0
  1  7  1  0  0  0  0
  1  2  1  0  0  0  0
  2  4  1  0  0  0  0
  4  5  1  0  0  0  0
  5  3  1  0  0  0  0
  6  5  2  0  0  0  0
  8  7  1  0  0  0  0
  9  8  1  6  0  0  0
  9 11  1  0  0  0  0
  9 10  1  0  0  0  0
 11 10  1  0  0  0  0
 13 12  1  1  0  0  0
 13  9  1  0  0  0  0
 14 13  1  0  0  0  0
 15 18  1  0  0  0  0
 16 21  1  0  0  0  0
 17 15  2  0  0  0  0
 17 20  1  0  0  0  0
 18 21  2  0  0  0  0
 19 17  1  0  0  0  0
 20 16  2  0  0  0  0
 21 14  1  0  0  0  0
 23 26  1  0  0  0  0
 23 25  1  0  0  0  0
 25 22  1  0  0  0  0
 26 24  1  0  0  0  0
 26 25  1  0  0  0  0
 27 28  1  0  0  0  0
 27 23  1  0  0  0  0
 28 24  1  0  0  0  0
 29 30  1  0  0  0  0
 30 27  1  0  0  0  0
 31 30  2  0  0  0  0
M  END
>  <MODEL>
2

>  <REMARK>
 VINA RESULT:      -7.4      1.803      6.237
  Name = 
  11 active torsions:
  status: ('A' for Active; 'I' for Inactive)
    1  A    between atoms: N_3  and  N_9
    2  A    between atoms: N_3  and  C_14
    3  A    between atoms: N_5  and  C_12
    4  A    between atoms: N_5  and  C_19
    5  A    between atoms: C_7  and  C_25
    6  A    between atoms: C_12  and  C_29
    7  A    between atoms: C_14  and  C_19
    8  A    between atoms: C_14  and  C_30
    9  A    between atoms: O_16  and  C_29
   10  A    between atoms: O_16  and  C_31
   11  A    between atoms: C_21  and  C_30
                            x       y       z     vdW  Elec       q    Type
                         _______ _______ _______ _____ _____    ______ ____

>  <TORSDO>
F 11

$$$$
=
 OpenBabel10222420283D

 31 34  0  0  1  0  0  0  0  0999 V2000
  188.1130  177.5330  141.6050 C   0  0  1  0  0  3  0  0  0  0  0  0
  187.3380  178.7670  141.7060 N   0  0  0  0  0  2  0  0  0  0  0  0
  185.0060  179.4600  140.2000 N   0  0  0  0  0  1  0  0  0  0  0  0
  186.0650  178.4270  142.1840 N   0  0  0  0  0  2  0  0  0  0  0  0
  184.8970  178.8420  141.4780 C   0  0  0  0  0  0  0  0  0  0  0  0
  183.7630  178.6900  142.0020 O   0  0  0  0  0  0  0  0  0  0  0  0
  189.0500  177.6140  140.4150 C   0  0  0  0  0  2  0  0  0  0  0  0
  188.5960  178.6380  139.4840 N   0  0  0  0  0  2  0  0  0  0  0  0
  188.4070  178.0300  138.1690 C   0  0  1  0  0  0  0  0  0  0  0  0
  187.2090  178.4270  137.4440 C   0  0  0  0  0  2  0  0  0  0  0  0
  188.5140  179.0290  137.0970 N   0  0  0  0  0  2  0  0  0  0  0  0
  188.0960  175.7370  137.1990 C   0  0  0  0  0  1  0  0  0  0  0  0
  189.0930  176.7120  137.8070 C   0  0  1  0  0  3  0  0  0  0  0  0
  190.1680  176.9540  136.9030 O   0  0  0  0  0  0  0  0  0  0  0  0
  193.4270  176.2560  138.4060 N   0  0  0  0  0  0  0  0  0  0  0  0
  192.0550  175.5890  136.1400 C   0  0  0  0  0  3  0  0  0  0  0  0
  193.9970  175.4470  137.4760 C   0  0  0  0  0  0  0  0  0  0  0  0
  192.1770  176.7550  138.2280 C   0  0  0  0  0  3  0  0  0  0  0  0
  195.3020  174.9290  137.6890 N   0  0  0  0  0  1  0  0  0  0  0  0
  193.3070  175.1110  136.3540 N   0  0  0  0  0  0  0  0  0  0  0  0
  191.4550  176.4350  137.0790 C   0  0  0  0  0  0  0  0  0  0  0  0
  188.9140  177.2580  142.8810 C   0  0  0  0  0  2  0  0  0  0  0  0
  190.4490  178.3340  144.6300 C   0  0  2  0  0  3  0  0  0  0  0  0
  191.6660  176.9180  143.1800 C   0  0  0  0  0  2  0  0  0  0  0  0
  189.7420  178.4800  143.3410 C   0  0  1  0  0  3  0  0  0  0  0  0
  191.2210  178.3050  143.3630 N   0  0  1  0  0  0  0  0  0  0  0  0
  190.4880  176.9290  145.2290 C   0  0  1  0  0  3  0  0  0  0  0  0
  191.6030  176.2220  144.5140 C   0  0  0  0  0  2  0  0  0  0  0  0
  191.9820  176.4920  147.2420 N   0  0  0  0  0  1  0  0  0  0  0  0
  190.7430  176.9490  146.7030 C   0  0  0  0  0  0  0  0  0  0  0  0
  189.8230  177.3060  147.4820 O   0  0  0  0  0  0  0  0  0  0  0  0
  1  7  1  6  0  0  0
  1  2  1  0  0  0  0
  1 22  1  0  0  0  0
  2  4  1  0  0  0  0
  3  5  1  0  0  0  0
  5  6  2  0  0  0  0
  5  4  1  0  0  0  0
  8  7  1  0  0  0  0
  9  8  1  1  0  0  0
 10  9  1  0  0  0  0
 11 10  1  0  0  0  0
 11  9  1  0  0  0  0
 13 12  1  6  0  0  0
 13  9  1  0  0  0  0
 14 21  1  0  0  0  0
 14 13  1  0  0  0  0
 16 20  2  0  0  0  0
 16 21  1  0  0  0  0
 17 19  1  0  0  0  0
 17 15  2  0  0  0  0
 18 15  1  0  0  0  0
 20 17  1  0  0  0  0
 21 18  2  0  0  0  0
 22 25  1  0  0  0  0
 23 27  1  0  0  0  0
 24 26  1  0  0  0  0
 24 28  1  0  0  0  0
 25 26  1  0  0  0  0
 25 23  1  0  0  0  0
 26 23  1  0  0  0  0
 27 30  1  0  0  0  0
 28 27  1  0  0  0  0
 30 29  1  0  0  0  0
 30 31  2  0  0  0  0
M  END
>  <MODEL>
3

>  <REMARK>
 VINA RESULT:      -7.2      2.649      6.910
  Name = 
  11 active torsions:
  status: ('A' for Active; 'I' for Inactive)
    1  A    between atoms: N_3  and  N_9
    2  A    between atoms: N_3  and  C_14
    3  A    between atoms: N_5  and  C_12
    4  A    between atoms: N_5  and  C_19
    5  A    between atoms: C_7  and  C_25
    6  A    between atoms: C_12  and  C_29
    7  A    between atoms: C_14  and  C_19
    8  A    between atoms: C_14  and  C_30
    9  A    between atoms: O_16  and  C_29
   10  A    between atoms: O_16  and  C_31
   11  A    between atoms: C_21  and  C_30
                            x       y       z     vdW  Elec       q    Type
                         _______ _______ _______ _____ _____    ______ ____

>  <TORSDO>
F 11

$$$$
=
 OpenBabel10222420283D

 31 34  0  0  1  0  0  0  0  0999 V2000
  188.4830  177.9960  139.5440 C   0  0  1  0  0  3  0  0  0  0  0  0
  187.1910  178.5980  139.2290 N   0  0  0  0  0  2  0  0  0  0  0  0
  184.5780  179.7640  139.2620 N   0  0  0  0  0  1  0  0  0  0  0  0
  186.3850  178.4840  140.3700 N   0  0  0  0  0  2  0  0  0  0  0  0
  185.1140  179.1330  140.4210 C   0  0  0  0  0  0  0  0  0  0  0  0
  184.4780  179.1770  141.5060 O   0  0  0  0  0  0  0  0  0  0  0  0
  188.5100  177.5760  141.0020 C   0  0  0  0  0  2  0  0  0  0  0  0
  189.4250  178.4230  141.7540 N   0  0  0  0  0  2  0  0  0  0  0  0
  190.3100  177.5740  142.5480 C   0  0  1  0  0  0  0  0  0  0  0  0
  191.6980  177.5110  142.1180 C   0  0  0  0  0  2  0  0  0  0  0  0
  191.3190  178.3700  143.2600 N   0  0  0  0  0  2  0  0  0  0  0  0
  190.6410  175.2140  143.3350 C   0  0  0  0  0  1  0  0  0  0  0  0
  189.7470  176.4430  143.4110 C   0  0  1  0  0  3  0  0  0  0  0  0
  189.6120  176.8790  144.7600 O   0  0  0  0  0  0  0  0  0  0  0  0
  186.0860  177.8050  145.0420 N   0  0  0  0  0  0  0  0  0  0  0  0
  188.2810  177.6640  146.6630 C   0  0  0  0  0  3  0  0  0  0  0  0
  185.9920  178.1570  146.3510 C   0  0  0  0  0  0  0  0  0  0  0  0
  187.2640  177.3870  144.5120 C   0  0  0  0  0  3  0  0  0  0  0  0
  184.7470  178.5810  146.8850 N   0  0  0  0  0  1  0  0  0  0  0  0
  187.0850  178.0780  147.1550 N   0  0  0  0  0  0  0  0  0  0  0  0
  188.4020  177.3100  145.3150 C   0  0  0  0  0  0  0  0  0  0  0  0
  188.7810  176.7880  138.6500 C   0  0  0  0  0  2  0  0  0  0  0  0
  190.7710  177.0430  137.0540 C   0  0  2  0  0  3  0  0  0  0  0  0
  189.9950  174.8090  137.1040 C   0  0  0  0  0  2  0  0  0  0  0  0
  189.3150  177.1940  137.2570 C   0  0  1  0  0  3  0  0  0  0  0  0
  189.8370  176.0900  136.4030 N   0  0  1  0  0  0  0  0  0  0  0  0
  191.5330  176.2790  138.1340 C   0  0  1  0  0  3  0  0  0  0  0  0
  191.3180  174.8260  137.8230 C   0  0  0  0  0  2  0  0  0  0  0  0
  193.7810  176.4480  136.9530 N   0  0  0  0  0  1  0  0  0  0  0  0
  192.9940  176.6030  138.1320 C   0  0  0  0  0  0  0  0  0  0  0  0
  193.5500  176.9470  139.2070 O   0  0  0  0  0  0  0  0  0  0  0  0
  1 22  1  6  0  0  0
  1  7  1  0  0  0  0
  2  1  1  0  0  0  0
  2  4  1  0  0  0  0
  3  5  1  0  0  0  0
  4  5  1  0  0  0  0
  5  6  2  0  0  0  0
  7  8  1  0  0  0  0
  9  8  1  6  0  0  0
  9 11  1  0  0  0  0
  9 13  1  0  0  0  0
 10  9  1  0  0  0  0
 10 11  1  0  0  0  0
 13 12  1  1  0  0  0
 13 14  1  0  0  0  0
 14 21  1  0  0  0  0
 15 17  2  0  0  0  0
 16 20  2  0  0  0  0
 17 19  1  0  0  0  0
 17 20  1  0  0  0  0
 18 15  1  0  0  0  0
 18 21  2  0  0  0  0
 21 16  1  0  0  0  0
 23 25  1  0  0  0  0
 23 27  1  0  0  0  0
 24 28  1  0  0  0  0
 25 22  1  0  0  0  0
 26 23  1  0  0  0  0
 26 24  1  0  0  0  0
 26 25  1  0  0  0  0
 28 27  1  0  0  0  0
 29 30  1  0  0  0  0
 30 27  1  0  0  0  0
 30 31  2  0  0  0  0
M  END
>  <MODEL>
4

>  <REMARK>
 VINA RESULT:      -7.2      2.546      5.629
  Name = 
  11 active torsions:
  status: ('A' for Active; 'I' for Inactive)
    1  A    between atoms: N_3  and  N_9
    2  A    between atoms: N_3  and  C_14
    3  A    between atoms: N_5  and  C_12
    4  A    between atoms: N_5  and  C_19
    5  A    between atoms: C_7  and  C_25
    6  A    between atoms: C_12  and  C_29
    7  A    between atoms: C_14  and  C_19
    8  A    between atoms: C_14  and  C_30
    9  A    between atoms: O_16  and  C_29
   10  A    between atoms: O_16  and  C_31
   11  A    between atoms: C_21  and  C_30
                            x       y       z     vdW  Elec       q    Type
                         _______ _______ _______ _____ _____    ______ ____

>  <TORSDO>
F 11

$$$$
=
 OpenBabel10222420283D

 31 34  0  0  1  0  0  0  0  0999 V2000
  188.4500  176.5140  142.7990 C   0  0  1  0  0  3  0  0  0  0  0  0
  187.2270  176.7960  143.5440 N   0  0  0  0  0  2  0  0  0  0  0  0
  185.2490  178.3570  144.9010 N   0  0  0  0  0  1  0  0  0  0  0  0
  186.5450  177.8150  142.8630 N   0  0  0  0  0  2  0  0  0  0  0  0
  185.5010  178.5400  143.5120 C   0  0  0  0  0  0  0  0  0  0  0  0
  184.7770  179.3240  142.8450 O   0  0  0  0  0  0  0  0  0  0  0  0
  188.6490  177.5670  141.7240 C   0  0  0  0  0  2  0  0  0  0  0  0
  189.5270  177.0600  140.6790 N   0  0  0  0  0  2  0  0  0  0  0  0
  188.9350  177.3610  139.3780 C   0  0  1  0  0  0  0  0  0  0  0  0
  187.6930  178.1190  139.3970 C   0  0  0  0  0  2  0  0  0  0  0  0
  188.9680  178.8020  139.0940 N   0  0  0  0  0  2  0  0  0  0  0  0
  188.1790  176.6390  137.0960 C   0  0  0  0  0  1  0  0  0  0  0  0
  189.2720  176.5170  138.1470 C   0  0  1  0  0  3  0  0  0  0  0  0
  190.5280  176.9210  137.6090 O   0  0  0  0  0  0  0  0  0  0  0  0
  192.7880  174.0520  137.4360 N   0  0  0  0  0  0  0  0  0  0  0  0
  192.9060  176.6860  138.1530 C   0  0  0  0  0  3  0  0  0  0  0  0
  193.9540  174.5860  137.8850 C   0  0  0  0  0  0  0  0  0  0  0  0
  191.6630  174.8060  137.3440 C   0  0  0  0  0  3  0  0  0  0  0  0
  195.1210  173.7810  137.9630 N   0  0  0  0  0  1  0  0  0  0  0  0
  194.0090  175.8990  138.2320 N   0  0  0  0  0  0  0  0  0  0  0  0
  191.6930  176.1520  137.7070 C   0  0  0  0  0  0  0  0  0  0  0  0
  189.6770  176.4670  143.7150 C   0  0  0  0  0  2  0  0  0  0  0  0
  189.9400  178.3120  145.4750 C   0  0  2  0  0  3  0  0  0  0  0  0
  191.5950  176.6430  145.7310 C   0  0  0  0  0  2  0  0  0  0  0  0
  190.1970  177.8740  144.0880 C   0  0  1  0  0  3  0  0  0  0  0  0
  191.3140  177.9250  145.0720 N   0  0  1  0  0  0  0  0  0  0  0  0
  189.4230  177.2460  146.4400 C   0  0  1  0  0  3  0  0  0  0  0  0
  190.6390  176.4860  146.8840 C   0  0  0  0  0  2  0  0  0  0  0  0
  187.2980  177.9360  147.6600 N   0  0  0  0  0  1  0  0  0  0  0  0
  188.7210  177.8430  147.6190 C   0  0  0  0  0  0  0  0  0  0  0  0
  189.4010  178.3350  148.5560 O   0  0  0  0  0  0  0  0  0  0  0  0
  1  7  1  6  0  0  0
  1  2  1  0  0  0  0
  1 22  1  0  0  0  0
  4  5  1  0  0  0  0
  4  2  1  0  0  0  0
  5  3  1  0  0  0  0
  6  5  2  0  0  0  0
  8  7  1  0  0  0  0
  9 10  1  0  0  0  0
  9  8  1  1  0  0  0
 11  9  1  0  0  0  0
 11 10  1  0  0  0  0
 13 12  1  6  0  0  0
 13  9  1  0  0  0  0
 14 21  1  0  0  0  0
 14 13  1  0  0  0  0
 15 17  2  0  0  0  0
 16 20  2  0  0  0  0
 17 19  1  0  0  0  0
 17 20  1  0  0  0  0
 18 15  1  0  0  0  0
 18 21  2  0  0  0  0
 21 16  1  0  0  0  0
 22 25  1  0  0  0  0
 23 27  1  0  0  0  0
 24 28  1  0  0  0  0
 25 26  1  0  0  0  0
 25 23  1  0  0  0  0
 26 23  1  0  0  0  0
 26 24  1  0  0  0  0
 27 28  1  0  0  0  0
 27 30  1  0  0  0  0
 30 29  1  0  0  0  0
 30 31  2  0  0  0  0
M  END
>  <MODEL>
5

>  <REMARK>
 VINA RESULT:      -7.1      2.942      7.058
  Name = 
  11 active torsions:
  status: ('A' for Active; 'I' for Inactive)
    1  A    between atoms: N_3  and  N_9
    2  A    between atoms: N_3  and  C_14
    3  A    between atoms: N_5  and  C_12
    4  A    between atoms: N_5  and  C_19
    5  A    between atoms: C_7  and  C_25
    6  A    between atoms: C_12  and  C_29
    7  A    between atoms: C_14  and  C_19
    8  A    between atoms: C_14  and  C_30
    9  A    between atoms: O_16  and  C_29
   10  A    between atoms: O_16  and  C_31
   11  A    between atoms: C_21  and  C_30
                            x       y       z     vdW  Elec       q    Type
                         _______ _______ _______ _____ _____    ______ ____

>  <TORSDO>
F 11

$$$$
=
 OpenBabel10222420283D

 31 34  0  0  1  0  0  0  0  0999 V2000
  184.6000  178.6800  140.3360 C   0  0  1  0  0  3  0  0  0  0  0  0
  185.3340  179.3830  139.2890 N   0  0  0  0  0  2  0  0  0  0  0  0
  188.0910  178.6170  139.3150 N   0  0  0  0  0  1  0  0  0  0  0  0
  185.8050  178.4200  138.3850 N   0  0  0  0  0  2  0  0  0  0  0  0
  187.1940  178.0940  138.3400 C   0  0  0  0  0  0  0  0  0  0  0  0
  187.6360  177.3670  137.4140 O   0  0  0  0  0  0  0  0  0  0  0  0
  185.2280  178.9740  141.6860 C   0  0  0  0  0  2  0  0  0  0  0  0
  184.7500  178.0250  142.6820 N   0  0  0  0  0  2  0  0  0  0  0  0
  184.6430  178.7060  143.9700 C   0  0  1  0  0  0  0  0  0  0  0  0
  183.8190  179.9050  143.9970 C   0  0  0  0  0  2  0  0  0  0  0  0
  183.2780  178.6270  144.5060 N   0  0  0  0  0  2  0  0  0  0  0  0
  185.0830  178.6010  146.4390 C   0  0  0  0  0  1  0  0  0  0  0  0
  185.7060  178.5090  145.0530 C   0  0  1  0  0  3  0  0  0  0  0  0
  186.3520  177.2520  144.8790 O   0  0  0  0  0  0  0  0  0  0  0  0
  189.9970  177.5340  144.8170 N   0  0  0  0  0  0  0  0  0  0  0  0
  188.0210  176.4490  143.2730 C   0  0  0  0  0  3  0  0  0  0  0  0
  190.3090  176.8920  143.6620 C   0  0  0  0  0  0  0  0  0  0  0  0
  188.7070  177.6580  145.2230 C   0  0  0  0  0  3  0  0  0  0  0  0
  191.6650  176.7650  143.2630 N   0  0  0  0  0  1  0  0  0  0  0  0
  189.3220  176.3470  142.9010 N   0  0  0  0  0  0  0  0  0  0  0  0
  187.6780  177.1180  144.4530 C   0  0  0  0  0  0  0  0  0  0  0  0
  183.1190  179.0710  140.3550 C   0  0  0  0  0  2  0  0  0  0  0  0
  180.9430  177.8930  141.0220 C   0  0  2  0  0  3  0  0  0  0  0  0
  180.5550  179.5270  139.3590 C   0  0  0  0  0  2  0  0  0  0  0  0
  182.1780  177.8530  140.2130 C   0  0  1  0  0  3  0  0  0  0  0  0
  180.8650  178.1060  139.5560 N   0  0  1  0  0  0  0  0  0  0  0  0
  180.6170  179.2210  141.7020 C   0  0  1  0  0  3  0  0  0  0  0  0
  179.9720  180.0650  140.6390 C   0  0  0  0  0  2  0  0  0  0  0  0
  179.2970  180.1660  143.6630 N   0  0  0  0  0  1  0  0  0  0  0  0
  179.6910  179.0510  142.8650 C   0  0  0  0  0  0  0  0  0  0  0  0
  179.3140  177.8950  143.1870 O   0  0  0  0  0  0  0  0  0  0  0  0
  1 22  1  1  0  0  0
  1  7  1  0  0  0  0
  2  1  1  0  0  0  0
  4  2  1  0  0  0  0
  5  4  1  0  0  0  0
  5  3  1  0  0  0  0
  6  5  2  0  0  0  0
  7  8  1  0  0  0  0
  9  8  1  6  0  0  0
  9 10  1  0  0  0  0
  9 11  1  0  0  0  0
  9 13  1  0  0  0  0
 10 11  1  0  0  0  0
 13 12  1  1  0  0  0
 14 13  1  0  0  0  0
 15 18  1  0  0  0  0
 16 21  1  0  0  0  0
 17 15  2  0  0  0  0
 19 17  1  0  0  0  0
 20 16  2  0  0  0  0
 20 17  1  0  0  0  0
 21 14  1  0  0  0  0
 21 18  2  0  0  0  0
 23 27  1  0  0  0  0
 24 26  1  0  0  0  0
 24 28  1  0  0  0  0
 25 22  1  0  0  0  0
 25 23  1  0  0  0  0
 26 25  1  0  0  0  0
 26 23  1  0  0  0  0
 27 30  1  0  0  0  0
 28 27  1  0  0  0  0
 30 31  2  0  0  0  0
 30 29  1  0  0  0  0
M  END
>  <MODEL>
6

>  <REMARK>
 VINA RESULT:      -6.9      2.709      7.145
  Name = 
  11 active torsions:
  status: ('A' for Active; 'I' for Inactive)
    1  A    between atoms: N_3  and  N_9
    2  A    between atoms: N_3  and  C_14
    3  A    between atoms: N_5  and  C_12
    4  A    between atoms: N_5  and  C_19
    5  A    between atoms: C_7  and  C_25
    6  A    between atoms: C_12  and  C_29
    7  A    between atoms: C_14  and  C_19
    8  A    between atoms: C_14  and  C_30
    9  A    between atoms: O_16  and  C_29
   10  A    between atoms: O_16  and  C_31
   11  A    between atoms: C_21  and  C_30
                            x       y       z     vdW  Elec       q    Type
                         _______ _______ _______ _____ _____    ______ ____

>  <TORSDO>
F 11

$$$$
=
 OpenBabel10222420283D

 31 34  0  0  1  0  0  0  0  0999 V2000
  188.6920  178.3290  141.1360 C   0  0  1  0  0  3  0  0  0  0  0  0
  187.2940  178.1960  141.5370 N   0  0  0  0  0  2  0  0  0  0  0  0
  184.4380  178.2080  141.7180 N   0  0  0  0  0  1  0  0  0  0  0  0
  186.5430  179.0720  140.7420 N   0  0  0  0  0  2  0  0  0  0  0  0
  185.1170  179.0250  140.7690 C   0  0  0  0  0  0  0  0  0  0  0  0
  184.4530  179.6840  139.9270 O   0  0  0  0  0  0  0  0  0  0  0  0
  189.4680  177.1000  141.5720 C   0  0  0  0  0  2  0  0  0  0  0  0
  190.7450  177.4910  142.1520 N   0  0  0  0  0  2  0  0  0  0  0  0
  190.9230  176.7870  143.4210 C   0  0  1  0  0  0  0  0  0  0  0  0
  190.5660  175.3770  143.4280 C   0  0  0  0  0  2  0  0  0  0  0  0
  191.9850  175.7770  143.3280 N   0  0  0  0  0  2  0  0  0  0  0  0
  190.5510  179.0030  144.5390 C   0  0  0  0  0  1  0  0  0  0  0  0
  190.9600  177.5520  144.7450 C   0  0  1  0  0  3  0  0  0  0  0  0
  190.1060  176.9230  145.6960 O   0  0  0  0  0  0  0  0  0  0  0  0
  187.2140  178.2330  147.5090 N   0  0  0  0  0  0  0  0  0  0  0  0
  187.7970  177.3480  144.9920 C   0  0  0  0  0  3  0  0  0  0  0  0
  186.2490  178.2080  146.5540 C   0  0  0  0  0  0  0  0  0  0  0  0
  188.4780  177.8140  147.2400 C   0  0  0  0  0  3  0  0  0  0  0  0
  184.9380  178.6610  146.8570 N   0  0  0  0  0  1  0  0  0  0  0  0
  186.5460  177.7740  145.3010 N   0  0  0  0  0  0  0  0  0  0  0  0
  188.8020  177.3540  145.9650 C   0  0  0  0  0  0  0  0  0  0  0  0
  188.8330  178.5240  139.6230 C   0  0  0  0  0  2  0  0  0  0  0  0
  188.1420  176.7270  137.9320 C   0  0  2  0  0  3  0  0  0  0  0  0
  189.0350  178.6270  136.8440 C   0  0  0  0  0  2  0  0  0  0  0  0
  189.1660  177.2110  138.8800 C   0  0  1  0  0  3  0  0  0  0  0  0
  189.3980  177.3230  137.4130 N   0  0  1  0  0  0  0  0  0  0  0  0
  187.0030  177.6920  137.6090 C   0  0  1  0  0  3  0  0  0  0  0  0
  187.5540  178.6260  136.5700 C   0  0  0  0  0  2  0  0  0  0  0  0
  185.9100  175.7710  136.3480 N   0  0  0  0  0  1  0  0  0  0  0  0
  185.7920  176.9850  137.0870 C   0  0  0  0  0  0  0  0  0  0  0  0
  184.6600  177.5090  137.2410 O   0  0  0  0  0  0  0  0  0  0  0  0
  1 22  1  6  0  0  0
  1  2  1  0  0  0  0
  1  7  1  0  0  0  0
  4  5  1  0  0  0  0
  4  2  1  0  0  0  0
  5  3  1  0  0  0  0
  6  5  2  0  0  0  0
  7  8  1  0  0  0  0
  9  8  1  6  0  0  0
  9 10  1  0  0  0  0
  9 13  1  0  0  0  0
 11  9  1  0  0  0  0
 11 10  1  0  0  0  0
 13 12  1  6  0  0  0
 13 14  1  0  0  0  0
 14 21  1  0  0  0  0
 16 20  2  0  0  0  0
 16 21  1  0  0  0  0
 17 19  1  0  0  0  0
 17 15  2  0  0  0  0
 18 15  1  0  0  0  0
 20 17  1  0  0  0  0
 21 18  2  0  0  0  0
 23 25  1  0  0  0  0
 24 26  1  0  0  0  0
 25 22  1  0  0  0  0
 26 23  1  0  0  0  0
 26 25  1  0  0  0  0
 27 23  1  0  0  0  0
 28 24  1  0  0  0  0
 28 27  1  0  0  0  0
 29 30  1  0  0  0  0
 30 31  2  0  0  0  0
 30 27  1  0  0  0  0
M  END
>  <MODEL>
7

>  <REMARK>
 VINA RESULT:      -6.9      2.218      6.309
  Name = 
  11 active torsions:
  status: ('A' for Active; 'I' for Inactive)
    1  A    between atoms: N_3  and  N_9
    2  A    between atoms: N_3  and  C_14
    3  A    between atoms: N_5  and  C_12
    4  A    between atoms: N_5  and  C_19
    5  A    between atoms: C_7  and  C_25
    6  A    between atoms: C_12  and  C_29
    7  A    between atoms: C_14  and  C_19
    8  A    between atoms: C_14  and  C_30
    9  A    between atoms: O_16  and  C_29
   10  A    between atoms: O_16  and  C_31
   11  A    between atoms: C_21  and  C_30
                            x       y       z     vdW  Elec       q    Type
                         _______ _______ _______ _____ _____    ______ ____

>  <TORSDO>
F 11

$$$$
=
 OpenBabel10222420283D

 31 34  0  0  1  0  0  0  0  0999 V2000
  185.5190  178.9100  142.3830 C   0  0  1  0  0  3  0  0  0  0  0  0
  184.8440  178.2500  143.4970 N   0  0  0  0  0  2  0  0  0  0  0  0
  186.4440  177.5040  145.7490 N   0  0  0  0  0  1  0  0  0  0  0  0
  184.9350  179.1010  144.6080 N   0  0  0  0  0  2  0  0  0  0  0  0
  185.6660  178.6970  145.7650 C   0  0  0  0  0  0  0  0  0  0  0  0
  185.5960  179.3810  146.8190 O   0  0  0  0  0  0  0  0  0  0  0  0
  186.8560  178.2390  142.1260 C   0  0  0  0  0  2  0  0  0  0  0  0
  187.6510  179.0380  141.2040 N   0  0  0  0  0  2  0  0  0  0  0  0
  188.4930  178.1450  140.4110 C   0  0  1  0  0  0  0  0  0  0  0  0
  187.9540  177.7260  139.1260 C   0  0  0  0  0  2  0  0  0  0  0  0
  188.9650  178.8020  139.1850 N   0  0  0  0  0  2  0  0  0  0  0  0
  190.5460  176.7530  140.0310 C   0  0  0  0  0  1  0  0  0  0  0  0
  189.5810  177.2980  141.0740 C   0  0  1  0  0  3  0  0  0  0  0  0
  190.2800  178.0730  142.0430 O   0  0  0  0  0  0  0  0  0  0  0  0
  190.1060  177.7760  145.6830 N   0  0  0  0  0  0  0  0  0  0  0  0
  191.4640  176.6150  143.6170 C   0  0  0  0  0  3  0  0  0  0  0  0
  191.0160  176.7990  145.9290 C   0  0  0  0  0  0  0  0  0  0  0  0
  189.8580  178.2010  144.4170 C   0  0  0  0  0  3  0  0  0  0  0  0
  191.2510  176.3640  147.2600 N   0  0  0  0  0  1  0  0  0  0  0  0
  191.6840  176.2180  144.8960 N   0  0  0  0  0  0  0  0  0  0  0  0
  190.5400  177.6290  143.3440 C   0  0  0  0  0  0  0  0  0  0  0  0
  184.6700  178.8840  141.1080 C   0  0  0  0  0  2  0  0  0  0  0  0
  182.1950  178.7580  140.4540 C   0  0  2  0  0  3  0  0  0  0  0  0
  183.5320  177.4690  138.9910 C   0  0  0  0  0  2  0  0  0  0  0  0
  183.2740  178.2600  141.3320 C   0  0  1  0  0  3  0  0  0  0  0  0
  182.7510  177.4000  140.2330 N   0  0  1  0  0  0  0  0  0  0  0  0
  182.6240  179.6320  139.2770 C   0  0  1  0  0  3  0  0  0  0  0  0
  183.0750  178.6740  138.2130 C   0  0  0  0  0  2  0  0  0  0  0  0
  180.3920  180.8120  139.6010 N   0  0  0  0  0  1  0  0  0  0  0  0
  181.5060  180.4870  138.7700 C   0  0  0  0  0  0  0  0  0  0  0  0
  181.5140  180.8640  137.5710 O   0  0  0  0  0  0  0  0  0  0  0  0
  1 22  1  6  0  0  0
  1  2  1  0  0  0  0
  2  4  1  0  0  0  0
  3  5  1  0  0  0  0
  4  5  1  0  0  0  0
  5  6  2  0  0  0  0
  7  1  1  0  0  0  0
  8  7  1  0  0  0  0
  9 13  1  0  0  0  0
  9  8  1  1  0  0  0
 10 11  1  0  0  0  0
 10  9  1  0  0  0  0
 11  9  1  0  0  0  0
 13 12  1  6  0  0  0
 13 14  1  0  0  0  0
 14 21  1  0  0  0  0
 15 17  2  0  0  0  0
 16 20  2  0  0  0  0
 17 19  1  0  0  0  0
 18 15  1  0  0  0  0
 20 17  1  0  0  0  0
 21 16  1  0  0  0  0
 21 18  2  0  0  0  0
 22 25  1  0  0  0  0
 23 25  1  0  0  0  0
 24 26  1  0  0  0  0
 26 23  1  0  0  0  0
 26 25  1  0  0  0  0
 27 23  1  0  0  0  0
 28 24  1  0  0  0  0
 28 27  1  0  0  0  0
 30 27  1  0  0  0  0
 30 29  1  0  0  0  0
 31 30  2  0  0  0  0
M  END
>  <MODEL>
8

>  <REMARK>
 VINA RESULT:      -6.9      2.666      7.790
  Name = 
  11 active torsions:
  status: ('A' for Active; 'I' for Inactive)
    1  A    between atoms: N_3  and  N_9
    2  A    between atoms: N_3  and  C_14
    3  A    between atoms: N_5  and  C_12
    4  A    between atoms: N_5  and  C_19
    5  A    between atoms: C_7  and  C_25
    6  A    between atoms: C_12  and  C_29
    7  A    between atoms: C_14  and  C_19
    8  A    between atoms: C_14  and  C_30
    9  A    between atoms: O_16  and  C_29
   10  A    between atoms: O_16  and  C_31
   11  A    between atoms: C_21  and  C_30
                            x       y       z     vdW  Elec       q    Type
                         _______ _______ _______ _____ _____    ______ ____

>  <TORSDO>
F 11

$$$$
=
 OpenBabel10222420283D

 31 34  0  0  1  0  0  0  0  0999 V2000
  187.9040  178.9950  140.7950 C   0  0  1  0  0  3  0  0  0  0  0  0
  188.2400  178.6050  139.4300 N   0  0  0  0  0  2  0  0  0  0  0  0
  188.2670  177.3600  136.8530 N   0  0  0  0  0  1  0  0  0  0  0  0
  187.0370  178.3620  138.7530 N   0  0  0  0  0  2  0  0  0  0  0  0
  187.0500  177.8160  137.4340 C   0  0  0  0  0  0  0  0  0  0  0  0
  185.9850  177.7680  136.7670 O   0  0  0  0  0  0  0  0  0  0  0  0
  186.4750  178.5900  141.1060 C   0  0  0  0  0  2  0  0  0  0  0  0
  185.8010  179.6460  141.8490 N   0  0  0  0  0  2  0  0  0  0  0  0
  184.6930  179.0610  142.6010 C   0  0  1  0  0  0  0  0  0  0  0  0
  183.4070  179.0180  141.9220 C   0  0  0  0  0  2  0  0  0  0  0  0
  184.2420  177.8000  141.9970 N   0  0  0  0  0  2  0  0  0  0  0  0
  183.3210  178.9970  144.7010 C   0  0  0  0  0  1  0  0  0  0  0  0
  184.7310  178.9940  144.1290 C   0  0  1  0  0  3  0  0  0  0  0  0
  185.4360  177.8300  144.5490 O   0  0  0  0  0  0  0  0  0  0  0  0
  187.1810  178.2590  147.7330 N   0  0  0  0  0  0  0  0  0  0  0  0
  187.7800  177.4920  145.1810 C   0  0  0  0  0  3  0  0  0  0  0  0
  188.4540  177.9190  147.4040 C   0  0  0  0  0  0  0  0  0  0  0  0
  186.1880  178.2350  146.8080 C   0  0  0  0  0  3  0  0  0  0  0  0
  189.4740  177.9420  148.3910 N   0  0  0  0  0  1  0  0  0  0  0  0
  188.7450  177.5300  146.1340 N   0  0  0  0  0  0  0  0  0  0  0  0
  186.4660  177.8520  145.4970 C   0  0  0  0  0  0  0  0  0  0  0  0
  188.8560  178.3680  141.8180 C   0  0  0  0  0  2  0  0  0  0  0  0
  190.2680  176.4100  140.9560 C   0  0  2  0  0  3  0  0  0  0  0  0
  191.0120  177.1300  143.0820 C   0  0  0  0  0  2  0  0  0  0  0  0
  189.0230  176.8440  141.6220 C   0  0  1  0  0  3  0  0  0  0  0  0
  190.1020  176.1910  142.4140 N   0  0  1  0  0  0  0  0  0  0  0  0
  191.3460  177.4760  140.7670 C   0  0  1  0  0  3  0  0  0  0  0  0
  192.0570  177.5620  142.0870 C   0  0  0  0  0  2  0  0  0  0  0  0
  193.7120  177.3140  139.8430 N   0  0  0  0  0  1  0  0  0  0  0  0
  192.3080  177.1220  139.6780 C   0  0  0  0  0  0  0  0  0  0  0  0
  191.8650  176.7170  138.5730 O   0  0  0  0  0  0  0  0  0  0  0  0
  1  7  1  1  0  0  0
  1 22  1  0  0  0  0
  2  1  1  0  0  0  0
  3  5  1  0  0  0  0
  4  2  1  0  0  0  0
  5  4  1  0  0  0  0
  6  5  2  0  0  0  0
  7  8  1  0  0  0  0
  9  8  1  6  0  0  0
  9 13  1  0  0  0  0
 10 11  1  0  0  0  0
 10  9  1  0  0  0  0
 11  9  1  0  0  0  0
 13 14  1  0  0  0  0
 13 12  1  6  0  0  0
 14 21  1  0  0  0  0
 16 21  1  0  0  0  0
 16 20  2  0  0  0  0
 17 15  2  0  0  0  0
 17 19  1  0  0  0  0
 18 15  1  0  0  0  0
 20 17  1  0  0  0  0
 21 18  2  0  0  0  0
 23 25  1  0  0  0  0
 23 26  1  0  0  0  0
 25 22  1  0  0  0  0
 25 26  1  0  0  0  0
 26 24  1  0  0  0  0
 27 23  1  0  0  0  0
 27 28  1  0  0  0  0
 28 24  1  0  0  0  0
 30 29  1  0  0  0  0
 30 27  1  0  0  0  0
 31 30  2  0  0  0  0
M  END
>  <MODEL>
9

>  <REMARK>
 VINA RESULT:      -6.9      2.040      3.041
  Name = 
  11 active torsions:
  status: ('A' for Active; 'I' for Inactive)
    1  A    between atoms: N_3  and  N_9
    2  A    between atoms: N_3  and  C_14
    3  A    between atoms: N_5  and  C_12
    4  A    between atoms: N_5  and  C_19
    5  A    between atoms: C_7  and  C_25
    6  A    between atoms: C_12  and  C_29
    7  A    between atoms: C_14  and  C_19
    8  A    between atoms: C_14  and  C_30
    9  A    between atoms: O_16  and  C_29
   10  A    between atoms: O_16  and  C_31
   11  A    between atoms: C_21  and  C_30
                            x       y       z     vdW  Elec       q    Type
                         _______ _______ _______ _____ _____    ______ ____

>  <TORSDO>
F 11

$$$$
