=
 OpenBabel10222417573D

 33 39  0  0  1  0  0  0  0  0999 V2000
  181.6880  178.8570  142.5300 C   0  0  0  0  0  0  0  0  0  0  0  0
  186.1520  178.5830  145.2130 C   0  0  0  0  0  0  0  0  0  0  0  0
  182.0630  179.3650  139.7720 C   0  0  1  0  0  3  0  0  0  0  0  0
  181.7750  179.0700  143.8670 N   0  0  0  0  0  0  0  0  0  0  0  0
  186.1070  177.8850  142.5160 C   0  0  0  0  0  3  0  0  0  0  0  0
  180.5710  179.2480  141.7370 N   0  0  0  0  0  2  0  0  0  0  0  0
  182.5990  177.8560  137.8070 N   0  0  0  0  0  2  0  0  0  0  0  0
  180.6330  179.0580  140.2850 C   0  0  1  0  0  3  0  0  0  0  0  0
  183.0290  176.8330  138.7140 C   0  0  0  0  0  0  0  0  0  0  0  0
  183.0480  178.7100  144.1410 C   0  0  1  0  0  3  0  0  0  0  0  0
  183.6980  178.3910  142.9880 C   0  0  2  0  0  3  0  0  0  0  0  0
  187.1940  177.4980  143.3220 C   0  0  0  0  0  3  0  0  0  0  0  0
  183.1310  178.5240  140.5240 C   0  0  2  0  0  3  0  0  0  0  0  0
  181.9160  180.0590  137.4810 O   0  0  0  0  0  0  0  0  0  0  0  0
  185.1140  178.6990  143.0720 C   0  0  0  0  0  0  0  0  0  0  0  0
  185.2600  179.1950  144.3640 C   0  0  0  0  0  0  0  0  0  0  0  0
  183.9780  179.3850  145.0990 C   0  0  2  0  0  3  0  0  0  0  0  0
  183.2290  177.1130  140.0040 C   0  0  0  0  0  3  0  0  0  0  0  0
  182.8550  178.5010  141.9570 N   0  0  0  0  0  0  0  0  0  0  0  0
  184.2390  178.6380  146.3300 N   0  0  0  0  0  0  0  0  0  0  0  0
  182.1930  179.1370  138.2920 C   0  0  0  0  0  0  0  0  0  0  0  0
  185.4510  178.2440  146.4030 N   0  0  0  0  0  0  0  0  0  0  0  0
  187.2140  177.8170  144.6940 C   0  0  0  0  0  0  0  0  0  0  0  0
  189.5490  177.6510  145.7130 C   0  0  0  0  0  0  0  0  0  0  0  0
  190.0360  178.5410  144.9620 O   0  0  0  0  0  0  0  0  0  0  0  0
  188.2010  177.2020  145.5330 N   0  0  0  0  0  2  0  0  0  0  0  0
  190.3310  177.0620  146.7070 O   0  0  0  0  0  0  0  0  0  0  0  0
  191.6090  176.5100  146.4280 C   0  0  0  0  0  1  0  0  0  0  0  0
  179.6510  179.9220  139.6380 N   0  0  0  0  0  0  0  0  0  0  0  0
  178.9310  180.6300  140.7100 C   0  0  0  0  0  2  0  0  0  0  0  0
  179.9870  181.3140  139.9830 C   0  0  0  0  0  2  0  0  0  0  0  0
  183.1750  175.4340  138.2320 C   0  0  0  0  0  2  0  0  0  0  0  0
  181.8700  174.8900  137.9040 N   0  0  0  0  0  1  0  0  0  0  0  0
  1  4  2  0  0  0  0
  2 22  1  0  0  0  0
  3 21  1  6  0  0  0
  3  8  1  0  0  0  0
  3 13  1  0  0  0  0
  5 15  2  0  0  0  0
  5 12  1  0  0  0  0
  6  1  1  0  0  0  0
  7 21  1  0  0  0  0
  7  9  1  0  0  0  0
  8 29  1  6  0  0  0
  8  6  1  0  0  0  0
  9 18  2  0  0  0  0
 10  4  1  6  0  0  0
 10 17  1  0  0  0  0
 11 15  1  6  0  0  0
 11 10  1  0  0  0  0
 12 23  2  0  0  0  0
 13 18  1  6  0  0  0
 13 19  1  0  0  0  0
 14 21  2  0  0  0  0
 15 16  1  0  0  0  0
 16  2  2  0  0  0  0
 17 16  1  6  0  0  0
 17 20  1  0  0  0  0
 19  1  1  0  0  0  0
 19 11  1  0  0  0  0
 20 22  2  0  0  0  0
 23  2  1  0  0  0  0
 23 26  1  0  0  0  0
 24 27  1  0  0  0  0
 25 24  2  0  0  0  0
 26 24  1  0  0  0  0
 28 27  1  0  0  0  0
 29 31  1  0  0  0  0
 29 30  1  0  0  0  0
 31 30  1  0  0  0  0
 32  9  1  0  0  0  0
 33 32  1  0  0  0  0
M  END
>  <MODEL>
1

>  <REMARK>
 VINA RESULT:      -8.6      0.000      0.000
  Name = 
  4 active torsions:
  status: ('A' for Active; 'I' for Inactive)
    1  A    between atoms: C_2  and  O_25
    2  A    between atoms: C_6  and  C_11
    3  A    between atoms: C_10  and  N_13
    4  A    between atoms: N_24  and  C_32
                            x       y       z     vdW  Elec       q    Type
                         _______ _______ _______ _____ _____    ______ ____

>  <TORSDO>
F 4

$$$$
=
 OpenBabel10222417573D

 33 39  0  0  1  0  0  0  0  0999 V2000
  192.2170  177.1100  139.7710 C   0  0  0  0  0  0  0  0  0  0  0  0
  189.7370  177.2550  144.3570 C   0  0  0  0  0  0  0  0  0  0  0  0
  190.9710  175.4220  137.8730 C   0  0  1  0  0  3  0  0  0  0  0  0
  192.8160  177.4560  140.9380 N   0  0  0  0  0  0  0  0  0  0  0  0
  188.3070  176.7540  142.0200 C   0  0  0  0  0  3  0  0  0  0  0  0
  192.9300  176.7420  138.5940 N   0  0  0  0  0  2  0  0  0  0  0  0
  189.0340  175.7730  136.2760 N   0  0  0  0  0  2  0  0  0  0  0  0
  192.1760  176.2880  137.4230 C   0  0  1  0  0  3  0  0  0  0  0  0
  188.6260  176.9220  137.0280 C   0  0  0  0  0  0  0  0  0  0  0  0
  191.7730  177.5380  141.7920 C   0  0  1  0  0  3  0  0  0  0  0  0
  190.6260  177.1610  141.1610 C   0  0  2  0  0  3  0  0  0  0  0  0
  187.6240  177.1310  143.1910 C   0  0  0  0  0  3  0  0  0  0  0  0
  190.0780  176.1770  138.8950 C   0  0  2  0  0  3  0  0  0  0  0  0
  190.4190  173.9080  136.0960 O   0  0  0  0  0  0  0  0  0  0  0  0
  189.6890  176.5460  142.0830 C   0  0  0  0  0  0  0  0  0  0  0  0
  190.3500  176.6110  143.3060 C   0  0  0  0  0  0  0  0  0  0  0  0
  191.7550  177.0980  143.2220 C   0  0  2  0  0  3  0  0  0  0  0  0
  189.1460  177.1600  138.2350 C   0  0  0  0  0  3  0  0  0  0  0  0
  190.8970  176.8650  139.8870 N   0  0  0  0  0  0  0  0  0  0  0  0
  191.7420  178.1870  144.1990 N   0  0  0  0  0  0  0  0  0  0  0  0
  190.1340  174.9710  136.7090 C   0  0  0  0  0  0  0  0  0  0  0  0
  190.6440  178.2330  144.8500 N   0  0  0  0  0  0  0  0  0  0  0  0
  188.3390  177.4180  144.3710 C   0  0  0  0  0  0  0  0  0  0  0  0
  187.8160  177.7160  146.8520 C   0  0  0  0  0  0  0  0  0  0  0  0
  188.4690  176.6940  147.2030 O   0  0  0  0  0  0  0  0  0  0  0  0
  187.6470  178.0330  145.4660 N   0  0  0  0  0  2  0  0  0  0  0  0
  187.2140  178.5310  147.8110 O   0  0  0  0  0  0  0  0  0  0  0  0
  186.0930  179.3460  147.5060 C   0  0  0  0  0  1  0  0  0  0  0  0
  193.0570  175.5350  136.5370 N   0  0  0  0  0  0  0  0  0  0  0  0
  192.9130  176.1160  135.1920 C   0  0  0  0  0  2  0  0  0  0  0  0
  194.0620  176.4720  136.0070 C   0  0  0  0  0  2  0  0  0  0  0  0
  187.6770  177.8970  136.4290 C   0  0  0  0  0  2  0  0  0  0  0  0
  187.6340  179.1000  137.2410 N   0  0  0  0  0  1  0  0  0  0  0  0
  1 19  1  0  0  0  0
  1  4  2  0  0  0  0
  2 23  1  0  0  0  0
  2 22  1  0  0  0  0
  3 21  1  6  0  0  0
  3 13  1  0  0  0  0
  5 15  2  0  0  0  0
  5 12  1  0  0  0  0
  6  1  1  0  0  0  0
  7 21  1  0  0  0  0
  7  9  1  0  0  0  0
  8 29  1  6  0  0  0
  8  3  1  0  0  0  0
  8  6  1  0  0  0  0
  9 18  2  0  0  0  0
 10  4  1  6  0  0  0
 10 17  1  0  0  0  0
 11 10  1  0  0  0  0
 11 15  1  1  0  0  0
 12 23  2  0  0  0  0
 13 18  1  6  0  0  0
 13 19  1  0  0  0  0
 14 21  2  0  0  0  0
 15 16  1  0  0  0  0
 16  2  2  0  0  0  0
 17 16  1  6  0  0  0
 17 20  1  0  0  0  0
 19 11  1  0  0  0  0
 20 22  2  0  0  0  0
 23 26  1  0  0  0  0
 24 25  2  0  0  0  0
 24 27  1  0  0  0  0
 26 24  1  0  0  0  0
 28 27  1  0  0  0  0
 30 31  1  0  0  0  0
 30 29  1  0  0  0  0
 31 29  1  0  0  0  0
 32  9  1  0  0  0  0
 32 33  1  0  0  0  0
M  END
>  <MODEL>
2

>  <REMARK>
 VINA RESULT:      -8.5      5.713      8.414
  Name = 
  4 active torsions:
  status: ('A' for Active; 'I' for Inactive)
    1  A    between atoms: C_2  and  O_25
    2  A    between atoms: C_6  and  C_11
    3  A    between atoms: C_10  and  N_13
    4  A    between atoms: N_24  and  C_32
                            x       y       z     vdW  Elec       q    Type
                         _______ _______ _______ _____ _____    ______ ____

>  <TORSDO>
F 4

$$$$
=
 OpenBabel10222417573D

 33 39  0  0  1  0  0  0  0  0999 V2000
  185.1720  178.8380  144.4470 C   0  0  0  0  0  0  0  0  0  0  0  0
  180.9190  179.1070  141.4410 C   0  0  0  0  0  0  0  0  0  0  0  0
  187.0860  176.9710  143.5220 C   0  0  1  0  0  3  0  0  0  0  0  0
  183.9690  179.2870  144.8860 N   0  0  0  0  0  0  0  0  0  0  0  0
  183.3670  178.3870  140.3230 C   0  0  0  0  0  3  0  0  0  0  0  0
  186.2330  178.4440  145.3120 N   0  0  0  0  0  2  0  0  0  0  0  0
  188.9130  177.1130  141.7700 N   0  0  0  0  0  2  0  0  0  0  0  0
  187.4510  177.8780  144.7250 C   0  0  1  0  0  3  0  0  0  0  0  0
  188.2890  178.2780  141.2180 C   0  0  0  0  0  0  0  0  0  0  0  0
  183.2470  179.3580  143.7470 C   0  0  1  0  0  3  0  0  0  0  0  0
  183.9790  178.8780  142.7030 C   0  0  2  0  0  3  0  0  0  0  0  0
  182.3080  178.7920  139.4890 C   0  0  0  0  0  3  0  0  0  0  0  0
  186.2240  177.7310  142.4760 C   0  0  2  0  0  3  0  0  0  0  0  0
  188.8110  175.3260  143.2610 O   0  0  0  0  0  0  0  0  0  0  0  0
  183.1320  178.2640  141.6960 C   0  0  0  0  0  0  0  0  0  0  0  0
  181.8490  178.4410  142.2040 C   0  0  0  0  0  0  0  0  0  0  0  0
  181.8040  179.0030  143.5840 C   0  0  2  0  0  3  0  0  0  0  0  0
  187.0490  178.6170  141.5790 C   0  0  0  0  0  3  0  0  0  0  0  0
  185.1920  178.5240  143.1370 N   0  0  0  0  0  0  0  0  0  0  0  0
  180.9070  180.1450  143.3990 N   0  0  0  0  0  0  0  0  0  0  0  0
  188.3060  176.4040  142.8520 C   0  0  0  0  0  0  0  0  0  0  0  0
  180.3900  180.1650  142.2320 N   0  0  0  0  0  0  0  0  0  0  0  0
  181.0750  179.1900  140.0440 C   0  0  0  0  0  0  0  0  0  0  0  0
  180.2950  181.0550  138.4850 C   0  0  0  0  0  0  0  0  0  0  0  0
  181.2940  181.7890  138.7180 O   0  0  0  0  0  0  0  0  0  0  0  0
  180.1090  179.8270  139.1970 N   0  0  0  0  0  2  0  0  0  0  0  0
  179.3340  181.4480  137.5530 O   0  0  0  0  0  0  0  0  0  0  0  0
  179.2650  182.7780  137.0620 C   0  0  0  0  0  1  0  0  0  0  0  0
  188.1790  177.1270  145.7420 N   0  0  0  0  0  0  0  0  0  0  0  0
  189.5300  177.7070  145.8190 C   0  0  0  0  0  2  0  0  0  0  0  0
  188.5380  178.0670  146.8180 C   0  0  0  0  0  2  0  0  0  0  0  0
  189.0560  179.1600  140.2980 C   0  0  0  0  0  2  0  0  0  0  0  0
  188.6810  178.8760  138.9240 N   0  0  0  0  0  1  0  0  0  0  0  0
  1  4  2  0  0  0  0
  1  6  1  0  0  0  0
  2 16  1  0  0  0  0
  2 22  1  0  0  0  0
  3 21  1  6  0  0  0
  3  8  1  0  0  0  0
  5 15  1  0  0  0  0
  7 21  1  0  0  0  0
  8  6  1  0  0  0  0
  8 29  1  1  0  0  0
  9 18  2  0  0  0  0
  9  7  1  0  0  0  0
 10  4  1  1  0  0  0
 11 15  1  1  0  0  0
 11 19  1  0  0  0  0
 11 10  1  0  0  0  0
 12 23  1  0  0  0  0
 12  5  2  0  0  0  0
 13 18  1  1  0  0  0
 13 19  1  0  0  0  0
 13  3  1  0  0  0  0
 15 16  2  0  0  0  0
 17 16  1  6  0  0  0
 17 10  1  0  0  0  0
 19  1  1  0  0  0  0
 20 17  1  0  0  0  0
 21 14  2  0  0  0  0
 22 20  2  0  0  0  0
 23  2  2  0  0  0  0
 24 25  2  0  0  0  0
 24 26  1  0  0  0  0
 26 23  1  0  0  0  0
 27 24  1  0  0  0  0
 28 27  1  0  0  0  0
 29 30  1  0  0  0  0
 29 31  1  0  0  0  0
 30 31  1  0  0  0  0
 32  9  1  0  0  0  0
 33 32  1  0  0  0  0
M  END
>  <MODEL>
3

>  <REMARK>
 VINA RESULT:      -8.1      2.106      8.051
  Name = 
  4 active torsions:
  status: ('A' for Active; 'I' for Inactive)
    1  A    between atoms: C_2  and  O_25
    2  A    between atoms: C_6  and  C_11
    3  A    between atoms: C_10  and  N_13
    4  A    between atoms: N_24  and  C_32
                            x       y       z     vdW  Elec       q    Type
                         _______ _______ _______ _____ _____    ______ ____

>  <TORSDO>
F 4

$$$$
=
 OpenBabel10222417573D

 33 39  0  0  1  0  0  0  0  0999 V2000
  186.9600  177.6070  141.6990 C   0  0  0  0  0  0  0  0  0  0  0  0
  189.6740  177.7920  146.1490 C   0  0  0  0  0  0  0  0  0  0  0  0
  188.3600  178.6740  139.4840 C   0  0  1  0  0  3  0  0  0  0  0  0
  186.3880  177.5870  142.9290 N   0  0  0  0  0  0  0  0  0  0  0  0
  191.0120  177.6010  143.7140 C   0  0  0  0  0  3  0  0  0  0  0  0
  186.2480  177.8930  140.4990 N   0  0  0  0  0  2  0  0  0  0  0  0
  190.0920  177.6920  137.9140 N   0  0  0  0  0  2  0  0  0  0  0  0
  186.9920  177.9870  139.2400 C   0  0  1  0  0  3  0  0  0  0  0  0
  190.3360  176.6350  138.8500 C   0  0  0  0  0  0  0  0  0  0  0  0
  187.4540  177.4590  143.7490 C   0  0  1  0  0  3  0  0  0  0  0  0
  188.6050  177.4970  143.0220 C   0  0  2  0  0  3  0  0  0  0  0  0
  191.6920  177.3110  144.9110 C   0  0  0  0  0  3  0  0  0  0  0  0
  189.1700  177.9530  140.5970 C   0  0  2  0  0  3  0  0  0  0  0  0
  189.0560  179.7250  137.4440 O   0  0  0  0  0  0  0  0  0  0  0  0
  189.6980  178.0740  143.7840 C   0  0  0  0  0  0  0  0  0  0  0  0
  189.1190  178.3480  145.0200 C   0  0  0  0  0  0  0  0  0  0  0  0
  187.6460  178.1280  145.0720 C   0  0  2  0  0  3  0  0  0  0  0  0
  189.8630  176.7120  140.0960 C   0  0  0  0  0  3  0  0  0  0  0  0
  188.3070  177.6140  141.7250 N   0  0  0  0  0  0  0  0  0  0  0  0
  187.5280  177.2420  146.2310 N   0  0  0  0  0  0  0  0  0  0  0  0
  189.1850  178.7500  138.2300 C   0  0  0  0  0  0  0  0  0  0  0  0
  188.6410  177.1030  146.8430 N   0  0  0  0  0  0  0  0  0  0  0  0
  191.0180  177.3720  146.1470 C   0  0  0  0  0  0  0  0  0  0  0  0
  192.4290  175.6310  147.3690 C   0  0  0  0  0  0  0  0  0  0  0  0
  192.4320  174.8230  146.3990 O   0  0  0  0  0  0  0  0  0  0  0  0
  191.6590  176.8360  147.3120 N   0  0  0  0  0  2  0  0  0  0  0  0
  193.1480  175.3410  148.5290 O   0  0  0  0  0  0  0  0  0  0  0  0
  193.5120  176.3520  149.4580 C   0  0  0  0  0  1  0  0  0  0  0  0
  186.2040  178.7280  138.2620 N   0  0  0  0  0  0  0  0  0  0  0  0
  186.0980  177.8790  137.0640 C   0  0  0  0  0  2  0  0  0  0  0  0
  184.9820  177.9490  137.9930 C   0  0  0  0  0  2  0  0  0  0  0  0
  191.0510  175.4090  138.4080 C   0  0  0  0  0  2  0  0  0  0  0  0
  190.1680  174.5940  137.5920 N   0  0  0  0  0  1  0  0  0  0  0  0
  1 19  1  0  0  0  0
  1  4  2  0  0  0  0
  2 22  1  0  0  0  0
  3 21  1  6  0  0  0
  3 13  1  0  0  0  0
  5 15  2  0  0  0  0
  5 12  1  0  0  0  0
  6  1  1  0  0  0  0
  7 21  1  0  0  0  0
  7  9  1  0  0  0  0
  8 29  1  6  0  0  0
  8  3  1  0  0  0  0
  8  6  1  0  0  0  0
  9 18  2  0  0  0  0
 10  4  1  6  0  0  0
 10 17  1  0  0  0  0
 11 10  1  0  0  0  0
 11 15  1  1  0  0  0
 12 23  2  0  0  0  0
 13 18  1  6  0  0  0
 13 19  1  0  0  0  0
 14 21  2  0  0  0  0
 15 16  1  0  0  0  0
 16  2  2  0  0  0  0
 17 16  1  6  0  0  0
 17 20  1  0  0  0  0
 19 11  1  0  0  0  0
 20 22  2  0  0  0  0
 23  2  1  0  0  0  0
 23 26  1  0  0  0  0
 24 27  1  0  0  0  0
 25 24  2  0  0  0  0
 26 24  1  0  0  0  0
 27 28  1  0  0  0  0
 30 31  1  0  0  0  0
 30 29  1  0  0  0  0
 31 29  1  0  0  0  0
 32  9  1  0  0  0  0
 33 32  1  0  0  0  0
M  END
>  <MODEL>
4

>  <REMARK>
 VINA RESULT:      -8.0      4.049      5.682
  Name = 
  4 active torsions:
  status: ('A' for Active; 'I' for Inactive)
    1  A    between atoms: C_2  and  O_25
    2  A    between atoms: C_6  and  C_11
    3  A    between atoms: C_10  and  N_13
    4  A    between atoms: N_24  and  C_32
                            x       y       z     vdW  Elec       q    Type
                         _______ _______ _______ _____ _____    ______ ____

>  <TORSDO>
F 4

$$$$
=
 OpenBabel10222417573D

 33 39  0  0  1  0  0  0  0  0999 V2000
  186.7720  178.5420  140.4670 C   0  0  0  0  0  0  0  0  0  0  0  0
  189.8040  176.4520  136.7740 C   0  0  0  0  0  0  0  0  0  0  0  0
  187.0990  177.3360  143.0050 C   0  0  1  0  0  3  0  0  0  0  0  0
  186.4990  178.6160  139.1400 N   0  0  0  0  0  0  0  0  0  0  0  0
  190.6310  176.4170  139.4340 C   0  0  0  0  0  3  0  0  0  0  0  0
  185.8140  178.8010  141.4880 N   0  0  0  0  0  2  0  0  0  0  0  0
  188.7880  177.6820  144.8640 N   0  0  0  0  0  2  0  0  0  0  0  0
  186.1960  178.5900  142.8870 C   0  0  1  0  0  3  0  0  0  0  0  0
  189.6580  178.3540  143.9450 C   0  0  0  0  0  0  0  0  0  0  0  0
  187.6240  178.1220  138.5790 C   0  0  1  0  0  3  0  0  0  0  0  0
  188.4770  177.6920  139.5500 C   0  0  2  0  0  3  0  0  0  0  0  0
  191.5640  176.1770  138.4070 C   0  0  0  0  0  3  0  0  0  0  0  0
  188.3320  177.4310  142.0640 C   0  0  2  0  0  3  0  0  0  0  0  0
  186.8560  176.4300  145.2120 O   0  0  0  0  0  0  0  0  0  0  0  0
  189.2830  176.5750  139.0950 C   0  0  0  0  0  0  0  0  0  0  0  0
  188.8680  176.3930  137.7790 C   0  0  0  0  0  0  0  0  0  0  0  0
  187.7040  177.2330  137.3790 C   0  0  2  0  0  3  0  0  0  0  0  0
  189.4280  178.2960  142.6310 C   0  0  0  0  0  3  0  0  0  0  0  0
  187.9400  177.9320  140.7500 N   0  0  0  0  0  0  0  0  0  0  0  0
  188.2200  177.8790  136.1700 N   0  0  0  0  0  0  0  0  0  0  0  0
  187.5610  177.1040  144.4170 C   0  0  0  0  0  0  0  0  0  0  0  0
  189.3530  177.4070  135.8210 N   0  0  0  0  0  0  0  0  0  0  0  0
  191.1650  176.2240  137.0570 C   0  0  0  0  0  0  0  0  0  0  0  0
  193.5720  176.4510  136.2380 C   0  0  0  0  0  0  0  0  0  0  0  0
  194.0020  176.8820  137.3440 O   0  0  0  0  0  0  0  0  0  0  0  0
  192.1730  176.2220  136.0370 N   0  0  0  0  0  2  0  0  0  0  0  0
  194.4530  176.2280  135.1780 O   0  0  0  0  0  0  0  0  0  0  0  0
  195.4010  177.2040  134.7730 C   0  0  0  0  0  1  0  0  0  0  0  0
  184.9960  178.4460  143.7040 N   0  0  0  0  0  0  0  0  0  0  0  0
  185.1710  179.3140  144.8810 C   0  0  0  0  0  2  0  0  0  0  0  0
  184.3450  179.7660  143.7750 C   0  0  0  0  0  2  0  0  0  0  0  0
  190.7770  179.1860  144.4610 C   0  0  0  0  0  2  0  0  0  0  0  0
  192.0360  178.7020  143.9240 N   0  0  0  0  0  1  0  0  0  0  0  0
  1 19  1  0  0  0  0
  1  6  1  0  0  0  0
  2 23  2  0  0  0  0
  2 16  1  0  0  0  0
  3 21  1  1  0  0  0
  4  1  2  0  0  0  0
  6  8  1  0  0  0  0
  8  3  1  0  0  0  0
  8 29  1  1  0  0  0
  9 32  1  0  0  0  0
  9  7  1  0  0  0  0
 10  4  1  1  0  0  0
 10 11  1  0  0  0  0
 11 15  1  6  0  0  0
 11 19  1  0  0  0  0
 12  5  2  0  0  0  0
 13 18  1  1  0  0  0
 13  3  1  0  0  0  0
 15  5  1  0  0  0  0
 16 15  2  0  0  0  0
 17 20  1  6  0  0  0
 17 16  1  0  0  0  0
 17 10  1  0  0  0  0
 18  9  2  0  0  0  0
 19 13  1  0  0  0  0
 21  7  1  0  0  0  0
 21 14  2  0  0  0  0
 22 20  2  0  0  0  0
 22  2  1  0  0  0  0
 23 12  1  0  0  0  0
 24 25  2  0  0  0  0
 26 24  1  0  0  0  0
 26 23  1  0  0  0  0
 27 24  1  0  0  0  0
 28 27  1  0  0  0  0
 29 31  1  0  0  0  0
 29 30  1  0  0  0  0
 31 30  1  0  0  0  0
 33 32  1  0  0  0  0
M  END
>  <MODEL>
5

>  <REMARK>
 VINA RESULT:      -7.9      5.556      8.476
  Name = 
  4 active torsions:
  status: ('A' for Active; 'I' for Inactive)
    1  A    between atoms: C_2  and  O_25
    2  A    between atoms: C_6  and  C_11
    3  A    between atoms: C_10  and  N_13
    4  A    between atoms: N_24  and  C_32
                            x       y       z     vdW  Elec       q    Type
                         _______ _______ _______ _____ _____    ______ ____

>  <TORSDO>
F 4

$$$$
=
 OpenBabel10222417573D

 33 39  0  0  1  0  0  0  0  0999 V2000
  190.1590  177.4740  139.0210 C   0  0  0  0  0  0  0  0  0  0  0  0
  190.0890  176.8900  144.2040 C   0  0  0  0  0  0  0  0  0  0  0  0
  187.9050  176.3480  137.7330 C   0  0  1  0  0  3  0  0  0  0  0  0
  191.2720  177.5100  139.7960 N   0  0  0  0  0  0  0  0  0  0  0  0
  187.6930  177.0290  142.7890 C   0  0  0  0  0  3  0  0  0  0  0  0
  190.1830  177.2950  137.6080 N   0  0  0  0  0  2  0  0  0  0  0  0
  185.5560  177.2090  137.3220 N   0  0  0  0  0  2  0  0  0  0  0  0
  188.9120  177.1700  136.8890 C   0  0  1  0  0  3  0  0  0  0  0  0
  185.7500  178.2080  138.3310 C   0  0  0  0  0  0  0  0  0  0  0  0
  190.7620  177.5100  141.0470 C   0  0  1  0  0  3  0  0  0  0  0  0
  189.4060  177.3840  140.9940 C   0  0  2  0  0  3  0  0  0  0  0  0
  187.6950  177.2150  144.1840 C   0  0  0  0  0  3  0  0  0  0  0  0
  187.7240  176.9540  139.1520 C   0  0  2  0  0  3  0  0  0  0  0  0
  186.3440  175.3000  136.2440 O   0  0  0  0  0  0  0  0  0  0  0  0
  188.8910  176.6820  142.1550 C   0  0  0  0  0  0  0  0  0  0  0  0
  190.0320  176.4260  142.9100 C   0  0  0  0  0  0  0  0  0  0  0  0
  191.3110  176.7840  142.2330 C   0  0  2  0  0  3  0  0  0  0  0  0
  186.7920  178.1370  139.1630 C   0  0  0  0  0  3  0  0  0  0  0  0
  189.0130  177.3380  139.7180 N   0  0  0  0  0  0  0  0  0  0  0  0
  191.9390  177.6400  143.2400 N   0  0  0  0  0  0  0  0  0  0  0  0
  186.5660  176.2330  137.0600 C   0  0  0  0  0  0  0  0  0  0  0  0
  191.2830  177.6520  144.3350 N   0  0  0  0  0  0  0  0  0  0  0  0
  188.9040  177.1800  144.9070 C   0  0  0  0  0  0  0  0  0  0  0  0
  187.7630  177.7010  147.1300 C   0  0  0  0  0  0  0  0  0  0  0  0
  186.5970  177.5820  146.6610 O   0  0  0  0  0  0  0  0  0  0  0  0
  188.9070  177.6150  146.2730 N   0  0  0  0  0  2  0  0  0  0  0  0
  187.9530  177.9590  148.4880 O   0  0  0  0  0  0  0  0  0  0  0  0
  189.2130  178.3580  149.0060 C   0  0  0  0  0  1  0  0  0  0  0  0
  189.1450  176.5390  135.5950 N   0  0  0  0  0  0  0  0  0  0  0  0
  188.4070  177.3280  134.5940 C   0  0  0  0  0  2  0  0  0  0  0  0
  189.8410  177.5180  134.7410 C   0  0  0  0  0  2  0  0  0  0  0  0
  184.8290  179.3730  138.4010 C   0  0  0  0  0  2  0  0  0  0  0  0
  184.5830  179.7200  139.7890 N   0  0  0  0  0  1  0  0  0  0  0  0
  1 19  1  0  0  0  0
  1  4  2  0  0  0  0
  2 22  1  0  0  0  0
  2 23  1  0  0  0  0
  3 21  1  6  0  0  0
  3 13  1  0  0  0  0
  5 12  1  0  0  0  0
  6  1  1  0  0  0  0
  7  9  1  0  0  0  0
  8 29  1  6  0  0  0
  8  6  1  0  0  0  0
  8  3  1  0  0  0  0
  9 32  1  0  0  0  0
  9 18  2  0  0  0  0
 10  4  1  6  0  0  0
 10 17  1  0  0  0  0
 11 10  1  0  0  0  0
 11 15  1  1  0  0  0
 12 23  2  0  0  0  0
 13 18  1  6  0  0  0
 13 19  1  0  0  0  0
 14 21  2  0  0  0  0
 15  5  2  0  0  0  0
 15 16  1  0  0  0  0
 16  2  2  0  0  0  0
 17 16  1  1  0  0  0
 17 20  1  0  0  0  0
 19 11  1  0  0  0  0
 20 22  2  0  0  0  0
 21  7  1  0  0  0  0
 23 26  1  0  0  0  0
 24 27  1  0  0  0  0
 25 24  2  0  0  0  0
 26 24  1  0  0  0  0
 27 28  1  0  0  0  0
 30 31  1  0  0  0  0
 30 29  1  0  0  0  0
 31 29  1  0  0  0  0
 32 33  1  0  0  0  0
M  END
>  <MODEL>
6

>  <REMARK>
 VINA RESULT:      -7.7      4.382      6.684
  Name = 
  4 active torsions:
  status: ('A' for Active; 'I' for Inactive)
    1  A    between atoms: C_2  and  O_25
    2  A    between atoms: C_6  and  C_11
    3  A    between atoms: C_10  and  N_13
    4  A    between atoms: N_24  and  C_32
                            x       y       z     vdW  Elec       q    Type
                         _______ _______ _______ _____ _____    ______ ____

>  <TORSDO>
F 4

$$$$
=
 OpenBabel10222417573D

 33 39  0  0  1  0  0  0  0  0999 V2000
  185.0210  178.6740  139.9260 C   0  0  0  0  0  0  0  0  0  0  0  0
  188.4270  177.6460  143.7400 C   0  0  0  0  0  0  0  0  0  0  0  0
  182.4950  177.4620  140.3180 C   0  0  1  0  0  3  0  0  0  0  0  0
  186.3670  178.7450  139.7710 N   0  0  0  0  0  0  0  0  0  0  0  0
  185.6970  177.6860  144.2900 C   0  0  0  0  0  3  0  0  0  0  0  0
  184.1010  178.6200  138.8410 N   0  0  0  0  0  2  0  0  0  0  0  0
  180.4600  178.1370  141.6710 N   0  0  0  0  0  2  0  0  0  0  0  0
  182.6750  178.4410  139.1310 C   0  0  1  0  0  3  0  0  0  0  0  0
  181.2650  179.0600  142.4150 C   0  0  0  0  0  0  0  0  0  0  0  0
  186.8190  178.5920  141.0340 C   0  0  1  0  0  3  0  0  0  0  0  0
  185.7750  178.3480  141.8740 C   0  0  2  0  0  3  0  0  0  0  0  0
  186.6250  177.7530  145.3460 C   0  0  0  0  0  3  0  0  0  0  0  0
  183.2980  177.9250  141.5650 C   0  0  2  0  0  3  0  0  0  0  0  0
  180.3510  176.4070  140.1140 O   0  0  0  0  0  0  0  0  0  0  0  0
  186.1720  177.5050  142.9870 C   0  0  0  0  0  0  0  0  0  0  0  0
  187.5280  177.2910  142.7610 C   0  0  0  0  0  0  0  0  0  0  0  0
  188.0270  177.8200  141.4610 C   0  0  2  0  0  3  0  0  0  0  0  0
  182.5970  179.0140  142.3350 C   0  0  0  0  0  3  0  0  0  0  0  0
  184.6330  178.3750  141.1810 N   0  0  0  0  0  0  0  0  0  0  0  0
  189.1570  178.6410  141.8990 N   0  0  0  0  0  0  0  0  0  0  0  0
  181.0500  177.2830  140.6880 C   0  0  0  0  0  0  0  0  0  0  0  0
  189.3970  178.5000  143.1450 N   0  0  0  0  0  0  0  0  0  0  0  0
  188.0080  177.7660  145.0790 C   0  0  0  0  0  0  0  0  0  0  0  0
  189.1070  177.3160  147.3390 C   0  0  0  0  0  0  0  0  0  0  0  0
  188.3160  176.3780  147.6370 O   0  0  0  0  0  0  0  0  0  0  0  0
  188.9150  178.0810  146.1440 N   0  0  0  0  0  2  0  0  0  0  0  0
  190.1610  177.6470  148.1920 O   0  0  0  0  0  0  0  0  0  0  0  0
  191.4670  177.1220  148.0090 C   0  0  0  0  0  1  0  0  0  0  0  0
  181.9940  177.9470  137.9390 N   0  0  0  0  0  0  0  0  0  0  0  0
  180.7680  178.7480  137.7820 C   0  0  0  0  0  2  0  0  0  0  0  0
  181.9330  179.0540  136.9690 C   0  0  0  0  0  2  0  0  0  0  0  0
  180.6110  180.1260  143.2190 C   0  0  0  0  0  2  0  0  0  0  0  0
  179.6810  180.8670  142.3860 N   0  0  0  0  0  1  0  0  0  0  0  0
  1 19  1  0  0  0  0
  2 23  1  0  0  0  0
  3 21  1  1  0  0  0
  3 13  1  0  0  0  0
  4  1  2  0  0  0  0
  5 12  1  0  0  0  0
  6  8  1  0  0  0  0
  6  1  1  0  0  0  0
  7  9  1  0  0  0  0
  8 29  1  6  0  0  0
  8  3  1  0  0  0  0
  9 32  1  0  0  0  0
 10  4  1  6  0  0  0
 10 17  1  0  0  0  0
 10 11  1  0  0  0  0
 11 15  1  6  0  0  0
 13 18  1  6  0  0  0
 14 21  2  0  0  0  0
 15  5  2  0  0  0  0
 16 15  1  0  0  0  0
 16  2  2  0  0  0  0
 17 20  1  1  0  0  0
 17 16  1  0  0  0  0
 18  9  2  0  0  0  0
 19 13  1  0  0  0  0
 19 11  1  0  0  0  0
 20 22  2  0  0  0  0
 21  7  1  0  0  0  0
 22  2  1  0  0  0  0
 23 12  2  0  0  0  0
 23 26  1  0  0  0  0
 24 25  2  0  0  0  0
 24 27  1  0  0  0  0
 26 24  1  0  0  0  0
 28 27  1  0  0  0  0
 30 29  1  0  0  0  0
 31 30  1  0  0  0  0
 31 29  1  0  0  0  0
 33 32  1  0  0  0  0
M  END
>  <MODEL>
7

>  <REMARK>
 VINA RESULT:      -7.6      2.268      3.983
  Name = 
  4 active torsions:
  status: ('A' for Active; 'I' for Inactive)
    1  A    between atoms: C_2  and  O_25
    2  A    between atoms: C_6  and  C_11
    3  A    between atoms: C_10  and  N_13
    4  A    between atoms: N_24  and  C_32
                            x       y       z     vdW  Elec       q    Type
                         _______ _______ _______ _____ _____    ______ ____

>  <TORSDO>
F 4

$$$$
=
 OpenBabel10222417573D

 33 39  0  0  1  0  0  0  0  0999 V2000
  189.3540  177.7250  146.6130 C   0  0  0  0  0  0  0  0  0  0  0  0
  184.4560  178.2690  144.9060 C   0  0  0  0  0  0  0  0  0  0  0  0
  190.8780  175.8910  145.0900 C   0  0  1  0  0  3  0  0  0  0  0  0
  188.3320  178.1640  147.3900 N   0  0  0  0  0  0  0  0  0  0  0  0
  186.4810  177.5820  143.1200 C   0  0  0  0  0  3  0  0  0  0  0  0
  190.5960  177.2560  147.1290 N   0  0  0  0  0  2  0  0  0  0  0  0
  192.1640  176.1190  142.9170 N   0  0  0  0  0  2  0  0  0  0  0  0
  191.5880  176.7090  146.1990 C   0  0  1  0  0  3  0  0  0  0  0  0
  191.4550  177.3290  142.6270 C   0  0  0  0  0  0  0  0  0  0  0  0
  187.3310  178.3240  146.4980 C   0  0  1  0  0  3  0  0  0  0  0  0
  187.7340  177.9020  145.2670 C   0  0  2  0  0  3  0  0  0  0  0  0
  185.2500  178.0610  142.6330 C   0  0  0  0  0  3  0  0  0  0  0  0
  189.7920  176.7350  144.3670 C   0  0  2  0  0  3  0  0  0  0  0  0
  192.4090  174.2380  144.2690 O   0  0  0  0  0  0  0  0  0  0  0  0
  186.6250  177.3720  144.4960 C   0  0  0  0  0  0  0  0  0  0  0  0
  185.5340  177.5360  145.3450 C   0  0  0  0  0  0  0  0  0  0  0  0
  185.8850  178.0050  146.7150 C   0  0  2  0  0  3  0  0  0  0  0  0
  190.3720  177.6650  143.3330 C   0  0  0  0  0  3  0  0  0  0  0  0
  189.0060  177.4990  145.3310 N   0  0  0  0  0  0  0  0  0  0  0  0
  185.0130  179.1730  146.8510 N   0  0  0  0  0  0  0  0  0  0  0  0
  191.8500  175.3490  144.0790 C   0  0  0  0  0  0  0  0  0  0  0  0
  184.1990  179.2790  145.8730 N   0  0  0  0  0  0  0  0  0  0  0  0
  184.2290  178.4420  143.5270 C   0  0  0  0  0  0  0  0  0  0  0  0
  182.3060  178.7730  141.8810 C   0  0  0  0  0  0  0  0  0  0  0  0
  182.6960  177.8580  141.1040 O   0  0  0  0  0  0  0  0  0  0  0  0
  183.0920  179.1500  143.0160 N   0  0  0  0  0  2  0  0  0  0  0  0
  181.1180  179.4580  141.6230 O   0  0  0  0  0  0  0  0  0  0  0  0
  180.1740  179.7340  142.6470 C   0  0  0  0  0  1  0  0  0  0  0  0
  192.5380  175.8790  146.9310 N   0  0  0  0  0  0  0  0  0  0  0  0
  192.4490  176.2730  148.3480 C   0  0  0  0  0  2  0  0  0  0  0  0
  191.7710  175.0700  147.8950 C   0  0  0  0  0  2  0  0  0  0  0  0
  191.9720  178.2570  141.5870 C   0  0  0  0  0  2  0  0  0  0  0  0
  192.2790  177.5140  140.3770 N   0  0  0  0  0  1  0  0  0  0  0  0
  1  6  1  0  0  0  0
  1  4  2  0  0  0  0
  2 16  1  0  0  0  0
  2 22  1  0  0  0  0
  3 21  1  6  0  0  0
  3  8  1  0  0  0  0
  5 15  1  0  0  0  0
  7 21  1  0  0  0  0
  8 29  1  1  0  0  0
  8  6  1  0  0  0  0
  9  7  1  0  0  0  0
  9 18  2  0  0  0  0
 10 17  1  0  0  0  0
 10  4  1  1  0  0  0
 11 15  1  1  0  0  0
 11 19  1  0  0  0  0
 11 10  1  0  0  0  0
 12  5  2  0  0  0  0
 12 23  1  0  0  0  0
 13 18  1  6  0  0  0
 13  3  1  0  0  0  0
 13 19  1  0  0  0  0
 15 16  2  0  0  0  0
 17 16  1  6  0  0  0
 17 20  1  0  0  0  0
 19  1  1  0  0  0  0
 21 14  2  0  0  0  0
 22 20  2  0  0  0  0
 23  2  2  0  0  0  0
 24 26  1  0  0  0  0
 25 24  2  0  0  0  0
 26 23  1  0  0  0  0
 27 24  1  0  0  0  0
 27 28  1  0  0  0  0
 29 31  1  0  0  0  0
 29 30  1  0  0  0  0
 31 30  1  0  0  0  0
 32  9  1  0  0  0  0
 33 32  1  0  0  0  0
M  END
>  <MODEL>
8

>  <REMARK>
 VINA RESULT:      -7.6      2.882      9.120
  Name = 
  4 active torsions:
  status: ('A' for Active; 'I' for Inactive)
    1  A    between atoms: C_2  and  O_25
    2  A    between atoms: C_6  and  C_11
    3  A    between atoms: C_10  and  N_13
    4  A    between atoms: N_24  and  C_32
                            x       y       z     vdW  Elec       q    Type
                         _______ _______ _______ _____ _____    ______ ____

>  <TORSDO>
F 4

$$$$
=
 OpenBabel10222417573D

 33 39  0  0  1  0  0  0  0  0999 V2000
  194.3830  172.7540  136.3220 C   0  0  0  0  0  0  0  0  0  0  0  0
  190.2160  175.6620  137.5000 C   0  0  0  0  0  0  0  0  0  0  0  0
  196.7680  174.2560  136.0770 C   0  0  1  0  0  3  0  0  0  0  0  0
  193.1060  172.3780  136.0600 N   0  0  0  0  0  0  0  0  0  0  0  0
  192.7520  176.4720  138.3210 C   0  0  0  0  0  3  0  0  0  0  0  0
  195.5250  172.1520  135.7210 N   0  0  0  0  0  2  0  0  0  0  0  0
  198.4390  175.1110  137.7810 N   0  0  0  0  0  2  0  0  0  0  0  0
  196.8500  172.7100  136.0030 C   0  0  1  0  0  3  0  0  0  0  0  0
  197.4780  174.9040  138.8230 C   0  0  0  0  0  0  0  0  0  0  0  0
  192.3820  173.3240  136.6970 C   0  0  1  0  0  3  0  0  0  0  0  0
  193.2130  174.2640  137.2280 C   0  0  2  0  0  3  0  0  0  0  0  0
  191.6090  177.0450  138.9100 C   0  0  0  0  0  3  0  0  0  0  0  0
  195.7000  174.7210  137.1050 C   0  0  2  0  0  3  0  0  0  0  0  0
  198.9140  175.1580  135.5010 O   0  0  0  0  0  0  0  0  0  0  0  0
  192.5850  175.5720  137.2630 C   0  0  0  0  0  0  0  0  0  0  0  0
  191.3160  175.3340  136.7420 C   0  0  0  0  0  0  0  0  0  0  0  0
  191.1170  173.9570  136.2100 C   0  0  2  0  0  3  0  0  0  0  0  0
  196.1990  174.6630  138.5260 C   0  0  0  0  0  3  0  0  0  0  0  0
  194.4820  173.9270  136.9780 N   0  0  0  0  0  0  0  0  0  0  0  0
  189.9090  173.5440  136.9250 N   0  0  0  0  0  0  0  0  0  0  0  0
  198.0950  174.8760  136.4140 C   0  0  0  0  0  0  0  0  0  0  0  0
  189.3970  174.5030  137.5940 N   0  0  0  0  0  0  0  0  0  0  0  0
  190.3210  176.6210  138.5270 C   0  0  0  0  0  0  0  0  0  0  0  0
  188.5400  178.3080  139.2330 C   0  0  0  0  0  0  0  0  0  0  0  0
  189.0560  179.2580  138.5820 O   0  0  0  0  0  0  0  0  0  0  0  0
  189.1950  177.0360  139.3100 N   0  0  0  0  0  2  0  0  0  0  0  0
  187.3410  178.4940  139.9220 O   0  0  0  0  0  0  0  0  0  0  0  0
  187.3010  178.6280  141.3350 C   0  0  0  0  0  1  0  0  0  0  0  0
  197.7880  172.2870  134.9690 N   0  0  0  0  0  0  0  0  0  0  0  0
  198.9230  171.6460  135.6550 C   0  0  0  0  0  2  0  0  0  0  0  0
  197.8970  170.8190  135.0410 C   0  0  0  0  0  2  0  0  0  0  0  0
  197.9220  174.8780  140.2420 C   0  0  0  0  0  2  0  0  0  0  0  0
  197.3050  175.9740  140.9680 N   0  0  0  0  0  1  0  0  0  0  0  0
  1 19  1  0  0  0  0
  2 22  1  0  0  0  0
  2 23  1  0  0  0  0
  3 21  1  1  0  0  0
  3 13  1  0  0  0  0
  4  1  2  0  0  0  0
  5 12  1  0  0  0  0
  6  8  1  0  0  0  0
  6  1  1  0  0  0  0
  7  9  1  0  0  0  0
  8 29  1  6  0  0  0
  8  3  1  0  0  0  0
  9 32  1  0  0  0  0
 10  4  1  6  0  0  0
 10 11  1  0  0  0  0
 11 15  1  6  0  0  0
 13 18  1  1  0  0  0
 14 21  2  0  0  0  0
 15  5  2  0  0  0  0
 16 15  1  0  0  0  0
 16  2  2  0  0  0  0
 17 10  1  0  0  0  0
 17 16  1  1  0  0  0
 17 20  1  0  0  0  0
 18  9  2  0  0  0  0
 19 13  1  0  0  0  0
 19 11  1  0  0  0  0
 20 22  2  0  0  0  0
 21  7  1  0  0  0  0
 23 12  2  0  0  0  0
 23 26  1  0  0  0  0
 24 26  1  0  0  0  0
 24 27  1  0  0  0  0
 25 24  2  0  0  0  0
 27 28  1  0  0  0  0
 29 31  1  0  0  0  0
 29 30  1  0  0  0  0
 31 30  1  0  0  0  0
 32 33  1  0  0  0  0
M  END
>  <MODEL>
9

>  <REMARK>
 VINA RESULT:      -6.9      9.923     13.713
  Name = 
  4 active torsions:
  status: ('A' for Active; 'I' for Inactive)
    1  A    between atoms: C_2  and  O_25
    2  A    between atoms: C_6  and  C_11
    3  A    between atoms: C_10  and  N_13
    4  A    between atoms: N_24  and  C_32
                            x       y       z     vdW  Elec       q    Type
                         _______ _______ _______ _____ _____    ______ ____

>  <TORSDO>
F 4

$$$$
