=
 OpenBabel10222418373D

 66 73  0  0  1  0  0  0  0  0999 V2000
  186.7490  178.0920  143.3280 C   0  0  2  0  0  3  0  0  0  0  0  0
  185.4920  178.3000  144.1550 C   0  0  0  0  0  0  0  0  0  0  0  0
  185.3480  178.8180  141.3750 C   0  0  0  0  0  3  0  0  0  0  0  0
  186.5530  178.4860  141.8650 C   0  0  0  0  0  0  0  0  0  0  0  0
  184.1970  178.6160  143.5110 C   0  0  0  0  0  0  0  0  0  0  0  0
  185.5660  178.2520  145.4140 O   0  0  0  0  0  0  0  0  0  0  0  0
  184.1500  178.8540  142.2080 C   0  0  0  0  0  3  0  0  0  0  0  0
  187.5960  178.1850  139.6850 C   0  0  0  0  0  3  0  0  0  0  0  0
  188.8570  179.2310  141.3860 O   0  0  0  0  0  1  0  0  0  0  0  0
  187.6950  178.5990  140.9500 C   0  0  0  0  0  0  0  0  0  0  0  0
  188.7160  178.3300  138.7140 C   0  0  0  0  0  2  0  0  0  0  0  0
  186.9720  176.4140  135.9410 C   0  0  0  0  0  3  0  0  0  0  0  0
  188.0620  175.8810  135.2440 C   0  0  0  0  0  3  0  0  0  0  0  0
  189.3770  176.1490  135.6750 C   0  0  0  0  0  0  0  0  0  0  0  0
  188.4940  177.4660  137.5180 C   0  0  0  0  0  0  0  0  0  0  0  0
  189.5910  176.9410  136.8160 C   0  0  0  0  0  3  0  0  0  0  0  0
  187.1850  177.2100  137.0750 C   0  0  0  0  0  3  0  0  0  0  0  0
  190.5560  175.6450  134.8850 C   0  0  0  0  0  2  0  0  0  0  0  0
  192.9640  172.3530  136.0590 C   0  0  0  0  0  0  0  0  0  0  0  0
  195.4680  172.7310  137.2600 C   0  0  0  0  0  0  0  0  0  0  0  0
  191.2200  174.4980  135.5250 N   0  0  0  0  0  0  0  0  0  0  0  0
  192.6080  174.8600  135.9250 C   0  0  1  0  0  3  0  0  0  0  0  0
  191.2590  173.3590  134.5960 C   0  0  0  0  0  2  0  0  0  0  0  0
  193.3950  173.6570  136.3890 C   0  0  0  0  0  0  0  0  0  0  0  0
  193.7580  171.2540  136.3890 C   0  0  0  0  0  3  0  0  0  0  0  0
  196.8220  172.9370  137.8260 C   0  0  0  0  0  1  0  0  0  0  0  0
  191.6560  172.1250  135.3840 C   0  0  0  0  0  2  0  0  0  0  0  0
  194.6580  173.8380  136.9700 C   0  0  0  0  0  3  0  0  0  0  0  0
  195.0160  171.4410  136.9770 C   0  0  0  0  0  3  0  0  0  0  0  0
  194.2210  176.5500  135.1630 C   0  0  0  0  0  2  0  0  0  0  0  0
  193.3790  175.5710  134.8320 C   0  0  0  0  0  3  0  0  0  0  0  0
  188.6080  176.3370  143.9280 C   0  0  1  0  0  3  0  0  0  0  0  0
  187.2320  176.6250  143.4080 C   0  0  2  0  0  3  0  0  0  0  0  0
  188.3500  176.4860  142.5540 O   0  0  0  0  0  0  0  0  0  0  0  0
  189.3820  177.5360  144.4850 C   0  0  1  0  0  3  0  0  0  0  0  0
  189.7690  177.1820  145.9170 C   0  0  0  0  0  2  0  0  0  0  0  0
  190.9710  176.9890  142.6950 O   0  0  0  0  0  1  0  0  0  0  0  0
  191.8110  177.7650  144.7760 C   0  0  0  0  0  2  0  0  0  0  0  0
  191.2160  177.1970  145.9600 N   0  0  0  0  0  0  0  0  0  0  0  0
  191.9550  176.2800  146.7560 C   0  0  0  0  0  3  0  0  0  0  0  0
  191.4000  175.6410  147.6890 O   0  0  0  0  0  0  0  0  0  0  0  0
  190.6950  177.8680  143.7470 C   0  0  2  0  0  3  0  0  0  0  0  0
  182.9710  178.8650  144.3290 C   0  0  0  0  0  2  0  0  0  0  0  0
  181.7600  178.3650  143.5600 C   0  0  0  0  0  2  0  0  0  0  0  0
  180.6280  179.3650  143.6560 C   0  0  0  0  0  2  0  0  0  0  0  0
  179.5610  178.9830  142.6420 C   0  0  0  0  0  2  0  0  0  0  0  0
  180.0980  179.1620  141.2300 C   0  0  0  0  0  2  0  0  0  0  0  0
  178.9850  177.0080  140.5290 C   0  0  0  0  0  1  0  0  0  0  0  0
  181.2350  177.5960  139.6560 C   0  0  0  0  0  0  0  0  0  0  0  0
  182.2030  176.9070  140.0620 O   0  0  0  0  0  0  0  0  0  0  0  0
  180.1520  177.8800  140.5370 N   0  0  0  0  0  0  0  0  0  0  0  0
  181.1410  178.0010  138.2160 C   0  0  1  0  0  3  0  0  0  0  0  0
  180.1710  178.9940  138.0550 O   0  0  0  0  0  1  0  0  0  0  0  0
  183.2660  179.1610  138.5070 O   0  0  0  0  0  1  0  0  0  0  0  0
  182.4720  178.4530  137.5870 C   0  0  1  0  0  3  0  0  0  0  0  0
  183.2190  177.2490  137.0140 C   0  0  0  0  0  2  0  0  0  0  0  0
  182.7690  174.7960  136.7570 C   0  0  0  0  0  0  0  0  0  0  0  0
  182.0870  173.9020  136.1760 O   0  0  0  0  0  0  0  0  0  0  0  0
  184.0300  174.4670  137.3570 N   0  0  0  0  0  2  0  0  0  0  0  0
  182.3030  176.1460  136.7580 N   0  0  0  0  0  2  0  0  0  0  0  0
  185.5440  173.0390  136.1200 C   0  0  1  0  0  3  0  0  0  0  0  0
  184.6010  173.1330  137.2720 C   0  0  1  0  0  0  0  0  0  0  0  0
  186.0840  172.9530  137.5350 C   0  0  0  0  0  2  0  0  0  0  0  0
  185.2460  171.6620  135.5700 C   0  0  0  0  0  2  0  0  0  0  0  0
  183.6620  171.9590  137.1430 C   0  0  0  0  0  2  0  0  0  0  0  0
  183.9390  171.2910  135.9320 O   0  0  0  0  0  0  0  0  0  0  0  0
  1  4  1  6  0  0  0
  1 33  1  0  0  0  0
  1  2  1  0  0  0  0
  2  6  2  0  0  0  0
  3  4  2  0  0  0  0
  3  7  1  0  0  0  0
  5  2  1  0  0  0  0
  5 43  1  0  0  0  0
  7  5  2  0  0  0  0
  8 10  2  0  0  0  0
 10  9  1  0  0  0  0
 10  4  1  0  0  0  0
 11  8  1  0  0  0  0
 12 17  1  0  0  0  0
 13 14  1  0  0  0  0
 13 12  2  0  0  0  0
 14 16  2  0  0  0  0
 15 11  1  0  0  0  0
 16 15  1  0  0  0  0
 17 15  2  0  0  0  0
 18 21  1  0  0  0  0
 18 14  1  0  0  0  0
 19 24  2  0  0  0  0
 19 25  1  0  0  0  0
 20 26  1  0  0  0  0
 21 22  1  0  0  0  0
 22 31  1  6  0  0  0
 22 24  1  0  0  0  0
 23 27  1  0  0  0  0
 23 21  1  0  0  0  0
 24 28  1  0  0  0  0
 25 29  2  0  0  0  0
 27 19  1  0  0  0  0
 28 20  2  0  0  0  0
 29 20  1  0  0  0  0
 31 30  2  0  0  0  0
 32 34  1  6  0  0  0
 32 35  1  0  0  0  0
 33 34  1  6  0  0  0
 33 32  1  0  0  0  0
 35 36  1  1  0  0  0
 36 39  1  0  0  0  0
 38 39  1  0  0  0  0
 39 40  1  0  0  0  0
 40 41  2  0  0  0  0
 42 37  1  6  0  0  0
 42 35  1  0  0  0  0
 42 38  1  0  0  0  0
 44 45  1  0  0  0  0
 44 43  1  0  0  0  0
 46 45  1  0  0  0  0
 47 46  1  0  0  0  0
 48 51  1  0  0  0  0
 49 50  2  0  0  0  0
 49 51  1  0  0  0  0
 51 47  1  0  0  0  0
 52 53  1  1  0  0  0
 52 49  1  0  0  0  0
 55 52  1  0  0  0  0
 55 54  1  1  0  0  0
 56 55  1  0  0  0  0
 57 60  1  0  0  0  0
 57 59  1  0  0  0  0
 58 57  2  0  0  0  0
 60 56  1  0  0  0  0
 61 64  1  6  0  0  0
 61 62  1  0  0  0  0
 61 63  1  0  0  0  0
 62 59  1  1  0  0  0
 62 63  1  0  0  0  0
 64 66  1  0  0  0  0
 65 62  1  0  0  0  0
 66 65  1  0  0  0  0
M  END
>  <MODEL>
1

>  <REMARK>
 VINA RESULT:      -7.9      0.000      0.000
  Name = 
  19 active torsions:
  status: ('A' for Active; 'I' for Inactive)
    1  A    between atoms: C_4  and  C_36
    2  A    between atoms: N_7  and  C_29
    3  A    between atoms: C_8  and  C_33
    4  A    between atoms: C_10  and  N_57
    5  A    between atoms: C_13  and  C_16
    6  A    between atoms: C_13  and  C_52
    7  A    between atoms: C_15  and  C_52
    8  A    between atoms: C_15  and  N_64
    9  A    between atoms: C_17  and  C_25
   10  A    between atoms: C_18  and  C_27
   11  A    between atoms: C_21  and  C_38
   12  A    between atoms: C_21  and  N_58
   13  A    between atoms: C_22  and  C_23
   14  A    between atoms: C_29  and  C_32
   15  A    between atoms: C_33  and  C_42
   16  A    between atoms: C_34  and  C_46
   17  A    between atoms: C_34  and  C_51
   18  A    between atoms: C_38  and  C_51
   19  A    between atoms: C_46  and  C_53
                            x       y       z     vdW  Elec       q    Type
                         _______ _______ _______ _____ _____    ______ ____

>  <TORSDO>
F 19

$$$$
=
 OpenBabel10222418373D

 66 73  0  0  1  0  0  0  0  0999 V2000
  186.7770  178.1910  143.3210 C   0  0  2  0  0  3  0  0  0  0  0  0
  185.4470  178.4380  144.0100 C   0  0  0  0  0  0  0  0  0  0  0  0
  185.6170  178.9590  141.2320 C   0  0  0  0  0  3  0  0  0  0  0  0
  186.7520  178.5910  141.8460 C   0  0  0  0  0  0  0  0  0  0  0  0
  184.2380  178.7930  143.2320 C   0  0  0  0  0  0  0  0  0  0  0  0
  185.3840  178.3880  145.2690 O   0  0  0  0  0  0  0  0  0  0  0  0
  184.3380  179.0320  141.9320 C   0  0  0  0  0  3  0  0  0  0  0  0
  188.0270  178.2060  139.8080 C   0  0  0  0  0  3  0  0  0  0  0  0
  189.0980  179.3170  141.5970 O   0  0  0  0  0  1  0  0  0  0  0  0
  187.9880  178.6680  141.0590 C   0  0  0  0  0  0  0  0  0  0  0  0
  189.2480  178.3140  138.9610 C   0  0  0  0  0  2  0  0  0  0  0  0
  187.4680  177.9340  135.6310 C   0  0  0  0  0  3  0  0  0  0  0  0
  188.4050  177.1960  134.8990 C   0  0  0  0  0  3  0  0  0  0  0  0
  189.6290  176.8210  135.4890 C   0  0  0  0  0  0  0  0  0  0  0  0
  188.9540  177.9090  137.5560 C   0  0  0  0  0  0  0  0  0  0  0  0
  189.9000  177.1760  136.8210 C   0  0  0  0  0  3  0  0  0  0  0  0
  187.7410  178.2960  136.9570 C   0  0  0  0  0  3  0  0  0  0  0  0
  190.6740  176.0950  134.6840 C   0  0  0  0  0  2  0  0  0  0  0  0
  192.9210  172.8010  136.1350 C   0  0  0  0  0  0  0  0  0  0  0  0
  195.4480  173.1540  137.2950 C   0  0  0  0  0  0  0  0  0  0  0  0
  191.2840  174.9760  135.4200 N   0  0  0  0  0  0  0  0  0  0  0  0
  192.6900  175.3010  135.7840 C   0  0  1  0  0  3  0  0  0  0  0  0
  191.2590  173.7600  134.5940 C   0  0  0  0  0  2  0  0  0  0  0  0
  193.4190  174.1040  136.3500 C   0  0  0  0  0  0  0  0  0  0  0  0
  193.6610  171.6950  136.5590 C   0  0  0  0  0  3  0  0  0  0  0  0
  196.8140  173.3410  137.8380 C   0  0  0  0  0  1  0  0  0  0  0  0
  191.5980  172.5800  135.4860 C   0  0  0  0  0  2  0  0  0  0  0  0
  194.6920  174.2720  136.9100 C   0  0  0  0  0  3  0  0  0  0  0  0
  194.9300  171.8690  137.1260 C   0  0  0  0  0  3  0  0  0  0  0  0
  194.5050  176.6960  134.8920 C   0  0  0  0  0  2  0  0  0  0  0  0
  193.4890  175.8740  134.6320 C   0  0  0  0  0  3  0  0  0  0  0  0
  188.5620  176.3860  143.9930 C   0  0  1  0  0  3  0  0  0  0  0  0
  187.2040  176.7110  143.4480 C   0  0  2  0  0  3  0  0  0  0  0  0
  188.3260  176.5060  142.6130 O   0  0  0  0  0  0  0  0  0  0  0  0
  189.3740  177.5700  144.5270 C   0  0  1  0  0  3  0  0  0  0  0  0
  189.7860  177.2140  145.9510 C   0  0  0  0  0  2  0  0  0  0  0  0
  190.9100  176.9830  142.7040 O   0  0  0  0  0  1  0  0  0  0  0  0
  191.8130  177.7500  144.7620 C   0  0  0  0  0  2  0  0  0  0  0  0
  191.2340  177.2000  145.9610 N   0  0  0  0  0  0  0  0  0  0  0  0
  191.9710  176.2700  146.7450 C   0  0  0  0  0  3  0  0  0  0  0  0
  191.4240  175.6470  147.6930 O   0  0  0  0  0  0  0  0  0  0  0  0
  190.6760  177.8720  143.7570 C   0  0  2  0  0  3  0  0  0  0  0  0
  182.9390  179.0800  143.9140 C   0  0  0  0  0  2  0  0  0  0  0  0
  181.8380  178.2980  143.2190 C   0  0  0  0  0  2  0  0  0  0  0  0
  180.5430  179.0810  143.2460 C   0  0  0  0  0  2  0  0  0  0  0  0
  179.4850  178.2860  142.4960 C   0  0  0  0  0  2  0  0  0  0  0  0
  179.7530  178.3460  141.0000 C   0  0  0  0  0  2  0  0  0  0  0  0
  179.2480  175.8910  140.7080 C   0  0  0  0  0  1  0  0  0  0  0  0
  181.2100  176.9080  139.5750 C   0  0  0  0  0  0  0  0  0  0  0  0
  182.3470  176.5740  139.9920 O   0  0  0  0  0  0  0  0  0  0  0  0
  180.1290  177.0310  140.4940 N   0  0  0  0  0  0  0  0  0  0  0  0
  180.9480  177.0380  138.1050 C   0  0  1  0  0  3  0  0  0  0  0  0
  179.7540  177.7300  137.8860 O   0  0  0  0  0  1  0  0  0  0  0  0
  182.5190  176.8600  136.2490 O   0  0  0  0  0  1  0  0  0  0  0  0
  182.0910  177.6860  137.3030 C   0  0  1  0  0  3  0  0  0  0  0  0
  181.6620  179.0630  136.7940 C   0  0  0  0  0  2  0  0  0  0  0  0
  181.2600  181.3830  137.6550 C   0  0  0  0  0  0  0  0  0  0  0  0
  181.6700  182.3180  138.4020 O   0  0  0  0  0  0  0  0  0  0  0  0
  180.3540  181.6630  136.5790 N   0  0  0  0  0  2  0  0  0  0  0  0
  181.7530  180.0570  137.8550 N   0  0  0  0  0  2  0  0  0  0  0  0
  181.0990  183.9310  136.1740 C   0  0  1  0  0  3  0  0  0  0  0  0
  179.9250  183.0150  136.2620 C   0  0  1  0  0  0  0  0  0  0  0  0
  180.3060  183.6090  134.9200 C   0  0  0  0  0  2  0  0  0  0  0  0
  180.5790  185.1870  136.8350 C   0  0  0  0  0  2  0  0  0  0  0  0
  178.9380  183.6860  137.1840 C   0  0  0  0  0  2  0  0  0  0  0  0
  179.5330  184.8510  137.7110 O   0  0  0  0  0  0  0  0  0  0  0  0
  1  4  1  6  0  0  0
  1 33  1  0  0  0  0
  1  2  1  0  0  0  0
  2  6  2  0  0  0  0
  3  4  2  0  0  0  0
  3  7  1  0  0  0  0
  5 43  1  0  0  0  0
  5  2  1  0  0  0  0
  7  5  2  0  0  0  0
  8 10  2  0  0  0  0
 10  9  1  0  0  0  0
 10  4  1  0  0  0  0
 11  8  1  0  0  0  0
 12 17  1  0  0  0  0
 13 14  1  0  0  0  0
 13 12  2  0  0  0  0
 14 16  2  0  0  0  0
 15 11  1  0  0  0  0
 16 15  1  0  0  0  0
 17 15  2  0  0  0  0
 18 21  1  0  0  0  0
 18 14  1  0  0  0  0
 19 24  2  0  0  0  0
 19 25  1  0  0  0  0
 20 26  1  0  0  0  0
 21 22  1  0  0  0  0
 22 31  1  6  0  0  0
 22 24  1  0  0  0  0
 23 21  1  0  0  0  0
 23 27  1  0  0  0  0
 24 28  1  0  0  0  0
 25 29  2  0  0  0  0
 27 19  1  0  0  0  0
 28 20  2  0  0  0  0
 29 20  1  0  0  0  0
 31 30  2  0  0  0  0
 32 34  1  6  0  0  0
 32 35  1  0  0  0  0
 33 34  1  6  0  0  0
 33 32  1  0  0  0  0
 35 36  1  1  0  0  0
 36 39  1  0  0  0  0
 38 39  1  0  0  0  0
 39 40  1  0  0  0  0
 40 41  2  0  0  0  0
 42 37  1  6  0  0  0
 42 35  1  0  0  0  0
 42 38  1  0  0  0  0
 44 45  1  0  0  0  0
 44 43  1  0  0  0  0
 46 45  1  0  0  0  0
 47 46  1  0  0  0  0
 49 50  2  0  0  0  0
 49 51  1  0  0  0  0
 51 48  1  0  0  0  0
 51 47  1  0  0  0  0
 52 53  1  1  0  0  0
 52 49  1  0  0  0  0
 55 54  1  6  0  0  0
 55 52  1  0  0  0  0
 56 55  1  0  0  0  0
 56 60  1  0  0  0  0
 57 60  1  0  0  0  0
 57 58  2  0  0  0  0
 59 57  1  0  0  0  0
 61 63  1  6  0  0  0
 61 62  1  0  0  0  0
 61 64  1  0  0  0  0
 62 59  1  1  0  0  0
 62 65  1  0  0  0  0
 63 62  1  0  0  0  0
 64 66  1  0  0  0  0
 65 66  1  0  0  0  0
M  END
>  <MODEL>
2

>  <REMARK>
 VINA RESULT:      -7.6      2.206      4.311
  Name = 
  19 active torsions:
  status: ('A' for Active; 'I' for Inactive)
    1  A    between atoms: C_4  and  C_36
    2  A    between atoms: N_7  and  C_29
    3  A    between atoms: C_8  and  C_33
    4  A    between atoms: C_10  and  N_57
    5  A    between atoms: C_13  and  C_16
    6  A    between atoms: C_13  and  C_52
    7  A    between atoms: C_15  and  C_52
    8  A    between atoms: C_15  and  N_64
    9  A    between atoms: C_17  and  C_25
   10  A    between atoms: C_18  and  C_27
   11  A    between atoms: C_21  and  C_38
   12  A    between atoms: C_21  and  N_58
   13  A    between atoms: C_22  and  C_23
   14  A    between atoms: C_29  and  C_32
   15  A    between atoms: C_33  and  C_42
   16  A    between atoms: C_34  and  C_46
   17  A    between atoms: C_34  and  C_51
   18  A    between atoms: C_38  and  C_51
   19  A    between atoms: C_46  and  C_53
                            x       y       z     vdW  Elec       q    Type
                         _______ _______ _______ _____ _____    ______ ____

>  <TORSDO>
F 19

$$$$
=
 OpenBabel10222418373D

 66 73  0  0  1  0  0  0  0  0999 V2000
  189.0130  177.4360  142.5740 C   0  0  2  0  0  3  0  0  0  0  0  0
  189.8310  177.0030  141.3700 C   0  0  0  0  0  0  0  0  0  0  0  0
  187.2520  178.0760  140.9030 C   0  0  0  0  0  3  0  0  0  0  0  0
  187.6150  177.9160  142.1860 C   0  0  0  0  0  0  0  0  0  0  0  0
  189.3620  177.2720  139.9910 C   0  0  0  0  0  0  0  0  0  0  0  0
  190.9020  176.3610  141.5480 O   0  0  0  0  0  0  0  0  0  0  0  0
  188.1510  177.7750  139.7940 C   0  0  0  0  0  3  0  0  0  0  0  0
  185.6560  179.0910  143.0290 C   0  0  0  0  0  3  0  0  0  0  0  0
  186.5170  177.3020  144.3080 O   0  0  0  0  0  1  0  0  0  0  0  0
  186.5820  178.1450  143.2020 C   0  0  0  0  0  0  0  0  0  0  0  0
  184.5620  179.3170  144.0130 C   0  0  0  0  0  2  0  0  0  0  0  0
  180.8350  178.7030  143.6490 C   0  0  0  0  0  3  0  0  0  0  0  0
  180.7190  178.5140  142.2670 C   0  0  0  0  0  3  0  0  0  0  0  0
  181.8600  178.5910  141.4430 C   0  0  0  0  0  0  0  0  0  0  0  0
  183.2320  179.0230  143.4030 C   0  0  0  0  0  0  0  0  0  0  0  0
  183.1190  178.8430  142.0150 C   0  0  0  0  0  3  0  0  0  0  0  0
  182.0880  178.9610  144.2190 C   0  0  0  0  0  3  0  0  0  0  0  0
  181.7320  178.4670  139.9480 C   0  0  0  0  0  2  0  0  0  0  0  0
  181.6720  174.7580  137.8880 C   0  0  0  0  0  0  0  0  0  0  0  0
  184.0430  173.4660  137.1370 C   0  0  0  0  0  0  0  0  0  0  0  0
  181.6700  177.0680  139.4970 N   0  0  0  0  0  0  0  0  0  0  0  0
  182.9920  176.6360  138.9640 C   0  0  1  0  0  3  0  0  0  0  0  0
  180.6490  176.9250  138.4490 C   0  0  0  0  0  2  0  0  0  0  0  0
  182.9170  175.2830  138.2960 C   0  0  0  0  0  0  0  0  0  0  0  0
  181.6240  173.5630  137.1670 C   0  0  0  0  0  3  0  0  0  0  0  0
  185.2980  172.8260  136.6770 C   0  0  0  0  0  1  0  0  0  0  0  0
  180.3960  175.4440  138.2390 C   0  0  0  0  0  2  0  0  0  0  0  0
  184.0990  174.6430  137.8970 C   0  0  0  0  0  3  0  0  0  0  0  0
  182.8080  172.9230  136.7790 C   0  0  0  0  0  3  0  0  0  0  0  0
  183.9800  177.2240  136.7930 C   0  0  0  0  0  2  0  0  0  0  0  0
  183.6050  177.6350  138.0040 C   0  0  0  0  0  3  0  0  0  0  0  0
  190.0430  178.3230  144.8210 C   0  0  1  0  0  3  0  0  0  0  0  0
  189.7380  178.5450  143.3700 C   0  0  2  0  0  3  0  0  0  0  0  0
  188.8740  178.9790  144.4010 O   0  0  0  0  0  0  0  0  0  0  0  0
  189.7350  176.9250  145.3670 C   0  0  1  0  0  3  0  0  0  0  0  0
  191.0700  176.3020  145.7600 C   0  0  0  0  0  2  0  0  0  0  0  0
  188.4970  178.1710  147.0830 O   0  0  0  0  0  1  0  0  0  0  0  0
  189.6610  176.2000  147.7140 C   0  0  0  0  0  2  0  0  0  0  0  0
  190.9920  176.0430  147.1830 N   0  0  0  0  0  0  0  0  0  0  0  0
  192.1190  176.1870  148.0360 C   0  0  0  0  0  3  0  0  0  0  0  0
  193.2860  176.2290  147.5640 O   0  0  0  0  0  0  0  0  0  0  0  0
  188.8500  176.8960  146.6300 C   0  0  2  0  0  3  0  0  0  0  0  0
  190.1450  176.8050  138.8060 C   0  0  0  0  0  2  0  0  0  0  0  0
  189.9900  177.8210  137.6870 C   0  0  0  0  0  2  0  0  0  0  0  0
  188.6840  177.5960  136.9540 C   0  0  0  0  0  2  0  0  0  0  0  0
  188.9960  177.3250  135.4900 C   0  0  0  0  0  2  0  0  0  0  0  0
  190.1630  176.3570  135.3780 C   0  0  0  0  0  2  0  0  0  0  0  0
  188.4590  174.5970  134.7710 C   0  0  0  0  0  1  0  0  0  0  0  0
  190.5560  173.9570  135.9380 C   0  0  0  0  0  0  0  0  0  0  0  0
  190.4520  173.5770  137.1310 O   0  0  0  0  0  0  0  0  0  0  0  0
  189.6920  174.9780  135.4460 N   0  0  0  0  0  0  0  0  0  0  0  0
  191.4790  173.2520  134.9930 C   0  0  1  0  0  3  0  0  0  0  0  0
  192.7160  173.9010  134.9500 O   0  0  0  0  0  1  0  0  0  0  0  0
  190.7430  170.9610  134.5940 O   0  0  0  0  0  1  0  0  0  0  0  0
  191.6770  171.7530  135.2860 C   0  0  1  0  0  3  0  0  0  0  0  0
  193.1120  171.3380  134.9590 C   0  0  0  0  0  2  0  0  0  0  0  0
  194.6980  170.9780  136.8670 C   0  0  0  0  0  0  0  0  0  0  0  0
  195.4150  170.1510  137.5020 O   0  0  0  0  0  0  0  0  0  0  0  0
  194.9650  172.3840  136.9560 N   0  0  0  0  0  2  0  0  0  0  0  0
  193.6600  170.4950  136.0130 N   0  0  0  0  0  2  0  0  0  0  0  0
  196.1660  174.3930  137.5740 C   0  0  1  0  0  3  0  0  0  0  0  0
  196.0880  172.9100  137.7140 C   0  0  1  0  0  0  0  0  0  0  0  0
  195.8100  173.7880  138.9200 C   0  0  0  0  0  2  0  0  0  0  0  0
  197.6550  174.6300  137.4630 C   0  0  0  0  0  2  0  0  0  0  0  0
  197.4690  172.3870  137.4050 C   0  0  0  0  0  2  0  0  0  0  0  0
  198.2750  173.4640  136.9820 O   0  0  0  0  0  0  0  0  0  0  0  0
  1  2  1  6  0  0  0
  1 33  1  0  0  0  0
  2  6  2  0  0  0  0
  3  4  2  0  0  0  0
  4  1  1  0  0  0  0
  4 10  1  0  0  0  0
  5  2  1  0  0  0  0
  7  5  2  0  0  0  0
  7  3  1  0  0  0  0
  8 10  2  0  0  0  0
  8 11  1  0  0  0  0
 10  9  1  0  0  0  0
 12 17  1  0  0  0  0
 13 12  2  0  0  0  0
 14 16  2  0  0  0  0
 14 13  1  0  0  0  0
 15 11  1  0  0  0  0
 15 17  2  0  0  0  0
 16 15  1  0  0  0  0
 18 14  1  0  0  0  0
 19 27  1  0  0  0  0
 19 24  1  0  0  0  0
 20 28  1  0  0  0  0
 21 18  1  0  0  0  0
 22 31  1  6  0  0  0
 22 21  1  0  0  0  0
 23 21  1  0  0  0  0
 24 22  1  0  0  0  0
 25 19  2  0  0  0  0
 26 20  1  0  0  0  0
 27 23  1  0  0  0  0
 28 24  2  0  0  0  0
 29 20  2  0  0  0  0
 29 25  1  0  0  0  0
 30 31  2  0  0  0  0
 32 34  1  1  0  0  0
 32 35  1  0  0  0  0
 33 34  1  1  0  0  0
 33 32  1  0  0  0  0
 35 36  1  1  0  0  0
 35 42  1  0  0  0  0
 36 39  1  0  0  0  0
 39 38  1  0  0  0  0
 39 40  1  0  0  0  0
 41 40  2  0  0  0  0
 42 37  1  1  0  0  0
 42 38  1  0  0  0  0
 43  5  1  0  0  0  0
 44 43  1  0  0  0  0
 45 44  1  0  0  0  0
 46 45  1  0  0  0  0
 47 51  1  0  0  0  0
 47 46  1  0  0  0  0
 48 51  1  0  0  0  0
 49 50  2  0  0  0  0
 51 49  1  0  0  0  0
 52 53  1  1  0  0  0
 52 55  1  0  0  0  0
 52 49  1  0  0  0  0
 55 54  1  6  0  0  0
 56 55  1  0  0  0  0
 56 60  1  0  0  0  0
 57 59  1  0  0  0  0
 57 58  2  0  0  0  0
 60 57  1  0  0  0  0
 61 64  1  1  0  0  0
 61 62  1  0  0  0  0
 61 63  1  0  0  0  0
 62 59  1  6  0  0  0
 62 63  1  0  0  0  0
 65 62  1  0  0  0  0
 66 65  1  0  0  0  0
 66 64  1  0  0  0  0
M  END
>  <MODEL>
3

>  <REMARK>
 VINA RESULT:      -6.6      2.840      9.506
  Name = 
  19 active torsions:
  status: ('A' for Active; 'I' for Inactive)
    1  A    between atoms: C_4  and  C_36
    2  A    between atoms: N_7  and  C_29
    3  A    between atoms: C_8  and  C_33
    4  A    between atoms: C_10  and  N_57
    5  A    between atoms: C_13  and  C_16
    6  A    between atoms: C_13  and  C_52
    7  A    between atoms: C_15  and  C_52
    8  A    between atoms: C_15  and  N_64
    9  A    between atoms: C_17  and  C_25
   10  A    between atoms: C_18  and  C_27
   11  A    between atoms: C_21  and  C_38
   12  A    between atoms: C_21  and  N_58
   13  A    between atoms: C_22  and  C_23
   14  A    between atoms: C_29  and  C_32
   15  A    between atoms: C_33  and  C_42
   16  A    between atoms: C_34  and  C_46
   17  A    between atoms: C_34  and  C_51
   18  A    between atoms: C_38  and  C_51
   19  A    between atoms: C_46  and  C_53
                            x       y       z     vdW  Elec       q    Type
                         _______ _______ _______ _____ _____    ______ ____

>  <TORSDO>
F 19

$$$$
=
 OpenBabel10222418373D

 66 73  0  0  1  0  0  0  0  0999 V2000
  189.1290  175.0880  136.5220 C   0  0  2  0  0  3  0  0  0  0  0  0
  189.2480  176.5170  137.0220 C   0  0  0  0  0  0  0  0  0  0  0  0
  186.6670  175.3570  136.9300 C   0  0  0  0  0  3  0  0  0  0  0  0
  187.6770  174.6180  136.4450 C   0  0  0  0  0  0  0  0  0  0  0  0
  188.0790  177.2290  137.5850 C   0  0  0  0  0  0  0  0  0  0  0  0
  190.3500  177.1220  136.9100 O   0  0  0  0  0  0  0  0  0  0  0  0
  186.8780  176.6690  137.5330 C   0  0  0  0  0  3  0  0  0  0  0  0
  186.3010  172.6250  136.1980 C   0  0  0  0  0  3  0  0  0  0  0  0
  187.9900  173.0160  134.5940 O   0  0  0  0  0  1  0  0  0  0  0  0
  187.3180  173.3700  135.7620 C   0  0  0  0  0  0  0  0  0  0  0  0
  185.8750  171.3800  135.5000 C   0  0  0  0  0  2  0  0  0  0  0  0
  182.4340  169.7800  135.5840 C   0  0  0  0  0  3  0  0  0  0  0  0
  181.6100  170.9030  135.7140 C   0  0  0  0  0  3  0  0  0  0  0  0
  182.1740  172.1930  135.7790 C   0  0  0  0  0  0  0  0  0  0  0  0
  184.3920  171.2210  135.5590 C   0  0  0  0  0  0  0  0  0  0  0  0
  183.5680  172.3500  135.6980 C   0  0  0  0  0  3  0  0  0  0  0  0
  183.8250  169.9350  135.5110 C   0  0  0  0  0  3  0  0  0  0  0  0
  181.3000  173.3990  135.9970 C   0  0  0  0  0  2  0  0  0  0  0  0
  182.6490  176.9180  137.9470 C   0  0  0  0  0  0  0  0  0  0  0  0
  181.3330  177.9340  140.2030 C   0  0  0  0  0  0  0  0  0  0  0  0
  181.9590  174.4420  136.7980 N   0  0  0  0  0  0  0  0  0  0  0  0
  181.0220  174.9770  137.8250 C   0  0  1  0  0  3  0  0  0  0  0  0
  182.4070  175.5370  135.9240 C   0  0  0  0  0  2  0  0  0  0  0  0
  181.5840  176.1930  138.5240 C   0  0  0  0  0  0  0  0  0  0  0  0
  183.0840  178.1050  138.5390 C   0  0  0  0  0  3  0  0  0  0  0  0
  180.5890  178.5060  141.3500 C   0  0  0  0  0  1  0  0  0  0  0  0
  183.3420  176.4240  136.7240 C   0  0  0  0  0  2  0  0  0  0  0  0
  180.9180  176.7190  139.6390 C   0  0  0  0  0  3  0  0  0  0  0  0
  182.4190  178.6220  139.6590 C   0  0  0  0  0  3  0  0  0  0  0  0
  179.4160  176.5420  136.8200 C   0  0  0  0  0  2  0  0  0  0  0  0
  179.6530  175.3090  137.2690 C   0  0  0  0  0  3  0  0  0  0  0  0
  191.3700  173.8300  137.0630 C   0  0  1  0  0  3  0  0  0  0  0  0
  189.9400  174.1170  137.4110 C   0  0  2  0  0  3  0  0  0  0  0  0
  190.3180  173.0110  136.6170 O   0  0  0  0  0  0  0  0  0  0  0  0
  191.9620  174.6540  135.9160 C   0  0  1  0  0  3  0  0  0  0  0  0
  193.1490  175.4180  136.4910 C   0  0  0  0  0  2  0  0  0  0  0  0
  192.3850  172.4500  134.9190 O   0  0  0  0  0  1  0  0  0  0  0  0
  193.9800  174.1800  134.5960 C   0  0  0  0  0  2  0  0  0  0  0  0
  194.3130  174.9690  135.7550 N   0  0  0  0  0  0  0  0  0  0  0  0
  195.5830  174.8190  136.3760 C   0  0  0  0  0  3  0  0  0  0  0  0
  195.8300  175.3650  137.4840 O   0  0  0  0  0  0  0  0  0  0  0  0
  192.5050  173.8300  134.7300 C   0  0  2  0  0  3  0  0  0  0  0  0
  188.1860  178.6510  138.0360 C   0  0  0  0  0  2  0  0  0  0  0  0
  188.8860  178.6850  139.3830 C   0  0  0  0  0  2  0  0  0  0  0  0
  187.9830  178.1150  140.4570 C   0  0  0  0  0  2  0  0  0  0  0  0
  187.4290  179.2670  141.2810 C   0  0  0  0  0  2  0  0  0  0  0  0
  187.5890  178.9680  142.7640 C   0  0  0  0  0  2  0  0  0  0  0  0
  187.0660  176.6520  143.6210 C   0  0  0  0  0  1  0  0  0  0  0  0
  185.2670  178.3550  143.4400 C   0  0  0  0  0  0  0  0  0  0  0  0
  184.3940  178.1720  142.5550 O   0  0  0  0  0  0  0  0  0  0  0  0
  186.6160  177.9690  143.1910 N   0  0  0  0  0  0  0  0  0  0  0  0
  184.8770  178.8430  144.8020 C   0  0  1  0  0  3  0  0  0  0  0  0
  183.8620  178.0410  145.3310 O   0  0  0  0  0  1  0  0  0  0  0  0
  185.6290  179.5290  147.0180 O   0  0  0  0  0  1  0  0  0  0  0  0
  186.0420  178.9520  145.8040 C   0  0  1  0  0  3  0  0  0  0  0  0
  186.6760  177.5790  146.0250 C   0  0  0  0  0  2  0  0  0  0  0  0
  189.1220  177.5890  146.5760 C   0  0  0  0  0  0  0  0  0  0  0  0
  190.0170  177.2800  147.4160 O   0  0  0  0  0  0  0  0  0  0  0  0
  189.4660  177.8050  145.2000 N   0  0  0  0  0  2  0  0  0  0  0  0
  187.7590  177.6600  146.9960 N   0  0  0  0  0  2  0  0  0  0  0  0
  190.9660  178.2210  143.3460 C   0  0  1  0  0  3  0  0  0  0  0  0
  190.8200  177.6220  144.7050 C   0  0  1  0  0  0  0  0  0  0  0  0
  191.7030  178.8420  144.5190 C   0  0  0  0  0  2  0  0  0  0  0  0
  191.8350  177.2060  142.6380 C   0  0  0  0  0  2  0  0  0  0  0  0
  191.3620  176.2180  144.6050 C   0  0  0  0  0  2  0  0  0  0  0  0
  191.6840  175.9540  143.2580 O   0  0  0  0  0  0  0  0  0  0  0  0
  1  4  1  1  0  0  0
  1  2  1  0  0  0  0
  1 33  1  0  0  0  0
  2  5  1  0  0  0  0
  3  7  1  0  0  0  0
  4  3  2  0  0  0  0
  5 43  1  0  0  0  0
  6  2  2  0  0  0  0
  7  5  2  0  0  0  0
  9 10  1  0  0  0  0
 10  8  2  0  0  0  0
 10  4  1  0  0  0  0
 11 15  1  0  0  0  0
 11  8  1  0  0  0  0
 12 13  1  0  0  0  0
 13 14  2  0  0  0  0
 14 18  1  0  0  0  0
 15 16  2  0  0  0  0
 16 14  1  0  0  0  0
 17 15  1  0  0  0  0
 17 12  2  0  0  0  0
 18 21  1  0  0  0  0
 19 24  2  0  0  0  0
 19 25  1  0  0  0  0
 20 26  1  0  0  0  0
 21 22  1  0  0  0  0
 22 31  1  6  0  0  0
 22 24  1  0  0  0  0
 23 27  1  0  0  0  0
 23 21  1  0  0  0  0
 24 28  1  0  0  0  0
 25 29  2  0  0  0  0
 27 19  1  0  0  0  0
 28 20  2  0  0  0  0
 29 20  1  0  0  0  0
 30 31  2  0  0  0  0
 32 34  1  6  0  0  0
 32 33  1  0  0  0  0
 33 34  1  6  0  0  0
 35 36  1  1  0  0  0
 35 32  1  0  0  0  0
 38 42  1  0  0  0  0
 38 39  1  0  0  0  0
 39 40  1  0  0  0  0
 39 36  1  0  0  0  0
 40 41  2  0  0  0  0
 42 37  1  1  0  0  0
 42 35  1  0  0  0  0
 43 44  1  0  0  0  0
 44 45  1  0  0  0  0
 45 46  1  0  0  0  0
 46 47  1  0  0  0  0
 47 51  1  0  0  0  0
 49 52  1  0  0  0  0
 50 49  2  0  0  0  0
 51 49  1  0  0  0  0
 51 48  1  0  0  0  0
 52 53  1  1  0  0  0
 52 55  1  0  0  0  0
 55 56  1  0  0  0  0
 55 54  1  1  0  0  0
 56 60  1  0  0  0  0
 57 60  1  0  0  0  0
 57 58  2  0  0  0  0
 59 57  1  0  0  0  0
 61 64  1  6  0  0  0
 61 63  1  0  0  0  0
 61 62  1  0  0  0  0
 62 59  1  1  0  0  0
 63 62  1  0  0  0  0
 64 66  1  0  0  0  0
 65 62  1  0  0  0  0
 66 65  1  0  0  0  0
M  END
>  <MODEL>
4

>  <REMARK>
 VINA RESULT:      -5.8      2.539      9.964
  Name = 
  19 active torsions:
  status: ('A' for Active; 'I' for Inactive)
    1  A    between atoms: C_4  and  C_36
    2  A    between atoms: N_7  and  C_29
    3  A    between atoms: C_8  and  C_33
    4  A    between atoms: C_10  and  N_57
    5  A    between atoms: C_13  and  C_16
    6  A    between atoms: C_13  and  C_52
    7  A    between atoms: C_15  and  C_52
    8  A    between atoms: C_15  and  N_64
    9  A    between atoms: C_17  and  C_25
   10  A    between atoms: C_18  and  C_27
   11  A    between atoms: C_21  and  C_38
   12  A    between atoms: C_21  and  N_58
   13  A    between atoms: C_22  and  C_23
   14  A    between atoms: C_29  and  C_32
   15  A    between atoms: C_33  and  C_42
   16  A    between atoms: C_34  and  C_46
   17  A    between atoms: C_34  and  C_51
   18  A    between atoms: C_38  and  C_51
   19  A    between atoms: C_46  and  C_53
                            x       y       z     vdW  Elec       q    Type
                         _______ _______ _______ _____ _____    ______ ____

>  <TORSDO>
F 19

$$$$
=
 OpenBabel10222418373D

 66 73  0  0  1  0  0  0  0  0999 V2000
  191.4540  175.9140  138.1060 C   0  0  2  0  0  3  0  0  0  0  0  0
  190.6020  175.5780  136.8940 C   0  0  0  0  0  0  0  0  0  0  0  0
  189.4230  177.1160  138.9590 C   0  0  0  0  0  3  0  0  0  0  0  0
  190.6710  176.6730  139.1760 C   0  0  0  0  0  0  0  0  0  0  0  0
  189.2520  176.1610  136.7260 C   0  0  0  0  0  0  0  0  0  0  0  0
  191.0340  174.7520  136.0440 O   0  0  0  0  0  0  0  0  0  0  0  0
  188.7170  176.8790  137.7040 C   0  0  0  0  0  3  0  0  0  0  0  0
  191.7090  178.0670  140.8800 C   0  0  0  0  0  3  0  0  0  0  0  0
  191.1520  175.8440  141.4500 O   0  0  0  0  0  1  0  0  0  0  0  0
  191.2240  176.8780  140.5190 C   0  0  0  0  0  0  0  0  0  0  0  0
  192.2310  178.3270  142.2510 C   0  0  0  0  0  2  0  0  0  0  0  0
  190.8060  176.0340  144.9180 C   0  0  0  0  0  3  0  0  0  0  0  0
  189.6240  176.7030  145.2560 C   0  0  0  0  0  3  0  0  0  0  0  0
  189.2870  177.9130  144.6170 C   0  0  0  0  0  0  0  0  0  0  0  0
  191.3140  177.7600  143.2830 C   0  0  0  0  0  0  0  0  0  0  0  0
  190.1340  178.4380  143.6260 C   0  0  0  0  0  3  0  0  0  0  0  0
  191.6540  176.5610  143.9360 C   0  0  0  0  0  3  0  0  0  0  0  0
  188.0580  178.6780  145.0300 C   0  0  0  0  0  2  0  0  0  0  0  0
  184.8580  178.1880  142.2860 C   0  0  0  0  0  0  0  0  0  0  0  0
  182.2440  178.9600  142.9380 C   0  0  0  0  0  0  0  0  0  0  0  0
  187.0490  178.7530  143.9620 N   0  0  0  0  0  0  0  0  0  0  0  0
  185.6980  178.9880  144.5410 C   0  0  1  0  0  3  0  0  0  0  0  0
  187.0420  177.5010  143.1910 C   0  0  0  0  0  2  0  0  0  0  0  0
  184.6070  178.8580  143.5030 C   0  0  0  0  0  0  0  0  0  0  0  0
  183.8150  177.9700  141.3840 C   0  0  0  0  0  3  0  0  0  0  0  0
  180.8530  179.3010  143.3180 C   0  0  0  0  0  1  0  0  0  0  0  0
  186.2310  177.7310  141.9290 C   0  0  0  0  0  2  0  0  0  0  0  0
  183.2940  179.2210  143.8310 C   0  0  0  0  0  3  0  0  0  0  0  0
  182.5060  178.3430  141.7140 C   0  0  0  0  0  3  0  0  0  0  0  0
  185.6320  178.5080  146.9500 C   0  0  0  0  0  2  0  0  0  0  0  0
  185.3830  178.0800  145.7120 C   0  0  0  0  0  3  0  0  0  0  0  0
  194.0560  176.0970  137.8020 C   0  0  1  0  0  3  0  0  0  0  0  0
  192.7020  176.7310  137.7010 C   0  0  2  0  0  3  0  0  0  0  0  0
  193.5220  176.8740  138.8430 O   0  0  0  0  0  0  0  0  0  0  0  0
  194.0770  174.6090  138.1670 C   0  0  1  0  0  3  0  0  0  0  0  0
  194.1590  173.8360  136.8550 C   0  0  0  0  0  2  0  0  0  0  0  0
  196.1800  175.1980  139.2890 O   0  0  0  0  0  1  0  0  0  0  0  0
  196.0070  173.0890  138.2110 C   0  0  0  0  0  2  0  0  0  0  0  0
  195.3950  173.0830  136.9060 N   0  0  0  0  0  0  0  0  0  0  0  0
  196.1920  172.8670  135.7490 C   0  0  0  0  0  3  0  0  0  0  0  0
  195.7140  173.0310  134.5950 O   0  0  0  0  0  0  0  0  0  0  0  0
  195.2840  174.1600  139.0150 C   0  0  2  0  0  3  0  0  0  0  0  0
  188.3960  175.7960  135.5560 C   0  0  0  0  0  2  0  0  0  0  0  0
  186.9370  175.8740  135.9740 C   0  0  0  0  0  2  0  0  0  0  0  0
  186.2740  174.5220  135.8150 C   0  0  0  0  0  2  0  0  0  0  0  0
  185.8350  174.0380  137.1880 C   0  0  0  0  0  2  0  0  0  0  0  0
  184.5420  174.7310  137.5940 C   0  0  0  0  0  2  0  0  0  0  0  0
  183.5810  172.3990  137.4960 C   0  0  0  0  0  1  0  0  0  0  0  0
  182.0820  174.3760  137.3810 C   0  0  0  0  0  0  0  0  0  0  0  0
  181.5190  174.6020  136.2820 O   0  0  0  0  0  0  0  0  0  0  0  0
  183.4030  173.8410  137.4000 N   0  0  0  0  0  0  0  0  0  0  0  0
  181.3290  174.5290  138.6670 C   0  0  1  0  0  3  0  0  0  0  0  0
  181.8930  175.5480  139.4390 O   0  0  0  0  0  1  0  0  0  0  0  0
  179.0620  173.8010  139.1950 O   0  0  0  0  0  1  0  0  0  0  0  0
  179.8160  174.7650  138.5020 C   0  0  1  0  0  3  0  0  0  0  0  0
  179.4530  176.1830  138.9460 C   0  0  0  0  0  2  0  0  0  0  0  0
  179.5500  178.4610  137.9040 C   0  0  0  0  0  0  0  0  0  0  0  0
  179.0590  179.2520  137.0470 O   0  0  0  0  0  0  0  0  0  0  0  0
  180.3060  178.9730  139.0110 N   0  0  0  0  0  2  0  0  0  0  0  0
  179.2940  177.0600  137.7940 N   0  0  0  0  0  2  0  0  0  0  0  0
  179.2540  181.1470  138.8470 C   0  0  1  0  0  3  0  0  0  0  0  0
  180.4860  180.3980  139.2300 C   0  0  1  0  0  0  0  0  0  0  0  0
  179.6650  181.0830  140.3060 C   0  0  0  0  0  2  0  0  0  0  0  0
  179.8190  182.3800  138.1790 C   0  0  0  0  0  2  0  0  0  0  0  0
  181.6310  181.0910  138.5330 C   0  0  0  0  0  2  0  0  0  0  0  0
  181.1070  182.0940  137.6920 O   0  0  0  0  0  0  0  0  0  0  0  0
  1  2  1  6  0  0  0
  1  4  1  0  0  0  0
  3  4  2  0  0  0  0
  4 10  1  0  0  0  0
  5  2  1  0  0  0  0
  5  7  2  0  0  0  0
  6  2  2  0  0  0  0
  7  3  1  0  0  0  0
  8 11  1  0  0  0  0
 10  8  2  0  0  0  0
 10  9  1  0  0  0  0
 11 15  1  0  0  0  0
 12 13  1  0  0  0  0
 14 18  1  0  0  0  0
 14 13  2  0  0  0  0
 15 16  2  0  0  0  0
 15 17  1  0  0  0  0
 16 14  1  0  0  0  0
 17 12  2  0  0  0  0
 19 24  1  0  0  0  0
 20 26  1  0  0  0  0
 20 28  1  0  0  0  0
 21 22  1  0  0  0  0
 21 18  1  0  0  0  0
 22 31  1  1  0  0  0
 23 21  1  0  0  0  0
 24 28  2  0  0  0  0
 24 22  1  0  0  0  0
 25 29  1  0  0  0  0
 25 19  2  0  0  0  0
 27 19  1  0  0  0  0
 27 23  1  0  0  0  0
 29 20  2  0  0  0  0
 31 30  2  0  0  0  0
 32 35  1  0  0  0  0
 32 34  1  1  0  0  0
 33 32  1  0  0  0  0
 33  1  1  0  0  0  0
 33 34  1  1  0  0  0
 35 36  1  6  0  0  0
 35 42  1  0  0  0  0
 36 39  1  0  0  0  0
 38 42  1  0  0  0  0
 39 38  1  0  0  0  0
 40 39  1  0  0  0  0
 41 40  2  0  0  0  0
 42 37  1  6  0  0  0
 43 44  1  0  0  0  0
 43  5  1  0  0  0  0
 45 44  1  0  0  0  0
 45 46  1  0  0  0  0
 46 47  1  0  0  0  0
 49 51  1  0  0  0  0
 49 52  1  0  0  0  0
 50 49  2  0  0  0  0
 51 48  1  0  0  0  0
 51 47  1  0  0  0  0
 52 53  1  6  0  0  0
 55 52  1  0  0  0  0
 55 56  1  0  0  0  0
 55 54  1  1  0  0  0
 57 59  1  0  0  0  0
 58 57  2  0  0  0  0
 60 57  1  0  0  0  0
 60 56  1  0  0  0  0
 61 64  1  6  0  0  0
 61 62  1  0  0  0  0
 61 63  1  0  0  0  0
 62 59  1  6  0  0  0
 62 63  1  0  0  0  0
 65 62  1  0  0  0  0
 66 64  1  0  0  0  0
 66 65  1  0  0  0  0
M  END
>  <MODEL>
5

>  <REMARK>
 VINA RESULT:      -4.9      2.727      9.454
  Name = 
  19 active torsions:
  status: ('A' for Active; 'I' for Inactive)
    1  A    between atoms: C_4  and  C_36
    2  A    between atoms: N_7  and  C_29
    3  A    between atoms: C_8  and  C_33
    4  A    between atoms: C_10  and  N_57
    5  A    between atoms: C_13  and  C_16
    6  A    between atoms: C_13  and  C_52
    7  A    between atoms: C_15  and  C_52
    8  A    between atoms: C_15  and  N_64
    9  A    between atoms: C_17  and  C_25
   10  A    between atoms: C_18  and  C_27
   11  A    between atoms: C_21  and  C_38
   12  A    between atoms: C_21  and  N_58
   13  A    between atoms: C_22  and  C_23
   14  A    between atoms: C_29  and  C_32
   15  A    between atoms: C_33  and  C_42
   16  A    between atoms: C_34  and  C_46
   17  A    between atoms: C_34  and  C_51
   18  A    between atoms: C_38  and  C_51
   19  A    between atoms: C_46  and  C_53
                            x       y       z     vdW  Elec       q    Type
                         _______ _______ _______ _____ _____    ______ ____

>  <TORSDO>
F 19

$$$$
