=
 OpenBabel10222416543D

 28 30  0  0  1  0  0  0  0  0999 V2000
  190.1340  177.8110  145.1030 N   0  0  0  0  0  2  0  0  0  0  0  0
  190.8530  176.9730  141.0150 C   0  0  0  0  0  0  0  0  0  0  0  0
  189.4470  176.7600  142.9760 C   0  0  0  0  0  3  0  0  0  0  0  0
  191.7610  177.7400  141.7520 C   0  0  0  0  0  3  0  0  0  0  0  0
  189.6920  176.4870  141.6270 C   0  0  0  0  0  3  0  0  0  0  0  0
  190.3590  177.5250  143.7190 C   0  0  0  0  0  0  0  0  0  0  0  0
  191.5170  178.0110  143.1020 C   0  0  0  0  0  3  0  0  0  0  0  0
  191.1080  176.7020  139.5750 C   0  0  0  0  0  2  0  0  0  0  0  0
  189.8500  176.4440  138.8890 N   0  0  0  0  0  2  0  0  0  0  0  0
  188.5520  178.9160  139.4220 O   0  0  0  0  0  1  0  0  0  0  0  0
  189.7120  177.4080  137.8800 N   0  0  0  0  0  0  0  0  0  0  0  0
  189.0440  178.6490  138.1490 C   0  0  0  0  0  0  0  0  0  0  0  0
  190.1150  177.0670  136.5250 C   0  0  0  0  0  1  0  0  0  0  0  0
  188.8980  179.5070  137.2380 O   0  0  0  0  0  0  0  0  0  0  0  0
  189.2650  177.0180  145.9620 C   0  0  2  0  0  3  0  0  0  0  0  0
  187.3640  178.0960  147.0660 N   0  0  0  0  0  0  0  0  0  0  0  0
  185.9630  178.2370  145.2260 C   0  0  0  0  0  0  0  0  0  0  0  0
  184.8380  178.5080  144.3810 N   0  0  0  0  0  0  0  0  0  0  0  0
  183.4870  178.7010  142.4550 C   0  0  0  0  0  2  0  0  0  0  0  0
  183.6130  179.1160  144.8500 C   0  0  0  0  0  2  0  0  0  0  0  0
  182.6520  179.0570  143.6770 C   0  0  0  0  0  2  0  0  0  0  0  0
  184.8050  178.1610  142.9760 C   0  0  0  0  0  2  0  0  0  0  0  0
  187.8900  177.6080  145.9830 C   0  0  0  0  0  0  0  0  0  0  0  0
  186.0870  178.5300  146.6350 C   0  0  0  0  0  0  0  0  0  0  0  0
  185.2350  179.0850  147.3770 O   0  0  0  0  0  0  0  0  0  0  0  0
  187.0530  177.6810  144.8160 N   0  0  0  0  0  0  0  0  0  0  0  0
  191.2640  176.4420  147.3410 C   0  0  0  0  0  1  0  0  0  0  0  0
  189.8460  176.9820  147.3660 C   0  0  0  0  0  2  0  0  0  0  0  0
  1 15  1  0  0  0  0
  2  5  2  0  0  0  0
  2  4  1  0  0  0  0
  3  6  2  0  0  0  0
  4  7  2  0  0  0  0
  5  3  1  0  0  0  0
  6  1  1  0  0  0  0
  7  6  1  0  0  0  0
  8  2  1  0  0  0  0
  9  8  1  0  0  0  0
 11 12  1  0  0  0  0
 11  9  1  0  0  0  0
 12 10  1  0  0  0  0
 13 11  1  0  0  0  0
 14 12  2  0  0  0  0
 15 23  1  0  0  0  0
 15 28  1  1  0  0  0
 17 24  1  0  0  0  0
 18 20  1  0  0  0  0
 18 17  1  0  0  0  0
 19 22  1  0  0  0  0
 19 21  1  0  0  0  0
 21 20  1  0  0  0  0
 22 18  1  0  0  0  0
 23 16  2  0  0  0  0
 24 16  1  0  0  0  0
 24 25  2  0  0  0  0
 26 17  2  0  0  0  0
 26 23  1  0  0  0  0
 27 28  1  0  0  0  0
M  END
>  <MODEL>
1

>  <REMARK>
 VINA RESULT:      -8.6      0.000      0.000
  Name = 
  7 active torsions:
  status: ('A' for Active; 'I' for Inactive)
    1  A    between atoms: C_2  and  C_15
    2  A    between atoms: N_6  and  C_15
    3  A    between atoms: N_6  and  N_16
    4  A    between atoms: N_11  and  C_23
    5  A    between atoms: N_11  and  C_27
    6  A    between atoms: C_18  and  C_27
    7  A    between atoms: C_19  and  C_27
                            x       y       z     vdW  Elec       q    Type
                         _______ _______ _______ _____ _____    ______ ____

>  <TORSDO>
F 7

$$$$
=
 OpenBabel10222416543D

 28 30  0  0  1  0  0  0  0  0999 V2000
  189.8780  178.1530  144.5160 N   0  0  0  0  0  2  0  0  0  0  0  0
  190.8840  177.2760  140.4980 C   0  0  0  0  0  0  0  0  0  0  0  0
  189.2060  177.7890  142.1680 C   0  0  0  0  0  3  0  0  0  0  0  0
  191.8790  177.3560  141.4780 C   0  0  0  0  0  3  0  0  0  0  0  0
  189.5460  177.4990  140.8440 C   0  0  0  0  0  3  0  0  0  0  0  0
  190.2030  177.8650  143.1530 C   0  0  0  0  0  0  0  0  0  0  0  0
  191.5380  177.6450  142.8020 C   0  0  0  0  0  3  0  0  0  0  0  0
  191.2530  176.9860  139.0870 C   0  0  0  0  0  2  0  0  0  0  0  0
  190.6660  175.7200  138.6720 N   0  0  0  0  0  2  0  0  0  0  0  0
  189.9240  173.3910  137.2230 O   0  0  0  0  0  1  0  0  0  0  0  0
  191.5900  175.0770  137.8360 N   0  0  0  0  0  0  0  0  0  0  0  0
  191.2160  173.8940  137.1160 C   0  0  0  0  0  0  0  0  0  0  0  0
  192.9700  175.5360  137.8310 C   0  0  0  0  0  1  0  0  0  0  0  0
  192.0510  173.3010  136.3810 O   0  0  0  0  0  0  0  0  0  0  0  0
  189.1420  177.2430  145.3840 C   0  0  2  0  0  3  0  0  0  0  0  0
  187.2250  178.0350  146.6840 N   0  0  0  0  0  0  0  0  0  0  0  0
  185.7180  178.2470  144.9370 C   0  0  0  0  0  0  0  0  0  0  0  0
  184.5310  178.5080  144.1790 N   0  0  0  0  0  0  0  0  0  0  0  0
  183.0640  178.7850  142.3500 C   0  0  0  0  0  2  0  0  0  0  0  0
  183.2880  178.9580  144.7680 C   0  0  0  0  0  2  0  0  0  0  0  0
  182.2720  178.9400  143.6410 C   0  0  0  0  0  2  0  0  0  0  0  0
  184.4470  178.3070  142.7480 C   0  0  0  0  0  2  0  0  0  0  0  0
  187.7270  177.7090  145.5310 C   0  0  0  0  0  0  0  0  0  0  0  0
  185.8960  178.4020  146.3620 C   0  0  0  0  0  0  0  0  0  0  0  0
  185.0440  178.8020  147.1980 O   0  0  0  0  0  0  0  0  0  0  0  0
  186.8240  177.8310  144.4190 N   0  0  0  0  0  0  0  0  0  0  0  0
  191.2680  176.7430  146.5910 C   0  0  0  0  0  1  0  0  0  0  0  0
  189.8230  177.1820  146.7400 C   0  0  0  0  0  2  0  0  0  0  0  0
  1 15  1  0  0  0  0
  2  5  2  0  0  0  0
  2  4  1  0  0  0  0
  3  6  2  0  0  0  0
  4  7  2  0  0  0  0
  5  3  1  0  0  0  0
  6  1  1  0  0  0  0
  7  6  1  0  0  0  0
  8  2  1  0  0  0  0
  9  8  1  0  0  0  0
 11  9  1  0  0  0  0
 12 10  1  0  0  0  0
 12 11  1  0  0  0  0
 13 11  1  0  0  0  0
 14 12  2  0  0  0  0
 15 23  1  0  0  0  0
 15 28  1  1  0  0  0
 17 24  1  0  0  0  0
 18 20  1  0  0  0  0
 18 17  1  0  0  0  0
 19 22  1  0  0  0  0
 19 21  1  0  0  0  0
 21 20  1  0  0  0  0
 22 18  1  0  0  0  0
 23 16  2  0  0  0  0
 24 16  1  0  0  0  0
 24 25  2  0  0  0  0
 26 17  2  0  0  0  0
 26 23  1  0  0  0  0
 27 28  1  0  0  0  0
M  END
>  <MODEL>
2

>  <REMARK>
 VINA RESULT:      -8.5      2.088      2.285
  Name = 
  7 active torsions:
  status: ('A' for Active; 'I' for Inactive)
    1  A    between atoms: C_2  and  C_15
    2  A    between atoms: N_6  and  C_15
    3  A    between atoms: N_6  and  N_16
    4  A    between atoms: N_11  and  C_23
    5  A    between atoms: N_11  and  C_27
    6  A    between atoms: C_18  and  C_27
    7  A    between atoms: C_19  and  C_27
                            x       y       z     vdW  Elec       q    Type
                         _______ _______ _______ _____ _____    ______ ____

>  <TORSDO>
F 7

$$$$
=
 OpenBabel10222416543D

 28 30  0  0  1  0  0  0  0  0999 V2000
  189.8390  178.1180  144.1670 N   0  0  0  0  0  2  0  0  0  0  0  0
  190.3140  177.2890  140.0420 C   0  0  0  0  0  0  0  0  0  0  0  0
  191.2710  177.4780  142.2600 C   0  0  0  0  0  3  0  0  0  0  0  0
  189.0600  177.6330  140.5570 C   0  0  0  0  0  3  0  0  0  0  0  0
  191.4200  177.2060  140.8970 C   0  0  0  0  0  3  0  0  0  0  0  0
  190.0140  177.8280  142.7770 C   0  0  0  0  0  0  0  0  0  0  0  0
  188.9130  177.9060  141.9200 C   0  0  0  0  0  3  0  0  0  0  0  0
  190.4630  176.9820  138.5950 C   0  0  0  0  0  2  0  0  0  0  0  0
  191.2240  175.7520  138.4260 N   0  0  0  0  0  2  0  0  0  0  0  0
  193.9620  176.4180  138.8000 O   0  0  0  0  0  1  0  0  0  0  0  0
  192.0720  175.9260  137.3220 N   0  0  0  0  0  0  0  0  0  0  0  0
  193.4500  176.2750  137.5150 C   0  0  0  0  0  0  0  0  0  0  0  0
  191.4990  175.9000  135.9860 C   0  0  0  0  0  1  0  0  0  0  0  0
  194.2090  176.4550  136.5240 O   0  0  0  0  0  0  0  0  0  0  0  0
  189.1550  177.2320  145.1000 C   0  0  2  0  0  3  0  0  0  0  0  0
  187.3280  178.0600  146.5040 N   0  0  0  0  0  0  0  0  0  0  0  0
  185.7170  178.2580  144.8500 C   0  0  0  0  0  0  0  0  0  0  0  0
  184.4880  178.5180  144.1630 N   0  0  0  0  0  0  0  0  0  0  0  0
  182.9130  178.7810  142.4230 C   0  0  0  0  0  2  0  0  0  0  0  0
  183.2870  178.9870  144.8200 C   0  0  0  0  0  2  0  0  0  0  0  0
  182.2040  178.9610  143.7580 C   0  0  0  0  0  2  0  0  0  0  0  0
  184.3140  178.2970  142.7430 C   0  0  0  0  0  2  0  0  0  0  0  0
  187.7550  177.7120  145.3270 C   0  0  0  0  0  0  0  0  0  0  0  0
  185.9840  178.4320  146.2590 C   0  0  0  0  0  0  0  0  0  0  0  0
  185.1890  178.8520  147.1390 O   0  0  0  0  0  0  0  0  0  0  0  0
  186.7860  177.8250  144.2710 N   0  0  0  0  0  0  0  0  0  0  0  0
  191.3660  176.7980  146.1720 C   0  0  0  0  0  1  0  0  0  0  0  0
  189.9210  177.1950  146.4110 C   0  0  0  0  0  2  0  0  0  0  0  0
  1 15  1  0  0  0  0
  2  4  2  0  0  0  0
  2  5  1  0  0  0  0
  3  6  1  0  0  0  0
  4  7  1  0  0  0  0
  5  3  2  0  0  0  0
  6  1  1  0  0  0  0
  7  6  2  0  0  0  0
  8  2  1  0  0  0  0
  9  8  1  0  0  0  0
 11 12  1  0  0  0  0
 11  9  1  0  0  0  0
 12 10  1  0  0  0  0
 13 11  1  0  0  0  0
 14 12  2  0  0  0  0
 15 23  1  0  0  0  0
 15 28  1  1  0  0  0
 17 24  1  0  0  0  0
 18 20  1  0  0  0  0
 18 17  1  0  0  0  0
 19 22  1  0  0  0  0
 19 21  1  0  0  0  0
 21 20  1  0  0  0  0
 22 18  1  0  0  0  0
 23 16  2  0  0  0  0
 24 16  1  0  0  0  0
 24 25  2  0  0  0  0
 26 17  2  0  0  0  0
 26 23  1  0  0  0  0
 27 28  1  0  0  0  0
M  END
>  <MODEL>
3

>  <REMARK>
 VINA RESULT:      -8.4      2.024      2.314
  Name = 
  7 active torsions:
  status: ('A' for Active; 'I' for Inactive)
    1  A    between atoms: C_2  and  C_15
    2  A    between atoms: N_6  and  C_15
    3  A    between atoms: N_6  and  N_16
    4  A    between atoms: N_11  and  C_23
    5  A    between atoms: N_11  and  C_27
    6  A    between atoms: C_18  and  C_27
    7  A    between atoms: C_19  and  C_27
                            x       y       z     vdW  Elec       q    Type
                         _______ _______ _______ _____ _____    ______ ____

>  <TORSDO>
F 7

$$$$
=
 OpenBabel10222416543D

 28 30  0  0  1  0  0  0  0  0999 V2000
  190.0060  178.0150  144.8420 N   0  0  0  0  0  2  0  0  0  0  0  0
  190.7180  177.3120  140.7280 C   0  0  0  0  0  0  0  0  0  0  0  0
  191.5400  177.4050  143.0050 C   0  0  0  0  0  3  0  0  0  0  0  0
  189.4420  177.6690  141.1760 C   0  0  0  0  0  3  0  0  0  0  0  0
  191.7670  177.1750  141.6450 C   0  0  0  0  0  3  0  0  0  0  0  0
  190.2610  177.7670  143.4560 C   0  0  0  0  0  0  0  0  0  0  0  0
  189.2160  177.9000  142.5360 C   0  0  0  0  0  3  0  0  0  0  0  0
  190.9500  177.0500  139.2830 C   0  0  0  0  0  2  0  0  0  0  0  0
  189.9850  177.7920  138.4840 N   0  0  0  0  0  2  0  0  0  0  0  0
  187.2010  178.3250  138.2920 O   0  0  0  0  0  1  0  0  0  0  0  0
  189.1210  176.8610  137.8890 N   0  0  0  0  0  0  0  0  0  0  0  0
  187.7140  177.1280  137.8060 C   0  0  0  0  0  0  0  0  0  0  0  0
  189.6480  175.5620  137.5020 C   0  0  0  0  0  1  0  0  0  0  0  0
  186.9320  176.2830  137.2930 O   0  0  0  0  0  0  0  0  0  0  0  0
  189.2090  177.1380  145.6890 C   0  0  2  0  0  3  0  0  0  0  0  0
  187.2880  178.0420  146.9100 N   0  0  0  0  0  0  0  0  0  0  0  0
  185.8310  178.2320  145.1190 C   0  0  0  0  0  0  0  0  0  0  0  0
  184.6710  178.5000  144.3220 N   0  0  0  0  0  0  0  0  0  0  0  0
  183.2580  178.7510  142.4480 C   0  0  0  0  0  2  0  0  0  0  0  0
  183.4300  179.0120  144.8620 C   0  0  0  0  0  2  0  0  0  0  0  0
  182.4410  178.9820  143.7120 C   0  0  0  0  0  2  0  0  0  0  0  0
  184.6150  178.2450  142.8980 C   0  0  0  0  0  2  0  0  0  0  0  0
  187.8070  177.6540  145.7830 C   0  0  0  0  0  0  0  0  0  0  0  0
  185.9800  178.4370  146.5410 C   0  0  0  0  0  0  0  0  0  0  0  0
  185.1230  178.8970  147.3390 O   0  0  0  0  0  0  0  0  0  0  0  0
  186.9350  177.7600  144.6450 N   0  0  0  0  0  0  0  0  0  0  0  0
  191.2960  176.6510  146.9680 C   0  0  0  0  0  1  0  0  0  0  0  0
  189.8390  177.0640  147.0690 C   0  0  0  0  0  2  0  0  0  0  0  0
  1 15  1  0  0  0  0
  2  4  2  0  0  0  0
  2  5  1  0  0  0  0
  3  6  1  0  0  0  0
  4  7  1  0  0  0  0
  5  3  2  0  0  0  0
  6  1  1  0  0  0  0
  7  6  2  0  0  0  0
  8  2  1  0  0  0  0
  9  8  1  0  0  0  0
 11  9  1  0  0  0  0
 12 11  1  0  0  0  0
 12 10  1  0  0  0  0
 13 11  1  0  0  0  0
 14 12  2  0  0  0  0
 15 23  1  0  0  0  0
 15 28  1  1  0  0  0
 17 24  1  0  0  0  0
 18 20  1  0  0  0  0
 18 17  1  0  0  0  0
 19 22  1  0  0  0  0
 19 21  1  0  0  0  0
 21 20  1  0  0  0  0
 22 18  1  0  0  0  0
 23 16  2  0  0  0  0
 24 16  1  0  0  0  0
 24 25  2  0  0  0  0
 26 17  2  0  0  0  0
 26 23  1  0  0  0  0
 27 28  1  0  0  0  0
M  END
>  <MODEL>
4

>  <REMARK>
 VINA RESULT:      -8.4      1.067      1.343
  Name = 
  7 active torsions:
  status: ('A' for Active; 'I' for Inactive)
    1  A    between atoms: C_2  and  C_15
    2  A    between atoms: N_6  and  C_15
    3  A    between atoms: N_6  and  N_16
    4  A    between atoms: N_11  and  C_23
    5  A    between atoms: N_11  and  C_27
    6  A    between atoms: C_18  and  C_27
    7  A    between atoms: C_19  and  C_27
                            x       y       z     vdW  Elec       q    Type
                         _______ _______ _______ _____ _____    ______ ____

>  <TORSDO>
F 7

$$$$
=
 OpenBabel10222416543D

 28 30  0  0  1  0  0  0  0  0999 V2000
  189.0400  176.9010  145.2170 N   0  0  0  0  0  2  0  0  0  0  0  0
  185.0910  178.4280  145.1950 C   0  0  0  0  0  0  0  0  0  0  0  0
  187.1310  177.9270  146.4020 C   0  0  0  0  0  3  0  0  0  0  0  0
  185.6670  177.9340  144.0200 C   0  0  0  0  0  3  0  0  0  0  0  0
  185.8270  178.4290  146.3860 C   0  0  0  0  0  3  0  0  0  0  0  0
  187.7100  177.4270  145.2240 C   0  0  0  0  0  0  0  0  0  0  0  0
  186.9710  177.4300  144.0370 C   0  0  0  0  0  3  0  0  0  0  0  0
  183.7100  178.9790  145.1690 C   0  0  0  0  0  2  0  0  0  0  0  0
  183.4860  179.6940  143.9210 N   0  0  0  0  0  2  0  0  0  0  0  0
  183.8230  178.9760  141.1920 O   0  0  0  0  0  0  0  0  0  0  0  0
  182.4640  179.0280  143.2280 N   0  0  0  0  0  0  0  0  0  0  0  0
  182.6330  178.6790  141.8470 C   0  0  0  0  0  0  0  0  0  0  0  0
  181.1800  178.8370  143.8840 C   0  0  0  0  0  1  0  0  0  0  0  0
  181.7080  178.1010  141.2150 O   0  0  0  0  0  1  0  0  0  0  0  0
  190.2250  177.6980  144.9300 C   0  0  2  0  0  3  0  0  0  0  0  0
  191.7540  177.3900  143.0420 N   0  0  0  0  0  0  0  0  0  0  0  0
  190.2150  177.6740  141.3340 C   0  0  0  0  0  0  0  0  0  0  0  0
  189.6140  177.7790  140.0370 N   0  0  0  0  0  0  0  0  0  0  0  0
  187.9880  177.9930  138.3390 C   0  0  0  0  0  2  0  0  0  0  0  0
  190.3540  177.6520  138.8000 C   0  0  0  0  0  2  0  0  0  0  0  0
  189.3700  177.9960  137.6990 C   0  0  0  0  0  2  0  0  0  0  0  0
  188.2090  178.0620  139.8380 C   0  0  0  0  0  2  0  0  0  0  0  0
  190.5500  177.6240  143.4700 C   0  0  0  0  0  0  0  0  0  0  0  0
  191.6030  177.4110  141.6350 C   0  0  0  0  0  0  0  0  0  0  0  0
  192.5370  177.2150  140.8150 O   0  0  0  0  0  0  0  0  0  0  0  0
  189.5630  177.8020  142.4400 N   0  0  0  0  0  0  0  0  0  0  0  0
  190.9060  176.6940  147.1100 C   0  0  0  0  0  1  0  0  0  0  0  0
  191.3900  177.1830  145.7580 C   0  0  0  0  0  2  0  0  0  0  0  0
  1  6  1  0  0  0  0
  2  5  1  0  0  0  0
  4  7  1  0  0  0  0
  4  2  2  0  0  0  0
  5  3  2  0  0  0  0
  6  3  1  0  0  0  0
  7  6  2  0  0  0  0
  8  2  1  0  0  0  0
  9  8  1  0  0  0  0
 10 12  2  0  0  0  0
 11 13  1  0  0  0  0
 11  9  1  0  0  0  0
 12 11  1  0  0  0  0
 14 12  1  0  0  0  0
 15  1  1  0  0  0  0
 15 28  1  1  0  0  0
 16 23  2  0  0  0  0
 17 24  1  0  0  0  0
 17 26  2  0  0  0  0
 18 17  1  0  0  0  0
 19 22  1  0  0  0  0
 20 18  1  0  0  0  0
 21 19  1  0  0  0  0
 21 20  1  0  0  0  0
 22 18  1  0  0  0  0
 23 15  1  0  0  0  0
 24 16  1  0  0  0  0
 25 24  2  0  0  0  0
 26 23  1  0  0  0  0
 28 27  1  0  0  0  0
M  END
>  <MODEL>
5

>  <REMARK>
 VINA RESULT:      -8.2      2.332      6.690
  Name = 
  7 active torsions:
  status: ('A' for Active; 'I' for Inactive)
    1  A    between atoms: C_2  and  C_15
    2  A    between atoms: N_6  and  C_15
    3  A    between atoms: N_6  and  N_16
    4  A    between atoms: N_11  and  C_23
    5  A    between atoms: N_11  and  C_27
    6  A    between atoms: C_18  and  C_27
    7  A    between atoms: C_19  and  C_27
                            x       y       z     vdW  Elec       q    Type
                         _______ _______ _______ _____ _____    ______ ____

>  <TORSDO>
F 7

$$$$
=
 OpenBabel10222416543D

 28 30  0  0  1  0  0  0  0  0999 V2000
  190.2090  176.1080  142.1270 N   0  0  0  0  0  2  0  0  0  0  0  0
  189.4120  178.1030  138.4790 C   0  0  0  0  0  0  0  0  0  0  0  0
  190.7570  176.5470  139.7600 C   0  0  0  0  0  3  0  0  0  0  0  0
  188.6040  178.3230  139.5990 C   0  0  0  0  0  3  0  0  0  0  0  0
  190.4870  177.2100  138.5590 C   0  0  0  0  0  3  0  0  0  0  0  0
  189.9490  176.7690  140.8860 C   0  0  0  0  0  0  0  0  0  0  0  0
  188.8750  177.6610  140.8000 C   0  0  0  0  0  3  0  0  0  0  0  0
  189.1100  178.7960  137.1990 C   0  0  0  0  0  2  0  0  0  0  0  0
  187.7080  179.1880  137.1670 N   0  0  0  0  0  2  0  0  0  0  0  0
  185.3530  177.9870  138.2100 O   0  0  0  0  0  1  0  0  0  0  0  0
  187.0140  178.2200  136.4260 N   0  0  0  0  0  0  0  0  0  0  0  0
  185.8330  177.6060  136.9620 C   0  0  0  0  0  0  0  0  0  0  0  0
  187.5940  177.7380  135.1820 C   0  0  0  0  0  1  0  0  0  0  0  0
  185.2200  176.7190  136.3090 O   0  0  0  0  0  0  0  0  0  0  0  0
  190.9020  176.7320  143.2470 C   0  0  2  0  0  3  0  0  0  0  0  0
  190.2580  176.8440  145.6070 N   0  0  0  0  0  0  0  0  0  0  0  0
  188.0780  177.5700  145.3110 C   0  0  0  0  0  0  0  0  0  0  0  0
  186.7350  178.0010  145.5580 N   0  0  0  0  0  0  0  0  0  0  0  0
  184.5500  178.8220  145.2000 C   0  0  0  0  0  2  0  0  0  0  0  0
  186.1600  178.1090  146.8810 C   0  0  0  0  0  2  0  0  0  0  0  0
  184.6940  178.4300  146.6640 C   0  0  0  0  0  2  0  0  0  0  0  0
  185.8050  178.3360  144.5000 C   0  0  0  0  0  2  0  0  0  0  0  0
  189.9360  177.0030  144.3580 C   0  0  0  0  0  0  0  0  0  0  0  0
  189.0720  177.2020  146.2920 C   0  0  0  0  0  0  0  0  0  0  0  0
  188.9440  177.2020  147.5440 O   0  0  0  0  0  0  0  0  0  0  0  0
  188.5910  177.4570  144.1320 N   0  0  0  0  0  0  0  0  0  0  0  0
  191.7200  178.9840  143.9430 C   0  0  0  0  0  1  0  0  0  0  0  0
  191.5480  178.0250  142.7800 C   0  0  0  0  0  2  0  0  0  0  0  0
  1 15  1  0  0  0  0
  2  5  2  0  0  0  0
  2  4  1  0  0  0  0
  3  6  2  0  0  0  0
  4  7  2  0  0  0  0
  5  3  1  0  0  0  0
  6  1  1  0  0  0  0
  7  6  1  0  0  0  0
  8  2  1  0  0  0  0
  9  8  1  0  0  0  0
 11 12  1  0  0  0  0
 11  9  1  0  0  0  0
 12 10  1  0  0  0  0
 13 11  1  0  0  0  0
 14 12  2  0  0  0  0
 15 28  1  6  0  0  0
 15 23  1  0  0  0  0
 16 24  1  0  0  0  0
 17 18  1  0  0  0  0
 17 24  1  0  0  0  0
 18 20  1  0  0  0  0
 19 21  1  0  0  0  0
 21 20  1  0  0  0  0
 22 19  1  0  0  0  0
 22 18  1  0  0  0  0
 23 16  2  0  0  0  0
 24 25  2  0  0  0  0
 26 23  1  0  0  0  0
 26 17  2  0  0  0  0
 28 27  1  0  0  0  0
M  END
>  <MODEL>
6

>  <REMARK>
 VINA RESULT:      -8.0      2.107      3.415
  Name = 
  7 active torsions:
  status: ('A' for Active; 'I' for Inactive)
    1  A    between atoms: C_2  and  C_15
    2  A    between atoms: N_6  and  C_15
    3  A    between atoms: N_6  and  N_16
    4  A    between atoms: N_11  and  C_23
    5  A    between atoms: N_11  and  C_27
    6  A    between atoms: C_18  and  C_27
    7  A    between atoms: C_19  and  C_27
                            x       y       z     vdW  Elec       q    Type
                         _______ _______ _______ _____ _____    ______ ____

>  <TORSDO>
F 7

$$$$
=
 OpenBabel10222416543D

 28 30  0  0  1  0  0  0  0  0999 V2000
  189.4780  178.0510  143.2700 N   0  0  0  0  0  2  0  0  0  0  0  0
  189.9120  177.0930  139.1680 C   0  0  0  0  0  0  0  0  0  0  0  0
  188.5640  177.9770  140.9770 C   0  0  0  0  0  3  0  0  0  0  0  0
  190.9590  176.8590  140.0660 C   0  0  0  0  0  3  0  0  0  0  0  0
  188.7150  177.6580  139.6240 C   0  0  0  0  0  3  0  0  0  0  0  0
  189.6120  177.7390  141.8800 C   0  0  0  0  0  0  0  0  0  0  0  0
  190.8070  177.1780  141.4190 C   0  0  0  0  0  3  0  0  0  0  0  0
  190.0850  176.7690  137.7270 C   0  0  0  0  0  2  0  0  0  0  0  0
  189.7080  177.9170  136.9140 N   0  0  0  0  0  2  0  0  0  0  0  0
  187.2830  179.3940  136.8250 O   0  0  0  0  0  1  0  0  0  0  0  0
  188.6600  177.5150  136.0720 N   0  0  0  0  0  0  0  0  0  0  0  0
  187.4330  178.2560  136.0400 C   0  0  0  0  0  0  0  0  0  0  0  0
  188.7800  176.2560  135.3550 C   0  0  0  0  0  1  0  0  0  0  0  0
  186.4800  177.8850  135.3020 O   0  0  0  0  0  0  0  0  0  0  0  0
  188.8370  177.1720  144.2390 C   0  0  2  0  0  3  0  0  0  0  0  0
  187.1530  178.0770  145.7690 N   0  0  0  0  0  0  0  0  0  0  0  0
  185.4100  178.2620  144.2540 C   0  0  0  0  0  0  0  0  0  0  0  0
  184.1310  178.5280  143.6670 N   0  0  0  0  0  0  0  0  0  0  0  0
  182.4170  178.7750  142.0620 C   0  0  0  0  0  2  0  0  0  0  0  0
  183.0000  179.0410  144.4110 C   0  0  0  0  0  2  0  0  0  0  0  0
  181.8290  179.0070  143.4470 C   0  0  0  0  0  2  0  0  0  0  0  0
  183.8310  178.2710  142.2740 C   0  0  0  0  0  2  0  0  0  0  0  0
  187.4710  177.6870  144.5710 C   0  0  0  0  0  0  0  0  0  0  0  0
  185.8000  178.4700  145.6290 C   0  0  0  0  0  0  0  0  0  0  0  0
  185.0920  178.9310  146.5620 O   0  0  0  0  0  0  0  0  0  0  0  0
  186.4170  177.7910  143.5990 N   0  0  0  0  0  0  0  0  0  0  0  0
  191.1330  177.4560  145.1740 C   0  0  0  0  0  1  0  0  0  0  0  0
  189.6930  177.0970  145.4910 C   0  0  0  0  0  2  0  0  0  0  0  0
  1 15  1  0  0  0  0
  2  5  2  0  0  0  0
  2  4  1  0  0  0  0
  3  6  2  0  0  0  0
  4  7  2  0  0  0  0
  5  3  1  0  0  0  0
  6  1  1  0  0  0  0
  7  6  1  0  0  0  0
  8  2  1  0  0  0  0
  9  8  1  0  0  0  0
 11  9  1  0  0  0  0
 12 11  1  0  0  0  0
 12 10  1  0  0  0  0
 13 11  1  0  0  0  0
 14 12  2  0  0  0  0
 15 23  1  0  0  0  0
 15 28  1  1  0  0  0
 17 24  1  0  0  0  0
 18 17  1  0  0  0  0
 18 20  1  0  0  0  0
 19 22  1  0  0  0  0
 19 21  1  0  0  0  0
 21 20  1  0  0  0  0
 22 18  1  0  0  0  0
 23 16  2  0  0  0  0
 24 16  1  0  0  0  0
 24 25  2  0  0  0  0
 26 17  2  0  0  0  0
 26 23  1  0  0  0  0
 27 28  1  0  0  0  0
M  END
>  <MODEL>
7

>  <REMARK>
 VINA RESULT:      -8.0      1.519      1.947
  Name = 
  7 active torsions:
  status: ('A' for Active; 'I' for Inactive)
    1  A    between atoms: C_2  and  C_15
    2  A    between atoms: N_6  and  C_15
    3  A    between atoms: N_6  and  N_16
    4  A    between atoms: N_11  and  C_23
    5  A    between atoms: N_11  and  C_27
    6  A    between atoms: C_18  and  C_27
    7  A    between atoms: C_19  and  C_27
                            x       y       z     vdW  Elec       q    Type
                         _______ _______ _______ _____ _____    ______ ____

>  <TORSDO>
F 7

$$$$
=
 OpenBabel10222416543D

 28 30  0  0  1  0  0  0  0  0999 V2000
  187.5770  177.1550  145.4180 N   0  0  0  0  0  2  0  0  0  0  0  0
  183.9160  179.0080  144.3740 C   0  0  0  0  0  0  0  0  0  0  0  0
  185.9420  177.8600  143.7070 C   0  0  0  0  0  3  0  0  0  0  0  0
  184.3090  178.9170  145.7130 C   0  0  0  0  0  3  0  0  0  0  0  0
  184.7320  178.4730  143.3700 C   0  0  0  0  0  3  0  0  0  0  0  0
  186.3400  177.7720  145.0500 C   0  0  0  0  0  0  0  0  0  0  0  0
  185.5200  178.3050  146.0490 C   0  0  0  0  0  3  0  0  0  0  0  0
  182.6190  179.6440  144.0230 C   0  0  0  0  0  2  0  0  0  0  0  0
  181.6710  178.6280  143.5870 N   0  0  0  0  0  2  0  0  0  0  0  0
  182.2650  178.2190  140.8380 O   0  0  0  0  0  1  0  0  0  0  0  0
  180.8650  179.1990  142.5910 N   0  0  0  0  0  0  0  0  0  0  0  0
  181.1760  179.0010  141.2050 C   0  0  0  0  0  0  0  0  0  0  0  0
  179.8070  180.1160  142.9850 C   0  0  0  0  0  1  0  0  0  0  0  0
  180.4660  179.5310  140.3080 O   0  0  0  0  0  0  0  0  0  0  0  0
  188.8420  177.8720  145.5130 C   0  0  2  0  0  3  0  0  0  0  0  0
  190.9310  177.4780  144.2970 N   0  0  0  0  0  0  0  0  0  0  0  0
  190.0510  177.4470  142.1530 C   0  0  0  0  0  0  0  0  0  0  0  0
  189.9220  177.3580  140.7290 N   0  0  0  0  0  0  0  0  0  0  0  0
  188.9600  177.2510  138.5760 C   0  0  0  0  0  2  0  0  0  0  0  0
  191.0410  177.1530  139.8350 C   0  0  0  0  0  2  0  0  0  0  0  0
  190.4750  177.2930  138.4350 C   0  0  0  0  0  2  0  0  0  0  0  0
  188.6570  177.5040  140.0410 C   0  0  0  0  0  2  0  0  0  0  0  0
  189.6440  177.6610  144.2670 C   0  0  0  0  0  0  0  0  0  0  0  0
  191.2640  177.3290  142.9290 C   0  0  0  0  0  0  0  0  0  0  0  0
  192.4280  177.1180  142.4980 O   0  0  0  0  0  0  0  0  0  0  0  0
  189.0590  177.6440  142.9540 N   0  0  0  0  0  0  0  0  0  0  0  0
  189.0250  177.9540  148.0010 C   0  0  0  0  0  1  0  0  0  0  0  0
  189.6100  177.3750  146.7270 C   0  0  0  0  0  2  0  0  0  0  0  0
  1 15  1  0  0  0  0
  2  4  1  0  0  0  0
  3  6  2  0  0  0  0
  4  7  2  0  0  0  0
  5  3  1  0  0  0  0
  5  2  2  0  0  0  0
  6  1  1  0  0  0  0
  6  7  1  0  0  0  0
  8  2  1  0  0  0  0
  9  8  1  0  0  0  0
 10 12  1  0  0  0  0
 11 13  1  0  0  0  0
 11  9  1  0  0  0  0
 12 11  1  0  0  0  0
 14 12  2  0  0  0  0
 15 28  1  1  0  0  0
 17 24  1  0  0  0  0
 17 26  2  0  0  0  0
 18 17  1  0  0  0  0
 19 22  1  0  0  0  0
 20 18  1  0  0  0  0
 21 19  1  0  0  0  0
 21 20  1  0  0  0  0
 22 18  1  0  0  0  0
 23 16  2  0  0  0  0
 23 15  1  0  0  0  0
 24 16  1  0  0  0  0
 25 24  2  0  0  0  0
 26 23  1  0  0  0  0
 28 27  1  0  0  0  0
M  END
>  <MODEL>
8

>  <REMARK>
 VINA RESULT:      -7.8      2.780      7.020
  Name = 
  7 active torsions:
  status: ('A' for Active; 'I' for Inactive)
    1  A    between atoms: C_2  and  C_15
    2  A    between atoms: N_6  and  C_15
    3  A    between atoms: N_6  and  N_16
    4  A    between atoms: N_11  and  C_23
    5  A    between atoms: N_11  and  C_27
    6  A    between atoms: C_18  and  C_27
    7  A    between atoms: C_19  and  C_27
                            x       y       z     vdW  Elec       q    Type
                         _______ _______ _______ _____ _____    ______ ____

>  <TORSDO>
F 7

$$$$
=
 OpenBabel10222416543D

 28 30  0  0  1  0  0  0  0  0999 V2000
  188.7190  178.2720  143.0520 N   0  0  0  0  0  2  0  0  0  0  0  0
  189.7720  177.0830  139.1270 C   0  0  0  0  0  0  0  0  0  0  0  0
  188.2690  178.2540  140.6240 C   0  0  0  0  0  3  0  0  0  0  0  0
  190.5690  176.7180  140.2170 C   0  0  0  0  0  3  0  0  0  0  0  0
  188.6240  177.8570  139.3310 C   0  0  0  0  0  3  0  0  0  0  0  0
  189.0650  177.8840  141.7190 C   0  0  0  0  0  0  0  0  0  0  0  0
  190.2130  177.1130  141.5100 C   0  0  0  0  0  3  0  0  0  0  0  0
  190.1640  176.6750  137.7520 C   0  0  0  0  0  2  0  0  0  0  0  0
  191.0990  175.5610  137.8140 N   0  0  0  0  0  2  0  0  0  0  0  0
  193.5560  176.6980  138.6770 O   0  0  0  0  0  1  0  0  0  0  0  0
  192.1270  175.8170  136.8950 N   0  0  0  0  0  0  0  0  0  0  0  0
  193.3610  176.4040  137.3320 C   0  0  0  0  0  0  0  0  0  0  0  0
  191.8650  175.6240  135.4770 C   0  0  0  0  0  1  0  0  0  0  0  0
  194.2780  176.6570  136.5050 O   0  0  0  0  0  0  0  0  0  0  0  0
  188.0180  177.4070  143.9910 C   0  0  2  0  0  3  0  0  0  0  0  0
  186.1250  178.2320  145.3070 N   0  0  0  0  0  0  0  0  0  0  0  0
  184.5780  178.3750  143.5880 C   0  0  0  0  0  0  0  0  0  0  0  0
  183.3730  178.6040  142.8490 N   0  0  0  0  0  0  0  0  0  0  0  0
  181.8640  178.8100  141.0450 C   0  0  0  0  0  2  0  0  0  0  0  0
  182.1400  179.0660  143.4500 C   0  0  0  0  0  2  0  0  0  0  0  0
  181.1000  179.0040  142.3480 C   0  0  0  0  0  2  0  0  0  0  0  0
  183.2580  178.3540  141.4280 C   0  0  0  0  0  2  0  0  0  0  0  0
  186.6040  177.8690  144.1550 C   0  0  0  0  0  0  0  0  0  0  0  0
  184.7870  178.5790  145.0030 C   0  0  0  0  0  0  0  0  0  0  0  0
  183.9510  179.0030  145.8440 O   0  0  0  0  0  0  0  0  0  0  0  0
  185.6750  177.9480  143.0600 N   0  0  0  0  0  0  0  0  0  0  0  0
  190.1690  177.9060  145.1530 C   0  0  0  0  0  1  0  0  0  0  0  0
  188.7390  177.4280  145.3280 C   0  0  0  0  0  2  0  0  0  0  0  0
  1 15  1  0  0  0  0
  2  5  2  0  0  0  0
  2  4  1  0  0  0  0
  3  6  2  0  0  0  0
  4  7  2  0  0  0  0
  5  3  1  0  0  0  0
  6  1  1  0  0  0  0
  7  6  1  0  0  0  0
  8  9  1  0  0  0  0
  8  2  1  0  0  0  0
 11 12  1  0  0  0  0
 11  9  1  0  0  0  0
 12 10  1  0  0  0  0
 13 11  1  0  0  0  0
 14 12  2  0  0  0  0
 15 23  1  0  0  0  0
 15 28  1  1  0  0  0
 17 24  1  0  0  0  0
 18 20  1  0  0  0  0
 18 17  1  0  0  0  0
 19 22  1  0  0  0  0
 19 21  1  0  0  0  0
 21 20  1  0  0  0  0
 22 18  1  0  0  0  0
 23 16  2  0  0  0  0
 24 16  1  0  0  0  0
 24 25  2  0  0  0  0
 26 17  2  0  0  0  0
 26 23  1  0  0  0  0
 27 28  1  0  0  0  0
M  END
>  <MODEL>
9

>  <REMARK>
 VINA RESULT:      -7.8      2.336      2.862
  Name = 
  7 active torsions:
  status: ('A' for Active; 'I' for Inactive)
    1  A    between atoms: C_2  and  C_15
    2  A    between atoms: N_6  and  C_15
    3  A    between atoms: N_6  and  N_16
    4  A    between atoms: N_11  and  C_23
    5  A    between atoms: N_11  and  C_27
    6  A    between atoms: C_18  and  C_27
    7  A    between atoms: C_19  and  C_27
                            x       y       z     vdW  Elec       q    Type
                         _______ _______ _______ _____ _____    ______ ____

>  <TORSDO>
F 7

$$$$
