=
 OpenBabel10222420323D

 37 40  0  0  1  0  0  0  0  0999 V2000
  189.6840  177.4130  142.3300 N   0  0  0  0  0  0  0  0  0  0  0  0
  187.2230  178.0470  141.3070 C   0  0  0  0  0  3  0  0  0  0  0  0
  188.3650  178.0910  140.5040 C   0  0  0  0  0  0  0  0  0  0  0  0
  189.5700  177.7780  141.0500 N   0  0  0  0  0  0  0  0  0  0  0  0
  188.6030  177.3450  143.1530 C   0  0  0  0  0  0  0  0  0  0  0  0
  187.3370  177.6820  142.6530 C   0  0  0  0  0  0  0  0  0  0  0  0
  186.1270  177.6330  143.5420 C   0  0  2  0  0  3  0  0  0  0  0  0
  185.5300  178.7050  145.5560 C   0  0  1  0  0  3  0  0  0  0  0  0
  185.0520  178.6090  143.0810 C   0  0  2  0  0  3  0  0  0  0  0  0
  186.4630  177.9860  144.9530 C   0  0  0  0  0  2  0  0  0  0  0  0
  185.7270  179.2630  146.9220 C   0  0  0  0  0  1  0  0  0  0  0  0
  184.1140  179.1280  144.5570 S   0  0  0  0  0  0  0  0  0  0  0  0
  184.1660  177.9480  142.1380 N   0  0  0  0  0  2  0  0  0  0  0  0
  183.5960  178.9810  141.2810 C   0  0  1  0  0  3  0  0  0  0  0  0
  182.0940  179.4480  138.7650 C   0  0  0  0  0  2  0  0  0  0  0  0
  181.4740  178.2000  142.0260 O   0  0  0  0  0  0  0  0  0  0  0  0
  184.2420  178.9110  139.8990 C   0  0  0  0  0  2  0  0  0  0  0  0
  183.5490  179.8690  138.9320 C   0  0  0  0  0  2  0  0  0  0  0  0
  181.3520  179.5500  140.0970 C   0  0  0  0  0  2  0  0  0  0  0  0
  182.0980  178.8200  141.1760 C   0  0  0  0  0  0  0  0  0  0  0  0
  189.1110  179.2680  138.5830 O   0  0  0  0  0  0  0  0  0  0  0  0
  188.2750  178.4660  139.0850 C   0  0  0  0  0  0  0  0  0  0  0  0
  187.2250  177.9260  138.2790 N   0  0  0  0  0  2  0  0  0  0  0  0
  187.0490  178.2820  136.8790 C   0  0  0  0  0  2  0  0  0  0  0  0
  186.1180  177.2930  136.1930 C   0  0  0  0  0  2  0  0  0  0  0  0
  185.1500  176.6620  137.1790 C   0  0  0  0  0  2  0  0  0  0  0  0
  186.3400  174.6690  136.9560 C   0  0  0  0  0  1  0  0  0  0  0  0
  185.0070  175.2420  136.8950 N   0  0  0  0  0  2  0  0  0  0  0  0
  188.7560  176.9170  144.5120 N   0  0  0  0  0  2  0  0  0  0  0  0
  189.2650  177.7460  147.9240 C   0  0  0  0  0  1  0  0  0  0  0  0
  191.0450  177.6620  144.9490 C   0  0  0  0  0  2  0  0  0  0  0  0
  189.6630  176.8380  146.7720 C   0  0  2  0  0  3  0  0  0  0  0  0
  191.0980  176.4850  146.8790 C   0  0  0  0  0  0  0  0  0  0  0  0
  191.8330  176.9190  145.9140 N   0  0  0  0  0  0  0  0  0  0  0  0
  189.6030  177.6210  145.4660 C   0  0  2  0  0  3  0  0  0  0  0  0
  191.6090  175.7340  147.9400 O   0  0  0  0  0  0  0  0  0  0  0  0
  192.9570  175.8560  148.3720 C   0  0  0  0  0  1  0  0  0  0  0  0
  1  5  2  0  0  0  0
  2  6  2  0  0  0  0
  3  4  2  0  0  0  0
  3  2  1  0  0  0  0
  4  1  1  0  0  0  0
  5 29  1  0  0  0  0
  6  5  1  0  0  0  0
  7  6  1  6  0  0  0
  7 10  1  0  0  0  0
  8 11  1  6  0  0  0
  9 13  1  6  0  0  0
  9  7  1  0  0  0  0
  9 12  1  0  0  0  0
 10  8  1  0  0  0  0
 12  8  1  0  0  0  0
 14 13  1  1  0  0  0
 15 18  1  0  0  0  0
 15 19  1  0  0  0  0
 17 14  1  0  0  0  0
 18 17  1  0  0  0  0
 19 20  1  0  0  0  0
 20 14  1  0  0  0  0
 20 16  2  0  0  0  0
 21 22  2  0  0  0  0
 22  3  1  0  0  0  0
 23 22  1  0  0  0  0
 24 23  1  0  0  0  0
 25 24  1  0  0  0  0
 25 26  1  0  0  0  0
 28 27  1  0  0  0  0
 28 26  1  0  0  0  0
 31 35  1  0  0  0  0
 31 34  1  0  0  0  0
 32 33  1  0  0  0  0
 32 30  1  1  0  0  0
 33 36  1  0  0  0  0
 34 33  2  0  0  0  0
 35 29  1  6  0  0  0
 35 32  1  0  0  0  0
 36 37  1  0  0  0  0
M  END
>  <MODEL>
1

>  <REMARK>
 VINA RESULT:      -8.3      0.000      0.000
  Name = 
  11 active torsions:
  status: ('A' for Active; 'I' for Inactive)
    1  A    between atoms: C_1  and  N_13
    2  A    between atoms: C_5  and  C_15
    3  A    between atoms: O_6  and  C_27
    4  A    between atoms: C_7  and  C_34
    5  A    between atoms: C_10  and  N_13
    6  A    between atoms: N_12  and  C_23
    7  A    between atoms: N_12  and  C_36
    8  A    between atoms: C_14  and  N_25
    9  A    between atoms: C_14  and  C_28
   10  A    between atoms: N_24  and  C_35
   11  A    between atoms: C_28  and  C_35
                            x       y       z     vdW  Elec       q    Type
                         _______ _______ _______ _____ _____    ______ ____

>  <TORSDO>
F 11

$$$$
=
 OpenBabel10222420323D

 37 40  0  0  1  0  0  0  0  0999 V2000
  189.5340  177.4010  139.0140 N   0  0  0  0  0  0  0  0  0  0  0  0
  188.1970  177.7080  141.3850 C   0  0  0  0  0  3  0  0  0  0  0  0
  189.4650  177.1240  141.3490 C   0  0  0  0  0  0  0  0  0  0  0  0
  190.0930  176.9810  140.1520 N   0  0  0  0  0  0  0  0  0  0  0  0
  188.3050  177.9850  138.9940 C   0  0  0  0  0  0  0  0  0  0  0  0
  187.5970  178.1360  140.1950 C   0  0  0  0  0  0  0  0  0  0  0  0
  186.2320  178.7610  140.2030 C   0  0  2  0  0  3  0  0  0  0  0  0
  184.1760  178.2180  139.1820 C   0  0  1  0  0  3  0  0  0  0  0  0
  185.4010  178.2820  141.3860 C   0  0  2  0  0  3  0  0  0  0  0  0
  185.4640  178.4280  138.9660 C   0  0  0  0  0  2  0  0  0  0  0  0
  183.2620  177.7530  138.1030 C   0  0  0  0  0  1  0  0  0  0  0  0
  183.6490  178.3330  140.8830 S   0  0  0  0  0  0  0  0  0  0  0  0
  185.6160  179.1630  142.5210 N   0  0  0  0  0  2  0  0  0  0  0  0
  185.3940  178.3780  143.7290 C   0  0  1  0  0  3  0  0  0  0  0  0
  185.6820  178.3880  146.6830 C   0  0  0  0  0  2  0  0  0  0  0  0
  183.6450  179.9190  144.2150 O   0  0  0  0  0  0  0  0  0  0  0  0
  186.7260  178.1430  144.4390 C   0  0  0  0  0  2  0  0  0  0  0  0
  186.5050  177.4680  145.7900 C   0  0  0  0  0  2  0  0  0  0  0  0
  184.2990  178.6270  146.0740 C   0  0  0  0  0  2  0  0  0  0  0  0
  184.4180  179.0760  144.6470 C   0  0  0  0  0  0  0  0  0  0  0  0
  190.2680  175.4360  142.8120 O   0  0  0  0  0  0  0  0  0  0  0  0
  190.1210  176.6700  142.5840 C   0  0  0  0  0  0  0  0  0  0  0  0
  190.5810  177.6350  143.5320 N   0  0  0  0  0  2  0  0  0  0  0  0
  191.2040  177.2600  144.7930 C   0  0  0  0  0  2  0  0  0  0  0  0
  190.2060  177.3850  145.9360 C   0  0  0  0  0  2  0  0  0  0  0  0
  190.5940  176.5070  147.1130 C   0  0  0  0  0  2  0  0  0  0  0  0
  192.5870  175.6920  148.0060 C   0  0  0  0  0  1  0  0  0  0  0  0
  191.8930  176.9100  147.6280 N   0  0  0  0  0  2  0  0  0  0  0  0
  187.7490  178.4560  137.7590 N   0  0  0  0  0  2  0  0  0  0  0  0
  188.1820  175.2430  136.3190 C   0  0  0  0  0  1  0  0  0  0  0  0
  187.0030  178.3800  135.4300 C   0  0  0  0  0  2  0  0  0  0  0  0
  187.1920  176.3260  136.7170 C   0  0  2  0  0  3  0  0  0  0  0  0
  186.0600  176.3520  135.7600 C   0  0  0  0  0  0  0  0  0  0  0  0
  185.9570  177.4400  135.0790 N   0  0  0  0  0  0  0  0  0  0  0  0
  187.8330  177.6940  136.5200 C   0  0  2  0  0  3  0  0  0  0  0  0
  185.1730  175.2830  135.6180 O   0  0  0  0  0  0  0  0  0  0  0  0
  183.8300  175.4670  135.1960 C   0  0  0  0  0  1  0  0  0  0  0  0
  1  4  1  0  0  0  0
  3  2  1  0  0  0  0
  3 22  1  0  0  0  0
  4  3  2  0  0  0  0
  5  1  2  0  0  0  0
  5  6  1  0  0  0  0
  6  2  2  0  0  0  0
  7  6  1  6  0  0  0
  7  9  1  0  0  0  0
  8 11  1  1  0  0  0
  8 12  1  0  0  0  0
  9 13  1  1  0  0  0
 10  8  1  0  0  0  0
 10  7  1  0  0  0  0
 12  9  1  0  0  0  0
 14 13  1  6  0  0  0
 14 17  1  0  0  0  0
 14 20  1  0  0  0  0
 16 20  2  0  0  0  0
 17 18  1  0  0  0  0
 18 15  1  0  0  0  0
 19 15  1  0  0  0  0
 20 19  1  0  0  0  0
 22 21  2  0  0  0  0
 22 23  1  0  0  0  0
 23 24  1  0  0  0  0
 24 25  1  0  0  0  0
 25 26  1  0  0  0  0
 26 28  1  0  0  0  0
 28 27  1  0  0  0  0
 29  5  1  0  0  0  0
 31 35  1  0  0  0  0
 32 30  1  6  0  0  0
 33 32  1  0  0  0  0
 34 31  1  0  0  0  0
 34 33  2  0  0  0  0
 35 32  1  0  0  0  0
 35 29  1  1  0  0  0
 36 33  1  0  0  0  0
 37 36  1  0  0  0  0
M  END
>  <MODEL>
2

>  <REMARK>
 VINA RESULT:      -8.2      2.162      8.173
  Name = 
  11 active torsions:
  status: ('A' for Active; 'I' for Inactive)
    1  A    between atoms: C_1  and  N_13
    2  A    between atoms: C_5  and  C_15
    3  A    between atoms: O_6  and  C_27
    4  A    between atoms: C_7  and  C_34
    5  A    between atoms: C_10  and  N_13
    6  A    between atoms: N_12  and  C_23
    7  A    between atoms: N_12  and  C_36
    8  A    between atoms: C_14  and  N_25
    9  A    between atoms: C_14  and  C_28
   10  A    between atoms: N_24  and  C_35
   11  A    between atoms: C_28  and  C_35
                            x       y       z     vdW  Elec       q    Type
                         _______ _______ _______ _____ _____    ______ ____

>  <TORSDO>
F 11

$$$$
=
 OpenBabel10222420323D

 37 40  0  0  1  0  0  0  0  0999 V2000
  186.1730  179.0550  140.1420 N   0  0  0  0  0  0  0  0  0  0  0  0
  186.5150  178.0980  142.6870 C   0  0  0  0  0  3  0  0  0  0  0  0
  185.3760  178.8300  142.3440 C   0  0  0  0  0  0  0  0  0  0  0  0
  185.2470  179.2950  141.0740 N   0  0  0  0  0  0  0  0  0  0  0  0
  187.2970  178.3380  140.4210 C   0  0  0  0  0  0  0  0  0  0  0  0
  187.4990  177.8540  141.7210 C   0  0  0  0  0  0  0  0  0  0  0  0
  188.7370  177.0760  142.0630 C   0  0  2  0  0  3  0  0  0  0  0  0
  191.0190  177.3030  141.5100 C   0  0  1  0  0  3  0  0  0  0  0  0
  189.3440  177.5360  143.3810 C   0  0  2  0  0  3  0  0  0  0  0  0
  189.7920  177.2300  141.0180 C   0  0  0  0  0  2  0  0  0  0  0  0
  192.1980  177.5810  140.6460 C   0  0  0  0  0  1  0  0  0  0  0  0
  191.1410  177.2450  143.2890 S   0  0  0  0  0  0  0  0  0  0  0  0
  188.7730  176.7670  144.4750 N   0  0  0  0  0  2  0  0  0  0  0  0
  188.5740  177.6820  145.5920 C   0  0  1  0  0  3  0  0  0  0  0  0
  187.7510  177.8470  148.4380 C   0  0  0  0  0  2  0  0  0  0  0  0
  190.5160  176.6860  146.5440 O   0  0  0  0  0  0  0  0  0  0  0  0
  187.1160  177.6260  146.0440 C   0  0  0  0  0  2  0  0  0  0  0  0
  186.9150  178.4470  147.3150 C   0  0  0  0  0  2  0  0  0  0  0  0
  189.2390  177.9200  148.0940 C   0  0  0  0  0  2  0  0  0  0  0  0
  189.4980  177.3370  146.7360 C   0  0  0  0  0  0  0  0  0  0  0  0
  184.6220  179.5680  144.4700 O   0  0  0  0  0  0  0  0  0  0  0  0
  184.3250  179.0960  143.3370 C   0  0  0  0  0  0  0  0  0  0  0  0
  182.9630  178.8050  143.0160 N   0  0  0  0  0  2  0  0  0  0  0  0
  181.8750  179.0050  143.9600 C   0  0  0  0  0  2  0  0  0  0  0  0
  180.6010  178.3470  143.4500 C   0  0  0  0  0  2  0  0  0  0  0  0
  179.9890  179.1310  142.3010 C   0  0  0  0  0  2  0  0  0  0  0  0
  179.0970  181.1750  141.6220 C   0  0  0  0  0  1  0  0  0  0  0  0
  179.8970  180.5390  142.6540 N   0  0  0  0  0  2  0  0  0  0  0  0
  188.2550  178.0690  139.3890 N   0  0  0  0  0  2  0  0  0  0  0  0
  189.3220  177.9280  136.0080 C   0  0  0  0  0  1  0  0  0  0  0  0
  186.7610  176.7120  138.0050 C   0  0  0  0  0  2  0  0  0  0  0  0
  189.0410  177.1410  137.2780 C   0  0  2  0  0  3  0  0  0  0  0  0
  188.5270  175.7940  136.9340 C   0  0  0  0  0  0  0  0  0  0  0  0
  187.3200  175.5640  137.3200 N   0  0  0  0  0  0  0  0  0  0  0  0
  187.8670  177.7730  138.0160 C   0  0  2  0  0  3  0  0  0  0  0  0
  189.2970  174.8490  136.2530 O   0  0  0  0  0  0  0  0  0  0  0  0
  189.6700  173.6120  136.8420 C   0  0  0  0  0  1  0  0  0  0  0  0
  1  5  2  0  0  0  0
  1  4  1  0  0  0  0
  3  2  1  0  0  0  0
  3 22  1  0  0  0  0
  4  3  2  0  0  0  0
  5  6  1  0  0  0  0
  6  2  2  0  0  0  0
  7  6  1  6  0  0  0
  7  9  1  0  0  0  0
  8 11  1  1  0  0  0
  8 12  1  0  0  0  0
  9 13  1  1  0  0  0
 10  8  1  0  0  0  0
 10  7  1  0  0  0  0
 12  9  1  0  0  0  0
 14 13  1  6  0  0  0
 14 17  1  0  0  0  0
 14 20  1  0  0  0  0
 16 20  2  0  0  0  0
 17 18  1  0  0  0  0
 18 15  1  0  0  0  0
 19 15  1  0  0  0  0
 20 19  1  0  0  0  0
 22 21  2  0  0  0  0
 23 22  1  0  0  0  0
 23 24  1  0  0  0  0
 25 24  1  0  0  0  0
 26 28  1  0  0  0  0
 26 25  1  0  0  0  0
 27 28  1  0  0  0  0
 29  5  1  0  0  0  0
 31 35  1  0  0  0  0
 32 30  1  6  0  0  0
 32 35  1  0  0  0  0
 33 32  1  0  0  0  0
 33 34  2  0  0  0  0
 34 31  1  0  0  0  0
 35 29  1  1  0  0  0
 36 37  1  0  0  0  0
 36 33  1  0  0  0  0
M  END
>  <MODEL>
3

>  <REMARK>
 VINA RESULT:      -8.2      2.618      8.052
  Name = 
  11 active torsions:
  status: ('A' for Active; 'I' for Inactive)
    1  A    between atoms: C_1  and  N_13
    2  A    between atoms: C_5  and  C_15
    3  A    between atoms: O_6  and  C_27
    4  A    between atoms: C_7  and  C_34
    5  A    between atoms: C_10  and  N_13
    6  A    between atoms: N_12  and  C_23
    7  A    between atoms: N_12  and  C_36
    8  A    between atoms: C_14  and  N_25
    9  A    between atoms: C_14  and  C_28
   10  A    between atoms: N_24  and  C_35
   11  A    between atoms: C_28  and  C_35
                            x       y       z     vdW  Elec       q    Type
                         _______ _______ _______ _____ _____    ______ ____

>  <TORSDO>
F 11

$$$$
=
 OpenBabel10222420323D

 37 40  0  0  1  0  0  0  0  0999 V2000
  186.7600  178.8160  140.6150 N   0  0  0  0  0  0  0  0  0  0  0  0
  185.5000  178.1440  138.2770 C   0  0  0  0  0  3  0  0  0  0  0  0
  186.8930  178.0910  138.3810 C   0  0  0  0  0  0  0  0  0  0  0  0
  187.4810  178.4400  139.5550 N   0  0  0  0  0  0  0  0  0  0  0  0
  185.4010  178.8750  140.5700 C   0  0  0  0  0  0  0  0  0  0  0  0
  184.7380  178.5510  139.3780 C   0  0  0  0  0  0  0  0  0  0  0  0
  183.2410  178.6230  139.2930 C   0  0  2  0  0  3  0  0  0  0  0  0
  181.7310  180.0410  138.1620 C   0  0  1  0  0  3  0  0  0  0  0  0
  182.6950  177.7100  138.2030 C   0  0  2  0  0  3  0  0  0  0  0  0
  182.7710  180.0060  138.9800 C   0  0  0  0  0  2  0  0  0  0  0  0
  181.1900  181.3210  137.6310 C   0  0  0  0  0  1  0  0  0  0  0  0
  181.1500  178.4560  137.5840 S   0  0  0  0  0  0  0  0  0  0  0  0
  182.4220  176.3960  138.7600 N   0  0  0  0  0  2  0  0  0  0  0  0
  182.5460  175.4290  137.6760 C   0  0  1  0  0  3  0  0  0  0  0  0
  182.8940  172.5480  137.0600 C   0  0  0  0  0  2  0  0  0  0  0  0
  180.3620  174.7070  138.2850 O   0  0  0  0  0  0  0  0  0  0  0  0
  183.8890  174.7090  137.7850 C   0  0  0  0  0  2  0  0  0  0  0  0
  183.9770  173.5770  136.7630 C   0  0  0  0  0  2  0  0  0  0  0  0
  181.5070  173.1720  136.9110 C   0  0  0  0  0  2  0  0  0  0  0  0
  181.4070  174.4390  137.7110 C   0  0  0  0  0  0  0  0  0  0  0  0
  188.3100  178.5160  136.5260 O   0  0  0  0  0  0  0  0  0  0  0  0
  187.7180  177.6610  137.2420 C   0  0  0  0  0  0  0  0  0  0  0  0
  187.8350  176.2690  136.9440 N   0  0  0  0  0  2  0  0  0  0  0  0
  188.6020  175.7720  135.8120 C   0  0  0  0  0  2  0  0  0  0  0  0
  189.7160  174.8500  136.2870 C   0  0  0  0  0  2  0  0  0  0  0  0
  190.8300  175.6260  136.9680 C   0  0  0  0  0  2  0  0  0  0  0  0
  190.7100  176.4450  139.1480 C   0  0  0  0  0  1  0  0  0  0  0  0
  190.9220  175.2390  138.3670 N   0  0  0  0  0  2  0  0  0  0  0  0
  184.6560  179.2490  141.7370 N   0  0  0  0  0  2  0  0  0  0  0  0
  186.3860  177.3810  144.2070 C   0  0  0  0  0  1  0  0  0  0  0  0
  183.2290  178.7010  143.6470 C   0  0  0  0  0  2  0  0  0  0  0  0
  185.6490  178.6700  143.8840 C   0  0  2  0  0  3  0  0  0  0  0  0
  184.9180  179.1470  145.0830 C   0  0  0  0  0  0  0  0  0  0  0  0
  183.6360  179.1650  144.9590 N   0  0  0  0  0  0  0  0  0  0  0  0
  184.5260  178.3780  142.8970 C   0  0  2  0  0  3  0  0  0  0  0  0
  185.5710  179.5500  146.2490 O   0  0  0  0  0  0  0  0  0  0  0  0
  185.8970  178.6380  147.2870 C   0  0  0  0  0  1  0  0  0  0  0  0
  2  3  1  0  0  0  0
  2  6  2  0  0  0  0
  3  4  2  0  0  0  0
  4  1  1  0  0  0  0
  5  1  2  0  0  0  0
  5 29  1  0  0  0  0
  6  5  1  0  0  0  0
  7  6  1  6  0  0  0
  8 11  1  6  0  0  0
  8 10  1  0  0  0  0
  9 13  1  1  0  0  0
  9  7  1  0  0  0  0
 10  7  1  0  0  0  0
 12  8  1  0  0  0  0
 12  9  1  0  0  0  0
 14 20  1  0  0  0  0
 14 17  1  0  0  0  0
 14 13  1  1  0  0  0
 18 15  1  0  0  0  0
 18 17  1  0  0  0  0
 19 15  1  0  0  0  0
 19 20  1  0  0  0  0
 20 16  2  0  0  0  0
 21 22  2  0  0  0  0
 22  3  1  0  0  0  0
 23 22  1  0  0  0  0
 24 25  1  0  0  0  0
 24 23  1  0  0  0  0
 25 26  1  0  0  0  0
 26 28  1  0  0  0  0
 28 27  1  0  0  0  0
 31 34  1  0  0  0  0
 32 30  1  1  0  0  0
 32 33  1  0  0  0  0
 33 36  1  0  0  0  0
 34 33  2  0  0  0  0
 35 29  1  6  0  0  0
 35 31  1  0  0  0  0
 35 32  1  0  0  0  0
 36 37  1  0  0  0  0
M  END
>  <MODEL>
4

>  <REMARK>
 VINA RESULT:      -7.8      3.554      5.815
  Name = 
  11 active torsions:
  status: ('A' for Active; 'I' for Inactive)
    1  A    between atoms: C_1  and  N_13
    2  A    between atoms: C_5  and  C_15
    3  A    between atoms: O_6  and  C_27
    4  A    between atoms: C_7  and  C_34
    5  A    between atoms: C_10  and  N_13
    6  A    between atoms: N_12  and  C_23
    7  A    between atoms: N_12  and  C_36
    8  A    between atoms: C_14  and  N_25
    9  A    between atoms: C_14  and  C_28
   10  A    between atoms: N_24  and  C_35
   11  A    between atoms: C_28  and  C_35
                            x       y       z     vdW  Elec       q    Type
                         _______ _______ _______ _____ _____    ______ ____

>  <TORSDO>
F 11

$$$$
=
 OpenBabel10222420323D

 37 40  0  0  1  0  0  0  0  0999 V2000
  186.7970  178.5060  139.8690 N   0  0  0  0  0  0  0  0  0  0  0  0
  187.0960  178.1110  142.5640 C   0  0  0  0  0  3  0  0  0  0  0  0
  188.0450  177.6280  141.6600 C   0  0  0  0  0  0  0  0  0  0  0  0
  187.8570  177.8360  140.3300 N   0  0  0  0  0  0  0  0  0  0  0  0
  185.8490  179.0060  140.7070 C   0  0  0  0  0  0  0  0  0  0  0  0
  185.9740  178.8010  142.0880 C   0  0  0  0  0  0  0  0  0  0  0  0
  184.9340  179.3260  143.0360 C   0  0  2  0  0  3  0  0  0  0  0  0
  182.6650  178.8150  143.4240 C   0  0  1  0  0  3  0  0  0  0  0  0
  184.9900  178.6140  144.3810 C   0  0  2  0  0  3  0  0  0  0  0  0
  183.5540  179.1410  142.4990 C   0  0  0  0  0  2  0  0  0  0  0  0
  181.2600  178.4660  143.0780 C   0  0  0  0  0  1  0  0  0  0  0  0
  183.3050  178.6280  145.0790 S   0  0  0  0  0  0  0  0  0  0  0  0
  185.8990  179.3190  145.2680 N   0  0  0  0  0  2  0  0  0  0  0  0
  186.4210  178.3450  146.2200 C   0  0  1  0  0  3  0  0  0  0  0  0
  188.7370  177.6920  147.9560 C   0  0  0  0  0  2  0  0  0  0  0  0
  186.0550  180.0120  147.8800 O   0  0  0  0  0  0  0  0  0  0  0  0
  187.7250  177.7560  145.6850 C   0  0  0  0  0  2  0  0  0  0  0  0
  188.3790  176.8580  146.7320 C   0  0  0  0  0  2  0  0  0  0  0  0
  187.4750  178.2720  148.5950 C   0  0  0  0  0  2  0  0  0  0  0  0
  186.6410  178.9840  147.5710 C   0  0  0  0  0  0  0  0  0  0  0  0
  189.1240  175.7470  142.6250 O   0  0  0  0  0  0  0  0  0  0  0  0
  189.2350  176.9050  142.1320 C   0  0  0  0  0  0  0  0  0  0  0  0
  190.5180  177.5270  142.0400 N   0  0  0  0  0  2  0  0  0  0  0  0
  191.7340  176.8890  142.5220 C   0  0  0  0  0  2  0  0  0  0  0  0
  191.5760  176.4760  143.9780 C   0  0  0  0  0  2  0  0  0  0  0  0
  191.4660  177.6840  144.8920 C   0  0  0  0  0  2  0  0  0  0  0  0
  192.0490  175.8760  146.2430 C   0  0  0  0  0  1  0  0  0  0  0  0
  191.7480  177.2960  146.2660 N   0  0  0  0  0  2  0  0  0  0  0  0
  184.7420  179.7500  140.1810 N   0  0  0  0  0  2  0  0  0  0  0  0
  183.8190  177.0350  138.0940 C   0  0  0  0  0  1  0  0  0  0  0  0
  182.8590  180.3080  138.7210 C   0  0  0  0  0  2  0  0  0  0  0  0
  183.3840  177.9820  139.2000 C   0  0  2  0  0  3  0  0  0  0  0  0
  181.9360  178.2740  139.0750 C   0  0  0  0  0  0  0  0  0  0  0  0
  181.6560  179.5060  138.8230 N   0  0  0  0  0  0  0  0  0  0  0  0
  184.0250  179.3470  138.9790 C   0  0  2  0  0  3  0  0  0  0  0  0
  180.9570  177.2910  139.2280 O   0  0  0  0  0  0  0  0  0  0  0  0
  181.2560  175.9970  139.7300 C   0  0  0  0  0  1  0  0  0  0  0  0
  1  4  1  0  0  0  0
  1  5  2  0  0  0  0
  3 22  1  0  0  0  0
  3  2  1  0  0  0  0
  4  3  2  0  0  0  0
  5  6  1  0  0  0  0
  6  2  2  0  0  0  0
  7  6  1  6  0  0  0
  7  9  1  0  0  0  0
  8 11  1  6  0  0  0
  8 12  1  0  0  0  0
  9 12  1  0  0  0  0
  9 13  1  1  0  0  0
 10  7  1  0  0  0  0
 10  8  1  0  0  0  0
 14 13  1  6  0  0  0
 14 20  1  0  0  0  0
 15 19  1  0  0  0  0
 17 14  1  0  0  0  0
 17 18  1  0  0  0  0
 18 15  1  0  0  0  0
 20 16  2  0  0  0  0
 20 19  1  0  0  0  0
 22 21  2  0  0  0  0
 23 22  1  0  0  0  0
 23 24  1  0  0  0  0
 24 25  1  0  0  0  0
 25 26  1  0  0  0  0
 26 28  1  0  0  0  0
 27 28  1  0  0  0  0
 29  5  1  0  0  0  0
 31 34  1  0  0  0  0
 31 35  1  0  0  0  0
 32 30  1  6  0  0  0
 33 32  1  0  0  0  0
 33 36  1  0  0  0  0
 34 33  2  0  0  0  0
 35 32  1  0  0  0  0
 35 29  1  1  0  0  0
 36 37  1  0  0  0  0
M  END
>  <MODEL>
5

>  <REMARK>
 VINA RESULT:      -7.8      2.328      8.061
  Name = 
  11 active torsions:
  status: ('A' for Active; 'I' for Inactive)
    1  A    between atoms: C_1  and  N_13
    2  A    between atoms: C_5  and  C_15
    3  A    between atoms: O_6  and  C_27
    4  A    between atoms: C_7  and  C_34
    5  A    between atoms: C_10  and  N_13
    6  A    between atoms: N_12  and  C_23
    7  A    between atoms: N_12  and  C_36
    8  A    between atoms: C_14  and  N_25
    9  A    between atoms: C_14  and  C_28
   10  A    between atoms: N_24  and  C_35
   11  A    between atoms: C_28  and  C_35
                            x       y       z     vdW  Elec       q    Type
                         _______ _______ _______ _____ _____    ______ ____

>  <TORSDO>
F 11

$$$$
=
 OpenBabel10222420323D

 37 40  0  0  1  0  0  0  0  0999 V2000
  186.1010  179.0590  140.5570 N   0  0  0  0  0  0  0  0  0  0  0  0
  183.6450  178.2080  141.4250 C   0  0  0  0  0  3  0  0  0  0  0  0
  184.5660  178.7640  142.3150 C   0  0  0  0  0  0  0  0  0  0  0  0
  185.7770  179.1670  141.8480 N   0  0  0  0  0  0  0  0  0  0  0  0
  185.2370  178.5320  139.6460 C   0  0  0  0  0  0  0  0  0  0  0  0
  183.9820  178.0760  140.0730 C   0  0  0  0  0  0  0  0  0  0  0  0
  183.0140  177.4750  139.0940 C   0  0  2  0  0  3  0  0  0  0  0  0
  181.1500  176.0440  139.3010 C   0  0  1  0  0  3  0  0  0  0  0  0
  181.8520  178.4160  138.8030 C   0  0  2  0  0  3  0  0  0  0  0  0
  182.4280  176.2010  139.6070 C   0  0  0  0  0  2  0  0  0  0  0  0
  180.3500  174.9030  139.8230 C   0  0  0  0  0  1  0  0  0  0  0  0
  180.4030  177.3870  138.3940 S   0  0  0  0  0  0  0  0  0  0  0  0
  182.1870  179.2700  137.6760 N   0  0  0  0  0  2  0  0  0  0  0  0
  181.1300  180.2670  137.5570 C   0  0  1  0  0  3  0  0  0  0  0  0
  180.4850  182.9640  136.4990 C   0  0  0  0  0  2  0  0  0  0  0  0
  181.0740  179.6980  135.2470 O   0  0  0  0  0  0  0  0  0  0  0  0
  181.5680  181.5600  138.2440 C   0  0  0  0  0  2  0  0  0  0  0  0
  180.5530  182.6730  137.9940 C   0  0  0  0  0  2  0  0  0  0  0  0
  179.9920  181.7340  135.7370 C   0  0  0  0  0  2  0  0  0  0  0  0
  180.7970  180.5220  136.1060 C   0  0  0  0  0  0  0  0  0  0  0  0
  183.1580  179.4750  144.0890 O   0  0  0  0  0  0  0  0  0  0  0  0
  184.2370  178.9200  143.7400 C   0  0  0  0  0  0  0  0  0  0  0  0
  185.1540  178.4490  144.7300 N   0  0  0  0  0  2  0  0  0  0  0  0
  184.9150  178.6030  146.1570 C   0  0  0  0  0  2  0  0  0  0  0  0
  186.2340  178.6380  146.9160 C   0  0  0  0  0  2  0  0  0  0  0  0
  187.2480  177.6790  146.3160 C   0  0  0  0  0  2  0  0  0  0  0  0
  188.0840  177.8860  148.4830 C   0  0  0  0  0  1  0  0  0  0  0  0
  188.4750  177.7020  147.0960 N   0  0  0  0  0  2  0  0  0  0  0  0
  185.6020  178.4630  138.2610 N   0  0  0  0  0  2  0  0  0  0  0  0
  188.7660  176.9720  138.8540 C   0  0  0  0  0  1  0  0  0  0  0  0
  187.0700  178.6040  136.3080 C   0  0  0  0  0  2  0  0  0  0  0  0
  187.4890  176.9400  138.0310 C   0  0  2  0  0  3  0  0  0  0  0  0
  187.7900  176.4890  136.6510 C   0  0  0  0  0  0  0  0  0  0  0  0
  187.5670  177.3680  135.7370 N   0  0  0  0  0  0  0  0  0  0  0  0
  186.9870  178.3630  137.8190 C   0  0  2  0  0  3  0  0  0  0  0  0
  188.2680  175.2080  136.3680 O   0  0  0  0  0  0  0  0  0  0  0  0
  187.5910  174.0360  136.7970 C   0  0  0  0  0  1  0  0  0  0  0  0
  1  4  1  0  0  0  0
  2  3  1  0  0  0  0
  3 22  1  0  0  0  0
  4  3  2  0  0  0  0
  5  6  1  0  0  0  0
  5  1  2  0  0  0  0
  6  2  2  0  0  0  0
  7 10  1  0  0  0  0
  7  6  1  1  0  0  0
  8 10  1  0  0  0  0
  8 11  1  1  0  0  0
  9 13  1  6  0  0  0
  9  7  1  0  0  0  0
 12  9  1  0  0  0  0
 12  8  1  0  0  0  0
 14 13  1  6  0  0  0
 14 17  1  0  0  0  0
 15 18  1  0  0  0  0
 16 20  2  0  0  0  0
 18 17  1  0  0  0  0
 19 20  1  0  0  0  0
 19 15  1  0  0  0  0
 20 14  1  0  0  0  0
 22 21  2  0  0  0  0
 22 23  1  0  0  0  0
 23 24  1  0  0  0  0
 24 25  1  0  0  0  0
 26 25  1  0  0  0  0
 26 28  1  0  0  0  0
 28 27  1  0  0  0  0
 29  5  1  0  0  0  0
 31 35  1  0  0  0  0
 32 30  1  1  0  0  0
 33 32  1  0  0  0  0
 34 31  1  0  0  0  0
 34 33  2  0  0  0  0
 35 32  1  0  0  0  0
 35 29  1  6  0  0  0
 36 33  1  0  0  0  0
 36 37  1  0  0  0  0
M  END
>  <MODEL>
6

>  <REMARK>
 VINA RESULT:      -7.7      3.288      7.845
  Name = 
  11 active torsions:
  status: ('A' for Active; 'I' for Inactive)
    1  A    between atoms: C_1  and  N_13
    2  A    between atoms: C_5  and  C_15
    3  A    between atoms: O_6  and  C_27
    4  A    between atoms: C_7  and  C_34
    5  A    between atoms: C_10  and  N_13
    6  A    between atoms: N_12  and  C_23
    7  A    between atoms: N_12  and  C_36
    8  A    between atoms: C_14  and  N_25
    9  A    between atoms: C_14  and  C_28
   10  A    between atoms: N_24  and  C_35
   11  A    between atoms: C_28  and  C_35
                            x       y       z     vdW  Elec       q    Type
                         _______ _______ _______ _____ _____    ______ ____

>  <TORSDO>
F 11

$$$$
=
 OpenBabel10222420323D

 37 40  0  0  1  0  0  0  0  0999 V2000
  182.9450  178.9790  144.6660 N   0  0  0  0  0  0  0  0  0  0  0  0
  185.6060  178.3830  144.4040 C   0  0  0  0  0  3  0  0  0  0  0  0
  185.0790  178.7800  145.6350 C   0  0  0  0  0  0  0  0  0  0  0  0
  183.7550  179.0750  145.7230 N   0  0  0  0  0  0  0  0  0  0  0  0
  183.4050  178.5880  143.4460 C   0  0  0  0  0  0  0  0  0  0  0  0
  184.7670  178.2950  143.2870 C   0  0  0  0  0  0  0  0  0  0  0  0
  185.3080  177.8780  141.9490 C   0  0  2  0  0  3  0  0  0  0  0  0
  185.1910  178.7930  139.7780 C   0  0  1  0  0  3  0  0  0  0  0  0
  186.7290  178.3830  141.7360 C   0  0  2  0  0  3  0  0  0  0  0  0
  184.4800  178.4140  140.8280 C   0  0  0  0  0  2  0  0  0  0  0  0
  184.5680  179.4680  138.6080 C   0  0  0  0  0  1  0  0  0  0  0  0
  186.9600  178.6280  139.9440 S   0  0  0  0  0  0  0  0  0  0  0  0
  187.6750  177.3960  142.2270 N   0  0  0  0  0  2  0  0  0  0  0  0
  188.9680  178.0580  142.3520 C   0  0  1  0  0  3  0  0  0  0  0  0
  191.6930  177.8010  143.4990 C   0  0  0  0  0  2  0  0  0  0  0  0
  189.7850  176.3890  140.8640 O   0  0  0  0  0  0  0  0  0  0  0  0
  189.2780  178.2990  143.8280 C   0  0  0  0  0  2  0  0  0  0  0  0
  190.6960  178.8390  143.9990 C   0  0  0  0  0  2  0  0  0  0  0  0
  191.4930  177.5440  142.0050 C   0  0  0  0  0  2  0  0  0  0  0  0
  190.0560  177.2300  141.7090 C   0  0  0  0  0  0  0  0  0  0  0  0
  185.6940  179.7360  147.7190 O   0  0  0  0  0  0  0  0  0  0  0  0
  185.9360  178.8760  146.8260 C   0  0  0  0  0  0  0  0  0  0  0  0
  187.0540  177.9960  146.9610 N   0  0  0  0  0  2  0  0  0  0  0  0
  187.9680  178.0590  148.0920 C   0  0  0  0  0  2  0  0  0  0  0  0
  188.8810  176.8410  148.1050 C   0  0  0  0  0  2  0  0  0  0  0  0
  189.8730  176.8750  146.9550 C   0  0  0  0  0  2  0  0  0  0  0  0
  191.8950  175.7730  147.3170 C   0  0  0  0  0  1  0  0  0  0  0  0
  191.2230  177.0510  147.4670 N   0  0  0  0  0  2  0  0  0  0  0  0
  182.5010  178.4620  142.3400 N   0  0  0  0  0  2  0  0  0  0  0  0
  179.6890  180.2660  143.5310 C   0  0  0  0  0  1  0  0  0  0  0  0
  180.4040  177.6290  141.3960 C   0  0  0  0  0  2  0  0  0  0  0  0
  180.5180  179.8760  142.3190 C   0  0  2  0  0  3  0  0  0  0  0  0
  179.6430  179.7420  141.1300 C   0  0  0  0  0  0  0  0  0  0  0  0
  179.5820  178.5530  140.6380 N   0  0  0  0  0  0  0  0  0  0  0  0
  181.0540  178.4620  142.5060 C   0  0  2  0  0  3  0  0  0  0  0  0
  178.9480  180.8230  140.5850 O   0  0  0  0  0  0  0  0  0  0  0  0
  179.5690  181.7630  139.7200 C   0  0  0  0  0  1  0  0  0  0  0  0
  1  4  1  0  0  0  0
  2  3  1  0  0  0  0
  3  4  2  0  0  0  0
  3 22  1  0  0  0  0
  5  1  2  0  0  0  0
  6  5  1  0  0  0  0
  6  2  2  0  0  0  0
  7  6  1  1  0  0  0
  8 11  1  1  0  0  0
  8 12  1  0  0  0  0
  8 10  1  0  0  0  0
  9  7  1  0  0  0  0
  9 13  1  6  0  0  0
 10  7  1  0  0  0  0
 12  9  1  0  0  0  0
 14 13  1  1  0  0  0
 14 17  1  0  0  0  0
 15 18  1  0  0  0  0
 16 20  2  0  0  0  0
 17 18  1  0  0  0  0
 19 15  1  0  0  0  0
 20 19  1  0  0  0  0
 20 14  1  0  0  0  0
 22 23  1  0  0  0  0
 22 21  2  0  0  0  0
 23 24  1  0  0  0  0
 24 25  1  0  0  0  0
 26 28  1  0  0  0  0
 26 25  1  0  0  0  0
 27 28  1  0  0  0  0
 29  5  1  0  0  0  0
 31 35  1  0  0  0  0
 32 35  1  0  0  0  0
 32 30  1  1  0  0  0
 33 32  1  0  0  0  0
 34 33  2  0  0  0  0
 34 31  1  0  0  0  0
 35 29  1  6  0  0  0
 36 33  1  0  0  0  0
 37 36  1  0  0  0  0
M  END
>  <MODEL>
7

>  <REMARK>
 VINA RESULT:      -7.7      2.822      9.275
  Name = 
  11 active torsions:
  status: ('A' for Active; 'I' for Inactive)
    1  A    between atoms: C_1  and  N_13
    2  A    between atoms: C_5  and  C_15
    3  A    between atoms: O_6  and  C_27
    4  A    between atoms: C_7  and  C_34
    5  A    between atoms: C_10  and  N_13
    6  A    between atoms: N_12  and  C_23
    7  A    between atoms: N_12  and  C_36
    8  A    between atoms: C_14  and  N_25
    9  A    between atoms: C_14  and  C_28
   10  A    between atoms: N_24  and  C_35
   11  A    between atoms: C_28  and  C_35
                            x       y       z     vdW  Elec       q    Type
                         _______ _______ _______ _____ _____    ______ ____

>  <TORSDO>
F 11

$$$$
=
 OpenBabel10222420323D

 37 40  0  0  1  0  0  0  0  0999 V2000
  185.9810  178.6280  139.3400 N   0  0  0  0  0  0  0  0  0  0  0  0
  187.0020  178.4680  141.8780 C   0  0  0  0  0  3  0  0  0  0  0  0
  187.7500  178.0430  140.7770 C   0  0  0  0  0  0  0  0  0  0  0  0
  187.2060  178.1310  139.5350 N   0  0  0  0  0  0  0  0  0  0  0  0
  185.2150  179.0650  140.3770 C   0  0  0  0  0  0  0  0  0  0  0  0
  185.7130  178.9770  141.6840 C   0  0  0  0  0  0  0  0  0  0  0  0
  184.8830  179.4350  142.8500 C   0  0  2  0  0  3  0  0  0  0  0  0
  182.7110  178.9250  143.6160 C   0  0  1  0  0  3  0  0  0  0  0  0
  185.1670  178.6110  144.0990 C   0  0  2  0  0  3  0  0  0  0  0  0
  183.4220  179.3150  142.5690 C   0  0  0  0  0  2  0  0  0  0  0  0
  181.2570  178.6260  143.5120 C   0  0  0  0  0  1  0  0  0  0  0  0
  183.6430  178.5900  145.1000 S   0  0  0  0  0  0  0  0  0  0  0  0
  186.2460  179.2260  144.8530 N   0  0  0  0  0  2  0  0  0  0  0  0
  186.7980  178.2050  145.7350 C   0  0  1  0  0  3  0  0  0  0  0  0
  188.9680  177.6290  147.6760 C   0  0  0  0  0  2  0  0  0  0  0  0
  185.9860  179.5440  147.5280 O   0  0  0  0  0  0  0  0  0  0  0  0
  188.2310  177.8860  145.3140 C   0  0  0  0  0  2  0  0  0  0  0  0
  188.8900  176.9430  146.3180 C   0  0  0  0  0  2  0  0  0  0  0  0
  187.5650  177.9300  148.2040 C   0  0  0  0  0  2  0  0  0  0  0  0
  186.7560  178.6630  147.1740 C   0  0  0  0  0  0  0  0  0  0  0  0
  189.4650  177.0170  142.0560 O   0  0  0  0  0  0  0  0  0  0  0  0
  189.1100  177.5100  140.9500 C   0  0  0  0  0  0  0  0  0  0  0  0
  190.0310  177.5660  139.8590 N   0  0  0  0  0  2  0  0  0  0  0  0
  191.4030  177.0940  139.9670 C   0  0  0  0  0  2  0  0  0  0  0  0
  191.9550  176.7430  138.5930 C   0  0  0  0  0  2  0  0  0  0  0  0
  190.9620  175.9250  137.7850 C   0  0  0  0  0  2  0  0  0  0  0  0
  191.4860  173.9560  136.6520 C   0  0  0  0  0  1  0  0  0  0  0  0
  191.2210  174.5060  137.9700 N   0  0  0  0  0  2  0  0  0  0  0  0
  183.9190  179.6260  140.1290 N   0  0  0  0  0  2  0  0  0  0  0  0
  182.8350  176.9260  138.1000 C   0  0  0  0  0  1  0  0  0  0  0  0
  181.8970  180.1760  138.8650 C   0  0  0  0  0  2  0  0  0  0  0  0
  182.4960  177.8520  139.2570 C   0  0  2  0  0  3  0  0  0  0  0  0
  181.0390  178.1250  139.2760 C   0  0  0  0  0  0  0  0  0  0  0  0
  180.7200  179.3550  139.0700 N   0  0  0  0  0  0  0  0  0  0  0  0
  183.0950  179.2280  138.9960 C   0  0  2  0  0  3  0  0  0  0  0  0
  180.0920  177.1250  139.5080 O   0  0  0  0  0  0  0  0  0  0  0  0
  179.4440  176.9740  140.7620 C   0  0  0  0  0  1  0  0  0  0  0  0
  1  4  1  0  0  0  0
  1  5  2  0  0  0  0
  3 22  1  0  0  0  0
  3  2  1  0  0  0  0
  4  3  2  0  0  0  0
  5  6  1  0  0  0  0
  6  2  2  0  0  0  0
  7  6  1  6  0  0  0
  7  9  1  0  0  0  0
  8 11  1  6  0  0  0
  8 12  1  0  0  0  0
  9 13  1  1  0  0  0
  9 12  1  0  0  0  0
 10  7  1  0  0  0  0
 10  8  1  0  0  0  0
 14 13  1  6  0  0  0
 14 20  1  0  0  0  0
 15 19  1  0  0  0  0
 17 14  1  0  0  0  0
 17 18  1  0  0  0  0
 18 15  1  0  0  0  0
 20 16  2  0  0  0  0
 20 19  1  0  0  0  0
 22 21  2  0  0  0  0
 23 24  1  0  0  0  0
 23 22  1  0  0  0  0
 25 24  1  0  0  0  0
 26 28  1  0  0  0  0
 26 25  1  0  0  0  0
 27 28  1  0  0  0  0
 29  5  1  0  0  0  0
 31 35  1  0  0  0  0
 31 34  1  0  0  0  0
 32 30  1  6  0  0  0
 32 33  1  0  0  0  0
 33 36  1  0  0  0  0
 34 33  2  0  0  0  0
 35 32  1  0  0  0  0
 35 29  1  1  0  0  0
 36 37  1  0  0  0  0
M  END
>  <MODEL>
8

>  <REMARK>
 VINA RESULT:      -7.6      2.705      7.638
  Name = 
  11 active torsions:
  status: ('A' for Active; 'I' for Inactive)
    1  A    between atoms: C_1  and  N_13
    2  A    between atoms: C_5  and  C_15
    3  A    between atoms: O_6  and  C_27
    4  A    between atoms: C_7  and  C_34
    5  A    between atoms: C_10  and  N_13
    6  A    between atoms: N_12  and  C_23
    7  A    between atoms: N_12  and  C_36
    8  A    between atoms: C_14  and  N_25
    9  A    between atoms: C_14  and  C_28
   10  A    between atoms: N_24  and  C_35
   11  A    between atoms: C_28  and  C_35
                            x       y       z     vdW  Elec       q    Type
                         _______ _______ _______ _____ _____    ______ ____

>  <TORSDO>
F 11

$$$$
=
 OpenBabel10222420323D

 37 40  0  0  1  0  0  0  0  0999 V2000
  185.5840  179.3610  140.7620 N   0  0  0  0  0  0  0  0  0  0  0  0
  187.5800  177.8310  139.6740 C   0  0  0  0  0  3  0  0  0  0  0  0
  187.6160  178.2030  141.0200 C   0  0  0  0  0  0  0  0  0  0  0  0
  186.6120  178.9700  141.5210 N   0  0  0  0  0  0  0  0  0  0  0  0
  185.4960  179.0170  139.4470 C   0  0  0  0  0  0  0  0  0  0  0  0
  186.5150  178.2490  138.8680 C   0  0  0  0  0  0  0  0  0  0  0  0
  186.4540  177.8690  137.4160 C   0  0  2  0  0  3  0  0  0  0  0  0
  188.0820  177.3600  135.7860 C   0  0  1  0  0  3  0  0  0  0  0  0
  186.2710  176.3680  137.2360 C   0  0  2  0  0  3  0  0  0  0  0  0
  187.7050  178.2470  136.6930 C   0  0  0  0  0  2  0  0  0  0  0  0
  189.3660  177.4890  135.0450 C   0  0  0  0  0  1  0  0  0  0  0  0
  187.0560  175.9050  135.6560 S   0  0  0  0  0  0  0  0  0  0  0  0
  184.8530  176.0520  137.1950 N   0  0  0  0  0  2  0  0  0  0  0  0
  184.7190  174.7320  136.5900 C   0  0  1  0  0  3  0  0  0  0  0  0
  183.1240  172.2300  136.6210 C   0  0  0  0  0  2  0  0  0  0  0  0
  182.7610  175.5890  135.5420 O   0  0  0  0  0  0  0  0  0  0  0  0
  184.8720  173.6590  137.6660 C   0  0  0  0  0  2  0  0  0  0  0  0
  184.5720  172.2750  137.0920 C   0  0  0  0  0  2  0  0  0  0  0  0
  182.8970  173.2370  135.4930 C   0  0  0  0  0  2  0  0  0  0  0  0
  183.3870  174.5980  135.8910 C   0  0  0  0  0  0  0  0  0  0  0  0
  189.9150  177.8440  141.4900 O   0  0  0  0  0  0  0  0  0  0  0  0
  188.7200  177.7740  141.8920 C   0  0  0  0  0  0  0  0  0  0  0  0
  188.4290  177.2640  143.1950 N   0  0  0  0  0  2  0  0  0  0  0  0
  189.4650  176.7850  144.0980 C   0  0  0  0  0  2  0  0  0  0  0  0
  189.7290  177.8060  145.1950 C   0  0  0  0  0  2  0  0  0  0  0  0
  190.2810  177.1490  146.4480 C   0  0  0  0  0  2  0  0  0  0  0  0
  192.0510  175.9650  147.3960 C   0  0  0  0  0  1  0  0  0  0  0  0
  191.6520  176.7190  146.2210 N   0  0  0  0  0  2  0  0  0  0  0  0
  184.3620  179.4240  138.6700 N   0  0  0  0  0  2  0  0  0  0  0  0
  182.5790  176.6680  140.0150 C   0  0  0  0  0  1  0  0  0  0  0  0
  181.9400  179.7440  138.5470 C   0  0  0  0  0  2  0  0  0  0  0  0
  182.8810  178.1540  140.1280 C   0  0  2  0  0  3  0  0  0  0  0  0
  181.6840  178.8770  140.6200 C   0  0  0  0  0  0  0  0  0  0  0  0
  181.1840  179.7210  139.7850 N   0  0  0  0  0  0  0  0  0  0  0  0
  183.0790  178.7370  138.7340 C   0  0  2  0  0  3  0  0  0  0  0  0
  181.1480  178.6630  141.8910 O   0  0  0  0  0  0  0  0  0  0  0  0
  181.8570  178.9960  143.0760 C   0  0  0  0  0  1  0  0  0  0  0  0
  1  4  1  0  0  0  0
  2  3  1  0  0  0  0
  3  4  2  0  0  0  0
  3 22  1  0  0  0  0
  5  1  2  0  0  0  0
  6  5  1  0  0  0  0
  6  2  2  0  0  0  0
  7  6  1  1  0  0  0
  8 11  1  1  0  0  0
  8 10  1  0  0  0  0
  9 13  1  6  0  0  0
  9  7  1  0  0  0  0
 10  7  1  0  0  0  0
 12  8  1  0  0  0  0
 12  9  1  0  0  0  0
 14 13  1  1  0  0  0
 14 17  1  0  0  0  0
 15 18  1  0  0  0  0
 16 20  2  0  0  0  0
 18 17  1  0  0  0  0
 19 20  1  0  0  0  0
 19 15  1  0  0  0  0
 20 14  1  0  0  0  0
 21 22  2  0  0  0  0
 22 23  1  0  0  0  0
 23 24  1  0  0  0  0
 24 25  1  0  0  0  0
 25 26  1  0  0  0  0
 28 26  1  0  0  0  0
 28 27  1  0  0  0  0
 29  5  1  0  0  0  0
 31 35  1  0  0  0  0
 31 34  1  0  0  0  0
 32 30  1  6  0  0  0
 32 33  1  0  0  0  0
 33 36  1  0  0  0  0
 34 33  2  0  0  0  0
 35 29  1  1  0  0  0
 35 32  1  0  0  0  0
 36 37  1  0  0  0  0
M  END
>  <MODEL>
9

>  <REMARK>
 VINA RESULT:      -7.4      2.862      8.455
  Name = 
  11 active torsions:
  status: ('A' for Active; 'I' for Inactive)
    1  A    between atoms: C_1  and  N_13
    2  A    between atoms: C_5  and  C_15
    3  A    between atoms: O_6  and  C_27
    4  A    between atoms: C_7  and  C_34
    5  A    between atoms: C_10  and  N_13
    6  A    between atoms: N_12  and  C_23
    7  A    between atoms: N_12  and  C_36
    8  A    between atoms: C_14  and  N_25
    9  A    between atoms: C_14  and  C_28
   10  A    between atoms: N_24  and  C_35
   11  A    between atoms: C_28  and  C_35
                            x       y       z     vdW  Elec       q    Type
                         _______ _______ _______ _____ _____    ______ ____

>  <TORSDO>
F 11

$$$$
