=
 OpenBabel10222419143D

 35 39  0  0  1  0  0  0  0  0999 V2000
  192.4940  175.8080  137.2410 C   0  0  0  0  0  0  0  0  0  0  0  0
  191.8550  176.3840  138.3460 C   0  0  0  0  0  3  0  0  0  0  0  0
  191.7610  175.5790  136.0720 C   0  0  0  0  0  3  0  0  0  0  0  0
  189.7690  176.5140  137.1080 C   0  0  0  0  0  0  0  0  0  0  0  0
  190.5010  176.7470  138.2970 C   0  0  0  0  0  0  0  0  0  0  0  0
  190.4100  175.9220  136.0080 C   0  0  0  0  0  3  0  0  0  0  0  0
  186.7750  176.5520  134.5940 N   0  0  0  0  0  0  0  0  0  0  0  0
  187.9920  177.9660  136.1350 C   0  0  0  0  0  3  0  0  0  0  0  0
  187.3030  177.8250  134.9960 C   0  0  0  0  0  3  0  0  0  0  0  0
  188.2920  176.7950  137.0410 C   0  0  1  0  0  3  0  0  0  0  0  0
  186.8500  175.4980  135.3500 C   0  0  0  0  0  0  0  0  0  0  0  0
  187.5180  175.5630  136.6590 C   0  0  0  0  0  0  0  0  0  0  0  0
  186.3300  174.2460  134.9050 N   0  0  0  0  0  0  0  0  0  0  0  0
  186.7320  173.3050  137.1420 C   0  0  0  0  0  2  0  0  0  0  0  0
  187.4960  174.5240  137.4400 N   0  0  0  0  0  0  0  0  0  0  0  0
  186.2990  173.2150  135.6970 C   0  0  0  0  0  3  0  0  0  0  0  0
  190.2220  176.7470  140.7730 C   0  0  0  0  0  2  0  0  0  0  0  0
  188.1290  177.4540  141.9550 C   0  0  2  0  0  3  0  0  0  0  0  0
  187.6820  178.3520  139.8110 C   0  0  0  0  0  2  0  0  0  0  0  0
  189.8890  177.3260  139.4620 N   0  0  0  0  0  0  0  0  0  0  0  0
  189.1090  178.5570  139.3160 C   0  0  0  0  0  2  0  0  0  0  0  0
  189.6480  177.5100  141.9630 C   0  0  0  0  0  2  0  0  0  0  0  0
  187.6030  178.6110  141.2420 N   0  0  0  0  0  2  0  0  0  0  0  0
  187.6280  177.4750  143.3860 C   0  0  0  0  0  2  0  0  0  0  0  0
  188.6270  176.9530  144.2540 O   0  0  0  0  0  0  0  0  0  0  0  0
  189.8820  177.4420  147.7200 C   0  0  0  0  0  3  0  0  0  0  0  0
  188.6780  177.2600  145.6160 C   0  0  0  0  0  0  0  0  0  0  0  0
  187.5340  178.0250  147.6150 C   0  0  0  0  0  3  0  0  0  0  0  0
  188.7160  177.8910  148.3470 C   0  0  0  0  0  3  0  0  0  0  0  0
  187.5160  177.7090  146.2530 C   0  0  0  0  0  3  0  0  0  0  0  0
  189.8640  177.1280  146.3580 C   0  0  0  0  0  3  0  0  0  0  0  0
  195.7390  173.9910  138.2840 C   0  0  0  0  0  1  0  0  0  0  0  0
  194.3450  174.3870  138.1790 N   0  0  0  0  0  2  0  0  0  0  0  0
  193.9190  175.4420  137.3120 C   0  0  0  0  0  0  0  0  0  0  0  0
  194.7650  176.0590  136.6080 O   0  0  0  0  0  0  0  0  0  0  0  0
  1 34  1  0  0  0  0
  1  2  1  0  0  0  0
  3  1  2  0  0  0  0
  4  5  1  0  0  0  0
  5  2  2  0  0  0  0
  5 20  1  0  0  0  0
  6  3  1  0  0  0  0
  6  4  2  0  0  0  0
  7  9  1  0  0  0  0
  7 11  2  0  0  0  0
  8 10  1  0  0  0  0
  9  8  2  0  0  0  0
 10  4  1  6  0  0  0
 11 12  1  0  0  0  0
 12 10  1  0  0  0  0
 12 15  2  0  0  0  0
 13 11  1  0  0  0  0
 13 16  2  0  0  0  0
 14 15  1  0  0  0  0
 16 14  1  0  0  0  0
 17 22  1  0  0  0  0
 18 22  1  0  0  0  0
 18 24  1  1  0  0  0
 19 23  1  0  0  0  0
 20 17  1  0  0  0  0
 21 20  1  0  0  0  0
 21 19  1  0  0  0  0
 23 18  1  0  0  0  0
 24 25  1  0  0  0  0
 25 27  1  0  0  0  0
 26 29  1  0  0  0  0
 27 30  2  0  0  0  0
 27 31  1  0  0  0  0
 28 29  2  0  0  0  0
 30 28  1  0  0  0  0
 31 26  2  0  0  0  0
 33 32  1  0  0  0  0
 34 33  1  0  0  0  0
 35 34  2  0  0  0  0
M  END
>  <MODEL>
1

>  <REMARK>
 VINA RESULT:      -8.4      0.000      0.000
  Name = 
  6 active torsions:
  status: ('A' for Active; 'I' for Inactive)
    1  A    between atoms: C_3  and  O_24
    2  A    between atoms: C_6  and  C_21
    3  A    between atoms: C_10  and  C_18
    4  A    between atoms: C_12  and  C_23
    5  A    between atoms: N_14  and  C_26
    6  A    between atoms: C_18  and  O_24
                            x       y       z     vdW  Elec       q    Type
                         _______ _______ _______ _____ _____    ______ ____

>  <TORSDO>
F 6

$$$$
=
 OpenBabel10222419143D

 35 39  0  0  1  0  0  0  0  0999 V2000
  184.3760  178.7510  143.5640 C   0  0  0  0  0  0  0  0  0  0  0  0
  185.4990  178.6670  142.7330 C   0  0  0  0  0  3  0  0  0  0  0  0
  183.0990  178.7040  142.9930 C   0  0  0  0  0  3  0  0  0  0  0  0
  184.0720  178.4720  140.7760 C   0  0  0  0  0  0  0  0  0  0  0  0
  185.3680  178.5220  141.3430 C   0  0  0  0  0  0  0  0  0  0  0  0
  182.9490  178.5720  141.6120 C   0  0  0  0  0  3  0  0  0  0  0  0
  181.3320  177.8200  138.0650 N   0  0  0  0  0  0  0  0  0  0  0  0
  183.4890  177.0330  138.8280 C   0  0  0  0  0  3  0  0  0  0  0  0
  182.2940  176.7770  138.2830 C   0  0  0  0  0  3  0  0  0  0  0  0
  183.8820  178.4170  139.2850 C   0  0  1  0  0  3  0  0  0  0  0  0
  181.6000  179.0710  138.2930 C   0  0  0  0  0  0  0  0  0  0  0  0
  182.9140  179.4710  138.8180 C   0  0  0  0  0  0  0  0  0  0  0  0
  180.6100  180.0770  138.0830 N   0  0  0  0  0  0  0  0  0  0  0  0
  182.3100  181.8090  138.4790 C   0  0  0  0  0  2  0  0  0  0  0  0
  183.1950  180.7330  138.9450 N   0  0  0  0  0  0  0  0  0  0  0  0
  180.9010  181.3370  138.1990 C   0  0  0  0  0  3  0  0  0  0  0  0
  186.3860  178.2630  139.0840 C   0  0  0  0  0  2  0  0  0  0  0  0
  188.6180  177.2080  138.6570 C   0  0  2  0  0  3  0  0  0  0  0  0
  188.7960  177.5530  140.9920 C   0  0  0  0  0  2  0  0  0  0  0  0
  186.5530  178.4510  140.5330 N   0  0  0  0  0  0  0  0  0  0  0  0
  187.8510  178.7390  141.1490 C   0  0  0  0  0  2  0  0  0  0  0  0
  187.6820  178.3460  138.2830 C   0  0  0  0  0  2  0  0  0  0  0  0
  189.5100  177.6410  139.7250 N   0  0  0  0  0  2  0  0  0  0  0  0
  189.4390  176.8260  137.4410 C   0  0  0  0  0  2  0  0  0  0  0  0
  188.6040  176.2010  136.4730 O   0  0  0  0  0  0  0  0  0  0  0  0
  185.8640  173.7970  137.2060 C   0  0  0  0  0  3  0  0  0  0  0  0
  187.9130  175.0140  136.7260 C   0  0  0  0  0  0  0  0  0  0  0  0
  187.9610  172.6040  137.0040 C   0  0  0  0  0  3  0  0  0  0  0  0
  186.5820  172.5980  137.2300 C   0  0  0  0  0  3  0  0  0  0  0  0
  188.6240  173.8090  136.7530 C   0  0  0  0  0  3  0  0  0  0  0  0
  186.5270  175.0020  136.9550 C   0  0  0  0  0  3  0  0  0  0  0  0
  186.0380  178.8860  147.0490 C   0  0  0  0  0  1  0  0  0  0  0  0
  185.8300  178.7540  145.6160 N   0  0  0  0  0  2  0  0  0  0  0  0
  184.5370  178.8950  145.0220 C   0  0  0  0  0  0  0  0  0  0  0  0
  183.5340  179.1430  145.7460 O   0  0  0  0  0  0  0  0  0  0  0  0
  1 34  1  0  0  0  0
  2  1  2  0  0  0  0
  3  1  1  0  0  0  0
  4  5  2  0  0  0  0
  4  6  1  0  0  0  0
  5  2  1  0  0  0  0
  6  3  2  0  0  0  0
  7  9  1  0  0  0  0
  7 11  2  0  0  0  0
  8 10  1  0  0  0  0
  9  8  2  0  0  0  0
 10  4  1  1  0  0  0
 11 12  1  0  0  0  0
 12 15  2  0  0  0  0
 12 10  1  0  0  0  0
 13 16  2  0  0  0  0
 13 11  1  0  0  0  0
 14 15  1  0  0  0  0
 16 14  1  0  0  0  0
 17 20  1  0  0  0  0
 18 24  1  6  0  0  0
 18 23  1  0  0  0  0
 19 21  1  0  0  0  0
 20 21  1  0  0  0  0
 20  5  1  0  0  0  0
 22 18  1  0  0  0  0
 22 17  1  0  0  0  0
 23 19  1  0  0  0  0
 25 27  1  0  0  0  0
 25 24  1  0  0  0  0
 26 29  1  0  0  0  0
 27 30  2  0  0  0  0
 27 31  1  0  0  0  0
 28 29  2  0  0  0  0
 30 28  1  0  0  0  0
 31 26  2  0  0  0  0
 33 32  1  0  0  0  0
 34 33  1  0  0  0  0
 34 35  2  0  0  0  0
M  END
>  <MODEL>
2

>  <REMARK>
 VINA RESULT:      -7.2      4.081      8.757
  Name = 
  6 active torsions:
  status: ('A' for Active; 'I' for Inactive)
    1  A    between atoms: C_3  and  O_24
    2  A    between atoms: C_6  and  C_21
    3  A    between atoms: C_10  and  C_18
    4  A    between atoms: C_12  and  C_23
    5  A    between atoms: N_14  and  C_26
    6  A    between atoms: C_18  and  O_24
                            x       y       z     vdW  Elec       q    Type
                         _______ _______ _______ _____ _____    ______ ____

>  <TORSDO>
F 6

$$$$
=
 OpenBabel10222419143D

 35 39  0  0  1  0  0  0  0  0999 V2000
  185.4660  178.0710  138.2330 C   0  0  0  0  0  0  0  0  0  0  0  0
  185.2660  178.4020  139.5780 C   0  0  0  0  0  3  0  0  0  0  0  0
  184.3590  177.9520  137.3870 C   0  0  0  0  0  3  0  0  0  0  0  0
  182.8650  178.5080  139.2240 C   0  0  0  0  0  0  0  0  0  0  0  0
  183.9790  178.6280  140.0890 C   0  0  0  0  0  0  0  0  0  0  0  0
  183.0700  178.1620  137.8790 C   0  0  0  0  0  3  0  0  0  0  0  0
  179.1420  178.5050  138.0290 N   0  0  0  0  0  0  0  0  0  0  0  0
  180.7770  179.8670  139.1830 C   0  0  0  0  0  3  0  0  0  0  0  0
  179.7150  179.7760  138.3740 C   0  0  0  0  0  3  0  0  0  0  0  0
  181.4610  178.6450  139.7480 C   0  0  1  0  0  3  0  0  0  0  0  0
  179.5570  177.3920  138.5550 C   0  0  0  0  0  0  0  0  0  0  0  0
  180.6680  177.3870  139.5180 C   0  0  0  0  0  0  0  0  0  0  0  0
  178.9750  176.1460  138.1720 N   0  0  0  0  0  0  0  0  0  0  0  0
  180.2480  175.0240  139.9510 C   0  0  0  0  0  2  0  0  0  0  0  0
  181.0000  176.2760  140.1050 N   0  0  0  0  0  0  0  0  0  0  0  0
  179.3030  175.0420  138.7720 C   0  0  0  0  0  3  0  0  0  0  0  0
  185.0470  179.1250  142.2850 C   0  0  0  0  0  2  0  0  0  0  0  0
  184.0230  178.5750  144.5050 C   0  0  2  0  0  3  0  0  0  0  0  0
  182.1140  178.3260  143.1290 C   0  0  0  0  0  2  0  0  0  0  0  0
  183.8270  178.9540  141.4800 N   0  0  0  0  0  0  0  0  0  0  0  0
  182.4910  179.2690  141.9930 C   0  0  0  0  0  2  0  0  0  0  0  0
  184.7990  179.6130  143.7100 C   0  0  0  0  0  2  0  0  0  0  0  0
  182.5960  178.8490  144.4000 N   0  0  0  0  0  2  0  0  0  0  0  0
  184.4440  178.6540  145.9590 C   0  0  0  0  0  2  0  0  0  0  0  0
  185.7480  179.2150  146.0540 O   0  0  0  0  0  0  0  0  0  0  0  0
  188.8030  177.1010  145.8880 C   0  0  0  0  0  3  0  0  0  0  0  0
  186.8660  178.4660  146.4310 C   0  0  0  0  0  0  0  0  0  0  0  0
  188.2780  177.5920  148.2000 C   0  0  0  0  0  3  0  0  0  0  0  0
  189.0950  176.9760  147.2490 C   0  0  0  0  0  3  0  0  0  0  0  0
  187.1660  178.3350  147.7910 C   0  0  0  0  0  3  0  0  0  0  0  0
  187.6910  177.8440  145.4790 C   0  0  0  0  0  3  0  0  0  0  0  0
  189.0300  178.7850  136.9240 C   0  0  0  0  0  1  0  0  0  0  0  0
  187.6810  178.9580  137.4350 N   0  0  0  0  0  2  0  0  0  0  0  0
  186.8280  177.8450  137.7160 C   0  0  0  0  0  0  0  0  0  0  0  0
  187.2420  176.6690  137.5200 O   0  0  0  0  0  0  0  0  0  0  0  0
  1  2  1  0  0  0  0
  2  5  2  0  0  0  0
  3  6  1  0  0  0  0
  3  1  2  0  0  0  0
  4  5  1  0  0  0  0
  5 20  1  0  0  0  0
  6  4  2  0  0  0  0
  7  9  1  0  0  0  0
  7 11  2  0  0  0  0
  8 10  1  0  0  0  0
  9  8  2  0  0  0  0
 10  4  1  6  0  0  0
 11 12  1  0  0  0  0
 12 10  1  0  0  0  0
 12 15  2  0  0  0  0
 13 11  1  0  0  0  0
 13 16  2  0  0  0  0
 14 15  1  0  0  0  0
 16 14  1  0  0  0  0
 17 22  1  0  0  0  0
 18 24  1  1  0  0  0
 19 23  1  0  0  0  0
 20 21  1  0  0  0  0
 20 17  1  0  0  0  0
 21 19  1  0  0  0  0
 22 18  1  0  0  0  0
 23 18  1  0  0  0  0
 24 25  1  0  0  0  0
 25 27  1  0  0  0  0
 26 29  1  0  0  0  0
 27 30  2  0  0  0  0
 29 28  2  0  0  0  0
 30 28  1  0  0  0  0
 31 26  2  0  0  0  0
 31 27  1  0  0  0  0
 32 33  1  0  0  0  0
 33 34  1  0  0  0  0
 34  1  1  0  0  0  0
 35 34  2  0  0  0  0
M  END
>  <MODEL>
3

>  <REMARK>
 VINA RESULT:      -7.2      5.119      6.619
  Name = 
  6 active torsions:
  status: ('A' for Active; 'I' for Inactive)
    1  A    between atoms: C_3  and  O_24
    2  A    between atoms: C_6  and  C_21
    3  A    between atoms: C_10  and  C_18
    4  A    between atoms: C_12  and  C_23
    5  A    between atoms: N_14  and  C_26
    6  A    between atoms: C_18  and  O_24
                            x       y       z     vdW  Elec       q    Type
                         _______ _______ _______ _____ _____    ______ ____

>  <TORSDO>
F 6

$$$$
=
 OpenBabel10222419143D

 35 39  0  0  1  0  0  0  0  0999 V2000
  184.3660  178.6920  143.6440 C   0  0  0  0  0  0  0  0  0  0  0  0
  185.4800  178.6200  142.8000 C   0  0  0  0  0  3  0  0  0  0  0  0
  183.0830  178.6280  143.0880 C   0  0  0  0  0  3  0  0  0  0  0  0
  184.0330  178.4040  140.8610 C   0  0  0  0  0  0  0  0  0  0  0  0
  185.3340  178.4710  141.4120 C   0  0  0  0  0  0  0  0  0  0  0  0
  182.9190  178.4920  141.7100 C   0  0  0  0  0  3  0  0  0  0  0  0
  181.2520  177.7840  138.1830 N   0  0  0  0  0  0  0  0  0  0  0  0
  183.4040  176.9630  138.9270 C   0  0  0  0  0  3  0  0  0  0  0  0
  182.1980  176.7250  138.3960 C   0  0  0  0  0  3  0  0  0  0  0  0
  183.8260  178.3430  139.3710 C   0  0  1  0  0  3  0  0  0  0  0  0
  181.5450  179.0310  138.3990 C   0  0  0  0  0  0  0  0  0  0  0  0
  182.8710  179.4110  138.9090 C   0  0  0  0  0  0  0  0  0  0  0  0
  180.5700  180.0530  138.1940 N   0  0  0  0  0  0  0  0  0  0  0  0
  182.3050  181.7570  138.5610 C   0  0  0  0  0  2  0  0  0  0  0  0
  183.1760  180.6690  139.0240 N   0  0  0  0  0  0  0  0  0  0  0  0
  180.8850  181.3090  138.2990 C   0  0  0  0  0  3  0  0  0  0  0  0
  186.3270  178.2530  139.1370 C   0  0  0  0  0  2  0  0  0  0  0  0
  188.5530  177.2020  138.6670 C   0  0  2  0  0  3  0  0  0  0  0  0
  188.7560  177.5030  141.0060 C   0  0  0  0  0  2  0  0  0  0  0  0
  186.5100  178.4140  140.5880 N   0  0  0  0  0  0  0  0  0  0  0  0
  187.8160  178.6870  141.1950 C   0  0  0  0  0  2  0  0  0  0  0  0
  187.6160  178.3490  138.3240 C   0  0  0  0  0  2  0  0  0  0  0  0
  189.4570  177.6130  139.7330 N   0  0  0  0  0  2  0  0  0  0  0  0
  189.3600  176.8410  137.4350 C   0  0  0  0  0  2  0  0  0  0  0  0
  190.7420  177.0740  137.6790 O   0  0  0  0  0  0  0  0  0  0  0  0
  193.9810  175.2540  137.8240 C   0  0  0  0  0  3  0  0  0  0  0  0
  191.7090  176.0740  137.5510 C   0  0  0  0  0  0  0  0  0  0  0  0
  192.2870  173.8230  136.8520 C   0  0  0  0  0  3  0  0  0  0  0  0
  193.6050  174.0280  137.2670 C   0  0  0  0  0  3  0  0  0  0  0  0
  191.3420  174.8440  136.9930 C   0  0  0  0  0  3  0  0  0  0  0  0
  193.0360  176.2740  137.9660 C   0  0  0  0  0  3  0  0  0  0  0  0
  186.0770  178.9440  147.0980 C   0  0  0  0  0  1  0  0  0  0  0  0
  185.8530  178.8030  145.6690 N   0  0  0  0  0  2  0  0  0  0  0  0
  184.5420  178.8410  145.0990 C   0  0  0  0  0  0  0  0  0  0  0  0
  183.5360  179.0030  145.8440 O   0  0  0  0  0  0  0  0  0  0  0  0
  1 34  1  0  0  0  0
  2  1  2  0  0  0  0
  3  1  1  0  0  0  0
  4  5  2  0  0  0  0
  4  6  1  0  0  0  0
  5  2  1  0  0  0  0
  6  3  2  0  0  0  0
  7  9  1  0  0  0  0
  7 11  2  0  0  0  0
  8 10  1  0  0  0  0
  9  8  2  0  0  0  0
 10  4  1  1  0  0  0
 11 12  1  0  0  0  0
 12 15  2  0  0  0  0
 12 10  1  0  0  0  0
 13 16  2  0  0  0  0
 13 11  1  0  0  0  0
 14 15  1  0  0  0  0
 16 14  1  0  0  0  0
 17 20  1  0  0  0  0
 18 24  1  6  0  0  0
 18 23  1  0  0  0  0
 19 21  1  0  0  0  0
 20 21  1  0  0  0  0
 20  5  1  0  0  0  0
 22 18  1  0  0  0  0
 22 17  1  0  0  0  0
 23 19  1  0  0  0  0
 24 25  1  0  0  0  0
 26 31  1  0  0  0  0
 27 25  1  0  0  0  0
 27 31  2  0  0  0  0
 28 30  2  0  0  0  0
 28 29  1  0  0  0  0
 29 26  2  0  0  0  0
 30 27  1  0  0  0  0
 33 32  1  0  0  0  0
 34 33  1  0  0  0  0
 34 35  2  0  0  0  0
M  END
>  <MODEL>
4

>  <REMARK>
 VINA RESULT:      -7.0      4.027      8.709
  Name = 
  6 active torsions:
  status: ('A' for Active; 'I' for Inactive)
    1  A    between atoms: C_3  and  O_24
    2  A    between atoms: C_6  and  C_21
    3  A    between atoms: C_10  and  C_18
    4  A    between atoms: C_12  and  C_23
    5  A    between atoms: N_14  and  C_26
    6  A    between atoms: C_18  and  O_24
                            x       y       z     vdW  Elec       q    Type
                         _______ _______ _______ _____ _____    ______ ____

>  <TORSDO>
F 6

$$$$
=
 OpenBabel10222419143D

 35 39  0  0  1  0  0  0  0  0999 V2000
  185.6340  177.2400  136.7060 C   0  0  0  0  0  0  0  0  0  0  0  0
  185.5960  177.7260  138.0180 C   0  0  0  0  0  3  0  0  0  0  0  0
  184.4400  177.1300  135.9840 C   0  0  0  0  0  3  0  0  0  0  0  0
  183.1870  178.0050  137.8760 C   0  0  0  0  0  0  0  0  0  0  0  0
  184.3880  178.1170  138.6160 C   0  0  0  0  0  0  0  0  0  0  0  0
  183.2280  177.5030  136.5660 C   0  0  0  0  0  3  0  0  0  0  0  0
  179.3530  177.9670  137.1090 N   0  0  0  0  0  0  0  0  0  0  0  0
  181.1510  179.4400  137.7830 C   0  0  0  0  0  3  0  0  0  0  0  0
  180.0010  179.2480  137.1260 C   0  0  0  0  0  3  0  0  0  0  0  0
  181.8570  178.3190  138.5070 C   0  0  1  0  0  3  0  0  0  0  0  0
  179.7900  176.9590  137.8030 C   0  0  0  0  0  0  0  0  0  0  0  0
  181.0040  177.0850  138.6230 C   0  0  0  0  0  0  0  0  0  0  0  0
  179.1280  175.6960  137.7440 N   0  0  0  0  0  0  0  0  0  0  0  0
  180.5620  174.8810  139.5690 C   0  0  0  0  0  2  0  0  0  0  0  0
  181.3660  176.0960  139.3850 N   0  0  0  0  0  0  0  0  0  0  0  0
  179.4890  174.7160  138.5180 C   0  0  0  0  0  3  0  0  0  0  0  0
  185.6920  178.6280  140.6770 C   0  0  0  0  0  2  0  0  0  0  0  0
  184.7650  178.4900  143.0000 C   0  0  2  0  0  3  0  0  0  0  0  0
  182.7400  178.4520  141.7760 C   0  0  0  0  0  2  0  0  0  0  0  0
  184.4020  178.6000  139.9690 N   0  0  0  0  0  0  0  0  0  0  0  0
  183.1840  179.1970  140.5220 C   0  0  0  0  0  2  0  0  0  0  0  0
  185.6430  179.2900  142.0520 C   0  0  0  0  0  2  0  0  0  0  0  0
  183.4020  179.0030  142.9510 N   0  0  0  0  0  2  0  0  0  0  0  0
  185.3050  178.6340  144.4100 C   0  0  0  0  0  2  0  0  0  0  0  0
  186.3830  177.7280  144.6080 O   0  0  0  0  0  0  0  0  0  0  0  0
  187.6180  178.2480  148.0770 C   0  0  0  0  0  3  0  0  0  0  0  0
  187.2230  177.7880  145.7230 C   0  0  0  0  0  0  0  0  0  0  0  0
  189.4340  177.4800  146.6740 C   0  0  0  0  0  3  0  0  0  0  0  0
  188.9590  177.8880  147.9220 C   0  0  0  0  0  3  0  0  0  0  0  0
  188.5680  177.4300  145.5770 C   0  0  0  0  0  3  0  0  0  0  0  0
  186.7510  178.1980  146.9810 C   0  0  0  0  0  3  0  0  0  0  0  0
  189.1600  177.4940  135.1510 C   0  0  0  0  0  1  0  0  0  0  0  0
  187.8840  177.8370  135.7550 N   0  0  0  0  0  2  0  0  0  0  0  0
  186.9140  176.8430  136.0950 C   0  0  0  0  0  0  0  0  0  0  0  0
  187.1560  175.6240  135.8730 O   0  0  0  0  0  0  0  0  0  0  0  0
  1  2  1  0  0  0  0
  2  5  2  0  0  0  0
  3  6  1  0  0  0  0
  3  1  2  0  0  0  0
  4  5  1  0  0  0  0
  5 20  1  0  0  0  0
  6  4  2  0  0  0  0
  7  9  1  0  0  0  0
  7 11  2  0  0  0  0
  8 10  1  0  0  0  0
  9  8  2  0  0  0  0
 10  4  1  6  0  0  0
 10 12  1  0  0  0  0
 11 12  1  0  0  0  0
 12 15  2  0  0  0  0
 13 11  1  0  0  0  0
 13 16  2  0  0  0  0
 15 14  1  0  0  0  0
 16 14  1  0  0  0  0
 17 22  1  0  0  0  0
 18 24  1  1  0  0  0
 19 23  1  0  0  0  0
 20 21  1  0  0  0  0
 20 17  1  0  0  0  0
 21 19  1  0  0  0  0
 22 18  1  0  0  0  0
 23 18  1  0  0  0  0
 24 25  1  0  0  0  0
 25 27  1  0  0  0  0
 27 31  1  0  0  0  0
 28 29  2  0  0  0  0
 29 26  1  0  0  0  0
 30 27  2  0  0  0  0
 30 28  1  0  0  0  0
 31 26  2  0  0  0  0
 32 33  1  0  0  0  0
 33 34  1  0  0  0  0
 34  1  1  0  0  0  0
 35 34  2  0  0  0  0
M  END
>  <MODEL>
5

>  <REMARK>
 VINA RESULT:      -7.0      4.742      6.031
  Name = 
  6 active torsions:
  status: ('A' for Active; 'I' for Inactive)
    1  A    between atoms: C_3  and  O_24
    2  A    between atoms: C_6  and  C_21
    3  A    between atoms: C_10  and  C_18
    4  A    between atoms: C_12  and  C_23
    5  A    between atoms: N_14  and  C_26
    6  A    between atoms: C_18  and  O_24
                            x       y       z     vdW  Elec       q    Type
                         _______ _______ _______ _____ _____    ______ ____

>  <TORSDO>
F 6

$$$$
=
 OpenBabel10222419143D

 35 39  0  0  1  0  0  0  0  0999 V2000
  186.0400  178.3280  142.4700 C   0  0  0  0  0  0  0  0  0  0  0  0
  184.7810  178.5430  141.8980 C   0  0  0  0  0  3  0  0  0  0  0  0
  187.1500  178.1620  141.6350 C   0  0  0  0  0  3  0  0  0  0  0  0
  185.7440  178.4440  139.6700 C   0  0  0  0  0  0  0  0  0  0  0  0
  184.6150  178.6100  140.5060 C   0  0  0  0  0  0  0  0  0  0  0  0
  187.0020  178.2130  140.2480 C   0  0  0  0  0  3  0  0  0  0  0  0
  187.4090  176.9300  136.4720 N   0  0  0  0  0  0  0  0  0  0  0  0
  186.7890  179.0380  137.4870 C   0  0  0  0  0  3  0  0  0  0  0  0
  187.6240  178.3280  136.7190 C   0  0  0  0  0  3  0  0  0  0  0  0
  185.6000  178.4090  138.1730 C   0  0  1  0  0  3  0  0  0  0  0  0
  186.3510  176.3060  136.8950 C   0  0  0  0  0  0  0  0  0  0  0  0
  185.3300  177.0120  137.6830 C   0  0  0  0  0  0  0  0  0  0  0  0
  186.1830  174.9100  136.6460 N   0  0  0  0  0  0  0  0  0  0  0  0
  183.8950  175.0450  137.5380 C   0  0  0  0  0  2  0  0  0  0  0  0
  184.2350  176.3940  138.0110 N   0  0  0  0  0  0  0  0  0  0  0  0
  185.0800  174.3020  136.9660 C   0  0  0  0  0  3  0  0  0  0  0  0
  183.1120  179.9340  139.0250 C   0  0  0  0  0  2  0  0  0  0  0  0
  180.6660  180.2800  139.4450 C   0  0  2  0  0  3  0  0  0  0  0  0
  181.0630  178.4860  140.9370 C   0  0  0  0  0  2  0  0  0  0  0  0
  183.2990  178.8220  139.9690 N   0  0  0  0  0  0  0  0  0  0  0  0
  182.2530  177.8330  140.2430 C   0  0  0  0  0  2  0  0  0  0  0  0
  181.7250  179.9990  138.3910 C   0  0  0  0  0  2  0  0  0  0  0  0
  180.1340  179.0210  139.9500 N   0  0  0  0  0  2  0  0  0  0  0  0
  179.5450  181.0820  138.8140 C   0  0  0  0  0  2  0  0  0  0  0  0
  179.8980  182.4600  138.7780 O   0  0  0  0  0  0  0  0  0  0  0  0
  181.1800  185.0040  136.3890 C   0  0  0  0  0  3  0  0  0  0  0  0
  180.2090  183.1280  137.5910 C   0  0  0  0  0  0  0  0  0  0  0  0
  180.1320  183.1970  135.1670 C   0  0  0  0  0  3  0  0  0  0  0  0
  180.8040  184.4210  135.1760 C   0  0  0  0  0  3  0  0  0  0  0  0
  179.8350  182.5530  136.3720 C   0  0  0  0  0  3  0  0  0  0  0  0
  180.8840  184.3600  137.5950 C   0  0  0  0  0  3  0  0  0  0  0  0
  185.2170  178.6290  146.2320 C   0  0  0  0  0  1  0  0  0  0  0  0
  185.1130  178.6680  144.7830 N   0  0  0  0  0  2  0  0  0  0  0  0
  186.1930  178.2700  143.9340 C   0  0  0  0  0  0  0  0  0  0  0  0
  187.2770  177.8680  144.4410 O   0  0  0  0  0  0  0  0  0  0  0  0
  1 34  1  0  0  0  0
  2  1  1  0  0  0  0
  3  1  2  0  0  0  0
  4  6  2  0  0  0  0
  4  5  1  0  0  0  0
  5  2  2  0  0  0  0
  6  3  1  0  0  0  0
  7  9  1  0  0  0  0
  7 11  2  0  0  0  0
  8 10  1  0  0  0  0
  9  8  2  0  0  0  0
 10  4  1  1  0  0  0
 11 12  1  0  0  0  0
 12 15  2  0  0  0  0
 12 10  1  0  0  0  0
 13 11  1  0  0  0  0
 13 16  2  0  0  0  0
 14 15  1  0  0  0  0
 16 14  1  0  0  0  0
 17 20  1  0  0  0  0
 18 24  1  6  0  0  0
 18 23  1  0  0  0  0
 20 21  1  0  0  0  0
 20  5  1  0  0  0  0
 21 19  1  0  0  0  0
 22 17  1  0  0  0  0
 22 18  1  0  0  0  0
 23 19  1  0  0  0  0
 25 24  1  0  0  0  0
 26 31  1  0  0  0  0
 27 31  2  0  0  0  0
 27 25  1  0  0  0  0
 28 29  1  0  0  0  0
 28 30  2  0  0  0  0
 29 26  2  0  0  0  0
 30 27  1  0  0  0  0
 33 32  1  0  0  0  0
 34 35  2  0  0  0  0
 34 33  1  0  0  0  0
M  END
>  <MODEL>
6

>  <REMARK>
 VINA RESULT:      -6.9      5.630      9.155
  Name = 
  6 active torsions:
  status: ('A' for Active; 'I' for Inactive)
    1  A    between atoms: C_3  and  O_24
    2  A    between atoms: C_6  and  C_21
    3  A    between atoms: C_10  and  C_18
    4  A    between atoms: C_12  and  C_23
    5  A    between atoms: N_14  and  C_26
    6  A    between atoms: C_18  and  O_24
                            x       y       z     vdW  Elec       q    Type
                         _______ _______ _______ _____ _____    ______ ____

>  <TORSDO>
F 6

$$$$
=
 OpenBabel10222419143D

 35 39  0  0  1  0  0  0  0  0999 V2000
  187.5670  177.6400  137.2620 C   0  0  0  0  0  0  0  0  0  0  0  0
  187.5870  177.8470  138.6450 C   0  0  0  0  0  3  0  0  0  0  0  0
  186.3640  177.7990  136.5650 C   0  0  0  0  0  3  0  0  0  0  0  0
  185.2180  178.3850  138.6280 C   0  0  0  0  0  0  0  0  0  0  0  0
  186.4290  178.2240  139.3430 C   0  0  0  0  0  0  0  0  0  0  0  0
  185.2000  178.1610  137.2430 C   0  0  0  0  0  3  0  0  0  0  0  0
  181.4490  179.1730  137.9460 N   0  0  0  0  0  0  0  0  0  0  0  0
  183.4270  180.0750  139.0110 C   0  0  0  0  0  3  0  0  0  0  0  0
  182.2830  180.2720  138.3450 C   0  0  0  0  0  3  0  0  0  0  0  0
  183.9310  178.6910  139.3460 C   0  0  1  0  0  3  0  0  0  0  0  0
  181.7060  177.9470  138.2900 C   0  0  0  0  0  0  0  0  0  0  0  0
  182.8970  177.6280  139.0910 C   0  0  0  0  0  0  0  0  0  0  0  0
  180.8640  176.8790  137.8570 N   0  0  0  0  0  0  0  0  0  0  0  0
  182.0970  175.3360  139.3210 C   0  0  0  0  0  2  0  0  0  0  0  0
  183.0810  176.4100  139.5060 N   0  0  0  0  0  0  0  0  0  0  0  0
  181.0460  175.6670  138.2870 C   0  0  0  0  0  3  0  0  0  0  0  0
  187.6810  177.8920  141.4710 C   0  0  0  0  0  2  0  0  0  0  0  0
  186.5980  177.6290  143.7160 C   0  0  2  0  0  3  0  0  0  0  0  0
  184.7550  178.4770  142.4970 C   0  0  0  0  0  2  0  0  0  0  0  0
  186.5000  178.4140  140.7650 N   0  0  0  0  0  0  0  0  0  0  0  0
  185.4970  179.2580  141.4190 C   0  0  0  0  0  2  0  0  0  0  0  0
  187.7470  178.2640  142.9500 C   0  0  0  0  0  2  0  0  0  0  0  0
  185.4730  178.5540  143.7620 N   0  0  0  0  0  2  0  0  0  0  0  0
  187.0560  177.3250  145.1290 C   0  0  0  0  0  2  0  0  0  0  0  0
  188.2310  178.0700  145.4250 O   0  0  0  0  0  0  0  0  0  0  0  0
  191.6330  176.5830  145.2250 C   0  0  0  0  0  3  0  0  0  0  0  0
  189.4380  177.4650  145.7840 C   0  0  0  0  0  0  0  0  0  0  0  0
  190.8510  176.5190  147.5150 C   0  0  0  0  0  3  0  0  0  0  0  0
  191.8400  176.2480  146.5660 C   0  0  0  0  0  3  0  0  0  0  0  0
  189.6530  177.1250  147.1240 C   0  0  0  0  0  3  0  0  0  0  0  0
  190.4350  177.1900  144.8340 C   0  0  0  0  0  3  0  0  0  0  0  0
  190.7720  175.7010  136.3180 C   0  0  0  0  0  1  0  0  0  0  0  0
  189.5530  176.1210  136.9880 N   0  0  0  0  0  2  0  0  0  0  0  0
  188.7970  177.2520  136.5480 C   0  0  0  0  0  0  0  0  0  0  0  0
  189.1830  177.9180  135.5480 O   0  0  0  0  0  0  0  0  0  0  0  0
  1  2  1  0  0  0  0
  2  5  2  0  0  0  0
  3  6  1  0  0  0  0
  3  1  2  0  0  0  0
  4  5  1  0  0  0  0
  5 20  1  0  0  0  0
  6  4  2  0  0  0  0
  7 11  2  0  0  0  0
  7  9  1  0  0  0  0
  8 10  1  0  0  0  0
  9  8  2  0  0  0  0
 10  4  1  6  0  0  0
 11 12  1  0  0  0  0
 12 10  1  0  0  0  0
 12 15  2  0  0  0  0
 13 16  2  0  0  0  0
 13 11  1  0  0  0  0
 14 15  1  0  0  0  0
 16 14  1  0  0  0  0
 17 22  1  0  0  0  0
 18 23  1  0  0  0  0
 18 24  1  1  0  0  0
 19 23  1  0  0  0  0
 20 21  1  0  0  0  0
 20 17  1  0  0  0  0
 21 19  1  0  0  0  0
 22 18  1  0  0  0  0
 24 25  1  0  0  0  0
 25 27  1  0  0  0  0
 26 29  1  0  0  0  0
 27 30  2  0  0  0  0
 29 28  2  0  0  0  0
 30 28  1  0  0  0  0
 31 26  2  0  0  0  0
 31 27  1  0  0  0  0
 32 33  1  0  0  0  0
 34 33  1  0  0  0  0
 34  1  1  0  0  0  0
 35 34  2  0  0  0  0
M  END
>  <MODEL>
7

>  <REMARK>
 VINA RESULT:      -6.9      3.556      4.738
  Name = 
  6 active torsions:
  status: ('A' for Active; 'I' for Inactive)
    1  A    between atoms: C_3  and  O_24
    2  A    between atoms: C_6  and  C_21
    3  A    between atoms: C_10  and  C_18
    4  A    between atoms: C_12  and  C_23
    5  A    between atoms: N_14  and  C_26
    6  A    between atoms: C_18  and  O_24
                            x       y       z     vdW  Elec       q    Type
                         _______ _______ _______ _____ _____    ______ ____

>  <TORSDO>
F 6

$$$$
=
 OpenBabel10222419143D

 35 39  0  0  1  0  0  0  0  0999 V2000
  185.5630  178.5090  141.7930 C   0  0  0  0  0  0  0  0  0  0  0  0
  186.7580  178.2350  142.4680 C   0  0  0  0  0  3  0  0  0  0  0  0
  185.5800  178.6470  140.4010 C   0  0  0  0  0  3  0  0  0  0  0  0
  187.9740  178.2210  140.3650 C   0  0  0  0  0  0  0  0  0  0  0  0
  187.9680  178.0830  141.7730 C   0  0  0  0  0  0  0  0  0  0  0  0
  186.7760  178.5110  139.6950 C   0  0  0  0  0  3  0  0  0  0  0  0
  190.0100  175.8770  137.9880 N   0  0  0  0  0  0  0  0  0  0  0  0
  190.1640  177.0630  140.0920 C   0  0  0  0  0  3  0  0  0  0  0  0
  190.4810  176.0030  139.3390 C   0  0  0  0  0  3  0  0  0  0  0  0
  189.2620  178.1640  139.5880 C   0  0  1  0  0  3  0  0  0  0  0  0
  189.3380  176.8180  137.3960 C   0  0  0  0  0  0  0  0  0  0  0  0
  189.0030  178.0600  138.1090 C   0  0  0  0  0  0  0  0  0  0  0  0
  188.8700  176.6460  136.0590 N   0  0  0  0  0  0  0  0  0  0  0  0
  188.1670  179.0030  136.0210 C   0  0  0  0  0  2  0  0  0  0  0  0
  188.4170  179.0270  137.4680 N   0  0  0  0  0  0  0  0  0  0  0  0
  188.2970  177.6210  135.4210 C   0  0  0  0  0  3  0  0  0  0  0  0
  189.3450  176.4630  143.0730 C   0  0  0  0  0  2  0  0  0  0  0  0
  190.8940  177.1070  144.9350 C   0  0  2  0  0  3  0  0  0  0  0  0
  190.5520  179.2390  143.9640 C   0  0  0  0  0  2  0  0  0  0  0  0
  189.1700  177.8130  142.5140 N   0  0  0  0  0  0  0  0  0  0  0  0
  190.2320  178.8220  142.5340 C   0  0  0  0  0  2  0  0  0  0  0  0
  190.7080  176.2190  143.7150 C   0  0  0  0  0  2  0  0  0  0  0  0
  191.5500  178.3460  144.5390 N   0  0  0  0  0  2  0  0  0  0  0  0
  191.7600  176.3800  145.9450 C   0  0  0  0  0  2  0  0  0  0  0  0
  191.0620  176.2590  147.1790 O   0  0  0  0  0  0  0  0  0  0  0  0
  187.5520  177.4740  147.0100 C   0  0  0  0  0  3  0  0  0  0  0  0
  189.8870  176.9630  147.4530 C   0  0  0  0  0  0  0  0  0  0  0  0
  188.7250  178.6210  148.7910 C   0  0  0  0  0  3  0  0  0  0  0  0
  187.5590  178.4080  148.0510 C   0  0  0  0  0  3  0  0  0  0  0  0
  189.8850  177.9000  148.4920 C   0  0  0  0  0  3  0  0  0  0  0  0
  188.7120  176.7530  146.7120 C   0  0  0  0  0  3  0  0  0  0  0  0
  183.1130  179.0030  144.7400 C   0  0  0  0  0  1  0  0  0  0  0  0
  184.3290  178.8520  143.9580 N   0  0  0  0  0  2  0  0  0  0  0  0
  184.3020  178.6580  142.5420 C   0  0  0  0  0  0  0  0  0  0  0  0
  183.1970  178.6140  141.9330 O   0  0  0  0  0  0  0  0  0  0  0  0
  1  2  1  0  0  0  0
  1 34  1  0  0  0  0
  3  1  2  0  0  0  0
  4  5  1  0  0  0  0
  5  2  2  0  0  0  0
  5 20  1  0  0  0  0
  6  4  2  0  0  0  0
  6  3  1  0  0  0  0
  7  9  1  0  0  0  0
  9  8  2  0  0  0  0
 10  8  1  0  0  0  0
 10  4  1  1  0  0  0
 11  7  2  0  0  0  0
 11 12  1  0  0  0  0
 12 10  1  0  0  0  0
 13 11  1  0  0  0  0
 14 15  1  0  0  0  0
 15 12  2  0  0  0  0
 16 14  1  0  0  0  0
 16 13  2  0  0  0  0
 17 22  1  0  0  0  0
 18 24  1  1  0  0  0
 19 23  1  0  0  0  0
 20 21  1  0  0  0  0
 20 17  1  0  0  0  0
 21 19  1  0  0  0  0
 22 18  1  0  0  0  0
 23 18  1  0  0  0  0
 24 25  1  0  0  0  0
 25 27  1  0  0  0  0
 26 29  1  0  0  0  0
 27 30  2  0  0  0  0
 29 28  2  0  0  0  0
 30 28  1  0  0  0  0
 31 26  2  0  0  0  0
 31 27  1  0  0  0  0
 33 32  1  0  0  0  0
 34 33  1  0  0  0  0
 35 34  2  0  0  0  0
M  END
>  <MODEL>
8

>  <REMARK>
 VINA RESULT:      -6.8      3.132      6.120
  Name = 
  6 active torsions:
  status: ('A' for Active; 'I' for Inactive)
    1  A    between atoms: C_3  and  O_24
    2  A    between atoms: C_6  and  C_21
    3  A    between atoms: C_10  and  C_18
    4  A    between atoms: C_12  and  C_23
    5  A    between atoms: N_14  and  C_26
    6  A    between atoms: C_18  and  O_24
                            x       y       z     vdW  Elec       q    Type
                         _______ _______ _______ _____ _____    ______ ____

>  <TORSDO>
F 6

$$$$
=
 OpenBabel10222419143D

 35 39  0  0  1  0  0  0  0  0999 V2000
  187.1680  178.0760  141.9880 C   0  0  0  0  0  0  0  0  0  0  0  0
  185.8640  178.3330  141.5490 C   0  0  0  0  0  3  0  0  0  0  0  0
  188.1830  177.8900  141.0430 C   0  0  0  0  0  3  0  0  0  0  0  0
  186.5940  178.2340  139.2340 C   0  0  0  0  0  0  0  0  0  0  0  0
  185.5600  178.4210  140.1830 C   0  0  0  0  0  0  0  0  0  0  0  0
  187.8970  177.9610  139.6790 C   0  0  0  0  0  3  0  0  0  0  0  0
  187.9980  176.8830  135.8450 N   0  0  0  0  0  0  0  0  0  0  0  0
  187.3740  178.9310  136.9720 C   0  0  0  0  0  3  0  0  0  0  0  0
  188.1620  178.2850  136.1050 C   0  0  0  0  0  3  0  0  0  0  0  0
  186.2970  178.2210  137.7590 C   0  0  1  0  0  3  0  0  0  0  0  0
  187.0250  176.1900  136.3580 C   0  0  0  0  0  0  0  0  0  0  0  0
  186.0540  176.8220  137.2630 C   0  0  0  0  0  0  0  0  0  0  0  0
  186.9080  174.7930  136.0910 N   0  0  0  0  0  0  0  0  0  0  0  0
  184.7210  174.7800  137.2150 C   0  0  0  0  0  2  0  0  0  0  0  0
  185.0340  176.1360  137.6850 N   0  0  0  0  0  0  0  0  0  0  0  0
  185.8790  174.1170  136.5050 C   0  0  0  0  0  3  0  0  0  0  0  0
  183.9500  179.8220  138.8960 C   0  0  0  0  0  2  0  0  0  0  0  0
  181.5660  180.2030  139.5650 C   0  0  2  0  0  3  0  0  0  0  0  0
  182.0650  178.3550  140.9570 C   0  0  0  0  0  2  0  0  0  0  0  0
  184.2030  178.6760  139.7840 N   0  0  0  0  0  0  0  0  0  0  0  0
  183.1660  177.7000  140.1300 C   0  0  0  0  0  2  0  0  0  0  0  0
  182.5100  179.9340  138.4040 C   0  0  0  0  0  2  0  0  0  0  0  0
  181.0570  178.9390  140.0820 N   0  0  0  0  0  2  0  0  0  0  0  0
  180.4070  181.0470  139.0710 C   0  0  0  0  0  2  0  0  0  0  0  0
  180.4490  181.1410  137.6530 O   0  0  0  0  0  0  0  0  0  0  0  0
  180.2910  183.7640  135.0220 C   0  0  0  0  0  3  0  0  0  0  0  0
  180.5940  182.3570  136.9810 C   0  0  0  0  0  0  0  0  0  0  0  0
  181.3810  184.6530  136.9930 C   0  0  0  0  0  3  0  0  0  0  0  0
  180.9160  184.8230  135.6870 C   0  0  0  0  0  3  0  0  0  0  0  0
  181.2200  183.4230  137.6380 C   0  0  0  0  0  3  0  0  0  0  0  0
  180.1300  182.5340  135.6670 C   0  0  0  0  0  3  0  0  0  0  0  0
  186.6480  177.9610  145.8150 C   0  0  0  0  0  1  0  0  0  0  0  0
  186.4030  178.0360  144.3840 N   0  0  0  0  0  2  0  0  0  0  0  0
  187.4670  177.9960  143.4290 C   0  0  0  0  0  0  0  0  0  0  0  0
  188.6620  177.8910  143.8210 O   0  0  0  0  0  0  0  0  0  0  0  0
  1 34  1  0  0  0  0
  2  1  1  0  0  0  0
  3  1  2  0  0  0  0
  4  6  2  0  0  0  0
  4  5  1  0  0  0  0
  5  2  2  0  0  0  0
  6  3  1  0  0  0  0
  7  9  1  0  0  0  0
  7 11  2  0  0  0  0
  8 10  1  0  0  0  0
  9  8  2  0  0  0  0
 10  4  1  1  0  0  0
 11 12  1  0  0  0  0
 12 15  2  0  0  0  0
 12 10  1  0  0  0  0
 13 11  1  0  0  0  0
 13 16  2  0  0  0  0
 14 15  1  0  0  0  0
 16 14  1  0  0  0  0
 17 20  1  0  0  0  0
 18 24  1  6  0  0  0
 18 23  1  0  0  0  0
 20 21  1  0  0  0  0
 20  5  1  0  0  0  0
 21 19  1  0  0  0  0
 22 17  1  0  0  0  0
 22 18  1  0  0  0  0
 23 19  1  0  0  0  0
 25 24  1  0  0  0  0
 26 31  2  0  0  0  0
 26 29  1  0  0  0  0
 27 30  2  0  0  0  0
 27 25  1  0  0  0  0
 28 30  1  0  0  0  0
 29 28  2  0  0  0  0
 31 27  1  0  0  0  0
 33 32  1  0  0  0  0
 34 35  2  0  0  0  0
 34 33  1  0  0  0  0
M  END
>  <MODEL>
9

>  <REMARK>
 VINA RESULT:      -6.8      5.152      8.540
  Name = 
  6 active torsions:
  status: ('A' for Active; 'I' for Inactive)
    1  A    between atoms: C_3  and  O_24
    2  A    between atoms: C_6  and  C_21
    3  A    between atoms: C_10  and  C_18
    4  A    between atoms: C_12  and  C_23
    5  A    between atoms: N_14  and  C_26
    6  A    between atoms: C_18  and  O_24
                            x       y       z     vdW  Elec       q    Type
                         _______ _______ _______ _____ _____    ______ ____

>  <TORSDO>
F 6

$$$$
