=
 OpenBabel10222415563D

 36 39  0  0  1  0  0  0  0  0999 V2000
  186.0660  178.3400  143.0430 C   0  0  0  0  0  0  0  0  0  0  0  0
  187.1230  178.0370  142.1810 C   0  0  0  0  0  3  0  0  0  0  0  0
  185.7880  178.8330  140.3290 C   0  0  0  0  0  3  0  0  0  0  0  0
  184.9120  178.8670  142.5490 N   0  0  0  0  0  0  0  0  0  0  0  0
  184.7540  179.1200  141.2230 C   0  0  0  0  0  3  0  0  0  0  0  0
  186.9910  178.2870  140.8060 C   0  0  0  0  0  0  0  0  0  0  0  0
  187.7940  177.7960  138.4690 C   0  0  0  0  0  2  0  0  0  0  0  0
  188.0660  177.9740  139.9000 N   0  0  0  0  0  0  0  0  0  0  0  0
  190.1200  176.6070  139.8930 C   0  0  0  0  0  2  0  0  0  0  0  0
  189.0480  177.3750  137.7050 C   0  0  0  0  0  2  0  0  0  0  0  0
  189.7440  176.2380  138.4510 C   0  0  1  0  0  3  0  0  0  0  0  0
  189.4420  177.8850  140.3940 C   0  0  0  0  0  2  0  0  0  0  0  0
  192.1250  172.6630  135.9120 C   0  0  0  0  0  1  0  0  0  0  0  0
  192.0800  174.0350  136.4840 C   0  0  0  0  0  0  0  0  0  0  0  0
  190.9400  175.7560  137.7000 C   0  0  0  0  0  0  0  0  0  0  0  0
  193.1170  176.1300  136.8470 C   0  0  0  0  0  0  0  0  0  0  0  0
  193.1410  174.8710  136.3340 N   0  0  0  0  0  0  0  0  0  0  0  0
  194.2400  176.9840  136.6870 N   0  0  0  0  0  1  0  0  0  0  0  0
  190.9480  174.4630  137.1770 C   0  0  0  0  0  3  0  0  0  0  0  0
  192.0240  176.5630  137.5290 N   0  0  0  0  0  0  0  0  0  0  0  0
  186.1820  178.0280  144.4940 C   0  0  0  0  0  2  0  0  0  0  0  0
  185.7860  179.1310  146.7600 N   0  0  0  0  0  0  0  0  0  0  0  0
  184.5700  178.4510  146.2920 C   0  0  0  0  0  2  0  0  0  0  0  0
  185.4420  179.0900  145.3110 C   0  0  2  0  0  3  0  0  0  0  0  0
  186.7050  178.0750  147.1890 C   0  0  0  0  0  2  0  0  0  0  0  0
  187.5430  178.5550  148.3660 C   0  0  0  0  0  2  0  0  0  0  0  0
  189.0060  178.1750  148.1880 C   0  0  0  0  0  2  0  0  0  0  0  0
  189.1210  176.7920  147.5580 C   0  0  0  0  0  2  0  0  0  0  0  0
  190.1150  176.7580  146.3960 C   0  0  2  0  0  3  0  0  0  0  0  0
  192.1920  175.6010  146.2300 O   0  0  0  0  0  0  0  0  0  0  0  0
  191.4990  176.4380  146.8630 C   0  0  0  0  0  0  0  0  0  0  0  0
  192.0210  177.0450  148.0000 O   0  0  0  0  0  1  0  0  0  0  0  0
  190.1000  178.0350  145.5520 C   0  0  0  0  0  2  0  0  0  0  0  0
  189.8060  176.4560  143.7550 O   0  0  0  0  0  1  0  0  0  0  0  0
  190.1770  177.7670  144.0500 C   0  0  2  0  0  3  0  0  0  0  0  0
  191.5630  178.0570  143.5010 C   0  0  0  0  0  1  0  0  0  0  0  0
  1 21  1  0  0  0  0
  2  1  2  0  0  0  0
  3  6  2  0  0  0  0
  3  5  1  0  0  0  0
  4  1  1  0  0  0  0
  5  4  2  0  0  0  0
  6  2  1  0  0  0  0
  7  8  1  0  0  0  0
  8 12  1  0  0  0  0
  8  6  1  0  0  0  0
  9 12  1  0  0  0  0
 10 11  1  0  0  0  0
 10  7  1  0  0  0  0
 11 15  1  6  0  0  0
 11  9  1  0  0  0  0
 13 14  1  0  0  0  0
 14 19  2  0  0  0  0
 16 20  1  0  0  0  0
 17 14  1  0  0  0  0
 17 16  2  0  0  0  0
 18 16  1  0  0  0  0
 19 15  1  0  0  0  0
 20 15  2  0  0  0  0
 22 25  1  0  0  0  0
 23 22  1  0  0  0  0
 24 21  1  6  0  0  0
 24 23  1  0  0  0  0
 24 22  1  0  0  0  0
 25 26  1  0  0  0  0
 27 26  1  0  0  0  0
 28 27  1  0  0  0  0
 29 33  1  1  0  0  0
 29 31  1  0  0  0  0
 29 28  1  0  0  0  0
 30 31  2  0  0  0  0
 31 32  1  0  0  0  0
 34 35  1  0  0  0  0
 35 36  1  1  0  0  0
 35 33  1  0  0  0  0
M  END
>  <MODEL>
1

>  <REMARK>
 VINA RESULT:      -8.3      0.000      0.000
  Name = 
  12 active torsions:
  status: ('A' for Active; 'I' for Inactive)
    1  A    between atoms: C_4  and  C_27
    2  A    between atoms: N_5  and  C_25
    3  A    between atoms: C_6  and  C_17
    4  A    between atoms: C_6  and  C_30
    5  A    between atoms: C_9  and  N_10
    6  A    between atoms: C_9  and  C_30
    7  A    between atoms: C_11  and  C_29
    8  A    between atoms: C_17  and  C_36
    9  A    between atoms: C_18  and  C_22
   10  A    between atoms: C_19  and  C_36
   11  A    between atoms: C_22  and  C_36
   12  A    between atoms: C_27  and  C_31
                            x       y       z     vdW  Elec       q    Type
                         _______ _______ _______ _____ _____    ______ ____

>  <TORSDO>
F 12

$$$$
=
 OpenBabel10222415563D

 36 39  0  0  1  0  0  0  0  0999 V2000
  189.9480  177.5850  145.5290 C   0  0  0  0  0  0  0  0  0  0  0  0
  189.6690  177.8620  144.1870 C   0  0  0  0  0  3  0  0  0  0  0  0
  191.4710  176.3820  143.5490 C   0  0  0  0  0  3  0  0  0  0  0  0
  190.9610  176.7370  145.8540 N   0  0  0  0  0  0  0  0  0  0  0  0
  191.7190  176.1330  144.9000 C   0  0  0  0  0  3  0  0  0  0  0  0
  190.4340  177.2540  143.1790 C   0  0  0  0  0  0  0  0  0  0  0  0
  188.8090  177.8770  141.3580 C   0  0  0  0  0  2  0  0  0  0  0  0
  190.1680  177.5340  141.7920 N   0  0  0  0  0  0  0  0  0  0  0  0
  190.8890  176.7060  139.5830 C   0  0  0  0  0  2  0  0  0  0  0  0
  188.7260  178.0400  139.8410 C   0  0  0  0  0  2  0  0  0  0  0  0
  189.4210  176.8620  139.1620 C   0  0  1  0  0  3  0  0  0  0  0  0
  191.2620  177.5300  140.8180 C   0  0  0  0  0  2  0  0  0  0  0  0
  191.2800  176.0540  134.6020 C   0  0  0  0  0  1  0  0  0  0  0  0
  190.2010  176.5650  135.4900 C   0  0  0  0  0  0  0  0  0  0  0  0
  189.3040  176.9520  137.6770 C   0  0  0  0  0  0  0  0  0  0  0  0
  188.0900  177.6000  135.7500 C   0  0  0  0  0  0  0  0  0  0  0  0
  189.0870  177.1310  134.9540 N   0  0  0  0  0  0  0  0  0  0  0  0
  186.9390  178.1970  135.1700 N   0  0  0  0  0  1  0  0  0  0  0  0
  190.3340  176.4630  136.8740 C   0  0  0  0  0  3  0  0  0  0  0  0
  188.2040  177.5140  137.1010 N   0  0  0  0  0  0  0  0  0  0  0  0
  189.1740  178.2690  146.6010 C   0  0  0  0  0  2  0  0  0  0  0  0
  187.0990  177.4320  147.8290 N   0  0  0  0  0  0  0  0  0  0  0  0
  188.1370  177.8480  148.7830 C   0  0  0  0  0  2  0  0  0  0  0  0
  188.5430  177.2240  147.5270 C   0  0  2  0  0  3  0  0  0  0  0  0
  186.5400  178.6640  147.2700 C   0  0  0  0  0  2  0  0  0  0  0  0
  185.2190  178.3720  146.5720 C   0  0  0  0  0  2  0  0  0  0  0  0
  185.1100  179.1390  145.2620 C   0  0  0  0  0  2  0  0  0  0  0  0
  185.1700  178.1800  144.0790 C   0  0  0  0  0  2  0  0  0  0  0  0
  184.0200  178.3910  143.0940 C   0  0  2  0  0  3  0  0  0  0  0  0
  183.8920  178.5900  140.7220 O   0  0  0  0  0  0  0  0  0  0  0  0
  184.5100  178.8960  141.7740 C   0  0  0  0  0  0  0  0  0  0  0  0
  185.6520  179.6860  141.6970 O   0  0  0  0  0  1  0  0  0  0  0  0
  182.9080  179.2870  143.6470 C   0  0  0  0  0  2  0  0  0  0  0  0
  180.9620  180.0390  142.4410 O   0  0  0  0  0  1  0  0  0  0  0  0
  181.5260  178.9440  143.0940 C   0  0  2  0  0  3  0  0  0  0  0  0
  180.5950  178.4480  144.1870 C   0  0  0  0  0  1  0  0  0  0  0  0
  1  4  1  0  0  0  0
  1 21  1  0  0  0  0
  2  1  2  0  0  0  0
  3  5  1  0  0  0  0
  5  4  2  0  0  0  0
  6  3  2  0  0  0  0
  6  2  1  0  0  0  0
  7  8  1  0  0  0  0
  8  6  1  0  0  0  0
  9 12  1  0  0  0  0
 10  7  1  0  0  0  0
 11 15  1  6  0  0  0
 11  9  1  0  0  0  0
 11 10  1  0  0  0  0
 12  8  1  0  0  0  0
 13 14  1  0  0  0  0
 14 19  2  0  0  0  0
 16 20  1  0  0  0  0
 17 14  1  0  0  0  0
 17 16  2  0  0  0  0
 18 16  1  0  0  0  0
 19 15  1  0  0  0  0
 20 15  2  0  0  0  0
 22 23  1  0  0  0  0
 24 21  1  6  0  0  0
 24 22  1  0  0  0  0
 24 23  1  0  0  0  0
 25 22  1  0  0  0  0
 26 25  1  0  0  0  0
 27 26  1  0  0  0  0
 28 27  1  0  0  0  0
 29 33  1  1  0  0  0
 29 28  1  0  0  0  0
 30 31  2  0  0  0  0
 31 29  1  0  0  0  0
 32 31  1  0  0  0  0
 34 35  1  0  0  0  0
 35 33  1  0  0  0  0
 35 36  1  1  0  0  0
M  END
>  <MODEL>
2

>  <REMARK>
 VINA RESULT:      -7.9      3.247      5.782
  Name = 
  12 active torsions:
  status: ('A' for Active; 'I' for Inactive)
    1  A    between atoms: C_4  and  C_27
    2  A    between atoms: N_5  and  C_25
    3  A    between atoms: C_6  and  C_17
    4  A    between atoms: C_6  and  C_30
    5  A    between atoms: C_9  and  N_10
    6  A    between atoms: C_9  and  C_30
    7  A    between atoms: C_11  and  C_29
    8  A    between atoms: C_17  and  C_36
    9  A    between atoms: C_18  and  C_22
   10  A    between atoms: C_19  and  C_36
   11  A    between atoms: C_22  and  C_36
   12  A    between atoms: C_27  and  C_31
                            x       y       z     vdW  Elec       q    Type
                         _______ _______ _______ _____ _____    ______ ____

>  <TORSDO>
F 12

$$$$
=
 OpenBabel10222415563D

 36 39  0  0  1  0  0  0  0  0999 V2000
  189.4770  176.7110  137.5440 C   0  0  0  0  0  0  0  0  0  0  0  0
  189.1490  177.1160  138.8410 C   0  0  0  0  0  3  0  0  0  0  0  0
  191.4340  176.6960  139.5080 C   0  0  0  0  0  3  0  0  0  0  0  0
  190.7450  176.3090  137.2550 N   0  0  0  0  0  0  0  0  0  0  0  0
  191.7220  176.2960  138.2010 C   0  0  0  0  0  3  0  0  0  0  0  0
  190.1350  177.1150  139.8390 C   0  0  0  0  0  0  0  0  0  0  0  0
  190.7390  177.2210  142.2830 C   0  0  0  0  0  2  0  0  0  0  0  0
  189.8140  177.5200  141.1830 N   0  0  0  0  0  0  0  0  0  0  0  0
  187.8190  177.6760  142.6260 C   0  0  0  0  0  2  0  0  0  0  0  0
  190.1670  177.6490  143.6330 C   0  0  0  0  0  2  0  0  0  0  0  0
  188.7240  177.1620  143.7540 C   0  0  1  0  0  3  0  0  0  0  0  0
  188.5910  178.2800  141.4510 C   0  0  0  0  0  2  0  0  0  0  0  0
  184.8260  178.3610  146.6290 C   0  0  0  0  0  1  0  0  0  0  0  0
  186.2780  178.0830  146.4650 C   0  0  0  0  0  0  0  0  0  0  0  0
  188.1520  177.5050  145.0890 C   0  0  0  0  0  0  0  0  0  0  0  0
  188.4390  177.8920  147.4070 C   0  0  0  0  0  0  0  0  0  0  0  0
  187.1100  178.1460  147.5380 N   0  0  0  0  0  0  0  0  0  0  0  0
  189.2920  177.9730  148.5400 N   0  0  0  0  0  1  0  0  0  0  0  0
  186.7860  177.7600  145.2070 C   0  0  0  0  0  3  0  0  0  0  0  0
  188.9530  177.5790  146.1890 N   0  0  0  0  0  0  0  0  0  0  0  0
  188.4220  176.6610  136.4950 C   0  0  0  0  0  2  0  0  0  0  0  0
  186.0960  177.7090  136.5550 N   0  0  0  0  0  0  0  0  0  0  0  0
  186.8080  178.0890  135.3260 C   0  0  0  0  0  2  0  0  0  0  0  0
  187.5690  177.9310  136.5620 C   0  0  2  0  0  3  0  0  0  0  0  0
  185.7010  176.3100  136.3810 C   0  0  0  0  0  2  0  0  0  0  0  0
  184.3030  176.0860  136.9420 C   0  0  0  0  0  2  0  0  0  0  0  0
  183.8020  177.3220  137.6740 C   0  0  0  0  0  2  0  0  0  0  0  0
  183.5380  177.0010  139.1390 C   0  0  0  0  0  2  0  0  0  0  0  0
  183.5780  178.2440  140.0290 C   0  0  2  0  0  3  0  0  0  0  0  0
  184.2810  180.3150  139.0830 O   0  0  0  0  0  0  0  0  0  0  0  0
  184.6260  179.2110  139.5780 C   0  0  0  0  0  0  0  0  0  0  0  0
  185.9750  178.8950  139.6840 O   0  0  0  0  0  1  0  0  0  0  0  0
  183.7360  177.9160  141.5170 C   0  0  0  0  0  2  0  0  0  0  0  0
  184.8060  179.4360  143.0510 O   0  0  0  0  0  1  0  0  0  0  0  0
  183.5970  179.1380  142.4220 C   0  0  2  0  0  3  0  0  0  0  0  0
  182.5010  178.9450  143.4550 C   0  0  0  0  0  1  0  0  0  0  0  0
  1  2  1  0  0  0  0
  2  6  2  0  0  0  0
  3  6  1  0  0  0  0
  4  1  2  0  0  0  0
  4  5  1  0  0  0  0
  5  3  2  0  0  0  0
  6  8  1  0  0  0  0
  7 10  1  0  0  0  0
  8 12  1  0  0  0  0
  8  7  1  0  0  0  0
  9 11  1  0  0  0  0
 10 11  1  0  0  0  0
 11 15  1  1  0  0  0
 12  9  1  0  0  0  0
 14 13  1  0  0  0  0
 14 17  1  0  0  0  0
 15 19  1  0  0  0  0
 15 20  2  0  0  0  0
 16 17  2  0  0  0  0
 16 18  1  0  0  0  0
 19 14  2  0  0  0  0
 20 16  1  0  0  0  0
 21  1  1  0  0  0  0
 22 24  1  0  0  0  0
 23 22  1  0  0  0  0
 23 24  1  0  0  0  0
 24 21  1  6  0  0  0
 25 22  1  0  0  0  0
 25 26  1  0  0  0  0
 26 27  1  0  0  0  0
 27 28  1  0  0  0  0
 29 28  1  6  0  0  0
 29 33  1  0  0  0  0
 30 31  2  0  0  0  0
 31 32  1  0  0  0  0
 31 29  1  0  0  0  0
 33 35  1  0  0  0  0
 35 34  1  0  0  0  0
 35 36  1  1  0  0  0
M  END
>  <MODEL>
3

>  <REMARK>
 VINA RESULT:      -7.8      3.084      9.095
  Name = 
  12 active torsions:
  status: ('A' for Active; 'I' for Inactive)
    1  A    between atoms: C_4  and  C_27
    2  A    between atoms: N_5  and  C_25
    3  A    between atoms: C_6  and  C_17
    4  A    between atoms: C_6  and  C_30
    5  A    between atoms: C_9  and  N_10
    6  A    between atoms: C_9  and  C_30
    7  A    between atoms: C_11  and  C_29
    8  A    between atoms: C_17  and  C_36
    9  A    between atoms: C_18  and  C_22
   10  A    between atoms: C_19  and  C_36
   11  A    between atoms: C_22  and  C_36
   12  A    between atoms: C_27  and  C_31
                            x       y       z     vdW  Elec       q    Type
                         _______ _______ _______ _____ _____    ______ ____

>  <TORSDO>
F 12

$$$$
=
 OpenBabel10222415563D

 36 39  0  0  1  0  0  0  0  0999 V2000
  191.1290  175.8740  138.3660 C   0  0  0  0  0  0  0  0  0  0  0  0
  190.4130  176.3360  139.4740 C   0  0  0  0  0  3  0  0  0  0  0  0
  192.4130  177.4490  140.2530 C   0  0  0  0  0  3  0  0  0  0  0  0
  192.4440  176.1930  138.2230 N   0  0  0  0  0  0  0  0  0  0  0  0
  193.0940  176.9660  139.1340 C   0  0  0  0  0  3  0  0  0  0  0  0
  191.0550  177.1370  140.4320 C   0  0  0  0  0  0  0  0  0  0  0  0
  191.0540  177.9020  142.8310 C   0  0  0  0  0  2  0  0  0  0  0  0
  190.3370  177.6160  141.5840 N   0  0  0  0  0  0  0  0  0  0  0  0
  188.1600  177.2310  142.6790 C   0  0  0  0  0  2  0  0  0  0  0  0
  190.0970  178.3040  143.9520 C   0  0  0  0  0  2  0  0  0  0  0  0
  188.9290  177.3210  144.0050 C   0  0  1  0  0  3  0  0  0  0  0  0
  188.8960  177.8700  141.5000 C   0  0  0  0  0  2  0  0  0  0  0  0
  184.4220  178.6570  145.6790 C   0  0  0  0  0  1  0  0  0  0  0  0
  185.8410  178.2870  145.9310 C   0  0  0  0  0  0  0  0  0  0  0  0
  188.0050  177.6430  145.1310 C   0  0  0  0  0  0  0  0  0  0  0  0
  187.6110  177.9050  147.4510 C   0  0  0  0  0  0  0  0  0  0  0  0
  186.3190  178.2440  147.2020 N   0  0  0  0  0  0  0  0  0  0  0  0
  188.0930  177.8760  148.7870 N   0  0  0  0  0  1  0  0  0  0  0  0
  186.6810  177.9860  144.8590 C   0  0  0  0  0  3  0  0  0  0  0  0
  188.4470  177.6120  146.4200 N   0  0  0  0  0  0  0  0  0  0  0  0
  190.4660  174.9810  137.3770 C   0  0  0  0  0  2  0  0  0  0  0  0
  189.7500  175.3580  134.9570 N   0  0  0  0  0  0  0  0  0  0  0  0
  190.7390  174.2740  135.0450 C   0  0  0  0  0  2  0  0  0  0  0  0
  190.8520  175.4080  135.9580 C   0  0  2  0  0  3  0  0  0  0  0  0
  188.4950  174.8080  135.4730 C   0  0  0  0  0  2  0  0  0  0  0  0
  187.3160  175.3620  134.6850 C   0  0  0  0  0  2  0  0  0  0  0  0
  186.4990  176.3300  135.5290 C   0  0  0  0  0  2  0  0  0  0  0  0
  187.1580  176.5360  136.8870 C   0  0  0  0  0  2  0  0  0  0  0  0
  187.1270  177.9970  137.3390 C   0  0  2  0  0  3  0  0  0  0  0  0
  189.2380  178.4340  136.3230 O   0  0  0  0  0  0  0  0  0  0  0  0
  188.4910  178.6090  137.3200 C   0  0  0  0  0  0  0  0  0  0  0  0
  188.9480  179.3560  138.4000 O   0  0  0  0  0  1  0  0  0  0  0  0
  186.4550  178.1930  138.7010 C   0  0  0  0  0  2  0  0  0  0  0  0
  184.8080  179.7130  139.5890 O   0  0  0  0  0  1  0  0  0  0  0  0
  185.0390  178.7570  138.6000 C   0  0  2  0  0  3  0  0  0  0  0  0
  183.9930  177.6580  138.6770 C   0  0  0  0  0  1  0  0  0  0  0  0
  1  2  1  0  0  0  0
  2  6  2  0  0  0  0
  3  6  1  0  0  0  0
  4  1  2  0  0  0  0
  4  5  1  0  0  0  0
  5  3  2  0  0  0  0
  6  8  1  0  0  0  0
  7 10  1  0  0  0  0
  8  7  1  0  0  0  0
  9 11  1  0  0  0  0
 10 11  1  0  0  0  0
 11 15  1  1  0  0  0
 12  8  1  0  0  0  0
 12  9  1  0  0  0  0
 13 14  1  0  0  0  0
 14 17  1  0  0  0  0
 15 20  2  0  0  0  0
 16 18  1  0  0  0  0
 17 16  2  0  0  0  0
 19 15  1  0  0  0  0
 19 14  2  0  0  0  0
 20 16  1  0  0  0  0
 21  1  1  0  0  0  0
 22 23  1  0  0  0  0
 22 25  1  0  0  0  0
 22 24  1  0  0  0  0
 23 24  1  0  0  0  0
 24 21  1  1  0  0  0
 26 25  1  0  0  0  0
 26 27  1  0  0  0  0
 27 28  1  0  0  0  0
 29 28  1  1  0  0  0
 29 33  1  0  0  0  0
 30 31  2  0  0  0  0
 31 29  1  0  0  0  0
 31 32  1  0  0  0  0
 35 36  1  1  0  0  0
 35 33  1  0  0  0  0
 35 34  1  0  0  0  0
M  END
>  <MODEL>
4

>  <REMARK>
 VINA RESULT:      -7.8      3.141      9.696
  Name = 
  12 active torsions:
  status: ('A' for Active; 'I' for Inactive)
    1  A    between atoms: C_4  and  C_27
    2  A    between atoms: N_5  and  C_25
    3  A    between atoms: C_6  and  C_17
    4  A    between atoms: C_6  and  C_30
    5  A    between atoms: C_9  and  N_10
    6  A    between atoms: C_9  and  C_30
    7  A    between atoms: C_11  and  C_29
    8  A    between atoms: C_17  and  C_36
    9  A    between atoms: C_18  and  C_22
   10  A    between atoms: C_19  and  C_36
   11  A    between atoms: C_22  and  C_36
   12  A    between atoms: C_27  and  C_31
                            x       y       z     vdW  Elec       q    Type
                         _______ _______ _______ _____ _____    ______ ____

>  <TORSDO>
F 12

$$$$
=
 OpenBabel10222415563D

 36 39  0  0  1  0  0  0  0  0999 V2000
  187.9990  177.4590  145.4710 C   0  0  0  0  0  0  0  0  0  0  0  0
  186.9370  177.8800  144.6650 C   0  0  0  0  0  3  0  0  0  0  0  0
  185.8070  178.6860  146.6440 C   0  0  0  0  0  3  0  0  0  0  0  0
  187.9490  177.6480  146.8170 N   0  0  0  0  0  0  0  0  0  0  0  0
  186.8870  178.2500  147.4150 C   0  0  0  0  0  3  0  0  0  0  0  0
  185.8260  178.5050  145.2510 C   0  0  0  0  0  0  0  0  0  0  0  0
  183.3680  179.0040  145.0100 C   0  0  0  0  0  2  0  0  0  0  0  0
  184.7190  178.9380  144.4390 N   0  0  0  0  0  0  0  0  0  0  0  0
  183.9470  178.6950  142.1090 C   0  0  0  0  0  2  0  0  0  0  0  0
  182.3300  179.3920  143.9590 C   0  0  0  0  0  2  0  0  0  0  0  0
  182.5370  178.5520  142.7010 C   0  0  1  0  0  3  0  0  0  0  0  0
  184.9430  179.3670  143.0560 C   0  0  0  0  0  2  0  0  0  0  0  0
  179.9990  177.3070  138.5890 C   0  0  0  0  0  1  0  0  0  0  0  0
  180.2850  178.2570  139.6980 C   0  0  0  0  0  0  0  0  0  0  0  0
  181.4990  178.8570  141.6740 C   0  0  0  0  0  0  0  0  0  0  0  0
  179.8460  180.3060  140.7940 C   0  0  0  0  0  0  0  0  0  0  0  0
  179.6000  179.4280  139.7850 N   0  0  0  0  0  0  0  0  0  0  0  0
  179.1270  181.5300  140.8610 N   0  0  0  0  0  1  0  0  0  0  0  0
  181.2570  177.9440  140.6470 C   0  0  0  0  0  3  0  0  0  0  0  0
  180.7930  180.0210  141.7260 N   0  0  0  0  0  0  0  0  0  0  0  0
  189.1550  176.7480  144.8580 C   0  0  0  0  0  2  0  0  0  0  0  0
  191.4000  177.9580  144.7620 N   0  0  0  0  0  0  0  0  0  0  0  0
  191.5940  176.5120  144.9400 C   0  0  0  0  0  2  0  0  0  0  0  0
  190.4470  177.1520  145.5750 C   0  0  2  0  0  3  0  0  0  0  0  0
  190.9900  178.1460  143.3690 C   0  0  0  0  0  2  0  0  0  0  0  0
  191.7340  177.1720  142.4670 C   0  0  0  0  0  2  0  0  0  0  0  0
  191.5060  177.5010  140.9990 C   0  0  0  0  0  2  0  0  0  0  0  0
  190.1520  176.9720  140.5410 C   0  0  0  0  0  2  0  0  0  0  0  0
  189.3750  177.9910  139.7070 C   0  0  2  0  0  3  0  0  0  0  0  0
  188.3570  178.9230  141.6500 O   0  0  0  0  0  1  0  0  0  0  0  0
  188.2070  178.5430  140.4610 C   0  0  0  0  0  0  0  0  0  0  0  0
  186.9530  178.6250  139.8640 O   0  0  0  0  0  0  0  0  0  0  0  0
  188.9430  177.4500  138.3410 C   0  0  0  0  0  2  0  0  0  0  0  0
  188.5740  179.5450  137.2080 O   0  0  0  0  0  1  0  0  0  0  0  0
  189.3220  178.3680  137.1810 C   0  0  2  0  0  3  0  0  0  0  0  0
  189.1580  177.6720  135.8420 C   0  0  0  0  0  1  0  0  0  0  0  0
  1  4  1  0  0  0  0
  2  6  1  0  0  0  0
  2  1  2  0  0  0  0
  3  5  1  0  0  0  0
  4  5  2  0  0  0  0
  6  3  2  0  0  0  0
  8  7  1  0  0  0  0
  8  6  1  0  0  0  0
  9 11  1  0  0  0  0
  9 12  1  0  0  0  0
 10  7  1  0  0  0  0
 11 15  1  6  0  0  0
 11 10  1  0  0  0  0
 12  8  1  0  0  0  0
 13 14  1  0  0  0  0
 14 17  1  0  0  0  0
 14 19  2  0  0  0  0
 15 20  2  0  0  0  0
 16 18  1  0  0  0  0
 16 20  1  0  0  0  0
 17 16  2  0  0  0  0
 19 15  1  0  0  0  0
 21  1  1  0  0  0  0
 22 23  1  0  0  0  0
 22 24  1  0  0  0  0
 23 24  1  0  0  0  0
 24 21  1  6  0  0  0
 25 22  1  0  0  0  0
 26 25  1  0  0  0  0
 27 26  1  0  0  0  0
 28 27  1  0  0  0  0
 29 33  1  6  0  0  0
 29 31  1  0  0  0  0
 29 28  1  0  0  0  0
 31 30  1  0  0  0  0
 32 31  2  0  0  0  0
 35 36  1  6  0  0  0
 35 34  1  0  0  0  0
 35 33  1  0  0  0  0
M  END
>  <MODEL>
5

>  <REMARK>
 VINA RESULT:      -7.8      3.770      8.664
  Name = 
  12 active torsions:
  status: ('A' for Active; 'I' for Inactive)
    1  A    between atoms: C_4  and  C_27
    2  A    between atoms: N_5  and  C_25
    3  A    between atoms: C_6  and  C_17
    4  A    between atoms: C_6  and  C_30
    5  A    between atoms: C_9  and  N_10
    6  A    between atoms: C_9  and  C_30
    7  A    between atoms: C_11  and  C_29
    8  A    between atoms: C_17  and  C_36
    9  A    between atoms: C_18  and  C_22
   10  A    between atoms: C_19  and  C_36
   11  A    between atoms: C_22  and  C_36
   12  A    between atoms: C_27  and  C_31
                            x       y       z     vdW  Elec       q    Type
                         _______ _______ _______ _____ _____    ______ ____

>  <TORSDO>
F 12

$$$$
=
 OpenBabel10222415563D

 36 39  0  0  1  0  0  0  0  0999 V2000
  189.2600  177.0620  137.4080 C   0  0  0  0  0  0  0  0  0  0  0  0
  188.8430  177.4660  138.6790 C   0  0  0  0  0  3  0  0  0  0  0  0
  190.9880  176.7770  139.5570 C   0  0  0  0  0  3  0  0  0  0  0  0
  190.5000  176.5290  137.2330 N   0  0  0  0  0  0  0  0  0  0  0  0
  191.3660  176.3830  138.2720 C   0  0  0  0  0  3  0  0  0  0  0  0
  189.7140  177.3290  139.7720 C   0  0  0  0  0  0  0  0  0  0  0  0
  190.1140  177.3730  142.2580 C   0  0  0  0  0  2  0  0  0  0  0  0
  189.3000  177.7310  141.0900 N   0  0  0  0  0  0  0  0  0  0  0  0
  187.2000  177.9650  142.3630 C   0  0  0  0  0  2  0  0  0  0  0  0
  189.4500  177.8110  143.5630 C   0  0  0  0  0  2  0  0  0  0  0  0
  187.9810  177.3920  143.5550 C   0  0  1  0  0  3  0  0  0  0  0  0
  188.0960  178.5460  141.2680 C   0  0  0  0  0  2  0  0  0  0  0  0
  188.0950  177.8400  148.5230 C   0  0  0  0  0  1  0  0  0  0  0  0
  187.3730  177.9560  147.2280 C   0  0  0  0  0  0  0  0  0  0  0  0
  187.3150  177.7450  144.8420 C   0  0  0  0  0  0  0  0  0  0  0  0
  185.4080  178.4970  146.0280 C   0  0  0  0  0  0  0  0  0  0  0  0
  186.0820  178.3820  147.2030 N   0  0  0  0  0  0  0  0  0  0  0  0
  184.0570  178.9350  146.0240 N   0  0  0  0  0  1  0  0  0  0  0  0
  188.0220  177.6250  146.0390 C   0  0  0  0  0  3  0  0  0  0  0  0
  186.0220  178.1750  144.8590 N   0  0  0  0  0  0  0  0  0  0  0  0
  188.3200  177.1570  136.2570 C   0  0  0  0  0  2  0  0  0  0  0  0
  186.5730  175.5550  135.3120 N   0  0  0  0  0  0  0  0  0  0  0  0
  187.0190  175.1140  136.6410 C   0  0  0  0  0  2  0  0  0  0  0  0
  187.9830  175.7510  135.7500 C   0  0  2  0  0  3  0  0  0  0  0  0
  185.7080  176.7150  135.5360 C   0  0  0  0  0  2  0  0  0  0  0  0
  184.2450  176.2970  135.4850 C   0  0  0  0  0  2  0  0  0  0  0  0
  183.4300  177.0250  136.5430 C   0  0  0  0  0  2  0  0  0  0  0  0
  184.0660  176.8520  137.9160 C   0  0  0  0  0  2  0  0  0  0  0  0
  183.6870  177.9720  138.8850 C   0  0  2  0  0  3  0  0  0  0  0  0
  184.8060  179.6860  140.1070 O   0  0  0  0  0  1  0  0  0  0  0  0
  184.8280  178.9120  139.1160 C   0  0  0  0  0  0  0  0  0  0  0  0
  185.9040  178.9490  138.2360 O   0  0  0  0  0  0  0  0  0  0  0  0
  183.1220  177.4570  140.2120 C   0  0  0  0  0  2  0  0  0  0  0  0
  181.1040  178.3870  139.2760 O   0  0  0  0  0  1  0  0  0  0  0  0
  181.6580  177.8340  140.4310 C   0  0  2  0  0  3  0  0  0  0  0  0
  181.4960  178.7890  141.6000 C   0  0  0  0  0  1  0  0  0  0  0  0
  1  2  1  0  0  0  0
  2  6  2  0  0  0  0
  3  6  1  0  0  0  0
  4  1  2  0  0  0  0
  4  5  1  0  0  0  0
  5  3  2  0  0  0  0
  6  8  1  0  0  0  0
  7 10  1  0  0  0  0
  8 12  1  0  0  0  0
  8  7  1  0  0  0  0
  9 11  1  0  0  0  0
 11 10  1  0  0  0  0
 11 15  1  1  0  0  0
 12  9  1  0  0  0  0
 14 13  1  0  0  0  0
 15 20  2  0  0  0  0
 15 19  1  0  0  0  0
 16 17  2  0  0  0  0
 17 14  1  0  0  0  0
 18 16  1  0  0  0  0
 19 14  2  0  0  0  0
 20 16  1  0  0  0  0
 21  1  1  0  0  0  0
 22 25  1  0  0  0  0
 22 24  1  0  0  0  0
 22 23  1  0  0  0  0
 24 21  1  1  0  0  0
 24 23  1  0  0  0  0
 26 25  1  0  0  0  0
 26 27  1  0  0  0  0
 27 28  1  0  0  0  0
 29 28  1  6  0  0  0
 29 31  1  0  0  0  0
 29 33  1  0  0  0  0
 31 30  1  0  0  0  0
 32 31  2  0  0  0  0
 33 35  1  0  0  0  0
 34 35  1  0  0  0  0
 35 36  1  1  0  0  0
M  END
>  <MODEL>
6

>  <REMARK>
 VINA RESULT:      -7.7      3.375      9.628
  Name = 
  12 active torsions:
  status: ('A' for Active; 'I' for Inactive)
    1  A    between atoms: C_4  and  C_27
    2  A    between atoms: N_5  and  C_25
    3  A    between atoms: C_6  and  C_17
    4  A    between atoms: C_6  and  C_30
    5  A    between atoms: C_9  and  N_10
    6  A    between atoms: C_9  and  C_30
    7  A    between atoms: C_11  and  C_29
    8  A    between atoms: C_17  and  C_36
    9  A    between atoms: C_18  and  C_22
   10  A    between atoms: C_19  and  C_36
   11  A    between atoms: C_22  and  C_36
   12  A    between atoms: C_27  and  C_31
                            x       y       z     vdW  Elec       q    Type
                         _______ _______ _______ _____ _____    ______ ____

>  <TORSDO>
F 12

$$$$
=
 OpenBabel10222415563D

 36 39  0  0  1  0  0  0  0  0999 V2000
  189.5060  176.8590  137.4870 C   0  0  0  0  0  0  0  0  0  0  0  0
  189.0520  177.2610  138.7470 C   0  0  0  0  0  3  0  0  0  0  0  0
  191.2830  176.9280  139.6150 C   0  0  0  0  0  3  0  0  0  0  0  0
  190.8080  176.5020  137.3150 N   0  0  0  0  0  0  0  0  0  0  0  0
  191.6980  176.5300  138.3420 C   0  0  0  0  0  3  0  0  0  0  0  0
  189.9460  177.3020  139.8280 C   0  0  0  0  0  0  0  0  0  0  0  0
  190.2630  177.3280  142.3260 C   0  0  0  0  0  2  0  0  0  0  0  0
  189.4950  177.7050  141.1340 N   0  0  0  0  0  0  0  0  0  0  0  0
  187.3570  177.9650  142.3370 C   0  0  0  0  0  2  0  0  0  0  0  0
  189.5630  177.7690  143.6100 C   0  0  0  0  0  2  0  0  0  0  0  0
  188.0880  177.3740  143.5510 C   0  0  1  0  0  3  0  0  0  0  0  0
  188.2980  178.5380  141.2750 C   0  0  0  0  0  2  0  0  0  0  0  0
  188.0610  177.8470  148.5180 C   0  0  0  0  0  1  0  0  0  0  0  0
  187.3750  177.9540  147.2030 C   0  0  0  0  0  0  0  0  0  0  0  0
  187.3850  177.7310  144.8170 C   0  0  0  0  0  0  0  0  0  0  0  0
  185.4430  178.4830  145.9450 C   0  0  0  0  0  0  0  0  0  0  0  0
  186.0840  178.3760  147.1390 N   0  0  0  0  0  0  0  0  0  0  0  0
  184.0910  178.9160  145.9010 N   0  0  0  0  0  1  0  0  0  0  0  0
  188.0580  177.6190  146.0340 C   0  0  0  0  0  3  0  0  0  0  0  0
  186.0900  178.1570  144.7950 N   0  0  0  0  0  0  0  0  0  0  0  0
  188.5490  176.7640  136.3510 C   0  0  0  0  0  2  0  0  0  0  0  0
  186.0900  177.4440  136.4030 N   0  0  0  0  0  0  0  0  0  0  0  0
  186.7570  177.9890  135.2110 C   0  0  0  0  0  2  0  0  0  0  0  0
  187.5120  177.8860  136.4560 C   0  0  2  0  0  3  0  0  0  0  0  0
  185.9160  176.0120  136.1540 C   0  0  0  0  0  2  0  0  0  0  0  0
  184.7790  175.4660  137.0070 C   0  0  0  0  0  2  0  0  0  0  0  0
  184.0760  176.5840  137.7640 C   0  0  0  0  0  2  0  0  0  0  0  0
  182.9690  176.0150  138.6420 C   0  0  0  0  0  2  0  0  0  0  0  0
  182.4940  177.0070  139.7050 C   0  0  2  0  0  3  0  0  0  0  0  0
  180.5100  177.4960  140.9310 O   0  0  0  0  0  1  0  0  0  0  0  0
  181.0290  176.8710  139.9700 C   0  0  0  0  0  0  0  0  0  0  0  0
  180.2370  176.0490  139.1760 O   0  0  0  0  0  0  0  0  0  0  0  0
  182.8630  178.4580  139.3840 C   0  0  0  0  0  2  0  0  0  0  0  0
  184.9760  179.4990  139.8960 O   0  0  0  0  0  1  0  0  0  0  0  0
  183.7560  179.1020  140.4430 C   0  0  2  0  0  3  0  0  0  0  0  0
  183.9850  178.1720  141.6210 C   0  0  0  0  0  1  0  0  0  0  0  0
  1  2  1  0  0  0  0
  2  6  2  0  0  0  0
  3  6  1  0  0  0  0
  4  1  2  0  0  0  0
  4  5  1  0  0  0  0
  5  3  2  0  0  0  0
  6  8  1  0  0  0  0
  7 10  1  0  0  0  0
  8 12  1  0  0  0  0
  8  7  1  0  0  0  0
  9 11  1  0  0  0  0
 11 10  1  0  0  0  0
 11 15  1  1  0  0  0
 12  9  1  0  0  0  0
 14 13  1  0  0  0  0
 15 19  1  0  0  0  0
 16 17  2  0  0  0  0
 17 14  1  0  0  0  0
 18 16  1  0  0  0  0
 19 14  2  0  0  0  0
 20 15  2  0  0  0  0
 20 16  1  0  0  0  0
 21  1  1  0  0  0  0
 22 24  1  0  0  0  0
 23 22  1  0  0  0  0
 23 24  1  0  0  0  0
 24 21  1  6  0  0  0
 25 22  1  0  0  0  0
 25 26  1  0  0  0  0
 26 27  1  0  0  0  0
 27 28  1  0  0  0  0
 29 28  1  6  0  0  0
 29 31  1  0  0  0  0
 31 30  1  0  0  0  0
 32 31  2  0  0  0  0
 33 29  1  0  0  0  0
 33 35  1  0  0  0  0
 34 35  1  0  0  0  0
 35 36  1  1  0  0  0
M  END
>  <MODEL>
7

>  <REMARK>
 VINA RESULT:      -7.6      3.461      9.567
  Name = 
  12 active torsions:
  status: ('A' for Active; 'I' for Inactive)
    1  A    between atoms: C_4  and  C_27
    2  A    between atoms: N_5  and  C_25
    3  A    between atoms: C_6  and  C_17
    4  A    between atoms: C_6  and  C_30
    5  A    between atoms: C_9  and  N_10
    6  A    between atoms: C_9  and  C_30
    7  A    between atoms: C_11  and  C_29
    8  A    between atoms: C_17  and  C_36
    9  A    between atoms: C_18  and  C_22
   10  A    between atoms: C_19  and  C_36
   11  A    between atoms: C_22  and  C_36
   12  A    between atoms: C_27  and  C_31
                            x       y       z     vdW  Elec       q    Type
                         _______ _______ _______ _____ _____    ______ ____

>  <TORSDO>
F 12

$$$$
=
 OpenBabel10222415563D

 36 39  0  0  1  0  0  0  0  0999 V2000
  187.4250  177.3700  145.5240 C   0  0  0  0  0  0  0  0  0  0  0  0
  187.8360  177.4270  144.1890 C   0  0  0  0  0  3  0  0  0  0  0  0
  190.0750  177.9410  144.9420 C   0  0  0  0  0  3  0  0  0  0  0  0
  188.3200  177.5990  146.5240 N   0  0  0  0  0  0  0  0  0  0  0  0
  189.6250  177.8770  146.2630 C   0  0  0  0  0  3  0  0  0  0  0  0
  189.1770  177.7120  143.8870 C   0  0  0  0  0  0  0  0  0  0  0  0
  188.6380  177.9330  141.4360 C   0  0  0  0  0  2  0  0  0  0  0  0
  189.6180  177.7830  142.5190 N   0  0  0  0  0  0  0  0  0  0  0  0
  191.3470  176.7540  141.0920 C   0  0  0  0  0  2  0  0  0  0  0  0
  189.3040  177.8900  140.0630 C   0  0  0  0  0  2  0  0  0  0  0  0
  190.2700  176.7090  139.9990 C   0  0  1  0  0  3  0  0  0  0  0  0
  191.0480  177.7620  142.2040 C   0  0  0  0  0  2  0  0  0  0  0  0
  189.8540  176.4860  135.0310 C   0  0  0  0  0  1  0  0  0  0  0  0
  190.6880  176.4860  136.2630 C   0  0  0  0  0  0  0  0  0  0  0  0
  190.8920  176.5960  138.6480 C   0  0  0  0  0  0  0  0  0  0  0  0
  192.8180  176.3770  137.2860 C   0  0  0  0  0  0  0  0  0  0  0  0
  192.0400  176.3760  136.1710 N   0  0  0  0  0  0  0  0  0  0  0  0
  194.2280  176.2510  137.1690 N   0  0  0  0  0  1  0  0  0  0  0  0
  190.0810  176.5990  137.5130 C   0  0  0  0  0  3  0  0  0  0  0  0
  192.2440  176.4820  138.5140 N   0  0  0  0  0  0  0  0  0  0  0  0
  185.9930  177.1210  145.8470 C   0  0  0  0  0  2  0  0  0  0  0  0
  184.3130  179.0060  146.2140 N   0  0  0  0  0  0  0  0  0  0  0  0
  185.6800  179.5370  146.1270 C   0  0  0  0  0  2  0  0  0  0  0  0
  185.4680  178.2360  146.7550 C   0  0  2  0  0  3  0  0  0  0  0  0
  183.9310  178.6350  144.8500 C   0  0  0  0  0  2  0  0  0  0  0  0
  184.1660  179.8040  143.9040 C   0  0  0  0  0  2  0  0  0  0  0  0
  185.0050  179.3790  142.7070 C   0  0  0  0  0  2  0  0  0  0  0  0
  184.5670  178.0060  142.2120 C   0  0  0  0  0  2  0  0  0  0  0  0
  183.9490  178.0560  140.8150 C   0  0  2  0  0  3  0  0  0  0  0  0
  185.9010  178.6380  139.5780 O   0  0  0  0  0  1  0  0  0  0  0  0
  184.7250  178.9480  139.9000 C   0  0  0  0  0  0  0  0  0  0  0  0
  184.1660  180.1250  139.4150 O   0  0  0  0  0  0  0  0  0  0  0  0
  182.4650  178.4340  140.8250 C   0  0  0  0  0  2  0  0  0  0  0  0
  180.2740  177.6140  140.2450 O   0  0  0  0  0  1  0  0  0  0  0  0
  181.6190  177.5860  139.8770 C   0  0  2  0  0  3  0  0  0  0  0  0
  182.1170  176.1530  139.8150 C   0  0  0  0  0  1  0  0  0  0  0  0
  1 21  1  0  0  0  0
  1  4  1  0  0  0  0
  2  1  2  0  0  0  0
  3  5  1  0  0  0  0
  5  4  2  0  0  0  0
  6  2  1  0  0  0  0
  6  3  2  0  0  0  0
  7  8  1  0  0  0  0
  8  6  1  0  0  0  0
  9 12  1  0  0  0  0
 10  7  1  0  0  0  0
 11 15  1  6  0  0  0
 11 10  1  0  0  0  0
 11  9  1  0  0  0  0
 12  8  1  0  0  0  0
 13 14  1  0  0  0  0
 14 19  2  0  0  0  0
 16 20  1  0  0  0  0
 17 14  1  0  0  0  0
 17 16  2  0  0  0  0
 18 16  1  0  0  0  0
 19 15  1  0  0  0  0
 20 15  2  0  0  0  0
 22 24  1  0  0  0  0
 23 22  1  0  0  0  0
 23 24  1  0  0  0  0
 24 21  1  6  0  0  0
 25 22  1  0  0  0  0
 26 25  1  0  0  0  0
 27 26  1  0  0  0  0
 28 27  1  0  0  0  0
 29 33  1  1  0  0  0
 29 28  1  0  0  0  0
 30 31  1  0  0  0  0
 31 29  1  0  0  0  0
 32 31  2  0  0  0  0
 35 36  1  1  0  0  0
 35 34  1  0  0  0  0
 35 33  1  0  0  0  0
M  END
>  <MODEL>
8

>  <REMARK>
 VINA RESULT:      -7.6      3.130      5.709
  Name = 
  12 active torsions:
  status: ('A' for Active; 'I' for Inactive)
    1  A    between atoms: C_4  and  C_27
    2  A    between atoms: N_5  and  C_25
    3  A    between atoms: C_6  and  C_17
    4  A    between atoms: C_6  and  C_30
    5  A    between atoms: C_9  and  N_10
    6  A    between atoms: C_9  and  C_30
    7  A    between atoms: C_11  and  C_29
    8  A    between atoms: C_17  and  C_36
    9  A    between atoms: C_18  and  C_22
   10  A    between atoms: C_19  and  C_36
   11  A    between atoms: C_22  and  C_36
   12  A    between atoms: C_27  and  C_31
                            x       y       z     vdW  Elec       q    Type
                         _______ _______ _______ _____ _____    ______ ____

>  <TORSDO>
F 12

$$$$
=
 OpenBabel10222415563D

 36 39  0  0  1  0  0  0  0  0999 V2000
  187.8910  177.5000  145.4720 C   0  0  0  0  0  0  0  0  0  0  0  0
  186.9000  177.8410  144.5470 C   0  0  0  0  0  3  0  0  0  0  0  0
  185.5270  178.6380  146.3700 C   0  0  0  0  0  3  0  0  0  0  0  0
  187.6890  177.7210  146.8000 N   0  0  0  0  0  0  0  0  0  0  0  0
  186.5400  178.2810  147.2630 C   0  0  0  0  0  3  0  0  0  0  0  0
  185.7020  178.4210  144.9930 C   0  0  0  0  0  0  0  0  0  0  0  0
  183.2570  178.6930  144.4550 C   0  0  0  0  0  2  0  0  0  0  0  0
  184.6670  178.7720  144.0570 N   0  0  0  0  0  0  0  0  0  0  0  0
  184.2150  178.5260  141.6440 C   0  0  0  0  0  2  0  0  0  0  0  0
  182.3230  179.0120  143.2890 C   0  0  0  0  0  2  0  0  0  0  0  0
  182.7640  178.2330  142.0520 C   0  0  1  0  0  3  0  0  0  0  0  0
  185.0170  179.2600  142.7210 C   0  0  0  0  0  2  0  0  0  0  0  0
  179.8310  176.4940  138.4090 C   0  0  0  0  0  1  0  0  0  0  0  0
  180.4310  177.6300  139.1580 C   0  0  0  0  0  0  0  0  0  0  0  0
  181.8360  178.4690  140.9080 C   0  0  0  0  0  0  0  0  0  0  0  0
  180.6780  179.9600  139.4790 C   0  0  0  0  0  0  0  0  0  0  0  0
  180.1420  178.9100  138.8030 N   0  0  0  0  0  0  0  0  0  0  0  0
  180.3700  181.2900  139.0840 N   0  0  0  0  0  1  0  0  0  0  0  0
  181.2920  177.3810  140.2270 C   0  0  0  0  0  3  0  0  0  0  0  0
  181.5220  179.7380  140.5200 N   0  0  0  0  0  0  0  0  0  0  0  0
  189.1390  176.8360  145.0070 C   0  0  0  0  0  2  0  0  0  0  0  0
  191.5020  177.6330  144.4630 N   0  0  0  0  0  0  0  0  0  0  0  0
  191.4960  176.8170  145.6850 C   0  0  0  0  0  2  0  0  0  0  0  0
  190.3520  177.6810  145.4090 C   0  0  2  0  0  3  0  0  0  0  0  0
  191.3230  176.7000  143.3490 C   0  0  0  0  0  2  0  0  0  0  0  0
  191.1260  177.4670  142.0480 C   0  0  0  0  0  2  0  0  0  0  0  0
  189.8880  176.9810  141.3080 C   0  0  0  0  0  2  0  0  0  0  0  0
  189.3200  178.0950  140.4380 C   0  0  0  0  0  2  0  0  0  0  0  0
  189.5300  177.8400  138.9450 C   0  0  2  0  0  3  0  0  0  0  0  0
  187.3610  178.3820  138.1200 O   0  0  0  0  0  1  0  0  0  0  0  0
  188.5900  178.6490  138.1090 C   0  0  0  0  0  0  0  0  0  0  0  0
  189.0640  179.6830  137.3090 O   0  0  0  0  0  0  0  0  0  0  0  0
  189.4610  176.3570  138.5710 C   0  0  0  0  0  2  0  0  0  0  0  0
  190.6870  174.4930  137.6590 O   0  0  0  0  0  1  0  0  0  0  0  0
  190.6590  175.8840  137.7500 C   0  0  2  0  0  3  0  0  0  0  0  0
  191.9670  176.3990  138.3240 C   0  0  0  0  0  1  0  0  0  0  0  0
  1  4  1  0  0  0  0
  2  6  1  0  0  0  0
  2  1  2  0  0  0  0
  3  5  1  0  0  0  0
  4  5  2  0  0  0  0
  6  3  2  0  0  0  0
  8  7  1  0  0  0  0
  8  6  1  0  0  0  0
  9 11  1  0  0  0  0
  9 12  1  0  0  0  0
 10  7  1  0  0  0  0
 11 15  1  6  0  0  0
 11 10  1  0  0  0  0
 12  8  1  0  0  0  0
 13 14  1  0  0  0  0
 14 19  2  0  0  0  0
 16 20  1  0  0  0  0
 17 14  1  0  0  0  0
 17 16  2  0  0  0  0
 18 16  1  0  0  0  0
 19 15  1  0  0  0  0
 20 15  2  0  0  0  0
 21  1  1  0  0  0  0
 22 24  1  0  0  0  0
 22 23  1  0  0  0  0
 24 21  1  6  0  0  0
 24 23  1  0  0  0  0
 25 22  1  0  0  0  0
 26 25  1  0  0  0  0
 27 26  1  0  0  0  0
 28 27  1  0  0  0  0
 29 33  1  1  0  0  0
 29 28  1  0  0  0  0
 31 30  1  0  0  0  0
 31 29  1  0  0  0  0
 32 31  2  0  0  0  0
 34 35  1  0  0  0  0
 35 36  1  1  0  0  0
 35 33  1  0  0  0  0
M  END
>  <MODEL>
9

>  <REMARK>
 VINA RESULT:      -7.5      3.887      8.423
  Name = 
  12 active torsions:
  status: ('A' for Active; 'I' for Inactive)
    1  A    between atoms: C_4  and  C_27
    2  A    between atoms: N_5  and  C_25
    3  A    between atoms: C_6  and  C_17
    4  A    between atoms: C_6  and  C_30
    5  A    between atoms: C_9  and  N_10
    6  A    between atoms: C_9  and  C_30
    7  A    between atoms: C_11  and  C_29
    8  A    between atoms: C_17  and  C_36
    9  A    between atoms: C_18  and  C_22
   10  A    between atoms: C_19  and  C_36
   11  A    between atoms: C_22  and  C_36
   12  A    between atoms: C_27  and  C_31
                            x       y       z     vdW  Elec       q    Type
                         _______ _______ _______ _____ _____    ______ ____

>  <TORSDO>
F 12

$$$$
