=
 OpenBabel10222418163D

 59 66  0  0  1  0  0  0  0  0999 V2000
  181.7980  174.0210  135.7570 C   0  0  1  0  0  3  0  0  0  0  0  0
  181.3590  175.4680  135.9680 C   0  0  0  0  0  2  0  0  0  0  0  0
  182.1440  180.5010  138.7130 O   0  0  0  0  0  0  0  0  0  0  0  0
  182.6260  179.1940  139.0010 C   0  0  0  0  0  2  0  0  0  0  0  0
  183.0280  173.3980  136.3530 C   0  0  1  0  0  3  0  0  0  0  0  0
  182.5330  178.2570  137.8460 C   0  0  0  0  0  0  0  0  0  0  0  0
  189.0170  173.1400  135.2110 C   0  0  2  0  0  3  0  0  0  0  0  0
  182.1790  170.7810  135.6560 C   0  0  0  0  0  2  0  0  0  0  0  0
  184.0910  173.1810  135.2200 C   0  0  1  0  0  3  0  0  0  0  0  0
  179.6450  179.9190  137.0990 C   0  0  0  0  0  2  0  0  0  0  0  0
  185.9250  171.1830  135.6360 N   0  0  0  0  0  2  0  0  0  0  0  0
  184.4500  175.5090  136.5370 C   0  0  0  0  0  0  0  0  0  0  0  0
  187.3080  173.2570  134.6210 S   0  0  0  0  0  0  0  0  0  0  0  0
  179.6030  180.8680  138.3800 C   0  0  1  0  0  3  0  0  0  0  0  0
  181.0240  173.1130  135.1480 C   0  0  0  0  0  2  0  0  0  0  0  0
  179.5470  175.7970  136.3070 S   0  0  0  0  0  0  0  0  0  0  0  0
  180.8700  180.8020  139.2580 C   0  0  0  0  0  0  0  0  0  0  0  0
  183.6460  170.6720  135.3480 N   0  0  0  0  0  0  0  0  0  0  0  0
  181.5760  178.3770  136.9520 N   0  0  0  0  0  0  0  0  0  0  0  0
  183.7490  177.6740  137.4810 N   0  0  0  0  0  2  0  0  0  0  0  0
  180.7220  180.5890  140.4780 O   0  0  0  0  0  0  0  0  0  0  0  0
  185.5730  175.9410  135.9930 C   0  0  0  0  0  2  0  0  0  0  0  0
  179.4530  177.6350  136.2140 C   0  0  0  0  0  2  0  0  0  0  0  0
  180.1520  178.4810  137.2490 C   0  0  2  0  0  3  0  0  0  0  0  0
  184.4110  173.9680  136.4980 C   0  0  1  0  0  3  0  0  0  0  0  0
  184.5230  171.6020  135.3880 C   0  0  0  0  0  0  0  0  0  0  0  0
  188.2400  170.9400  135.4180 N   0  0  0  0  0  0  0  0  0  0  0  0
  189.4840  171.6900  135.2810 C   0  0  0  0  0  2  0  0  0  0  0  0
  183.7960  176.2570  137.6420 C   0  0  0  0  0  2  0  0  0  0  0  0
  187.1460  171.6470  135.1910 C   0  0  0  0  0  0  0  0  0  0  0  0
  181.3660  171.7650  134.7580 C   0  0  0  0  0  2  0  0  0  0  0  0
  190.7200  175.1230  134.5940 C   0  0  0  0  0  2  0  0  0  0  0  0
  189.1970  175.1750  136.6480 N   0  0  0  0  0  0  0  0  0  0  0  0
  191.4630  176.0570  136.9200 C   0  0  0  0  0  2  0  0  0  0  0  0
  190.0100  175.8660  137.3310 C   0  0  0  0  0  0  0  0  0  0  0  0
  191.5530  176.2640  135.3410 C   0  0  0  0  0  2  0  0  0  0  0  0
  189.8670  174.3480  135.7010 C   0  0  1  0  0  3  0  0  0  0  0  0
  189.5160  176.2940  138.5340 O   0  0  0  0  0  0  0  0  0  0  0  0
  188.8670  177.5060  138.7310 C   0  0  0  0  0  2  0  0  0  0  0  0
  189.3450  177.9060  140.1010 C   0  0  0  0  0  2  0  0  0  0  0  0
  188.3010  178.5430  140.9660 C   0  0  1  0  0  3  0  0  0  0  0  0
  187.1440  178.6570  140.1820 O   0  0  0  0  0  1  0  0  0  0  0  0
  191.8090  176.7370  143.7460 O   0  0  0  0  0  0  0  0  0  0  0  0
  186.9170  177.3820  142.6470 O   0  0  0  0  0  0  0  0  0  0  0  0
  188.9000  177.5220  145.6000 N   0  0  0  0  0  0  0  0  0  0  0  0
  187.5530  177.6130  146.2310 C   0  0  0  0  0  0  0  0  0  0  0  0
  189.3310  176.7350  144.3800 C   0  0  1  0  0  3  0  0  0  0  0  0
  189.1680  177.5020  143.0980 N   0  0  0  0  0  0  0  0  0  0  0  0
  192.1220  176.1100  146.7620 O   0  0  0  0  0  1  0  0  0  0  0  0
  188.0570  177.8570  142.3250 C   0  0  0  0  0  0  0  0  0  0  0  0
  190.3050  177.1930  142.1840 C   0  0  0  0  0  2  0  0  0  0  0  0
  191.4490  177.5510  142.8000 O   0  0  0  0  0  0  0  0  0  0  0  0
  190.8480  176.5820  144.7500 C   0  0  2  0  0  3  0  0  0  0  0  0
  191.3580  177.1480  146.1060 C   0  0  1  0  0  3  0  0  0  0  0  0
  186.5430  177.1470  145.7160 O   0  0  0  0  0  0  0  0  0  0  0  0
  187.4730  178.3060  147.5340 C   0  0  0  0  0  1  0  0  0  0  0  0
  189.8930  177.1450  146.6640 C   0  0  0  0  0  2  0  0  0  0  0  0
  179.9680  183.2020  137.8860 C   0  0  0  0  0  1  0  0  0  0  0  0
  178.9670  182.2520  138.4890 C   0  0  0  0  0  2  0  0  0  0  0  0
  1 15  1  1  0  0  0
  1  2  1  0  0  0  0
  1  5  1  0  0  0  0
  2 16  1  0  0  0  0
  3  4  1  0  0  0  0
  3 17  1  0  0  0  0
  5 25  1  0  0  0  0
  6  4  1  0  0  0  0
  7 28  1  0  0  0  0
  7 37  1  0  0  0  0
  9 26  1  0  0  0  0
  9  5  1  0  0  0  0
  9 25  1  0  0  0  0
 10 24  1  0  0  0  0
 10 14  1  0  0  0  0
 12 29  1  0  0  0  0
 13 30  1  0  0  0  0
 13  7  1  0  0  0  0
 14 59  1  0  0  0  0
 14 17  1  0  0  0  0
 17 21  2  0  0  0  0
 18 26  2  0  0  0  0
 18  8  1  0  0  0  0
 19 24  1  0  0  0  0
 19  6  2  0  0  0  0
 20 29  1  0  0  0  0
 20  6  1  0  0  0  0
 22 12  2  0  0  0  0
 23 16  1  0  0  0  0
 23 24  1  0  0  0  0
 25 12  1  0  0  0  0
 26 11  1  0  0  0  0
 28 27  1  0  0  0  0
 30 27  2  0  0  0  0
 30 11  1  0  0  0  0
 31 15  1  0  0  0  0
 31  8  1  0  0  0  0
 32 36  1  0  0  0  0
 32 37  1  0  0  0  0
 33 35  2  0  0  0  0
 34 35  1  0  0  0  0
 35 38  1  0  0  0  0
 36 34  1  0  0  0  0
 37 33  1  0  0  0  0
 38 39  1  0  0  0  0
 39 40  1  0  0  0  0
 40 41  1  0  0  0  0
 41 50  1  0  0  0  0
 42 41  1  0  0  0  0
 43 53  1  0  0  0  0
 45 46  1  0  0  0  0
 45 57  1  0  0  0  0
 46 56  1  0  0  0  0
 47 53  1  0  0  0  0
 47 45  1  0  0  0  0
 48 47  1  0  0  0  0
 50 44  2  0  0  0  0
 50 48  1  0  0  0  0
 51 52  1  0  0  0  0
 51 48  1  0  0  0  0
 52 43  1  0  0  0  0
 53 54  1  0  0  0  0
 54 57  1  0  0  0  0
 54 49  1  0  0  0  0
 55 46  2  0  0  0  0
 58 59  1  0  0  0  0
M  END
>  <MODEL>
1

>  <REMARK>
 VINA RESULT:      -9.3      0.000      0.000
  Name = 
  7 active torsions:
  status: ('A' for Active; 'I' for Inactive)
    1  A    between atoms: C_11  and  C_28
    2  A    between atoms: C_11  and  C_33
    3  A    between atoms: C_12  and  C_57
    4  A    between atoms: C_21  and  O_26
    5  A    between atoms: O_26  and  C_32
    6  A    between atoms: C_28  and  C_32
    7  A    between atoms: C_30  and  C_44
                            x       y       z     vdW  Elec       q    Type
                         _______ _______ _______ _____ _____    ______ ____

>  <TORSDO>
F 7

$$$$
=
 OpenBabel10222418163D

 59 66  0  0  1  0  0  0  0  0999 V2000
  185.4200  172.2980  135.8880 C   0  0  1  0  0  3  0  0  0  0  0  0
  186.8440  172.7080  136.2540 C   0  0  0  0  0  2  0  0  0  0  0  0
  190.8850  176.8460  136.4280 O   0  0  0  0  0  0  0  0  0  0  0  0
  189.6580  176.7670  135.7120 C   0  0  0  0  0  2  0  0  0  0  0  0
  184.3450  173.2370  135.4200 C   0  0  1  0  0  3  0  0  0  0  0  0
  188.7260  175.7320  136.2410 C   0  0  0  0  0  0  0  0  0  0  0  0
  180.3220  177.1300  137.8490 C   0  0  2  0  0  3  0  0  0  0  0  0
  182.6740  171.0980  134.5940 C   0  0  0  0  0  2  0  0  0  0  0  0
  183.2850  173.4120  136.5640 C   0  0  1  0  0  3  0  0  0  0  0  0
  191.5520  173.9230  136.8760 C   0  0  0  0  0  2  0  0  0  0  0  0
  180.7510  174.1130  135.7800 N   0  0  0  0  0  2  0  0  0  0  0  0
  185.1680  175.3450  136.6020 C   0  0  0  0  0  0  0  0  0  0  0  0
  181.2930  175.6050  137.9540 S   0  0  0  0  0  0  0  0  0  0  0  0
  192.6020  174.9200  136.2100 C   0  0  1  0  0  3  0  0  0  0  0  0
  185.0410  171.0170  135.7860 C   0  0  0  0  0  2  0  0  0  0  0  0
  188.2530  171.6390  135.6390 S   0  0  0  0  0  0  0  0  0  0  0  0
  192.0000  176.2700  135.7670 C   0  0  0  0  0  0  0  0  0  0  0  0
  181.6460  172.0180  135.1910 N   0  0  0  0  0  0  0  0  0  0  0  0
  189.1810  174.6340  136.8040 N   0  0  0  0  0  0  0  0  0  0  0  0
  187.4690  176.2230  136.6040 N   0  0  0  0  0  2  0  0  0  0  0  0
  192.2050  176.6430  134.5940 O   0  0  0  0  0  0  0  0  0  0  0  0
  184.7080  176.1310  137.5580 C   0  0  0  0  0  2  0  0  0  0  0  0
  189.7030  172.3410  136.5330 C   0  0  0  0  0  2  0  0  0  0  0  0
  190.1780  173.7400  136.2250 C   0  0  2  0  0  3  0  0  0  0  0  0
  183.9960  174.6110  135.9210 C   0  0  1  0  0  3  0  0  0  0  0  0
  181.8500  173.1170  135.8130 C   0  0  0  0  0  0  0  0  0  0  0  0
  179.1370  175.6600  136.4630 N   0  0  0  0  0  0  0  0  0  0  0  0
  178.9430  176.8740  137.2500 C   0  0  0  0  0  2  0  0  0  0  0  0
  186.3880  175.7040  135.8340 C   0  0  0  0  0  2  0  0  0  0  0  0
  180.2800  175.0360  136.6910 C   0  0  0  0  0  0  0  0  0  0  0  0
  183.7090  170.4920  135.5930 C   0  0  0  0  0  2  0  0  0  0  0  0
  179.8320  179.7620  138.0660 C   0  0  0  0  0  2  0  0  0  0  0  0
  181.6800  178.5710  139.3720 N   0  0  0  0  0  0  0  0  0  0  0  0
  182.1880  180.8040  138.5110 C   0  0  0  0  0  2  0  0  0  0  0  0
  182.4260  179.5940  139.4030 C   0  0  0  0  0  0  0  0  0  0  0  0
  180.6250  181.1050  138.4180 C   0  0  0  0  0  2  0  0  0  0  0  0
  180.8590  178.5460  138.2080 C   0  0  1  0  0  3  0  0  0  0  0  0
  183.5400  179.4570  140.1880 O   0  0  0  0  0  0  0  0  0  0  0  0
  183.6530  178.5610  141.2420 C   0  0  0  0  0  2  0  0  0  0  0  0
  185.0550  178.0380  141.0690 C   0  0  0  0  0  2  0  0  0  0  0  0
  186.0900  178.7370  141.8970 C   0  0  1  0  0  3  0  0  0  0  0  0
  185.6460  180.0560  142.0650 O   0  0  0  0  0  1  0  0  0  0  0  0
  190.4020  176.7640  142.7960 O   0  0  0  0  0  0  0  0  0  0  0  0
  185.5710  177.6030  144.0270 O   0  0  0  0  0  0  0  0  0  0  0  0
  188.6790  177.6280  145.7620 N   0  0  0  0  0  0  0  0  0  0  0  0
  187.7680  177.7600  146.9340 C   0  0  0  0  0  0  0  0  0  0  0  0
  188.4810  176.8440  144.4820 C   0  0  1  0  0  3  0  0  0  0  0  0
  187.7850  177.6340  143.4100 N   0  0  0  0  0  0  0  0  0  0  0  0
  192.0200  176.0830  145.3460 O   0  0  0  0  0  1  0  0  0  0  0  0
  186.4590  178.0400  143.2210 C   0  0  0  0  0  0  0  0  0  0  0  0
  188.3730  177.2960  142.0820 C   0  0  0  0  0  2  0  0  0  0  0  0
  189.6850  177.6040  142.1110 O   0  0  0  0  0  0  0  0  0  0  0  0
  189.9930  176.6300  144.1260 C   0  0  2  0  0  3  0  0  0  0  0  0
  191.0840  177.1570  145.1020 C   0  0  1  0  0  3  0  0  0  0  0  0
  186.6160  177.3380  146.9330 O   0  0  0  0  0  0  0  0  0  0  0  0
  188.3130  178.4360  148.1290 C   0  0  0  0  0  1  0  0  0  0  0  0
  190.0300  177.2000  146.2630 C   0  0  0  0  0  2  0  0  0  0  0  0
  194.2780  174.2840  137.8260 C   0  0  0  0  0  1  0  0  0  0  0  0
  194.0720  175.1060  136.5820 C   0  0  0  0  0  2  0  0  0  0  0  0
  1 15  1  6  0  0  0
  1  2  1  0  0  0  0
  4  6  1  0  0  0  0
  4  3  1  0  0  0  0
  5  1  1  0  0  0  0
  5 25  1  0  0  0  0
  5  9  1  0  0  0  0
  6 20  1  0  0  0  0
  6 19  2  0  0  0  0
  7 13  1  0  0  0  0
  7 37  1  0  0  0  0
  8 18  1  0  0  0  0
  8 31  1  0  0  0  0
 11 26  1  0  0  0  0
 11 30  1  0  0  0  0
 12 22  2  0  0  0  0
 14 59  1  0  0  0  0
 14 10  1  0  0  0  0
 16  2  1  0  0  0  0
 16 23  1  0  0  0  0
 17 14  1  0  0  0  0
 17  3  1  0  0  0  0
 18 26  2  0  0  0  0
 21 17  2  0  0  0  0
 24 23  1  0  0  0  0
 24 19  1  0  0  0  0
 24 10  1  0  0  0  0
 25  9  1  0  0  0  0
 25 12  1  0  0  0  0
 26  9  1  0  0  0  0
 27 30  2  0  0  0  0
 27 28  1  0  0  0  0
 28  7  1  0  0  0  0
 29 12  1  0  0  0  0
 29 20  1  0  0  0  0
 30 13  1  0  0  0  0
 31 15  1  0  0  0  0
 32 37  1  0  0  0  0
 32 36  1  0  0  0  0
 33 35  2  0  0  0  0
 34 35  1  0  0  0  0
 35 38  1  0  0  0  0
 36 34  1  0  0  0  0
 37 33  1  0  0  0  0
 38 39  1  0  0  0  0
 40 39  1  0  0  0  0
 40 41  1  0  0  0  0
 41 42  1  0  0  0  0
 41 50  1  0  0  0  0
 43 53  1  0  0  0  0
 45 57  1  0  0  0  0
 45 46  1  0  0  0  0
 46 56  1  0  0  0  0
 47 45  1  0  0  0  0
 48 47  1  0  0  0  0
 50 48  1  0  0  0  0
 50 44  2  0  0  0  0
 51 52  1  0  0  0  0
 51 48  1  0  0  0  0
 52 43  1  0  0  0  0
 53 47  1  0  0  0  0
 53 54  1  0  0  0  0
 54 49  1  0  0  0  0
 54 57  1  0  0  0  0
 55 46  2  0  0  0  0
 59 58  1  0  0  0  0
M  END
>  <MODEL>
2

>  <REMARK>
 VINA RESULT:      -9.2      1.876      7.559
  Name = 
  7 active torsions:
  status: ('A' for Active; 'I' for Inactive)
    1  A    between atoms: C_11  and  C_28
    2  A    between atoms: C_11  and  C_33
    3  A    between atoms: C_12  and  C_57
    4  A    between atoms: C_21  and  O_26
    5  A    between atoms: O_26  and  C_32
    6  A    between atoms: C_28  and  C_32
    7  A    between atoms: C_30  and  C_44
                            x       y       z     vdW  Elec       q    Type
                         _______ _______ _______ _____ _____    ______ ____

>  <TORSDO>
F 7

$$$$
=
 OpenBabel10222418163D

 59 66  0  0  1  0  0  0  0  0999 V2000
  184.5700  173.3620  135.6660 C   0  0  1  0  0  3  0  0  0  0  0  0
  183.9790  174.7480  135.9130 C   0  0  0  0  0  2  0  0  0  0  0  0
  184.1980  179.7470  138.8180 O   0  0  0  0  0  0  0  0  0  0  0  0
  184.8110  178.4900  139.0750 C   0  0  0  0  0  2  0  0  0  0  0  0
  185.8510  172.8520  136.2620 C   0  0  1  0  0  3  0  0  0  0  0  0
  184.8310  177.5840  137.8910 C   0  0  0  0  0  0  0  0  0  0  0  0
  191.8470  173.2570  135.2060 C   0  0  2  0  0  3  0  0  0  0  0  0
  185.2900  170.1840  135.4750 C   0  0  0  0  0  2  0  0  0  0  0  0
  186.9450  172.7830  135.1400 C   0  0  1  0  0  3  0  0  0  0  0  0
  181.7940  178.9580  137.1490 C   0  0  0  0  0  2  0  0  0  0  0  0
  188.9730  170.9760  135.5250 N   0  0  0  0  0  2  0  0  0  0  0  0
  187.0420  175.0940  136.5320 C   0  0  0  0  0  0  0  0  0  0  0  0
  190.1430  173.2140  134.5940 S   0  0  0  0  0  0  0  0  0  0  0  0
  181.6370  179.8570  138.4570 C   0  0  1  0  0  3  0  0  0  0  0  0
  183.9030  172.3980  135.0190 C   0  0  0  0  0  2  0  0  0  0  0  0
  182.1380  174.8750  136.2340 S   0  0  0  0  0  0  0  0  0  0  0  0
  182.8920  179.8960  139.3520 C   0  0  0  0  0  0  0  0  0  0  0  0
  186.7640  170.2380  135.1870 N   0  0  0  0  0  0  0  0  0  0  0  0
  183.8780  177.6310  136.9870 N   0  0  0  0  0  0  0  0  0  0  0  0
  186.1060  177.1430  137.5280 N   0  0  0  0  0  2  0  0  0  0  0  0
  182.7540  179.6320  140.5630 O   0  0  0  0  0  0  0  0  0  0  0  0
  188.1190  175.6580  136.0170 C   0  0  0  0  0  2  0  0  0  0  0  0
  181.8530  176.6950  136.1940 C   0  0  0  0  0  2  0  0  0  0  0  0
  182.4470  177.5770  137.2640 C   0  0  2  0  0  3  0  0  0  0  0  0
  187.1640  173.5590  136.4460 C   0  0  1  0  0  3  0  0  0  0  0  0
  187.5380  171.2530  135.2680 C   0  0  0  0  0  0  0  0  0  0  0  0
  191.3030  170.9830  135.3350 N   0  0  0  0  0  0  0  0  0  0  0  0
  192.4630  171.8630  135.2400 C   0  0  0  0  0  2  0  0  0  0  0  0
  186.2990  175.7350  137.6470 C   0  0  0  0  0  2  0  0  0  0  0  0
  190.1440  171.5780  135.1130 C   0  0  0  0  0  0  0  0  0  0  0  0
  184.3900  171.1060  134.5940 C   0  0  0  0  0  2  0  0  0  0  0  0
  193.8080  175.0680  134.9020 C   0  0  0  0  0  2  0  0  0  0  0  0
  191.6650  175.5340  136.2190 N   0  0  0  0  0  0  0  0  0  0  0  0
  193.7490  176.4350  137.1300 C   0  0  0  0  0  2  0  0  0  0  0  0
  192.2340  176.3390  137.0130 C   0  0  0  0  0  0  0  0  0  0  0  0
  194.4080  176.3280  135.6820 C   0  0  0  0  0  2  0  0  0  0  0  0
  192.5600  174.5310  135.7450 C   0  0  1  0  0  3  0  0  0  0  0  0
  191.3810  176.9980  137.8570 O   0  0  0  0  0  0  0  0  0  0  0  0
  191.1840  176.6670  139.1910 C   0  0  0  0  0  2  0  0  0  0  0  0
  189.7180  176.9540  139.3800 C   0  0  0  0  0  2  0  0  0  0  0  0
  189.4140  178.0160  140.3920 C   0  0  1  0  0  3  0  0  0  0  0  0
  188.6790  179.0070  139.7260 O   0  0  0  0  0  1  0  0  0  0  0  0
  191.8410  176.5590  144.3010 O   0  0  0  0  0  0  0  0  0  0  0  0
  187.5350  177.1080  141.7100 O   0  0  0  0  0  0  0  0  0  0  0  0
  188.5580  177.6210  145.0810 N   0  0  0  0  0  0  0  0  0  0  0  0
  187.0910  177.8120  145.2600 C   0  0  0  0  0  0  0  0  0  0  0  0
  189.2900  176.6720  144.1550 C   0  0  1  0  0  3  0  0  0  0  0  0
  189.5540  177.2600  142.7980 N   0  0  0  0  0  0  0  0  0  0  0  0
  191.2130  176.3400  147.3240 O   0  0  0  0  0  1  0  0  0  0  0  0
  188.7420  177.5210  141.6880 C   0  0  0  0  0  0  0  0  0  0  0  0
  190.8940  176.8180  142.3150 C   0  0  0  0  0  2  0  0  0  0  0  0
  191.8210  177.2420  143.1960 O   0  0  0  0  0  0  0  0  0  0  0  0
  190.6190  176.5520  144.9800 C   0  0  2  0  0  3  0  0  0  0  0  0
  190.7330  177.2890  146.3450 C   0  0  1  0  0  3  0  0  0  0  0  0
  186.2560  177.2930  144.5280 O   0  0  0  0  0  0  0  0  0  0  0  0
  186.6640  178.6750  146.3820 C   0  0  0  0  0  1  0  0  0  0  0  0
  189.1700  177.3780  146.4320 C   0  0  0  0  0  2  0  0  0  0  0  0
  180.7910  181.7420  137.2100 C   0  0  0  0  0  1  0  0  0  0  0  0
  180.8580  181.1640  138.5980 C   0  0  0  0  0  2  0  0  0  0  0  0
  1 15  1  1  0  0  0
  1  2  1  0  0  0  0
  1  5  1  0  0  0  0
  2 16  1  0  0  0  0
  3  4  1  0  0  0  0
  3 17  1  0  0  0  0
  5 25  1  0  0  0  0
  6  4  1  0  0  0  0
  7 28  1  0  0  0  0
  7 37  1  0  0  0  0
  9 26  1  0  0  0  0
  9  5  1  0  0  0  0
  9 25  1  0  0  0  0
 10 24  1  0  0  0  0
 10 14  1  0  0  0  0
 12 29  1  0  0  0  0
 13 30  1  0  0  0  0
 13  7  1  0  0  0  0
 14 59  1  0  0  0  0
 14 17  1  0  0  0  0
 17 21  2  0  0  0  0
 18 26  2  0  0  0  0
 18  8  1  0  0  0  0
 19 24  1  0  0  0  0
 19  6  2  0  0  0  0
 20 29  1  0  0  0  0
 20  6  1  0  0  0  0
 22 12  2  0  0  0  0
 23 16  1  0  0  0  0
 23 24  1  0  0  0  0
 25 12  1  0  0  0  0
 26 11  1  0  0  0  0
 28 27  1  0  0  0  0
 30 27  2  0  0  0  0
 30 11  1  0  0  0  0
 31 15  1  0  0  0  0
 31  8  1  0  0  0  0
 32 36  1  0  0  0  0
 32 37  1  0  0  0  0
 33 35  2  0  0  0  0
 35 34  1  0  0  0  0
 35 38  1  0  0  0  0
 36 34  1  0  0  0  0
 37 33  1  0  0  0  0
 38 39  1  0  0  0  0
 39 40  1  0  0  0  0
 40 41  1  0  0  0  0
 41 50  1  0  0  0  0
 42 41  1  0  0  0  0
 43 53  1  0  0  0  0
 45 46  1  0  0  0  0
 45 57  1  0  0  0  0
 46 56  1  0  0  0  0
 47 53  1  0  0  0  0
 47 45  1  0  0  0  0
 48 47  1  0  0  0  0
 50 44  2  0  0  0  0
 50 48  1  0  0  0  0
 51 48  1  0  0  0  0
 51 52  1  0  0  0  0
 52 43  1  0  0  0  0
 53 54  1  0  0  0  0
 54 57  1  0  0  0  0
 54 49  1  0  0  0  0
 55 46  2  0  0  0  0
 58 59  1  0  0  0  0
M  END
>  <MODEL>
3

>  <REMARK>
 VINA RESULT:      -9.1      1.662      2.282
  Name = 
  7 active torsions:
  status: ('A' for Active; 'I' for Inactive)
    1  A    between atoms: C_11  and  C_28
    2  A    between atoms: C_11  and  C_33
    3  A    between atoms: C_12  and  C_57
    4  A    between atoms: C_21  and  O_26
    5  A    between atoms: O_26  and  C_32
    6  A    between atoms: C_28  and  C_32
    7  A    between atoms: C_30  and  C_44
                            x       y       z     vdW  Elec       q    Type
                         _______ _______ _______ _____ _____    ______ ____

>  <TORSDO>
F 7

$$$$
=
 OpenBabel10222418163D

 59 66  0  0  1  0  0  0  0  0999 V2000
  185.4660  178.5480  144.9550 C   0  0  1  0  0  3  0  0  0  0  0  0
  186.8330  178.5120  145.6330 C   0  0  0  0  0  2  0  0  0  0  0  0
  192.1160  176.1710  145.9360 O   0  0  0  0  0  0  0  0  0  0  0  0
  190.9310  175.7210  145.2920 C   0  0  0  0  0  2  0  0  0  0  0  0
  185.0970  177.7840  143.7150 C   0  0  1  0  0  3  0  0  0  0  0  0
  189.9080  176.7910  145.1140 C   0  0  0  0  0  0  0  0  0  0  0  0
  185.7360  178.3250  137.6710 C   0  0  2  0  0  3  0  0  0  0  0  0
  182.3330  178.3180  144.0680 C   0  0  0  0  0  2  0  0  0  0  0  0
  184.9740  178.7870  142.5150 C   0  0  1  0  0  3  0  0  0  0  0  0
  191.0170  177.9550  148.1260 C   0  0  0  0  0  2  0  0  0  0  0  0
  183.3390  178.0200  140.4500 N   0  0  0  0  0  2  0  0  0  0  0  0
  187.4210  177.6570  142.6650 C   0  0  0  0  0  0  0  0  0  0  0  0
  185.5290  179.0820  139.3030 S   0  0  0  0  0  0  0  0  0  0  0  0
  192.0380  176.7760  148.4530 C   0  0  1  0  0  3  0  0  0  0  0  0
  184.4010  179.1420  145.5090 C   0  0  0  0  0  2  0  0  0  0  0  0
  186.8870  178.3770  147.5000 S   0  0  0  0  0  0  0  0  0  0  0  0
  192.2450  175.7790  147.2940 C   0  0  0  0  0  0  0  0  0  0  0  0
  182.4420  178.4750  142.5780 N   0  0  0  0  0  0  0  0  0  0  0  0
  189.8040  177.7780  145.9750 N   0  0  0  0  0  0  0  0  0  0  0  0
  189.5060  176.9840  143.7900 N   0  0  0  0  0  2  0  0  0  0  0  0
  192.1030  174.5640  147.5370 O   0  0  0  0  0  0  0  0  0  0  0  0
  187.9880  178.1300  141.5700 C   0  0  0  0  0  2  0  0  0  0  0  0
  188.6720  178.6440  147.8660 C   0  0  0  0  0  2  0  0  0  0  0  0
  189.6960  177.6280  147.4230 C   0  0  2  0  0  3  0  0  0  0  0  0
  185.8950  177.5610  142.4610 C   0  0  1  0  0  3  0  0  0  0  0  0
  183.5030  178.4370  141.8640 C   0  0  0  0  0  0  0  0  0  0  0  0
  183.4600  177.9950  138.1160 N   0  0  0  0  0  0  0  0  0  0  0  0
  184.3910  178.0800  136.9950 C   0  0  0  0  0  2  0  0  0  0  0  0
  188.1320  176.6920  143.5430 C   0  0  0  0  0  2  0  0  0  0  0  0
  183.9610  178.3870  139.2740 C   0  0  0  0  0  0  0  0  0  0  0  0
  183.1020  179.3750  144.9220 C   0  0  0  0  0  2  0  0  0  0  0  0
  188.4160  178.3480  137.8420 C   0  0  0  0  0  2  0  0  0  0  0  0
  187.1080  176.5130  136.6340 N   0  0  0  0  0  0  0  0  0  0  0  0
  189.1980  177.2540  135.6000 C   0  0  0  0  0  2  0  0  0  0  0  0
  188.0340  176.2930  135.7980 C   0  0  0  0  0  0  0  0  0  0  0  0
  189.6760  177.8190  137.0130 C   0  0  0  0  0  2  0  0  0  0  0  0
  187.0990  177.8680  137.0750 C   0  0  1  0  0  3  0  0  0  0  0  0
  187.8210  175.2090  134.9910 O   0  0  0  0  0  0  0  0  0  0  0  0
  187.8900  173.8880  135.4140 C   0  0  0  0  0  2  0  0  0  0  0  0
  189.3280  173.5380  135.1400 C   0  0  0  0  0  2  0  0  0  0  0  0
  190.2640  173.7990  136.2800 C   0  0  1  0  0  3  0  0  0  0  0  0
  189.6160  173.3520  137.4410 O   0  0  0  0  0  1  0  0  0  0  0  0
  194.2300  175.8710  138.0890 O   0  0  0  0  0  0  0  0  0  0  0  0
  191.9770  172.3930  135.1940 O   0  0  0  0  0  0  0  0  0  0  0  0
  194.6670  172.4070  137.5250 N   0  0  0  0  0  0  0  0  0  0  0  0
  194.8410  171.0270  136.9910 C   0  0  0  0  0  0  0  0  0  0  0  0
  194.2250  173.6610  136.8020 C   0  0  1  0  0  3  0  0  0  0  0  0
  192.7340  173.8480  136.8040 N   0  0  0  0  0  0  0  0  0  0  0  0
  197.0580  174.8910  138.8790 O   0  0  0  0  0  1  0  0  0  0  0  0
  191.6860  173.2290  136.1140 C   0  0  0  0  0  0  0  0  0  0  0  0
  192.4140  175.2970  136.9570 C   0  0  0  0  0  2  0  0  0  0  0  0
  192.9400  175.7240  138.1220 O   0  0  0  0  0  0  0  0  0  0  0  0
  194.9200  174.7070  137.7430 C   0  0  2  0  0  3  0  0  0  0  0  0
  195.7900  174.1980  138.9280 C   0  0  1  0  0  3  0  0  0  0  0  0
  194.4840  170.6980  135.8650 O   0  0  0  0  0  0  0  0  0  0  0  0
  195.4740  170.0390  137.8900 C   0  0  0  0  0  1  0  0  0  0  0  0
  195.9350  172.8020  138.2290 C   0  0  0  0  0  2  0  0  0  0  0  0
  193.0590  177.9610  150.2910 C   0  0  0  0  0  1  0  0  0  0  0  0
  193.3050  176.8530  149.3030 C   0  0  0  0  0  2  0  0  0  0  0  0
  1 15  1  1  0  0  0
  1  2  1  0  0  0  0
  2 16  1  0  0  0  0
  3 17  1  0  0  0  0
  4  3  1  0  0  0  0
  5  1  1  0  0  0  0
  6  4  1  0  0  0  0
  6 19  2  0  0  0  0
  7 13  1  0  0  0  0
  8 31  1  0  0  0  0
  9  5  1  0  0  0  0
 10 14  1  0  0  0  0
 11 26  1  0  0  0  0
 12 29  1  0  0  0  0
 14 59  1  0  0  0  0
 16 23  1  0  0  0  0
 17 21  2  0  0  0  0
 17 14  1  0  0  0  0
 18  8  1  0  0  0  0
 19 24  1  0  0  0  0
 20  6  1  0  0  0  0
 22 12  2  0  0  0  0
 24 23  1  0  0  0  0
 24 10  1  0  0  0  0
 25  9  1  0  0  0  0
 25 12  1  0  0  0  0
 25  5  1  0  0  0  0
 26  9  1  0  0  0  0
 26 18  2  0  0  0  0
 27 30  2  0  0  0  0
 28  7  1  0  0  0  0
 28 27  1  0  0  0  0
 29 20  1  0  0  0  0
 30 13  1  0  0  0  0
 30 11  1  0  0  0  0
 31 15  1  0  0  0  0
 33 37  1  0  0  0  0
 34 35  1  0  0  0  0
 34 36  1  0  0  0  0
 35 33  2  0  0  0  0
 36 32  1  0  0  0  0
 37  7  1  0  0  0  0
 37 32  1  0  0  0  0
 38 39  1  0  0  0  0
 38 35  1  0  0  0  0
 40 39  1  0  0  0  0
 40 41  1  0  0  0  0
 41 42  1  0  0  0  0
 43 52  1  0  0  0  0
 44 50  2  0  0  0  0
 45 57  1  0  0  0  0
 46 45  1  0  0  0  0
 46 56  1  0  0  0  0
 47 48  1  0  0  0  0
 47 45  1  0  0  0  0
 47 53  1  0  0  0  0
 48 51  1  0  0  0  0
 49 54  1  0  0  0  0
 50 41  1  0  0  0  0
 50 48  1  0  0  0  0
 51 52  1  0  0  0  0
 53 43  1  0  0  0  0
 53 54  1  0  0  0  0
 55 46  2  0  0  0  0
 57 54  1  0  0  0  0
 59 58  1  0  0  0  0
M  END
>  <MODEL>
4

>  <REMARK>
 VINA RESULT:      -8.9      4.244     10.370
  Name = 
  7 active torsions:
  status: ('A' for Active; 'I' for Inactive)
    1  A    between atoms: C_11  and  C_28
    2  A    between atoms: C_11  and  C_33
    3  A    between atoms: C_12  and  C_57
    4  A    between atoms: C_21  and  O_26
    5  A    between atoms: O_26  and  C_32
    6  A    between atoms: C_28  and  C_32
    7  A    between atoms: C_30  and  C_44
                            x       y       z     vdW  Elec       q    Type
                         _______ _______ _______ _____ _____    ______ ____

>  <TORSDO>
F 7

$$$$
=
 OpenBabel10222418163D

 59 66  0  0  1  0  0  0  0  0999 V2000
  182.5810  173.1060  136.4420 C   0  0  1  0  0  3  0  0  0  0  0  0
  181.9820  174.4260  136.9210 C   0  0  0  0  0  2  0  0  0  0  0  0
  182.4390  179.0990  140.3030 O   0  0  0  0  0  0  0  0  0  0  0  0
  183.1270  177.8540  140.3310 C   0  0  0  0  0  2  0  0  0  0  0  0
  183.9520  172.6030  136.7940 C   0  0  1  0  0  3  0  0  0  0  0  0
  183.0080  177.0800  139.0630 C   0  0  0  0  0  0  0  0  0  0  0  0
  189.7150  173.4230  134.9630 C   0  0  2  0  0  3  0  0  0  0  0  0
  183.3800  170.0070  135.8020 C   0  0  0  0  0  2  0  0  0  0  0  0
  184.8750  172.7080  135.5290 C   0  0  1  0  0  3  0  0  0  0  0  0
  179.8490  178.3660  138.9090 C   0  0  0  0  0  2  0  0  0  0  0  0
  187.0010  170.9770  135.4250 N   0  0  0  0  0  2  0  0  0  0  0  0
  185.0880  174.8630  137.1410 C   0  0  0  0  0  0  0  0  0  0  0  0
  187.9430  173.3570  134.5940 S   0  0  0  0  0  0  0  0  0  0  0  0
  179.8490  179.1140  140.3170 C   0  0  1  0  0  3  0  0  0  0  0  0
  181.8630  172.1810  135.7920 C   0  0  0  0  0  2  0  0  0  0  0  0
  180.2040  174.4240  137.5080 S   0  0  0  0  0  0  0  0  0  0  0  0
  181.2190  179.1240  141.0280 C   0  0  0  0  0  0  0  0  0  0  0  0
  184.7940  170.1660  135.3180 N   0  0  0  0  0  0  0  0  0  0  0  0
  181.9340  177.1720  138.3120 N   0  0  0  0  0  0  0  0  0  0  0  0
  184.2320  176.7450  138.4800 N   0  0  0  0  0  2  0  0  0  0  0  0
  181.2650  178.7270  142.2090 O   0  0  0  0  0  0  0  0  0  0  0  0
  186.0590  175.5310  136.5480 C   0  0  0  0  0  2  0  0  0  0  0  0
  179.8510  176.2210  137.7100 C   0  0  0  0  0  2  0  0  0  0  0  0
  180.5600  177.0160  138.7780 C   0  0  2  0  0  3  0  0  0  0  0  0
  185.2520  173.3540  136.8700 C   0  0  1  0  0  3  0  0  0  0  0  0
  185.5350  171.2060  135.4020 C   0  0  0  0  0  0  0  0  0  0  0  0
  189.2770  171.1230  134.9140 N   0  0  0  0  0  0  0  0  0  0  0  0
  190.3800  172.0670  134.7570 C   0  0  0  0  0  2  0  0  0  0  0  0
  184.4910  175.3440  138.4140 C   0  0  0  0  0  2  0  0  0  0  0  0
  188.0780  171.6790  134.9230 C   0  0  0  0  0  0  0  0  0  0  0  0
  182.3290  170.9680  135.1620 C   0  0  0  0  0  2  0  0  0  0  0  0
  191.7020  175.2110  134.7000 C   0  0  0  0  0  2  0  0  0  0  0  0
  189.5760  175.6710  136.0460 N   0  0  0  0  0  0  0  0  0  0  0  0
  191.6810  176.5110  136.9690 C   0  0  0  0  0  2  0  0  0  0  0  0
  190.1640  176.4420  136.8600 C   0  0  0  0  0  0  0  0  0  0  0  0
  192.3280  176.4380  135.5140 C   0  0  0  0  0  2  0  0  0  0  0  0
  190.4520  174.6690  135.5350 C   0  0  1  0  0  3  0  0  0  0  0  0
  189.3270  177.0890  137.7300 O   0  0  0  0  0  0  0  0  0  0  0  0
  189.7500  177.9480  138.7350 C   0  0  0  0  0  2  0  0  0  0  0  0
  188.9320  177.4910  139.9130 C   0  0  0  0  0  2  0  0  0  0  0  0
  189.6400  176.5510  140.8400 C   0  0  1  0  0  3  0  0  0  0  0  0
  190.7090  176.0030  140.1160 O   0  0  0  0  0  1  0  0  0  0  0  0
  186.5310  177.8750  144.2860 O   0  0  0  0  0  0  0  0  0  0  0  0
  191.2070  177.6830  142.3740 O   0  0  0  0  0  0  0  0  0  0  0  0
  189.7470  177.1730  145.5810 N   0  0  0  0  0  0  0  0  0  0  0  0
  191.1820  177.1350  145.9800 C   0  0  0  0  0  0  0  0  0  0  0  0
  189.0740  178.0150  144.5170 C   0  0  1  0  0  3  0  0  0  0  0  0
  189.0720  177.3610  143.1640 N   0  0  0  0  0  0  0  0  0  0  0  0
  186.6790  178.2490  147.3550 O   0  0  0  0  0  1  0  0  0  0  0  0
  190.0610  177.1500  142.1960 C   0  0  0  0  0  0  0  0  0  0  0  0
  187.7840  177.6520  142.4720 C   0  0  0  0  0  2  0  0  0  0  0  0
  186.7800  177.1640  143.2270 O   0  0  0  0  0  0  0  0  0  0  0  0
  187.6320  178.0260  145.1340 C   0  0  2  0  0  3  0  0  0  0  0  0
  187.3870  177.3230  146.5000 C   0  0  1  0  0  3  0  0  0  0  0  0
  192.0640  177.7140  145.3540 O   0  0  0  0  0  0  0  0  0  0  0  0
  191.5180  176.3550  147.1890 C   0  0  0  0  0  1  0  0  0  0  0  0
  188.9210  177.3940  146.8170 C   0  0  0  0  0  2  0  0  0  0  0  0
  179.0650  181.2420  139.4910 C   0  0  0  0  0  1  0  0  0  0  0  0
  179.0530  180.3570  140.7090 C   0  0  0  0  0  2  0  0  0  0  0  0
  1 15  1  1  0  0  0
  1  5  1  0  0  0  0
  1  2  1  0  0  0  0
  2 16  1  0  0  0  0
  3  4  1  0  0  0  0
  3 17  1  0  0  0  0
  5 25  1  0  0  0  0
  6  4  1  0  0  0  0
  7 37  1  0  0  0  0
  9  5  1  0  0  0  0
  9 25  1  0  0  0  0
 10 14  1  0  0  0  0
 12 29  1  0  0  0  0
 13 30  1  0  0  0  0
 13  7  1  0  0  0  0
 14 59  1  0  0  0  0
 14 17  1  0  0  0  0
 16 23  1  0  0  0  0
 17 21  2  0  0  0  0
 18 26  2  0  0  0  0
 18  8  1  0  0  0  0
 19 24  1  0  0  0  0
 19  6  2  0  0  0  0
 20  6  1  0  0  0  0
 22 12  2  0  0  0  0
 23 24  1  0  0  0  0
 24 10  1  0  0  0  0
 25 12  1  0  0  0  0
 26 11  1  0  0  0  0
 26  9  1  0  0  0  0
 27 30  2  0  0  0  0
 28 27  1  0  0  0  0
 28  7  1  0  0  0  0
 29 20  1  0  0  0  0
 30 11  1  0  0  0  0
 31 15  1  0  0  0  0
 31  8  1  0  0  0  0
 32 36  1  0  0  0  0
 32 37  1  0  0  0  0
 33 35  2  0  0  0  0
 35 34  1  0  0  0  0
 35 38  1  0  0  0  0
 36 34  1  0  0  0  0
 37 33  1  0  0  0  0
 38 39  1  0  0  0  0
 39 40  1  0  0  0  0
 40 41  1  0  0  0  0
 41 50  1  0  0  0  0
 42 41  1  0  0  0  0
 43 53  1  0  0  0  0
 45 46  1  0  0  0  0
 45 57  1  0  0  0  0
 46 56  1  0  0  0  0
 47 53  1  0  0  0  0
 47 45  1  0  0  0  0
 48 47  1  0  0  0  0
 50 44  2  0  0  0  0
 50 48  1  0  0  0  0
 51 48  1  0  0  0  0
 51 52  1  0  0  0  0
 52 43  1  0  0  0  0
 53 54  1  0  0  0  0
 54 57  1  0  0  0  0
 54 49  1  0  0  0  0
 55 46  2  0  0  0  0
 58 59  1  0  0  0  0
M  END
>  <MODEL>
5

>  <REMARK>
 VINA RESULT:      -8.8      1.399      2.407
  Name = 
  7 active torsions:
  status: ('A' for Active; 'I' for Inactive)
    1  A    between atoms: C_11  and  C_28
    2  A    between atoms: C_11  and  C_33
    3  A    between atoms: C_12  and  C_57
    4  A    between atoms: C_21  and  O_26
    5  A    between atoms: O_26  and  C_32
    6  A    between atoms: C_28  and  C_32
    7  A    between atoms: C_30  and  C_44
                            x       y       z     vdW  Elec       q    Type
                         _______ _______ _______ _____ _____    ______ ____

>  <TORSDO>
F 7

$$$$
=
 OpenBabel10222418163D

 59 66  0  0  1  0  0  0  0  0999 V2000
  185.4280  178.5400  144.9640 C   0  0  1  0  0  3  0  0  0  0  0  0
  186.8030  178.4900  145.6250 C   0  0  0  0  0  2  0  0  0  0  0  0
  192.0690  176.1030  145.8570 O   0  0  0  0  0  0  0  0  0  0  0  0
  190.8720  175.6650  145.2270 C   0  0  0  0  0  2  0  0  0  0  0  0
  185.0370  177.7820  143.7270 C   0  0  1  0  0  3  0  0  0  0  0  0
  189.8560  176.7440  145.0640 C   0  0  0  0  0  0  0  0  0  0  0  0
  185.6060  178.3320  137.6760 C   0  0  2  0  0  3  0  0  0  0  0  0
  182.2820  178.3390  144.1150 C   0  0  0  0  0  2  0  0  0  0  0  0
  184.9080  178.7890  142.5310 C   0  0  1  0  0  3  0  0  0  0  0  0
  191.0120  177.8920  148.0650 C   0  0  0  0  0  2  0  0  0  0  0  0
  183.2410  178.0400  140.4840 N   0  0  0  0  0  2  0  0  0  0  0  0
  187.3460  177.6380  142.6470 C   0  0  0  0  0  0  0  0  0  0  0  0
  185.4260  179.0870  139.3130 S   0  0  0  0  0  0  0  0  0  0  0  0
  192.0270  176.7020  148.3760 C   0  0  1  0  0  3  0  0  0  0  0  0
  184.3750  179.1420  145.5320 C   0  0  0  0  0  2  0  0  0  0  0  0
  186.8780  178.3500  147.4910 S   0  0  0  0  0  0  0  0  0  0  0  0
  192.2110  175.7070  147.2120 C   0  0  0  0  0  0  0  0  0  0  0  0
  182.3740  178.4980  142.6240 N   0  0  0  0  0  0  0  0  0  0  0  0
  189.7710  177.7300  145.9290 N   0  0  0  0  0  0  0  0  0  0  0  0
  189.4390  176.9440  143.7450 N   0  0  0  0  0  2  0  0  0  0  0  0
  192.0610  174.4920  147.4540 O   0  0  0  0  0  0  0  0  0  0  0  0
  187.9040  178.1080  141.5470 C   0  0  0  0  0  2  0  0  0  0  0  0
  188.6700  178.6010  147.8360 C   0  0  0  0  0  2  0  0  0  0  0  0
  189.6800  177.5780  147.3770 C   0  0  2  0  0  3  0  0  0  0  0  0
  185.8180  177.5550  142.4620 C   0  0  1  0  0  3  0  0  0  0  0  0
  183.4260  178.4530  141.8970 C   0  0  0  0  0  0  0  0  0  0  0  0
  183.3330  178.0200  138.1480 N   0  0  0  0  0  0  0  0  0  0  0  0
  184.2510  178.1000  137.0160 C   0  0  0  0  0  2  0  0  0  0  0  0
  188.0600  176.6650  143.5140 C   0  0  0  0  0  2  0  0  0  0  0  0
  183.8510  178.4050  139.3020 C   0  0  0  0  0  0  0  0  0  0  0  0
  183.0710  179.3870  144.9620 C   0  0  0  0  0  2  0  0  0  0  0  0
  187.1870  178.1700  135.5110 C   0  0  0  0  0  2  0  0  0  0  0  0
  188.0830  178.1000  137.9050 N   0  0  0  0  0  0  0  0  0  0  0  0
  189.1420  176.6120  136.2770 C   0  0  0  0  0  2  0  0  0  0  0  0
  189.0650  177.3610  137.6000 C   0  0  0  0  0  0  0  0  0  0  0  0
  188.5990  177.5410  135.1010 C   0  0  0  0  0  2  0  0  0  0  0  0
  186.9580  177.8650  137.0630 C   0  0  1  0  0  3  0  0  0  0  0  0
  189.9670  177.1740  138.6130 O   0  0  0  0  0  0  0  0  0  0  0  0
  190.7880  176.0610  138.7390 C   0  0  0  0  0  2  0  0  0  0  0  0
  192.0530  176.5170  138.0620 C   0  0  0  0  0  2  0  0  0  0  0  0
  192.6420  175.5260  137.1050 C   0  0  1  0  0  3  0  0  0  0  0  0
  192.5250  176.0860  135.8250 O   0  0  0  0  0  1  0  0  0  0  0  0
  194.3010  171.0950  136.1520 O   0  0  0  0  0  0  0  0  0  0  0  0
  194.7930  175.6410  138.3090 O   0  0  0  0  0  0  0  0  0  0  0  0
  196.9080  173.4680  136.4440 N   0  0  0  0  0  0  0  0  0  0  0  0
  197.9290  174.4680  136.8650 C   0  0  0  0  0  0  0  0  0  0  0  0
  195.7030  172.9570  137.2050 C   0  0  1  0  0  3  0  0  0  0  0  0
  194.4710  173.7890  136.9850 N   0  0  0  0  0  0  0  0  0  0  0  0
  197.0980  169.8380  135.7290 O   0  0  0  0  0  1  0  0  0  0  0  0
  194.0690  175.0500  137.4390 C   0  0  0  0  0  0  0  0  0  0  0  0
  193.2750  172.9010  136.9230 C   0  0  0  0  0  2  0  0  0  0  0  0
  193.4430  172.0380  135.9020 O   0  0  0  0  0  0  0  0  0  0  0  0
  195.5720  171.5660  136.4900 C   0  0  2  0  0  3  0  0  0  0  0  0
  196.6220  171.1670  135.4140 C   0  0  1  0  0  3  0  0  0  0  0  0
  197.8230  175.1420  137.8840 O   0  0  0  0  0  0  0  0  0  0  0  0
  199.1080  174.6260  135.9870 C   0  0  0  0  0  1  0  0  0  0  0  0
  197.6240  172.2270  135.9910 C   0  0  0  0  0  2  0  0  0  0  0  0
  193.1940  178.0320  150.0180 C   0  0  0  0  0  1  0  0  0  0  0  0
  193.3050  176.7660  149.2110 C   0  0  0  0  0  2  0  0  0  0  0  0
  1 15  1  1  0  0  0
  1  2  1  0  0  0  0
  2 16  1  0  0  0  0
  3 17  1  0  0  0  0
  4  3  1  0  0  0  0
  5  1  1  0  0  0  0
  6  4  1  0  0  0  0
  6 19  2  0  0  0  0
  7 13  1  0  0  0  0
  8 31  1  0  0  0  0
  9  5  1  0  0  0  0
 10 14  1  0  0  0  0
 11 26  1  0  0  0  0
 12 29  1  0  0  0  0
 14 59  1  0  0  0  0
 16 23  1  0  0  0  0
 17 21  2  0  0  0  0
 17 14  1  0  0  0  0
 18  8  1  0  0  0  0
 19 24  1  0  0  0  0
 20  6  1  0  0  0  0
 22 12  2  0  0  0  0
 24 23  1  0  0  0  0
 24 10  1  0  0  0  0
 25  9  1  0  0  0  0
 25 12  1  0  0  0  0
 25  5  1  0  0  0  0
 26  9  1  0  0  0  0
 26 18  2  0  0  0  0
 27 30  2  0  0  0  0
 28  7  1  0  0  0  0
 28 27  1  0  0  0  0
 29 20  1  0  0  0  0
 30 13  1  0  0  0  0
 30 11  1  0  0  0  0
 31 15  1  0  0  0  0
 32 37  1  0  0  0  0
 34 35  1  0  0  0  0
 35 33  2  0  0  0  0
 35 38  1  0  0  0  0
 36 32  1  0  0  0  0
 36 34  1  0  0  0  0
 37  7  1  0  0  0  0
 37 33  1  0  0  0  0
 38 39  1  0  0  0  0
 40 39  1  0  0  0  0
 41 50  1  0  0  0  0
 41 40  1  0  0  0  0
 42 41  1  0  0  0  0
 43 53  1  0  0  0  0
 45 46  1  0  0  0  0
 45 47  1  0  0  0  0
 46 55  2  0  0  0  0
 48 47  1  0  0  0  0
 48 50  1  0  0  0  0
 50 44  2  0  0  0  0
 51 48  1  0  0  0  0
 52 43  1  0  0  0  0
 52 51  1  0  0  0  0
 53 47  1  0  0  0  0
 54 49  1  0  0  0  0
 54 57  1  0  0  0  0
 54 53  1  0  0  0  0
 56 46  1  0  0  0  0
 57 45  1  0  0  0  0
 59 58  1  0  0  0  0
M  END
>  <MODEL>
6

>  <REMARK>
 VINA RESULT:      -8.3      4.538     10.761
  Name = 
  7 active torsions:
  status: ('A' for Active; 'I' for Inactive)
    1  A    between atoms: C_11  and  C_28
    2  A    between atoms: C_11  and  C_33
    3  A    between atoms: C_12  and  C_57
    4  A    between atoms: C_21  and  O_26
    5  A    between atoms: O_26  and  C_32
    6  A    between atoms: C_28  and  C_32
    7  A    between atoms: C_30  and  C_44
                            x       y       z     vdW  Elec       q    Type
                         _______ _______ _______ _____ _____    ______ ____

>  <TORSDO>
F 7

$$$$
=
 OpenBabel10222418163D

 59 66  0  0  1  0  0  0  0  0999 V2000
  185.3050  172.4130  135.8740 C   0  0  1  0  0  3  0  0  0  0  0  0
  186.7440  172.7870  136.2190 C   0  0  0  0  0  2  0  0  0  0  0  0
  190.8450  176.8610  136.4710 O   0  0  0  0  0  0  0  0  0  0  0  0
  189.5990  176.8320  135.7870 C   0  0  0  0  0  2  0  0  0  0  0  0
  184.2310  173.3860  135.4790 C   0  0  1  0  0  3  0  0  0  0  0  0
  188.6660  175.7840  136.2930 C   0  0  0  0  0  0  0  0  0  0  0  0
  180.3290  177.2140  138.1910 C   0  0  2  0  0  3  0  0  0  0  0  0
  182.5090  171.3090  134.6010 C   0  0  0  0  0  2  0  0  0  0  0  0
  183.2050  173.5210  136.6570 C   0  0  1  0  0  3  0  0  0  0  0  0
  191.4830  173.9130  136.7670 C   0  0  0  0  0  2  0  0  0  0  0  0
  180.6610  174.2900  135.9760 N   0  0  0  0  0  2  0  0  0  0  0  0
  185.1150  175.4270  136.7330 C   0  0  0  0  0  0  0  0  0  0  0  0
  181.2810  175.6730  138.2000 S   0  0  0  0  0  0  0  0  0  0  0  0
  192.5290  174.9270  136.1190 C   0  0  1  0  0  3  0  0  0  0  0  0
  184.9060  171.1430  135.7240 C   0  0  0  0  0  2  0  0  0  0  0  0
  188.1220  171.7300  135.5180 S   0  0  0  0  0  0  0  0  0  0  0  0
  191.9340  176.3030  135.7540 C   0  0  0  0  0  0  0  0  0  0  0  0
  181.5110  172.2130  135.2680 N   0  0  0  0  0  0  0  0  0  0  0  0
  189.1220  174.6570  136.7920 N   0  0  0  0  0  0  0  0  0  0  0  0
  187.4270  176.2740  136.7120 N   0  0  0  0  0  2  0  0  0  0  0  0
  192.1130  176.7260  134.5940 O   0  0  0  0  0  0  0  0  0  0  0  0
  184.6910  176.1740  137.7350 C   0  0  0  0  0  2  0  0  0  0  0  0
  189.6040  172.3720  136.4030 C   0  0  0  0  0  2  0  0  0  0  0  0
  190.0900  173.7770  136.1460 C   0  0  2  0  0  3  0  0  0  0  0  0
  183.9140  174.7390  136.0510 C   0  0  1  0  0  3  0  0  0  0  0  0
  181.7460  173.2790  135.9340 C   0  0  0  0  0  0  0  0  0  0  0  0
  179.0870  175.8230  136.7730 N   0  0  0  0  0  0  0  0  0  0  0  0
  178.9310  177.0020  137.6190 C   0  0  0  0  0  2  0  0  0  0  0  0
  186.3180  175.8060  135.9480 C   0  0  0  0  0  2  0  0  0  0  0  0
  180.2270  175.1760  136.9410 C   0  0  0  0  0  0  0  0  0  0  0  0
  183.5620  170.6440  135.5430 C   0  0  0  0  0  2  0  0  0  0  0  0
  180.6070  179.8190  137.6020 C   0  0  0  0  0  2  0  0  0  0  0  0
  180.7440  178.9020  139.9850 N   0  0  0  0  0  0  0  0  0  0  0  0
  182.3060  180.6880  139.3890 C   0  0  0  0  0  2  0  0  0  0  0  0
  181.5540  179.7970  140.3670 C   0  0  0  0  0  0  0  0  0  0  0  0
  181.3390  181.1120  138.1940 C   0  0  0  0  0  2  0  0  0  0  0  0
  180.8950  178.6050  138.6000 C   0  0  1  0  0  3  0  0  0  0  0  0
  181.8070  179.7920  141.7130 O   0  0  0  0  0  0  0  0  0  0  0  0
  182.0690  178.6510  142.4590 C   0  0  0  0  0  2  0  0  0  0  0  0
  183.5460  178.7710  142.7220 C   0  0  0  0  0  2  0  0  0  0  0  0
  184.3920  177.7600  142.0110 C   0  0  1  0  0  3  0  0  0  0  0  0
  183.6670  177.3510  140.8830 O   0  0  0  0  0  1  0  0  0  0  0  0
  188.1190  177.2790  145.0410 O   0  0  0  0  0  0  0  0  0  0  0  0
  186.0820  179.0640  140.7720 O   0  0  0  0  0  0  0  0  0  0  0  0
  189.1560  177.5090  141.6670 N   0  0  0  0  0  0  0  0  0  0  0  0
  189.5000  177.8970  140.2700 C   0  0  0  0  0  0  0  0  0  0  0  0
  188.3040  178.2440  142.6800 C   0  0  1  0  0  3  0  0  0  0  0  0
  186.8470  177.8880  142.5930 N   0  0  0  0  0  0  0  0  0  0  0  0
  191.1950  177.1170  144.7350 O   0  0  0  0  0  1  0  0  0  0  0  0
  185.8300  178.2100  141.6870 C   0  0  0  0  0  0  0  0  0  0  0  0
  186.2640  177.8360  143.9640 C   0  0  0  0  0  2  0  0  0  0  0  0
  186.9320  176.9030  144.6710 O   0  0  0  0  0  0  0  0  0  0  0  0
  188.9490  177.6440  143.9780 C   0  0  2  0  0  3  0  0  0  0  0  0
  190.1500  176.6650  143.8440 C   0  0  1  0  0  3  0  0  0  0  0  0
  188.9810  178.8470  139.6950 O   0  0  0  0  0  0  0  0  0  0  0  0
  190.5160  177.0740  139.5810 C   0  0  0  0  0  1  0  0  0  0  0  0
  190.4330  177.2020  142.3980 C   0  0  0  0  0  2  0  0  0  0  0  0
  194.0500  175.5030  137.9020 C   0  0  0  0  0  1  0  0  0  0  0  0
  194.0110  175.0760  136.4590 C   0  0  0  0  0  2  0  0  0  0  0  0
  1 15  1  6  0  0  0
  1  2  1  0  0  0  0
  4  6  1  0  0  0  0
  4  3  1  0  0  0  0
  5  1  1  0  0  0  0
  5 25  1  0  0  0  0
  5  9  1  0  0  0  0
  6 20  1  0  0  0  0
  6 19  2  0  0  0  0
  7 13  1  0  0  0  0
  7 37  1  0  0  0  0
  8 18  1  0  0  0  0
  8 31  1  0  0  0  0
 11 30  1  0  0  0  0
 12 22  2  0  0  0  0
 14 59  1  0  0  0  0
 14 10  1  0  0  0  0
 16  2  1  0  0  0  0
 16 23  1  0  0  0  0
 17 14  1  0  0  0  0
 17  3  1  0  0  0  0
 18 26  2  0  0  0  0
 21 17  2  0  0  0  0
 24 23  1  0  0  0  0
 24 10  1  0  0  0  0
 24 19  1  0  0  0  0
 25  9  1  0  0  0  0
 25 12  1  0  0  0  0
 26 11  1  0  0  0  0
 26  9  1  0  0  0  0
 27 30  2  0  0  0  0
 27 28  1  0  0  0  0
 28  7  1  0  0  0  0
 29 20  1  0  0  0  0
 29 12  1  0  0  0  0
 30 13  1  0  0  0  0
 31 15  1  0  0  0  0
 32 36  1  0  0  0  0
 32 37  1  0  0  0  0
 33 35  2  0  0  0  0
 34 35  1  0  0  0  0
 35 38  1  0  0  0  0
 36 34  1  0  0  0  0
 37 33  1  0  0  0  0
 38 39  1  0  0  0  0
 39 40  1  0  0  0  0
 41 40  1  0  0  0  0
 42 41  1  0  0  0  0
 44 50  2  0  0  0  0
 45 57  1  0  0  0  0
 45 47  1  0  0  0  0
 46 45  1  0  0  0  0
 47 53  1  0  0  0  0
 48 47  1  0  0  0  0
 48 51  1  0  0  0  0
 50 41  1  0  0  0  0
 50 48  1  0  0  0  0
 51 52  1  0  0  0  0
 52 43  1  0  0  0  0
 53 43  1  0  0  0  0
 54 53  1  0  0  0  0
 54 49  1  0  0  0  0
 55 46  2  0  0  0  0
 56 46  1  0  0  0  0
 57 54  1  0  0  0  0
 59 58  1  0  0  0  0
M  END
>  <MODEL>
7

>  <REMARK>
 VINA RESULT:      -8.3      2.042      7.931
  Name = 
  7 active torsions:
  status: ('A' for Active; 'I' for Inactive)
    1  A    between atoms: C_11  and  C_28
    2  A    between atoms: C_11  and  C_33
    3  A    between atoms: C_12  and  C_57
    4  A    between atoms: C_21  and  O_26
    5  A    between atoms: O_26  and  C_32
    6  A    between atoms: C_28  and  C_32
    7  A    between atoms: C_30  and  C_44
                            x       y       z     vdW  Elec       q    Type
                         _______ _______ _______ _____ _____    ______ ____

>  <TORSDO>
F 7

$$$$
=
 OpenBabel10222418163D

 59 66  0  0  1  0  0  0  0  0999 V2000
  190.9980  177.4790  142.6910 C   0  0  1  0  0  3  0  0  0  0  0  0
  191.6400  177.4300  141.3070 C   0  0  0  0  0  2  0  0  0  0  0  0
  191.3610  175.6360  135.8130 O   0  0  0  0  0  0  0  0  0  0  0  0
  190.6390  175.2250  136.9680 C   0  0  0  0  0  2  0  0  0  0  0  0
  189.6190  176.9830  143.0210 C   0  0  1  0  0  3  0  0  0  0  0  0
  190.7180  176.1970  138.0960 C   0  0  0  0  0  0  0  0  0  0  0  0
  183.8540  178.9430  142.6240 C   0  0  2  0  0  3  0  0  0  0  0  0
  190.1060  177.1370  145.8130 C   0  0  0  0  0  2  0  0  0  0  0  0
  188.6810  178.2130  143.2790 C   0  0  1  0  0  3  0  0  0  0  0  0
  193.9080  176.7550  137.0150 C   0  0  0  0  0  2  0  0  0  0  0  0
  186.5070  177.7710  144.8940 N   0  0  0  0  0  2  0  0  0  0  0  0
  188.5500  177.3360  140.7300 C   0  0  0  0  0  0  0  0  0  0  0  0
  185.6180  179.2850  142.8540 S   0  0  0  0  0  0  0  0  0  0  0  0
  193.9490  175.6430  135.8730 C   0  0  1  0  0  3  0  0  0  0  0  0
  191.6810  177.8200  143.7920 C   0  0  0  0  0  2  0  0  0  0  0  0
  193.4260  176.8820  141.1830 S   0  0  0  0  0  0  0  0  0  0  0  0
  192.5910  174.9620  135.6050 C   0  0  0  0  0  0  0  0  0  0  0  0
  188.6890  177.6380  145.7650 N   0  0  0  0  0  0  0  0  0  0  0  0
  191.7830  176.9470  138.2700 N   0  0  0  0  0  0  0  0  0  0  0  0
  189.4770  176.6430  138.5550 N   0  0  0  0  0  2  0  0  0  0  0  0
  192.5510  173.7150  135.6200 O   0  0  0  0  0  0  0  0  0  0  0  0
  187.5890  178.1000  140.2450 C   0  0  0  0  0  2  0  0  0  0  0  0
  193.8310  177.2410  139.4220 C   0  0  0  0  0  2  0  0  0  0  0  0
  193.1590  176.4630  138.3180 C   0  0  2  0  0  3  0  0  0  0  0  0
  188.3420  177.1330  142.2440 C   0  0  1  0  0  3  0  0  0  0  0  0
  187.9780  177.8710  144.7280 C   0  0  0  0  0  0  0  0  0  0  0  0
  184.2280  178.2890  144.8420 N   0  0  0  0  0  0  0  0  0  0  0  0
  183.1500  178.7210  143.9580 C   0  0  0  0  0  2  0  0  0  0  0  0
  189.1790  176.2760  139.9010 C   0  0  0  0  0  2  0  0  0  0  0  0
  185.4420  178.4570  144.3470 C   0  0  0  0  0  0  0  0  0  0  0  0
  191.1720  178.0460  145.1250 C   0  0  0  0  0  2  0  0  0  0  0  0
  181.5820  179.0210  141.1950 C   0  0  0  0  0  2  0  0  0  0  0  0
  183.8980  179.3300  140.1560 N   0  0  0  0  0  0  0  0  0  0  0  0
  182.2670  178.0350  138.8730 C   0  0  0  0  0  2  0  0  0  0  0  0
  183.5540  178.8300  139.0450 C   0  0  0  0  0  0  0  0  0  0  0  0
  181.0930  178.7250  139.7010 C   0  0  0  0  0  2  0  0  0  0  0  0
  183.1600  178.7750  141.2410 C   0  0  1  0  0  3  0  0  0  0  0  0
  184.5000  178.9350  138.0610 O   0  0  0  0  0  0  0  0  0  0  0  0
  185.6780  178.2010  138.0220 C   0  0  0  0  0  2  0  0  0  0  0  0
  185.7060  177.7150  136.5980 C   0  0  0  0  0  2  0  0  0  0  0  0
  185.6730  176.2250  136.4440 C   0  0  1  0  0  3  0  0  0  0  0  0
  186.3630  175.6930  137.5430 O   0  0  0  0  0  1  0  0  0  0  0  0
  184.9010  171.6420  135.1420 O   0  0  0  0  0  0  0  0  0  0  0  0
  183.2420  176.3330  136.0370 O   0  0  0  0  0  0  0  0  0  0  0  0
  182.1200  173.0460  136.8170 N   0  0  0  0  0  0  0  0  0  0  0  0
  180.9190  173.8050  137.2670 C   0  0  0  0  0  0  0  0  0  0  0  0
  183.0410  173.3230  135.6480 C   0  0  1  0  0  3  0  0  0  0  0  0
  184.1820  174.2350  136.0010 N   0  0  0  0  0  0  0  0  0  0  0  0
  182.5580  169.6400  135.4300 O   0  0  0  0  0  1  0  0  0  0  0  0
  184.2740  175.6110  136.2420 C   0  0  0  0  0  0  0  0  0  0  0  0
  185.4140  173.7930  135.2870 C   0  0  0  0  0  2  0  0  0  0  0  0
  185.6910  172.5300  135.6670 O   0  0  0  0  0  0  0  0  0  0  0  0
  183.5490  171.8560  135.4240 C   0  0  2  0  0  3  0  0  0  0  0  0
  182.9730  170.7110  136.3070 C   0  0  1  0  0  3  0  0  0  0  0  0
  180.6040  174.8930  136.7980 O   0  0  0  0  0  0  0  0  0  0  0  0
  180.0980  173.1860  138.3280 C   0  0  0  0  0  1  0  0  0  0  0  0
  181.7320  171.6020  136.6600 C   0  0  0  0  0  2  0  0  0  0  0  0
  196.1760  176.0310  135.0280 C   0  0  0  0  0  1  0  0  0  0  0  0
  194.7850  175.6550  134.5940 C   0  0  0  0  0  2  0  0  0  0  0  0
  1  2  1  1  0  0  0
  1  5  1  0  0  0  0
  1 15  1  0  0  0  0
  3  4  1  0  0  0  0
  4  6  1  0  0  0  0
  5  9  1  0  0  0  0
  6 19  2  0  0  0  0
  6 20  1  0  0  0  0
  7 13  1  0  0  0  0
  7 28  1  0  0  0  0
  9 26  1  0  0  0  0
 10 24  1  0  0  0  0
 12 25  1  0  0  0  0
 13 30  1  0  0  0  0
 14 10  1  0  0  0  0
 15 31  1  0  0  0  0
 16  2  1  0  0  0  0
 17 21  2  0  0  0  0
 17  3  1  0  0  0  0
 17 14  1  0  0  0  0
 18  8  1  0  0  0  0
 19 24  1  0  0  0  0
 20 29  1  0  0  0  0
 22 12  2  0  0  0  0
 23 16  1  0  0  0  0
 24 23  1  0  0  0  0
 25  5  1  0  0  0  0
 25  9  1  0  0  0  0
 26 11  1  0  0  0  0
 26 18  2  0  0  0  0
 28 27  1  0  0  0  0
 29 12  1  0  0  0  0
 30 27  2  0  0  0  0
 30 11  1  0  0  0  0
 31  8  1  0  0  0  0
 32 37  1  0  0  0  0
 33 37  1  0  0  0  0
 34 35  1  0  0  0  0
 34 36  1  0  0  0  0
 35 33  2  0  0  0  0
 36 32  1  0  0  0  0
 37  7  1  0  0  0  0
 38 35  1  0  0  0  0
 39 38  1  0  0  0  0
 40 39  1  0  0  0  0
 41 40  1  0  0  0  0
 41 42  1  0  0  0  0
 43 53  1  0  0  0  0
 43 52  1  0  0  0  0
 44 50  2  0  0  0  0
 45 46  1  0  0  0  0
 46 56  1  0  0  0  0
 47 48  1  0  0  0  0
 47 45  1  0  0  0  0
 48 50  1  0  0  0  0
 49 54  1  0  0  0  0
 50 41  1  0  0  0  0
 51 52  1  0  0  0  0
 51 48  1  0  0  0  0
 53 47  1  0  0  0  0
 53 54  1  0  0  0  0
 54 57  1  0  0  0  0
 55 46  2  0  0  0  0
 57 45  1  0  0  0  0
 59 58  1  0  0  0  0
 59 14  1  0  0  0  0
M  END
>  <MODEL>
8

>  <REMARK>
 VINA RESULT:      -8.1      3.787     11.427
  Name = 
  7 active torsions:
  status: ('A' for Active; 'I' for Inactive)
    1  A    between atoms: C_11  and  C_28
    2  A    between atoms: C_11  and  C_33
    3  A    between atoms: C_12  and  C_57
    4  A    between atoms: C_21  and  O_26
    5  A    between atoms: O_26  and  C_32
    6  A    between atoms: C_28  and  C_32
    7  A    between atoms: C_30  and  C_44
                            x       y       z     vdW  Elec       q    Type
                         _______ _______ _______ _____ _____    ______ ____

>  <TORSDO>
F 7

$$$$
=
 OpenBabel10222418163D

 59 66  0  0  1  0  0  0  0  0999 V2000
  187.3180  178.1050  143.4370 C   0  0  1  0  0  3  0  0  0  0  0  0
  185.9000  178.0860  142.8710 C   0  0  0  0  0  2  0  0  0  0  0  0
  182.3100  179.4470  138.5430 O   0  0  0  0  0  0  0  0  0  0  0  0
  183.6230  179.9020  138.8450 C   0  0  0  0  0  2  0  0  0  0  0  0
  188.5410  178.5460  142.6850 C   0  0  1  0  0  3  0  0  0  0  0  0
  184.3510  179.0230  139.8040 C   0  0  0  0  0  0  0  0  0  0  0  0
  192.4780  176.2400  138.6320 C   0  0  2  0  0  3  0  0  0  0  0  0
  190.1070  178.6280  145.0500 C   0  0  0  0  0  2  0  0  0  0  0  0
  189.4130  177.2870  142.3430 C   0  0  1  0  0  3  0  0  0  0  0  0
  181.2960  178.5660  141.2600 C   0  0  0  0  0  2  0  0  0  0  0  0
  192.0970  177.7260  141.9800 N   0  0  0  0  0  2  0  0  0  0  0  0
  187.7470  177.9630  140.3300 C   0  0  0  0  0  0  0  0  0  0  0  0
  191.3570  176.0160  140.0380 S   0  0  0  0  0  0  0  0  0  0  0  0
  180.4700  179.5910  140.3590 C   0  0  1  0  0  3  0  0  0  0  0  0
  187.5810  177.8860  144.7320 C   0  0  0  0  0  2  0  0  0  0  0  0
  184.5120  178.7240  143.9540 S   0  0  0  0  0  0  0  0  0  0  0  0
  181.2660  180.1730  139.1720 C   0  0  0  0  0  0  0  0  0  0  0  0
  191.1090  178.0460  144.0920 N   0  0  0  0  0  0  0  0  0  0  0  0
  183.7040  178.3500  140.7290 N   0  0  0  0  0  0  0  0  0  0  0  0
  185.5730  178.5440  139.3280 N   0  0  0  0  0  2  0  0  0  0  0  0
  181.2920  181.4130  139.0400 O   0  0  0  0  0  0  0  0  0  0  0  0
  188.1210  177.1120  139.3920 C   0  0  0  0  0  2  0  0  0  0  0  0
  183.0120  178.2580  142.9920 C   0  0  0  0  0  2  0  0  0  0  0  0
  182.7330  178.9120  141.6610 C   0  0  2  0  0  3  0  0  0  0  0  0
  188.9370  178.2670  141.2620 C   0  0  1  0  0  3  0  0  0  0  0  0
  190.9150  177.6960  142.8770 C   0  0  0  0  0  0  0  0  0  0  0  0
  193.7220  177.0780  140.4300 N   0  0  0  0  0  0  0  0  0  0  0  0
  193.9030  176.5210  139.0930 C   0  0  0  0  0  2  0  0  0  0  0  0
  186.7100  178.9930  140.0630 C   0  0  0  0  0  2  0  0  0  0  0  0
  192.5020  176.9420  140.9190 C   0  0  0  0  0  0  0  0  0  0  0  0
  188.8690  177.7320  145.3680 C   0  0  0  0  0  2  0  0  0  0  0  0
  193.1720  176.0510  136.0440 C   0  0  0  0  0  2  0  0  0  0  0  0
  190.8080  175.5750  136.8960 N   0  0  0  0  0  0  0  0  0  0  0  0
  191.0050  176.7510  134.7600 C   0  0  0  0  0  2  0  0  0  0  0  0
  190.2590  175.9520  135.8190 C   0  0  0  0  0  0  0  0  0  0  0  0
  192.4880  176.1860  134.6050 C   0  0  0  0  0  2  0  0  0  0  0  0
  192.0300  176.2660  137.1410 C   0  0  1  0  0  3  0  0  0  0  0  0
  188.9120  175.7160  135.7590 O   0  0  0  0  0  0  0  0  0  0  0  0
  188.2200  174.8850  136.6300 C   0  0  0  0  0  2  0  0  0  0  0  0
  187.4830  173.9730  135.6860 C   0  0  0  0  0  2  0  0  0  0  0  0
  186.3690  173.1920  136.3120 C   0  0  1  0  0  3  0  0  0  0  0  0
  186.7990  172.8410  137.6000 O   0  0  0  0  0  1  0  0  0  0  0  0
  182.1780  170.8010  136.1680 O   0  0  0  0  0  0  0  0  0  0  0  0
  184.8400  175.0930  135.9390 O   0  0  0  0  0  0  0  0  0  0  0  0
  181.8200  174.0540  137.5110 N   0  0  0  0  0  0  0  0  0  0  0  0
  181.7260  175.5150  137.7890 C   0  0  0  0  0  0  0  0  0  0  0  0
  182.3740  173.3480  136.2910 C   0  0  1  0  0  3  0  0  0  0  0  0
  183.8470  173.0690  136.3910 N   0  0  0  0  0  0  0  0  0  0  0  0
  179.2580  171.4330  136.9760 O   0  0  0  0  0  1  0  0  0  0  0  0
  184.9870  173.8750  136.2910 C   0  0  0  0  0  0  0  0  0  0  0  0
  184.1460  171.7430  135.7800 C   0  0  0  0  0  2  0  0  0  0  0  0
  183.4470  170.8040  136.4470 O   0  0  0  0  0  0  0  0  0  0  0  0
  181.5450  172.0220  136.4170 C   0  0  2  0  0  3  0  0  0  0  0  0
  180.4990  171.8880  137.5600 C   0  0  1  0  0  3  0  0  0  0  0  0
  182.2520  176.3640  137.0780 O   0  0  0  0  0  0  0  0  0  0  0  0
  180.9560  175.9180  138.9840 C   0  0  0  0  0  1  0  0  0  0  0  0
  180.4590  173.4480  137.7140 C   0  0  0  0  0  2  0  0  0  0  0  0
  178.9310  179.1310  138.5580 C   0  0  0  0  0  1  0  0  0  0  0  0
  178.9850  179.5310  140.0090 C   0  0  0  0  0  2  0  0  0  0  0  0
  1  2  1  1  0  0  0
  1 15  1  0  0  0  0
  2 16  1  0  0  0  0
  3  4  1  0  0  0  0
  3 17  1  0  0  0  0
  4  6  1  0  0  0  0
  5  1  1  0  0  0  0
  6 19  2  0  0  0  0
  7 28  1  0  0  0  0
  7 13  1  0  0  0  0
  8 31  1  0  0  0  0
  9  5  1  0  0  0  0
  9 26  1  0  0  0  0
 10 24  1  0  0  0  0
 11 26  1  0  0  0  0
 12 25  1  0  0  0  0
 13 30  1  0  0  0  0
 14 10  1  0  0  0  0
 15 31  1  0  0  0  0
 17 14  1  0  0  0  0
 18  8  1  0  0  0  0
 19 24  1  0  0  0  0
 20  6  1  0  0  0  0
 20 29  1  0  0  0  0
 21 17  2  0  0  0  0
 22 12  2  0  0  0  0
 23 16  1  0  0  0  0
 24 23  1  0  0  0  0
 25  9  1  0  0  0  0
 25  5  1  0  0  0  0
 26 18  2  0  0  0  0
 27 30  2  0  0  0  0
 28 27  1  0  0  0  0
 29 12  1  0  0  0  0
 30 11  1  0  0  0  0
 32 37  1  0  0  0  0
 33 37  1  0  0  0  0
 34 35  1  0  0  0  0
 35 33  2  0  0  0  0
 36 34  1  0  0  0  0
 36 32  1  0  0  0  0
 37  7  1  0  0  0  0
 38 35  1  0  0  0  0
 38 39  1  0  0  0  0
 40 41  1  0  0  0  0
 40 39  1  0  0  0  0
 41 42  1  0  0  0  0
 43 53  1  0  0  0  0
 43 52  1  0  0  0  0
 44 50  2  0  0  0  0
 45 57  1  0  0  0  0
 45 46  1  0  0  0  0
 46 56  1  0  0  0  0
 47 48  1  0  0  0  0
 47 53  1  0  0  0  0
 47 45  1  0  0  0  0
 49 54  1  0  0  0  0
 50 41  1  0  0  0  0
 50 48  1  0  0  0  0
 51 48  1  0  0  0  0
 51 52  1  0  0  0  0
 53 54  1  0  0  0  0
 54 57  1  0  0  0  0
 55 46  2  0  0  0  0
 58 59  1  0  0  0  0
 59 14  1  0  0  0  0
M  END
>  <MODEL>
9

>  <REMARK>
 VINA RESULT:      -7.8      3.613      8.637
  Name = 
  7 active torsions:
  status: ('A' for Active; 'I' for Inactive)
    1  A    between atoms: C_11  and  C_28
    2  A    between atoms: C_11  and  C_33
    3  A    between atoms: C_12  and  C_57
    4  A    between atoms: C_21  and  O_26
    5  A    between atoms: O_26  and  C_32
    6  A    between atoms: C_28  and  C_32
    7  A    between atoms: C_30  and  C_44
                            x       y       z     vdW  Elec       q    Type
                         _______ _______ _______ _____ _____    ______ ____

>  <TORSDO>
F 7

$$$$
