=
 OpenBabel10222419473D

 33 36  0  0  1  0  0  0  0  0999 V2000
  191.6740  176.1310  144.1240 C   0  0  0  0  0  3  0  0  0  0  0  0
  189.6380  178.0020  143.7430 C   0  0  0  0  0  3  0  0  0  0  0  0
  191.0630  176.7290  145.2300 C   0  0  0  0  0  0  0  0  0  0  0  0
  191.2670  176.4650  142.8300 C   0  0  0  0  0  3  0  0  0  0  0  0
  190.2470  177.4010  142.6310 C   0  0  0  0  0  0  0  0  0  0  0  0
  191.4770  176.3840  146.5110 O   0  0  0  0  0  1  0  0  0  0  0  0
  190.0390  177.6700  145.0470 C   0  0  0  0  0  0  0  0  0  0  0  0
  190.4690  177.2540  140.1920 C   0  0  0  0  0  3  0  0  0  0  0  0
  189.8320  177.7250  141.2600 C   0  0  0  0  0  3  0  0  0  0  0  0
  188.6700  178.2510  138.8530 C   0  0  0  0  0  3  0  0  0  0  0  0
  187.7810  177.5140  138.2010 C   0  0  0  0  0  3  0  0  0  0  0  0
  190.0230  177.6070  138.8120 C   0  0  2  0  0  3  0  0  0  0  0  0
  189.7330  176.3660  138.0330 C   0  0  0  0  0  0  0  0  0  0  0  0
  188.4510  176.3340  137.6770 C   0  0  0  0  0  0  0  0  0  0  0  0
  186.8820  174.4110  137.4170 O   0  0  0  0  0  1  0  0  0  0  0  0
  188.0260  175.2390  135.6220 O   0  0  0  0  0  0  0  0  0  0  0  0
  187.7790  175.3100  136.8550 C   0  0  0  0  0  0  0  0  0  0  0  0
  191.4620  175.7860  136.3640 C   0  0  0  0  0  1  0  0  0  0  0  0
  190.7830  175.3700  137.6550 C   0  0  0  0  0  2  0  0  0  0  0  0
  189.4360  178.2580  146.1650 O   0  0  0  0  0  0  0  0  0  0  0  0
  188.3280  177.6760  146.8460 C   0  0  0  0  0  2  0  0  0  0  0  0
  187.4080  177.0890  145.8830 N   0  0  0  0  0  2  0  0  0  0  0  0
  185.2690  178.2440  146.3020 C   0  0  0  0  0  3  0  0  0  0  0  0
  184.1400  178.9120  145.8180 C   0  0  0  0  0  3  0  0  0  0  0  0
  186.0740  177.9620  144.0370 C   0  0  0  0  0  3  0  0  0  0  0  0
  186.2400  177.7650  145.4110 C   0  0  0  0  0  0  0  0  0  0  0  0
  184.9450  178.6330  143.5440 C   0  0  0  0  0  0  0  0  0  0  0  0
  183.9800  179.1060  144.4440 C   0  0  0  0  0  3  0  0  0  0  0  0
  183.9730  178.8840  140.0760 N   0  0  0  0  0  0  0  0  0  0  0  0
  184.7780  178.8500  142.0990 C   0  0  0  0  0  0  0  0  0  0  0  0
  185.1770  179.4360  140.0860 N   0  0  0  0  0  0  0  0  0  0  0  0
  183.6840  178.5000  141.3340 C   0  0  0  0  0  2  0  0  0  0  0  0
  185.6940  179.4300  141.3040 N   0  0  0  0  0  0  0  0  0  0  0  0
  1  3  1  0  0  0  0
  2  7  1  0  0  0  0
  3  6  1  0  0  0  0
  4  1  2  0  0  0  0
  5  4  1  0  0  0  0
  5  2  2  0  0  0  0
  7  3  2  0  0  0  0
  7 20  1  0  0  0  0
  8  9  2  0  0  0  0
  9  5  1  0  0  0  0
 11 10  2  0  0  0  0
 12 10  1  0  0  0  0
 12  8  1  1  0  0  0
 13 12  1  0  0  0  0
 14 13  2  0  0  0  0
 14 11  1  0  0  0  0
 16 17  2  0  0  0  0
 17 15  1  0  0  0  0
 17 14  1  0  0  0  0
 18 19  1  0  0  0  0
 19 13  1  0  0  0  0
 20 21  1  0  0  0  0
 22 21  1  0  0  0  0
 24 23  1  0  0  0  0
 25 26  1  0  0  0  0
 26 22  1  0  0  0  0
 26 23  2  0  0  0  0
 27 25  2  0  0  0  0
 27 28  1  0  0  0  0
 28 24  2  0  0  0  0
 29 31  2  0  0  0  0
 29 32  1  0  0  0  0
 30 27  1  0  0  0  0
 31 33  1  0  0  0  0
 32 30  1  0  0  0  0
 33 30  2  0  0  0  0
M  END
>  <MODEL>
1

>  <REMARK>
 VINA RESULT:      -8.7      0.000      0.000
  Name = 
  9 active torsions:
  status: ('A' for Active; 'I' for Inactive)
    1  A    between atoms: C_4  and  C_24
    2  A    between atoms: C_5  and  C_21
    3  A    between atoms: C_9  and  C_10
    4  A    between atoms: C_17  and  C_25
    5  A    between atoms: C_20  and  N_32
    6  A    between atoms: C_26  and  C_30
    7  A    between atoms: O_28  and  C_31
    8  A    between atoms: O_28  and  C_33
    9  A    between atoms: N_32  and  C_33
                            x       y       z     vdW  Elec       q    Type
                         _______ _______ _______ _____ _____    ______ ____

>  <TORSDO>
F 9

$$$$
=
 OpenBabel10222419473D

 33 36  0  0  1  0  0  0  0  0999 V2000
  191.9430  177.2860  142.5030 C   0  0  0  0  0  3  0  0  0  0  0  0
  189.1820  177.1000  142.1410 C   0  0  0  0  0  3  0  0  0  0  0  0
  191.1110  177.0630  143.6040 C   0  0  0  0  0  0  0  0  0  0  0  0
  191.3970  177.4130  141.2230 C   0  0  0  0  0  3  0  0  0  0  0  0
  190.0150  177.3210  141.0340 C   0  0  0  0  0  0  0  0  0  0  0  0
  191.6690  176.9350  144.8700 O   0  0  0  0  0  1  0  0  0  0  0  0
  189.7220  176.9680  143.4300 C   0  0  0  0  0  0  0  0  0  0  0  0
  190.2390  177.4090  138.5920 C   0  0  0  0  0  3  0  0  0  0  0  0
  189.4700  177.4480  139.6760 C   0  0  0  0  0  3  0  0  0  0  0  0
  188.8840  178.8270  137.1180 C   0  0  0  0  0  3  0  0  0  0  0  0
  187.6010  178.5870  136.8860 C   0  0  0  0  0  3  0  0  0  0  0  0
  189.6510  177.5450  137.2270 C   0  0  2  0  0  3  0  0  0  0  0  0
  188.5680  176.5370  137.0310 C   0  0  0  0  0  0  0  0  0  0  0  0
  187.4030  177.1470  136.8220 C   0  0  0  0  0  0  0  0  0  0  0  0
  185.8540  175.9120  135.3040 O   0  0  0  0  0  0  0  0  0  0  0  0
  185.1960  176.5200  137.4040 O   0  0  0  0  0  1  0  0  0  0  0  0
  186.1030  176.5120  136.5320 C   0  0  0  0  0  0  0  0  0  0  0  0
  189.9810  174.7450  136.0790 C   0  0  0  0  0  1  0  0  0  0  0  0
  188.8150  175.0620  136.9970 C   0  0  0  0  0  2  0  0  0  0  0  0
  188.9030  176.7420  144.5430 O   0  0  0  0  0  0  0  0  0  0  0  0
  188.4510  177.7870  145.3990 C   0  0  0  0  0  2  0  0  0  0  0  0
  187.1140  177.4840  145.8880 N   0  0  0  0  0  2  0  0  0  0  0  0
  184.8320  178.4030  146.0730 C   0  0  0  0  0  3  0  0  0  0  0  0
  183.6880  178.9300  145.4670 C   0  0  0  0  0  3  0  0  0  0  0  0
  185.8720  178.1610  143.9010 C   0  0  0  0  0  3  0  0  0  0  0  0
  185.9290  178.0150  145.2900 C   0  0  0  0  0  0  0  0  0  0  0  0
  184.7290  178.6900  143.2860 C   0  0  0  0  0  0  0  0  0  0  0  0
  183.6380  179.0740  144.0780 C   0  0  0  0  0  3  0  0  0  0  0  0
  184.0370  178.8030  139.7440 N   0  0  0  0  0  0  0  0  0  0  0  0
  184.6760  178.8540  141.8250 C   0  0  0  0  0  0  0  0  0  0  0  0
  185.2260  179.3800  139.8310 N   0  0  0  0  0  0  0  0  0  0  0  0
  183.6530  178.4560  140.9880 C   0  0  0  0  0  2  0  0  0  0  0  0
  185.6420  179.4250  141.0860 N   0  0  0  0  0  0  0  0  0  0  0  0
  1  3  1  0  0  0  0
  2  7  1  0  0  0  0
  3  6  1  0  0  0  0
  4  1  2  0  0  0  0
  5  4  1  0  0  0  0
  5  2  2  0  0  0  0
  7  3  2  0  0  0  0
  7 20  1  0  0  0  0
  8  9  2  0  0  0  0
  9  5  1  0  0  0  0
 10 12  1  0  0  0  0
 11 10  2  0  0  0  0
 12  8  1  1  0  0  0
 13 12  1  0  0  0  0
 14 11  1  0  0  0  0
 14 13  2  0  0  0  0
 15 17  2  0  0  0  0
 17 14  1  0  0  0  0
 17 16  1  0  0  0  0
 18 19  1  0  0  0  0
 19 13  1  0  0  0  0
 20 21  1  0  0  0  0
 21 22  1  0  0  0  0
 24 23  1  0  0  0  0
 25 26  1  0  0  0  0
 26 22  1  0  0  0  0
 26 23  2  0  0  0  0
 27 25  2  0  0  0  0
 27 28  1  0  0  0  0
 28 24  2  0  0  0  0
 29 31  2  0  0  0  0
 29 32  1  0  0  0  0
 30 27  1  0  0  0  0
 31 33  1  0  0  0  0
 32 30  1  0  0  0  0
 33 30  2  0  0  0  0
M  END
>  <MODEL>
2

>  <REMARK>
 VINA RESULT:      -8.5      1.266      1.595
  Name = 
  9 active torsions:
  status: ('A' for Active; 'I' for Inactive)
    1  A    between atoms: C_4  and  C_24
    2  A    between atoms: C_5  and  C_21
    3  A    between atoms: C_9  and  C_10
    4  A    between atoms: C_17  and  C_25
    5  A    between atoms: C_20  and  N_32
    6  A    between atoms: C_26  and  C_30
    7  A    between atoms: O_28  and  C_31
    8  A    between atoms: O_28  and  C_33
    9  A    between atoms: N_32  and  C_33
                            x       y       z     vdW  Elec       q    Type
                         _______ _______ _______ _____ _____    ______ ____

>  <TORSDO>
F 9

$$$$
=
 OpenBabel10222419473D

 33 36  0  0  1  0  0  0  0  0999 V2000
  190.1870  177.8030  139.1210 C   0  0  0  0  0  3  0  0  0  0  0  0
  188.9850  177.8210  141.6400 C   0  0  0  0  0  3  0  0  0  0  0  0
  190.9240  177.4220  140.2460 C   0  0  0  0  0  0  0  0  0  0  0  0
  188.8510  178.1900  139.2540 C   0  0  0  0  0  3  0  0  0  0  0  0
  188.2420  178.2010  140.5120 C   0  0  0  0  0  0  0  0  0  0  0  0
  192.2510  177.0370  140.0970 O   0  0  0  0  0  1  0  0  0  0  0  0
  190.3280  177.4280  141.5150 C   0  0  0  0  0  0  0  0  0  0  0  0
  186.0030  178.5770  139.5820 C   0  0  0  0  0  3  0  0  0  0  0  0
  186.8330  178.6020  140.6210 C   0  0  0  0  0  3  0  0  0  0  0  0
  184.1420  178.8700  141.1550 C   0  0  0  0  0  3  0  0  0  0  0  0
  183.1660  177.9810  141.2710 C   0  0  0  0  0  3  0  0  0  0  0  0
  184.5780  178.9960  139.7270 C   0  0  2  0  0  3  0  0  0  0  0  0
  183.6810  178.0060  139.0600 C   0  0  0  0  0  0  0  0  0  0  0  0
  182.8690  177.4440  139.9520 C   0  0  0  0  0  0  0  0  0  0  0  0
  180.4700  176.7560  139.9580 O   0  0  0  0  0  1  0  0  0  0  0  0
  182.0950  175.3280  139.2270 O   0  0  0  0  0  0  0  0  0  0  0  0
  181.8000  176.4600  139.6910 C   0  0  0  0  0  0  0  0  0  0  0  0
  184.5960  176.6220  137.2260 C   0  0  0  0  0  1  0  0  0  0  0  0
  183.6720  177.7720  137.5820 C   0  0  0  0  0  2  0  0  0  0  0  0
  191.0790  177.0410  142.6310 O   0  0  0  0  0  0  0  0  0  0  0  0
  190.9790  177.6880  143.8960 C   0  0  0  0  0  2  0  0  0  0  0  0
  190.4070  176.7770  144.8760 N   0  0  0  0  0  2  0  0  0  0  0  0
  189.7680  177.2480  147.2120 C   0  0  0  0  0  3  0  0  0  0  0  0
  188.8120  177.6620  148.1440 C   0  0  0  0  0  3  0  0  0  0  0  0
  188.1590  177.5430  145.4290 C   0  0  0  0  0  3  0  0  0  0  0  0
  189.4430  177.1860  145.8490 C   0  0  0  0  0  0  0  0  0  0  0  0
  187.1950  177.9610  146.3570 C   0  0  0  0  0  0  0  0  0  0  0  0
  187.5300  178.0170  147.7170 C   0  0  0  0  0  3  0  0  0  0  0  0
  184.1220  178.8450  144.6790 N   0  0  0  0  0  0  0  0  0  0  0  0
  185.8470  178.3470  145.9110 C   0  0  0  0  0  0  0  0  0  0  0  0
  183.7980  178.9410  145.9600 N   0  0  0  0  0  2  0  0  0  0  0  0
  185.4140  178.4700  144.6070 C   0  0  0  0  0  3  0  0  0  0  0  0
  184.8280  178.6440  146.7360 N   0  0  0  0  0  0  0  0  0  0  0  0
  1  4  2  0  0  0  0
  1  3  1  0  0  0  0
  3  7  2  0  0  0  0
  4  5  1  0  0  0  0
  5  9  1  0  0  0  0
  5  2  2  0  0  0  0
  6  3  1  0  0  0  0
  7  2  1  0  0  0  0
  7 20  1  0  0  0  0
  8  9  2  0  0  0  0
 10 11  2  0  0  0  0
 12  8  1  1  0  0  0
 12 10  1  0  0  0  0
 13 12  1  0  0  0  0
 13 14  2  0  0  0  0
 14 11  1  0  0  0  0
 16 17  2  0  0  0  0
 17 14  1  0  0  0  0
 17 15  1  0  0  0  0
 18 19  1  0  0  0  0
 19 13  1  0  0  0  0
 20 21  1  0  0  0  0
 21 22  1  0  0  0  0
 22 26  1  0  0  0  0
 23 24  1  0  0  0  0
 25 26  1  0  0  0  0
 25 27  2  0  0  0  0
 26 23  2  0  0  0  0
 27 28  1  0  0  0  0
 28 24  2  0  0  0  0
 29 31  1  0  0  0  0
 30 27  1  0  0  0  0
 30 33  2  0  0  0  0
 31 33  1  0  0  0  0
 32 29  2  0  0  0  0
 32 30  1  0  0  0  0
M  END
>  <MODEL>
3

>  <REMARK>
 VINA RESULT:      -8.5      2.858      5.116
  Name = 
  9 active torsions:
  status: ('A' for Active; 'I' for Inactive)
    1  A    between atoms: C_4  and  C_24
    2  A    between atoms: C_5  and  C_21
    3  A    between atoms: C_9  and  C_10
    4  A    between atoms: C_17  and  C_25
    5  A    between atoms: C_20  and  N_32
    6  A    between atoms: C_26  and  C_30
    7  A    between atoms: O_28  and  C_31
    8  A    between atoms: O_28  and  C_33
    9  A    between atoms: N_32  and  C_33
                            x       y       z     vdW  Elec       q    Type
                         _______ _______ _______ _____ _____    ______ ____

>  <TORSDO>
F 9

$$$$
=
 OpenBabel10222419473D

 33 36  0  0  1  0  0  0  0  0999 V2000
  182.7500  179.0080  144.0000 C   0  0  0  0  0  3  0  0  0  0  0  0
  185.2110  178.5120  142.7800 C   0  0  0  0  0  3  0  0  0  0  0  0
  183.8980  178.8670  144.7840 C   0  0  0  0  0  0  0  0  0  0  0  0
  182.8310  178.9050  142.6090 C   0  0  0  0  0  3  0  0  0  0  0  0
  184.0600  178.6580  141.9910 C   0  0  0  0  0  0  0  0  0  0  0  0
  183.8020  178.9750  146.1660 O   0  0  0  0  0  1  0  0  0  0  0  0
  185.1390  178.6180  144.1790 C   0  0  0  0  0  0  0  0  0  0  0  0
  185.2590  178.6520  139.8500 C   0  0  0  0  0  3  0  0  0  0  0  0
  184.1170  178.5640  140.5260 C   0  0  0  0  0  3  0  0  0  0  0  0
  184.0820  177.8030  137.8720 C   0  0  0  0  0  3  0  0  0  0  0  0
  184.4490  176.6900  137.2520 C   0  0  0  0  0  3  0  0  0  0  0  0
  185.2810  178.5570  138.3610 C   0  0  2  0  0  3  0  0  0  0  0  0
  186.3900  177.6610  137.9200 C   0  0  0  0  0  0  0  0  0  0  0  0
  185.9010  176.6050  137.2740 C   0  0  0  0  0  0  0  0  0  0  0  0
  186.8190  174.2840  137.2540 O   0  0  0  0  0  1  0  0  0  0  0  0
  187.2000  175.7080  135.5100 O   0  0  0  0  0  0  0  0  0  0  0  0
  186.6660  175.5170  136.6340 C   0  0  0  0  0  0  0  0  0  0  0  0
  188.3630  178.7920  136.9490 C   0  0  0  0  0  1  0  0  0  0  0  0
  187.8370  177.9850  138.1210 C   0  0  0  0  0  2  0  0  0  0  0  0
  186.2810  178.4810  144.9780 O   0  0  0  0  0  0  0  0  0  0  0  0
  186.5420  177.3230  145.7660 C   0  0  0  0  0  2  0  0  0  0  0  0
  187.7530  177.5200  146.5480 N   0  0  0  0  0  2  0  0  0  0  0  0
  190.1290  176.9480  146.8840 C   0  0  0  0  0  3  0  0  0  0  0  0
  191.3980  176.6930  146.3560 C   0  0  0  0  0  3  0  0  0  0  0  0
  189.2740  177.3230  144.6520 C   0  0  0  0  0  3  0  0  0  0  0  0
  189.0620  177.2660  146.0330 C   0  0  0  0  0  0  0  0  0  0  0  0
  190.5430  177.0670  144.1140 C   0  0  0  0  0  0  0  0  0  0  0  0
  191.6030  176.7520  144.9750 C   0  0  0  0  0  3  0  0  0  0  0  0
  190.4830  176.9780  140.5050 N   0  0  0  0  0  0  0  0  0  0  0  0
  190.7610  177.1160  142.6600 C   0  0  0  0  0  0  0  0  0  0  0  0
  191.7100  177.4010  140.7700 N   0  0  0  0  0  0  0  0  0  0  0  0
  189.8500  176.7860  141.6780 C   0  0  0  0  0  2  0  0  0  0  0  0
  191.9100  177.4950  142.0740 N   0  0  0  0  0  0  0  0  0  0  0  0
  1  3  1  0  0  0  0
  2  7  1  0  0  0  0
  3  6  1  0  0  0  0
  4  1  2  0  0  0  0
  5  4  1  0  0  0  0
  5  2  2  0  0  0  0
  7  3  2  0  0  0  0
  7 20  1  0  0  0  0
  8  9  2  0  0  0  0
  9  5  1  0  0  0  0
 10 12  1  0  0  0  0
 11 14  1  0  0  0  0
 11 10  2  0  0  0  0
 12  8  1  1  0  0  0
 13 19  1  0  0  0  0
 13 12  1  0  0  0  0
 14 13  2  0  0  0  0
 16 17  2  0  0  0  0
 17 15  1  0  0  0  0
 17 14  1  0  0  0  0
 18 19  1  0  0  0  0
 20 21  1  0  0  0  0
 21 22  1  0  0  0  0
 24 23  1  0  0  0  0
 25 26  1  0  0  0  0
 26 22  1  0  0  0  0
 26 23  2  0  0  0  0
 27 25  2  0  0  0  0
 27 28  1  0  0  0  0
 28 24  2  0  0  0  0
 29 31  2  0  0  0  0
 29 32  1  0  0  0  0
 30 27  1  0  0  0  0
 31 33  1  0  0  0  0
 32 30  1  0  0  0  0
 33 30  2  0  0  0  0
M  END
>  <MODEL>
4

>  <REMARK>
 VINA RESULT:      -8.5      2.623      5.467
  Name = 
  9 active torsions:
  status: ('A' for Active; 'I' for Inactive)
    1  A    between atoms: C_4  and  C_24
    2  A    between atoms: C_5  and  C_21
    3  A    between atoms: C_9  and  C_10
    4  A    between atoms: C_17  and  C_25
    5  A    between atoms: C_20  and  N_32
    6  A    between atoms: C_26  and  C_30
    7  A    between atoms: O_28  and  C_31
    8  A    between atoms: O_28  and  C_33
    9  A    between atoms: N_32  and  C_33
                            x       y       z     vdW  Elec       q    Type
                         _______ _______ _______ _____ _____    ______ ____

>  <TORSDO>
F 9

$$$$
=
 OpenBabel10222419473D

 33 36  0  0  1  0  0  0  0  0999 V2000
  186.3900  178.3800  146.8570 C   0  0  0  0  0  3  0  0  0  0  0  0
  186.1310  177.8830  144.1230 C   0  0  0  0  0  3  0  0  0  0  0  0
  187.3460  177.6020  146.1980 C   0  0  0  0  0  0  0  0  0  0  0  0
  185.3080  178.9120  146.1500 C   0  0  0  0  0  3  0  0  0  0  0  0
  185.1720  178.6680  144.7810 C   0  0  0  0  0  0  0  0  0  0  0  0
  188.4180  177.0820  146.9140 O   0  0  0  0  0  1  0  0  0  0  0  0
  187.2230  177.3480  144.8240 C   0  0  0  0  0  0  0  0  0  0  0  0
  182.8340  178.6690  144.0380 C   0  0  0  0  0  3  0  0  0  0  0  0
  184.0310  179.2480  144.0610 C   0  0  0  0  0  3  0  0  0  0  0  0
  180.3920  178.8900  143.9180 C   0  0  0  0  0  3  0  0  0  0  0  0
  179.6580  178.1880  143.0670 C   0  0  0  0  0  3  0  0  0  0  0  0
  181.6960  179.2850  143.2930 C   0  0  2  0  0  3  0  0  0  0  0  0
  181.5710  178.6650  141.9410 C   0  0  0  0  0  0  0  0  0  0  0  0
  180.3950  178.0540  141.8200 C   0  0  0  0  0  0  0  0  0  0  0  0
  179.9400  175.9900  140.4930 O   0  0  0  0  0  1  0  0  0  0  0  0
  179.3380  178.0460  139.7020 O   0  0  0  0  0  0  0  0  0  0  0  0
  179.8630  177.3700  140.6250 C   0  0  0  0  0  0  0  0  0  0  0  0
  183.2640  177.4670  140.5930 C   0  0  0  0  0  1  0  0  0  0  0  0
  182.6100  178.8070  140.8740 C   0  0  0  0  0  2  0  0  0  0  0  0
  188.1910  176.5680  144.1790 O   0  0  0  0  0  0  0  0  0  0  0  0
  189.5580  176.9530  144.0780 C   0  0  0  0  0  2  0  0  0  0  0  0
  189.7020  178.0190  143.0960 N   0  0  0  0  0  2  0  0  0  0  0  0
  188.2950  178.4370  141.1130 C   0  0  0  0  0  3  0  0  0  0  0  0
  188.0430  178.2570  139.7500 C   0  0  0  0  0  3  0  0  0  0  0  0
  190.2800  177.0660  140.9270 C   0  0  0  0  0  3  0  0  0  0  0  0
  189.4160  177.8390  141.7070 C   0  0  0  0  0  0  0  0  0  0  0  0
  190.0340  176.8810  139.5590 C   0  0  0  0  0  0  0  0  0  0  0  0
  188.9100  177.4820  138.9760 C   0  0  0  0  0  3  0  0  0  0  0  0
  192.6970  175.3720  137.6430 N   0  0  0  0  0  0  0  0  0  0  0  0
  190.9510  176.0750  138.7380 C   0  0  0  0  0  0  0  0  0  0  0  0
  191.7140  174.4930  137.5260 N   0  0  0  0  0  0  0  0  0  0  0  0
  192.2530  176.3910  138.4040 C   0  0  0  0  0  2  0  0  0  0  0  0
  190.6360  174.8930  138.1820 N   0  0  0  0  0  0  0  0  0  0  0  0
  2  5  2  0  0  0  0
  2  7  1  0  0  0  0
  3  1  1  0  0  0  0
  3  6  1  0  0  0  0
  4  1  2  0  0  0  0
  5  4  1  0  0  0  0
  7  3  2  0  0  0  0
  8  9  2  0  0  0  0
  9  5  1  0  0  0  0
 11 10  2  0  0  0  0
 12 10  1  0  0  0  0
 12  8  1  1  0  0  0
 13 12  1  0  0  0  0
 14 13  2  0  0  0  0
 14 11  1  0  0  0  0
 15 17  1  0  0  0  0
 16 17  2  0  0  0  0
 17 14  1  0  0  0  0
 18 19  1  0  0  0  0
 19 13  1  0  0  0  0
 20  7  1  0  0  0  0
 21 20  1  0  0  0  0
 22 21  1  0  0  0  0
 23 26  1  0  0  0  0
 24 23  2  0  0  0  0
 25 26  2  0  0  0  0
 26 22  1  0  0  0  0
 27 25  1  0  0  0  0
 28 27  2  0  0  0  0
 28 24  1  0  0  0  0
 29 32  1  0  0  0  0
 30 27  1  0  0  0  0
 31 29  2  0  0  0  0
 31 33  1  0  0  0  0
 32 30  1  0  0  0  0
 33 30  2  0  0  0  0
M  END
>  <MODEL>
5

>  <REMARK>
 VINA RESULT:      -8.3      3.749      7.381
  Name = 
  9 active torsions:
  status: ('A' for Active; 'I' for Inactive)
    1  A    between atoms: C_4  and  C_24
    2  A    between atoms: C_5  and  C_21
    3  A    between atoms: C_9  and  C_10
    4  A    between atoms: C_17  and  C_25
    5  A    between atoms: C_20  and  N_32
    6  A    between atoms: C_26  and  C_30
    7  A    between atoms: O_28  and  C_31
    8  A    between atoms: O_28  and  C_33
    9  A    between atoms: N_32  and  C_33
                            x       y       z     vdW  Elec       q    Type
                         _______ _______ _______ _____ _____    ______ ____

>  <TORSDO>
F 9

$$$$
=
 OpenBabel10222419473D

 33 36  0  0  1  0  0  0  0  0999 V2000
  189.6080  176.2810  138.4620 C   0  0  0  0  0  3  0  0  0  0  0  0
  188.2080  178.3340  139.7320 C   0  0  0  0  0  3  0  0  0  0  0  0
  188.4600  176.8110  137.8660 C   0  0  0  0  0  0  0  0  0  0  0  0
  190.0580  176.7770  139.6880 C   0  0  0  0  0  3  0  0  0  0  0  0
  189.3620  177.8060  140.3290 C   0  0  0  0  0  0  0  0  0  0  0  0
  188.0260  176.3090  136.6450 O   0  0  0  0  0  1  0  0  0  0  0  0
  187.7510  177.8430  138.4980 C   0  0  0  0  0  0  0  0  0  0  0  0
  189.2210  178.1150  142.7590 C   0  0  0  0  0  3  0  0  0  0  0  0
  189.8640  178.3150  141.6120 C   0  0  0  0  0  3  0  0  0  0  0  0
  191.2130  178.9780  143.9040 C   0  0  0  0  0  3  0  0  0  0  0  0
  191.9430  178.2280  144.7180 C   0  0  0  0  0  3  0  0  0  0  0  0
  189.7580  178.6500  144.0450 C   0  0  2  0  0  3  0  0  0  0  0  0
  189.7990  177.5690  145.0740 C   0  0  0  0  0  0  0  0  0  0  0  0
  191.0530  177.3490  145.4600 C   0  0  0  0  0  0  0  0  0  0  0  0
  192.2670  175.2840  146.1640 O   0  0  0  0  0  0  0  0  0  0  0  0
  191.2170  176.6060  147.7020 O   0  0  0  0  0  1  0  0  0  0  0  0
  191.5150  176.4040  146.4960 C   0  0  0  0  0  0  0  0  0  0  0  0
  187.5310  177.9570  145.9790 C   0  0  0  0  0  1  0  0  0  0  0  0
  188.5730  176.9130  145.6260 C   0  0  0  0  0  2  0  0  0  0  0  0
  186.6040  178.3660  137.8880 O   0  0  0  0  0  0  0  0  0  0  0  0
  185.2840  178.0730  138.3370 C   0  0  0  0  0  2  0  0  0  0  0  0
  184.7740  179.1810  139.1310 N   0  0  0  0  0  2  0  0  0  0  0  0
  185.4430  179.1510  141.5040 C   0  0  0  0  0  3  0  0  0  0  0  0
  185.1020  179.0410  142.8560 C   0  0  0  0  0  3  0  0  0  0  0  0
  183.1200  178.8610  140.8940 C   0  0  0  0  0  3  0  0  0  0  0  0
  184.4510  179.0600  140.5180 C   0  0  0  0  0  0  0  0  0  0  0  0
  182.7690  178.7510  142.2470 C   0  0  0  0  0  0  0  0  0  0  0  0
  183.7690  178.8420  143.2250 C   0  0  0  0  0  3  0  0  0  0  0  0
  179.2090  178.2550  142.5930 N   0  0  0  0  0  0  0  0  0  0  0  0
  181.3660  178.5530  142.6410 C   0  0  0  0  0  0  0  0  0  0  0  0
  179.6240  178.3100  143.8500 N   0  0  0  0  0  2  0  0  0  0  0  0
  180.2850  178.4050  141.7960 C   0  0  0  0  0  3  0  0  0  0  0  0
  180.9330  178.4900  143.9120 N   0  0  0  0  0  0  0  0  0  0  0  0
  1  4  1  0  0  0  0
  2  5  1  0  0  0  0
  3  1  2  0  0  0  0
  3  7  1  0  0  0  0
  4  5  2  0  0  0  0
  5  9  1  0  0  0  0
  6  3  1  0  0  0  0
  7  2  2  0  0  0  0
  9  8  2  0  0  0  0
 10 12  1  0  0  0  0
 10 11  2  0  0  0  0
 11 14  1  0  0  0  0
 12  8  1  6  0  0  0
 12 13  1  0  0  0  0
 13 14  2  0  0  0  0
 13 19  1  0  0  0  0
 14 17  1  0  0  0  0
 15 17  2  0  0  0  0
 17 16  1  0  0  0  0
 19 18  1  0  0  0  0
 20 21  1  0  0  0  0
 20  7  1  0  0  0  0
 21 22  1  0  0  0  0
 22 26  1  0  0  0  0
 23 24  1  0  0  0  0
 24 28  2  0  0  0  0
 25 27  2  0  0  0  0
 26 25  1  0  0  0  0
 26 23  2  0  0  0  0
 27 30  1  0  0  0  0
 27 28  1  0  0  0  0
 29 31  1  0  0  0  0
 30 33  2  0  0  0  0
 31 33  1  0  0  0  0
 32 29  2  0  0  0  0
 32 30  1  0  0  0  0
M  END
>  <MODEL>
6

>  <REMARK>
 VINA RESULT:      -8.3      2.206      6.813
  Name = 
  9 active torsions:
  status: ('A' for Active; 'I' for Inactive)
    1  A    between atoms: C_4  and  C_24
    2  A    between atoms: C_5  and  C_21
    3  A    between atoms: C_9  and  C_10
    4  A    between atoms: C_17  and  C_25
    5  A    between atoms: C_20  and  N_32
    6  A    between atoms: C_26  and  C_30
    7  A    between atoms: O_28  and  C_31
    8  A    between atoms: O_28  and  C_33
    9  A    between atoms: N_32  and  C_33
                            x       y       z     vdW  Elec       q    Type
                         _______ _______ _______ _____ _____    ______ ____

>  <TORSDO>
F 9

$$$$
=
 OpenBabel10222419473D

 33 36  0  0  1  0  0  0  0  0999 V2000
  185.6900  178.5890  146.9590 C   0  0  0  0  0  3  0  0  0  0  0  0
  186.1160  177.9000  144.2880 C   0  0  0  0  0  3  0  0  0  0  0  0
  186.8210  177.8470  146.6040 C   0  0  0  0  0  0  0  0  0  0  0  0
  184.7750  178.9880  145.9810 C   0  0  0  0  0  3  0  0  0  0  0  0
  184.9820  178.6470  144.6410 C   0  0  0  0  0  0  0  0  0  0  0  0
  187.7230  177.4600  147.5870 O   0  0  0  0  0  1  0  0  0  0  0  0
  187.0420  177.4980  145.2640 C   0  0  0  0  0  0  0  0  0  0  0  0
  182.6990  178.9200  143.7850 C   0  0  0  0  0  3  0  0  0  0  0  0
  184.0090  179.0880  143.6330 C   0  0  0  0  0  3  0  0  0  0  0  0
  180.3290  179.2220  143.2230 C   0  0  0  0  0  3  0  0  0  0  0  0
  179.6650  178.3610  142.4650 C   0  0  0  0  0  3  0  0  0  0  0  0
  181.7380  179.3780  142.7390 C   0  0  2  0  0  3  0  0  0  0  0  0
  181.7540  178.4370  141.5790 C   0  0  0  0  0  0  0  0  0  0  0  0
  180.5580  177.8740  141.4260 C   0  0  0  0  0  0  0  0  0  0  0  0
  180.1360  175.5610  140.5880 O   0  0  0  0  0  1  0  0  0  0  0  0
  179.8020  177.3730  139.2390 O   0  0  0  0  0  0  0  0  0  0  0  0
  180.1450  176.9320  140.3670 C   0  0  0  0  0  0  0  0  0  0  0  0
  182.9380  179.2810  139.5790 C   0  0  0  0  0  1  0  0  0  0  0  0
  182.9440  178.2480  140.6910 C   0  0  0  0  0  2  0  0  0  0  0  0
  188.1810  176.7570  144.9240 O   0  0  0  0  0  0  0  0  0  0  0  0
  189.5050  177.2660  145.0510 C   0  0  0  0  0  2  0  0  0  0  0  0
  189.7390  178.2940  144.0470 N   0  0  0  0  0  2  0  0  0  0  0  0
  191.2200  177.4240  142.2770 C   0  0  0  0  0  3  0  0  0  0  0  0
  191.4520  177.1290  140.9310 C   0  0  0  0  0  3  0  0  0  0  0  0
  189.0210  178.2630  141.7160 C   0  0  0  0  0  3  0  0  0  0  0  0
  190.0030  177.9940  142.6740 C   0  0  0  0  0  0  0  0  0  0  0  0
  189.2450  177.9690  140.3630 C   0  0  0  0  0  0  0  0  0  0  0  0
  190.4670  177.4000  139.9770 C   0  0  0  0  0  3  0  0  0  0  0  0
  187.1730  178.6240  137.4800 N   0  0  0  0  0  0  0  0  0  0  0  0
  188.2070  178.2420  139.3580 C   0  0  0  0  0  0  0  0  0  0  0  0
  186.3020  178.6330  138.4780 N   0  0  0  0  0  2  0  0  0  0  0  0
  188.3920  178.3790  137.9970 C   0  0  0  0  0  3  0  0  0  0  0  0
  186.9010  178.4030  139.6350 N   0  0  0  0  0  0  0  0  0  0  0  0
  2  5  2  0  0  0  0
  2  7  1  0  0  0  0
  3  1  1  0  0  0  0
  3  6  1  0  0  0  0
  4  1  2  0  0  0  0
  5  4  1  0  0  0  0
  7  3  2  0  0  0  0
  9  8  2  0  0  0  0
  9  5  1  0  0  0  0
 11 10  2  0  0  0  0
 12 10  1  0  0  0  0
 12  8  1  1  0  0  0
 13 12  1  0  0  0  0
 14 13  2  0  0  0  0
 14 11  1  0  0  0  0
 16 17  2  0  0  0  0
 17 15  1  0  0  0  0
 17 14  1  0  0  0  0
 18 19  1  0  0  0  0
 19 13  1  0  0  0  0
 20 21  1  0  0  0  0
 20  7  1  0  0  0  0
 22 21  1  0  0  0  0
 23 26  1  0  0  0  0
 24 23  2  0  0  0  0
 25 26  2  0  0  0  0
 26 22  1  0  0  0  0
 27 25  1  0  0  0  0
 28 27  2  0  0  0  0
 28 24  1  0  0  0  0
 29 32  2  0  0  0  0
 29 31  1  0  0  0  0
 30 33  2  0  0  0  0
 30 27  1  0  0  0  0
 31 33  1  0  0  0  0
 32 30  1  0  0  0  0
M  END
>  <MODEL>
7

>  <REMARK>
 VINA RESULT:      -8.3      2.817      6.723
  Name = 
  9 active torsions:
  status: ('A' for Active; 'I' for Inactive)
    1  A    between atoms: C_4  and  C_24
    2  A    between atoms: C_5  and  C_21
    3  A    between atoms: C_9  and  C_10
    4  A    between atoms: C_17  and  C_25
    5  A    between atoms: C_20  and  N_32
    6  A    between atoms: C_26  and  C_30
    7  A    between atoms: O_28  and  C_31
    8  A    between atoms: O_28  and  C_33
    9  A    between atoms: N_32  and  C_33
                            x       y       z     vdW  Elec       q    Type
                         _______ _______ _______ _____ _____    ______ ____

>  <TORSDO>
F 9

$$$$
=
 OpenBabel10222419473D

 33 36  0  0  1  0  0  0  0  0999 V2000
  190.1720  176.0060  138.3580 C   0  0  0  0  0  3  0  0  0  0  0  0
  188.7040  178.0310  139.5950 C   0  0  0  0  0  3  0  0  0  0  0  0
  189.0610  176.5540  137.7100 C   0  0  0  0  0  0  0  0  0  0  0  0
  190.5510  176.4710  139.6200 C   0  0  0  0  0  3  0  0  0  0  0  0
  189.8210  177.4860  140.2450 C   0  0  0  0  0  0  0  0  0  0  0  0
  188.6980  176.0820  136.4540 O   0  0  0  0  0  1  0  0  0  0  0  0
  188.3180  177.5720  138.3250 C   0  0  0  0  0  0  0  0  0  0  0  0
  189.3920  178.1590  142.5650 C   0  0  0  0  0  3  0  0  0  0  0  0
  190.2480  177.9630  141.5670 C   0  0  0  0  0  3  0  0  0  0  0  0
  191.2970  179.0660  143.8190 C   0  0  0  0  0  3  0  0  0  0  0  0
  192.0470  178.3120  144.6110 C   0  0  0  0  0  3  0  0  0  0  0  0
  189.8600  178.6480  143.8950 C   0  0  2  0  0  3  0  0  0  0  0  0
  189.9360  177.5130  144.8620 C   0  0  0  0  0  0  0  0  0  0  0  0
  191.1890  177.3420  145.2750 C   0  0  0  0  0  0  0  0  0  0  0  0
  192.2250  175.1520  145.8770 O   0  0  0  0  0  0  0  0  0  0  0  0
  191.5870  176.6290  147.4970 O   0  0  0  0  0  1  0  0  0  0  0  0
  191.6760  176.3660  146.2690 C   0  0  0  0  0  0  0  0  0  0  0  0
  188.0690  177.4960  146.4830 C   0  0  0  0  0  1  0  0  0  0  0  0
  188.7350  176.7570  145.3370 C   0  0  0  0  0  2  0  0  0  0  0  0
  187.2080  178.1120  137.6630 O   0  0  0  0  0  0  0  0  0  0  0  0
  185.8640  177.8110  138.0280 C   0  0  0  0  0  2  0  0  0  0  0  0
  185.2520  178.9690  138.6620 N   0  0  0  0  0  2  0  0  0  0  0  0
  182.8770  178.7070  139.2760 C   0  0  0  0  0  3  0  0  0  0  0  0
  181.8870  178.5920  140.2560 C   0  0  0  0  0  3  0  0  0  0  0  0
  184.5640  178.8970  141.0010 C   0  0  0  0  0  3  0  0  0  0  0  0
  184.2200  178.8610  139.6460 C   0  0  0  0  0  0  0  0  0  0  0  0
  183.5760  178.7820  141.9900 C   0  0  0  0  0  0  0  0  0  0  0  0
  182.2360  178.6290  141.6080 C   0  0  0  0  0  3  0  0  0  0  0  0
  185.0510  178.6990  145.2850 N   0  0  0  0  0  0  0  0  0  0  0  0
  183.9410  178.8090  143.4150 C   0  0  0  0  0  0  0  0  0  0  0  0
  183.7840  178.9960  145.5350 N   0  0  0  0  0  2  0  0  0  0  0  0
  185.1900  178.5730  143.9510 C   0  0  0  0  0  3  0  0  0  0  0  0
  183.0820  179.0700  144.4160 N   0  0  0  0  0  0  0  0  0  0  0  0
  1  4  1  0  0  0  0
  2  5  1  0  0  0  0
  3  7  1  0  0  0  0
  3  1  2  0  0  0  0
  4  5  2  0  0  0  0
  5  9  1  0  0  0  0
  6  3  1  0  0  0  0
  7  2  2  0  0  0  0
  9  8  2  0  0  0  0
 10 12  1  0  0  0  0
 10 11  2  0  0  0  0
 11 14  1  0  0  0  0
 12  8  1  6  0  0  0
 12 13  1  0  0  0  0
 13 14  2  0  0  0  0
 13 19  1  0  0  0  0
 14 17  1  0  0  0  0
 15 17  2  0  0  0  0
 17 16  1  0  0  0  0
 19 18  1  0  0  0  0
 20 21  1  0  0  0  0
 20  7  1  0  0  0  0
 21 22  1  0  0  0  0
 22 26  1  0  0  0  0
 23 26  2  0  0  0  0
 23 24  1  0  0  0  0
 24 28  2  0  0  0  0
 25 27  2  0  0  0  0
 26 25  1  0  0  0  0
 27 30  1  0  0  0  0
 28 27  1  0  0  0  0
 29 31  1  0  0  0  0
 30 32  1  0  0  0  0
 30 33  2  0  0  0  0
 32 29  2  0  0  0  0
 33 31  1  0  0  0  0
M  END
>  <MODEL>
8

>  <REMARK>
 VINA RESULT:      -8.2      1.759      6.832
  Name = 
  9 active torsions:
  status: ('A' for Active; 'I' for Inactive)
    1  A    between atoms: C_4  and  C_24
    2  A    between atoms: C_5  and  C_21
    3  A    between atoms: C_9  and  C_10
    4  A    between atoms: C_17  and  C_25
    5  A    between atoms: C_20  and  N_32
    6  A    between atoms: C_26  and  C_30
    7  A    between atoms: O_28  and  C_31
    8  A    between atoms: O_28  and  C_33
    9  A    between atoms: N_32  and  C_33
                            x       y       z     vdW  Elec       q    Type
                         _______ _______ _______ _____ _____    ______ ____

>  <TORSDO>
F 9

$$$$
=
 OpenBabel10222419473D

 33 36  0  0  1  0  0  0  0  0999 V2000
  182.7910  179.1840  144.5110 C   0  0  0  0  0  3  0  0  0  0  0  0
  184.4000  178.3020  142.4090 C   0  0  0  0  0  3  0  0  0  0  0  0
  182.2970  179.2020  143.2030 C   0  0  0  0  0  0  0  0  0  0  0  0
  184.0840  178.7230  144.7690 C   0  0  0  0  0  3  0  0  0  0  0  0
  184.8950  178.2790  143.7210 C   0  0  0  0  0  0  0  0  0  0  0  0
  181.0070  179.6610  142.9630 O   0  0  0  0  0  1  0  0  0  0  0  0
  183.0990  178.7600  142.1410 C   0  0  0  0  0  0  0  0  0  0  0  0
  186.5800  177.3020  145.2140 C   0  0  0  0  0  3  0  0  0  0  0  0
  186.2470  177.7900  144.0220 C   0  0  0  0  0  3  0  0  0  0  0  0
  188.5140  177.4770  146.7150 C   0  0  0  0  0  3  0  0  0  0  0  0
  189.5780  178.2100  146.4160 C   0  0  0  0  0  3  0  0  0  0  0  0
  187.9650  176.8170  145.4870 C   0  0  2  0  0  3  0  0  0  0  0  0
  188.9020  177.3210  144.4390 C   0  0  0  0  0  0  0  0  0  0  0  0
  189.8270  178.1040  144.9870 C   0  0  0  0  0  0  0  0  0  0  0  0
  190.9340  180.1030  143.9820 O   0  0  0  0  0  0  0  0  0  0  0  0
  191.9800  178.0730  144.0010 O   0  0  0  0  0  1  0  0  0  0  0  0
  190.9650  178.7530  144.3060 C   0  0  0  0  0  0  0  0  0  0  0  0
  189.6870  175.6860  142.7590 C   0  0  0  0  0  1  0  0  0  0  0  0
  188.8250  176.9110  143.0030 C   0  0  0  0  0  2  0  0  0  0  0  0
  182.5900  178.7820  140.8370 O   0  0  0  0  0  0  0  0  0  0  0  0
  182.1550  177.6110  140.1540 C   0  0  0  0  0  2  0  0  0  0  0  0
  182.3950  177.7520  138.7250 N   0  0  0  0  0  2  0  0  0  0  0  0
  183.5400  176.1210  137.2710 C   0  0  0  0  0  3  0  0  0  0  0  0
  184.7050  175.6690  136.6450 C   0  0  0  0  0  3  0  0  0  0  0  0
  184.7810  177.9480  138.2610 C   0  0  0  0  0  3  0  0  0  0  0  0
  183.5750  177.2630  138.0840 C   0  0  0  0  0  0  0  0  0  0  0  0
  185.9540  177.5010  137.6360 C   0  0  0  0  0  0  0  0  0  0  0  0
  185.9070  176.3570  136.8260 C   0  0  0  0  0  3  0  0  0  0  0  0
  189.1110  178.9560  138.6110 N   0  0  0  0  0  0  0  0  0  0  0  0
  187.2200  178.2290  137.8140 C   0  0  0  0  0  0  0  0  0  0  0  0
  188.8430  179.5700  137.4680 N   0  0  0  0  0  0  0  0  0  0  0  0
  188.1050  178.0960  138.8650 C   0  0  0  0  0  2  0  0  0  0  0  0
  187.6970  179.1490  136.9590 N   0  0  0  0  0  0  0  0  0  0  0  0
  1  4  1  0  0  0  0
  2  5  1  0  0  0  0
  3  1  2  0  0  0  0
  5  9  1  0  0  0  0
  5  4  2  0  0  0  0
  6  3  1  0  0  0  0
  7  2  2  0  0  0  0
  7  3  1  0  0  0  0
  9  8  2  0  0  0  0
 11 10  2  0  0  0  0
 12  8  1  6  0  0  0
 12 10  1  0  0  0  0
 13 14  2  0  0  0  0
 13 12  1  0  0  0  0
 14 11  1  0  0  0  0
 15 17  2  0  0  0  0
 16 17  1  0  0  0  0
 17 14  1  0  0  0  0
 18 19  1  0  0  0  0
 19 13  1  0  0  0  0
 20  7  1  0  0  0  0
 21 20  1  0  0  0  0
 22 21  1  0  0  0  0
 23 26  1  0  0  0  0
 24 28  1  0  0  0  0
 24 23  2  0  0  0  0
 26 25  2  0  0  0  0
 26 22  1  0  0  0  0
 27 30  1  0  0  0  0
 27 25  1  0  0  0  0
 28 27  2  0  0  0  0
 29 32  1  0  0  0  0
 30 32  1  0  0  0  0
 31 29  2  0  0  0  0
 33 31  1  0  0  0  0
 33 30  2  0  0  0  0
M  END
>  <MODEL>
9

>  <REMARK>
 VINA RESULT:      -8.2      3.169      7.624
  Name = 
  9 active torsions:
  status: ('A' for Active; 'I' for Inactive)
    1  A    between atoms: C_4  and  C_24
    2  A    between atoms: C_5  and  C_21
    3  A    between atoms: C_9  and  C_10
    4  A    between atoms: C_17  and  C_25
    5  A    between atoms: C_20  and  N_32
    6  A    between atoms: C_26  and  C_30
    7  A    between atoms: O_28  and  C_31
    8  A    between atoms: O_28  and  C_33
    9  A    between atoms: N_32  and  C_33
                            x       y       z     vdW  Elec       q    Type
                         _______ _______ _______ _____ _____    ______ ____

>  <TORSDO>
F 9

$$$$
