=
 OpenBabel10222421033D

 38 40  0  0  1  0  0  0  0  0999 V2000
  188.3830  177.7900  142.7870 C   0  0  0  0  0  0  0  0  0  0  0  0
  187.8710  177.6740  145.1770 C   0  0  0  0  0  0  0  0  0  0  0  0
  187.3060  177.0310  147.4680 O   0  0  0  0  0  1  0  0  0  0  0  0
  190.1800  177.7610  144.4090 C   0  0  0  0  0  3  0  0  0  0  0  0
  185.0110  178.5260  144.1680 C   0  0  0  0  0  0  0  0  0  0  0  0
  189.8250  177.7410  146.8380 C   0  0  0  0  0  1  0  0  0  0  0  0
  186.8160  177.4940  146.2460 C   0  0  1  0  0  3  0  0  0  0  0  0
  189.7490  177.7730  143.0860 C   0  0  0  0  0  3  0  0  0  0  0  0
  185.9950  177.9330  143.4650 C   0  0  0  0  0  3  0  0  0  0  0  0
  187.4310  177.7880  143.8340 C   0  0  0  0  0  0  0  0  0  0  0  0
  189.2620  177.7180  145.4560 C   0  0  0  0  0  0  0  0  0  0  0  0
  185.2040  179.1740  145.4800 C   0  0  0  0  0  3  0  0  0  0  0  0
  186.0310  178.7400  146.4270 C   0  0  0  0  0  3  0  0  0  0  0  0
  183.4180  178.6350  142.2780 C   0  0  0  0  0  3  0  0  0  0  0  0
  183.6660  178.6540  143.5890 C   0  0  0  0  0  3  0  0  0  0  0  0
  181.1960  179.3550  142.4100 O   0  0  0  0  0  0  0  0  0  0  0  0
  182.0620  178.7580  141.7150 C   0  0  0  0  0  0  0  0  0  0  0  0
  181.8680  178.1720  137.8860 C   0  0  0  0  0  1  0  0  0  0  0  0
  182.1360  178.8460  139.1530 N   0  0  0  0  0  0  0  0  0  0  0  0
  181.6940  178.2270  140.3750 C   0  0  0  0  0  0  0  0  0  0  0  0
  180.9840  177.1850  140.3080 O   0  0  0  0  0  0  0  0  0  0  0  0
  182.7530  180.1740  139.1540 C   0  0  0  0  0  2  0  0  0  0  0  0
  184.1460  180.0920  139.1200 O   0  0  0  0  0  1  0  0  0  0  0  0
  187.9460  177.7740  141.3460 C   0  0  1  0  0  3  0  0  0  0  0  0
  186.8330  178.7750  141.0820 C   0  0  0  0  0  1  0  0  0  0  0  0
  189.0810  178.0610  140.4810 N   0  0  0  0  0  2  0  0  0  0  0  0
  190.6660  176.4300  139.6100 C   0  0  0  0  0  1  0  0  0  0  0  0
  189.2370  176.9480  139.5550 C   0  0  2  0  0  3  0  0  0  0  0  0
  187.0300  178.5920  137.6300 N   0  0  0  0  0  2  0  0  0  0  0  0
  189.0800  179.5110  137.1350 C   0  0  0  0  0  1  0  0  0  0  0  0
  188.3380  178.7480  138.1240 N   0  0  0  0  0  0  0  0  0  0  0  0
  187.9540  175.0380  137.3400 C   0  0  0  0  0  1  0  0  0  0  0  0
  188.8890  177.3820  138.1310 C   0  0  2  0  0  3  0  0  0  0  0  0
  186.7550  177.2460  137.3110 C   0  0  0  0  0  0  0  0  0  0  0  0
  187.8140  176.5060  137.5660 C   0  0  0  0  0  0  0  0  0  0  0  0
  184.6340  176.2290  137.5800 O   0  0  0  0  0  0  0  0  0  0  0  0
  185.0800  176.9900  135.4410 N   0  0  0  0  0  1  0  0  0  0  0  0
  185.4440  176.8010  136.8020 C   0  0  0  0  0  0  0  0  0  0  0  0
  1  8  2  0  0  0  0
  1 10  1  0  0  0  0
  2 11  1  0  0  0  0
  2  7  1  0  0  0  0
  4 11  2  0  0  0  0
  5 12  1  0  0  0  0
  7 13  1  0  0  0  0
  7  3  1  1  0  0  0
  8  4  1  0  0  0  0
  9 10  1  0  0  0  0
  9  5  2  0  0  0  0
 10  2  2  0  0  0  0
 11  6  1  0  0  0  0
 12 13  2  0  0  0  0
 14 15  2  0  0  0  0
 15  5  1  0  0  0  0
 17 14  1  0  0  0  0
 17 16  2  0  0  0  0
 18 19  1  0  0  0  0
 19 22  1  0  0  0  0
 19 20  1  0  0  0  0
 20 17  1  0  0  0  0
 21 20  2  0  0  0  0
 23 22  1  0  0  0  0
 24 25  1  1  0  0  0
 24  1  1  0  0  0  0
 26 24  1  0  0  0  0
 28 27  1  6  0  0  0
 28 26  1  0  0  0  0
 29 31  1  0  0  0  0
 30 31  1  0  0  0  0
 31 33  1  0  0  0  0
 32 35  1  0  0  0  0
 33 28  1  1  0  0  0
 34 35  2  0  0  0  0
 34 29  1  0  0  0  0
 35 33  1  0  0  0  0
 37 38  1  0  0  0  0
 38 34  1  0  0  0  0
 38 36  2  0  0  0  0
M  END
>  <MODEL>
1

>  <REMARK>
 VINA RESULT:      -9.2      0.000      0.000
  Name = 
  9 active torsions:
  status: ('A' for Active; 'I' for Inactive)
    1  A    between atoms: C_2  and  C_26
    2  A    between atoms: C_3  and  C_4
    3  A    between atoms: C_3  and  N_34
    4  A    between atoms: C_7  and  N_11
    5  A    between atoms: C_19  and  C_20
    6  A    between atoms: C_21  and  C_26
    7  A    between atoms: C_23  and  C_37
    8  A    between atoms: N_34  and  C_37
    9  A    between atoms: C_35  and  C_36
                            x       y       z     vdW  Elec       q    Type
                         _______ _______ _______ _____ _____    ______ ____

>  <TORSDO>
F 9

$$$$
=
 OpenBabel10222421033D

 38 40  0  0  1  0  0  0  0  0999 V2000
  185.1710  178.6490  144.4500 C   0  0  0  0  0  0  0  0  0  0  0  0
  183.8480  178.3190  142.4180 C   0  0  0  0  0  0  0  0  0  0  0  0
  182.5700  177.4680  140.5150 O   0  0  0  0  0  1  0  0  0  0  0  0
  182.7670  178.9200  144.5160 C   0  0  0  0  0  3  0  0  0  0  0  0
  186.6700  178.6030  141.0490 C   0  0  0  0  0  0  0  0  0  0  0  0
  181.3170  178.7150  142.5450 C   0  0  0  0  0  1  0  0  0  0  0  0
  183.8240  177.8740  140.9730 C   0  0  1  0  0  3  0  0  0  0  0  0
  183.9970  178.9030  145.1650 C   0  0  0  0  0  3  0  0  0  0  0  0
  186.3980  178.2600  142.3230 C   0  0  0  0  0  3  0  0  0  0  0  0
  185.1120  178.4010  143.0580 C   0  0  0  0  0  0  0  0  0  0  0  0
  182.6770  178.6400  143.1540 C   0  0  0  0  0  0  0  0  0  0  0  0
  185.6940  179.2160  140.1280 C   0  0  0  0  0  3  0  0  0  0  0  0
  184.3970  178.9200  140.0900 C   0  0  0  0  0  3  0  0  0  0  0  0
  188.6250  177.3050  140.2620 C   0  0  0  0  0  3  0  0  0  0  0  0
  188.0390  178.4750  140.5270 C   0  0  0  0  0  3  0  0  0  0  0  0
  190.9060  177.8250  140.3370 O   0  0  0  0  0  0  0  0  0  0  0  0
  189.9960  177.1970  139.7320 C   0  0  0  0  0  0  0  0  0  0  0  0
  190.5760  176.0180  136.0820 C   0  0  0  0  0  1  0  0  0  0  0  0
  190.0650  176.8100  137.1970 N   0  0  0  0  0  0  0  0  0  0  0  0
  190.3370  176.3720  138.5410 C   0  0  0  0  0  0  0  0  0  0  0  0
  190.9000  175.2560  138.7160 O   0  0  0  0  0  0  0  0  0  0  0  0
  189.2100  177.9690  136.9330 C   0  0  0  0  0  2  0  0  0  0  0  0
  189.0510  178.1880  135.5640 O   0  0  0  0  0  1  0  0  0  0  0  0
  186.4850  178.6090  145.1860 C   0  0  1  0  0  3  0  0  0  0  0  0
  186.3180  178.9480  146.6590 C   0  0  0  0  0  1  0  0  0  0  0  0
  187.0890  177.2910  145.0500 N   0  0  0  0  0  2  0  0  0  0  0  0
  188.6680  176.0360  143.6850 C   0  0  0  0  0  1  0  0  0  0  0  0
  188.2460  177.4130  144.1740 C   0  0  2  0  0  3  0  0  0  0  0  0
  191.5760  177.4860  144.5980 N   0  0  0  0  0  2  0  0  0  0  0  0
  190.9750  179.6460  144.0840 C   0  0  0  0  0  1  0  0  0  0  0  0
  190.5590  178.2560  144.0050 N   0  0  0  0  0  0  0  0  0  0  0  0
  189.0580  176.8390  147.2090 C   0  0  0  0  0  1  0  0  0  0  0  0
  189.4050  178.0900  144.9050 C   0  0  2  0  0  3  0  0  0  0  0  0
  191.1380  176.8890  145.7990 C   0  0  0  0  0  0  0  0  0  0  0  0
  189.8860  177.2280  146.0310 C   0  0  0  0  0  0  0  0  0  0  0  0
  192.4270  174.9280  146.1090 O   0  0  0  0  0  0  0  0  0  0  0  0
  192.3400  176.3320  147.9470 N   0  0  0  0  0  1  0  0  0  0  0  0
  191.9980  176.0040  146.6070 C   0  0  0  0  0  0  0  0  0  0  0  0
  1  8  1  0  0  0  0
  1 24  1  0  0  0  0
  2 10  1  0  0  0  0
  2 11  2  0  0  0  0
  4  8  2  0  0  0  0
  5  9  2  0  0  0  0
  6 11  1  0  0  0  0
  7  3  1  6  0  0  0
  7  2  1  0  0  0  0
  9 10  1  0  0  0  0
 10  1  2  0  0  0  0
 11  4  1  0  0  0  0
 12  5  1  0  0  0  0
 13 12  2  0  0  0  0
 13  7  1  0  0  0  0
 14 15  2  0  0  0  0
 15  5  1  0  0  0  0
 17 14  1  0  0  0  0
 17 16  2  0  0  0  0
 18 19  1  0  0  0  0
 19 20  1  0  0  0  0
 20 21  2  0  0  0  0
 20 17  1  0  0  0  0
 22 19  1  0  0  0  0
 23 22  1  0  0  0  0
 24 25  1  1  0  0  0
 26 24  1  0  0  0  0
 28 27  1  1  0  0  0
 28 26  1  0  0  0  0
 29 34  1  0  0  0  0
 31 30  1  0  0  0  0
 31 29  1  0  0  0  0
 31 33  1  0  0  0  0
 33 28  1  6  0  0  0
 33 35  1  0  0  0  0
 34 35  2  0  0  0  0
 34 38  1  0  0  0  0
 35 32  1  0  0  0  0
 36 38  2  0  0  0  0
 38 37  1  0  0  0  0
M  END
>  <MODEL>
2

>  <REMARK>
 VINA RESULT:      -8.9      3.049      7.642
  Name = 
  9 active torsions:
  status: ('A' for Active; 'I' for Inactive)
    1  A    between atoms: C_2  and  C_26
    2  A    between atoms: C_3  and  C_4
    3  A    between atoms: C_3  and  N_34
    4  A    between atoms: C_7  and  N_11
    5  A    between atoms: C_19  and  C_20
    6  A    between atoms: C_21  and  C_26
    7  A    between atoms: C_23  and  C_37
    8  A    between atoms: N_34  and  C_37
    9  A    between atoms: C_35  and  C_36
                            x       y       z     vdW  Elec       q    Type
                         _______ _______ _______ _____ _____    ______ ____

>  <TORSDO>
F 9

$$$$
=
 OpenBabel10222421033D

 38 40  0  0  1  0  0  0  0  0999 V2000
  185.0840  178.2990  142.8090 C   0  0  0  0  0  0  0  0  0  0  0  0
  182.7460  178.5190  142.1210 C   0  0  0  0  0  0  0  0  0  0  0  0
  180.4010  178.2060  141.5020 O   0  0  0  0  0  1  0  0  0  0  0  0
  183.4090  178.9770  144.4200 C   0  0  0  0  0  3  0  0  0  0  0  0
  184.0360  178.5040  139.2480 C   0  0  0  0  0  0  0  0  0  0  0  0
  181.0450  179.3320  143.8610 C   0  0  0  0  0  1  0  0  0  0  0  0
  181.7120  178.3100  141.0370 C   0  0  1  0  0  3  0  0  0  0  0  0
  184.7250  178.6450  144.1150 C   0  0  0  0  0  3  0  0  0  0  0  0
  184.5590  178.0260  140.3940 C   0  0  0  0  0  3  0  0  0  0  0  0
  184.1040  178.2790  141.7890 C   0  0  0  0  0  0  0  0  0  0  0  0
  182.4180  178.9270  143.4420 C   0  0  0  0  0  0  0  0  0  0  0  0
  182.8750  179.4120  139.1810 C   0  0  0  0  0  3  0  0  0  0  0  0
  181.8230  179.3590  139.9940 C   0  0  0  0  0  3  0  0  0  0  0  0
  185.8750  177.6100  137.8530 C   0  0  0  0  0  3  0  0  0  0  0  0
  184.6910  178.2170  137.9630 C   0  0  0  0  0  3  0  0  0  0  0  0
  185.8550  177.5890  135.5140 O   0  0  0  0  0  0  0  0  0  0  0  0
  186.5120  177.3230  136.5560 C   0  0  0  0  0  0  0  0  0  0  0  0
  190.3470  176.8160  136.8340 C   0  0  0  0  0  1  0  0  0  0  0  0
  189.0570  177.4980  136.8270 N   0  0  0  0  0  0  0  0  0  0  0  0
  187.8840  176.7590  136.4390 C   0  0  0  0  0  0  0  0  0  0  0  0
  188.0220  175.5830  136.0010 O   0  0  0  0  0  0  0  0  0  0  0  0
  188.9910  178.9320  137.1150 C   0  0  0  0  0  2  0  0  0  0  0  0
  189.0380  179.1820  138.4870 O   0  0  0  0  0  1  0  0  0  0  0  0
  186.5110  177.9160  142.5160 C   0  0  1  0  0  3  0  0  0  0  0  0
  187.1950  178.9330  141.6150 C   0  0  0  0  0  1  0  0  0  0  0  0
  187.2540  177.7840  143.7610 N   0  0  0  0  0  2  0  0  0  0  0  0
  188.9130  176.0260  143.4690 C   0  0  0  0  0  1  0  0  0  0  0  0
  188.6480  177.5230  143.4290 C   0  0  2  0  0  3  0  0  0  0  0  0
  191.7880  177.7530  144.5960 N   0  0  0  0  0  2  0  0  0  0  0  0
  191.2130  179.8870  143.9560 C   0  0  0  0  0  1  0  0  0  0  0  0
  190.8950  178.4790  143.7860 N   0  0  0  0  0  0  0  0  0  0  0  0
  188.7810  176.9590  146.5700 C   0  0  0  0  0  1  0  0  0  0  0  0
  189.5760  178.2470  144.4020 C   0  0  2  0  0  3  0  0  0  0  0  0
  191.1200  177.1230  145.6670 C   0  0  0  0  0  0  0  0  0  0  0  0
  189.8330  177.4000  145.6090 C   0  0  0  0  0  0  0  0  0  0  0  0
  192.1950  175.1180  146.3170 O   0  0  0  0  0  0  0  0  0  0  0  0
  192.0590  176.7260  147.9760 N   0  0  0  0  0  1  0  0  0  0  0  0
  191.8180  176.2730  146.6500 C   0  0  0  0  0  0  0  0  0  0  0  0
  1  8  1  0  0  0  0
  2 11  2  0  0  0  0
  5  9  2  0  0  0  0
  7  3  1  1  0  0  0
  7  2  1  0  0  0  0
  8  4  2  0  0  0  0
  9 10  1  0  0  0  0
 10  2  1  0  0  0  0
 10  1  2  0  0  0  0
 11  6  1  0  0  0  0
 11  4  1  0  0  0  0
 12  5  1  0  0  0  0
 12 13  2  0  0  0  0
 13  7  1  0  0  0  0
 14 15  2  0  0  0  0
 15  5  1  0  0  0  0
 16 17  2  0  0  0  0
 17 14  1  0  0  0  0
 19 18  1  0  0  0  0
 19 22  1  0  0  0  0
 20 17  1  0  0  0  0
 20 19  1  0  0  0  0
 21 20  2  0  0  0  0
 22 23  1  0  0  0  0
 24 25  1  6  0  0  0
 24  1  1  0  0  0  0
 24 26  1  0  0  0  0
 28 27  1  1  0  0  0
 28 26  1  0  0  0  0
 29 34  1  0  0  0  0
 31 30  1  0  0  0  0
 31 33  1  0  0  0  0
 31 29  1  0  0  0  0
 33 28  1  6  0  0  0
 33 35  1  0  0  0  0
 34 38  1  0  0  0  0
 35 34  2  0  0  0  0
 35 32  1  0  0  0  0
 36 38  2  0  0  0  0
 38 37  1  0  0  0  0
M  END
>  <MODEL>
3

>  <REMARK>
 VINA RESULT:      -8.6      2.621      7.337
  Name = 
  9 active torsions:
  status: ('A' for Active; 'I' for Inactive)
    1  A    between atoms: C_2  and  C_26
    2  A    between atoms: C_3  and  C_4
    3  A    between atoms: C_3  and  N_34
    4  A    between atoms: C_7  and  N_11
    5  A    between atoms: C_19  and  C_20
    6  A    between atoms: C_21  and  C_26
    7  A    between atoms: C_23  and  C_37
    8  A    between atoms: N_34  and  C_37
    9  A    between atoms: C_35  and  C_36
                            x       y       z     vdW  Elec       q    Type
                         _______ _______ _______ _____ _____    ______ ____

>  <TORSDO>
F 9

$$$$
=
 OpenBabel10222421033D

 38 40  0  0  1  0  0  0  0  0999 V2000
  185.5210  178.6490  144.1220 C   0  0  0  0  0  0  0  0  0  0  0  0
  187.6410  177.9440  145.1210 C   0  0  0  0  0  0  0  0  0  0  0  0
  189.8710  177.7650  146.1080 O   0  0  0  0  0  1  0  0  0  0  0  0
  185.6520  178.2170  146.5000 C   0  0  0  0  0  3  0  0  0  0  0  0
  188.3670  177.3510  142.1140 C   0  0  0  0  0  0  0  0  0  0  0  0
  187.6780  177.4140  147.6300 C   0  0  0  0  0  1  0  0  0  0  0  0
  189.1230  177.7130  144.9310 C   0  0  1  0  0  3  0  0  0  0  0  0
  184.9250  178.6250  145.3870 C   0  0  0  0  0  3  0  0  0  0  0  0
  187.4230  178.1860  142.5890 C   0  0  0  0  0  3  0  0  0  0  0  0
  186.8740  178.2620  143.9710 C   0  0  0  0  0  0  0  0  0  0  0  0
  186.9960  177.8690  146.3840 C   0  0  0  0  0  0  0  0  0  0  0  0
  189.0390  176.3130  142.9200 C   0  0  0  0  0  3  0  0  0  0  0  0
  189.3700  176.4440  144.2020 C   0  0  0  0  0  3  0  0  0  0  0  0
  188.7120  178.4660  139.9320 C   0  0  0  0  0  3  0  0  0  0  0  0
  188.7100  177.3630  140.6850 C   0  0  0  0  0  3  0  0  0  0  0  0
  188.9330  179.5400  137.8650 O   0  0  0  0  0  0  0  0  0  0  0  0
  189.0670  178.4600  138.5020 C   0  0  0  0  0  0  0  0  0  0  0  0
  189.3280  175.2800  136.2960 C   0  0  0  0  0  1  0  0  0  0  0  0
  188.7240  176.3480  137.0870 N   0  0  0  0  0  0  0  0  0  0  0  0
  189.5850  177.2520  137.8040 C   0  0  0  0  0  0  0  0  0  0  0  0
  190.8260  177.0220  137.8280 O   0  0  0  0  0  0  0  0  0  0  0  0
  187.2670  176.4220  137.2170 C   0  0  0  0  0  2  0  0  0  0  0  0
  186.7000  177.1900  136.1990 O   0  0  0  0  0  1  0  0  0  0  0  0
  184.7170  179.1230  142.9400 C   0  0  1  0  0  3  0  0  0  0  0  0
  185.5970  179.3870  141.7280 C   0  0  0  0  0  1  0  0  0  0  0  0
  183.7000  178.1370  142.6050 N   0  0  0  0  0  2  0  0  0  0  0  0
  181.5090  178.6190  143.5520 C   0  0  0  0  0  1  0  0  0  0  0  0
  182.4470  178.8420  142.3750 C   0  0  2  0  0  3  0  0  0  0  0  0
  182.7490  178.6340  139.0370 N   0  0  0  0  0  2  0  0  0  0  0  0
  182.3200  176.4890  139.7490 C   0  0  0  0  0  1  0  0  0  0  0  0
  182.7970  177.7970  140.1670 N   0  0  0  0  0  0  0  0  0  0  0  0
  180.0630  180.3550  140.8810 C   0  0  0  0  0  1  0  0  0  0  0  0
  181.7900  178.3620  141.0810 C   0  0  2  0  0  3  0  0  0  0  0  0
  181.7740  179.6440  139.1840 C   0  0  0  0  0  0  0  0  0  0  0  0
  181.1750  179.5140  140.3490 C   0  0  0  0  0  0  0  0  0  0  0  0
  181.9060  181.8630  138.3700 O   0  0  0  0  0  0  0  0  0  0  0  0
  180.8870  180.3620  136.9330 N   0  0  0  0  0  1  0  0  0  0  0  0
  181.5390  180.6760  138.1570 C   0  0  0  0  0  0  0  0  0  0  0  0
  1  8  1  0  0  0  0
  2 11  2  0  0  0  0
  5  9  2  0  0  0  0
  5 12  1  0  0  0  0
  7  2  1  0  0  0  0
  7  3  1  1  0  0  0
  8  4  2  0  0  0  0
  9 10  1  0  0  0  0
 10  1  2  0  0  0  0
 10  2  1  0  0  0  0
 11  4  1  0  0  0  0
 11  6  1  0  0  0  0
 12 13  2  0  0  0  0
 13  7  1  0  0  0  0
 14 15  2  0  0  0  0
 15  5  1  0  0  0  0
 16 17  2  0  0  0  0
 17 14  1  0  0  0  0
 18 19  1  0  0  0  0
 19 22  1  0  0  0  0
 19 20  1  0  0  0  0
 20 21  2  0  0  0  0
 20 17  1  0  0  0  0
 23 22  1  0  0  0  0
 24 25  1  6  0  0  0
 24  1  1  0  0  0  0
 26 24  1  0  0  0  0
 28 26  1  0  0  0  0
 28 27  1  1  0  0  0
 29 34  1  0  0  0  0
 29 31  1  0  0  0  0
 30 31  1  0  0  0  0
 31 33  1  0  0  0  0
 33 28  1  1  0  0  0
 34 35  2  0  0  0  0
 35 32  1  0  0  0  0
 35 33  1  0  0  0  0
 37 38  1  0  0  0  0
 38 36  2  0  0  0  0
 38 34  1  0  0  0  0
M  END
>  <MODEL>
4

>  <REMARK>
 VINA RESULT:      -8.4      2.110      6.111
  Name = 
  9 active torsions:
  status: ('A' for Active; 'I' for Inactive)
    1  A    between atoms: C_2  and  C_26
    2  A    between atoms: C_3  and  C_4
    3  A    between atoms: C_3  and  N_34
    4  A    between atoms: C_7  and  N_11
    5  A    between atoms: C_19  and  C_20
    6  A    between atoms: C_21  and  C_26
    7  A    between atoms: C_23  and  C_37
    8  A    between atoms: N_34  and  C_37
    9  A    between atoms: C_35  and  C_36
                            x       y       z     vdW  Elec       q    Type
                         _______ _______ _______ _____ _____    ______ ____

>  <TORSDO>
F 9

$$$$
=
 OpenBabel10222421033D

 38 40  0  0  1  0  0  0  0  0999 V2000
  185.2660  178.6130  143.7270 C   0  0  0  0  0  0  0  0  0  0  0  0
  187.2840  178.0240  144.9810 C   0  0  0  0  0  0  0  0  0  0  0  0
  189.3980  177.9640  146.2080 O   0  0  0  0  0  1  0  0  0  0  0  0
  185.1510  178.2980  146.1250 C   0  0  0  0  0  3  0  0  0  0  0  0
  188.3460  177.3130  142.1030 C   0  0  0  0  0  0  0  0  0  0  0  0
  187.0640  177.6160  147.5030 C   0  0  0  0  0  1  0  0  0  0  0  0
  188.7840  177.8320  144.9620 C   0  0  1  0  0  3  0  0  0  0  0  0
  184.5380  178.6300  144.9210 C   0  0  0  0  0  3  0  0  0  0  0  0
  187.3350  178.1390  142.4310 C   0  0  0  0  0  3  0  0  0  0  0  0
  186.6370  178.2630  143.7410 C   0  0  0  0  0  0  0  0  0  0  0  0
  186.5090  177.9890  146.1700 C   0  0  0  0  0  0  0  0  0  0  0  0
  188.9550  176.3370  143.0270 C   0  0  0  0  0  3  0  0  0  0  0  0
  189.1420  176.5390  144.3290 C   0  0  0  0  0  3  0  0  0  0  0  0
  188.7990  178.3080  139.8820 C   0  0  0  0  0  3  0  0  0  0  0  0
  188.8420  177.2680  140.7190 C   0  0  0  0  0  3  0  0  0  0  0  0
  189.0350  179.2130  137.7370 O   0  0  0  0  0  0  0  0  0  0  0  0
  189.3080  178.2480  138.5010 C   0  0  0  0  0  0  0  0  0  0  0  0
  190.4670  175.0520  136.6340 C   0  0  0  0  0  1  0  0  0  0  0  0
  189.5690  176.0340  137.2300 N   0  0  0  0  0  0  0  0  0  0  0  0
  190.1320  177.1170  137.9940 C   0  0  0  0  0  0  0  0  0  0  0  0
  191.3730  177.1170  138.2270 O   0  0  0  0  0  0  0  0  0  0  0  0
  188.1190  175.8500  137.1290 C   0  0  0  0  0  2  0  0  0  0  0  0
  187.6220  176.3480  135.9240 O   0  0  0  0  0  1  0  0  0  0  0  0
  184.5820  179.0040  142.4440 C   0  0  1  0  0  3  0  0  0  0  0  0
  185.5730  179.1630  141.3010 C   0  0  0  0  0  1  0  0  0  0  0  0
  183.5810  178.0080  142.0920 N   0  0  0  0  0  2  0  0  0  0  0  0
  181.2810  178.6280  142.5960 C   0  0  0  0  0  1  0  0  0  0  0  0
  182.4100  178.7060  141.5800 C   0  0  2  0  0  3  0  0  0  0  0  0
  183.0800  176.4030  139.2300 N   0  0  0  0  0  2  0  0  0  0  0  0
  180.8920  176.0400  139.8380 C   0  0  0  0  0  1  0  0  0  0  0  0
  182.1470  176.6400  140.2560 N   0  0  0  0  0  0  0  0  0  0  0  0
  182.8970  180.0480  138.7230 C   0  0  0  0  0  1  0  0  0  0  0  0
  181.9630  178.1010  140.2500 C   0  0  2  0  0  3  0  0  0  0  0  0
  183.4540  177.6020  138.5850 C   0  0  0  0  0  0  0  0  0  0  0  0
  182.8130  178.6150  139.1300 C   0  0  0  0  0  0  0  0  0  0  0  0
  185.5780  178.1510  137.6960 O   0  0  0  0  0  0  0  0  0  0  0  0
  184.1350  177.1290  136.2010 N   0  0  0  0  0  1  0  0  0  0  0  0
  184.4430  177.6410  137.4920 C   0  0  0  0  0  0  0  0  0  0  0  0
  1 10  2  0  0  0  0
  1  8  1  0  0  0  0
  2 11  2  0  0  0  0
  4 11  1  0  0  0  0
  5  9  2  0  0  0  0
  5 12  1  0  0  0  0
  7  2  1  0  0  0  0
  7  3  1  1  0  0  0
  8  4  2  0  0  0  0
  9 10  1  0  0  0  0
 10  2  1  0  0  0  0
 11  6  1  0  0  0  0
 12 13  2  0  0  0  0
 13  7  1  0  0  0  0
 14 15  2  0  0  0  0
 15  5  1  0  0  0  0
 16 17  2  0  0  0  0
 17 14  1  0  0  0  0
 18 19  1  0  0  0  0
 19 20  1  0  0  0  0
 20 21  2  0  0  0  0
 20 17  1  0  0  0  0
 22 19  1  0  0  0  0
 23 22  1  0  0  0  0
 24 25  1  6  0  0  0
 24  1  1  0  0  0  0
 26 24  1  0  0  0  0
 28 26  1  0  0  0  0
 28 27  1  1  0  0  0
 29 31  1  0  0  0  0
 30 31  1  0  0  0  0
 32 35  1  0  0  0  0
 33 31  1  0  0  0  0
 33 28  1  1  0  0  0
 34 35  2  0  0  0  0
 34 29  1  0  0  0  0
 35 33  1  0  0  0  0
 37 38  1  0  0  0  0
 38 36  2  0  0  0  0
 38 34  1  0  0  0  0
M  END
>  <MODEL>
5

>  <REMARK>
 VINA RESULT:      -8.3      2.162      5.929
  Name = 
  9 active torsions:
  status: ('A' for Active; 'I' for Inactive)
    1  A    between atoms: C_2  and  C_26
    2  A    between atoms: C_3  and  C_4
    3  A    between atoms: C_3  and  N_34
    4  A    between atoms: C_7  and  N_11
    5  A    between atoms: C_19  and  C_20
    6  A    between atoms: C_21  and  C_26
    7  A    between atoms: C_23  and  C_37
    8  A    between atoms: N_34  and  C_37
    9  A    between atoms: C_35  and  C_36
                            x       y       z     vdW  Elec       q    Type
                         _______ _______ _______ _____ _____    ______ ____

>  <TORSDO>
F 9

$$$$
=
 OpenBabel10222421033D

 38 40  0  0  1  0  0  0  0  0999 V2000
  188.4150  177.8670  142.7520 C   0  0  0  0  0  0  0  0  0  0  0  0
  187.6460  177.7480  145.0720 C   0  0  0  0  0  0  0  0  0  0  0  0
  186.8740  177.0980  147.3000 O   0  0  0  0  0  1  0  0  0  0  0  0
  190.0150  177.9980  144.5640 C   0  0  0  0  0  3  0  0  0  0  0  0
  184.8640  178.3670  143.7320 C   0  0  0  0  0  0  0  0  0  0  0  0
  189.3900  177.9860  146.9380 C   0  0  0  0  0  1  0  0  0  0  0  0
  186.4930  177.5040  146.0210 C   0  0  1  0  0  3  0  0  0  0  0  0
  189.7350  177.9580  143.2020 C   0  0  0  0  0  3  0  0  0  0  0  0
  185.9610  177.8400  143.1560 C   0  0  0  0  0  3  0  0  0  0  0  0
  187.3530  177.8100  143.6850 C   0  0  0  0  0  0  0  0  0  0  0  0
  188.9900  177.9010  145.5030 C   0  0  0  0  0  0  0  0  0  0  0  0
  184.8590  179.0470  145.0410 C   0  0  0  0  0  3  0  0  0  0  0  0
  185.6040  178.6900  146.0850 C   0  0  0  0  0  3  0  0  0  0  0  0
  183.4860  178.2520  141.6790 C   0  0  0  0  0  3  0  0  0  0  0  0
  183.5870  178.3860  143.0030 C   0  0  0  0  0  3  0  0  0  0  0  0
  181.9260  177.2750  140.2350 O   0  0  0  0  0  0  0  0  0  0  0  0
  182.1960  178.2650  140.9670 C   0  0  0  0  0  0  0  0  0  0  0  0
  179.4170  180.6210  142.2970 C   0  0  0  0  0  1  0  0  0  0  0  0
  180.2320  179.4200  142.1450 N   0  0  0  0  0  0  0  0  0  0  0  0
  181.2160  179.3770  141.0950 C   0  0  0  0  0  0  0  0  0  0  0  0
  181.2610  180.3260  140.2640 O   0  0  0  0  0  0  0  0  0  0  0  0
  179.9710  178.2530  142.9900 C   0  0  0  0  0  2  0  0  0  0  0  0
  180.1430  178.5500  144.3430 O   0  0  0  0  0  1  0  0  0  0  0  0
  188.1460  177.7980  141.2720 C   0  0  1  0  0  3  0  0  0  0  0  0
  186.9340  178.6280  140.8780 C   0  0  0  0  0  1  0  0  0  0  0  0
  189.3150  178.2530  140.5340 N   0  0  0  0  0  2  0  0  0  0  0  0
  191.3050  176.9510  140.0100 C   0  0  0  0  0  1  0  0  0  0  0  0
  189.8180  177.1350  139.7490 C   0  0  2  0  0  3  0  0  0  0  0  0
  187.4960  177.7070  137.3910 N   0  0  0  0  0  2  0  0  0  0  0  0
  189.0550  179.3790  137.1350 C   0  0  0  0  0  1  0  0  0  0  0  0
  188.5280  178.3910  138.0600 N   0  0  0  0  0  0  0  0  0  0  0  0
  189.8050  174.8390  137.5280 C   0  0  0  0  0  1  0  0  0  0  0  0
  189.5710  177.3700  138.2590 C   0  0  2  0  0  3  0  0  0  0  0  0
  187.8430  176.3610  137.1440 C   0  0  0  0  0  0  0  0  0  0  0  0
  189.0510  176.1240  137.6120 C   0  0  0  0  0  0  0  0  0  0  0  0
  186.0440  174.8240  137.1610 O   0  0  0  0  0  0  0  0  0  0  0  0
  187.0340  175.1350  135.0920 N   0  0  0  0  0  1  0  0  0  0  0  0
  186.9280  175.4130  136.4820 C   0  0  0  0  0  0  0  0  0  0  0  0
  1  8  2  0  0  0  0
  1 10  1  0  0  0  0
  2 11  1  0  0  0  0
  2  7  1  0  0  0  0
  4 11  2  0  0  0  0
  5 12  1  0  0  0  0
  7 13  1  0  0  0  0
  7  3  1  1  0  0  0
  8  4  1  0  0  0  0
  9 10  1  0  0  0  0
  9  5  2  0  0  0  0
 10  2  2  0  0  0  0
 11  6  1  0  0  0  0
 12 13  2  0  0  0  0
 14 15  2  0  0  0  0
 15  5  1  0  0  0  0
 16 17  2  0  0  0  0
 17 20  1  0  0  0  0
 17 14  1  0  0  0  0
 19 18  1  0  0  0  0
 19 22  1  0  0  0  0
 20 19  1  0  0  0  0
 21 20  2  0  0  0  0
 22 23  1  0  0  0  0
 24 25  1  1  0  0  0
 24  1  1  0  0  0  0
 26 24  1  0  0  0  0
 28 27  1  6  0  0  0
 28 26  1  0  0  0  0
 29 31  1  0  0  0  0
 30 31  1  0  0  0  0
 31 33  1  0  0  0  0
 32 35  1  0  0  0  0
 33 28  1  1  0  0  0
 34 29  1  0  0  0  0
 34 35  2  0  0  0  0
 35 33  1  0  0  0  0
 37 38  1  0  0  0  0
 38 34  1  0  0  0  0
 38 36  2  0  0  0  0
M  END
>  <MODEL>
6

>  <REMARK>
 VINA RESULT:      -8.1      1.383      2.100
  Name = 
  9 active torsions:
  status: ('A' for Active; 'I' for Inactive)
    1  A    between atoms: C_2  and  C_26
    2  A    between atoms: C_3  and  C_4
    3  A    between atoms: C_3  and  N_34
    4  A    between atoms: C_7  and  N_11
    5  A    between atoms: C_19  and  C_20
    6  A    between atoms: C_21  and  C_26
    7  A    between atoms: C_23  and  C_37
    8  A    between atoms: N_34  and  C_37
    9  A    between atoms: C_35  and  C_36
                            x       y       z     vdW  Elec       q    Type
                         _______ _______ _______ _____ _____    ______ ____

>  <TORSDO>
F 9

$$$$
=
 OpenBabel10222421033D

 38 40  0  0  1  0  0  0  0  0999 V2000
  189.1530  177.1970  141.7190 C   0  0  0  0  0  0  0  0  0  0  0  0
  187.6290  177.7560  139.8890 C   0  0  0  0  0  0  0  0  0  0  0  0
  185.9590  177.7990  138.1030 O   0  0  0  0  0  1  0  0  0  0  0  0
  187.0490  178.2960  142.1920 C   0  0  0  0  0  3  0  0  0  0  0  0
  190.2130  177.2620  138.1570 C   0  0  0  0  0  0  0  0  0  0  0  0
  185.4610  179.0030  140.4580 C   0  0  0  0  0  1  0  0  0  0  0  0
  187.3090  177.6330  138.4160 C   0  0  1  0  0  3  0  0  0  0  0  0
  188.2330  177.7160  142.6350 C   0  0  0  0  0  3  0  0  0  0  0  0
  189.9460  176.8050  139.3950 C   0  0  0  0  0  3  0  0  0  0  0  0
  188.8800  177.2570  140.3320 C   0  0  0  0  0  0  0  0  0  0  0  0
  186.7380  178.3300  140.8340 C   0  0  0  0  0  0  0  0  0  0  0  0
  189.4650  178.3480  137.4940 C   0  0  0  0  0  3  0  0  0  0  0  0
  188.1550  178.5510  137.6140 C   0  0  0  0  0  3  0  0  0  0  0  0
  192.4990  176.3260  138.0050 C   0  0  0  0  0  3  0  0  0  0  0  0
  191.3780  176.7530  137.4190 C   0  0  0  0  0  3  0  0  0  0  0  0
  194.3660  176.6480  136.6320 O   0  0  0  0  0  0  0  0  0  0  0  0
  193.6540  175.8110  137.2490 C   0  0  0  0  0  0  0  0  0  0  0  0
  195.0590  172.3110  138.1580 C   0  0  0  0  0  1  0  0  0  0  0  0
  194.8890  173.7610  138.1730 N   0  0  0  0  0  0  0  0  0  0  0  0
  194.0100  174.3670  137.2070 C   0  0  0  0  0  0  0  0  0  0  0  0
  193.5090  173.6430  136.3020 O   0  0  0  0  0  0  0  0  0  0  0  0
  195.6840  174.5760  139.0930 C   0  0  0  0  0  2  0  0  0  0  0  0
  196.9380  174.8770  138.5600 O   0  0  0  0  0  1  0  0  0  0  0  0
  190.4130  176.5490  142.2310 C   0  0  1  0  0  3  0  0  0  0  0  0
  191.6240  177.4510  142.0530 C   0  0  0  0  0  1  0  0  0  0  0  0
  190.2580  176.2060  143.6370 N   0  0  0  0  0  2  0  0  0  0  0  0
  192.0550  174.7230  144.3430 C   0  0  0  0  0  1  0  0  0  0  0  0
  191.5820  176.1650  144.2410 C   0  0  2  0  0  3  0  0  0  0  0  0
  190.1650  176.1280  147.2850 N   0  0  0  0  0  2  0  0  0  0  0  0
  192.4300  175.9950  147.6610 C   0  0  0  0  0  1  0  0  0  0  0  0
  191.3860  175.7900  146.6720 N   0  0  0  0  0  0  0  0  0  0  0  0
  190.1810  178.9540  144.9210 C   0  0  0  0  0  1  0  0  0  0  0  0
  191.5620  176.8110  145.6250 C   0  0  2  0  0  3  0  0  0  0  0  0
  189.6020  177.2880  146.7110 C   0  0  0  0  0  0  0  0  0  0  0  0
  190.3900  177.7340  145.7540 C   0  0  0  0  0  0  0  0  0  0  0  0
  187.3480  177.9000  146.3320 O   0  0  0  0  0  0  0  0  0  0  0  0
  188.1240  178.3330  148.4690 N   0  0  0  0  0  1  0  0  0  0  0  0
  188.3070  177.8430  147.1470 C   0  0  0  0  0  0  0  0  0  0  0  0
  1 24  1  0  0  0  0
  1  8  1  0  0  0  0
  2 10  1  0  0  0  0
  2 11  2  0  0  0  0
  4  8  2  0  0  0  0
  5  9  2  0  0  0  0
  6 11  1  0  0  0  0
  7  3  1  1  0  0  0
  7  2  1  0  0  0  0
  9 10  1  0  0  0  0
 10  1  2  0  0  0  0
 11  4  1  0  0  0  0
 12 13  2  0  0  0  0
 12  5  1  0  0  0  0
 13  7  1  0  0  0  0
 15 14  2  0  0  0  0
 15  5  1  0  0  0  0
 16 17  2  0  0  0  0
 17 14  1  0  0  0  0
 18 19  1  0  0  0  0
 19 22  1  0  0  0  0
 20 17  1  0  0  0  0
 20 19  1  0  0  0  0
 21 20  2  0  0  0  0
 23 22  1  0  0  0  0
 24 25  1  1  0  0  0
 24 26  1  0  0  0  0
 26 28  1  0  0  0  0
 28 27  1  1  0  0  0
 31 29  1  0  0  0  0
 31 30  1  0  0  0  0
 32 35  1  0  0  0  0
 33 28  1  6  0  0  0
 33 35  1  0  0  0  0
 33 31  1  0  0  0  0
 34 38  1  0  0  0  0
 34 29  1  0  0  0  0
 35 34  2  0  0  0  0
 36 38  2  0  0  0  0
 38 37  1  0  0  0  0
M  END
>  <MODEL>
7

>  <REMARK>
 VINA RESULT:      -7.9      4.464      9.509
  Name = 
  9 active torsions:
  status: ('A' for Active; 'I' for Inactive)
    1  A    between atoms: C_2  and  C_26
    2  A    between atoms: C_3  and  C_4
    3  A    between atoms: C_3  and  N_34
    4  A    between atoms: C_7  and  N_11
    5  A    between atoms: C_19  and  C_20
    6  A    between atoms: C_21  and  C_26
    7  A    between atoms: C_23  and  C_37
    8  A    between atoms: N_34  and  C_37
    9  A    between atoms: C_35  and  C_36
                            x       y       z     vdW  Elec       q    Type
                         _______ _______ _______ _____ _____    ______ ____

>  <TORSDO>
F 9

$$$$
=
 OpenBabel10222421033D

 38 40  0  0  1  0  0  0  0  0999 V2000
  189.5250  177.0000  144.3990 C   0  0  0  0  0  0  0  0  0  0  0  0
  188.4900  177.5010  146.5590 C   0  0  0  0  0  0  0  0  0  0  0  0
  187.3710  177.4710  148.7330 O   0  0  0  0  0  1  0  0  0  0  0  0
  190.9080  177.2840  146.3650 C   0  0  0  0  0  3  0  0  0  0  0  0
  186.0280  178.2160  144.7290 C   0  0  0  0  0  0  0  0  0  0  0  0
  190.0270  177.8810  148.5770 C   0  0  0  0  0  1  0  0  0  0  0  0
  187.2130  177.6410  147.3570 C   0  0  1  0  0  3  0  0  0  0  0  0
  190.7820  176.9920  145.0110 C   0  0  0  0  0  3  0  0  0  0  0  0
  187.0750  177.4210  144.4360 C   0  0  0  0  0  3  0  0  0  0  0  0
  188.3710  177.3030  145.1590 C   0  0  0  0  0  0  0  0  0  0  0  0
  189.7830  177.5460  147.1440 C   0  0  0  0  0  0  0  0  0  0  0  0
  185.9940  179.1570  145.8650 C   0  0  0  0  0  3  0  0  0  0  0  0
  186.5420  178.9300  147.0560 C   0  0  0  0  0  3  0  0  0  0  0  0
  184.9190  178.6890  142.5680 C   0  0  0  0  0  3  0  0  0  0  0  0
  184.8640  178.2630  143.8320 C   0  0  0  0  0  3  0  0  0  0  0  0
  182.6050  178.6860  142.2210 O   0  0  0  0  0  0  0  0  0  0  0  0
  183.7430  178.7220  141.6810 C   0  0  0  0  0  0  0  0  0  0  0  0
  183.2620  178.0970  137.8830 C   0  0  0  0  0  1  0  0  0  0  0  0
  183.2450  177.8480  139.3210 N   0  0  0  0  0  0  0  0  0  0  0  0
  183.8530  178.8130  140.2000 C   0  0  0  0  0  0  0  0  0  0  0  0
  184.4870  179.7810  139.6960 O   0  0  0  0  0  0  0  0  0  0  0  0
  182.7060  176.5870  139.8330 C   0  0  0  0  0  2  0  0  0  0  0  0
  181.3150  176.6310  139.9440 O   0  0  0  0  0  1  0  0  0  0  0  0
  189.4170  176.6510  142.9380 C   0  0  1  0  0  3  0  0  0  0  0  0
  187.9770  176.3890  142.5250 C   0  0  0  0  0  1  0  0  0  0  0  0
  189.9740  177.7250  142.1290 N   0  0  0  0  0  2  0  0  0  0  0  0
  192.3390  177.5960  141.5640 C   0  0  0  0  0  1  0  0  0  0  0  0
  190.9330  177.1420  141.2020 C   0  0  2  0  0  3  0  0  0  0  0  0
  188.8090  176.7280  138.6340 N   0  0  0  0  0  2  0  0  0  0  0  0
  188.9240  179.0000  138.9740 C   0  0  0  0  0  1  0  0  0  0  0  0
  189.1510  177.7030  139.5890 N   0  0  0  0  0  0  0  0  0  0  0  0
  192.4210  176.0060  138.6140 C   0  0  0  0  0  1  0  0  0  0  0  0
  190.6050  177.5450  139.7650 C   0  0  2  0  0  3  0  0  0  0  0  0
  189.9430  176.0120  138.1980 C   0  0  0  0  0  0  0  0  0  0  0  0
  191.0160  176.4660  138.8120 C   0  0  0  0  0  0  0  0  0  0  0  0
  190.1890  173.7440  137.5650 O   0  0  0  0  0  0  0  0  0  0  0  0
  189.4310  175.1420  135.8840 N   0  0  0  0  0  1  0  0  0  0  0  0
  189.8600  174.9100  137.2200 C   0  0  0  0  0  0  0  0  0  0  0  0
  1  8  2  0  0  0  0
  1 10  1  0  0  0  0
  2 11  1  0  0  0  0
  2  7  1  0  0  0  0
  4 11  2  0  0  0  0
  5 12  1  0  0  0  0
  7  3  1  1  0  0  0
  8  4  1  0  0  0  0
  9  5  2  0  0  0  0
  9 10  1  0  0  0  0
 10  2  2  0  0  0  0
 11  6  1  0  0  0  0
 12 13  2  0  0  0  0
 13  7  1  0  0  0  0
 14 15  2  0  0  0  0
 15  5  1  0  0  0  0
 17 16  2  0  0  0  0
 17 14  1  0  0  0  0
 18 19  1  0  0  0  0
 19 22  1  0  0  0  0
 19 20  1  0  0  0  0
 20 17  1  0  0  0  0
 21 20  2  0  0  0  0
 22 23  1  0  0  0  0
 24 25  1  6  0  0  0
 24  1  1  0  0  0  0
 26 24  1  0  0  0  0
 28 27  1  1  0  0  0
 28 26  1  0  0  0  0
 29 31  1  0  0  0  0
 30 31  1  0  0  0  0
 31 33  1  0  0  0  0
 32 35  1  0  0  0  0
 33 28  1  1  0  0  0
 34 29  1  0  0  0  0
 34 35  2  0  0  0  0
 35 33  1  0  0  0  0
 37 38  1  0  0  0  0
 38 36  2  0  0  0  0
 38 34  1  0  0  0  0
M  END
>  <MODEL>
8

>  <REMARK>
 VINA RESULT:      -7.9      1.855      2.758
  Name = 
  9 active torsions:
  status: ('A' for Active; 'I' for Inactive)
    1  A    between atoms: C_2  and  C_26
    2  A    between atoms: C_3  and  C_4
    3  A    between atoms: C_3  and  N_34
    4  A    between atoms: C_7  and  N_11
    5  A    between atoms: C_19  and  C_20
    6  A    between atoms: C_21  and  C_26
    7  A    between atoms: C_23  and  C_37
    8  A    between atoms: N_34  and  C_37
    9  A    between atoms: C_35  and  C_36
                            x       y       z     vdW  Elec       q    Type
                         _______ _______ _______ _____ _____    ______ ____

>  <TORSDO>
F 9

$$$$
=
 OpenBabel10222421033D

 38 40  0  0  1  0  0  0  0  0999 V2000
  188.2910  177.6900  143.3160 C   0  0  0  0  0  0  0  0  0  0  0  0
  188.2090  177.5060  145.7550 C   0  0  0  0  0  0  0  0  0  0  0  0
  188.0420  176.8020  148.0900 O   0  0  0  0  0  1  0  0  0  0  0  0
  190.3460  177.5640  144.5880 C   0  0  0  0  0  3  0  0  0  0  0  0
  185.2420  178.4600  145.2980 C   0  0  0  0  0  0  0  0  0  0  0  0
  190.4280  177.4720  147.0400 C   0  0  0  0  0  1  0  0  0  0  0  0
  187.3560  177.3160  146.9890 C   0  0  1  0  0  3  0  0  0  0  0  0
  189.6870  177.6300  143.3650 C   0  0  0  0  0  3  0  0  0  0  0  0
  186.0670  177.8670  144.4140 C   0  0  0  0  0  3  0  0  0  0  0  0
  187.5400  177.6770  144.5150 C   0  0  0  0  0  0  0  0  0  0  0  0
  189.6280  177.5090  145.7810 C   0  0  0  0  0  0  0  0  0  0  0  0
  185.6840  179.0600  146.5720 C   0  0  0  0  0  3  0  0  0  0  0  0
  186.6530  178.5740  147.3430 C   0  0  0  0  0  3  0  0  0  0  0  0
  183.3450  178.6980  143.7260 C   0  0  0  0  0  3  0  0  0  0  0  0
  183.8190  178.6400  144.9730 C   0  0  0  0  0  3  0  0  0  0  0  0
  181.0890  178.6310  144.3400 O   0  0  0  0  0  0  0  0  0  0  0  0
  181.9140  178.8710  143.4190 C   0  0  0  0  0  0  0  0  0  0  0  0
  181.2990  179.1800  139.6020 C   0  0  0  0  0  1  0  0  0  0  0  0
  181.9440  178.8000  140.8550 N   0  0  0  0  0  0  0  0  0  0  0  0
  181.4250  179.3270  142.0900 C   0  0  0  0  0  0  0  0  0  0  0  0
  180.5080  180.1930  142.0450 O   0  0  0  0  0  0  0  0  0  0  0  0
  183.1570  177.9800  140.8290 C   0  0  0  0  0  2  0  0  0  0  0  0
  183.0560  176.9440  139.8990 O   0  0  0  0  0  1  0  0  0  0  0  0
  187.6040  177.7320  141.9760 C   0  0  1  0  0  3  0  0  0  0  0  0
  186.8680  179.0450  141.7600 C   0  0  0  0  0  1  0  0  0  0  0  0
  188.5790  177.5350  140.9130 N   0  0  0  0  0  2  0  0  0  0  0  0
  186.8330  177.9100  139.2580 C   0  0  0  0  0  1  0  0  0  0  0  0
  188.1870  178.3630  139.7810 C   0  0  2  0  0  3  0  0  0  0  0  0
  189.1520  176.7330  137.0080 N   0  0  0  0  0  2  0  0  0  0  0  0
  189.0610  178.9540  136.4150 C   0  0  0  0  0  1  0  0  0  0  0  0
  188.5960  177.9710  137.3790 N   0  0  0  0  0  0  0  0  0  0  0  0
  191.0980  177.0890  140.1160 C   0  0  0  0  0  1  0  0  0  0  0  0
  189.2330  178.2830  138.6700 C   0  0  2  0  0  3  0  0  0  0  0  0
  190.0940  176.2840  137.9570 C   0  0  0  0  0  0  0  0  0  0  0  0
  190.1920  177.1640  138.9330 C   0  0  0  0  0  0  0  0  0  0  0  0
  190.1470  173.9440  137.6090 O   0  0  0  0  0  0  0  0  0  0  0  0
  192.2160  174.9190  137.9600 N   0  0  0  0  0  1  0  0  0  0  0  0
  190.8030  174.9980  137.8270 C   0  0  0  0  0  0  0  0  0  0  0  0
  1  8  2  0  0  0  0
  1 10  1  0  0  0  0
  2 11  1  0  0  0  0
  2  7  1  0  0  0  0
  4 11  2  0  0  0  0
  5 12  1  0  0  0  0
  7 13  1  0  0  0  0
  7  3  1  1  0  0  0
  8  4  1  0  0  0  0
  9 10  1  0  0  0  0
  9  5  2  0  0  0  0
 10  2  2  0  0  0  0
 11  6  1  0  0  0  0
 12 13  2  0  0  0  0
 14 15  2  0  0  0  0
 15  5  1  0  0  0  0
 17 14  1  0  0  0  0
 17 16  2  0  0  0  0
 18 19  1  0  0  0  0
 19 20  1  0  0  0  0
 20 17  1  0  0  0  0
 21 20  2  0  0  0  0
 22 19  1  0  0  0  0
 23 22  1  0  0  0  0
 24 25  1  6  0  0  0
 24  1  1  0  0  0  0
 26 24  1  0  0  0  0
 28 27  1  6  0  0  0
 28 26  1  0  0  0  0
 29 31  1  0  0  0  0
 29 34  1  0  0  0  0
 30 31  1  0  0  0  0
 31 33  1  0  0  0  0
 33 35  1  0  0  0  0
 33 28  1  1  0  0  0
 34 35  2  0  0  0  0
 35 32  1  0  0  0  0
 36 38  2  0  0  0  0
 38 34  1  0  0  0  0
 38 37  1  0  0  0  0
M  END
>  <MODEL>
9

>  <REMARK>
 VINA RESULT:      -7.9      1.774      2.663
  Name = 
  9 active torsions:
  status: ('A' for Active; 'I' for Inactive)
    1  A    between atoms: C_2  and  C_26
    2  A    between atoms: C_3  and  C_4
    3  A    between atoms: C_3  and  N_34
    4  A    between atoms: C_7  and  N_11
    5  A    between atoms: C_19  and  C_20
    6  A    between atoms: C_21  and  C_26
    7  A    between atoms: C_23  and  C_37
    8  A    between atoms: N_34  and  C_37
    9  A    between atoms: C_35  and  C_36
                            x       y       z     vdW  Elec       q    Type
                         _______ _______ _______ _____ _____    ______ ____

>  <TORSDO>
F 9

$$$$
