=
 OpenBabel10222421113D

 34 37  0  0  0  0  0  0  0  0999 V2000
  189.0830  177.4970  142.0180 C   0  0  0  0  0  0  0  0  0  0  0  0
  190.2540  176.8630  138.0310 C   0  0  0  0  0  0  0  0  0  0  0  0
  190.9010  176.0380  142.7170 C   0  0  0  0  0  3  0  0  0  0  0  0
  190.5350  176.2300  144.0530 C   0  0  0  0  0  3  0  0  0  0  0  0
  188.4530  178.3350  137.3410 C   0  0  0  0  0  3  0  0  0  0  0  0
  189.4520  177.0550  144.3750 C   0  0  0  0  0  0  0  0  0  0  0  0
  188.7620  177.9090  139.6540 C   0  0  0  0  0  0  0  0  0  0  0  0
  188.7250  177.6830  143.3590 C   0  0  0  0  0  3  0  0  0  0  0  0
  188.3730  178.1190  140.9830 C   0  0  0  0  0  0  0  0  0  0  0  0
  190.1810  176.6680  141.6990 C   0  0  0  0  0  0  0  0  0  0  0  0
  188.0930  178.5160  138.6380 N   0  0  0  0  0  0  0  0  0  0  0  0
  190.5370  176.4790  140.4020 N   0  0  0  0  0  0  0  0  0  0  0  0
  187.2880  178.9440  141.2690 O   0  0  0  0  0  1  0  0  0  0  0  0
  189.8620  177.0650  139.3730 C   0  0  0  0  0  0  0  0  0  0  0  0
  189.5310  177.5110  137.0200 C   0  0  0  0  0  3  0  0  0  0  0  0
  193.4830  175.1020  137.2730 C   0  0  0  0  0  0  0  0  0  0  0  0
  192.6110  174.1350  137.0440 C   0  0  0  0  0  3  0  0  0  0  0  0
  191.2880  174.6820  137.3020 C   0  0  0  0  0  0  0  0  0  0  0  0
  192.8190  176.3730  137.6820 C   0  0  0  0  0  2  0  0  0  0  0  0
  191.3810  175.9630  137.6680 C   0  0  0  0  0  0  0  0  0  0  0  0
  190.0290  173.8950  137.1380 C   0  0  0  0  0  2  0  0  0  0  0  0
  189.9730  173.2870  135.7500 C   0  0  0  0  0  1  0  0  0  0  0  0
  194.9570  174.9530  137.0990 C   0  0  0  0  0  2  0  0  0  0  0  0
  195.9870  173.5870  138.6940 C   0  0  0  0  0  1  0  0  0  0  0  0
  195.6200  174.9600  138.3930 N   0  0  0  0  0  2  0  0  0  0  0  0
  189.0530  177.2360  145.7960 C   0  0  0  0  0  2  0  0  0  0  0  0
  187.0880  178.1460  147.0900 C   0  0  0  0  0  0  0  0  0  0  0  0
  187.8030  177.9770  145.8640 N   0  0  0  0  0  2  0  0  0  0  0  0
  187.5330  177.6460  148.1590 O   0  0  0  0  0  0  0  0  0  0  0  0
  185.8330  178.9020  147.1070 C   0  0  0  0  0  0  0  0  0  0  0  0
  185.7820  180.0220  147.6840 O   0  0  0  0  0  0  0  0  0  0  0  0
  184.7010  178.3730  146.4830 O   0  0  0  0  0  0  0  0  0  0  0  0
  184.7890  178.4400  144.0900 C   0  0  0  0  0  1  0  0  0  0  0  0
  184.1230  178.9800  145.3380 C   0  0  0  0  0  2  0  0  0  0  0  0
  1  8  2  0  0  0  0
  2 14  1  0  0  0  0
  3  4  1  0  0  0  0
  4  6  2  0  0  0  0
  5 11  2  0  0  0  0
  6 26  1  0  0  0  0
  7  9  2  0  0  0  0
  8  6  1  0  0  0  0
  9 13  1  0  0  0  0
  9  1  1  0  0  0  0
 10  1  1  0  0  0  0
 10  3  2  0  0  0  0
 11  7  1  0  0  0  0
 12 10  1  0  0  0  0
 14  7  1  0  0  0  0
 14 12  2  0  0  0  0
 15  5  1  0  0  0  0
 15  2  2  0  0  0  0
 16 19  1  0  0  0  0
 17 16  2  0  0  0  0
 17 18  1  0  0  0  0
 18 20  2  0  0  0  0
 20 19  1  0  0  0  0
 20  2  1  0  0  0  0
 21 18  1  0  0  0  0
 22 21  1  0  0  0  0
 23 16  1  0  0  0  0
 23 25  1  0  0  0  0
 25 24  1  0  0  0  0
 26 28  1  0  0  0  0
 27 30  1  0  0  0  0
 27 29  2  0  0  0  0
 28 27  1  0  0  0  0
 30 31  2  0  0  0  0
 32 30  1  0  0  0  0
 33 34  1  0  0  0  0
 34 32  1  0  0  0  0
M  END
>  <MODEL>
1

>  <REMARK>
 VINA RESULT:      -8.6      0.000      0.000
  Name = 
  9 active torsions:
  status: ('A' for Active; 'I' for Inactive)
    1  A    between atoms: C_1  and  C_11
    2  A    between atoms: C_2  and  C_20
    3  A    between atoms: C_4  and  C_8
    4  A    between atoms: C_7  and  C_30
    5  A    between atoms: C_11  and  N_21
    6  A    between atoms: C_12  and  N_15
    7  A    between atoms: C_12  and  C_17
    8  A    between atoms: C_13  and  O_27
    9  A    between atoms: C_20  and  O_27
                            x       y       z     vdW  Elec       q    Type
                         _______ _______ _______ _____ _____    ______ ____

>  <TORSDO>
F 9

$$$$
=
 OpenBabel10222421113D

 34 37  0  0  0  0  0  0  0  0999 V2000
  184.8940  178.4880  144.9120 C   0  0  0  0  0  0  0  0  0  0  0  0
  188.9190  177.5700  145.7010 C   0  0  0  0  0  0  0  0  0  0  0  0
  185.3880  178.3190  142.5350 C   0  0  0  0  0  3  0  0  0  0  0  0
  184.0550  178.6220  142.2400 C   0  0  0  0  0  3  0  0  0  0  0  0
  188.4150  177.7200  148.0700 C   0  0  0  0  0  3  0  0  0  0  0  0
  183.1400  178.8520  143.2740 C   0  0  0  0  0  0  0  0  0  0  0  0
  186.6790  178.1090  146.5030 C   0  0  0  0  0  0  0  0  0  0  0  0
  183.5610  178.7910  144.6060 C   0  0  0  0  0  3  0  0  0  0  0  0
  185.3370  178.4160  146.2380 C   0  0  0  0  0  0  0  0  0  0  0  0
  185.8110  178.2500  143.8640 C   0  0  0  0  0  0  0  0  0  0  0  0
  187.1230  178.0210  147.7850 N   0  0  0  0  0  0  0  0  0  0  0  0
  187.1070  177.9570  144.1470 N   0  0  0  0  0  0  0  0  0  0  0  0
  184.4540  178.6420  147.2900 O   0  0  0  0  0  1  0  0  0  0  0  0
  187.5690  177.8850  145.4270 C   0  0  0  0  0  0  0  0  0  0  0  0
  189.3280  177.4920  147.0400 C   0  0  0  0  0  3  0  0  0  0  0  0
  190.9600  177.2740  142.5630 C   0  0  0  0  0  0  0  0  0  0  0  0
  191.8310  176.8600  143.4680 C   0  0  0  0  0  2  0  0  0  0  0  0
  191.1660  176.9210  144.7610 C   0  0  0  0  0  0  0  0  0  0  0  0
  189.6450  177.6270  143.1690 C   0  0  0  0  0  3  0  0  0  0  0  0
  189.9130  177.3560  144.6150 C   0  0  0  0  0  0  0  0  0  0  0  0
  191.8220  176.5140  146.0390 C   0  0  0  0  0  2  0  0  0  0  0  0
  192.1920  175.0450  145.9910 C   0  0  0  0  0  1  0  0  0  0  0  0
  191.2460  177.3390  141.1010 C   0  0  0  0  0  2  0  0  0  0  0  0
  189.6230  177.1570  139.4270 C   0  0  0  0  0  1  0  0  0  0  0  0
  190.4090  176.3940  140.3800 N   0  0  0  0  0  2  0  0  0  0  0  0
  181.7300  179.1980  142.9550 C   0  0  0  0  0  2  0  0  0  0  0  0
  179.8400  177.8940  141.9120 C   0  0  0  0  0  0  0  0  0  0  0  0
  181.2150  178.2820  141.9490 N   0  0  0  0  0  2  0  0  0  0  0  0
  179.0280  178.3450  142.7650 O   0  0  0  0  0  0  0  0  0  0  0  0
  179.3700  176.9670  140.8780 C   0  0  0  0  0  0  0  0  0  0  0  0
  179.3610  177.3270  139.6690 O   0  0  0  0  0  0  0  0  0  0  0  0
  178.9320  175.6920  141.2410 O   0  0  0  0  0  0  0  0  0  0  0  0
  179.3230  173.4140  141.8700 C   0  0  0  0  0  1  0  0  0  0  0  0
  179.6600  174.5230  140.8960 C   0  0  0  0  0  2  0  0  0  0  0  0
  1  9  2  0  0  0  0
  2 15  1  0  0  0  0
  3 10  1  0  0  0  0
  4  3  2  0  0  0  0
  4  6  1  0  0  0  0
  6  8  2  0  0  0  0
  7 11  2  0  0  0  0
  8  1  1  0  0  0  0
  9  7  1  0  0  0  0
  9 13  1  0  0  0  0
 10 12  2  0  0  0  0
 10  1  1  0  0  0  0
 11  5  1  0  0  0  0
 12 14  1  0  0  0  0
 14  2  2  0  0  0  0
 14  7  1  0  0  0  0
 15  5  2  0  0  0  0
 16 19  2  0  0  0  0
 16 17  1  0  0  0  0
 17 18  1  0  0  0  0
 18 21  1  0  0  0  0
 19 20  1  0  0  0  0
 20 18  2  0  0  0  0
 20  2  1  0  0  0  0
 22 21  1  0  0  0  0
 23 16  1  0  0  0  0
 24 25  1  0  0  0  0
 25 23  1  0  0  0  0
 26  6  1  0  0  0  0
 27 28  1  0  0  0  0
 27 29  2  0  0  0  0
 28 26  1  0  0  0  0
 30 32  1  0  0  0  0
 30 27  1  0  0  0  0
 31 30  2  0  0  0  0
 34 32  1  0  0  0  0
 34 33  1  0  0  0  0
M  END
>  <MODEL>
2

>  <REMARK>
 VINA RESULT:      -8.4      3.786      7.740
  Name = 
  9 active torsions:
  status: ('A' for Active; 'I' for Inactive)
    1  A    between atoms: C_1  and  C_11
    2  A    between atoms: C_2  and  C_20
    3  A    between atoms: C_4  and  C_8
    4  A    between atoms: C_7  and  C_30
    5  A    between atoms: C_11  and  N_21
    6  A    between atoms: C_12  and  N_15
    7  A    between atoms: C_12  and  C_17
    8  A    between atoms: C_13  and  O_27
    9  A    between atoms: C_20  and  O_27
                            x       y       z     vdW  Elec       q    Type
                         _______ _______ _______ _____ _____    ______ ____

>  <TORSDO>
F 9

$$$$
=
 OpenBabel10222421113D

 34 37  0  0  0  0  0  0  0  0999 V2000
  185.0620  178.4270  144.4240 C   0  0  0  0  0  0  0  0  0  0  0  0
  183.1730  178.3930  140.6690 C   0  0  0  0  0  0  0  0  0  0  0  0
  187.0810  177.6020  143.3450 C   0  0  0  0  0  3  0  0  0  0  0  0
  187.7370  177.6020  144.5790 C   0  0  0  0  0  3  0  0  0  0  0  0
  181.1690  179.2350  141.7480 C   0  0  0  0  0  3  0  0  0  0  0  0
  187.0640  178.0170  145.7340 C   0  0  0  0  0  0  0  0  0  0  0  0
  183.0950  178.8230  143.0690 C   0  0  0  0  0  0  0  0  0  0  0  0
  185.7270  178.4230  145.6570 C   0  0  0  0  0  3  0  0  0  0  0  0
  183.7260  178.8330  144.3200 C   0  0  0  0  0  0  0  0  0  0  0  0
  185.7490  178.0120  143.2610 C   0  0  0  0  0  0  0  0  0  0  0  0
  181.8030  179.2280  142.9480 N   0  0  0  0  0  0  0  0  0  0  0  0
  185.1140  178.0100  142.0600 N   0  0  0  0  0  0  0  0  0  0  0  0
  183.0260  179.2500  145.4500 O   0  0  0  0  0  1  0  0  0  0  0  0
  183.8130  178.3940  141.9290 C   0  0  0  0  0  0  0  0  0  0  0  0
  181.8400  178.8190  140.5970 C   0  0  0  0  0  3  0  0  0  0  0  0
  185.3130  177.7220  137.6570 C   0  0  0  0  0  0  0  0  0  0  0  0
  184.4820  176.6940  137.6080 C   0  0  0  0  0  3  0  0  0  0  0  0
  183.5750  176.8230  138.7370 C   0  0  0  0  0  0  0  0  0  0  0  0
  185.0210  178.6270  138.8050 C   0  0  0  0  0  2  0  0  0  0  0  0
  183.8620  177.9230  139.4370 C   0  0  0  0  0  0  0  0  0  0  0  0
  182.4720  175.8560  139.0170 C   0  0  0  0  0  2  0  0  0  0  0  0
  181.4990  175.8240  137.8550 C   0  0  0  0  0  1  0  0  0  0  0  0
  186.3900  177.9710  136.6560 C   0  0  0  0  0  2  0  0  0  0  0  0
  188.6120  178.6300  136.9710 C   0  0  0  0  0  1  0  0  0  0  0  0
  187.2340  179.0750  137.0860 N   0  0  0  0  0  2  0  0  0  0  0  0
  187.7580  177.9920  147.0490 C   0  0  0  0  0  2  0  0  0  0  0  0
  189.9860  176.8250  147.2290 C   0  0  0  0  0  0  0  0  0  0  0  0
  189.1970  177.9520  146.8440 N   0  0  0  0  0  2  0  0  0  0  0  0
  189.4430  175.8220  147.7660 O   0  0  0  0  0  0  0  0  0  0  0  0
  191.4340  176.8340  147.0010 C   0  0  0  0  0  0  0  0  0  0  0  0
  192.2190  176.5260  147.9390 O   0  0  0  0  0  0  0  0  0  0  0  0
  191.9330  177.1860  145.7450 O   0  0  0  0  0  0  0  0  0  0  0  0
  191.3590  177.5290  143.4450 C   0  0  0  0  0  1  0  0  0  0  0  0
  191.5210  176.5200  144.5610 C   0  0  0  0  0  2  0  0  0  0  0  0
  1  8  2  0  0  0  0
  2 14  1  0  0  0  0
  3  4  1  0  0  0  0
  4  6  2  0  0  0  0
  5 11  2  0  0  0  0
  6 26  1  0  0  0  0
  7  9  2  0  0  0  0
  8  6  1  0  0  0  0
  9  1  1  0  0  0  0
  9 13  1  0  0  0  0
 10  3  2  0  0  0  0
 10  1  1  0  0  0  0
 11  7  1  0  0  0  0
 12 10  1  0  0  0  0
 14 12  2  0  0  0  0
 14  7  1  0  0  0  0
 15  2  2  0  0  0  0
 15  5  1  0  0  0  0
 16 19  1  0  0  0  0
 17 16  2  0  0  0  0
 17 18  1  0  0  0  0
 18 21  1  0  0  0  0
 18 20  2  0  0  0  0
 19 20  1  0  0  0  0
 20  2  1  0  0  0  0
 22 21  1  0  0  0  0
 23 25  1  0  0  0  0
 23 16  1  0  0  0  0
 24 25  1  0  0  0  0
 27 29  2  0  0  0  0
 28 26  1  0  0  0  0
 28 27  1  0  0  0  0
 30 27  1  0  0  0  0
 30 31  2  0  0  0  0
 32 30  1  0  0  0  0
 33 34  1  0  0  0  0
 34 32  1  0  0  0  0
M  END
>  <MODEL>
3

>  <REMARK>
 VINA RESULT:      -8.3      4.025      6.804
  Name = 
  9 active torsions:
  status: ('A' for Active; 'I' for Inactive)
    1  A    between atoms: C_1  and  C_11
    2  A    between atoms: C_2  and  C_20
    3  A    between atoms: C_4  and  C_8
    4  A    between atoms: C_7  and  C_30
    5  A    between atoms: C_11  and  N_21
    6  A    between atoms: C_12  and  N_15
    7  A    between atoms: C_12  and  C_17
    8  A    between atoms: C_13  and  O_27
    9  A    between atoms: C_20  and  O_27
                            x       y       z     vdW  Elec       q    Type
                         _______ _______ _______ _____ _____    ______ ____

>  <TORSDO>
F 9

$$$$
=
 OpenBabel10222421113D

 34 37  0  0  0  0  0  0  0  0999 V2000
  184.9630  178.4570  144.9150 C   0  0  0  0  0  0  0  0  0  0  0  0
  189.0320  177.5160  145.3920 C   0  0  0  0  0  0  0  0  0  0  0  0
  185.2660  178.2630  142.5070 C   0  0  0  0  0  3  0  0  0  0  0  0
  183.9160  178.5730  142.3160 C   0  0  0  0  0  3  0  0  0  0  0  0
  188.7190  177.6910  147.7910 C   0  0  0  0  0  3  0  0  0  0  0  0
  183.0880  178.8190  143.4170 C   0  0  0  0  0  0  0  0  0  0  0  0
  186.8660  178.0790  146.3630 C   0  0  0  0  0  0  0  0  0  0  0  0
  183.6120  178.7670  144.7120 C   0  0  0  0  0  3  0  0  0  0  0  0
  185.5100  178.3930  146.2020 C   0  0  0  0  0  0  0  0  0  0  0  0
  185.7930  178.2030  143.8000 C   0  0  0  0  0  0  0  0  0  0  0  0
  187.4100  177.9990  147.6060 N   0  0  0  0  0  0  0  0  0  0  0  0
  187.1050  177.9020  143.9820 N   0  0  0  0  0  0  0  0  0  0  0  0
  184.7140  178.6350  147.3190 O   0  0  0  0  0  1  0  0  0  0  0  0
  187.6670  177.8390  145.2220 C   0  0  0  0  0  0  0  0  0  0  0  0
  189.5450  177.4480  146.6940 C   0  0  0  0  0  3  0  0  0  0  0  0
  190.8640  177.2770  142.1220 C   0  0  0  0  0  0  0  0  0  0  0  0
  191.7110  176.6590  142.9300 C   0  0  0  0  0  2  0  0  0  0  0  0
  191.1220  176.6750  144.2600 C   0  0  0  0  0  0  0  0  0  0  0  0
  189.6400  177.7370  142.8370 C   0  0  0  0  0  3  0  0  0  0  0  0
  189.9350  177.2850  144.2320 C   0  0  0  0  0  0  0  0  0  0  0  0
  191.7740  176.0550  145.4520 C   0  0  0  0  0  2  0  0  0  0  0  0
  192.2550  174.6570  145.1150 C   0  0  0  0  0  1  0  0  0  0  0  0
  191.0880  177.4540  140.6590 C   0  0  0  0  0  2  0  0  0  0  0  0
  189.6120  176.9000  138.9320 C   0  0  0  0  0  1  0  0  0  0  0  0
  190.5150  176.3400  139.9220 N   0  0  0  0  0  2  0  0  0  0  0  0
  181.6590  179.1730  143.2070 C   0  0  0  0  0  2  0  0  0  0  0  0
  180.4320  179.6640  141.0590 C   0  0  0  0  0  0  0  0  0  0  0  0
  181.2560  178.8120  141.8570 N   0  0  0  0  0  2  0  0  0  0  0  0
  180.0280  180.7680  141.5160 O   0  0  0  0  0  0  0  0  0  0  0  0
  180.0540  179.2550  139.7030 C   0  0  0  0  0  0  0  0  0  0  0  0
  179.0250  178.5470  139.5250 O   0  0  0  0  0  0  0  0  0  0  0  0
  180.8390  179.6520  138.6180 O   0  0  0  0  0  0  0  0  0  0  0  0
  183.1940  179.2290  138.7240 C   0  0  0  0  0  1  0  0  0  0  0  0
  182.1020  180.2750  138.7950 C   0  0  0  0  0  2  0  0  0  0  0  0
  1  9  2  0  0  0  0
  2 15  1  0  0  0  0
  3 10  1  0  0  0  0
  4  3  2  0  0  0  0
  4  6  1  0  0  0  0
  6  8  2  0  0  0  0
  7 11  2  0  0  0  0
  8  1  1  0  0  0  0
  9  7  1  0  0  0  0
  9 13  1  0  0  0  0
 10 12  2  0  0  0  0
 10  1  1  0  0  0  0
 11  5  1  0  0  0  0
 12 14  1  0  0  0  0
 14  2  2  0  0  0  0
 14  7  1  0  0  0  0
 15  5  2  0  0  0  0
 16 19  2  0  0  0  0
 16 17  1  0  0  0  0
 17 18  1  0  0  0  0
 18 21  1  0  0  0  0
 19 20  1  0  0  0  0
 20 18  2  0  0  0  0
 20  2  1  0  0  0  0
 22 21  1  0  0  0  0
 23 16  1  0  0  0  0
 24 25  1  0  0  0  0
 25 23  1  0  0  0  0
 26  6  1  0  0  0  0
 27 29  2  0  0  0  0
 27 28  1  0  0  0  0
 28 26  1  0  0  0  0
 30 27  1  0  0  0  0
 31 30  2  0  0  0  0
 32 34  1  0  0  0  0
 32 30  1  0  0  0  0
 33 34  1  0  0  0  0
M  END
>  <MODEL>
4

>  <REMARK>
 VINA RESULT:      -8.2      3.551      7.537
  Name = 
  9 active torsions:
  status: ('A' for Active; 'I' for Inactive)
    1  A    between atoms: C_1  and  C_11
    2  A    between atoms: C_2  and  C_20
    3  A    between atoms: C_4  and  C_8
    4  A    between atoms: C_7  and  C_30
    5  A    between atoms: C_11  and  N_21
    6  A    between atoms: C_12  and  N_15
    7  A    between atoms: C_12  and  C_17
    8  A    between atoms: C_13  and  O_27
    9  A    between atoms: C_20  and  O_27
                            x       y       z     vdW  Elec       q    Type
                         _______ _______ _______ _____ _____    ______ ____

>  <TORSDO>
F 9

$$$$
=
 OpenBabel10222421113D

 34 37  0  0  0  0  0  0  0  0999 V2000
  185.0100  178.4390  144.4200 C   0  0  0  0  0  0  0  0  0  0  0  0
  182.4280  178.4090  141.1040 C   0  0  0  0  0  0  0  0  0  0  0  0
  186.7960  177.6730  142.9550 C   0  0  0  0  0  3  0  0  0  0  0  0
  187.6800  177.6730  144.0390 C   0  0  0  0  0  3  0  0  0  0  0  0
  180.6560  179.1910  142.5650 C   0  0  0  0  0  3  0  0  0  0  0  0
  187.2360  178.0590  145.3090 C   0  0  0  0  0  0  0  0  0  0  0  0
  182.8100  178.8070  143.4800 C   0  0  0  0  0  0  0  0  0  0  0  0
  185.9020  178.4350  145.5000 C   0  0  0  0  0  3  0  0  0  0  0  0
  183.6710  178.8160  144.5850 C   0  0  0  0  0  0  0  0  0  0  0  0
  185.4650  178.0550  143.1390 C   0  0  0  0  0  0  0  0  0  0  0  0
  181.5110  179.1840  143.6190 N   0  0  0  0  0  0  0  0  0  0  0  0
  184.6090  178.0530  142.0840 N   0  0  0  0  0  0  0  0  0  0  0  0
  183.1960  179.2030  145.8350 O   0  0  0  0  0  1  0  0  0  0  0  0
  183.3000  178.4090  142.2150 C   0  0  0  0  0  0  0  0  0  0  0  0
  181.0980  178.8050  141.2990 C   0  0  0  0  0  3  0  0  0  0  0  0
  183.4240  176.6900  137.9170 C   0  0  0  0  0  0  0  0  0  0  0  0
  183.5820  177.9590  137.5770 C   0  0  0  0  0  3  0  0  0  0  0  0
  183.2270  178.7600  138.7380 C   0  0  0  0  0  0  0  0  0  0  0  0
  182.9690  176.5390  139.3280 C   0  0  0  0  0  2  0  0  0  0  0  0
  182.8730  177.9700  139.7540 C   0  0  0  0  0  0  0  0  0  0  0  0
  183.2930  180.2520  138.7560 C   0  0  0  0  0  2  0  0  0  0  0  0
  181.9510  180.8380  138.3620 C   0  0  0  0  0  1  0  0  0  0  0  0
  183.7080  175.5430  137.0070 C   0  0  0  0  0  2  0  0  0  0  0  0
  184.7480  173.5470  137.6420 C   0  0  0  0  0  1  0  0  0  0  0  0
  183.4980  174.2840  137.7030 N   0  0  0  0  0  2  0  0  0  0  0  0
  188.1730  178.0330  146.4630 C   0  0  0  0  0  2  0  0  0  0  0  0
  190.3520  176.7860  146.7010 C   0  0  0  0  0  0  0  0  0  0  0  0
  189.5130  177.7070  146.0010 N   0  0  0  0  0  2  0  0  0  0  0  0
  189.9420  176.2260  147.7540 O   0  0  0  0  0  0  0  0  0  0  0  0
  191.6950  176.4900  146.1940 C   0  0  0  0  0  0  0  0  0  0  0  0
  192.5610  175.9910  146.9640 O   0  0  0  0  0  0  0  0  0  0  0  0
  192.0060  176.7650  144.8610 O   0  0  0  0  0  0  0  0  0  0  0  0
  191.1190  176.8350  142.6370 C   0  0  0  0  0  1  0  0  0  0  0  0
  191.5300  175.9540  143.7970 C   0  0  0  0  0  2  0  0  0  0  0  0
  1  9  1  0  0  0  0
  1  8  2  0  0  0  0
  2 15  2  0  0  0  0
  2 14  1  0  0  0  0
  3 10  2  0  0  0  0
  3  4  1  0  0  0  0
  4  6  2  0  0  0  0
  5 11  2  0  0  0  0
  6  8  1  0  0  0  0
  6 26  1  0  0  0  0
  7 11  1  0  0  0  0
  7  9  2  0  0  0  0
  9 13  1  0  0  0  0
 10  1  1  0  0  0  0
 12 14  2  0  0  0  0
 12 10  1  0  0  0  0
 14  7  1  0  0  0  0
 15  5  1  0  0  0  0
 16 19  1  0  0  0  0
 17 16  2  0  0  0  0
 17 18  1  0  0  0  0
 18 21  1  0  0  0  0
 18 20  2  0  0  0  0
 19 20  1  0  0  0  0
 20  2  1  0  0  0  0
 22 21  1  0  0  0  0
 23 25  1  0  0  0  0
 23 16  1  0  0  0  0
 24 25  1  0  0  0  0
 27 29  2  0  0  0  0
 28 26  1  0  0  0  0
 28 27  1  0  0  0  0
 30 27  1  0  0  0  0
 30 31  2  0  0  0  0
 32 30  1  0  0  0  0
 33 34  1  0  0  0  0
 34 32  1  0  0  0  0
M  END
>  <MODEL>
5

>  <REMARK>
 VINA RESULT:      -7.9      4.476      7.709
  Name = 
  9 active torsions:
  status: ('A' for Active; 'I' for Inactive)
    1  A    between atoms: C_1  and  C_11
    2  A    between atoms: C_2  and  C_20
    3  A    between atoms: C_4  and  C_8
    4  A    between atoms: C_7  and  C_30
    5  A    between atoms: C_11  and  N_21
    6  A    between atoms: C_12  and  N_15
    7  A    between atoms: C_12  and  C_17
    8  A    between atoms: C_13  and  O_27
    9  A    between atoms: C_20  and  O_27
                            x       y       z     vdW  Elec       q    Type
                         _______ _______ _______ _____ _____    ______ ____

>  <TORSDO>
F 9

$$$$
=
 OpenBabel10222421113D

 34 37  0  0  0  0  0  0  0  0999 V2000
  184.1490  178.7810  142.2080 C   0  0  0  0  0  0  0  0  0  0  0  0
  186.7480  178.0420  145.4280 C   0  0  0  0  0  0  0  0  0  0  0  0
  186.0200  178.4100  140.6960 C   0  0  0  0  0  3  0  0  0  0  0  0
  185.1800  178.6510  139.6040 C   0  0  0  0  0  3  0  0  0  0  0  0
  184.8740  178.3930  146.9290 C   0  0  0  0  0  3  0  0  0  0  0  0
  183.8290  178.9500  139.8080 C   0  0  0  0  0  0  0  0  0  0  0  0
  184.5230  178.5930  144.5920 C   0  0  0  0  0  0  0  0  0  0  0  0
  183.3160  179.0200  141.1070 C   0  0  0  0  0  3  0  0  0  0  0  0
  183.6580  178.8400  143.5180 C   0  0  0  0  0  0  0  0  0  0  0  0
  185.5110  178.4730  141.9950 C   0  0  0  0  0  0  0  0  0  0  0  0
  184.0600  178.6330  145.8700 N   0  0  0  0  0  0  0  0  0  0  0  0
  186.3300  178.2400  143.0540 N   0  0  0  0  0  0  0  0  0  0  0  0
  182.3190  179.1380  143.7560 O   0  0  0  0  0  1  0  0  0  0  0  0
  185.8830  178.2960  144.3400 C   0  0  0  0  0  0  0  0  0  0  0  0
  186.2220  178.0960  146.7260 C   0  0  0  0  0  3  0  0  0  0  0  0
  190.2930  177.5070  144.3080 C   0  0  0  0  0  0  0  0  0  0  0  0
  190.3900  177.2160  145.5950 C   0  0  0  0  0  2  0  0  0  0  0  0
  189.0650  177.3820  146.1720 C   0  0  0  0  0  0  0  0  0  0  0  0
  188.9010  177.8720  143.9180 C   0  0  0  0  0  3  0  0  0  0  0  0
  188.1950  177.7560  145.2320 C   0  0  0  0  0  0  0  0  0  0  0  0
  188.7600  177.1280  147.6120 C   0  0  0  0  0  2  0  0  0  0  0  0
  189.3200  178.2480  148.4680 C   0  0  0  0  0  1  0  0  0  0  0  0
  191.4330  177.4370  143.3500 C   0  0  0  0  0  2  0  0  0  0  0  0
  190.8420  177.2050  141.1000 C   0  0  0  0  0  1  0  0  0  0  0  0
  191.1570  176.4620  142.3070 N   0  0  0  0  0  2  0  0  0  0  0  0
  182.9450  179.2290  138.6450 C   0  0  0  0  0  2  0  0  0  0  0  0
  181.4410  181.0770  137.8180 C   0  0  0  0  0  0  0  0  0  0  0  0
  182.3570  180.5530  138.7810 N   0  0  0  0  0  2  0  0  0  0  0  0
  181.1160  180.3920  136.8100 O   0  0  0  0  0  0  0  0  0  0  0  0
  180.8760  182.4170  138.0010 C   0  0  0  0  0  0  0  0  0  0  0  0
  179.7350  182.5520  138.5220 O   0  0  0  0  0  0  0  0  0  0  0  0
  181.6060  183.5350  137.5930 O   0  0  0  0  0  0  0  0  0  0  0  0
  180.8040  183.9470  135.3740 C   0  0  0  0  0  1  0  0  0  0  0  0
  181.0450  184.5300  136.7490 C   0  0  0  0  0  2  0  0  0  0  0  0
  1  9  2  0  0  0  0
  2 15  1  0  0  0  0
  3 10  1  0  0  0  0
  4  6  1  0  0  0  0
  4  3  2  0  0  0  0
  6  8  2  0  0  0  0
  7 11  2  0  0  0  0
  8  1  1  0  0  0  0
  9 13  1  0  0  0  0
  9  7  1  0  0  0  0
 10  1  1  0  0  0  0
 10 12  2  0  0  0  0
 11  5  1  0  0  0  0
 12 14  1  0  0  0  0
 14  7  1  0  0  0  0
 14  2  2  0  0  0  0
 15  5  2  0  0  0  0
 16 17  1  0  0  0  0
 17 18  1  0  0  0  0
 18 21  1  0  0  0  0
 19 16  2  0  0  0  0
 19 20  1  0  0  0  0
 20  2  1  0  0  0  0
 20 18  2  0  0  0  0
 21 22  1  0  0  0  0
 23 16  1  0  0  0  0
 24 25  1  0  0  0  0
 25 23  1  0  0  0  0
 26 28  1  0  0  0  0
 26  6  1  0  0  0  0
 27 30  1  0  0  0  0
 27 28  1  0  0  0  0
 29 27  2  0  0  0  0
 30 31  2  0  0  0  0
 32 30  1  0  0  0  0
 33 34  1  0  0  0  0
 34 32  1  0  0  0  0
M  END
>  <MODEL>
6

>  <REMARK>
 VINA RESULT:      -7.9      4.584      8.832
  Name = 
  9 active torsions:
  status: ('A' for Active; 'I' for Inactive)
    1  A    between atoms: C_1  and  C_11
    2  A    between atoms: C_2  and  C_20
    3  A    between atoms: C_4  and  C_8
    4  A    between atoms: C_7  and  C_30
    5  A    between atoms: C_11  and  N_21
    6  A    between atoms: C_12  and  N_15
    7  A    between atoms: C_12  and  C_17
    8  A    between atoms: C_13  and  O_27
    9  A    between atoms: C_20  and  O_27
                            x       y       z     vdW  Elec       q    Type
                         _______ _______ _______ _____ _____    ______ ____

>  <TORSDO>
F 9

$$$$
=
 OpenBabel10222421113D

 34 37  0  0  0  0  0  0  0  0999 V2000
  190.0060  177.2160  141.5890 C   0  0  0  0  0  0  0  0  0  0  0  0
  187.5920  177.7730  144.9850 C   0  0  0  0  0  0  0  0  0  0  0  0
  188.1210  177.9110  140.2140 C   0  0  0  0  0  3  0  0  0  0  0  0
  188.8990  177.7350  139.0660 C   0  0  0  0  0  3  0  0  0  0  0  0
  189.4810  177.0980  146.3510 C   0  0  0  0  0  3  0  0  0  0  0  0
  190.2270  177.3070  139.1740 C   0  0  0  0  0  0  0  0  0  0  0  0
  189.7320  177.1480  143.9930 C   0  0  0  0  0  0  0  0  0  0  0  0
  190.7760  177.0420  140.4320 C   0  0  0  0  0  3  0  0  0  0  0  0
  190.5350  176.9620  142.8600 C   0  0  0  0  0  0  0  0  0  0  0  0
  188.6680  177.6550  141.4740 C   0  0  0  0  0  0  0  0  0  0  0  0
  190.2340  176.9210  145.2360 N   0  0  0  0  0  0  0  0  0  0  0  0
  187.9090  177.8250  142.5880 N   0  0  0  0  0  0  0  0  0  0  0  0
  191.8510  176.5320  143.0030 O   0  0  0  0  0  1  0  0  0  0  0  0
  188.3940  177.5810  143.8380 C   0  0  0  0  0  0  0  0  0  0  0  0
  188.1560  177.5240  146.2430 C   0  0  0  0  0  3  0  0  0  0  0  0
  184.0650  178.7060  144.0960 C   0  0  0  0  0  0  0  0  0  0  0  0
  184.0460  178.8750  145.4070 C   0  0  0  0  0  2  0  0  0  0  0  0
  185.3740  178.5450  145.9010 C   0  0  0  0  0  0  0  0  0  0  0  0
  185.4030  178.2680  143.6050 C   0  0  0  0  0  3  0  0  0  0  0  0
  186.1690  178.1950  144.8880 C   0  0  0  0  0  0  0  0  0  0  0  0
  185.7570  178.6300  147.3420 C   0  0  0  0  0  2  0  0  0  0  0  0
  186.2340  180.0300  147.6730 C   0  0  0  0  0  1  0  0  0  0  0  0
  182.8970  178.9640  143.2050 C   0  0  0  0  0  2  0  0  0  0  0  0
  182.0330  178.4200  141.1020 C   0  0  0  0  0  1  0  0  0  0  0  0
  183.2590  178.7280  141.8170 N   0  0  0  0  0  2  0  0  0  0  0  0
  191.0420  177.0970  137.9480 C   0  0  0  0  0  2  0  0  0  0  0  0
  193.3260  176.0380  137.8050 C   0  0  0  0  0  0  0  0  0  0  0  0
  191.9390  175.9690  138.1410 N   0  0  0  0  0  2  0  0  0  0  0  0
  193.8120  177.0980  137.3230 O   0  0  0  0  0  0  0  0  0  0  0  0
  194.1900  174.8730  138.0190 C   0  0  0  0  0  0  0  0  0  0  0  0
  193.7870  173.7240  137.6900 O   0  0  0  0  0  0  0  0  0  0  0  0
  195.4530  175.0460  138.5880 O   0  0  0  0  0  0  0  0  0  0  0  0
  197.7630  174.5170  138.2390 C   0  0  0  0  0  1  0  0  0  0  0  0
  196.4020  173.9910  138.6430 C   0  0  0  0  0  2  0  0  0  0  0  0
  1  9  2  0  0  0  0
  2 15  1  0  0  0  0
  3 10  1  0  0  0  0
  4  6  1  0  0  0  0
  4  3  2  0  0  0  0
  6  8  2  0  0  0  0
  7 11  2  0  0  0  0
  8  1  1  0  0  0  0
  9 13  1  0  0  0  0
  9  7  1  0  0  0  0
 10  1  1  0  0  0  0
 10 12  2  0  0  0  0
 11  5  1  0  0  0  0
 12 14  1  0  0  0  0
 14  7  1  0  0  0  0
 14  2  2  0  0  0  0
 15  5  2  0  0  0  0
 16 17  1  0  0  0  0
 17 18  1  0  0  0  0
 18 21  1  0  0  0  0
 19 16  2  0  0  0  0
 19 20  1  0  0  0  0
 20  2  1  0  0  0  0
 20 18  2  0  0  0  0
 21 22  1  0  0  0  0
 23 16  1  0  0  0  0
 24 25  1  0  0  0  0
 25 23  1  0  0  0  0
 26 28  1  0  0  0  0
 26  6  1  0  0  0  0
 27 30  1  0  0  0  0
 27 28  1  0  0  0  0
 29 27  2  0  0  0  0
 30 32  1  0  0  0  0
 31 30  2  0  0  0  0
 32 34  1  0  0  0  0
 33 34  1  0  0  0  0
M  END
>  <MODEL>
7

>  <REMARK>
 VINA RESULT:      -7.8      3.287     10.091
  Name = 
  9 active torsions:
  status: ('A' for Active; 'I' for Inactive)
    1  A    between atoms: C_1  and  C_11
    2  A    between atoms: C_2  and  C_20
    3  A    between atoms: C_4  and  C_8
    4  A    between atoms: C_7  and  C_30
    5  A    between atoms: C_11  and  N_21
    6  A    between atoms: C_12  and  N_15
    7  A    between atoms: C_12  and  C_17
    8  A    between atoms: C_13  and  O_27
    9  A    between atoms: C_20  and  O_27
                            x       y       z     vdW  Elec       q    Type
                         _______ _______ _______ _____ _____    ______ ____

>  <TORSDO>
F 9

$$$$
=
 OpenBabel10222421113D

 34 37  0  0  0  0  0  0  0  0999 V2000
  186.8900  178.0930  142.8510 C   0  0  0  0  0  0  0  0  0  0  0  0
  184.9520  178.7410  139.1780 C   0  0  0  0  0  0  0  0  0  0  0  0
  184.7690  178.5070  143.9700 C   0  0  0  0  0  3  0  0  0  0  0  0
  185.3850  178.2970  145.2070 C   0  0  0  0  0  3  0  0  0  0  0  0
  187.0640  178.3070  138.0670 C   0  0  0  0  0  3  0  0  0  0  0  0
  186.7460  177.9800  145.2710 C   0  0  0  0  0  0  0  0  0  0  0  0
  186.9750  178.2120  140.4350 C   0  0  0  0  0  0  0  0  0  0  0  0
  187.4980  177.8840  144.0950 C   0  0  0  0  0  3  0  0  0  0  0  0
  187.6200  177.9970  141.6590 C   0  0  0  0  0  0  0  0  0  0  0  0
  185.5140  178.4060  142.7930 C   0  0  0  0  0  0  0  0  0  0  0  0
  187.6650  178.1100  139.2680 N   0  0  0  0  0  0  0  0  0  0  0  0
  184.9120  178.6120  141.5920 N   0  0  0  0  0  0  0  0  0  0  0  0
  188.9770  177.6860  141.6870 O   0  0  0  0  0  1  0  0  0  0  0  0
  185.5970  178.5320  140.4170 C   0  0  0  0  0  0  0  0  0  0  0  0
  185.7080  178.6250  138.0030 C   0  0  0  0  0  3  0  0  0  0  0  0
  181.5460  180.2870  138.8400 C   0  0  0  0  0  0  0  0  0  0  0  0
  181.2270  179.0180  139.0350 C   0  0  0  0  0  2  0  0  0  0  0  0
  182.4720  178.2820  139.1870 C   0  0  0  0  0  0  0  0  0  0  0  0
  183.0200  180.5050  138.8620 C   0  0  0  0  0  3  0  0  0  0  0  0
  183.5140  179.1120  139.0930 C   0  0  0  0  0  0  0  0  0  0  0  0
  182.5300  176.8120  139.4420 C   0  0  0  0  0  2  0  0  0  0  0  0
  181.1600  176.2990  139.8420 C   0  0  0  0  0  1  0  0  0  0  0  0
  180.5460  181.3790  138.6610 C   0  0  0  0  0  2  0  0  0  0  0  0
  180.3860  182.4510  136.5890 C   0  0  0  0  0  1  0  0  0  0  0  0
  181.1070  182.4480  137.8500 N   0  0  0  0  0  2  0  0  0  0  0  0
  187.4030  177.7810  146.5910 C   0  0  0  0  0  2  0  0  0  0  0  0
  189.7740  177.3110  147.3090 C   0  0  0  0  0  0  0  0  0  0  0  0
  188.6830  177.1160  146.4070 N   0  0  0  0  0  2  0  0  0  0  0  0
  189.6490  178.0790  148.3010 O   0  0  0  0  0  0  0  0  0  0  0  0
  191.0450  176.6170  147.0810 C   0  0  0  0  0  0  0  0  0  0  0  0
  191.3070  175.5620  147.7200 O   0  0  0  0  0  0  0  0  0  0  0  0
  191.9560  177.1320  146.1570 O   0  0  0  0  0  0  0  0  0  0  0  0
  191.3170  176.2450  144.0250 C   0  0  0  0  0  1  0  0  0  0  0  0
  191.5650  177.4960  144.8410 C   0  0  0  0  0  2  0  0  0  0  0  0
  1  8  2  0  0  0  0
  2 14  1  0  0  0  0
  3  4  1  0  0  0  0
  4  6  2  0  0  0  0
  5 11  2  0  0  0  0
  6 26  1  0  0  0  0
  7  9  2  0  0  0  0
  8  6  1  0  0  0  0
  9 13  1  0  0  0  0
  9  1  1  0  0  0  0
 10  1  1  0  0  0  0
 10  3  2  0  0  0  0
 11  7  1  0  0  0  0
 12 10  1  0  0  0  0
 14  7  1  0  0  0  0
 14 12  2  0  0  0  0
 15  5  1  0  0  0  0
 15  2  2  0  0  0  0
 16 19  2  0  0  0  0
 16 17  1  0  0  0  0
 17 18  1  0  0  0  0
 18 21  1  0  0  0  0
 19 20  1  0  0  0  0
 20  2  1  0  0  0  0
 20 18  2  0  0  0  0
 21 22  1  0  0  0  0
 23 16  1  0  0  0  0
 24 25  1  0  0  0  0
 25 23  1  0  0  0  0
 27 29  2  0  0  0  0
 28 26  1  0  0  0  0
 28 27  1  0  0  0  0
 30 27  1  0  0  0  0
 30 31  2  0  0  0  0
 32 30  1  0  0  0  0
 33 34  1  0  0  0  0
 34 32  1  0  0  0  0
M  END
>  <MODEL>
8

>  <REMARK>
 VINA RESULT:      -7.8      4.176      7.920
  Name = 
  9 active torsions:
  status: ('A' for Active; 'I' for Inactive)
    1  A    between atoms: C_1  and  C_11
    2  A    between atoms: C_2  and  C_20
    3  A    between atoms: C_4  and  C_8
    4  A    between atoms: C_7  and  C_30
    5  A    between atoms: C_11  and  N_21
    6  A    between atoms: C_12  and  N_15
    7  A    between atoms: C_12  and  C_17
    8  A    between atoms: C_13  and  O_27
    9  A    between atoms: C_20  and  O_27
                            x       y       z     vdW  Elec       q    Type
                         _______ _______ _______ _____ _____    ______ ____

>  <TORSDO>
F 9

$$$$
=
 OpenBabel10222421113D

 34 37  0  0  0  0  0  0  0  0999 V2000
  189.7770  177.7130  140.5930 C   0  0  0  0  0  0  0  0  0  0  0  0
  189.1230  177.6180  144.7440 C   0  0  0  0  0  0  0  0  0  0  0  0
  187.4140  178.2140  140.2970 C   0  0  0  0  0  3  0  0  0  0  0  0
  187.6000  178.2530  138.9120 C   0  0  0  0  0  3  0  0  0  0  0  0
  191.4840  177.1390  145.0340 C   0  0  0  0  0  3  0  0  0  0  0  0
  188.8680  178.0290  138.3650 C   0  0  0  0  0  0  0  0  0  0  0  0
  190.6320  177.4140  142.8380 C   0  0  0  0  0  0  0  0  0  0  0  0
  189.9530  177.7540  139.2040 C   0  0  0  0  0  3  0  0  0  0  0  0
  190.8480  177.4450  141.4540 C   0  0  0  0  0  0  0  0  0  0  0  0
  188.4950  177.9470  141.1390 C   0  0  0  0  0  0  0  0  0  0  0  0
  191.6640  177.1690  143.6890 N   0  0  0  0  0  0  0  0  0  0  0  0
  188.3110  177.9080  142.4850 N   0  0  0  0  0  0  0  0  0  0  0  0
  192.1230  177.2150  140.9430 O   0  0  0  0  0  1  0  0  0  0  0  0
  189.3330  177.6440  143.3470 C   0  0  0  0  0  0  0  0  0  0  0  0
  190.2190  177.3600  145.5790 C   0  0  0  0  0  3  0  0  0  0  0  0
  185.5310  178.2600  145.6330 C   0  0  0  0  0  0  0  0  0  0  0  0
  186.0230  177.9160  146.8110 C   0  0  0  0  0  2  0  0  0  0  0  0
  187.4370  177.6340  146.6190 C   0  0  0  0  0  0  0  0  0  0  0  0
  186.5720  178.2520  144.5650 C   0  0  0  0  0  3  0  0  0  0  0  0
  187.7750  177.8200  145.3410 C   0  0  0  0  0  0  0  0  0  0  0  0
  188.3500  177.2260  147.7290 C   0  0  0  0  0  2  0  0  0  0  0  0
  188.3050  178.2530  148.8440 C   0  0  0  0  0  1  0  0  0  0  0  0
  184.1100  178.6510  145.4050 C   0  0  0  0  0  2  0  0  0  0  0  0
  182.5230  179.0030  143.7240 C   0  0  0  0  0  1  0  0  0  0  0  0
  183.9320  179.1390  144.0470 N   0  0  0  0  0  2  0  0  0  0  0  0
  189.0550  178.0470  136.8900 C   0  0  0  0  0  2  0  0  0  0  0  0
  189.6170  175.6850  136.2080 C   0  0  0  0  0  0  0  0  0  0  0  0
  190.0150  177.0240  136.5040 N   0  0  0  0  0  2  0  0  0  0  0  0
  188.4020  175.3530  136.2760 O   0  0  0  0  0  0  0  0  0  0  0  0
  190.6230  174.6900  135.8240 C   0  0  0  0  0  0  0  0  0  0  0  0
  190.2800  173.6740  135.1600 O   0  0  0  0  0  0  0  0  0  0  0  0
  191.9550  174.8760  136.1990 O   0  0  0  0  0  0  0  0  0  0  0  0
  193.1870  175.9640  137.9420 C   0  0  0  0  0  1  0  0  0  0  0  0
  192.3800  174.7450  137.5480 C   0  0  0  0  0  2  0  0  0  0  0  0
  1 10  1  0  0  0  0
  1  9  2  0  0  0  0
  2 20  1  0  0  0  0
  2 15  1  0  0  0  0
  3 10  1  0  0  0  0
  4  3  2  0  0  0  0
  5 15  2  0  0  0  0
  6  4  1  0  0  0  0
  6  8  2  0  0  0  0
  7 14  1  0  0  0  0
  7 11  2  0  0  0  0
  8  1  1  0  0  0  0
  9  7  1  0  0  0  0
 10 12  2  0  0  0  0
 11  5  1  0  0  0  0
 12 14  1  0  0  0  0
 13  9  1  0  0  0  0
 14  2  2  0  0  0  0
 16 17  1  0  0  0  0
 18 17  1  0  0  0  0
 18 21  1  0  0  0  0
 19 20  1  0  0  0  0
 19 16  2  0  0  0  0
 20 18  2  0  0  0  0
 21 22  1  0  0  0  0
 23 16  1  0  0  0  0
 24 25  1  0  0  0  0
 25 23  1  0  0  0  0
 26  6  1  0  0  0  0
 27 29  2  0  0  0  0
 27 28  1  0  0  0  0
 28 26  1  0  0  0  0
 30 32  1  0  0  0  0
 30 27  1  0  0  0  0
 31 30  2  0  0  0  0
 32 34  1  0  0  0  0
 34 33  1  0  0  0  0
M  END
>  <MODEL>
9

>  <REMARK>
 VINA RESULT:      -7.7      3.440      9.730
  Name = 
  9 active torsions:
  status: ('A' for Active; 'I' for Inactive)
    1  A    between atoms: C_1  and  C_11
    2  A    between atoms: C_2  and  C_20
    3  A    between atoms: C_4  and  C_8
    4  A    between atoms: C_7  and  C_30
    5  A    between atoms: C_11  and  N_21
    6  A    between atoms: C_12  and  N_15
    7  A    between atoms: C_12  and  C_17
    8  A    between atoms: C_13  and  O_27
    9  A    between atoms: C_20  and  O_27
                            x       y       z     vdW  Elec       q    Type
                         _______ _______ _______ _____ _____    ______ ____

>  <TORSDO>
F 9

$$$$
