=
 OpenBabel10222421123D

 37 38  0  0  1  0  0  0  0  0999 V2000
  191.7420  177.3810  146.0590 O   0  0  0  0  0  0  0  0  0  0  0  0
  191.6590  177.6400  144.7380 O   0  0  0  0  0  0  0  0  0  0  0  0
  189.6630  177.1650  145.7810 C   0  0  0  0  0  0  0  0  0  0  0  0
  190.2790  177.4740  144.4620 C   0  0  2  0  0  3  0  0  0  0  0  0
  190.5560  177.1110  146.6870 N   0  0  0  0  0  0  0  0  0  0  0  0
  190.0880  176.3420  143.4960 C   0  0  0  0  0  0  0  0  0  0  0  0
  188.9960  176.3420  142.5750 N   0  0  0  0  0  2  0  0  0  0  0  0
  190.9000  175.3790  143.4880 O   0  0  0  0  0  0  0  0  0  0  0  0
  188.0520  177.4450  142.4760 C   0  0  0  0  0  2  0  0  0  0  0  0
  187.5080  179.1500  140.9010 O   0  0  0  0  0  0  0  0  0  0  0  0
  189.0750  177.5640  140.1730 N   0  0  0  0  0  2  0  0  0  0  0  0
  189.2860  178.1000  138.8620 C   0  0  0  0  0  0  0  0  0  0  0  0
  188.7320  179.1760  138.5050 O   0  0  0  0  0  0  0  0  0  0  0  0
  188.1950  178.1220  141.1550 C   0  0  0  0  0  0  0  0  0  0  0  0
  190.1670  177.3750  137.9040 C   0  0  0  0  0  2  0  0  0  0  0  0
  190.8980  176.2410  138.6050 C   0  0  0  0  0  2  0  0  0  0  0  0
  192.8630  177.1650  139.8680 C   0  0  0  0  0  0  0  0  0  0  0  0
  194.0960  177.4120  139.9230 O   0  0  0  0  0  0  0  0  0  0  0  0
  192.0450  177.5040  140.9400 O   0  0  0  0  0  1  0  0  0  0  0  0
  192.3160  176.5470  138.7050 N   0  0  0  0  0  2  0  0  0  0  0  0
  188.2140  176.9260  146.0480 C   0  0  0  0  0  2  0  0  0  0  0  0
  186.6220  178.3790  147.2670 C   0  0  0  0  0  2  0  0  0  0  0  0
  187.4460  178.2330  146.0040 C   0  0  2  0  0  3  0  0  0  0  0  0
  185.9630  177.9200  145.9840 C   0  0  2  0  0  3  0  0  0  0  0  0
  185.2120  179.0860  145.3710 C   0  0  0  0  0  2  0  0  0  0  0  0
  183.7590  178.7040  145.1720 C   0  0  0  0  0  2  0  0  0  0  0  0
  183.1630  179.4660  143.9990 C   0  0  0  0  0  2  0  0  0  0  0  0
  183.6500  178.7050  142.4180 S   0  0  0  0  0  0  0  0  0  0  0  0
  181.9260  178.4260  141.9000 C   0  0  1  0  0  3  0  0  0  0  0  0
  181.0090  179.4380  142.5720 C   0  0  0  0  0  2  0  0  0  0  0  0
  179.0440  179.6110  143.8130 C   0  0  0  0  0  1  0  0  0  0  0  0
  179.6760  178.8780  142.7320 N   0  0  0  0  0  2  0  0  0  0  0  0
  181.7940  178.4220  140.3730 C   0  0  0  0  0  2  0  0  0  0  0  0
  182.8660  179.2470  139.6690 C   0  0  0  0  0  2  0  0  0  0  0  0
  183.4270  178.4840  138.4800 C   0  0  0  0  0  2  0  0  0  0  0  0
  184.8990  178.1710  138.6960 C   0  0  0  0  0  2  0  0  0  0  0  0
  185.6840  178.9430  137.8340 O   0  0  0  0  0  1  0  0  0  0  0  0
  1  5  1  0  0  0  0
  2  1  1  0  0  0  0
  3 21  1  0  0  0  0
  3  5  2  0  0  0  0
  4  6  1  6  0  0  0
  4  2  1  0  0  0  0
  4  3  1  0  0  0  0
  7  6  1  0  0  0  0
  8  6  2  0  0  0  0
  9  7  1  0  0  0  0
 10 14  2  0  0  0  0
 11 14  1  0  0  0  0
 12 11  1  0  0  0  0
 13 12  2  0  0  0  0
 14  9  1  0  0  0  0
 15 16  1  0  0  0  0
 15 12  1  0  0  0  0
 16 20  1  0  0  0  0
 17 18  2  0  0  0  0
 17 19  1  0  0  0  0
 20 17  1  0  0  0  0
 23 21  1  1  0  0  0
 23 22  1  0  0  0  0
 24 25  1  6  0  0  0
 24 23  1  0  0  0  0
 24 22  1  0  0  0  0
 26 25  1  0  0  0  0
 27 26  1  0  0  0  0
 28 27  1  0  0  0  0
 29 33  1  6  0  0  0
 29 28  1  0  0  0  0
 29 30  1  0  0  0  0
 30 32  1  0  0  0  0
 32 31  1  0  0  0  0
 34 33  1  0  0  0  0
 35 36  1  0  0  0  0
 35 34  1  0  0  0  0
 37 36  1  0  0  0  0
M  END
>  <MODEL>
1

>  <REMARK>
 VINA RESULT:      -6.8      0.000      0.000
  Name = 
  19 active torsions:
  status: ('A' for Active; 'I' for Inactive)
    1  A    between atoms: C_2  and  C_29
    2  A    between atoms: C_2  and  C_37
    3  A    between atoms: C_3  and  C_6
    4  A    between atoms: C_3  and  C_29
    5  A    between atoms: C_4  and  C_16
    6  A    between atoms: C_4  and  S_21
    7  A    between atoms: C_7  and  C_27
    8  A    between atoms: C_7  and  C_32
    9  A    between atoms: C_10  and  N_22
   10  A    between atoms: C_10  and  C_35
   11  A    between atoms: C_15  and  C_25
   12  A    between atoms: C_15  and  C_26
   13  A    between atoms: C_16  and  C_20
   14  A    between atoms: C_17  and  C_34
   15  A    between atoms: C_18  and  N_24
   16  A    between atoms: C_18  and  C_37
   17  A    between atoms: C_20  and  C_33
   18  A    between atoms: S_21  and  C_37
   19  A    between atoms: N_30  and  C_32
                            x       y       z     vdW  Elec       q    Type
                         _______ _______ _______ _____ _____    ______ ____

>  <TORSDO>
F 19

$$$$
=
 OpenBabel10222421123D

 37 38  0  0  1  0  0  0  0  0999 V2000
  186.5320  178.8910  139.8160 O   0  0  0  0  0  0  0  0  0  0  0  0
  186.4510  178.4800  138.5330 O   0  0  0  0  0  0  0  0  0  0  0  0
  188.3890  177.9090  139.6330 C   0  0  0  0  0  0  0  0  0  0  0  0
  187.6940  177.8370  138.3190 C   0  0  2  0  0  3  0  0  0  0  0  0
  187.6790  178.5440  140.4780 N   0  0  0  0  0  0  0  0  0  0  0  0
  188.4650  178.5640  137.2570 C   0  0  0  0  0  0  0  0  0  0  0  0
  188.7930  177.9240  136.0230 N   0  0  0  0  0  2  0  0  0  0  0  0
  188.8260  179.7550  137.4470 O   0  0  0  0  0  0  0  0  0  0  0  0
  188.3580  176.5740  135.6980 C   0  0  0  0  0  2  0  0  0  0  0  0
  188.8040  174.6020  136.9610 O   0  0  0  0  0  0  0  0  0  0  0  0
  190.6940  175.7690  136.2070 N   0  0  0  0  0  2  0  0  0  0  0  0
  191.6840  174.9030  136.7700 C   0  0  0  0  0  0  0  0  0  0  0  0
  191.3520  173.8420  137.3660 O   0  0  0  0  0  0  0  0  0  0  0  0
  189.2780  175.5780  136.3150 C   0  0  0  0  0  0  0  0  0  0  0  0
  193.1260  175.2620  136.6570 C   0  0  0  0  0  2  0  0  0  0  0  0
  193.8200  175.1100  138.0010 C   0  0  0  0  0  2  0  0  0  0  0  0
  196.0020  173.9040  138.3110 C   0  0  0  0  0  0  0  0  0  0  0  0
  197.2450  173.8490  138.1260 O   0  0  0  0  0  0  0  0  0  0  0  0
  195.3650  172.8820  139.0070 O   0  0  0  0  0  1  0  0  0  0  0  0
  195.2590  175.0140  137.8120 N   0  0  0  0  0  2  0  0  0  0  0  0
  189.7360  177.3510  139.9550 C   0  0  0  0  0  2  0  0  0  0  0  0
  191.5720  177.3710  141.6170 C   0  0  0  0  0  2  0  0  0  0  0  0
  190.0970  177.6410  141.3990 C   0  0  2  0  0  3  0  0  0  0  0  0
  190.5430  176.3500  142.0540 C   0  0  2  0  0  3  0  0  0  0  0  0
  190.3520  176.4540  143.5540 C   0  0  0  0  0  2  0  0  0  0  0  0
  190.1870  177.9100  143.9440 C   0  0  0  0  0  2  0  0  0  0  0  0
  189.0570  178.0680  144.9480 C   0  0  0  0  0  2  0  0  0  0  0  0
  187.5440  177.2440  144.3570 S   0  0  0  0  0  0  0  0  0  0  0  0
  186.6650  177.4950  145.9320 C   0  0  1  0  0  3  0  0  0  0  0  0
  187.5770  177.1490  147.1010 C   0  0  0  0  0  2  0  0  0  0  0  0
  188.8270  178.3340  148.6700 C   0  0  0  0  0  1  0  0  0  0  0  0
  187.4920  178.1780  148.1250 N   0  0  0  0  0  2  0  0  0  0  0  0
  186.0830  178.9100  146.0290 C   0  0  0  0  0  2  0  0  0  0  0  0
  184.6360  179.0050  145.5550 C   0  0  0  0  0  2  0  0  0  0  0  0
  184.5790  179.5260  144.1280 C   0  0  0  0  0  2  0  0  0  0  0  0
  183.4650  178.8370  143.3560 C   0  0  0  0  0  2  0  0  0  0  0  0
  182.3670  178.6170  144.1930 O   0  0  0  0  0  1  0  0  0  0  0  0
  1  5  1  0  0  0  0
  2  1  1  0  0  0  0
  3 21  1  0  0  0  0
  3  5  2  0  0  0  0
  4  6  1  6  0  0  0
  4  2  1  0  0  0  0
  4  3  1  0  0  0  0
  6  8  2  0  0  0  0
  7  6  1  0  0  0  0
  9  7  1  0  0  0  0
  9 14  1  0  0  0  0
 11 14  1  0  0  0  0
 11 12  1  0  0  0  0
 12 13  2  0  0  0  0
 14 10  2  0  0  0  0
 15 12  1  0  0  0  0
 15 16  1  0  0  0  0
 17 19  1  0  0  0  0
 18 17  2  0  0  0  0
 20 16  1  0  0  0  0
 20 17  1  0  0  0  0
 22 24  1  0  0  0  0
 23 21  1  6  0  0  0
 23 22  1  0  0  0  0
 23 24  1  0  0  0  0
 24 25  1  1  0  0  0
 25 26  1  0  0  0  0
 26 27  1  0  0  0  0
 28 27  1  0  0  0  0
 28 29  1  0  0  0  0
 29 33  1  1  0  0  0
 29 30  1  0  0  0  0
 30 32  1  0  0  0  0
 32 31  1  0  0  0  0
 34 33  1  0  0  0  0
 35 34  1  0  0  0  0
 36 35  1  0  0  0  0
 36 37  1  0  0  0  0
M  END
>  <MODEL>
2

>  <REMARK>
 VINA RESULT:      -6.6      3.523      6.489
  Name = 
  19 active torsions:
  status: ('A' for Active; 'I' for Inactive)
    1  A    between atoms: C_2  and  C_29
    2  A    between atoms: C_2  and  C_37
    3  A    between atoms: C_3  and  C_6
    4  A    between atoms: C_3  and  C_29
    5  A    between atoms: C_4  and  C_16
    6  A    between atoms: C_4  and  S_21
    7  A    between atoms: C_7  and  C_27
    8  A    between atoms: C_7  and  C_32
    9  A    between atoms: C_10  and  N_22
   10  A    between atoms: C_10  and  C_35
   11  A    between atoms: C_15  and  C_25
   12  A    between atoms: C_15  and  C_26
   13  A    between atoms: C_16  and  C_20
   14  A    between atoms: C_17  and  C_34
   15  A    between atoms: C_18  and  N_24
   16  A    between atoms: C_18  and  C_37
   17  A    between atoms: C_20  and  C_33
   18  A    between atoms: S_21  and  C_37
   19  A    between atoms: N_30  and  C_32
                            x       y       z     vdW  Elec       q    Type
                         _______ _______ _______ _____ _____    ______ ____

>  <TORSDO>
F 19

$$$$
=
 OpenBabel10222421123D

 37 38  0  0  1  0  0  0  0  0999 V2000
  191.8280  175.9770  147.3790 O   0  0  0  0  0  0  0  0  0  0  0  0
  190.5550  175.7930  147.7840 O   0  0  0  0  0  0  0  0  0  0  0  0
  190.8220  177.1670  145.9580 C   0  0  0  0  0  0  0  0  0  0  0  0
  189.8100  176.6020  146.8920 C   0  0  2  0  0  3  0  0  0  0  0  0
  191.9910  176.7850  146.2850 N   0  0  0  0  0  0  0  0  0  0  0  0
  189.1100  177.6870  147.6550 C   0  0  0  0  0  0  0  0  0  0  0  0
  187.7720  178.0650  147.3300 N   0  0  0  0  0  2  0  0  0  0  0  0
  189.7030  178.2740  148.5990 O   0  0  0  0  0  0  0  0  0  0  0  0
  186.9940  177.3940  146.2990 C   0  0  0  0  0  2  0  0  0  0  0  0
  185.0560  178.5310  147.0950 O   0  0  0  0  0  0  0  0  0  0  0  0
  185.1700  178.2320  144.7720 N   0  0  0  0  0  2  0  0  0  0  0  0
  183.9280  178.8650  144.4430 C   0  0  0  0  0  0  0  0  0  0  0  0
  183.2280  179.4190  145.3340 O   0  0  0  0  0  0  0  0  0  0  0  0
  185.6970  178.0990  146.0970 C   0  0  0  0  0  0  0  0  0  0  0  0
  183.4530  178.8620  143.0300 C   0  0  0  0  0  2  0  0  0  0  0  0
  184.5260  178.3050  142.1080 C   0  0  0  0  0  2  0  0  0  0  0  0
  184.1830  179.2910  139.8240 C   0  0  0  0  0  0  0  0  0  0  0  0
  184.4910  180.1510  138.9580 O   0  0  0  0  0  0  0  0  0  0  0  0
  183.1920  178.3570  139.5430 O   0  0  0  0  0  1  0  0  0  0  0  0
  184.8570  179.2790  141.0800 N   0  0  0  0  0  2  0  0  0  0  0  0
  190.5530  178.0730  144.8030 C   0  0  0  0  0  2  0  0  0  0  0  0
  191.1020  177.8070  142.4030 C   0  0  0  0  0  2  0  0  0  0  0  0
  190.2750  177.2650  143.5500 C   0  0  2  0  0  3  0  0  0  0  0  0
  189.6380  178.1750  142.5200 C   0  0  2  0  0  3  0  0  0  0  0  0
  188.8400  177.3410  141.5370 C   0  0  0  0  0  2  0  0  0  0  0  0
  189.5530  177.3140  140.1990 C   0  0  0  0  0  2  0  0  0  0  0  0
  189.0090  178.4000  139.2840 C   0  0  0  0  0  2  0  0  0  0  0  0
  189.3640  178.0150  137.5400 S   0  0  0  0  0  0  0  0  0  0  0  0
  188.8490  176.2760  137.7090 C   0  0  1  0  0  3  0  0  0  0  0  0
  187.3960  176.1190  137.2840 C   0  0  0  0  0  2  0  0  0  0  0  0
  185.8500  177.0690  135.8230 C   0  0  0  0  0  1  0  0  0  0  0  0
  186.8760  177.3870  136.7970 N   0  0  0  0  0  2  0  0  0  0  0  0
  189.7960  175.3360  136.9540 C   0  0  0  0  0  2  0  0  0  0  0  0
  191.1260  175.9840  136.5820 C   0  0  0  0  0  2  0  0  0  0  0  0
  192.2860  175.1140  137.0390 C   0  0  0  0  0  2  0  0  0  0  0  0
  193.0850  175.8210  138.1220 C   0  0  0  0  0  2  0  0  0  0  0  0
  193.6810  176.9740  137.6020 O   0  0  0  0  0  1  0  0  0  0  0  0
  1  2  1  0  0  0  0
  3  5  2  0  0  0  0
  3  4  1  0  0  0  0
  4  6  1  1  0  0  0
  4  2  1  0  0  0  0
  5  1  1  0  0  0  0
  6  8  2  0  0  0  0
  7  6  1  0  0  0  0
  9  7  1  0  0  0  0
 11 14  1  0  0  0  0
 12 11  1  0  0  0  0
 12 13  2  0  0  0  0
 14  9  1  0  0  0  0
 14 10  2  0  0  0  0
 15 12  1  0  0  0  0
 16 15  1  0  0  0  0
 17 20  1  0  0  0  0
 18 17  2  0  0  0  0
 19 17  1  0  0  0  0
 20 16  1  0  0  0  0
 21  3  1  0  0  0  0
 22 24  1  0  0  0  0
 22 23  1  0  0  0  0
 23 21  1  1  0  0  0
 24 25  1  6  0  0  0
 24 23  1  0  0  0  0
 26 25  1  0  0  0  0
 27 26  1  0  0  0  0
 28 29  1  0  0  0  0
 28 27  1  0  0  0  0
 29 33  1  6  0  0  0
 30 29  1  0  0  0  0
 31 32  1  0  0  0  0
 32 30  1  0  0  0  0
 34 33  1  0  0  0  0
 34 35  1  0  0  0  0
 35 36  1  0  0  0  0
 37 36  1  0  0  0  0
M  END
>  <MODEL>
3

>  <REMARK>
 VINA RESULT:      -6.6      2.974      7.163
  Name = 
  19 active torsions:
  status: ('A' for Active; 'I' for Inactive)
    1  A    between atoms: C_2  and  C_29
    2  A    between atoms: C_2  and  C_37
    3  A    between atoms: C_3  and  C_6
    4  A    between atoms: C_3  and  C_29
    5  A    between atoms: C_4  and  C_16
    6  A    between atoms: C_4  and  S_21
    7  A    between atoms: C_7  and  C_27
    8  A    between atoms: C_7  and  C_32
    9  A    between atoms: C_10  and  N_22
   10  A    between atoms: C_10  and  C_35
   11  A    between atoms: C_15  and  C_25
   12  A    between atoms: C_15  and  C_26
   13  A    between atoms: C_16  and  C_20
   14  A    between atoms: C_17  and  C_34
   15  A    between atoms: C_18  and  N_24
   16  A    between atoms: C_18  and  C_37
   17  A    between atoms: C_20  and  C_33
   18  A    between atoms: S_21  and  C_37
   19  A    between atoms: N_30  and  C_32
                            x       y       z     vdW  Elec       q    Type
                         _______ _______ _______ _____ _____    ______ ____

>  <TORSDO>
F 19

$$$$
=
 OpenBabel10222421123D

 37 38  0  0  1  0  0  0  0  0999 V2000
  191.7460  177.3120  146.1740 O   0  0  0  0  0  0  0  0  0  0  0  0
  191.6720  177.6890  144.8810 O   0  0  0  0  0  0  0  0  0  0  0  0
  189.6650  177.1500  145.8690 C   0  0  0  0  0  0  0  0  0  0  0  0
  190.2920  177.5670  144.5850 C   0  0  2  0  0  3  0  0  0  0  0  0
  190.5520  177.0020  146.7700 N   0  0  0  0  0  0  0  0  0  0  0  0
  190.0910  176.5290  143.5210 C   0  0  0  0  0  0  0  0  0  0  0  0
  189.1230  176.7170  142.4880 N   0  0  0  0  0  2  0  0  0  0  0  0
  190.7850  175.4780  143.5300 O   0  0  0  0  0  0  0  0  0  0  0  0
  188.3270  177.9300  142.3690 C   0  0  0  0  0  2  0  0  0  0  0  0
  187.0300  178.8290  140.5820 O   0  0  0  0  0  0  0  0  0  0  0  0
  189.0690  177.8510  139.9590 N   0  0  0  0  0  2  0  0  0  0  0  0
  188.9590  178.0760  138.5490 C   0  0  0  0  0  0  0  0  0  0  0  0
  187.9870  178.7220  138.0700 O   0  0  0  0  0  0  0  0  0  0  0  0
  188.0960  178.2500  140.9320 C   0  0  0  0  0  0  0  0  0  0  0  0
  190.0030  177.5340  137.6340 C   0  0  0  0  0  2  0  0  0  0  0  0
  190.6740  176.3180  138.2520 C   0  0  0  0  0  2  0  0  0  0  0  0
  193.1710  176.3560  137.9800 C   0  0  0  0  0  0  0  0  0  0  0  0
  194.1930  176.0440  137.3150 O   0  0  0  0  0  0  0  0  0  0  0  0
  193.3130  177.0680  139.1650 O   0  0  0  0  0  1  0  0  0  0  0  0
  191.8780  175.9810  137.5090 N   0  0  0  0  0  2  0  0  0  0  0  0
  188.2120  176.9080  146.1080 C   0  0  0  0  0  2  0  0  0  0  0  0
  186.3720  178.3420  146.9390 C   0  0  0  0  0  2  0  0  0  0  0  0
  187.4160  178.1730  145.8540 C   0  0  2  0  0  3  0  0  0  0  0  0
  185.9750  177.7910  145.5860 C   0  0  2  0  0  3  0  0  0  0  0  0
  185.3040  178.8900  144.7840 C   0  0  0  0  0  2  0  0  0  0  0  0
  183.8140  178.8850  145.0660 C   0  0  0  0  0  2  0  0  0  0  0  0
  183.0330  179.2220  143.8060 C   0  0  0  0  0  2  0  0  0  0  0  0
  183.9220  178.6550  142.3220 S   0  0  0  0  0  0  0  0  0  0  0  0
  182.4200  178.6610  141.2910 C   0  0  1  0  0  3  0  0  0  0  0  0
  182.4540  177.4960  140.3120 C   0  0  0  0  0  2  0  0  0  0  0  0
  183.3900  178.7070  138.5550 C   0  0  0  0  0  1  0  0  0  0  0  0
  183.6260  177.5950  139.4560 N   0  0  0  0  0  2  0  0  0  0  0  0
  181.1510  178.6810  142.1500 C   0  0  0  0  0  2  0  0  0  0  0  0
  180.1350  179.7290  141.7080 C   0  0  0  0  0  2  0  0  0  0  0  0
  180.4550  180.2190  140.3050 C   0  0  0  0  0  2  0  0  0  0  0  0
  179.4060  179.7300  139.3190 C   0  0  0  0  0  2  0  0  0  0  0  0
  179.9450  179.6860  138.0290 O   0  0  0  0  0  1  0  0  0  0  0  0
  1  5  1  0  0  0  0
  2  1  1  0  0  0  0
  3 21  1  0  0  0  0
  3  5  2  0  0  0  0
  4  6  1  6  0  0  0
  4  2  1  0  0  0  0
  4  3  1  0  0  0  0
  6  8  2  0  0  0  0
  7  6  1  0  0  0  0
  9  7  1  0  0  0  0
 10 14  2  0  0  0  0
 11 14  1  0  0  0  0
 12 11  1  0  0  0  0
 13 12  2  0  0  0  0
 14  9  1  0  0  0  0
 15 16  1  0  0  0  0
 15 12  1  0  0  0  0
 17 19  1  0  0  0  0
 18 17  2  0  0  0  0
 20 17  1  0  0  0  0
 20 16  1  0  0  0  0
 23 21  1  1  0  0  0
 23 22  1  0  0  0  0
 24 25  1  6  0  0  0
 24 23  1  0  0  0  0
 24 22  1  0  0  0  0
 25 26  1  0  0  0  0
 27 26  1  0  0  0  0
 28 27  1  0  0  0  0
 29 30  1  1  0  0  0
 29 33  1  0  0  0  0
 29 28  1  0  0  0  0
 31 32  1  0  0  0  0
 32 30  1  0  0  0  0
 34 33  1  0  0  0  0
 35 34  1  0  0  0  0
 36 35  1  0  0  0  0
 37 36  1  0  0  0  0
M  END
>  <MODEL>
4

>  <REMARK>
 VINA RESULT:      -6.6      1.639      2.370
  Name = 
  19 active torsions:
  status: ('A' for Active; 'I' for Inactive)
    1  A    between atoms: C_2  and  C_29
    2  A    between atoms: C_2  and  C_37
    3  A    between atoms: C_3  and  C_6
    4  A    between atoms: C_3  and  C_29
    5  A    between atoms: C_4  and  C_16
    6  A    between atoms: C_4  and  S_21
    7  A    between atoms: C_7  and  C_27
    8  A    between atoms: C_7  and  C_32
    9  A    between atoms: C_10  and  N_22
   10  A    between atoms: C_10  and  C_35
   11  A    between atoms: C_15  and  C_25
   12  A    between atoms: C_15  and  C_26
   13  A    between atoms: C_16  and  C_20
   14  A    between atoms: C_17  and  C_34
   15  A    between atoms: C_18  and  N_24
   16  A    between atoms: C_18  and  C_37
   17  A    between atoms: C_20  and  C_33
   18  A    between atoms: S_21  and  C_37
   19  A    between atoms: N_30  and  C_32
                            x       y       z     vdW  Elec       q    Type
                         _______ _______ _______ _____ _____    ______ ____

>  <TORSDO>
F 19

$$$$
=
 OpenBabel10222421123D

 37 38  0  0  1  0  0  0  0  0999 V2000
  191.2950  177.3850  146.5980 O   0  0  0  0  0  0  0  0  0  0  0  0
  191.8440  177.5540  145.3770 O   0  0  0  0  0  0  0  0  0  0  0  0
  189.5850  177.1190  145.3940 C   0  0  0  0  0  0  0  0  0  0  0  0
  190.7510  177.3500  144.5000 C   0  0  2  0  0  3  0  0  0  0  0  0
  189.9480  177.1380  146.6140 N   0  0  0  0  0  0  0  0  0  0  0  0
  191.0150  176.1540  143.6320 C   0  0  0  0  0  0  0  0  0  0  0  0
  190.4680  176.0700  142.3150 N   0  0  0  0  0  2  0  0  0  0  0  0
  191.7310  175.2120  144.0630 O   0  0  0  0  0  0  0  0  0  0  0  0
  189.6860  177.1430  141.7190 C   0  0  0  0  0  2  0  0  0  0  0  0
  189.4010  178.1150  139.5620 O   0  0  0  0  0  0  0  0  0  0  0  0
  190.7540  176.2010  139.6370 N   0  0  0  0  0  2  0  0  0  0  0  0
  191.0570  176.1320  138.2390 C   0  0  0  0  0  0  0  0  0  0  0  0
  190.6570  177.0280  137.4460 O   0  0  0  0  0  0  0  0  0  0  0  0
  189.9400  177.2060  140.2520 C   0  0  0  0  0  0  0  0  0  0  0  0
  191.8490  174.9850  137.7140 C   0  0  0  0  0  2  0  0  0  0  0  0
  193.1790  175.4660  137.1570 C   0  0  0  0  0  2  0  0  0  0  0  0
  195.2430  174.6290  138.3190 C   0  0  0  0  0  0  0  0  0  0  0  0
  196.0800  174.7390  139.2520 O   0  0  0  0  0  1  0  0  0  0  0  0
  195.3760  173.6010  137.3930 O   0  0  0  0  0  0  0  0  0  0  0  0
  194.1640  175.5560  138.2240 N   0  0  0  0  0  2  0  0  0  0  0  0
  188.1750  176.8770  144.9670 C   0  0  0  0  0  2  0  0  0  0  0  0
  186.3290  177.9610  146.2100 C   0  0  0  0  0  2  0  0  0  0  0  0
  187.3530  178.1430  145.1090 C   0  0  2  0  0  3  0  0  0  0  0  0
  185.9140  177.8260  144.7600 C   0  0  2  0  0  3  0  0  0  0  0  0
  185.2100  179.0980  144.3290 C   0  0  0  0  0  2  0  0  0  0  0  0
  183.7260  178.9780  144.6160 C   0  0  0  0  0  2  0  0  0  0  0  0
  182.9540  178.7230  143.3310 C   0  0  0  0  0  2  0  0  0  0  0  0
  184.0900  178.4530  141.9350 S   0  0  0  0  0  0  0  0  0  0  0  0
  182.8540  178.9520  140.6940 C   0  0  1  0  0  3  0  0  0  0  0  0
  183.4910  179.0020  139.3130 C   0  0  0  0  0  2  0  0  0  0  0  0
  185.5970  178.5300  138.4340 C   0  0  0  0  0  1  0  0  0  0  0  0
  184.9030  179.3320  139.4240 N   0  0  0  0  0  2  0  0  0  0  0  0
  181.6140  178.0520  140.7460 C   0  0  0  0  0  2  0  0  0  0  0  0
  180.3680  178.7000  140.1520 C   0  0  0  0  0  2  0  0  0  0  0  0
  180.1390  180.0720  140.7670 C   0  0  0  0  0  2  0  0  0  0  0  0
  179.4750  179.9390  142.1290 C   0  0  0  0  0  2  0  0  0  0  0  0
  180.1000  180.7840  143.0510 O   0  0  0  0  0  1  0  0  0  0  0  0
  1  5  1  0  0  0  0
  2  1  1  0  0  0  0
  3  5  2  0  0  0  0
  4  6  1  6  0  0  0
  4  2  1  0  0  0  0
  4  3  1  0  0  0  0
  6  8  2  0  0  0  0
  7  6  1  0  0  0  0
  9  7  1  0  0  0  0
 10 14  2  0  0  0  0
 11 14  1  0  0  0  0
 12 11  1  0  0  0  0
 13 12  2  0  0  0  0
 14  9  1  0  0  0  0
 15 12  1  0  0  0  0
 16 15  1  0  0  0  0
 16 20  1  0  0  0  0
 17 18  1  0  0  0  0
 19 17  2  0  0  0  0
 20 17  1  0  0  0  0
 21  3  1  0  0  0  0
 23 21  1  1  0  0  0
 23 22  1  0  0  0  0
 24 25  1  6  0  0  0
 24 23  1  0  0  0  0
 24 22  1  0  0  0  0
 25 26  1  0  0  0  0
 27 26  1  0  0  0  0
 28 27  1  0  0  0  0
 29 30  1  6  0  0  0
 29 33  1  0  0  0  0
 29 28  1  0  0  0  0
 30 32  1  0  0  0  0
 31 32  1  0  0  0  0
 34 33  1  0  0  0  0
 34 35  1  0  0  0  0
 35 36  1  0  0  0  0
 36 37  1  0  0  0  0
M  END
>  <MODEL>
5

>  <REMARK>
 VINA RESULT:      -6.5      2.291      3.284
  Name = 
  19 active torsions:
  status: ('A' for Active; 'I' for Inactive)
    1  A    between atoms: C_2  and  C_29
    2  A    between atoms: C_2  and  C_37
    3  A    between atoms: C_3  and  C_6
    4  A    between atoms: C_3  and  C_29
    5  A    between atoms: C_4  and  C_16
    6  A    between atoms: C_4  and  S_21
    7  A    between atoms: C_7  and  C_27
    8  A    between atoms: C_7  and  C_32
    9  A    between atoms: C_10  and  N_22
   10  A    between atoms: C_10  and  C_35
   11  A    between atoms: C_15  and  C_25
   12  A    between atoms: C_15  and  C_26
   13  A    between atoms: C_16  and  C_20
   14  A    between atoms: C_17  and  C_34
   15  A    between atoms: C_18  and  N_24
   16  A    between atoms: C_18  and  C_37
   17  A    between atoms: C_20  and  C_33
   18  A    between atoms: S_21  and  C_37
   19  A    between atoms: N_30  and  C_32
                            x       y       z     vdW  Elec       q    Type
                         _______ _______ _______ _____ _____    ______ ____

>  <TORSDO>
F 19

$$$$
=
 OpenBabel10222421123D

 37 38  0  0  1  0  0  0  0  0999 V2000
  191.7100  177.2040  146.7020 O   0  0  0  0  0  0  0  0  0  0  0  0
  191.7850  177.6530  145.4320 O   0  0  0  0  0  0  0  0  0  0  0  0
  189.6770  177.0780  146.1550 C   0  0  0  0  0  0  0  0  0  0  0  0
  190.4470  177.5600  144.9760 C   0  0  2  0  0  3  0  0  0  0  0  0
  190.4560  176.8720  147.1410 N   0  0  0  0  0  0  0  0  0  0  0  0
  190.3650  176.5850  143.8390 C   0  0  0  0  0  0  0  0  0  0  0  0
  189.4750  176.8080  142.7440 N   0  0  0  0  0  2  0  0  0  0  0  0
  191.0920  175.5560  143.8410 O   0  0  0  0  0  0  0  0  0  0  0  0
  188.6510  178.0030  142.6340 C   0  0  0  0  0  2  0  0  0  0  0  0
  187.3200  178.9280  140.8860 O   0  0  0  0  0  0  0  0  0  0  0  0
  189.2630  177.8120  140.1940 N   0  0  0  0  0  2  0  0  0  0  0  0
  189.0950  178.0050  138.7850 C   0  0  0  0  0  0  0  0  0  0  0  0
  188.1390  178.6940  138.3350 O   0  0  0  0  0  0  0  0  0  0  0  0
  188.3660  178.2960  141.2010 C   0  0  0  0  0  0  0  0  0  0  0  0
  190.0580  177.3760  137.8370 C   0  0  0  0  0  2  0  0  0  0  0  0
  190.9490  176.3820  138.5640 C   0  0  0  0  0  2  0  0  0  0  0  0
  191.5980  174.4240  137.1290 C   0  0  0  0  0  0  0  0  0  0  0  0
  192.3970  173.8990  136.3110 O   0  0  0  0  0  0  0  0  0  0  0  0
  190.4790  173.7140  137.5490 O   0  0  0  0  0  1  0  0  0  0  0  0
  191.8510  175.7380  137.6210 N   0  0  0  0  0  2  0  0  0  0  0  0
  188.2060  176.8350  146.2140 C   0  0  0  0  0  2  0  0  0  0  0  0
  186.4410  178.3750  147.0170 C   0  0  0  0  0  2  0  0  0  0  0  0
  187.4460  178.1130  145.9140 C   0  0  2  0  0  3  0  0  0  0  0  0
  185.9860  177.7690  145.7060 C   0  0  2  0  0  3  0  0  0  0  0  0
  185.3300  178.8470  144.8650 C   0  0  0  0  0  2  0  0  0  0  0  0
  183.8360  178.8520  145.1230 C   0  0  0  0  0  2  0  0  0  0  0  0
  183.0820  179.2950  143.8790 C   0  0  0  0  0  2  0  0  0  0  0  0
  183.8310  178.5830  142.3800 S   0  0  0  0  0  0  0  0  0  0  0  0
  182.2390  178.4920  141.5000 C   0  0  1  0  0  3  0  0  0  0  0  0
  181.1530  179.1830  142.3130 C   0  0  0  0  0  2  0  0  0  0  0  0
  179.2670  180.5450  142.1820 C   0  0  0  0  0  1  0  0  0  0  0  0
  180.5140  180.2180  141.5160 N   0  0  0  0  0  2  0  0  0  0  0  0
  182.3550  179.0390  140.0730 C   0  0  0  0  0  2  0  0  0  0  0  0
  181.9430  178.0350  139.0020 C   0  0  0  0  0  2  0  0  0  0  0  0
  182.7550  178.2480  137.7350 C   0  0  0  0  0  2  0  0  0  0  0  0
  184.0880  177.5220  137.8310 C   0  0  0  0  0  2  0  0  0  0  0  0
  183.8760  176.1440  137.9410 O   0  0  0  0  0  1  0  0  0  0  0  0
  1  5  1  0  0  0  0
  2  1  1  0  0  0  0
  3 21  1  0  0  0  0
  3  5  2  0  0  0  0
  4  6  1  6  0  0  0
  4  2  1  0  0  0  0
  4  3  1  0  0  0  0
  6  8  2  0  0  0  0
  7  6  1  0  0  0  0
  9  7  1  0  0  0  0
 10 14  2  0  0  0  0
 11 14  1  0  0  0  0
 12 11  1  0  0  0  0
 13 12  2  0  0  0  0
 14  9  1  0  0  0  0
 15 16  1  0  0  0  0
 15 12  1  0  0  0  0
 17 19  1  0  0  0  0
 17 20  1  0  0  0  0
 18 17  2  0  0  0  0
 20 16  1  0  0  0  0
 23 21  1  1  0  0  0
 23 22  1  0  0  0  0
 24 25  1  6  0  0  0
 24 23  1  0  0  0  0
 24 22  1  0  0  0  0
 25 26  1  0  0  0  0
 27 26  1  0  0  0  0
 28 27  1  0  0  0  0
 29 33  1  6  0  0  0
 29 30  1  0  0  0  0
 29 28  1  0  0  0  0
 32 31  1  0  0  0  0
 32 30  1  0  0  0  0
 34 33  1  0  0  0  0
 35 36  1  0  0  0  0
 35 34  1  0  0  0  0
 36 37  1  0  0  0  0
M  END
>  <MODEL>
6

>  <REMARK>
 VINA RESULT:      -6.4      1.593      1.690
  Name = 
  19 active torsions:
  status: ('A' for Active; 'I' for Inactive)
    1  A    between atoms: C_2  and  C_29
    2  A    between atoms: C_2  and  C_37
    3  A    between atoms: C_3  and  C_6
    4  A    between atoms: C_3  and  C_29
    5  A    between atoms: C_4  and  C_16
    6  A    between atoms: C_4  and  S_21
    7  A    between atoms: C_7  and  C_27
    8  A    between atoms: C_7  and  C_32
    9  A    between atoms: C_10  and  N_22
   10  A    between atoms: C_10  and  C_35
   11  A    between atoms: C_15  and  C_25
   12  A    between atoms: C_15  and  C_26
   13  A    between atoms: C_16  and  C_20
   14  A    between atoms: C_17  and  C_34
   15  A    between atoms: C_18  and  N_24
   16  A    between atoms: C_18  and  C_37
   17  A    between atoms: C_20  and  C_33
   18  A    between atoms: S_21  and  C_37
   19  A    between atoms: N_30  and  C_32
                            x       y       z     vdW  Elec       q    Type
                         _______ _______ _______ _____ _____    ______ ____

>  <TORSDO>
F 19

$$$$
=
 OpenBabel10222421123D

 37 38  0  0  1  0  0  0  0  0999 V2000
  191.4640  177.3020  146.3730 O   0  0  0  0  0  0  0  0  0  0  0  0
  191.8440  177.6060  145.1160 O   0  0  0  0  0  0  0  0  0  0  0  0
  189.6040  177.1570  145.3890 C   0  0  0  0  0  0  0  0  0  0  0  0
  190.6420  177.4910  144.3760 C   0  0  2  0  0  3  0  0  0  0  0  0
  190.1290  177.0460  146.5440 N   0  0  0  0  0  0  0  0  0  0  0  0
  190.7770  176.3970  143.3570 C   0  0  0  0  0  0  0  0  0  0  0  0
  190.1040  176.4800  142.1000 N   0  0  0  0  0  2  0  0  0  0  0  0
  191.4950  175.3930  143.6050 O   0  0  0  0  0  0  0  0  0  0  0  0
  189.3090  177.6360  141.7090 C   0  0  0  0  0  2  0  0  0  0  0  0
  188.5460  178.6100  139.6720 O   0  0  0  0  0  0  0  0  0  0  0  0
  190.2300  176.9920  139.4510 N   0  0  0  0  0  2  0  0  0  0  0  0
  190.3400  177.0320  138.0240 C   0  0  0  0  0  0  0  0  0  0  0  0
  189.6720  177.8610  137.3470 O   0  0  0  0  0  0  0  0  0  0  0  0
  189.3370  177.7980  140.2280 C   0  0  0  0  0  0  0  0  0  0  0  0
  191.2500  176.0790  137.3290 C   0  0  0  0  0  2  0  0  0  0  0  0
  192.6500  176.1550  137.9160 C   0  0  0  0  0  2  0  0  0  0  0  0
  194.6780  174.6810  138.0700 C   0  0  0  0  0  0  0  0  0  0  0  0
  195.3480  173.7110  137.6290 O   0  0  0  0  0  0  0  0  0  0  0  0
  195.1410  175.3920  139.1720 O   0  0  0  0  0  1  0  0  0  0  0  0
  193.4550  175.0440  137.4330 N   0  0  0  0  0  2  0  0  0  0  0  0
  188.1480  176.9520  145.1320 C   0  0  0  0  0  2  0  0  0  0  0  0
  186.5390  177.9580  146.7220 C   0  0  0  0  0  2  0  0  0  0  0  0
  187.3680  178.2060  145.4790 C   0  0  2  0  0  3  0  0  0  0  0  0
  185.8890  177.9040  145.3550 C   0  0  2  0  0  3  0  0  0  0  0  0
  185.1300  179.1950  145.1190 C   0  0  0  0  0  2  0  0  0  0  0  0
  183.6420  178.9400  145.2510 C   0  0  0  0  0  2  0  0  0  0  0  0
  182.9780  178.9380  143.8840 C   0  0  0  0  0  2  0  0  0  0  0  0
  181.1870  178.6440  144.0340 S   0  0  0  0  0  0  0  0  0  0  0  0
  180.9010  178.8180  142.2440 C   0  0  1  0  0  3  0  0  0  0  0  0
  180.0230  180.0320  141.9710 C   0  0  0  0  0  2  0  0  0  0  0  0
  179.5690  181.0000  139.9010 C   0  0  0  0  0  1  0  0  0  0  0  0
  179.2840  179.8460  140.7330 N   0  0  0  0  0  2  0  0  0  0  0  0
  182.2220  178.8510  141.4660 C   0  0  0  0  0  2  0  0  0  0  0  0
  182.2410  177.9150  140.2620 C   0  0  0  0  0  2  0  0  0  0  0  0
  183.5940  177.9650  139.5720 C   0  0  0  0  0  2  0  0  0  0  0  0
  183.6550  179.1390  138.6070 C   0  0  0  0  0  2  0  0  0  0  0  0
  184.5550  180.1000  139.0770 O   0  0  0  0  0  1  0  0  0  0  0  0
  1  5  1  0  0  0  0
  2  1  1  0  0  0  0
  3  5  2  0  0  0  0
  4  6  1  6  0  0  0
  4  2  1  0  0  0  0
  4  3  1  0  0  0  0
  6  8  2  0  0  0  0
  7  6  1  0  0  0  0
  9  7  1  0  0  0  0
 10 14  2  0  0  0  0
 11 14  1  0  0  0  0
 12 11  1  0  0  0  0
 13 12  2  0  0  0  0
 14  9  1  0  0  0  0
 15 16  1  0  0  0  0
 15 12  1  0  0  0  0
 17 19  1  0  0  0  0
 18 17  2  0  0  0  0
 20 16  1  0  0  0  0
 20 17  1  0  0  0  0
 21  3  1  0  0  0  0
 23 21  1  6  0  0  0
 23 22  1  0  0  0  0
 24 25  1  1  0  0  0
 24 23  1  0  0  0  0
 24 22  1  0  0  0  0
 25 26  1  0  0  0  0
 27 28  1  0  0  0  0
 27 26  1  0  0  0  0
 29 33  1  6  0  0  0
 29 28  1  0  0  0  0
 30 29  1  0  0  0  0
 31 32  1  0  0  0  0
 32 30  1  0  0  0  0
 34 33  1  0  0  0  0
 35 34  1  0  0  0  0
 36 37  1  0  0  0  0
 36 35  1  0  0  0  0
M  END
>  <MODEL>
7

>  <REMARK>
 VINA RESULT:      -6.4      1.657      1.881
  Name = 
  19 active torsions:
  status: ('A' for Active; 'I' for Inactive)
    1  A    between atoms: C_2  and  C_29
    2  A    between atoms: C_2  and  C_37
    3  A    between atoms: C_3  and  C_6
    4  A    between atoms: C_3  and  C_29
    5  A    between atoms: C_4  and  C_16
    6  A    between atoms: C_4  and  S_21
    7  A    between atoms: C_7  and  C_27
    8  A    between atoms: C_7  and  C_32
    9  A    between atoms: C_10  and  N_22
   10  A    between atoms: C_10  and  C_35
   11  A    between atoms: C_15  and  C_25
   12  A    between atoms: C_15  and  C_26
   13  A    between atoms: C_16  and  C_20
   14  A    between atoms: C_17  and  C_34
   15  A    between atoms: C_18  and  N_24
   16  A    between atoms: C_18  and  C_37
   17  A    between atoms: C_20  and  C_33
   18  A    between atoms: S_21  and  C_37
   19  A    between atoms: N_30  and  C_32
                            x       y       z     vdW  Elec       q    Type
                         _______ _______ _______ _____ _____    ______ ____

>  <TORSDO>
F 19

$$$$
=
 OpenBabel10222421123D

 37 38  0  0  1  0  0  0  0  0999 V2000
  179.4430  178.1480  143.7090 O   0  0  0  0  0  0  0  0  0  0  0  0
  179.3940  177.9970  142.3690 O   0  0  0  0  0  0  0  0  0  0  0  0
  181.3720  178.8300  143.1990 C   0  0  0  0  0  0  0  0  0  0  0  0
  180.6570  178.4770  141.9430 C   0  0  2  0  0  3  0  0  0  0  0  0
  180.6230  178.6310  144.2090 N   0  0  0  0  0  0  0  0  0  0  0  0
  180.4710  179.6820  141.0680 C   0  0  0  0  0  0  0  0  0  0  0  0
  180.9520  179.6910  139.7220 N   0  0  0  0  0  2  0  0  0  0  0  0
  179.8810  180.7000  141.5170 O   0  0  0  0  0  0  0  0  0  0  0  0
  181.5850  178.5340  139.1070 C   0  0  0  0  0  2  0  0  0  0  0  0
  183.6110  179.5380  139.8610 O   0  0  0  0  0  0  0  0  0  0  0  0
  183.8380  177.9940  138.1100 N   0  0  0  0  0  2  0  0  0  0  0  0
  185.2590  178.0950  137.9580 C   0  0  0  0  0  0  0  0  0  0  0  0
  185.9440  178.8110  138.7380 O   0  0  0  0  0  0  0  0  0  0  0  0
  183.0630  178.7170  139.0730 C   0  0  0  0  0  0  0  0  0  0  0  0
  185.9350  177.3500  136.8590 C   0  0  0  0  0  2  0  0  0  0  0  0
  187.4060  177.7260  136.7860 C   0  0  0  0  0  2  0  0  0  0  0  0
  189.5740  176.4600  136.8670 C   0  0  0  0  0  0  0  0  0  0  0  0
  190.2370  175.4290  136.5840 O   0  0  0  0  0  0  0  0  0  0  0  0
  190.1840  177.5020  137.5560 O   0  0  0  0  0  1  0  0  0  0  0  0
  188.2070  176.5530  136.4730 N   0  0  0  0  0  2  0  0  0  0  0  0
  182.7620  179.3630  143.3070 C   0  0  0  0  0  2  0  0  0  0  0  0
  183.9690  179.1990  145.4630 C   0  0  0  0  0  2  0  0  0  0  0  0
  183.6060  178.4640  144.1890 C   0  0  2  0  0  3  0  0  0  0  0  0
  184.9790  179.0860  144.3410 C   0  0  2  0  0  3  0  0  0  0  0  0
  185.9850  178.0070  144.6900 C   0  0  0  0  0  2  0  0  0  0  0  0
  186.2590  178.0320  146.1800 C   0  0  0  0  0  2  0  0  0  0  0  0
  187.6380  177.4650  146.4790 C   0  0  0  0  0  2  0  0  0  0  0  0
  188.5780  177.2070  144.9410 S   0  0  0  0  0  0  0  0  0  0  0  0
  190.1600  177.6920  145.7020 C   0  0  1  0  0  3  0  0  0  0  0  0
  190.6080  176.6310  146.6980 C   0  0  0  0  0  2  0  0  0  0  0  0
  192.4300  175.6270  147.7480 C   0  0  0  0  0  1  0  0  0  0  0  0
  192.0450  176.4270  146.6000 N   0  0  0  0  0  2  0  0  0  0  0  0
  191.2220  177.9990  144.6400 C   0  0  0  0  0  2  0  0  0  0  0  0
  190.6370  178.2740  143.2590 C   0  0  0  0  0  2  0  0  0  0  0  0
  191.2820  177.3700  142.2200 C   0  0  0  0  0  2  0  0  0  0  0  0
  190.3480  177.1700  141.0370 C   0  0  0  0  0  2  0  0  0  0  0  0
  189.0800  177.6790  141.3360 O   0  0  0  0  0  1  0  0  0  0  0  0
  1  5  1  0  0  0  0
  2  1  1  0  0  0  0
  3 21  1  0  0  0  0
  3  5  2  0  0  0  0
  4  6  1  6  0  0  0
  4  2  1  0  0  0  0
  4  3  1  0  0  0  0
  6  8  2  0  0  0  0
  7  6  1  0  0  0  0
  9  7  1  0  0  0  0
 11 14  1  0  0  0  0
 12 11  1  0  0  0  0
 12 13  2  0  0  0  0
 14  9  1  0  0  0  0
 14 10  2  0  0  0  0
 15 12  1  0  0  0  0
 16 15  1  0  0  0  0
 17 19  1  0  0  0  0
 18 17  2  0  0  0  0
 20 16  1  0  0  0  0
 20 17  1  0  0  0  0
 23 21  1  6  0  0  0
 23 24  1  0  0  0  0
 23 22  1  0  0  0  0
 24 25  1  1  0  0  0
 24 22  1  0  0  0  0
 25 26  1  0  0  0  0
 26 27  1  0  0  0  0
 28 29  1  0  0  0  0
 28 27  1  0  0  0  0
 29 33  1  6  0  0  0
 29 30  1  0  0  0  0
 32 30  1  0  0  0  0
 32 31  1  0  0  0  0
 34 33  1  0  0  0  0
 35 34  1  0  0  0  0
 36 37  1  0  0  0  0
 36 35  1  0  0  0  0
M  END
>  <MODEL>
8

>  <REMARK>
 VINA RESULT:      -6.3      3.211      7.855
  Name = 
  19 active torsions:
  status: ('A' for Active; 'I' for Inactive)
    1  A    between atoms: C_2  and  C_29
    2  A    between atoms: C_2  and  C_37
    3  A    between atoms: C_3  and  C_6
    4  A    between atoms: C_3  and  C_29
    5  A    between atoms: C_4  and  C_16
    6  A    between atoms: C_4  and  S_21
    7  A    between atoms: C_7  and  C_27
    8  A    between atoms: C_7  and  C_32
    9  A    between atoms: C_10  and  N_22
   10  A    between atoms: C_10  and  C_35
   11  A    between atoms: C_15  and  C_25
   12  A    between atoms: C_15  and  C_26
   13  A    between atoms: C_16  and  C_20
   14  A    between atoms: C_17  and  C_34
   15  A    between atoms: C_18  and  N_24
   16  A    between atoms: C_18  and  C_37
   17  A    between atoms: C_20  and  C_33
   18  A    between atoms: S_21  and  C_37
   19  A    between atoms: N_30  and  C_32
                            x       y       z     vdW  Elec       q    Type
                         _______ _______ _______ _____ _____    ______ ____

>  <TORSDO>
F 19

$$$$
=
 OpenBabel10222421123D

 37 38  0  0  1  0  0  0  0  0999 V2000
  192.0690  177.8110  144.5820 O   0  0  0  0  0  0  0  0  0  0  0  0
  191.5090  178.1780  143.4110 O   0  0  0  0  0  0  0  0  0  0  0  0
  190.0430  177.4080  145.0080 C   0  0  0  0  0  0  0  0  0  0  0  0
  190.1350  177.8970  143.6060 C   0  0  2  0  0  3  0  0  0  0  0  0
  191.1990  177.3640  145.5410 N   0  0  0  0  0  0  0  0  0  0  0  0
  189.6900  176.8440  142.6350 C   0  0  0  0  0  0  0  0  0  0  0  0
  188.7620  177.1520  141.5930 N   0  0  0  0  0  2  0  0  0  0  0  0
  190.1410  175.6710  142.7300 O   0  0  0  0  0  0  0  0  0  0  0  0
  188.2450  178.4950  141.3750 C   0  0  0  0  0  2  0  0  0  0  0  0
  186.3130  178.8620  140.0280 O   0  0  0  0  0  0  0  0  0  0  0  0
  188.2520  178.2390  138.8650 N   0  0  0  0  0  2  0  0  0  0  0  0
  187.6880  178.2440  137.5490 C   0  0  0  0  0  0  0  0  0  0  0  0
  186.4960  178.6090  137.3560 O   0  0  0  0  0  0  0  0  0  0  0  0
  187.5390  178.5630  140.0640 C   0  0  0  0  0  0  0  0  0  0  0  0
  188.5180  177.8040  136.3920 C   0  0  0  0  0  2  0  0  0  0  0  0
  189.7830  177.1140  136.8750 C   0  0  0  0  0  2  0  0  0  0  0  0
  190.4550  174.7570  137.4240 C   0  0  0  0  0  0  0  0  0  0  0  0
  190.3410  173.5210  137.2150 O   0  0  0  0  0  0  0  0  0  0  0  0
  191.3390  175.2100  138.3970 O   0  0  0  0  0  1  0  0  0  0  0  0
  189.6830  175.6790  136.6590 N   0  0  0  0  0  2  0  0  0  0  0  0
  188.7990  176.9980  145.7250 C   0  0  0  0  0  2  0  0  0  0  0  0
  187.1790  177.9820  147.3180 C   0  0  0  0  0  2  0  0  0  0  0  0
  187.9390  178.2100  146.0270 C   0  0  2  0  0  3  0  0  0  0  0  0
  186.4840  177.7910  145.9860 C   0  0  2  0  0  3  0  0  0  0  0  0
  185.6190  179.0040  145.7030 C   0  0  0  0  0  2  0  0  0  0  0  0
  184.1570  178.6280  145.8420 C   0  0  0  0  0  2  0  0  0  0  0  0
  183.4120  178.8960  144.5440 C   0  0  0  0  0  2  0  0  0  0  0  0
  184.4970  178.6240  143.1070 S   0  0  0  0  0  0  0  0  0  0  0  0
  183.1340  178.8030  141.9110 C   0  0  1  0  0  3  0  0  0  0  0  0
  183.2820  177.7790  140.7950 C   0  0  0  0  0  2  0  0  0  0  0  0
  183.2640  177.6100  138.4710 C   0  0  0  0  0  1  0  0  0  0  0  0
  182.6020  178.2440  139.5960 N   0  0  0  0  0  2  0  0  0  0  0  0
  181.7680  178.7360  142.6050 C   0  0  0  0  0  2  0  0  0  0  0  0
  180.6740  179.4960  141.8630 C   0  0  0  0  0  2  0  0  0  0  0  0
  179.3830  178.6920  141.8550 C   0  0  0  0  0  2  0  0  0  0  0  0
  179.6670  177.2350  141.5240 C   0  0  0  0  0  2  0  0  0  0  0  0
  179.1770  176.9300  140.2500 O   0  0  0  0  0  1  0  0  0  0  0  0
  1  5  1  0  0  0  0
  2  4  1  0  0  0  0
  2  1  1  0  0  0  0
  3  5  2  0  0  0  0
  3 21  1  0  0  0  0
  4  6  1  6  0  0  0
  4  3  1  0  0  0  0
  6  8  2  0  0  0  0
  7  6  1  0  0  0  0
  9  7  1  0  0  0  0
 10 14  2  0  0  0  0
 11 14  1  0  0  0  0
 12 11  1  0  0  0  0
 13 12  2  0  0  0  0
 14  9  1  0  0  0  0
 15 16  1  0  0  0  0
 15 12  1  0  0  0  0
 17 19  1  0  0  0  0
 18 17  2  0  0  0  0
 20 16  1  0  0  0  0
 20 17  1  0  0  0  0
 23 21  1  6  0  0  0
 23 22  1  0  0  0  0
 24 25  1  1  0  0  0
 24 23  1  0  0  0  0
 24 22  1  0  0  0  0
 25 26  1  0  0  0  0
 27 26  1  0  0  0  0
 28 27  1  0  0  0  0
 29 30  1  6  0  0  0
 29 33  1  0  0  0  0
 29 28  1  0  0  0  0
 31 32  1  0  0  0  0
 32 30  1  0  0  0  0
 34 33  1  0  0  0  0
 35 34  1  0  0  0  0
 36 35  1  0  0  0  0
 37 36  1  0  0  0  0
M  END
>  <MODEL>
9

>  <REMARK>
 VINA RESULT:      -6.3      2.211      3.022
  Name = 
  19 active torsions:
  status: ('A' for Active; 'I' for Inactive)
    1  A    between atoms: C_2  and  C_29
    2  A    between atoms: C_2  and  C_37
    3  A    between atoms: C_3  and  C_6
    4  A    between atoms: C_3  and  C_29
    5  A    between atoms: C_4  and  C_16
    6  A    between atoms: C_4  and  S_21
    7  A    between atoms: C_7  and  C_27
    8  A    between atoms: C_7  and  C_32
    9  A    between atoms: C_10  and  N_22
   10  A    between atoms: C_10  and  C_35
   11  A    between atoms: C_15  and  C_25
   12  A    between atoms: C_15  and  C_26
   13  A    between atoms: C_16  and  C_20
   14  A    between atoms: C_17  and  C_34
   15  A    between atoms: C_18  and  N_24
   16  A    between atoms: C_18  and  C_37
   17  A    between atoms: C_20  and  C_33
   18  A    between atoms: S_21  and  C_37
   19  A    between atoms: N_30  and  C_32
                            x       y       z     vdW  Elec       q    Type
                         _______ _______ _______ _____ _____    ______ ____

>  <TORSDO>
F 19

$$$$
