=
 OpenBabel10222419473D

 33 37  0  0  1  0  0  0  0  0999 V2000
  189.3960  177.0600  144.1430 N   0  0  0  0  0  2  0  0  0  0  0  0
  191.5980  176.5320  145.3410 C   0  0  2  0  0  3  0  0  0  0  0  0
  192.4070  174.4920  146.1830 N   0  0  0  0  0  0  0  0  0  0  0  0
  189.4740  177.3130  146.5260 C   0  0  0  0  0  0  0  0  0  0  0  0
  192.0610  176.1580  147.8210 N   0  0  0  0  0  2  0  0  0  0  0  0
  191.9260  175.6150  144.1600 C   0  0  0  0  0  3  0  0  0  0  0  0
  192.0130  175.6760  146.4870 C   0  0  0  0  0  0  0  0  0  0  0  0
  190.1330  177.5240  147.7920 N   0  0  0  0  0  2  0  0  0  0  0  0
  192.3180  174.2680  144.7570 C   0  0  0  0  0  3  0  0  0  0  0  0
  190.1190  176.9270  145.3830 C   0  0  0  0  0  0  0  0  0  0  0  0
  191.5570  177.4880  148.0820 C   0  0  0  0  0  2  0  0  0  0  0  0
  186.0820  178.2890  147.2310 C   0  0  0  0  0  3  0  0  0  0  0  0
  185.9310  177.8430  145.8140 C   0  0  1  0  0  3  0  0  0  0  0  0
  185.5210  179.0180  144.9450 C   0  0  0  0  0  1  0  0  0  0  0  0
  188.0160  177.5950  146.5280 C   0  0  0  0  0  0  0  0  0  0  0  0
  187.2840  177.4320  145.4760 N   0  0  0  0  0  0  0  0  0  0  0  0
  187.3000  178.1360  147.6300 N   0  0  0  0  0  0  0  0  0  0  0  0
  191.0930  178.3850  142.9470 C   0  0  0  0  0  2  0  0  0  0  0  0
  190.1650  179.3950  143.6120 C   0  0  0  0  0  2  0  0  0  0  0  0
  189.6240  178.0710  143.1140 C   0  0  0  0  0  0  0  0  0  0  0  0
  188.7890  177.9870  141.8210 C   0  0  2  0  0  3  0  0  0  0  0  0
  189.1770  177.8960  138.0950 C   0  0  0  0  0  3  0  0  0  0  0  0
  189.6430  177.8740  140.5510 C   0  0  1  0  0  3  0  0  0  0  0  0
  190.7610  176.8050  136.7050 O   0  0  0  0  0  1  0  0  0  0  0  0
  190.9700  176.3990  139.0550 C   0  0  0  0  0  2  0  0  0  0  0  0
  190.1890  176.4600  140.3600 C   0  0  0  0  0  2  0  0  0  0  0  0
  188.9620  178.4160  139.3140 C   0  0  0  0  0  3  0  0  0  0  0  0
  190.0270  176.6700  137.8820 C   0  0  1  0  0  3  0  0  0  0  0  0
  187.5700  178.9160  141.7220 C   0  0  0  0  0  2  0  0  0  0  0  0
  186.3230  178.1690  141.7430 N   0  0  0  0  0  2  0  0  0  0  0  0
  185.2780  179.0830  141.3110 C   0  0  0  0  0  2  0  0  0  0  0  0
  184.9410  178.8290  139.8530 C   0  0  0  0  0  2  0  0  0  0  0  0
  184.5650  180.0250  139.2390 O   0  0  0  0  0  1  0  0  0  0  0  0
  1 10  1  0  0  0  0
  2  6  1  6  0  0  0
  2 10  1  0  0  0  0
  2  7  1  0  0  0  0
  3  7  2  0  0  0  0
  4 15  1  0  0  0  0
  4  8  1  0  0  0  0
  5 11  1  0  0  0  0
  6  9  2  0  0  0  0
  7  5  1  0  0  0  0
  8 11  1  0  0  0  0
  9  3  1  0  0  0  0
 10  4  2  0  0  0  0
 12 17  2  0  0  0  0
 13 14  1  6  0  0  0
 13 12  1  0  0  0  0
 15 17  1  0  0  0  0
 16 13  1  0  0  0  0
 16 15  2  0  0  0  0
 18 20  1  0  0  0  0
 18 19  1  0  0  0  0
 20 19  1  0  0  0  0
 20  1  1  0  0  0  0
 21 29  1  6  0  0  0
 21 20  1  0  0  0  0
 22 27  2  0  0  0  0
 23 21  1  1  0  0  0
 25 26  1  0  0  0  0
 26 23  1  0  0  0  0
 27 23  1  0  0  0  0
 28 24  1  6  0  0  0
 28 22  1  0  0  0  0
 28 25  1  0  0  0  0
 29 30  1  0  0  0  0
 31 30  1  0  0  0  0
 32 31  1  0  0  0  0
 33 32  1  0  0  0  0
M  END
>  <MODEL>
1

>  <REMARK>
 VINA RESULT:      -6.9      0.000      0.000
  Name = 
  9 active torsions:
  status: ('A' for Active; 'I' for Inactive)
    1  A    between atoms: C_5  and  C_9
    2  A    between atoms: C_6  and  C_8
    3  A    between atoms: C_8  and  N_30
    4  A    between atoms: C_9  and  C_17
    5  A    between atoms: C_9  and  C_32
    6  A    between atoms: C_13  and  C_26
    7  A    between atoms: C_17  and  N_30
    8  A    between atoms: N_24  and  C_27
    9  A    between atoms: N_24  and  C_32
                            x       y       z     vdW  Elec       q    Type
                         _______ _______ _______ _____ _____    ______ ____

>  <TORSDO>
F 9

$$$$
=
 OpenBabel10222419473D

 33 37  0  0  1  0  0  0  0  0999 V2000
  188.7870  176.7980  139.0980 N   0  0  0  0  0  2  0  0  0  0  0  0
  191.0990  176.6790  138.0000 C   0  0  2  0  0  3  0  0  0  0  0  0
  192.4830  174.8240  137.5900 N   0  0  0  0  0  0  0  0  0  0  0  0
  190.7170  177.0910  140.4920 C   0  0  0  0  0  0  0  0  0  0  0  0
  193.4030  176.4240  139.0620 N   0  0  0  0  0  2  0  0  0  0  0  0
  190.4490  175.8190  136.9130 C   0  0  0  0  0  3  0  0  0  0  0  0
  192.3590  175.9250  138.2410 C   0  0  0  0  0  0  0  0  0  0  0  0
  192.0940  177.4300  140.7530 N   0  0  0  0  0  2  0  0  0  0  0  0
  191.3120  174.5700  136.7790 C   0  0  0  0  0  3  0  0  0  0  0  0
  190.2210  176.8100  139.2480 C   0  0  0  0  0  0  0  0  0  0  0  0
  193.1650  177.6480  139.7950 C   0  0  0  0  0  2  0  0  0  0  0  0
  188.5130  176.3850  143.2480 C   0  0  0  0  0  3  0  0  0  0  0  0
  188.8080  177.8230  143.5190 C   0  0  1  0  0  3  0  0  0  0  0  0
  189.5430  177.9590  144.8390 C   0  0  0  0  0  1  0  0  0  0  0  0
  189.8320  177.1130  141.6840 C   0  0  0  0  0  0  0  0  0  0  0  0
  189.7010  178.1640  142.4230 N   0  0  0  0  0  0  0  0  0  0  0  0
  189.1150  175.9890  142.1780 N   0  0  0  0  0  0  0  0  0  0  0  0
  187.9680  178.2270  137.2660 C   0  0  0  0  0  2  0  0  0  0  0  0
  188.6830  179.1590  138.2370 C   0  0  0  0  0  2  0  0  0  0  0  0
  187.9460  177.9400  138.7500 C   0  0  0  0  0  0  0  0  0  0  0  0
  186.5800  178.0710  139.4530 C   0  0  2  0  0  3  0  0  0  0  0  0
  183.1510  179.3970  138.7330 C   0  0  0  0  0  3  0  0  0  0  0  0
  185.4290  178.3990  138.4930 C   0  0  1  0  0  3  0  0  0  0  0  0
  181.5590  178.8220  137.0700 O   0  0  0  0  0  1  0  0  0  0  0  0
  183.5730  177.5280  137.0880 C   0  0  0  0  0  2  0  0  0  0  0  0
  184.7420  177.1350  137.9810 C   0  0  0  0  0  2  0  0  0  0  0  0
  184.4570  179.4210  139.0390 C   0  0  0  0  0  3  0  0  0  0  0  0
  182.5360  178.2930  137.9110 C   0  0  1  0  0  3  0  0  0  0  0  0
  186.5610  178.8210  140.7940 C   0  0  0  0  0  2  0  0  0  0  0  0
  185.7270  178.1430  141.7750 N   0  0  0  0  0  2  0  0  0  0  0  0
  185.2720  179.1580  142.7100 C   0  0  0  0  0  2  0  0  0  0  0  0
  184.6670  178.4950  143.9350 C   0  0  0  0  0  2  0  0  0  0  0  0
  185.6170  178.4310  144.9560 O   0  0  0  0  0  1  0  0  0  0  0  0
  1 10  1  0  0  0  0
  2  6  1  6  0  0  0
  2  7  1  0  0  0  0
  2 10  1  0  0  0  0
  3  7  2  0  0  0  0
  4  8  1  0  0  0  0
  4 15  1  0  0  0  0
  5 11  1  0  0  0  0
  7  5  1  0  0  0  0
  9  6  2  0  0  0  0
  9  3  1  0  0  0  0
 10  4  2  0  0  0  0
 11  8  1  0  0  0  0
 12 13  1  0  0  0  0
 13 14  1  1  0  0  0
 15 17  1  0  0  0  0
 15 16  2  0  0  0  0
 16 13  1  0  0  0  0
 17 12  2  0  0  0  0
 18 19  1  0  0  0  0
 18 20  1  0  0  0  0
 19 20  1  0  0  0  0
 20  1  1  0  0  0  0
 20 21  1  0  0  0  0
 21 29  1  1  0  0  0
 22 27  2  0  0  0  0
 23 27  1  0  0  0  0
 23 21  1  1  0  0  0
 25 28  1  0  0  0  0
 25 26  1  0  0  0  0
 26 23  1  0  0  0  0
 28 24  1  6  0  0  0
 28 22  1  0  0  0  0
 29 30  1  0  0  0  0
 30 31  1  0  0  0  0
 31 32  1  0  0  0  0
 32 33  1  0  0  0  0
M  END
>  <MODEL>
2

>  <REMARK>
 VINA RESULT:      -6.8      3.384      6.145
  Name = 
  9 active torsions:
  status: ('A' for Active; 'I' for Inactive)
    1  A    between atoms: C_5  and  C_9
    2  A    between atoms: C_6  and  C_8
    3  A    between atoms: C_8  and  N_30
    4  A    between atoms: C_9  and  C_17
    5  A    between atoms: C_9  and  C_32
    6  A    between atoms: C_13  and  C_26
    7  A    between atoms: C_17  and  N_30
    8  A    between atoms: N_24  and  C_27
    9  A    between atoms: N_24  and  C_32
                            x       y       z     vdW  Elec       q    Type
                         _______ _______ _______ _____ _____    ______ ____

>  <TORSDO>
F 9

$$$$
=
 OpenBabel10222419473D

 33 37  0  0  1  0  0  0  0  0999 V2000
  189.1030  178.0840  144.1670 N   0  0  0  0  0  2  0  0  0  0  0  0
  191.2730  177.2710  145.2590 C   0  0  2  0  0  3  0  0  0  0  0  0
  192.0880  175.0860  145.5550 N   0  0  0  0  0  0  0  0  0  0  0  0
  189.1000  177.6920  146.5330 C   0  0  0  0  0  0  0  0  0  0  0  0
  191.6620  176.2510  147.5630 N   0  0  0  0  0  2  0  0  0  0  0  0
  191.6540  176.7050  143.8880 C   0  0  0  0  0  3  0  0  0  0  0  0
  191.6650  176.1430  146.1490 C   0  0  0  0  0  0  0  0  0  0  0  0
  189.7140  177.5610  147.8320 N   0  0  0  0  0  2  0  0  0  0  0  0
  192.0490  175.2510  144.1180 C   0  0  0  0  0  3  0  0  0  0  0  0
  189.7870  177.6300  145.3520 C   0  0  0  0  0  0  0  0  0  0  0  0
  191.1280  177.4590  148.1520 C   0  0  0  0  0  2  0  0  0  0  0  0
  185.7490  178.8860  147.0850 C   0  0  0  0  0  3  0  0  0  0  0  0
  185.4890  177.8790  146.0140 C   0  0  1  0  0  3  0  0  0  0  0  0
  184.9570  178.5730  144.7740 C   0  0  0  0  0  1  0  0  0  0  0  0
  187.6370  177.9520  146.5580 C   0  0  0  0  0  0  0  0  0  0  0  0
  186.8210  177.3590  145.7520 N   0  0  0  0  0  0  0  0  0  0  0  0
  187.0030  178.9150  147.3900 N   0  0  0  0  0  0  0  0  0  0  0  0
  187.4130  176.7080  143.0170 C   0  0  0  0  0  2  0  0  0  0  0  0
  188.6220  175.8030  143.2230 C   0  0  0  0  0  2  0  0  0  0  0  0
  188.8100  177.2850  142.9800 C   0  0  0  0  0  0  0  0  0  0  0  0
  189.2960  177.8140  141.6160 C   0  0  2  0  0  3  0  0  0  0  0  0
  185.7810  179.0310  141.1720 C   0  0  0  0  0  3  0  0  0  0  0  0
  188.2120  178.5620  140.8300 C   0  0  1  0  0  3  0  0  0  0  0  0
  184.4960  179.4520  139.2210 O   0  0  0  0  0  1  0  0  0  0  0  0
  186.6930  178.5720  138.8630 C   0  0  0  0  0  2  0  0  0  0  0  0
  187.8140  177.8130  139.5600 C   0  0  0  0  0  2  0  0  0  0  0  0
  187.0240  178.9680  141.6740 C   0  0  0  0  0  3  0  0  0  0  0  0
  185.4580  178.6020  139.7630 C   0  0  1  0  0  3  0  0  0  0  0  0
  190.1890  176.8760  140.7880 C   0  0  0  0  0  2  0  0  0  0  0  0
  191.4050  177.5430  140.3500 N   0  0  0  0  0  2  0  0  0  0  0  0
  191.8710  176.8320  139.1710 C   0  0  0  0  0  2  0  0  0  0  0  0
  190.7380  176.0090  138.5840 C   0  0  0  0  0  2  0  0  0  0  0  0
  191.2230  174.7700  138.1610 O   0  0  0  0  0  1  0  0  0  0  0  0
  1 10  1  0  0  0  0
  2  6  1  6  0  0  0
  2 10  1  0  0  0  0
  2  7  1  0  0  0  0
  3  7  2  0  0  0  0
  4 15  1  0  0  0  0
  4  8  1  0  0  0  0
  5 11  1  0  0  0  0
  6  9  2  0  0  0  0
  7  5  1  0  0  0  0
  8 11  1  0  0  0  0
  9  3  1  0  0  0  0
 10  4  2  0  0  0  0
 12 17  2  0  0  0  0
 13 14  1  6  0  0  0
 13 12  1  0  0  0  0
 15 17  1  0  0  0  0
 16 13  1  0  0  0  0
 16 15  2  0  0  0  0
 18 19  1  0  0  0  0
 20 18  1  0  0  0  0
 20 19  1  0  0  0  0
 20  1  1  0  0  0  0
 21 29  1  6  0  0  0
 21 20  1  0  0  0  0
 22 27  2  0  0  0  0
 23 21  1  1  0  0  0
 23 27  1  0  0  0  0
 25 26  1  0  0  0  0
 25 28  1  0  0  0  0
 26 23  1  0  0  0  0
 28 24  1  6  0  0  0
 28 22  1  0  0  0  0
 30 29  1  0  0  0  0
 31 30  1  0  0  0  0
 32 31  1  0  0  0  0
 33 32  1  0  0  0  0
M  END
>  <MODEL>
3

>  <REMARK>
 VINA RESULT:      -6.8      1.312      3.478
  Name = 
  9 active torsions:
  status: ('A' for Active; 'I' for Inactive)
    1  A    between atoms: C_5  and  C_9
    2  A    between atoms: C_6  and  C_8
    3  A    between atoms: C_8  and  N_30
    4  A    between atoms: C_9  and  C_17
    5  A    between atoms: C_9  and  C_32
    6  A    between atoms: C_13  and  C_26
    7  A    between atoms: C_17  and  N_30
    8  A    between atoms: N_24  and  C_27
    9  A    between atoms: N_24  and  C_32
                            x       y       z     vdW  Elec       q    Type
                         _______ _______ _______ _____ _____    ______ ____

>  <TORSDO>
F 9

$$$$
=
 OpenBabel10222419473D

 33 37  0  0  1  0  0  0  0  0999 V2000
  183.0190  176.1250  139.0570 N   0  0  0  0  0  2  0  0  0  0  0  0
  180.5580  175.5230  138.6780 C   0  0  2  0  0  3  0  0  0  0  0  0
  179.2150  173.9170  139.7460 N   0  0  0  0  0  0  0  0  0  0  0  0
  182.5010  174.4820  137.3880 C   0  0  0  0  0  0  0  0  0  0  0  0
  179.5300  173.5480  137.4350 N   0  0  0  0  0  2  0  0  0  0  0  0
  180.3090  175.9780  140.1190 C   0  0  0  0  0  3  0  0  0  0  0  0
  179.7590  174.2680  138.6360 C   0  0  0  0  0  0  0  0  0  0  0  0
  181.6490  173.8270  136.4270 N   0  0  0  0  0  0  0  0  0  0  0  0
  179.5510  174.8460  140.8020 C   0  0  0  0  0  3  0  0  0  0  0  0
  182.0440  175.3080  138.3790 C   0  0  1  0  0  3  0  0  0  0  0  0
  180.2160  173.9860  136.2400 C   0  0  0  0  0  2  0  0  0  0  0  0
  185.9150  173.3440  137.4800 C   0  0  0  0  0  3  0  0  0  0  0  0
  185.9950  174.3030  136.3380 C   0  0  1  0  0  3  0  0  0  0  0  0
  186.3450  173.5570  135.0640 C   0  0  0  0  0  1  0  0  0  0  0  0
  183.9540  174.2360  137.2030 C   0  0  0  0  0  0  0  0  0  0  0  0
  184.6310  174.7990  136.2580 N   0  0  0  0  0  0  0  0  0  0  0  0
  184.7220  173.3190  137.9720 N   0  0  0  0  0  0  0  0  0  0  0  0
  183.1670  177.8500  137.3040 C   0  0  0  0  0  2  0  0  0  0  0  0
  184.5530  177.7710  137.9330 C   0  0  0  0  0  2  0  0  0  0  0  0
  183.3170  177.5270  138.7730 C   0  0  0  0  0  0  0  0  0  0  0  0
  182.8050  178.5900  139.7650 C   0  0  2  0  0  3  0  0  0  0  0  0
  182.2700  179.0810  143.4400 C   0  0  0  0  0  3  0  0  0  0  0  0
  183.0860  178.2410  141.2320 C   0  0  1  0  0  3  0  0  0  0  0  0
  183.7140  178.7610  145.2960 O   0  0  0  0  0  1  0  0  0  0  0  0
  184.6740  178.3700  143.1390 C   0  0  0  0  0  2  0  0  0  0  0  0
  184.4830  178.6850  141.6620 C   0  0  0  0  0  2  0  0  0  0  0  0
  182.0020  178.7000  142.1810 C   0  0  0  0  0  3  0  0  0  0  0  0
  183.6780  179.1810  143.9680 C   0  0  1  0  0  3  0  0  0  0  0  0
  181.4220  179.1950  139.4780 C   0  0  0  0  0  2  0  0  0  0  0  0
  181.5190  180.5920  139.0850 N   0  0  0  0  0  2  0  0  0  0  0  0
  180.1880  181.1600  139.2250 C   0  0  0  0  0  2  0  0  0  0  0  0
  179.4640  180.4950  140.3820 C   0  0  0  0  0  2  0  0  0  0  0  0
  179.5970  181.2740  141.5330 O   0  0  0  0  0  1  0  0  0  0  0  0
  2  6  1  1  0  0  0
  3  9  1  0  0  0  0
  4 10  1  0  0  0  0
  5  7  1  0  0  0  0
  6  9  2  0  0  0  0
  7  2  1  0  0  0  0
  7  3  2  0  0  0  0
  8  4  2  0  0  0  0
 10  2  1  0  0  0  0
 10  1  1  6  0  0  0
 11  8  1  0  0  0  0
 11  5  1  0  0  0  0
 12 17  2  0  0  0  0
 13 14  1  6  0  0  0
 13 12  1  0  0  0  0
 15  4  1  0  0  0  0
 15 17  1  0  0  0  0
 16 13  1  0  0  0  0
 16 15  2  0  0  0  0
 18 19  1  0  0  0  0
 18 20  1  0  0  0  0
 19 20  1  0  0  0  0
 20  1  1  0  0  0  0
 20 21  1  0  0  0  0
 21 29  1  1  0  0  0
 22 28  1  0  0  0  0
 23 21  1  6  0  0  0
 23 26  1  0  0  0  0
 23 27  1  0  0  0  0
 25 28  1  0  0  0  0
 26 25  1  0  0  0  0
 27 22  2  0  0  0  0
 28 24  1  1  0  0  0
 30 31  1  0  0  0  0
 30 29  1  0  0  0  0
 31 32  1  0  0  0  0
 32 33  1  0  0  0  0
M  END
>  <MODEL>
4

>  <REMARK>
 VINA RESULT:      -6.8      6.933     10.493
  Name = 
  9 active torsions:
  status: ('A' for Active; 'I' for Inactive)
    1  A    between atoms: C_5  and  C_9
    2  A    between atoms: C_6  and  C_8
    3  A    between atoms: C_8  and  N_30
    4  A    between atoms: C_9  and  C_17
    5  A    between atoms: C_9  and  C_32
    6  A    between atoms: C_13  and  C_26
    7  A    between atoms: C_17  and  N_30
    8  A    between atoms: N_24  and  C_27
    9  A    between atoms: N_24  and  C_32
                            x       y       z     vdW  Elec       q    Type
                         _______ _______ _______ _____ _____    ______ ____

>  <TORSDO>
F 9

$$$$
=
 OpenBabel10222419473D

 33 37  0  0  1  0  0  0  0  0999 V2000
  187.9950  177.1600  138.7950 N   0  0  0  0  0  2  0  0  0  0  0  0
  186.7170  178.7780  140.3150 C   0  0  2  0  0  3  0  0  0  0  0  0
  185.3880  178.3440  142.2050 N   0  0  0  0  0  0  0  0  0  0  0  0
  185.7560  177.7580  138.1800 C   0  0  0  0  0  0  0  0  0  0  0  0
  184.2280  179.3240  140.3970 N   0  0  0  0  0  2  0  0  0  0  0  0
  187.6280  178.3030  141.4500 C   0  0  0  0  0  3  0  0  0  0  0  0
  185.3940  178.7840  140.9980 C   0  0  0  0  0  0  0  0  0  0  0  0
  184.5900  178.6080  138.1750 N   0  0  0  0  0  0  0  0  0  0  0  0
  186.7100  177.9100  142.6020 C   0  0  0  0  0  3  0  0  0  0  0  0
  186.7670  177.8530  139.0960 C   0  0  1  0  0  3  0  0  0  0  0  0
  184.3100  179.7560  139.0200 C   0  0  0  0  0  2  0  0  0  0  0  0
  186.0950  175.9910  135.0620 C   0  0  0  0  0  3  0  0  0  0  0  0
  185.8670  174.8400  135.9850 C   0  0  1  0  0  3  0  0  0  0  0  0
  187.0920  173.9470  136.0080 C   0  0  0  0  0  1  0  0  0  0  0  0
  185.8160  176.7750  137.0680 C   0  0  0  0  0  0  0  0  0  0  0  0
  185.7190  175.5030  137.2710 N   0  0  0  0  0  0  0  0  0  0  0  0
  186.0620  177.1080  135.7080 N   0  0  0  0  0  0  0  0  0  0  0  0
  189.0580  179.2430  138.0210 C   0  0  0  0  0  2  0  0  0  0  0  0
  189.1120  178.2810  136.8400 C   0  0  0  0  0  2  0  0  0  0  0  0
  189.2150  177.7580  138.2570 C   0  0  0  0  0  0  0  0  0  0  0  0
  190.5640  177.2960  138.8410 C   0  0  2  0  0  3  0  0  0  0  0  0
  191.7060  174.1130  137.2270 C   0  0  0  0  0  3  0  0  0  0  0  0
  191.4280  176.5200  137.8380 C   0  0  1  0  0  3  0  0  0  0  0  0
  193.7860  173.4940  136.2670 O   0  0  0  0  0  1  0  0  0  0  0  0
  193.6900  175.6740  137.2510 C   0  0  0  0  0  2  0  0  0  0  0  0
  192.9000  176.5110  138.2480 C   0  0  0  0  0  2  0  0  0  0  0  0
  190.8950  175.1420  137.5170 C   0  0  0  0  0  3  0  0  0  0  0  0
  193.2070  174.2250  137.3030 C   0  0  1  0  0  3  0  0  0  0  0  0
  190.5450  176.7380  140.2730 C   0  0  0  0  0  2  0  0  0  0  0  0
  191.1840  177.6480  141.2110 N   0  0  0  0  0  2  0  0  0  0  0  0
  191.4230  176.8930  142.4300 C   0  0  0  0  0  2  0  0  0  0  0  0
  190.2380  175.9890  142.7160 C   0  0  0  0  0  2  0  0  0  0  0  0
  189.5980  176.4040  143.8860 O   0  0  0  0  0  1  0  0  0  0  0  0
  2  7  1  0  0  0  0
  2  6  1  1  0  0  0
  3  9  1  0  0  0  0
  4 10  1  0  0  0  0
  5  7  1  0  0  0  0
  6  9  2  0  0  0  0
  7  3  2  0  0  0  0
  8  4  2  0  0  0  0
  8 11  1  0  0  0  0
 10  1  1  6  0  0  0
 10  2  1  0  0  0  0
 11  5  1  0  0  0  0
 12 17  2  0  0  0  0
 12 13  1  0  0  0  0
 13 14  1  1  0  0  0
 13 16  1  0  0  0  0
 15 16  2  0  0  0  0
 15  4  1  0  0  0  0
 17 15  1  0  0  0  0
 18 20  1  0  0  0  0
 19 18  1  0  0  0  0
 19 20  1  0  0  0  0
 20  1  1  0  0  0  0
 20 21  1  0  0  0  0
 21 29  1  1  0  0  0
 22 28  1  0  0  0  0
 22 27  2  0  0  0  0
 23 26  1  0  0  0  0
 23 21  1  1  0  0  0
 25 28  1  0  0  0  0
 25 26  1  0  0  0  0
 27 23  1  0  0  0  0
 28 24  1  6  0  0  0
 29 30  1  0  0  0  0
 30 31  1  0  0  0  0
 31 32  1  0  0  0  0
 32 33  1  0  0  0  0
M  END
>  <MODEL>
5

>  <REMARK>
 VINA RESULT:      -6.7      3.710      7.687
  Name = 
  9 active torsions:
  status: ('A' for Active; 'I' for Inactive)
    1  A    between atoms: C_5  and  C_9
    2  A    between atoms: C_6  and  C_8
    3  A    between atoms: C_8  and  N_30
    4  A    between atoms: C_9  and  C_17
    5  A    between atoms: C_9  and  C_32
    6  A    between atoms: C_13  and  C_26
    7  A    between atoms: C_17  and  N_30
    8  A    between atoms: N_24  and  C_27
    9  A    between atoms: N_24  and  C_32
                            x       y       z     vdW  Elec       q    Type
                         _______ _______ _______ _____ _____    ______ ____

>  <TORSDO>
F 9

$$$$
=
 OpenBabel10222419473D

 33 37  0  0  1  0  0  0  0  0999 V2000
  187.5950  176.6970  138.1820 N   0  0  0  0  0  2  0  0  0  0  0  0
  185.5900  177.9410  137.1830 C   0  0  2  0  0  3  0  0  0  0  0  0
  183.3110  177.8300  137.7450 N   0  0  0  0  0  0  0  0  0  0  0  0
  186.4930  175.7250  136.2870 C   0  0  0  0  0  0  0  0  0  0  0  0
  183.8110  177.1270  135.5470 N   0  0  0  0  0  2  0  0  0  0  0  0
  185.4000  178.5750  138.5620 C   0  0  0  0  0  3  0  0  0  0  0  0
  184.1850  177.5970  136.8330 C   0  0  0  0  0  0  0  0  0  0  0  0
  185.6830  175.7580  135.0940 N   0  0  0  0  0  0  0  0  0  0  0  0
  183.9370  178.3600  138.9360 C   0  0  0  0  0  3  0  0  0  0  0  0
  186.5220  176.7260  137.2200 C   0  0  1  0  0  3  0  0  0  0  0  0
  184.8620  176.8480  134.5940 C   0  0  0  0  0  2  0  0  0  0  0  0
  187.9840  172.5330  137.0220 C   0  0  0  0  0  3  0  0  0  0  0  0
  189.0180  173.0930  136.1010 C   0  0  1  0  0  3  0  0  0  0  0  0
  189.1060  172.2420  134.8480 C   0  0  0  0  0  1  0  0  0  0  0  0
  187.3540  174.5230  136.4240 C   0  0  0  0  0  0  0  0  0  0  0  0
  188.4620  174.3950  135.7720 N   0  0  0  0  0  0  0  0  0  0  0  0
  187.0250  173.3780  137.1990 N   0  0  0  0  0  0  0  0  0  0  0  0
  188.8590  178.7680  137.7510 C   0  0  0  0  0  2  0  0  0  0  0  0
  189.2300  177.8080  136.6270 C   0  0  0  0  0  2  0  0  0  0  0  0
  188.9230  177.2800  138.0130 C   0  0  0  0  0  0  0  0  0  0  0  0
  190.0490  176.7970  138.9490 C   0  0  2  0  0  3  0  0  0  0  0  0
  191.5380  177.4550  142.3230 C   0  0  0  0  0  3  0  0  0  0  0  0
  190.1200  177.5760  140.2690 C   0  0  1  0  0  3  0  0  0  0  0  0
  190.5900  178.3180  144.3200 O   0  0  0  0  0  1  0  0  0  0  0  0
  189.0840  178.0280  142.4820 C   0  0  0  0  0  2  0  0  0  0  0  0
  188.9210  177.2780  141.1670 C   0  0  0  0  0  2  0  0  0  0  0  0
  191.4450  177.4340  140.9840 C   0  0  0  0  0  3  0  0  0  0  0  0
  190.3240  177.5130  143.2140 C   0  0  1  0  0  3  0  0  0  0  0  0
  191.4010  176.4710  138.2960 C   0  0  0  0  0  2  0  0  0  0  0  0
  191.4880  175.0700  137.9140 N   0  0  0  0  0  2  0  0  0  0  0  0
  192.6660  174.9370  137.0730 C   0  0  0  0  0  2  0  0  0  0  0  0
  193.8610  174.5390  137.9200 C   0  0  0  0  0  2  0  0  0  0  0  0
  194.9400  175.3800  137.6400 O   0  0  0  0  0  1  0  0  0  0  0  0
  2 10  1  0  0  0  0
  2  6  1  1  0  0  0
  3  9  1  0  0  0  0
  4 15  1  0  0  0  0
  4 10  1  0  0  0  0
  5  7  1  0  0  0  0
  6  9  2  0  0  0  0
  7  2  1  0  0  0  0
  7  3  2  0  0  0  0
  8  4  2  0  0  0  0
 10  1  1  6  0  0  0
 11  8  1  0  0  0  0
 11  5  1  0  0  0  0
 12 17  2  0  0  0  0
 13 14  1  6  0  0  0
 13 12  1  0  0  0  0
 15 17  1  0  0  0  0
 16 13  1  0  0  0  0
 16 15  2  0  0  0  0
 18 20  1  0  0  0  0
 19 18  1  0  0  0  0
 19 20  1  0  0  0  0
 20  1  1  0  0  0  0
 20 21  1  0  0  0  0
 21 29  1  6  0  0  0
 22 28  1  0  0  0  0
 23 21  1  6  0  0  0
 23 27  1  0  0  0  0
 23 26  1  0  0  0  0
 25 28  1  0  0  0  0
 26 25  1  0  0  0  0
 27 22  2  0  0  0  0
 28 24  1  1  0  0  0
 30 29  1  0  0  0  0
 31 30  1  0  0  0  0
 31 32  1  0  0  0  0
 33 32  1  0  0  0  0
M  END
>  <MODEL>
6

>  <REMARK>
 VINA RESULT:      -6.6      4.798      9.450
  Name = 
  9 active torsions:
  status: ('A' for Active; 'I' for Inactive)
    1  A    between atoms: C_5  and  C_9
    2  A    between atoms: C_6  and  C_8
    3  A    between atoms: C_8  and  N_30
    4  A    between atoms: C_9  and  C_17
    5  A    between atoms: C_9  and  C_32
    6  A    between atoms: C_13  and  C_26
    7  A    between atoms: C_17  and  N_30
    8  A    between atoms: N_24  and  C_27
    9  A    between atoms: N_24  and  C_32
                            x       y       z     vdW  Elec       q    Type
                         _______ _______ _______ _____ _____    ______ ____

>  <TORSDO>
F 9

$$$$
=
 OpenBabel10222419473D

 33 37  0  0  1  0  0  0  0  0999 V2000
  188.4850  176.4030  138.2860 N   0  0  0  0  0  2  0  0  0  0  0  0
  190.5540  175.6950  136.9510 C   0  0  2  0  0  3  0  0  0  0  0  0
  191.6440  173.6160  136.8470 N   0  0  0  0  0  0  0  0  0  0  0  0
  190.6410  176.7370  139.2820 C   0  0  0  0  0  0  0  0  0  0  0  0
  192.9630  175.3690  137.7200 N   0  0  0  0  0  2  0  0  0  0  0  0
  189.6430  174.7060  136.2200 C   0  0  0  0  0  3  0  0  0  0  0  0
  191.7490  174.8450  137.2040 C   0  0  0  0  0  0  0  0  0  0  0  0
  192.0710  176.9250  139.2590 N   0  0  0  0  0  2  0  0  0  0  0  0
  190.3340  173.3490  136.2950 C   0  0  0  0  0  3  0  0  0  0  0  0
  189.9160  176.2430  138.2310 C   0  0  0  0  0  0  0  0  0  0  0  0
  192.9820  176.7520  138.1400 C   0  0  0  0  0  2  0  0  0  0  0  0
  188.6390  178.2580  141.8580 C   0  0  0  0  0  3  0  0  0  0  0  0
  189.3270  177.2010  142.6580 C   0  0  1  0  0  3  0  0  0  0  0  0
  188.3060  176.2150  143.1940 C   0  0  0  0  0  1  0  0  0  0  0  0
  189.9750  177.1680  140.5380 C   0  0  0  0  0  0  0  0  0  0  0  0
  190.1580  176.5510  141.6580 N   0  0  0  0  0  0  0  0  0  0  0  0
  189.0290  178.2250  140.6280 N   0  0  0  0  0  0  0  0  0  0  0  0
  188.2200  177.6840  136.1970 C   0  0  0  0  0  2  0  0  0  0  0  0
  188.4390  178.7160  137.2980 C   0  0  0  0  0  2  0  0  0  0  0  0
  187.7030  177.4260  137.5950 C   0  0  0  0  0  0  0  0  0  0  0  0
  186.1720  177.4040  137.7670 C   0  0  2  0  0  3  0  0  0  0  0  0
  183.0540  176.3030  136.0050 C   0  0  0  0  0  3  0  0  0  0  0  0
  185.4440  176.6450  136.6490 C   0  0  1  0  0  3  0  0  0  0  0  0
  182.5610  174.3480  134.7540 O   0  0  0  0  0  1  0  0  0  0  0  0
  184.7400  174.4420  135.7410 C   0  0  0  0  0  2  0  0  0  0  0  0
  185.5330  175.1320  136.8410 C   0  0  0  0  0  2  0  0  0  0  0  0
  184.0320  177.1290  136.4100 C   0  0  0  0  0  3  0  0  0  0  0  0
  183.2630  174.8170  135.8620 C   0  0  1  0  0  3  0  0  0  0  0  0
  185.5070  178.7110  138.2250 C   0  0  0  0  0  2  0  0  0  0  0  0
  185.6920  178.9360  139.6500 N   0  0  0  0  0  2  0  0  0  0  0  0
  184.4270  178.6180  140.2920 C   0  0  0  0  0  2  0  0  0  0  0  0
  184.5640  178.7620  141.7970 C   0  0  0  0  0  2  0  0  0  0  0  0
  185.5020  179.7530  142.0940 O   0  0  0  0  0  1  0  0  0  0  0  0
  2  6  1  1  0  0  0
  2  7  1  0  0  0  0
  2 10  1  0  0  0  0
  3  7  2  0  0  0  0
  4 15  1  0  0  0  0
  5 11  1  0  0  0  0
  6  9  2  0  0  0  0
  7  5  1  0  0  0  0
  8  4  1  0  0  0  0
  9  3  1  0  0  0  0
 10  1  1  0  0  0  0
 10  4  2  0  0  0  0
 11  8  1  0  0  0  0
 12 13  1  0  0  0  0
 13 14  1  6  0  0  0
 15 17  1  0  0  0  0
 15 16  2  0  0  0  0
 16 13  1  0  0  0  0
 17 12  2  0  0  0  0
 18 19  1  0  0  0  0
 18 20  1  0  0  0  0
 19 20  1  0  0  0  0
 20 21  1  0  0  0  0
 20  1  1  0  0  0  0
 21 29  1  6  0  0  0
 22 27  2  0  0  0  0
 23 26  1  0  0  0  0
 23 21  1  1  0  0  0
 25 28  1  0  0  0  0
 25 26  1  0  0  0  0
 27 23  1  0  0  0  0
 28 24  1  6  0  0  0
 28 22  1  0  0  0  0
 29 30  1  0  0  0  0
 30 31  1  0  0  0  0
 31 32  1  0  0  0  0
 32 33  1  0  0  0  0
M  END
>  <MODEL>
7

>  <REMARK>
 VINA RESULT:      -6.6      3.819      6.817
  Name = 
  9 active torsions:
  status: ('A' for Active; 'I' for Inactive)
    1  A    between atoms: C_5  and  C_9
    2  A    between atoms: C_6  and  C_8
    3  A    between atoms: C_8  and  N_30
    4  A    between atoms: C_9  and  C_17
    5  A    between atoms: C_9  and  C_32
    6  A    between atoms: C_13  and  C_26
    7  A    between atoms: C_17  and  N_30
    8  A    between atoms: N_24  and  C_27
    9  A    between atoms: N_24  and  C_32
                            x       y       z     vdW  Elec       q    Type
                         _______ _______ _______ _____ _____    ______ ____

>  <TORSDO>
F 9

$$$$
=
 OpenBabel10222419473D

 33 37  0  0  1  0  0  0  0  0999 V2000
  184.6230  179.3270  139.6420 N   0  0  0  0  0  2  0  0  0  0  0  0
  185.5590  177.6310  137.9670 C   0  0  2  0  0  3  0  0  0  0  0  0
  186.7190  177.9790  135.9520 N   0  0  0  0  0  0  0  0  0  0  0  0
  183.1740  178.5430  137.9000 C   0  0  0  0  0  0  0  0  0  0  0  0
  184.6400  176.8870  135.7070 N   0  0  0  0  0  2  0  0  0  0  0  0
  186.9440  178.1920  138.2960 C   0  0  0  0  0  3  0  0  0  0  0  0
  185.6410  177.5260  136.4840 C   0  0  0  0  0  0  0  0  0  0  0  0
  182.7300  177.6020  136.9010 N   0  0  0  0  0  0  0  0  0  0  0  0
  187.6020  178.5230  136.9610 C   0  0  0  0  0  3  0  0  0  0  0  0
  184.4270  178.5420  138.4500 C   0  0  1  0  0  3  0  0  0  0  0  0
  183.4380  176.4450  136.3780 C   0  0  0  0  0  2  0  0  0  0  0  0
  181.1860  181.4230  138.7430 C   0  0  0  0  0  3  0  0  0  0  0  0
  180.1980  180.3390  139.0230 C   0  0  1  0  0  3  0  0  0  0  0  0
  179.0140  180.4650  138.0830 C   0  0  0  0  0  1  0  0  0  0  0  0
  182.1410  179.5140  138.3450 C   0  0  0  0  0  0  0  0  0  0  0  0
  180.9560  179.1420  138.6990 N   0  0  0  0  0  0  0  0  0  0  0  0
  182.3100  180.9260  138.3510 N   0  0  0  0  0  0  0  0  0  0  0  0
  183.8010  177.5060  141.0830 C   0  0  0  0  0  2  0  0  0  0  0  0
  183.0320  178.7530  141.5030 C   0  0  0  0  0  2  0  0  0  0  0  0
  184.4620  178.8640  141.0180 C   0  0  0  0  0  0  0  0  0  0  0  0
  185.6210  179.1100  142.0040 C   0  0  2  0  0  3  0  0  0  0  0  0
  188.1030  176.7960  143.5920 C   0  0  0  0  0  3  0  0  0  0  0  0
  186.7250  178.0470  141.9250 C   0  0  1  0  0  3  0  0  0  0  0  0
  190.2010  175.9820  142.8380 O   0  0  0  0  0  1  0  0  0  0  0  0
  189.1000  177.5430  141.3960 C   0  0  0  0  0  2  0  0  0  0  0  0
  188.0320  178.6280  141.3880 C   0  0  0  0  0  2  0  0  0  0  0  0
  186.9070  177.2670  143.2070 C   0  0  0  0  0  3  0  0  0  0  0  0
  189.3700  177.1000  142.8340 C   0  0  1  0  0  3  0  0  0  0  0  0
  185.2400  179.5690  143.4200 C   0  0  0  0  0  2  0  0  0  0  0  0
  184.8830  178.4440  144.2700 N   0  0  0  0  0  2  0  0  0  0  0  0
  184.4170  179.0020  145.5300 C   0  0  0  0  0  2  0  0  0  0  0  0
  185.0500  178.2540  146.6890 C   0  0  0  0  0  2  0  0  0  0  0  0
  186.4410  178.2820  146.5670 O   0  0  0  0  0  1  0  0  0  0  0  0
  1 20  1  0  0  0  0
  2  6  1  6  0  0  0
  2 10  1  0  0  0  0
  3  7  2  0  0  0  0
  3  9  1  0  0  0  0
  4 15  1  0  0  0  0
  4 10  1  0  0  0  0
  5 11  1  0  0  0  0
  5  7  1  0  0  0  0
  7  2  1  0  0  0  0
  8  4  2  0  0  0  0
  9  6  2  0  0  0  0
 10  1  1  1  0  0  0
 11  8  1  0  0  0  0
 12 13  1  0  0  0  0
 13 14  1  6  0  0  0
 15 17  1  0  0  0  0
 15 16  2  0  0  0  0
 16 13  1  0  0  0  0
 17 12  2  0  0  0  0
 18 19  1  0  0  0  0
 20 18  1  0  0  0  0
 20 19  1  0  0  0  0
 20 21  1  0  0  0  0
 21 29  1  1  0  0  0
 23 21  1  1  0  0  0
 23 27  1  0  0  0  0
 25 28  1  0  0  0  0
 26 25  1  0  0  0  0
 26 23  1  0  0  0  0
 27 22  2  0  0  0  0
 28 24  1  6  0  0  0
 28 22  1  0  0  0  0
 29 30  1  0  0  0  0
 30 31  1  0  0  0  0
 31 32  1  0  0  0  0
 33 32  1  0  0  0  0
M  END
>  <MODEL>
8

>  <REMARK>
 VINA RESULT:      -6.5      3.969      8.567
  Name = 
  9 active torsions:
  status: ('A' for Active; 'I' for Inactive)
    1  A    between atoms: C_5  and  C_9
    2  A    between atoms: C_6  and  C_8
    3  A    between atoms: C_8  and  N_30
    4  A    between atoms: C_9  and  C_17
    5  A    between atoms: C_9  and  C_32
    6  A    between atoms: C_13  and  C_26
    7  A    between atoms: C_17  and  N_30
    8  A    between atoms: N_24  and  C_27
    9  A    between atoms: N_24  and  C_32
                            x       y       z     vdW  Elec       q    Type
                         _______ _______ _______ _____ _____    ______ ____

>  <TORSDO>
F 9

$$$$
=
 OpenBabel10222419473D

 33 37  0  0  1  0  0  0  0  0999 V2000
  187.2190  177.2290  142.8460 N   0  0  0  0  0  2  0  0  0  0  0  0
  185.2800  177.8750  144.3910 C   0  0  2  0  0  3  0  0  0  0  0  0
  184.3190  179.9790  144.8090 N   0  0  0  0  0  0  0  0  0  0  0  0
  187.7200  177.7410  145.1350 C   0  0  0  0  0  0  0  0  0  0  0  0
  185.3180  178.9680  146.6940 N   0  0  0  0  0  2  0  0  0  0  0  0
  184.5350  178.3280  143.1320 C   0  0  0  0  0  3  0  0  0  0  0  0
  184.9800  179.0020  145.3170 C   0  0  0  0  0  0  0  0  0  0  0  0
  187.4080  177.8770  146.5370 N   0  0  0  0  0  2  0  0  0  0  0  0
  184.0460  179.7450  143.4080 C   0  0  0  0  0  3  0  0  0  0  0  0
  186.7770  177.6730  144.1450 C   0  0  0  0  0  0  0  0  0  0  0  0
  186.1030  177.8520  147.1750 C   0  0  0  0  0  2  0  0  0  0  0  0
  191.2030  178.2460  144.3820 C   0  0  0  0  0  3  0  0  0  0  0  0
  191.1910  176.7630  144.5600 C   0  0  1  0  0  3  0  0  0  0  0  0
  192.0560  176.3790  145.7460 C   0  0  0  0  0  1  0  0  0  0  0  0
  189.1680  177.6310  144.8250 C   0  0  0  0  0  0  0  0  0  0  0  0
  189.7940  176.5020  144.8650 N   0  0  0  0  0  0  0  0  0  0  0  0
  190.0190  178.7340  144.5390 N   0  0  0  0  0  0  0  0  0  0  0  0
  187.5190  179.5520  142.0800 C   0  0  0  0  0  2  0  0  0  0  0  0
  186.4620  178.9420  141.1660 C   0  0  0  0  0  2  0  0  0  0  0  0
  187.5820  178.0850  141.7190 C   0  0  0  0  0  0  0  0  0  0  0  0
  188.7640  177.6480  140.8310 C   0  0  2  0  0  3  0  0  0  0  0  0
  189.0810  176.2980  137.3510 C   0  0  0  0  0  3  0  0  0  0  0  0
  188.4460  177.6840  139.3310 C   0  0  1  0  0  3  0  0  0  0  0  0
  188.9980  177.3690  135.2350 O   0  0  0  0  0  1  0  0  0  0  0  0
  188.8300  178.8020  137.1450 C   0  0  0  0  0  2  0  0  0  0  0  0
  189.1310  178.8600  138.6360 C   0  0  0  0  0  2  0  0  0  0  0  0
  188.6800  176.3650  138.6300 C   0  0  0  0  0  3  0  0  0  0  0  0
  189.4290  177.5270  136.5510 C   0  0  1  0  0  3  0  0  0  0  0  0
  189.5770  176.4350  141.3090 C   0  0  0  0  0  2  0  0  0  0  0  0
  190.8270  176.3060  140.5770 N   0  0  0  0  0  2  0  0  0  0  0  0
  191.6330  177.4680  140.9140 C   0  0  0  0  0  2  0  0  0  0  0  0
  192.8770  177.5020  140.0450 C   0  0  0  0  0  2  0  0  0  0  0  0
  192.6500  176.7870  138.8670 O   0  0  0  0  0  1  0  0  0  0  0  0
  1 10  1  0  0  0  0
  2  6  1  6  0  0  0
  2  7  1  0  0  0  0
  3  7  2  0  0  0  0
  4  8  1  0  0  0  0
  5 11  1  0  0  0  0
  6  9  2  0  0  0  0
  7  5  1  0  0  0  0
  8 11  1  0  0  0  0
  9  3  1  0  0  0  0
 10  2  1  0  0  0  0
 10  4  2  0  0  0  0
 12 17  2  0  0  0  0
 12 13  1  0  0  0  0
 13 16  1  0  0  0  0
 13 14  1  1  0  0  0
 15 16  2  0  0  0  0
 15  4  1  0  0  0  0
 17 15  1  0  0  0  0
 19 20  1  0  0  0  0
 19 18  1  0  0  0  0
 20 18  1  0  0  0  0
 20  1  1  0  0  0  0
 21 29  1  1  0  0  0
 21 20  1  0  0  0  0
 22 27  2  0  0  0  0
 23 21  1  1  0  0  0
 25 26  1  0  0  0  0
 26 23  1  0  0  0  0
 27 23  1  0  0  0  0
 28 24  1  6  0  0  0
 28 25  1  0  0  0  0
 28 22  1  0  0  0  0
 30 31  1  0  0  0  0
 30 29  1  0  0  0  0
 32 31  1  0  0  0  0
 33 32  1  0  0  0  0
M  END
>  <MODEL>
9

>  <REMARK>
 VINA RESULT:      -6.5      2.073      5.318
  Name = 
  9 active torsions:
  status: ('A' for Active; 'I' for Inactive)
    1  A    between atoms: C_5  and  C_9
    2  A    between atoms: C_6  and  C_8
    3  A    between atoms: C_8  and  N_30
    4  A    between atoms: C_9  and  C_17
    5  A    between atoms: C_9  and  C_32
    6  A    between atoms: C_13  and  C_26
    7  A    between atoms: C_17  and  N_30
    8  A    between atoms: N_24  and  C_27
    9  A    between atoms: N_24  and  C_32
                            x       y       z     vdW  Elec       q    Type
                         _______ _______ _______ _____ _____    ______ ____

>  <TORSDO>
F 9

$$$$
