=
 OpenBabel10222416473D

 45 50  0  0  1  0  0  0  0  0999 V2000
  184.6730  177.9120  138.2300 C   0  0  0  0  0  0  0  0  0  0  0  0
  182.9570  179.5960  139.0700 C   0  0  1  0  0  3  0  0  0  0  0  0
  184.8230  176.2080  135.0210 O   0  0  0  0  0  0  0  0  0  0  0  0
  179.2570  181.6230  139.2870 C   0  0  0  0  0  2  0  0  0  0  0  0
  181.4660  178.8610  140.9070 C   0  0  0  0  0  2  0  0  0  0  0  0
  183.1720  177.7460  135.7850 C   0  0  0  0  0  2  0  0  0  0  0  0
  181.1960  180.8660  137.9350 N   0  0  0  0  0  0  0  0  0  0  0  0
  185.6370  178.3120  139.1790 O   0  0  0  0  0  0  0  0  0  0  0  0
  182.9060  179.2380  140.5700 C   0  0  1  0  0  3  0  0  0  0  0  0
  183.7840  178.1890  140.8890 O   0  0  0  0  0  0  0  0  0  0  0  0
  180.5860  179.5250  139.8570 C   0  0  2  0  0  3  0  0  0  0  0  0
  183.4150  178.4370  138.1790 C   0  0  0  0  0  0  0  0  0  0  0  0
  184.4000  176.9200  135.9710 C   0  0  0  0  0  0  0  0  0  0  0  0
  181.5450  179.9950  138.8180 C   0  0  0  0  0  0  0  0  0  0  0  0
  179.8150  181.3090  137.8770 C   0  0  2  0  0  3  0  0  0  0  0  0
  185.0740  176.9340  137.2400 N   0  0  0  0  0  0  0  0  0  0  0  0
  182.4610  177.9050  137.1270 C   0  0  2  0  0  3  0  0  0  0  0  0
  179.8560  180.7500  140.4100 C   0  0  0  0  0  2  0  0  0  0  0  0
  185.4400  179.2990  140.0670 O   0  0  0  0  0  0  0  0  0  0  0  0
  184.9630  178.7390  141.1780 O   0  0  0  0  0  0  0  0  0  0  0  0
  178.9490  182.3030  135.6310 C   0  0  0  0  0  2  0  0  0  0  0  0
  180.3570  182.3870  135.7430 O   0  0  0  0  0  0  0  0  0  0  0  0
  179.6240  183.9090  137.4800 C   0  0  0  0  0  1  0  0  0  0  0  0
  179.6170  182.4970  136.9320 C   0  0  2  0  0  0  0  0  0  0  0  0
  187.4990  176.6470  137.0050 C   0  0  0  0  0  0  0  0  0  0  0  0
  186.2960  176.1910  137.3870 C   0  0  0  0  0  3  0  0  0  0  0  0
  188.6620  175.8100  137.0720 N   0  0  0  0  0  2  0  0  0  0  0  0
  188.6120  174.8750  134.9250 O   0  0  0  0  0  0  0  0  0  0  0  0
  189.2590  175.1030  135.9790 C   0  0  0  0  0  0  0  0  0  0  0  0
  190.9790  173.2550  134.8920 S   0  0  0  0  0  0  0  0  0  0  0  0
  191.6990  176.2590  134.5970 O   0  0  0  0  0  1  0  0  0  0  0  0
  193.1150  175.3300  136.3800 C   0  0  0  0  0  0  0  0  0  0  0  0
  191.6980  175.7680  135.9120 C   0  0  2  0  0  3  0  0  0  0  0  0
  190.6720  174.6360  136.0610 C   0  0  1  0  0  3  0  0  0  0  0  0
  194.2230  175.9510  135.5310 C   0  0  0  0  0  1  0  0  0  0  0  0
  192.8060  173.1880  135.0630 C   0  0  0  0  0  2  0  0  0  0  0  0
  193.3120  175.8120  137.8050 C   0  0  0  0  0  1  0  0  0  0  0  0
  193.2910  173.8020  136.3750 C   0  0  0  0  0  2  0  0  0  0  0  0
  187.6670  178.0360  136.4820 C   0  0  0  0  0  2  0  0  0  0  0  0
  188.9840  178.6260  136.9530 C   0  0  0  0  0  2  0  0  0  0  0  0
  189.0520  178.6060  139.6220 C   0  0  0  0  0  3  0  0  0  0  0  0
  189.0200  178.6180  138.4150 C   0  0  0  0  0  0  0  0  0  0  0  0
  181.9360  176.6760  137.5410 O   0  0  0  0  0  0  0  0  0  0  0  0
  179.7670  176.2270  138.4100 C   0  0  0  0  0  1  0  0  0  0  0  0
  180.5750  176.7500  137.2410 C   0  0  0  0  0  2  0  0  0  0  0  0
  1  8  1  0  0  0  0
  2 12  1  6  0  0  0
  2  9  1  0  0  0  0
  3 13  2  0  0  0  0
  4 18  1  0  0  0  0
  6 13  1  0  0  0  0
  6 17  1  0  0  0  0
  7 14  2  0  0  0  0
  8 19  1  0  0  0  0
  9 10  1  0  0  0  0
  9  5  1  6  0  0  0
 10 20  1  0  0  0  0
 11 18  1  1  0  0  0
 11  5  1  0  0  0  0
 12  1  2  0  0  0  0
 13 16  1  0  0  0  0
 14  2  1  0  0  0  0
 14 11  1  0  0  0  0
 15  7  1  0  0  0  0
 15  4  1  1  0  0  0
 16 26  1  0  0  0  0
 16  1  1  0  0  0  0
 17 43  1  1  0  0  0
 17 12  1  0  0  0  0
 19 20  1  0  0  0  0
 21 22  1  0  0  0  0
 21 24  1  0  0  0  0
 22 24  1  0  0  0  0
 24 23  1  1  0  0  0
 24 15  1  0  0  0  0
 25 27  1  0  0  0  0
 25 26  2  0  0  0  0
 28 29  2  0  0  0  0
 29 27  1  0  0  0  0
 30 36  1  0  0  0  0
 30 34  1  0  0  0  0
 32 37  1  0  0  0  0
 33 31  1  6  0  0  0
 33 34  1  0  0  0  0
 33 32  1  0  0  0  0
 34 29  1  6  0  0  0
 35 32  1  0  0  0  0
 36 38  1  0  0  0  0
 38 32  1  0  0  0  0
 39 40  1  0  0  0  0
 39 25  1  0  0  0  0
 40 42  1  0  0  0  0
 42 41  3  0  0  0  0
 45 43  1  0  0  0  0
 45 44  1  0  0  0  0
M  END
>  <MODEL>
1

>  <REMARK>
 VINA RESULT:      -6.0      0.000      0.000
  Name = 
  9 active torsions:
  status: ('A' for Active; 'I' for Inactive)
    1  A    between atoms: C_6  and  N_7
    2  A    between atoms: C_6  and  C_10
    3  A    between atoms: C_8  and  C_10
    4  A    between atoms: C_8  and  C_36
    5  A    between atoms: C_23  and  C_31
    6  A    between atoms: C_26  and  C_34
    7  A    between atoms: C_29  and  O_41
    8  A    between atoms: N_37  and  C_45
    9  A    between atoms: C_39  and  O_41
                            x       y       z     vdW  Elec       q    Type
                         _______ _______ _______ _____ _____    ______ ____

>  <TORSDO>
F 9

$$$$
=
 OpenBabel10222416473D

 45 50  0  0  1  0  0  0  0  0999 V2000
  186.8390  174.9490  136.7770 C   0  0  0  0  0  0  0  0  0  0  0  0
  184.5640  173.9380  137.3190 C   0  0  1  0  0  3  0  0  0  0  0  0
  187.7610  178.4490  136.4260 O   0  0  0  0  0  0  0  0  0  0  0  0
  180.3560  173.7340  137.6290 C   0  0  0  0  0  2  0  0  0  0  0  0
  183.4410  172.6630  135.5160 C   0  0  0  0  0  2  0  0  0  0  0  0
  185.6070  177.5420  136.8920 C   0  0  0  0  0  2  0  0  0  0  0  0
  182.4760  174.9180  138.1440 N   0  0  0  0  0  0  0  0  0  0  0  0
  187.5300  173.7820  137.1650 O   0  0  0  0  0  0  0  0  0  0  0  0
  184.6160  172.6390  136.4900 C   0  0  1  0  0  3  0  0  0  0  0  0
  185.8330  172.5050  135.8010 O   0  0  0  0  0  0  0  0  0  0  0  0
  182.4010  173.6000  136.1150 C   0  0  2  0  0  3  0  0  0  0  0  0
  185.4780  175.0450  136.7820 C   0  0  0  0  0  0  0  0  0  0  0  0
  187.0580  177.4120  136.5700 C   0  0  0  0  0  0  0  0  0  0  0  0
  183.1200  174.2860  137.2250 C   0  0  0  0  0  0  0  0  0  0  0  0
  181.0360  175.0650  138.0350 C   0  0  2  0  0  3  0  0  0  0  0  0
  187.6300  176.1040  136.4090 N   0  0  0  0  0  0  0  0  0  0  0  0
  184.8520  176.3460  136.3170 C   0  0  2  0  0  3  0  0  0  0  0  0
  181.2220  172.8350  136.7210 C   0  0  0  0  0  2  0  0  0  0  0  0
  186.9240  172.6870  137.6510 O   0  0  0  0  0  0  0  0  0  0  0  0
  186.6810  171.8810  136.6180 O   0  0  0  0  0  0  0  0  0  0  0  0
  179.8970  177.0240  139.3190 C   0  0  0  0  0  2  0  0  0  0  0  0
  181.1530  176.6820  139.8730 O   0  0  0  0  0  0  0  0  0  0  0  0
  179.8380  174.7050  140.3570 C   0  0  0  0  0  1  0  0  0  0  0  0
  180.4050  175.6380  139.3060 C   0  0  2  0  0  0  0  0  0  0  0  0
  189.9760  176.1080  137.1270 C   0  0  0  0  0  0  0  0  0  0  0  0
  189.0420  175.9870  136.1700 C   0  0  0  0  0  3  0  0  0  0  0  0
  191.3730  176.0970  136.8020 N   0  0  0  0  0  2  0  0  0  0  0  0
  191.9980  174.0590  137.7730 O   0  0  0  0  0  0  0  0  0  0  0  0
  192.2740  175.0000  136.9860 C   0  0  0  0  0  0  0  0  0  0  0  0
  193.9840  176.5790  135.5250 S   0  0  0  0  0  0  0  0  0  0  0  0
  195.0990  175.2030  138.0720 O   0  0  0  0  0  1  0  0  0  0  0  0
  195.9090  173.9320  136.1300 C   0  0  0  0  0  0  0  0  0  0  0  0
  194.7140  174.3340  137.0400 C   0  0  2  0  0  3  0  0  0  0  0  0
  193.5590  174.9410  136.2310 C   0  0  1  0  0  3  0  0  0  0  0  0
  197.2580  174.1640  136.8080 C   0  0  0  0  0  1  0  0  0  0  0  0
  195.6910  176.1770  134.9780 C   0  0  0  0  0  2  0  0  0  0  0  0
  195.8000  172.4470  135.8340 C   0  0  0  0  0  1  0  0  0  0  0  0
  195.9020  174.6770  134.7840 C   0  0  0  0  0  2  0  0  0  0  0  0
  189.5920  176.2740  138.5600 C   0  0  0  0  0  2  0  0  0  0  0  0
  189.8830  177.6890  139.0280 C   0  0  0  0  0  2  0  0  0  0  0  0
  188.0030  178.4370  140.7700 C   0  0  0  0  0  3  0  0  0  0  0  0
  188.8550  178.1010  139.9830 C   0  0  0  0  0  0  0  0  0  0  0  0
  184.8550  176.4010  134.9200 O   0  0  0  0  0  0  0  0  0  0  0  0
  182.5400  176.9370  134.7960 C   0  0  0  0  0  1  0  0  0  0  0  0
  183.9600  177.4230  134.6000 C   0  0  0  0  0  2  0  0  0  0  0  0
  1 12  2  0  0  0  0
  1  8  1  0  0  0  0
  2 12  1  6  0  0  0
  3 13  2  0  0  0  0
  8 19  1  0  0  0  0
  9  5  1  6  0  0  0
  9  2  1  0  0  0  0
 10  9  1  0  0  0  0
 10 20  1  0  0  0  0
 11  5  1  1  0  0  0
 11 18  1  0  0  0  0
 11 14  1  0  0  0  0
 13  6  1  0  0  0  0
 14  2  1  0  0  0  0
 14  7  2  0  0  0  0
 15  4  1  1  0  0  0
 15  7  1  0  0  0  0
 15 24  1  0  0  0  0
 16 13  1  0  0  0  0
 16  1  1  0  0  0  0
 17 43  1  6  0  0  0
 17 12  1  0  0  0  0
 17  6  1  0  0  0  0
 18  4  1  0  0  0  0
 20 19  1  0  0  0  0
 21 22  1  0  0  0  0
 24 21  1  0  0  0  0
 24 22  1  0  0  0  0
 24 23  1  1  0  0  0
 25 39  1  0  0  0  0
 26 16  1  0  0  0  0
 26 25  2  0  0  0  0
 27 29  1  0  0  0  0
 27 25  1  0  0  0  0
 29 28  2  0  0  0  0
 30 34  1  0  0  0  0
 32 35  1  0  0  0  0
 32 33  1  0  0  0  0
 33 31  1  1  0  0  0
 34 29  1  1  0  0  0
 34 33  1  0  0  0  0
 36 30  1  0  0  0  0
 37 32  1  0  0  0  0
 38 36  1  0  0  0  0
 38 32  1  0  0  0  0
 39 40  1  0  0  0  0
 40 42  1  0  0  0  0
 42 41  3  0  0  0  0
 45 44  1  0  0  0  0
 45 43  1  0  0  0  0
M  END
>  <MODEL>
2

>  <REMARK>
 VINA RESULT:      -5.7      3.354      5.347
  Name = 
  9 active torsions:
  status: ('A' for Active; 'I' for Inactive)
    1  A    between atoms: C_6  and  N_7
    2  A    between atoms: C_6  and  C_10
    3  A    between atoms: C_8  and  C_10
    4  A    between atoms: C_8  and  C_36
    5  A    between atoms: C_23  and  C_31
    6  A    between atoms: C_26  and  C_34
    7  A    between atoms: C_29  and  O_41
    8  A    between atoms: N_37  and  C_45
    9  A    between atoms: C_39  and  O_41
                            x       y       z     vdW  Elec       q    Type
                         _______ _______ _______ _____ _____    ______ ____

>  <TORSDO>
F 9

$$$$
=
 OpenBabel10222416473D

 45 50  0  0  1  0  0  0  0  0999 V2000
  185.8660  174.9380  136.8180 C   0  0  0  0  0  0  0  0  0  0  0  0
  183.5470  174.8200  137.8660 C   0  0  1  0  0  3  0  0  0  0  0  0
  187.6780  177.8450  135.5970 O   0  0  0  0  0  0  0  0  0  0  0  0
  179.6060  176.0410  138.7750 C   0  0  0  0  0  2  0  0  0  0  0  0
  181.7730  173.6990  136.5500 C   0  0  0  0  0  2  0  0  0  0  0  0
  185.4880  177.7720  136.5320 C   0  0  0  0  0  2  0  0  0  0  0  0
  182.0370  176.5430  138.7320 N   0  0  0  0  0  0  0  0  0  0  0  0
  186.2500  173.6900  137.3530 O   0  0  0  0  0  0  0  0  0  0  0  0
  183.0560  173.4570  137.3390 C   0  0  1  0  0  3  0  0  0  0  0  0
  184.0230  172.8250  136.5380 O   0  0  0  0  0  0  0  0  0  0  0  0
  181.1870  175.0060  137.0650 C   0  0  2  0  0  3  0  0  0  0  0  0
  184.6200  175.4680  136.9840 C   0  0  0  0  0  0  0  0  0  0  0  0
  186.7460  177.1290  136.0540 C   0  0  0  0  0  0  0  0  0  0  0  0
  182.2770  175.5960  137.8940 C   0  0  0  0  0  0  0  0  0  0  0  0
  180.7090  177.1280  138.7880 C   0  0  2  0  0  3  0  0  0  0  0  0
  186.8700  175.6990  136.1050 N   0  0  0  0  0  0  0  0  0  0  0  0
  184.3210  176.8070  136.3370 C   0  0  2  0  0  3  0  0  0  0  0  0
  179.9790  174.7750  137.9750 C   0  0  0  0  0  2  0  0  0  0  0  0
  185.4590  172.9460  138.1410 O   0  0  0  0  0  0  0  0  0  0  0  0
  184.7950  172.1040  137.3500 O   0  0  0  0  0  0  0  0  0  0  0  0
  180.5420  179.5350  139.7680 C   0  0  0  0  0  2  0  0  0  0  0  0
  181.6770  178.8420  140.2490 O   0  0  0  0  0  0  0  0  0  0  0  0
  179.8610  177.5820  141.2430 C   0  0  0  0  0  1  0  0  0  0  0  0
  180.5320  178.0750  139.9780 C   0  0  2  0  0  0  0  0  0  0  0  0
  189.2060  175.0520  136.4880 C   0  0  0  0  0  0  0  0  0  0  0  0
  188.1130  175.0940  135.7100 C   0  0  0  0  0  3  0  0  0  0  0  0
  190.4490  174.5370  135.9900 N   0  0  0  0  0  2  0  0  0  0  0  0
  191.1910  176.3910  134.7650 O   0  0  0  0  0  0  0  0  0  0  0  0
  191.4580  175.2860  135.3020 C   0  0  0  0  0  0  0  0  0  0  0  0
  194.0010  176.0790  134.6240 S   0  0  0  0  0  0  0  0  0  0  0  0
  193.5120  175.0920  137.5250 O   0  0  0  0  0  1  0  0  0  0  0  0
  194.6240  173.2720  136.3020 C   0  0  0  0  0  0  0  0  0  0  0  0
  193.3420  174.1230  136.5250 C   0  0  2  0  0  3  0  0  0  0  0  0
  192.8560  174.7750  135.2230 C   0  0  1  0  0  3  0  0  0  0  0  0
  195.5800  173.3430  137.4920 C   0  0  0  0  0  1  0  0  0  0  0  0
  195.5760  175.1950  134.9560 C   0  0  0  0  0  2  0  0  0  0  0  0
  194.2080  171.8210  136.1420 C   0  0  0  0  0  1  0  0  0  0  0  0
  195.3900  173.6810  135.0320 C   0  0  0  0  0  2  0  0  0  0  0  0
  189.1700  175.5530  137.8950 C   0  0  0  0  0  2  0  0  0  0  0  0
  189.8640  176.8990  137.9980 C   0  0  0  0  0  2  0  0  0  0  0  0
  188.6050  178.4050  139.8060 C   0  0  0  0  0  3  0  0  0  0  0  0
  189.1750  177.7220  138.9900 C   0  0  0  0  0  0  0  0  0  0  0  0
  184.0670  176.6290  134.9740 O   0  0  0  0  0  0  0  0  0  0  0  0
  181.8600  177.4580  134.6530 C   0  0  0  0  0  1  0  0  0  0  0  0
  183.3420  177.7590  134.5940 C   0  0  0  0  0  2  0  0  0  0  0  0
  1 12  2  0  0  0  0
  1  8  1  0  0  0  0
  2 12  1  6  0  0  0
  2 14  1  0  0  0  0
  3 13  2  0  0  0  0
  7 15  1  0  0  0  0
  8 19  1  0  0  0  0
  9  5  1  6  0  0  0
  9  2  1  0  0  0  0
 10  9  1  0  0  0  0
 10 20  1  0  0  0  0
 11  5  1  1  0  0  0
 11 14  1  0  0  0  0
 11 18  1  0  0  0  0
 13 16  1  0  0  0  0
 13  6  1  0  0  0  0
 14  7  2  0  0  0  0
 15  4  1  1  0  0  0
 15 24  1  0  0  0  0
 16  1  1  0  0  0  0
 17 43  1  6  0  0  0
 17  6  1  0  0  0  0
 17 12  1  0  0  0  0
 18  4  1  0  0  0  0
 20 19  1  0  0  0  0
 21 24  1  0  0  0  0
 21 22  1  0  0  0  0
 24 22  1  0  0  0  0
 24 23  1  1  0  0  0
 25 39  1  0  0  0  0
 26 16  1  0  0  0  0
 26 25  2  0  0  0  0
 27 25  1  0  0  0  0
 28 29  2  0  0  0  0
 29 27  1  0  0  0  0
 30 36  1  0  0  0  0
 30 34  1  0  0  0  0
 32 33  1  0  0  0  0
 32 35  1  0  0  0  0
 33 31  1  1  0  0  0
 34 29  1  1  0  0  0
 34 33  1  0  0  0  0
 36 38  1  0  0  0  0
 37 32  1  0  0  0  0
 38 32  1  0  0  0  0
 39 40  1  0  0  0  0
 40 42  1  0  0  0  0
 42 41  3  0  0  0  0
 45 44  1  0  0  0  0
 45 43  1  0  0  0  0
M  END
>  <MODEL>
3

>  <REMARK>
 VINA RESULT:      -5.2      2.585      4.347
  Name = 
  9 active torsions:
  status: ('A' for Active; 'I' for Inactive)
    1  A    between atoms: C_6  and  N_7
    2  A    between atoms: C_6  and  C_10
    3  A    between atoms: C_8  and  C_10
    4  A    between atoms: C_8  and  C_36
    5  A    between atoms: C_23  and  C_31
    6  A    between atoms: C_26  and  C_34
    7  A    between atoms: C_29  and  O_41
    8  A    between atoms: N_37  and  C_45
    9  A    between atoms: C_39  and  O_41
                            x       y       z     vdW  Elec       q    Type
                         _______ _______ _______ _____ _____    ______ ____

>  <TORSDO>
F 9

$$$$
=
 OpenBabel10222416473D

 45 50  0  0  1  0  0  0  0  0999 V2000
  183.7650  178.5480  140.7910 C   0  0  0  0  0  0  0  0  0  0  0  0
  181.6800  179.5330  139.7090 C   0  0  1  0  0  3  0  0  0  0  0  0
  187.2020  178.6050  139.6020 O   0  0  0  0  0  0  0  0  0  0  0  0
  179.2170  181.0180  136.6150 C   0  0  0  0  0  2  0  0  0  0  0  0
  179.9940  177.9320  138.8520 C   0  0  0  0  0  2  0  0  0  0  0  0
  185.2690  179.5030  138.5360 C   0  0  0  0  0  2  0  0  0  0  0  0
  181.3660  181.1020  137.8540 N   0  0  0  0  0  0  0  0  0  0  0  0
  183.1640  178.4900  142.0660 O   0  0  0  0  0  0  0  0  0  0  0  0
  180.6160  178.4960  140.1260 C   0  0  1  0  0  3  0  0  0  0  0  0
  181.1650  177.4690  140.9110 O   0  0  0  0  0  0  0  0  0  0  0  0
  180.2140  178.9740  137.7640 C   0  0  2  0  0  3  0  0  0  0  0  0
  183.1050  178.9690  139.6740 C   0  0  0  0  0  0  0  0  0  0  0  0
  185.9500  178.7510  139.6300 C   0  0  0  0  0  0  0  0  0  0  0  0
  181.1840  179.9330  138.3640 C   0  0  0  0  0  0  0  0  0  0  0  0
  180.7050  181.4490  136.6100 C   0  0  2  0  0  3  0  0  0  0  0  0
  185.1640  178.1870  140.6930 N   0  0  0  0  0  0  0  0  0  0  0  0
  183.8530  178.9610  138.3560 C   0  0  2  0  0  3  0  0  0  0  0  0
  178.9330  179.7450  137.4390 C   0  0  0  0  0  2  0  0  0  0  0  0
  181.9170  178.9180  142.3190 O   0  0  0  0  0  0  0  0  0  0  0  0
  181.1060  177.8700  142.1810 O   0  0  0  0  0  0  0  0  0  0  0  0
  179.9050  183.5620  135.3140 C   0  0  0  0  0  2  0  0  0  0  0  0
  181.2030  183.1570  134.9230 O   0  0  0  0  0  0  0  0  0  0  0  0
  181.5670  183.8680  137.2110 C   0  0  0  0  0  1  0  0  0  0  0  0
  180.8440  182.9340  136.2630 C   0  0  2  0  0  0  0  0  0  0  0  0
  186.2850  178.1590  142.8750 C   0  0  0  0  0  0  0  0  0  0  0  0
  185.8350  177.5270  141.7800 C   0  0  0  0  0  3  0  0  0  0  0  0
  187.0490  177.4610  143.8690 N   0  0  0  0  0  2  0  0  0  0  0  0
  188.9980  177.0230  142.6460 O   0  0  0  0  0  0  0  0  0  0  0  0
  188.4260  177.0830  143.7640 C   0  0  0  0  0  0  0  0  0  0  0  0
  191.0130  176.6880  144.6050 S   0  0  0  0  0  0  0  0  0  0  0  0
  189.3980  178.9930  145.9120 O   0  0  0  0  0  1  0  0  0  0  0  0
  189.4480  177.1250  147.5110 C   0  0  0  0  0  0  0  0  0  0  0  0
  188.9140  177.7000  146.1680 C   0  0  2  0  0  3  0  0  0  0  0  0
  189.2200  176.7690  144.9860 C   0  0  1  0  0  3  0  0  0  0  0  0
  189.9610  178.2190  148.4460 C   0  0  0  0  0  1  0  0  0  0  0  0
  191.6290  176.6020  146.3330 C   0  0  0  0  0  2  0  0  0  0  0  0
  188.3000  176.4280  148.2170 C   0  0  0  0  0  1  0  0  0  0  0  0
  190.5680  176.0900  147.3050 C   0  0  0  0  0  2  0  0  0  0  0  0
  186.0180  179.6120  143.0910 C   0  0  0  0  0  2  0  0  0  0  0  0
  184.8520  179.8040  144.0440 C   0  0  0  0  0  2  0  0  0  0  0  0
  185.5520  178.9610  146.4780 C   0  0  0  0  0  3  0  0  0  0  0  0
  185.2370  179.3400  145.3760 C   0  0  0  0  0  0  0  0  0  0  0  0
  183.8970  177.6600  137.8430 O   0  0  0  0  0  0  0  0  0  0  0  0
  182.4740  176.4280  136.3890 C   0  0  0  0  0  1  0  0  0  0  0  0
  183.2090  177.7290  136.6310 C   0  0  0  0  0  2  0  0  0  0  0  0
  1  8  1  0  0  0  0
  2 14  1  6  0  0  0
  2  9  1  0  0  0  0
  3 13  2  0  0  0  0
  4 18  1  0  0  0  0
  6 13  1  0  0  0  0
  7 14  2  0  0  0  0
  8 19  1  0  0  0  0
  9  5  1  6  0  0  0
  9 10  1  0  0  0  0
 10 20  1  0  0  0  0
 11 18  1  1  0  0  0
 11 14  1  0  0  0  0
 11  5  1  0  0  0  0
 12  2  1  0  0  0  0
 12  1  2  0  0  0  0
 13 16  1  0  0  0  0
 15  4  1  1  0  0  0
 15  7  1  0  0  0  0
 16  1  1  0  0  0  0
 16 26  1  0  0  0  0
 17 43  1  1  0  0  0
 17  6  1  0  0  0  0
 17 12  1  0  0  0  0
 20 19  1  0  0  0  0
 21 24  1  0  0  0  0
 22 21  1  0  0  0  0
 22 24  1  0  0  0  0
 24 15  1  0  0  0  0
 24 23  1  1  0  0  0
 25 39  1  0  0  0  0
 25 27  1  0  0  0  0
 26 25  2  0  0  0  0
 28 29  2  0  0  0  0
 29 27  1  0  0  0  0
 30 34  1  0  0  0  0
 30 36  1  0  0  0  0
 32 37  1  0  0  0  0
 32 35  1  0  0  0  0
 33 31  1  6  0  0  0
 33 32  1  0  0  0  0
 34 29  1  6  0  0  0
 34 33  1  0  0  0  0
 36 38  1  0  0  0  0
 38 32  1  0  0  0  0
 39 40  1  0  0  0  0
 40 42  1  0  0  0  0
 42 41  3  0  0  0  0
 44 45  1  0  0  0  0
 45 43  1  0  0  0  0
M  END
>  <MODEL>
4

>  <REMARK>
 VINA RESULT:      -4.3      4.586      6.490
  Name = 
  9 active torsions:
  status: ('A' for Active; 'I' for Inactive)
    1  A    between atoms: C_6  and  N_7
    2  A    between atoms: C_6  and  C_10
    3  A    between atoms: C_8  and  C_10
    4  A    between atoms: C_8  and  C_36
    5  A    between atoms: C_23  and  C_31
    6  A    between atoms: C_26  and  C_34
    7  A    between atoms: C_29  and  O_41
    8  A    between atoms: N_37  and  C_45
    9  A    between atoms: C_39  and  O_41
                            x       y       z     vdW  Elec       q    Type
                         _______ _______ _______ _____ _____    ______ ____

>  <TORSDO>
F 9

$$$$
=
 OpenBabel10222416473D

 45 50  0  0  1  0  0  0  0  0999 V2000
  189.7300  174.9450  137.5940 C   0  0  0  0  0  0  0  0  0  0  0  0
  192.2520  174.5890  137.5420 C   0  0  1  0  0  3  0  0  0  0  0  0
  187.1280  173.1320  135.8140 O   0  0  0  0  0  0  0  0  0  0  0  0
  195.9840  173.3070  136.0330 C   0  0  0  0  0  2  0  0  0  0  0  0
  193.6160  176.3610  136.4760 C   0  0  0  0  0  2  0  0  0  0  0  0
  189.4840  172.7950  135.7030 C   0  0  0  0  0  2  0  0  0  0  0  0
  193.6460  172.7720  136.6720 N   0  0  0  0  0  0  0  0  0  0  0  0
  189.7820  175.6470  138.8160 O   0  0  0  0  0  0  0  0  0  0  0  0
  192.7550  176.0390  137.6940 C   0  0  1  0  0  3  0  0  0  0  0  0
  191.6940  176.9520  137.8120 O   0  0  0  0  0  0  0  0  0  0  0  0
  194.1090  175.0290  135.9280 C   0  0  2  0  0  3  0  0  0  0  0  0
  190.8420  174.4890  136.9490 C   0  0  0  0  0  0  0  0  0  0  0  0
  188.2710  173.5190  136.1810 C   0  0  0  0  0  0  0  0  0  0  0  0
  193.2950  174.0110  136.6510 C   0  0  0  0  0  0  0  0  0  0  0  0
  194.7850  172.3380  135.8830 C   0  0  2  0  0  3  0  0  0  0  0  0
  188.4230  174.6600  137.0400 N   0  0  0  0  0  0  0  0  0  0  0  0
  190.6570  173.7700  135.6270 C   0  0  2  0  0  3  0  0  0  0  0  0
  195.5800  174.7790  136.2640 C   0  0  0  0  0  2  0  0  0  0  0  0
  190.9160  175.8620  139.5010 O   0  0  0  0  0  0  0  0  0  0  0  0
  191.3950  177.0420  139.1070 O   0  0  0  0  0  0  0  0  0  0  0  0
  194.9210  169.8240  135.2200 C   0  0  0  0  0  2  0  0  0  0  0  0
  194.1090  170.0310  136.3600 O   0  0  0  0  0  0  0  0  0  0  0  0
  196.3050  170.6280  137.1940 C   0  0  0  0  0  1  0  0  0  0  0  0
  195.2010  170.8980  136.1920 C   0  0  2  0  0  0  0  0  0  0  0  0
  186.6430  176.3470  136.9560 C   0  0  0  0  0  0  0  0  0  0  0  0
  187.2460  175.3070  137.5530 C   0  0  0  0  0  3  0  0  0  0  0  0
  185.5420  177.0210  137.5810 N   0  0  0  0  0  2  0  0  0  0  0  0
  183.7550  175.8280  136.6470 O   0  0  0  0  0  0  0  0  0  0  0  0
  184.1680  176.6190  137.5330 C   0  0  0  0  0  0  0  0  0  0  0  0
  183.9270  178.4730  139.5470 S   0  0  0  0  0  0  0  0  0  0  0  0
  181.9490  178.6530  137.1640 O   0  0  0  0  0  1  0  0  0  0  0  0
  180.7420  177.6400  139.0520 C   0  0  0  0  0  0  0  0  0  0  0  0
  181.8340  177.4990  137.9530 C   0  0  2  0  0  3  0  0  0  0  0  0
  183.1970  177.1180  138.5480 C   0  0  1  0  0  3  0  0  0  0  0  0
  179.7480  178.7560  138.7390 C   0  0  0  0  0  1  0  0  0  0  0  0
  182.3930  178.9950  140.4130 C   0  0  0  0  0  2  0  0  0  0  0  0
  179.9600  176.3400  139.1110 C   0  0  0  0  0  1  0  0  0  0  0  0
  181.3390  177.8900  140.4470 C   0  0  0  0  0  2  0  0  0  0  0  0
  187.1070  176.8480  135.6280 C   0  0  0  0  0  2  0  0  0  0  0  0
  187.2190  178.3620  135.6410 C   0  0  0  0  0  2  0  0  0  0  0  0
  189.0160  179.0930  137.4740 C   0  0  0  0  0  3  0  0  0  0  0  0
  188.2050  178.7640  136.6430 C   0  0  0  0  0  0  0  0  0  0  0  0
  190.4420  174.7010  134.6060 O   0  0  0  0  0  0  0  0  0  0  0  0
  190.4230  177.0800  134.5940 C   0  0  0  0  0  1  0  0  0  0  0  0
  191.1740  175.8260  134.9870 C   0  0  0  0  0  2  0  0  0  0  0  0
  1  8  1  0  0  0  0
  2 14  1  6  0  0  0
  2  9  1  0  0  0  0
  3 13  2  0  0  0  0
  4 18  1  0  0  0  0
  6 13  1  0  0  0  0
  8 19  1  0  0  0  0
  9  5  1  6  0  0  0
  9 10  1  0  0  0  0
 10 20  1  0  0  0  0
 11 18  1  1  0  0  0
 11  5  1  0  0  0  0
 11 14  1  0  0  0  0
 12  2  1  0  0  0  0
 12  1  2  0  0  0  0
 13 16  1  0  0  0  0
 14  7  2  0  0  0  0
 15  4  1  1  0  0  0
 15 24  1  0  0  0  0
 15  7  1  0  0  0  0
 16 26  1  0  0  0  0
 16  1  1  0  0  0  0
 17 43  1  6  0  0  0
 17  6  1  0  0  0  0
 17 12  1  0  0  0  0
 20 19  1  0  0  0  0
 21 24  1  0  0  0  0
 21 22  1  0  0  0  0
 24 22  1  0  0  0  0
 24 23  1  1  0  0  0
 25 26  2  0  0  0  0
 25 27  1  0  0  0  0
 28 29  2  0  0  0  0
 29 27  1  0  0  0  0
 30 36  1  0  0  0  0
 32 37  1  0  0  0  0
 32 38  1  0  0  0  0
 33 31  1  1  0  0  0
 33 34  1  0  0  0  0
 33 32  1  0  0  0  0
 34 29  1  6  0  0  0
 34 30  1  0  0  0  0
 35 32  1  0  0  0  0
 36 38  1  0  0  0  0
 39 40  1  0  0  0  0
 39 25  1  0  0  0  0
 40 42  1  0  0  0  0
 42 41  3  0  0  0  0
 43 45  1  0  0  0  0
 44 45  1  0  0  0  0
M  END
>  <MODEL>
5

>  <REMARK>
 VINA RESULT:      -3.8      2.929     11.353
  Name = 
  9 active torsions:
  status: ('A' for Active; 'I' for Inactive)
    1  A    between atoms: C_6  and  N_7
    2  A    between atoms: C_6  and  C_10
    3  A    between atoms: C_8  and  C_10
    4  A    between atoms: C_8  and  C_36
    5  A    between atoms: C_23  and  C_31
    6  A    between atoms: C_26  and  C_34
    7  A    between atoms: C_29  and  O_41
    8  A    between atoms: N_37  and  C_45
    9  A    between atoms: C_39  and  O_41
                            x       y       z     vdW  Elec       q    Type
                         _______ _______ _______ _____ _____    ______ ____

>  <TORSDO>
F 9

$$$$
