=
 OpenBabel10222419383D

 39 43  0  0  1  0  0  0  0  0999 V2000
  190.8060  177.3600  145.5910 C   0  0  0  0  0  0  0  0  0  0  0  0
  190.4970  178.1660  143.2940 C   0  0  0  0  0  3  0  0  0  0  0  0
  186.8290  178.3810  142.5440 C   0  0  0  0  0  0  0  0  0  0  0  0
  182.6680  178.6560  143.1450 O   0  0  0  0  0  1  0  0  0  0  0  0
  184.5480  179.2440  141.7980 C   0  0  0  0  0  2  0  0  0  0  0  0
  188.5370  177.4750  144.6660 C   0  0  0  0  0  0  0  0  0  0  0  0
  186.6410  177.6030  146.2620 C   0  0  0  0  0  1  0  0  0  0  0  0
  188.2420  178.2260  142.2970 N   0  0  0  0  0  0  0  0  0  0  0  0
  184.8570  178.3400  144.0830 C   0  0  1  0  0  3  0  0  0  0  0  0
  185.9230  178.7430  141.3810 C   0  0  0  0  0  2  0  0  0  0  0  0
  183.9790  178.2950  142.8340 C   0  0  1  0  0  3  0  0  0  0  0  0
  186.3230  178.1100  143.7710 C   0  0  0  0  0  0  0  0  0  0  0  0
  189.4980  177.0990  145.7470 C   0  0  0  0  0  0  0  0  0  0  0  0
  184.7070  179.5660  144.7380 O   0  0  0  0  0  1  0  0  0  0  0  0
  189.0610  176.4750  146.9120 O   0  0  0  0  0  1  0  0  0  0  0  0
  191.2880  178.0290  144.3600 C   0  0  0  0  0  3  0  0  0  0  0  0
  187.2220  177.6980  144.8830 C   0  0  0  0  0  0  0  0  0  0  0  0
  189.1180  177.5570  143.2700 C   0  0  1  0  0  3  0  0  0  0  0  0
  191.7260  177.0270  146.6380 N   0  0  0  0  0  2  0  0  0  0  0  0
  192.2670  175.6900  146.8340 C   0  0  0  0  0  2  0  0  0  0  0  0
  192.8390  176.8010  148.7060 O   0  0  0  0  0  1  0  0  0  0  0  0
  193.1080  175.6680  148.0180 N   0  0  0  0  0  2  0  0  0  0  0  0
  188.7730  178.4880  140.9590 C   0  0  0  0  0  2  0  0  0  0  0  0
  190.4900  177.0260  139.8480 C   0  0  0  0  0  2  0  0  0  0  0  0
  189.0220  177.1780  140.2110 C   0  0  2  0  0  3  0  0  0  0  0  0
  188.6670  177.1680  138.7190 C   0  0  1  0  0  0  0  0  0  0  0  0
  190.1310  176.9960  138.3700 C   0  0  0  0  0  2  0  0  0  0  0  0
  187.9420  176.0260  138.4270 F   0  0  0  0  0  0  0  0  0  0  0  0
  185.7210  177.5860  137.6500 C   0  0  0  0  0  0  0  0  0  0  0  0
  188.8460  179.3240  137.6530 O   0  0  0  0  0  0  0  0  0  0  0  0
  186.6680  178.6120  137.9620 N   0  0  0  0  0  2  0  0  0  0  0  0
  188.0820  178.4230  138.0930 C   0  0  0  0  0  0  0  0  0  0  0  0
  186.1040  176.4770  137.1850 O   0  0  0  0  0  0  0  0  0  0  0  0
  184.2650  177.8670  137.8180 C   0  0  0  0  0  3  0  0  0  0  0  0
  184.0540  179.2580  138.4180 C   0  0  0  0  0  2  0  0  0  0  0  0
  182.5640  179.5390  138.5850 C   0  0  0  0  0  2  0  0  0  0  0  0
  182.1230  177.0900  138.8600 C   0  0  0  0  0  2  0  0  0  0  0  0
  183.6110  176.7980  138.6940 C   0  0  0  0  0  2  0  0  0  0  0  0
  181.9220  178.4740  139.4710 C   0  0  0  0  0  2  0  0  0  0  0  0
  1 13  2  0  0  0  0
  1 19  1  0  0  0  0
  2 16  2  0  0  0  0
  3 12  2  0  0  0  0
  5 11  1  0  0  0  0
  6 17  2  0  0  0  0
  6 13  1  0  0  0  0
  8  3  1  0  0  0  0
  8 18  1  0  0  0  0
  9 14  1  6  0  0  0
 10  5  1  0  0  0  0
 10  3  1  0  0  0  0
 11  4  1  1  0  0  0
 11  9  1  0  0  0  0
 12  9  1  0  0  0  0
 12 17  1  0  0  0  0
 13 15  1  0  0  0  0
 16  1  1  0  0  0  0
 17  7  1  0  0  0  0
 18  2  1  1  0  0  0
 18  6  1  0  0  0  0
 19 20  1  0  0  0  0
 20 22  1  0  0  0  0
 22 21  1  0  0  0  0
 23  8  1  0  0  0  0
 24 25  1  0  0  0  0
 25 23  1  6  0  0  0
 26 28  1  6  0  0  0
 26 25  1  0  0  0  0
 27 26  1  0  0  0  0
 27 24  1  0  0  0  0
 29 34  1  0  0  0  0
 29 31  1  0  0  0  0
 30 32  2  0  0  0  0
 31 32  1  0  0  0  0
 32 26  1  0  0  0  0
 33 29  2  0  0  0  0
 34 35  1  0  0  0  0
 34 38  1  0  0  0  0
 35 36  1  0  0  0  0
 36 39  1  0  0  0  0
 37 39  1  0  0  0  0
 38 37  1  0  0  0  0
M  END
>  <MODEL>
1

>  <REMARK>
 VINA RESULT:     -10.3      0.000      0.000
  Name = 
  7 active torsions:
  status: ('A' for Active; 'I' for Inactive)
    1  A    between atoms: C_1  and  C_5
    2  A    between atoms: C_2  and  N_9
    3  A    between atoms: N_9  and  C_39
    4  A    between atoms: C_12  and  C_30
    5  A    between atoms: C_16  and  C_27
    6  A    between atoms: N_20  and  C_39
    7  A    between atoms: N_23  and  C_30
                            x       y       z     vdW  Elec       q    Type
                         _______ _______ _______ _____ _____    ______ ____

>  <TORSDO>
F 7

$$$$
=
 OpenBabel10222419383D

 39 43  0  0  1  0  0  0  0  0999 V2000
  189.8430  177.3580  139.2370 C   0  0  0  0  0  0  0  0  0  0  0  0
  187.4940  178.0170  138.9710 C   0  0  0  0  0  3  0  0  0  0  0  0
  185.7750  175.5700  136.7080 C   0  0  0  0  0  0  0  0  0  0  0  0
  184.9640  172.0170  134.5940 O   0  0  0  0  0  1  0  0  0  0  0  0
  184.0900  173.9060  135.7600 C   0  0  0  0  0  2  0  0  0  0  0  0
  188.4210  176.0940  137.6870 C   0  0  0  0  0  0  0  0  0  0  0  0
  189.1040  173.7780  137.1170 C   0  0  0  0  0  1  0  0  0  0  0  0
  186.0490  176.8230  137.3680 N   0  0  0  0  0  0  0  0  0  0  0  0
  186.4810  173.2920  135.9500 C   0  0  1  0  0  3  0  0  0  0  0  0
  184.4050  175.3580  136.0900 C   0  0  0  0  0  2  0  0  0  0  0  0
  185.2700  173.3090  135.0200 C   0  0  1  0  0  3  0  0  0  0  0  0
  186.7590  174.6500  136.5660 C   0  0  0  0  0  0  0  0  0  0  0  0
  189.7490  176.3960  138.3040 C   0  0  0  0  0  0  0  0  0  0  0  0
  186.3020  172.3480  136.9650 O   0  0  0  0  0  1  0  0  0  0  0  0
  190.8930  175.7020  137.9220 O   0  0  0  0  0  1  0  0  0  0  0  0
  188.6340  178.1040  139.6590 C   0  0  0  0  0  3  0  0  0  0  0  0
  188.1140  174.9030  137.1280 C   0  0  0  0  0  0  0  0  0  0  0  0
  187.4240  177.2340  137.6830 C   0  0  1  0  0  3  0  0  0  0  0  0
  191.1080  177.6300  139.8510 N   0  0  0  0  0  2  0  0  0  0  0  0
  191.3910  177.3660  141.2540 C   0  0  0  0  0  2  0  0  0  0  0  0
  190.4110  176.4420  143.0580 O   0  0  0  0  0  1  0  0  0  0  0  0
  190.5630  176.2700  141.7250 N   0  0  0  0  0  2  0  0  0  0  0  0
  184.9880  177.8230  137.4840 C   0  0  0  0  0  2  0  0  0  0  0  0
  182.4960  177.7480  137.8070 C   0  0  0  0  0  2  0  0  0  0  0  0
  183.8420  177.2970  138.3490 C   0  0  2  0  0  3  0  0  0  0  0  0
  183.5610  178.0650  139.6460 C   0  0  1  0  0  0  0  0  0  0  0  0
  182.2110  178.4910  139.1040 C   0  0  0  0  0  2  0  0  0  0  0  0
  183.4220  177.1680  140.6910 F   0  0  0  0  0  0  0  0  0  0  0  0
  184.4800  178.9900  142.5270 C   0  0  0  0  0  0  0  0  0  0  0  0
  184.5980  180.1870  139.1590 O   0  0  0  0  0  0  0  0  0  0  0  0
  185.0580  179.3860  141.2790 N   0  0  0  0  0  2  0  0  0  0  0  0
  184.4300  179.2610  139.9970 C   0  0  0  0  0  0  0  0  0  0  0  0
  183.2430  178.7550  142.6170 O   0  0  0  0  0  0  0  0  0  0  0  0
  185.3470  178.9220  143.7390 C   0  0  0  0  0  3  0  0  0  0  0  0
  186.4140  177.8390  143.5740 C   0  0  0  0  0  2  0  0  0  0  0  0
  187.2980  177.7770  144.8150 C   0  0  0  0  0  2  0  0  0  0  0  0
  185.3970  178.5970  146.2230 C   0  0  0  0  0  2  0  0  0  0  0  0
  184.5040  178.6630  144.9870 C   0  0  0  0  0  2  0  0  0  0  0  0
  186.4490  177.5050  146.0550 C   0  0  0  0  0  2  0  0  0  0  0  0
  1 16  1  0  0  0  0
  1 19  1  0  0  0  0
  2 16  2  0  0  0  0
  3  8  1  0  0  0  0
  5 10  1  0  0  0  0
  6 13  1  0  0  0  0
  7 17  1  0  0  0  0
  8 23  1  0  0  0  0
  8 18  1  0  0  0  0
  9 12  1  0  0  0  0
  9 14  1  1  0  0  0
 10  3  1  0  0  0  0
 11  4  1  1  0  0  0
 11  5  1  0  0  0  0
 11  9  1  0  0  0  0
 12  3  2  0  0  0  0
 12 17  1  0  0  0  0
 13  1  2  0  0  0  0
 15 13  1  0  0  0  0
 17  6  2  0  0  0  0
 18  6  1  0  0  0  0
 18  2  1  1  0  0  0
 19 20  1  0  0  0  0
 20 22  1  0  0  0  0
 22 21  1  0  0  0  0
 24 25  1  0  0  0  0
 24 27  1  0  0  0  0
 25 23  1  6  0  0  0
 25 26  1  0  0  0  0
 26 32  1  0  0  0  0
 26 28  1  1  0  0  0
 27 26  1  0  0  0  0
 29 33  2  0  0  0  0
 29 34  1  0  0  0  0
 30 32  2  0  0  0  0
 31 29  1  0  0  0  0
 32 31  1  0  0  0  0
 34 38  1  0  0  0  0
 35 34  1  0  0  0  0
 35 36  1  0  0  0  0
 36 39  1  0  0  0  0
 38 37  1  0  0  0  0
 39 37  1  0  0  0  0
M  END
>  <MODEL>
2

>  <REMARK>
 VINA RESULT:      -8.3      2.810      7.175
  Name = 
  7 active torsions:
  status: ('A' for Active; 'I' for Inactive)
    1  A    between atoms: C_1  and  C_5
    2  A    between atoms: C_2  and  N_9
    3  A    between atoms: N_9  and  C_39
    4  A    between atoms: C_12  and  C_30
    5  A    between atoms: C_16  and  C_27
    6  A    between atoms: N_20  and  C_39
    7  A    between atoms: N_23  and  C_30
                            x       y       z     vdW  Elec       q    Type
                         _______ _______ _______ _____ _____    ______ ____

>  <TORSDO>
F 7

$$$$
=
 OpenBabel10222419383D

 39 43  0  0  1  0  0  0  0  0999 V2000
  183.9020  178.5180  143.4200 C   0  0  0  0  0  0  0  0  0  0  0  0
  185.5850  178.4160  141.6370 C   0  0  0  0  0  3  0  0  0  0  0  0
  188.9880  178.0640  143.1730 C   0  0  0  0  0  0  0  0  0  0  0  0
  191.9960  177.1960  145.9920 O   0  0  0  0  0  1  0  0  0  0  0  0
  191.3440  177.2380  143.6970 C   0  0  0  0  0  2  0  0  0  0  0  0
  186.2770  178.4560  144.0300 C   0  0  0  0  0  0  0  0  0  0  0  0
  186.8680  177.6590  146.3030 C   0  0  0  0  0  1  0  0  0  0  0  0
  187.9850  178.4290  142.2020 N   0  0  0  0  0  0  0  0  0  0  0  0
  189.6580  177.4360  145.5000 C   0  0  1  0  0  3  0  0  0  0  0  0
  190.4360  177.9790  142.7260 C   0  0  0  0  0  2  0  0  0  0  0  0
  191.0920  177.7670  145.0960 C   0  0  1  0  0  3  0  0  0  0  0  0
  188.6430  177.8990  144.4720 C   0  0  0  0  0  0  0  0  0  0  0  0
  184.8320  178.5840  144.3870 C   0  0  0  0  0  0  0  0  0  0  0  0
  189.5160  176.0610  145.7090 O   0  0  0  0  0  1  0  0  0  0  0  0
  184.4320  178.7800  145.7050 O   0  0  0  0  0  1  0  0  0  0  0  0
  184.3090  178.3040  142.0110 C   0  0  0  0  0  3  0  0  0  0  0  0
  187.2250  178.0450  144.9000 C   0  0  0  0  0  0  0  0  0  0  0  0
  186.6430  178.8590  142.6160 C   0  0  1  0  0  3  0  0  0  0  0  0
  182.5140  178.6110  143.7630 N   0  0  0  0  0  2  0  0  0  0  0  0
  181.4770  178.9860  142.8120 C   0  0  0  0  0  2  0  0  0  0  0  0
  179.6000  177.8320  143.2750 O   0  0  0  0  0  1  0  0  0  0  0  0
  180.1890  179.0320  143.4820 N   0  0  0  0  0  2  0  0  0  0  0  0
  188.3760  178.6400  140.8080 C   0  0  0  0  0  2  0  0  0  0  0  0
  190.1210  177.1620  139.7640 C   0  0  0  0  0  2  0  0  0  0  0  0
  188.6500  177.3050  140.1150 C   0  0  2  0  0  3  0  0  0  0  0  0
  188.3010  177.2270  138.6240 C   0  0  1  0  0  0  0  0  0  0  0  0
  189.7700  177.0640  138.2870 C   0  0  0  0  0  2  0  0  0  0  0  0
  187.5960  176.0620  138.3770 F   0  0  0  0  0  0  0  0  0  0  0  0
  185.2590  177.7230  137.9170 C   0  0  0  0  0  0  0  0  0  0  0  0
  188.4380  179.2430  137.3080 O   0  0  0  0  0  0  0  0  0  0  0  0
  186.2910  178.7110  137.9830 N   0  0  0  0  0  2  0  0  0  0  0  0
  187.6990  178.4460  137.9450 C   0  0  0  0  0  0  0  0  0  0  0  0
  185.5170  176.5480  137.5330 O   0  0  0  0  0  0  0  0  0  0  0  0
  183.8580  178.1140  138.2450 C   0  0  0  0  0  3  0  0  0  0  0  0
  182.9310  177.8270  137.0640 C   0  0  0  0  0  2  0  0  0  0  0  0
  181.4990  178.2280  137.4080 C   0  0  0  0  0  2  0  0  0  0  0  0
  182.3570  179.9850  138.9710 C   0  0  0  0  0  2  0  0  0  0  0  0
  183.7920  179.5910  138.6350 C   0  0  0  0  0  2  0  0  0  0  0  0
  181.4410  179.7070  137.7820 C   0  0  0  0  0  2  0  0  0  0  0  0
  1 19  1  0  0  0  0
  1 13  2  0  0  0  0
  2 16  2  0  0  0  0
  3 12  2  0  0  0  0
  5 11  1  0  0  0  0
  6 13  1  0  0  0  0
  6 17  2  0  0  0  0
  8 18  1  0  0  0  0
  8  3  1  0  0  0  0
  9 14  1  6  0  0  0
 10  3  1  0  0  0  0
 10  5  1  0  0  0  0
 11  9  1  0  0  0  0
 11  4  1  1  0  0  0
 12 17  1  0  0  0  0
 12  9  1  0  0  0  0
 13 15  1  0  0  0  0
 16  1  1  0  0  0  0
 17  7  1  0  0  0  0
 18  2  1  6  0  0  0
 18  6  1  0  0  0  0
 20 22  1  0  0  0  0
 20 19  1  0  0  0  0
 21 22  1  0  0  0  0
 23  8  1  0  0  0  0
 24 25  1  0  0  0  0
 25 23  1  6  0  0  0
 26 28  1  6  0  0  0
 26 25  1  0  0  0  0
 27 26  1  0  0  0  0
 27 24  1  0  0  0  0
 29 31  1  0  0  0  0
 29 34  1  0  0  0  0
 30 32  2  0  0  0  0
 32 31  1  0  0  0  0
 32 26  1  0  0  0  0
 33 29  2  0  0  0  0
 34 38  1  0  0  0  0
 35 36  1  0  0  0  0
 35 34  1  0  0  0  0
 36 39  1  0  0  0  0
 38 37  1  0  0  0  0
 39 37  1  0  0  0  0
M  END
>  <MODEL>
3

>  <REMARK>
 VINA RESULT:      -8.3      1.962      5.510
  Name = 
  7 active torsions:
  status: ('A' for Active; 'I' for Inactive)
    1  A    between atoms: C_1  and  C_5
    2  A    between atoms: C_2  and  N_9
    3  A    between atoms: N_9  and  C_39
    4  A    between atoms: C_12  and  C_30
    5  A    between atoms: C_16  and  C_27
    6  A    between atoms: N_20  and  C_39
    7  A    between atoms: N_23  and  C_30
                            x       y       z     vdW  Elec       q    Type
                         _______ _______ _______ _____ _____    ______ ____

>  <TORSDO>
F 7

$$$$
=
 OpenBabel10222419383D

 39 43  0  0  1  0  0  0  0  0999 V2000
  190.6470  176.9920  146.2950 C   0  0  0  0  0  0  0  0  0  0  0  0
  190.2610  176.9720  143.8720 C   0  0  0  0  0  3  0  0  0  0  0  0
  186.6570  177.7540  143.1910 C   0  0  0  0  0  0  0  0  0  0  0  0
  182.7360  179.1900  143.7510 O   0  0  0  0  0  1  0  0  0  0  0  0
  184.5370  178.8010  142.2350 C   0  0  0  0  0  2  0  0  0  0  0  0
  188.3630  177.2950  145.4530 C   0  0  0  0  0  0  0  0  0  0  0  0
  186.7230  178.4230  146.9330 C   0  0  0  0  0  1  0  0  0  0  0  0
  187.9720  177.1960  142.9830 N   0  0  0  0  0  0  0  0  0  0  0  0
  184.9010  178.7280  144.6830 C   0  0  1  0  0  3  0  0  0  0  0  0
  185.7240  177.8780  142.0000 C   0  0  0  0  0  2  0  0  0  0  0  0
  183.9010  178.4460  143.5640 C   0  0  1  0  0  3  0  0  0  0  0  0
  186.2440  178.0660  144.4420 C   0  0  0  0  0  0  0  0  0  0  0  0
  189.3380  177.1170  146.5710 C   0  0  0  0  0  0  0  0  0  0  0  0
  185.0820  180.1060  144.8380 O   0  0  0  0  0  1  0  0  0  0  0  0
  188.9120  177.0700  147.8950 O   0  0  0  0  0  1  0  0  0  0  0  0
  191.1190  177.0440  144.8910 C   0  0  0  0  0  3  0  0  0  0  0  0
  187.1550  177.8810  145.6040 C   0  0  0  0  0  0  0  0  0  0  0  0
  188.7910  176.7350  144.1120 C   0  0  1  0  0  3  0  0  0  0  0  0
  191.5870  176.8500  147.3670 N   0  0  0  0  0  2  0  0  0  0  0  0
  192.4450  175.6860  147.5330 C   0  0  0  0  0  2  0  0  0  0  0  0
  193.1780  177.0200  149.1910 O   0  0  0  0  0  1  0  0  0  0  0  0
  193.0700  175.7170  148.8430 N   0  0  0  0  0  2  0  0  0  0  0  0
  188.3940  176.8310  141.6310 C   0  0  0  0  0  2  0  0  0  0  0  0
  188.6130  179.1400  140.6630 C   0  0  0  0  0  2  0  0  0  0  0  0
  189.3550  177.8760  141.0640 C   0  0  2  0  0  3  0  0  0  0  0  0
  189.7850  177.6830  139.6050 C   0  0  1  0  0  0  0  0  0  0  0  0
  189.0600  178.9570  139.2200 C   0  0  0  0  0  2  0  0  0  0  0  0
  191.1580  177.8360  139.5060 F   0  0  0  0  0  0  0  0  0  0  0  0
  191.4500  175.6740  137.8180 C   0  0  0  0  0  0  0  0  0  0  0  0
  188.0300  176.3770  138.5910 O   0  0  0  0  0  0  0  0  0  0  0  0
  190.1380  175.4590  138.3470 N   0  0  0  0  0  2  0  0  0  0  0  0
  189.2620  176.4820  138.8350 C   0  0  0  0  0  0  0  0  0  0  0  0
  191.8250  176.8310  137.4800 O   0  0  0  0  0  0  0  0  0  0  0  0
  192.3490  174.5020  137.6080 C   0  0  0  0  0  3  0  0  0  0  0  0
  193.8130  174.9410  137.6210 C   0  0  0  0  0  2  0  0  0  0  0  0
  194.7260  173.7380  137.4090 C   0  0  0  0  0  2  0  0  0  0  0  0
  192.9300  172.5970  136.0890 C   0  0  0  0  0  2  0  0  0  0  0  0
  192.0090  173.7960  136.2960 C   0  0  0  0  0  2  0  0  0  0  0  0
  194.3890  173.0460  136.0900 C   0  0  0  0  0  2  0  0  0  0  0  0
  1 13  2  0  0  0  0
  1 19  1  0  0  0  0
  2 16  2  0  0  0  0
  3 12  2  0  0  0  0
  5 11  1  0  0  0  0
  6 17  2  0  0  0  0
  6 13  1  0  0  0  0
  8  3  1  0  0  0  0
  8 18  1  0  0  0  0
  9 14  1  6  0  0  0
 10  5  1  0  0  0  0
 10  3  1  0  0  0  0
 11  4  1  1  0  0  0
 11  9  1  0  0  0  0
 12  9  1  0  0  0  0
 12 17  1  0  0  0  0
 13 15  1  0  0  0  0
 16  1  1  0  0  0  0
 17  7  1  0  0  0  0
 18  2  1  6  0  0  0
 18  6  1  0  0  0  0
 19 20  1  0  0  0  0
 20 22  1  0  0  0  0
 22 21  1  0  0  0  0
 23  8  1  0  0  0  0
 24 25  1  0  0  0  0
 25 23  1  6  0  0  0
 26 28  1  6  0  0  0
 26 25  1  0  0  0  0
 27 26  1  0  0  0  0
 27 24  1  0  0  0  0
 29 31  1  0  0  0  0
 30 32  2  0  0  0  0
 31 32  1  0  0  0  0
 32 26  1  0  0  0  0
 33 29  2  0  0  0  0
 34 35  1  0  0  0  0
 34 29  1  0  0  0  0
 36 35  1  0  0  0  0
 37 39  1  0  0  0  0
 37 38  1  0  0  0  0
 38 34  1  0  0  0  0
 39 36  1  0  0  0  0
M  END
>  <MODEL>
4

>  <REMARK>
 VINA RESULT:      -8.1      2.474      4.968
  Name = 
  7 active torsions:
  status: ('A' for Active; 'I' for Inactive)
    1  A    between atoms: C_1  and  C_5
    2  A    between atoms: C_2  and  N_9
    3  A    between atoms: N_9  and  C_39
    4  A    between atoms: C_12  and  C_30
    5  A    between atoms: C_16  and  C_27
    6  A    between atoms: N_20  and  C_39
    7  A    between atoms: N_23  and  C_30
                            x       y       z     vdW  Elec       q    Type
                         _______ _______ _______ _____ _____    ______ ____

>  <TORSDO>
F 7

$$$$
=
 OpenBabel10222419383D

 39 43  0  0  1  0  0  0  0  0999 V2000
  184.9830  173.0870  135.2510 C   0  0  0  0  0  0  0  0  0  0  0  0
  184.4300  175.4030  135.8450 C   0  0  0  0  0  3  0  0  0  0  0  0
  187.2990  176.9120  137.7300 C   0  0  0  0  0  0  0  0  0  0  0  0
  191.2090  177.5300  139.1730 O   0  0  0  0  0  1  0  0  0  0  0  0
  189.1450  178.5050  138.4790 C   0  0  0  0  0  2  0  0  0  0  0  0
  186.5480  174.3640  136.6440 C   0  0  0  0  0  0  0  0  0  0  0  0
  188.9180  173.6330  136.6890 C   0  0  0  0  0  1  0  0  0  0  0  0
  185.9370  176.6980  137.3050 N   0  0  0  0  0  0  0  0  0  0  0  0
  189.6680  176.1400  137.9650 C   0  0  1  0  0  3  0  0  0  0  0  0
  187.6510  178.2210  138.4120 C   0  0  0  0  0  2  0  0  0  0  0  0
  189.8530  177.2630  138.9820 C   0  0  1  0  0  3  0  0  0  0  0  0
  188.2110  175.9190  137.6030 C   0  0  0  0  0  0  0  0  0  0  0  0
  186.1100  173.0970  135.9830 C   0  0  1  0  0  3  0  0  0  0  0  0
  190.4000  176.4090  136.8050 O   0  0  0  0  0  1  0  0  0  0  0  0
  186.8440  171.9230  136.1210 O   0  0  0  0  0  1  0  0  0  0  0  0
  184.1910  174.3290  135.0900 C   0  0  0  0  0  3  0  0  0  0  0  0
  187.8300  174.6200  136.9840 C   0  0  0  0  0  0  0  0  0  0  0  0
  185.4480  175.3570  136.9560 C   0  0  0  0  0  0  0  0  0  0  0  0
  184.5750  171.8810  134.5940 N   0  0  0  0  0  2  0  0  0  0  0  0
  183.3830  171.1310  134.9610 C   0  0  0  0  0  2  0  0  0  0  0  0
  182.6300  171.2980  137.0760 O   0  0  0  0  0  1  0  0  0  0  0  0
  183.5200  170.6220  136.3140 N   0  0  0  0  0  2  0  0  0  0  0  0
  184.9520  177.7660  137.4790 C   0  0  0  0  0  2  0  0  0  0  0  0
  182.4560  177.7580  137.7720 C   0  0  0  0  0  2  0  0  0  0  0  0
  183.7840  177.2890  138.3420 C   0  0  2  0  0  3  0  0  0  0  0  0
  183.5060  178.0940  139.6170 C   0  0  1  0  0  0  0  0  0  0  0  0
  182.1740  178.5390  139.0470 C   0  0  0  0  0  2  0  0  0  0  0  0
  183.3330  177.2260  140.6810 F   0  0  0  0  0  0  0  0  0  0  0  0
  184.5940  178.9350  142.4640 C   0  0  0  0  0  0  0  0  0  0  0  0
  184.5240  180.2260  139.1300 O   0  0  0  0  0  0  0  0  0  0  0  0
  185.1010  179.3640  141.1970 N   0  0  0  0  0  2  0  0  0  0  0  0
  184.4000  179.2770  139.9500 C   0  0  0  0  0  0  0  0  0  0  0  0
  183.3640  178.7010  142.6190 O   0  0  0  0  0  0  0  0  0  0  0  0
  185.5300  178.8300  143.6210 C   0  0  0  0  0  3  0  0  0  0  0  0
  186.2570  177.4850  143.6020 C   0  0  0  0  0  2  0  0  0  0  0  0
  187.2130  177.3860  144.7870 C   0  0  0  0  0  2  0  0  0  0  0  0
  185.7390  178.9110  146.1170 C   0  0  0  0  0  2  0  0  0  0  0  0
  184.7760  179.0170  144.9380 C   0  0  0  0  0  2  0  0  0  0  0  0
  186.4500  177.5610  146.0980 C   0  0  0  0  0  2  0  0  0  0  0  0
  1 13  1  0  0  0  0
  2 18  2  0  0  0  0
  3 10  1  0  0  0  0
  5 11  1  0  0  0  0
  6 18  1  0  0  0  0
  6 17  2  0  0  0  0
  7 17  1  0  0  0  0
  8 23  1  0  0  0  0
  8  3  1  0  0  0  0
  9 14  1  6  0  0  0
  9 11  1  0  0  0  0
 10  5  1  0  0  0  0
 11  4  1  6  0  0  0
 12  3  2  0  0  0  0
 12  9  1  0  0  0  0
 13 15  1  1  0  0  0
 13  6  1  0  0  0  0
 16  1  2  0  0  0  0
 16  2  1  0  0  0  0
 17 12  1  0  0  0  0
 18  8  1  0  0  0  0
 19 20  1  0  0  0  0
 19  1  1  0  0  0  0
 20 22  1  0  0  0  0
 22 21  1  0  0  0  0
 24 25  1  0  0  0  0
 24 27  1  0  0  0  0
 25 23  1  6  0  0  0
 25 26  1  0  0  0  0
 26 32  1  0  0  0  0
 26 28  1  1  0  0  0
 27 26  1  0  0  0  0
 29 33  2  0  0  0  0
 29 34  1  0  0  0  0
 30 32  2  0  0  0  0
 31 29  1  0  0  0  0
 32 31  1  0  0  0  0
 34 38  1  0  0  0  0
 35 34  1  0  0  0  0
 35 36  1  0  0  0  0
 36 39  1  0  0  0  0
 38 37  1  0  0  0  0
 39 37  1  0  0  0  0
M  END
>  <MODEL>
5

>  <REMARK>
 VINA RESULT:      -7.9      3.769      8.957
  Name = 
  7 active torsions:
  status: ('A' for Active; 'I' for Inactive)
    1  A    between atoms: C_1  and  C_5
    2  A    between atoms: C_2  and  N_9
    3  A    between atoms: N_9  and  C_39
    4  A    between atoms: C_12  and  C_30
    5  A    between atoms: C_16  and  C_27
    6  A    between atoms: N_20  and  C_39
    7  A    between atoms: N_23  and  C_30
                            x       y       z     vdW  Elec       q    Type
                         _______ _______ _______ _____ _____    ______ ____

>  <TORSDO>
F 7

$$$$
=
 OpenBabel10222419383D

 39 43  0  0  1  0  0  0  0  0999 V2000
  189.6630  178.2960  142.0580 C   0  0  0  0  0  0  0  0  0  0  0  0
  187.6970  178.5030  140.6030 C   0  0  0  0  0  3  0  0  0  0  0  0
  188.3580  176.7130  137.3750 C   0  0  0  0  0  0  0  0  0  0  0  0
  190.0700  174.0500  134.5950 O   0  0  0  0  0  1  0  0  0  0  0  0
  188.1100  175.1800  135.3510 C   0  0  0  0  0  2  0  0  0  0  0  0
  189.7700  177.3950  139.7780 C   0  0  0  0  0  0  0  0  0  0  0  0
  191.4450  175.6250  139.3110 C   0  0  0  0  0  1  0  0  0  0  0  0
  187.7870  177.6810  138.2800 N   0  0  0  0  0  0  0  0  0  0  0  0
  190.1300  175.0500  136.7780 C   0  0  1  0  0  3  0  0  0  0  0  0
  187.6600  176.4540  136.0520 C   0  0  0  0  0  2  0  0  0  0  0  0
  189.6250  175.1420  135.3400 C   0  0  1  0  0  3  0  0  0  0  0  0
  189.5440  176.1290  137.6690 C   0  0  0  0  0  0  0  0  0  0  0  0
  190.4020  177.7280  141.0910 C   0  0  0  0  0  0  0  0  0  0  0  0
  189.8390  173.7930  137.3160 O   0  0  0  0  0  1  0  0  0  0  0  0
  191.7490  177.4670  141.3270 O   0  0  0  0  0  1  0  0  0  0  0  0
  188.2260  178.5760  141.8260 C   0  0  0  0  0  3  0  0  0  0  0  0
  190.2420  176.4420  138.9450 C   0  0  0  0  0  0  0  0  0  0  0  0
  188.5640  178.2290  139.4000 C   0  0  1  0  0  3  0  0  0  0  0  0
  190.2590  178.5890  143.3270 N   0  0  0  0  0  2  0  0  0  0  0  0
  190.2350  177.6690  144.4550 C   0  0  0  0  0  2  0  0  0  0  0  0
  191.7670  177.1580  146.0240 O   0  0  0  0  0  1  0  0  0  0  0  0
  191.5670  177.1390  144.6860 N   0  0  0  0  0  2  0  0  0  0  0  0
  186.5230  178.3310  137.9350 C   0  0  0  0  0  2  0  0  0  0  0  0
  184.3770  177.3930  137.0210 C   0  0  0  0  0  2  0  0  0  0  0  0
  185.3440  177.3930  138.1930 C   0  0  2  0  0  3  0  0  0  0  0  0
  184.2280  177.9350  139.0950 C   0  0  1  0  0  0  0  0  0  0  0  0
  183.2670  177.9110  137.9230 C   0  0  0  0  0  2  0  0  0  0  0  0
  183.8940  176.9780  140.0380 F   0  0  0  0  0  0  0  0  0  0  0  0
  184.1590  178.7470  142.1500 C   0  0  0  0  0  0  0  0  0  0  0  0
  184.2020  180.3420  138.9490 O   0  0  0  0  0  0  0  0  0  0  0  0
  184.6610  179.5380  141.0680 N   0  0  0  0  0  2  0  0  0  0  0  0
  184.3670  179.3290  139.6810 C   0  0  0  0  0  0  0  0  0  0  0  0
  183.1820  177.9680  141.9770 O   0  0  0  0  0  0  0  0  0  0  0  0
  184.7640  178.9050  143.5050 C   0  0  0  0  0  3  0  0  0  0  0  0
  185.8440  177.8480  143.7350 C   0  0  0  0  0  2  0  0  0  0  0  0
  186.4590  178.0170  145.1210 C   0  0  0  0  0  2  0  0  0  0  0  0
  184.3100  178.9820  145.9680 C   0  0  0  0  0  2  0  0  0  0  0  0
  183.6860  178.8180  144.5850 C   0  0  0  0  0  2  0  0  0  0  0  0
  185.3780  177.9150  146.1940 C   0  0  0  0  0  2  0  0  0  0  0  0
  1 19  1  0  0  0  0
  2 16  2  0  0  0  0
  3 12  2  0  0  0  0
  3  8  1  0  0  0  0
  5 10  1  0  0  0  0
  6 13  1  0  0  0  0
  8 18  1  0  0  0  0
  9 14  1  1  0  0  0
  9 12  1  0  0  0  0
 10  3  1  0  0  0  0
 11  4  1  6  0  0  0
 11  5  1  0  0  0  0
 11  9  1  0  0  0  0
 12 17  1  0  0  0  0
 13 15  1  0  0  0  0
 13  1  2  0  0  0  0
 16  1  1  0  0  0  0
 17  7  1  0  0  0  0
 17  6  2  0  0  0  0
 18  6  1  0  0  0  0
 18  2  1  1  0  0  0
 19 20  1  0  0  0  0
 20 22  1  0  0  0  0
 22 21  1  0  0  0  0
 23  8  1  0  0  0  0
 24 27  1  0  0  0  0
 24 25  1  0  0  0  0
 25 23  1  6  0  0  0
 25 26  1  0  0  0  0
 26 32  1  0  0  0  0
 26 28  1  1  0  0  0
 27 26  1  0  0  0  0
 29 34  1  0  0  0  0
 30 32  2  0  0  0  0
 31 29  1  0  0  0  0
 32 31  1  0  0  0  0
 33 29  2  0  0  0  0
 34 35  1  0  0  0  0
 34 38  1  0  0  0  0
 35 36  1  0  0  0  0
 36 39  1  0  0  0  0
 37 39  1  0  0  0  0
 38 37  1  0  0  0  0
M  END
>  <MODEL>
6

>  <REMARK>
 VINA RESULT:      -7.8      2.427      6.299
  Name = 
  7 active torsions:
  status: ('A' for Active; 'I' for Inactive)
    1  A    between atoms: C_1  and  C_5
    2  A    between atoms: C_2  and  N_9
    3  A    between atoms: N_9  and  C_39
    4  A    between atoms: C_12  and  C_30
    5  A    between atoms: C_16  and  C_27
    6  A    between atoms: N_20  and  C_39
    7  A    between atoms: N_23  and  C_30
                            x       y       z     vdW  Elec       q    Type
                         _______ _______ _______ _____ _____    ______ ____

>  <TORSDO>
F 7

$$$$
=
 OpenBabel10222419383D

 39 43  0  0  1  0  0  0  0  0999 V2000
  183.8820  178.6620  142.3110 C   0  0  0  0  0  0  0  0  0  0  0  0
  185.6930  178.5000  140.6640 C   0  0  0  0  0  3  0  0  0  0  0  0
  188.9540  178.0340  142.4560 C   0  0  0  0  0  0  0  0  0  0  0  0
  191.7050  177.0690  145.4980 O   0  0  0  0  0  1  0  0  0  0  0  0
  191.2330  177.1290  143.1600 C   0  0  0  0  0  2  0  0  0  0  0  0
  186.2000  178.5200  143.1020 C   0  0  0  0  0  0  0  0  0  0  0  0
  186.5870  177.7070  145.4140 C   0  0  0  0  0  1  0  0  0  0  0  0
  188.0420  178.4320  141.4110 N   0  0  0  0  0  0  0  0  0  0  0  0
  189.4200  177.3880  144.8280 C   0  0  1  0  0  3  0  0  0  0  0  0
  190.4290  177.8990  142.1220 C   0  0  0  0  0  2  0  0  0  0  0  0
  190.8920  177.6680  144.5350 C   0  0  1  0  0  3  0  0  0  0  0  0
  188.5050  177.8830  143.7250 C   0  0  0  0  0  0  0  0  0  0  0  0
  184.7370  178.6980  143.3470 C   0  0  0  0  0  0  0  0  0  0  0  0
  189.2160  176.0190  145.0240 O   0  0  0  0  0  1  0  0  0  0  0  0
  184.2430  178.9090  144.6310 O   0  0  0  0  0  1  0  0  0  0  0  0
  184.3890  178.4330  140.9380 C   0  0  0  0  0  3  0  0  0  0  0  0
  187.0640  178.0780  144.0420 C   0  0  0  0  0  0  0  0  0  0  0  0
  186.6870  178.9080  141.7220 C   0  0  1  0  0  3  0  0  0  0  0  0
  182.4760  178.8030  142.5470 N   0  0  0  0  0  2  0  0  0  0  0  0
  181.4700  178.6560  141.5040 C   0  0  0  0  0  2  0  0  0  0  0  0
  180.5800  180.1040  142.9800 O   0  0  0  0  0  1  0  0  0  0  0  0
  180.2810  179.4120  141.8570 N   0  0  0  0  0  2  0  0  0  0  0  0
  188.5460  178.6270  140.0520 C   0  0  0  0  0  2  0  0  0  0  0  0
  190.2350  177.2870  138.7590 C   0  0  0  0  0  2  0  0  0  0  0  0
  188.8530  177.2830  139.3910 C   0  0  2  0  0  3  0  0  0  0  0  0
  188.2360  177.0480  138.0070 C   0  0  1  0  0  0  0  0  0  0  0  0
  189.6200  177.0330  137.3900 C   0  0  0  0  0  2  0  0  0  0  0  0
  187.6550  175.7920  137.9700 F   0  0  0  0  0  0  0  0  0  0  0  0
  185.3160  176.7210  136.8390 C   0  0  0  0  0  0  0  0  0  0  0  0
  187.8720  179.2160  137.0160 O   0  0  0  0  0  0  0  0  0  0  0  0
  185.9500  177.9460  137.2190 N   0  0  0  0  0  2  0  0  0  0  0  0
  187.3600  178.1300  137.3990 C   0  0  0  0  0  0  0  0  0  0  0  0
  185.9910  175.7710  136.3550 O   0  0  0  0  0  0  0  0  0  0  0  0
  183.8330  176.6040  136.9600 C   0  0  0  0  0  3  0  0  0  0  0  0
  183.2360  177.9040  137.4990 C   0  0  0  0  0  2  0  0  0  0  0  0
  181.7200  177.7780  137.6170 C   0  0  0  0  0  2  0  0  0  0  0  0
  181.9440  175.3110  137.9770 C   0  0  0  0  0  2  0  0  0  0  0  0
  183.4610  175.4260  137.8600 C   0  0  0  0  0  2  0  0  0  0  0  0
  181.3580  176.6070  138.5280 C   0  0  0  0  0  2  0  0  0  0  0  0
  1 19  1  0  0  0  0
  1 13  2  0  0  0  0
  2 16  2  0  0  0  0
  3 12  2  0  0  0  0
  5 11  1  0  0  0  0
  6 13  1  0  0  0  0
  6 17  2  0  0  0  0
  8 18  1  0  0  0  0
  8  3  1  0  0  0  0
  9 14  1  6  0  0  0
 10  3  1  0  0  0  0
 10  5  1  0  0  0  0
 11  9  1  0  0  0  0
 11  4  1  1  0  0  0
 12 17  1  0  0  0  0
 12  9  1  0  0  0  0
 13 15  1  0  0  0  0
 16  1  1  0  0  0  0
 17  7  1  0  0  0  0
 18  2  1  6  0  0  0
 18  6  1  0  0  0  0
 20 22  1  0  0  0  0
 20 19  1  0  0  0  0
 22 21  1  0  0  0  0
 23  8  1  0  0  0  0
 24 25  1  0  0  0  0
 25 23  1  6  0  0  0
 26 28  1  6  0  0  0
 26 25  1  0  0  0  0
 27 26  1  0  0  0  0
 27 24  1  0  0  0  0
 29 34  1  0  0  0  0
 29 31  1  0  0  0  0
 30 32  2  0  0  0  0
 31 32  1  0  0  0  0
 32 26  1  0  0  0  0
 33 29  2  0  0  0  0
 34 35  1  0  0  0  0
 34 38  1  0  0  0  0
 35 36  1  0  0  0  0
 36 39  1  0  0  0  0
 37 39  1  0  0  0  0
 38 37  1  0  0  0  0
M  END
>  <MODEL>
7

>  <REMARK>
 VINA RESULT:      -7.7      2.211      5.590
  Name = 
  7 active torsions:
  status: ('A' for Active; 'I' for Inactive)
    1  A    between atoms: C_1  and  C_5
    2  A    between atoms: C_2  and  N_9
    3  A    between atoms: N_9  and  C_39
    4  A    between atoms: C_12  and  C_30
    5  A    between atoms: C_16  and  C_27
    6  A    between atoms: N_20  and  C_39
    7  A    between atoms: N_23  and  C_30
                            x       y       z     vdW  Elec       q    Type
                         _______ _______ _______ _____ _____    ______ ____

>  <TORSDO>
F 7

$$$$
=
 OpenBabel10222419383D

 39 43  0  0  1  0  0  0  0  0999 V2000
  184.7230  178.6490  144.3140 C   0  0  0  0  0  0  0  0  0  0  0  0
  186.1660  177.5350  142.6720 C   0  0  0  0  0  3  0  0  0  0  0  0
  189.5230  176.8910  144.2150 C   0  0  0  0  0  0  0  0  0  0  0  0
  192.4960  176.3110  147.1430 O   0  0  0  0  0  1  0  0  0  0  0  0
  191.6620  175.7340  144.9830 C   0  0  0  0  0  2  0  0  0  0  0  0
  187.0660  178.2100  144.8940 C   0  0  0  0  0  0  0  0  0  0  0  0
  187.6640  178.1100  147.3000 C   0  0  0  0  0  1  0  0  0  0  0  0
  188.5470  177.1430  143.1830 N   0  0  0  0  0  0  0  0  0  0  0  0
  190.2410  176.9430  146.6110 C   0  0  1  0  0  3  0  0  0  0  0  0
  190.8650  176.3030  143.8190 C   0  0  0  0  0  2  0  0  0  0  0  0
  191.6690  176.7490  146.1090 C   0  0  1  0  0  3  0  0  0  0  0  0
  189.2700  177.2660  145.4920 C   0  0  0  0  0  0  0  0  0  0  0  0
  185.7280  178.8060  145.1920 C   0  0  0  0  0  0  0  0  0  0  0  0
  189.8050  175.8010  147.2900 O   0  0  0  0  0  1  0  0  0  0  0  0
  185.5070  179.5290  146.3600 O   0  0  0  0  0  1  0  0  0  0  0  0
  184.9390  177.8780  143.0680 C   0  0  0  0  0  3  0  0  0  0  0  0
  187.9700  177.8960  145.8480 C   0  0  0  0  0  0  0  0  0  0  0  0
  187.3830  178.0060  143.4280 C   0  0  1  0  0  3  0  0  0  0  0  0
  183.4320  179.1950  144.6110 N   0  0  0  0  0  2  0  0  0  0  0  0
  182.1880  178.6280  144.1090 C   0  0  0  0  0  2  0  0  0  0  0  0
  180.5090  179.6860  143.0470 O   0  0  0  0  0  1  0  0  0  0  0  0
  181.7970  179.3060  142.8850 N   0  0  0  0  0  2  0  0  0  0  0  0
  188.8450  176.7650  141.8010 C   0  0  0  0  0  2  0  0  0  0  0  0
  188.7670  179.0030  140.6600 C   0  0  0  0  0  2  0  0  0  0  0  0
  189.6590  177.8560  141.1060 C   0  0  2  0  0  3  0  0  0  0  0  0
  190.0350  177.5970  139.6420 C   0  0  1  0  0  0  0  0  0  0  0  0
  189.1590  178.7560  139.2100 C   0  0  0  0  0  2  0  0  0  0  0  0
  191.3760  177.8830  139.4540 F   0  0  0  0  0  0  0  0  0  0  0  0
  191.8330  175.6010  137.9760 C   0  0  0  0  0  0  0  0  0  0  0  0
  188.3820  176.0570  138.7970 O   0  0  0  0  0  0  0  0  0  0  0  0
  190.5600  175.3140  138.5630 N   0  0  0  0  0  2  0  0  0  0  0  0
  189.6050  176.2930  138.9920 C   0  0  0  0  0  0  0  0  0  0  0  0
  192.0910  176.7530  137.5310 O   0  0  0  0  0  0  0  0  0  0  0  0
  192.8300  174.5000  137.8350 C   0  0  0  0  0  3  0  0  0  0  0  0
  194.2520  175.0460  137.9670 C   0  0  0  0  0  2  0  0  0  0  0  0
  195.2660  173.9150  137.8250 C   0  0  0  0  0  2  0  0  0  0  0  0
  193.6720  172.6570  136.3610 C   0  0  0  0  0  2  0  0  0  0  0  0
  192.6500  173.7830  136.4970 C   0  0  0  0  0  2  0  0  0  0  0  0
  195.0880  173.2130  136.4800 C   0  0  0  0  0  2  0  0  0  0  0  0
  1 19  1  0  0  0  0
  1 13  2  0  0  0  0
  2 16  2  0  0  0  0
  3 12  2  0  0  0  0
  5 11  1  0  0  0  0
  6 13  1  0  0  0  0
  6 17  2  0  0  0  0
  8 18  1  0  0  0  0
  8  3  1  0  0  0  0
  9 14  1  6  0  0  0
 10  3  1  0  0  0  0
 10  5  1  0  0  0  0
 11  9  1  0  0  0  0
 11  4  1  1  0  0  0
 12 17  1  0  0  0  0
 12  9  1  0  0  0  0
 13 15  1  0  0  0  0
 16  1  1  0  0  0  0
 17  7  1  0  0  0  0
 18  2  1  6  0  0  0
 18  6  1  0  0  0  0
 20 19  1  0  0  0  0
 22 21  1  0  0  0  0
 22 20  1  0  0  0  0
 23  8  1  0  0  0  0
 24 25  1  0  0  0  0
 25 23  1  6  0  0  0
 26 28  1  6  0  0  0
 26 25  1  0  0  0  0
 27 26  1  0  0  0  0
 27 24  1  0  0  0  0
 29 31  1  0  0  0  0
 30 32  2  0  0  0  0
 31 32  1  0  0  0  0
 32 26  1  0  0  0  0
 33 29  2  0  0  0  0
 34 35  1  0  0  0  0
 34 29  1  0  0  0  0
 36 35  1  0  0  0  0
 37 39  1  0  0  0  0
 37 38  1  0  0  0  0
 38 34  1  0  0  0  0
 39 36  1  0  0  0  0
M  END
>  <MODEL>
8

>  <REMARK>
 VINA RESULT:      -7.5      3.057      7.412
  Name = 
  7 active torsions:
  status: ('A' for Active; 'I' for Inactive)
    1  A    between atoms: C_1  and  C_5
    2  A    between atoms: C_2  and  N_9
    3  A    between atoms: N_9  and  C_39
    4  A    between atoms: C_12  and  C_30
    5  A    between atoms: C_16  and  C_27
    6  A    between atoms: N_20  and  C_39
    7  A    between atoms: N_23  and  C_30
                            x       y       z     vdW  Elec       q    Type
                         _______ _______ _______ _____ _____    ______ ____

>  <TORSDO>
F 7

$$$$
=
 OpenBabel10222419383D

 39 43  0  0  1  0  0  0  0  0999 V2000
  187.6300  177.8820  143.5790 C   0  0  0  0  0  0  0  0  0  0  0  0
  186.4530  178.1850  141.4470 C   0  0  0  0  0  3  0  0  0  0  0  0
  188.8320  177.5360  138.6210 C   0  0  0  0  0  0  0  0  0  0  0  0
  192.1820  176.1000  136.5080 O   0  0  0  0  0  1  0  0  0  0  0  0
  189.8570  176.6350  136.4660 C   0  0  0  0  0  2  0  0  0  0  0  0
  188.8980  177.7090  141.4850 C   0  0  0  0  0  0  0  0  0  0  0  0
  191.0300  176.4410  141.5240 C   0  0  0  0  0  1  0  0  0  0  0  0
  187.7010  178.0960  139.3220 N   0  0  0  0  0  0  0  0  0  0  0  0
  191.0720  176.4220  138.6130 C   0  0  1  0  0  3  0  0  0  0  0  0
  188.8320  177.5620  137.1030 C   0  0  0  0  0  2  0  0  0  0  0  0
  191.1930  176.8440  137.1510 C   0  0  1  0  0  3  0  0  0  0  0  0
  189.9050  177.0890  139.3160 C   0  0  0  0  0  0  0  0  0  0  0  0
  188.8240  177.7440  142.9770 C   0  0  0  0  0  0  0  0  0  0  0  0
  190.9420  175.0330  138.7090 O   0  0  0  0  0  1  0  0  0  0  0  0
  189.9720  177.6450  143.7570 O   0  0  0  0  0  1  0  0  0  0  0  0
  186.3960  177.9840  142.7640 C   0  0  0  0  0  3  0  0  0  0  0  0
  189.9080  177.1260  140.8040 C   0  0  0  0  0  0  0  0  0  0  0  0
  187.7740  178.4130  140.7550 C   0  0  1  0  0  3  0  0  0  0  0  0
  187.5530  177.8870  145.0090 N   0  0  0  0  0  2  0  0  0  0  0  0
  186.3080  177.7200  145.7450 C   0  0  0  0  0  2  0  0  0  0  0  0
  184.5240  178.7900  146.6060 O   0  0  0  0  0  1  0  0  0  0  0  0
  185.7260  179.0200  146.0290 N   0  0  0  0  0  2  0  0  0  0  0  0
  186.5630  178.6080  138.5590 C   0  0  0  0  0  2  0  0  0  0  0  0
  185.2000  177.4140  136.8170 C   0  0  0  0  0  2  0  0  0  0  0  0
  185.5460  177.4980  138.2940 C   0  0  2  0  0  3  0  0  0  0  0  0
  184.0810  177.8280  138.6050 C   0  0  1  0  0  0  0  0  0  0  0  0
  183.7430  177.7220  137.1310 C   0  0  0  0  0  2  0  0  0  0  0  0
  183.5190  176.7890  139.3260 F   0  0  0  0  0  0  0  0  0  0  0  0
  181.3950  178.7040  140.0230 C   0  0  0  0  0  0  0  0  0  0  0  0
  184.4040  180.2090  138.8120 O   0  0  0  0  0  0  0  0  0  0  0  0
  182.6490  179.3900  140.0760 N   0  0  0  0  0  2  0  0  0  0  0  0
  183.7380  179.1980  139.1640 C   0  0  0  0  0  0  0  0  0  0  0  0
  181.0490  178.0740  138.9850 O   0  0  0  0  0  0  0  0  0  0  0  0
  180.4680  178.7980  141.1880 C   0  0  0  0  0  3  0  0  0  0  0  0
  179.8970  180.2120  141.3060 C   0  0  0  0  0  2  0  0  0  0  0  0
  178.9490  180.2990  142.4970 C   0  0  0  0  0  2  0  0  0  0  0  0
  180.2320  178.4940  143.6640 C   0  0  0  0  0  2  0  0  0  0  0  0
  181.1860  178.3980  142.4770 C   0  0  0  0  0  2  0  0  0  0  0  0
  179.6780  179.9110  143.7820 C   0  0  0  0  0  2  0  0  0  0  0  0
  1 19  1  0  0  0  0
  2 16  2  0  0  0  0
  3 12  2  0  0  0  0
  3  8  1  0  0  0  0
  5 10  1  0  0  0  0
  5 11  1  0  0  0  0
  6 13  1  0  0  0  0
  8 18  1  0  0  0  0
  9 14  1  6  0  0  0
  9 12  1  0  0  0  0
 10  3  1  0  0  0  0
 11  4  1  6  0  0  0
 11  9  1  0  0  0  0
 12 17  1  0  0  0  0
 13  1  2  0  0  0  0
 13 15  1  0  0  0  0
 16  1  1  0  0  0  0
 17  6  2  0  0  0  0
 17  7  1  0  0  0  0
 18  2  1  1  0  0  0
 18  6  1  0  0  0  0
 19 20  1  0  0  0  0
 20 22  1  0  0  0  0
 22 21  1  0  0  0  0
 23  8  1  0  0  0  0
 24 27  1  0  0  0  0
 24 25  1  0  0  0  0
 25 23  1  6  0  0  0
 25 26  1  0  0  0  0
 26 32  1  0  0  0  0
 26 28  1  1  0  0  0
 27 26  1  0  0  0  0
 29 31  1  0  0  0  0
 29 34  1  0  0  0  0
 30 32  2  0  0  0  0
 32 31  1  0  0  0  0
 33 29  2  0  0  0  0
 34 35  1  0  0  0  0
 34 38  1  0  0  0  0
 35 36  1  0  0  0  0
 36 39  1  0  0  0  0
 37 39  1  0  0  0  0
 38 37  1  0  0  0  0
M  END
>  <MODEL>
9

>  <REMARK>
 VINA RESULT:      -7.4      2.782      5.896
  Name = 
  7 active torsions:
  status: ('A' for Active; 'I' for Inactive)
    1  A    between atoms: C_1  and  C_5
    2  A    between atoms: C_2  and  N_9
    3  A    between atoms: N_9  and  C_39
    4  A    between atoms: C_12  and  C_30
    5  A    between atoms: C_16  and  C_27
    6  A    between atoms: N_20  and  C_39
    7  A    between atoms: N_23  and  C_30
                            x       y       z     vdW  Elec       q    Type
                         _______ _______ _______ _____ _____    ______ ____

>  <TORSDO>
F 7

$$$$
