=
 OpenBabel10222415253D

 47 50  0  0  1  0  0  0  0  0999 V2000
  190.1350  174.3500  135.0200 C   0  0  0  0  0  3  0  0  0  0  0  0
  189.3530  176.9970  135.8230 C   0  0  2  0  0  3  0  0  0  0  0  0
  188.8380  174.6520  135.0360 C   0  0  0  0  0  0  0  0  0  0  0  0
  188.4180  176.0180  135.2410 N   0  0  0  0  0  0  0  0  0  0  0  0
  187.8430  173.5670  134.8010 C   0  0  0  0  0  1  0  0  0  0  0  0
  191.1520  175.4030  135.1980 C   0  0  0  0  0  0  0  0  0  0  0  0
  190.7880  176.6480  135.5160 C   0  0  0  0  0  3  0  0  0  0  0  0
  189.8880  176.3060  138.1640 C   0  0  0  0  0  3  0  0  0  0  0  0
  189.7450  176.4310  139.5470 C   0  0  0  0  0  3  0  0  0  0  0  0
  188.8520  177.3690  140.0920 C   0  0  0  0  0  0  0  0  0  0  0  0
  188.1000  178.1790  139.2230 C   0  0  0  0  0  3  0  0  0  0  0  0
  189.1400  177.1140  137.3010 C   0  0  0  0  0  0  0  0  0  0  0  0
  188.2480  178.0560  137.8380 C   0  0  0  0  0  3  0  0  0  0  0  0
  187.4610  177.7250  142.1480 C   0  0  0  0  0  3  0  0  0  0  0  0
  186.1360  178.0400  144.1560 C   0  0  0  0  0  3  0  0  0  0  0  0
  186.0710  178.1350  145.5530 C   0  0  0  0  0  3  0  0  0  0  0  0
  187.2290  178.0040  146.3340 C   0  0  0  0  0  0  0  0  0  0  0  0
  188.7090  177.4900  141.5580 C   0  0  0  0  0  0  0  0  0  0  0  0
  187.3670  177.8090  143.5340 C   0  0  0  0  0  0  0  0  0  0  0  0
  188.5330  177.6600  144.3130 C   0  0  0  0  0  0  0  0  0  0  0  0
  188.4630  177.7620  145.7080 C   0  0  0  0  0  3  0  0  0  0  0  0
  189.7240  177.4270  143.6970 N   0  0  0  0  0  0  0  0  0  0  0  0
  189.8040  177.3390  142.3640 N   0  0  0  0  0  0  0  0  0  0  0  0
  187.1260  178.1370  147.7570 N   0  0  0  0  0  2  0  0  0  0  0  0
  188.0720  177.5430  148.6940 C   0  0  0  0  0  2  0  0  0  0  0  0
  189.3320  178.3850  148.7600 C   0  0  0  0  0  1  0  0  0  0  0  0
  187.0230  177.9280  134.5940 C   0  0  0  0  0  1  0  0  0  0  0  0
  187.0630  176.4320  134.8550 C   0  0  2  0  0  3  0  0  0  0  0  0
  186.1390  176.1020  135.8520 O   0  0  0  0  0  0  0  0  0  0  0  0
  185.3630  177.2470  136.0310 C   0  0  0  0  0  2  0  0  0  0  0  0
  184.3780  177.0070  137.1580 C   0  0  0  0  0  2  0  0  0  0  0  0
  184.5040  178.0930  138.2050 C   0  0  0  0  0  2  0  0  0  0  0  0
  183.1500  178.3530  138.8490 C   0  0  2  0  0  3  0  0  0  0  0  0
  182.6560  177.0930  139.5590 C   0  0  0  0  0  1  0  0  0  0  0  0
  182.2110  178.7390  137.8520 O   0  0  0  0  0  0  0  0  0  0  0  0
  181.8770  180.8640  138.7120 O   0  0  0  0  0  0  0  0  0  0  0  0
  181.5680  179.9790  137.8640 C   0  0  0  0  0  0  0  0  0  0  0  0
  180.5100  180.2770  136.8570 C   0  0  0  0  0  1  0  0  0  0  0  0
  192.5910  175.1130  134.9090 C   0  0  0  0  0  2  0  0  0  0  0  0
  193.4140  175.1020  136.1920 C   0  0  0  0  0  2  0  0  0  0  0  0
  194.7480  175.8000  135.9800 C   0  0  0  0  0  2  0  0  0  0  0  0
  195.8790  174.9210  136.4850 C   0  0  0  0  0  2  0  0  0  0  0  0
  195.4100  174.0620  137.4880 O   0  0  0  0  0  0  0  0  0  0  0  0
  195.8730  175.1650  139.4200 O   0  0  0  0  0  1  0  0  0  0  0  0
  196.3290  174.1960  138.5290 C   0  0  2  0  0  3  0  0  0  0  0  0
  197.6700  174.6270  137.9610 C   0  0  0  0  0  2  0  0  0  0  0  0
  198.2810  175.5510  138.8120 O   0  0  0  0  0  1  0  0  0  0  0  0
  1  3  2  0  0  0  0
  1  6  1  0  0  0  0
  2 12  1  1  0  0  0
  3  4  1  0  0  0  0
  4  2  1  0  0  0  0
  5  3  1  0  0  0  0
  6  7  2  0  0  0  0
  7  2  1  0  0  0  0
  8  9  1  0  0  0  0
  9 10  2  0  0  0  0
 10 18  1  0  0  0  0
 11 10  1  0  0  0  0
 12 13  1  0  0  0  0
 12  8  2  0  0  0  0
 13 11  2  0  0  0  0
 14 19  1  0  0  0  0
 15 16  1  0  0  0  0
 16 17  2  0  0  0  0
 17 24  1  0  0  0  0
 18 14  2  0  0  0  0
 18 23  1  0  0  0  0
 19 15  2  0  0  0  0
 19 20  1  0  0  0  0
 20 21  2  0  0  0  0
 21 17  1  0  0  0  0
 22 20  1  0  0  0  0
 23 22  2  0  0  0  0
 24 25  1  0  0  0  0
 25 26  1  0  0  0  0
 28 27  1  1  0  0  0
 28  4  1  0  0  0  0
 28 29  1  0  0  0  0
 29 30  1  0  0  0  0
 30 31  1  0  0  0  0
 31 32  1  0  0  0  0
 32 33  1  0  0  0  0
 33 34  1  6  0  0  0
 35 37  1  0  0  0  0
 35 33  1  0  0  0  0
 37 36  2  0  0  0  0
 38 37  1  0  0  0  0
 39  6  1  0  0  0  0
 39 40  1  0  0  0  0
 41 40  1  0  0  0  0
 41 42  1  0  0  0  0
 42 43  1  0  0  0  0
 43 45  1  0  0  0  0
 45 44  1  1  0  0  0
 46 45  1  0  0  0  0
 46 47  1  0  0  0  0
M  END
>  <MODEL>
1

>  <REMARK>
 VINA RESULT:      -6.5      0.000      0.000
  Name = 
  19 active torsions:
  status: ('A' for Active; 'I' for Inactive)
    1  A    between atoms: C_1  and  C_8
    2  A    between atoms: C_1  and  C_39
    3  A    between atoms: C_4  and  C_30
    4  A    between atoms: O_5  and  C_35
    5  A    between atoms: O_5  and  C_41
    6  A    between atoms: C_6  and  N_47
    7  A    between atoms: C_8  and  O_25
    8  A    between atoms: C_9  and  O_21
    9  A    between atoms: C_9  and  C_24
   10  A    between atoms: C_11  and  C_32
   11  A    between atoms: C_15  and  C_18
   12  A    between atoms: C_17  and  N_47
   13  A    between atoms: O_21  and  C_30
   14  A    between atoms: C_22  and  C_24
   15  A    between atoms: C_22  and  C_31
   16  A    between atoms: O_25  and  C_34
   17  A    between atoms: N_28  and  C_41
   18  A    between atoms: C_31  and  C_38
   19  A    between atoms: C_35  and  C_39
                            x       y       z     vdW  Elec       q    Type
                         _______ _______ _______ _____ _____    ______ ____

>  <TORSDO>
F 19

$$$$
=
 OpenBabel10222415253D

 47 50  0  0  1  0  0  0  0  0999 V2000
  185.8900  179.5650  145.9170 C   0  0  0  0  0  3  0  0  0  0  0  0
  185.7970  177.3680  144.0660 C   0  0  2  0  0  3  0  0  0  0  0  0
  185.2910  179.7490  144.7420 C   0  0  0  0  0  0  0  0  0  0  0  0
  185.0500  178.6230  143.8700 N   0  0  0  0  0  0  0  0  0  0  0  0
  184.8450  181.1220  144.3690 C   0  0  0  0  0  1  0  0  0  0  0  0
  186.3010  178.2150  146.3450 C   0  0  0  0  0  0  0  0  0  0  0  0
  186.2060  177.1810  145.5050 C   0  0  0  0  0  3  0  0  0  0  0  0
  187.9530  176.3220  143.3590 C   0  0  0  0  0  3  0  0  0  0  0  0
  189.0500  176.2250  142.5000 C   0  0  0  0  0  3  0  0  0  0  0  0
  189.2040  177.1230  141.4310 C   0  0  0  0  0  0  0  0  0  0  0  0
  188.2380  178.1250  141.2380 C   0  0  0  0  0  3  0  0  0  0  0  0
  186.9920  177.3200  143.1640 C   0  0  0  0  0  0  0  0  0  0  0  0
  187.1370  178.2190  142.0950 C   0  0  0  0  0  3  0  0  0  0  0  0
  190.2460  176.4570  139.2490 C   0  0  0  0  0  3  0  0  0  0  0  0
  191.2760  175.8490  137.1380 C   0  0  0  0  0  3  0  0  0  0  0  0
  192.4210  175.7800  136.3330 C   0  0  0  0  0  3  0  0  0  0  0  0
  193.6570  176.2460  136.8050 C   0  0  0  0  0  0  0  0  0  0  0  0
  190.3710  177.0090  140.5300 C   0  0  0  0  0  0  0  0  0  0  0  0
  191.3660  176.3910  138.4250 C   0  0  0  0  0  0  0  0  0  0  0  0
  192.6010  176.8770  138.9000 C   0  0  0  0  0  0  0  0  0  0  0  0
  193.7430  176.7990  138.0930 C   0  0  0  0  0  3  0  0  0  0  0  0
  192.6730  177.4100  140.1500 N   0  0  0  0  0  0  0  0  0  0  0  0
  191.5910  177.4780  140.9340 N   0  0  0  0  0  0  0  0  0  0  0  0
  194.8110  176.1310  135.9620 N   0  0  0  0  0  2  0  0  0  0  0  0
  195.8900  175.1790  136.1960 C   0  0  0  0  0  2  0  0  0  0  0  0
  195.3150  173.8360  136.6030 C   0  0  0  0  0  1  0  0  0  0  0  0
  182.6500  178.7410  143.3850 C   0  0  0  0  0  1  0  0  0  0  0  0
  184.0520  178.7290  142.7990 C   0  0  2  0  0  3  0  0  0  0  0  0
  184.1760  177.6690  141.8960 O   0  0  0  0  0  0  0  0  0  0  0  0
  183.2400  177.9250  140.8930 C   0  0  0  0  0  2  0  0  0  0  0  0
  183.8430  177.5640  139.5490 C   0  0  0  0  0  2  0  0  0  0  0  0
  184.7410  178.6810  139.0610 C   0  0  0  0  0  2  0  0  0  0  0  0
  185.4540  178.2540  137.7860 C   0  0  2  0  0  3  0  0  0  0  0  0
  184.5380  177.3650  136.9450 C   0  0  0  0  0  1  0  0  0  0  0  0
  186.6400  177.5420  138.1160 O   0  0  0  0  0  0  0  0  0  0  0  0
  187.6850  175.8570  136.9160 O   0  0  0  0  0  0  0  0  0  0  0  0
  187.5410  177.0910  137.1470 C   0  0  0  0  0  0  0  0  0  0  0  0
  188.3370  178.0740  136.3590 C   0  0  0  0  0  1  0  0  0  0  0  0
  186.7180  177.9710  147.7610 C   0  0  0  0  0  2  0  0  0  0  0  0
  188.2260  178.1210  147.9200 C   0  0  0  0  0  2  0  0  0  0  0  0
  188.9000  176.7590  147.9610 C   0  0  0  0  0  2  0  0  0  0  0  0
  190.1930  176.7960  147.1660 C   0  0  0  0  0  2  0  0  0  0  0  0
  190.0010  177.4930  145.9670 O   0  0  0  0  0  0  0  0  0  0  0  0
  192.1140  176.6570  145.9980 O   0  0  0  0  0  1  0  0  0  0  0  0
  191.1050  177.1590  145.1800 C   0  0  2  0  0  3  0  0  0  0  0  0
  191.6070  178.4040  144.4690 C   0  0  0  0  0  2  0  0  0  0  0  0
  190.5430  179.0730  143.8580 O   0  0  0  0  0  1  0  0  0  0  0  0
  1  6  1  0  0  0  0
  2 12  1  6  0  0  0
  2  7  1  0  0  0  0
  3  1  2  0  0  0  0
  4  2  1  0  0  0  0
  4  3  1  0  0  0  0
  5  3  1  0  0  0  0
  6 39  1  0  0  0  0
  7  6  2  0  0  0  0
  9  8  2  0  0  0  0
 10  9  1  0  0  0  0
 11 10  2  0  0  0  0
 11 13  1  0  0  0  0
 12  8  1  0  0  0  0
 13 12  2  0  0  0  0
 14 18  1  0  0  0  0
 15 19  1  0  0  0  0
 16 17  1  0  0  0  0
 16 15  2  0  0  0  0
 17 21  2  0  0  0  0
 18 23  2  0  0  0  0
 18 10  1  0  0  0  0
 19 20  1  0  0  0  0
 19 14  2  0  0  0  0
 20 22  2  0  0  0  0
 21 20  1  0  0  0  0
 22 23  1  0  0  0  0
 24 25  1  0  0  0  0
 24 17  1  0  0  0  0
 25 26  1  0  0  0  0
 28 27  1  1  0  0  0
 28  4  1  0  0  0  0
 29 28  1  0  0  0  0
 30 29  1  0  0  0  0
 31 30  1  0  0  0  0
 32 31  1  0  0  0  0
 33 34  1  6  0  0  0
 33 35  1  0  0  0  0
 33 32  1  0  0  0  0
 36 37  2  0  0  0  0
 37 35  1  0  0  0  0
 38 37  1  0  0  0  0
 39 40  1  0  0  0  0
 40 41  1  0  0  0  0
 42 41  1  0  0  0  0
 43 42  1  0  0  0  0
 45 43  1  0  0  0  0
 45 44  1  1  0  0  0
 46 45  1  0  0  0  0
 47 46  1  0  0  0  0
M  END
>  <MODEL>
2

>  <REMARK>
 VINA RESULT:      -6.5      3.219      9.026
  Name = 
  19 active torsions:
  status: ('A' for Active; 'I' for Inactive)
    1  A    between atoms: C_1  and  C_8
    2  A    between atoms: C_1  and  C_39
    3  A    between atoms: C_4  and  C_30
    4  A    between atoms: O_5  and  C_35
    5  A    between atoms: O_5  and  C_41
    6  A    between atoms: C_6  and  N_47
    7  A    between atoms: C_8  and  O_25
    8  A    between atoms: C_9  and  O_21
    9  A    between atoms: C_9  and  C_24
   10  A    between atoms: C_11  and  C_32
   11  A    between atoms: C_15  and  C_18
   12  A    between atoms: C_17  and  N_47
   13  A    between atoms: O_21  and  C_30
   14  A    between atoms: C_22  and  C_24
   15  A    between atoms: C_22  and  C_31
   16  A    between atoms: O_25  and  C_34
   17  A    between atoms: N_28  and  C_41
   18  A    between atoms: C_31  and  C_38
   19  A    between atoms: C_35  and  C_39
                            x       y       z     vdW  Elec       q    Type
                         _______ _______ _______ _____ _____    ______ ____

>  <TORSDO>
F 19

$$$$
=
 OpenBabel10222415253D

 47 50  0  0  1  0  0  0  0  0999 V2000
  186.0480  179.5410  145.9650 C   0  0  0  0  0  3  0  0  0  0  0  0
  186.1440  177.1230  144.4130 C   0  0  2  0  0  3  0  0  0  0  0  0
  185.3520  179.4850  144.8310 C   0  0  0  0  0  0  0  0  0  0  0  0
  185.2150  178.2310  144.1280 N   0  0  0  0  0  0  0  0  0  0  0  0
  184.6900  180.7240  144.3310 C   0  0  0  0  0  1  0  0  0  0  0  0
  186.6750  178.3270  146.5190 C   0  0  0  0  0  0  0  0  0  0  0  0
  186.6710  177.1860  145.8240 C   0  0  0  0  0  3  0  0  0  0  0  0
  188.1980  176.0670  143.4600 C   0  0  0  0  0  3  0  0  0  0  0  0
  189.2280  176.0070  142.5180 C   0  0  0  0  0  3  0  0  0  0  0  0
  189.3460  176.9920  141.5240 C   0  0  0  0  0  0  0  0  0  0  0  0
  188.4120  178.0430  141.4910 C   0  0  0  0  0  3  0  0  0  0  0  0
  187.2700  177.1130  143.4250 C   0  0  0  0  0  0  0  0  0  0  0  0
  187.3790  178.0990  142.4320 C   0  0  0  0  0  3  0  0  0  0  0  0
  190.2220  176.4060  139.2490 C   0  0  0  0  0  3  0  0  0  0  0  0
  191.0910  175.8750  137.0470 C   0  0  0  0  0  3  0  0  0  0  0  0
  192.1720  175.8420  136.1550 C   0  0  0  0  0  3  0  0  0  0  0  0
  193.4370  176.3040  136.5460 C   0  0  0  0  0  0  0  0  0  0  0  0
  190.4410  176.9180  140.5340 C   0  0  0  0  0  0  0  0  0  0  0  0
  191.2750  176.3760  138.3400 C   0  0  0  0  0  0  0  0  0  0  0  0
  192.5400  176.8570  138.7350 C   0  0  0  0  0  0  0  0  0  0  0  0
  193.6180  176.8160  137.8410 C   0  0  0  0  0  3  0  0  0  0  0  0
  192.7050  177.3510  139.9920 N   0  0  0  0  0  0  0  0  0  0  0  0
  191.6860  177.3840  140.8580 N   0  0  0  0  0  0  0  0  0  0  0  0
  194.5240  176.2260  135.6150 N   0  0  0  0  0  2  0  0  0  0  0  0
  195.5970  175.2440  135.7050 C   0  0  0  0  0  2  0  0  0  0  0  0
  195.0890  173.9840  136.3810 C   0  0  0  0  0  1  0  0  0  0  0  0
  184.4090  178.9170  141.9160 C   0  0  0  0  0  1  0  0  0  0  0  0
  184.1420  178.0590  143.1420 C   0  0  2  0  0  3  0  0  0  0  0  0
  182.9010  178.3960  143.6910 O   0  0  0  0  0  0  0  0  0  0  0  0
  182.1670  178.9460  142.6410 C   0  0  0  0  0  2  0  0  0  0  0  0
  180.6880  178.8300  142.9560 C   0  0  0  0  0  2  0  0  0  0  0  0
  179.9930  177.9900  141.9050 C   0  0  0  0  0  2  0  0  0  0  0  0
  180.3400  178.5050  140.5160 C   0  0  2  0  0  3  0  0  0  0  0  0
  179.3200  179.5560  140.0760 C   0  0  0  0  0  1  0  0  0  0  0  0
  180.3420  177.4240  139.5910 O   0  0  0  0  0  0  0  0  0  0  0  0
  180.6800  175.1540  139.9110 O   0  0  0  0  0  0  0  0  0  0  0  0
  181.1680  176.3080  139.7410 C   0  0  0  0  0  0  0  0  0  0  0  0
  182.6490  176.4670  139.6850 C   0  0  0  0  0  1  0  0  0  0  0  0
  187.2170  178.3320  147.9140 C   0  0  0  0  0  2  0  0  0  0  0  0
  188.2220  177.2030  148.1130 C   0  0  0  0  0  2  0  0  0  0  0  0
  189.6450  177.7230  147.9900 C   0  0  0  0  0  2  0  0  0  0  0  0
  190.4960  176.7270  147.2230 C   0  0  0  0  0  2  0  0  0  0  0  0
  191.4920  177.3990  146.5020 O   0  0  0  0  0  0  0  0  0  0  0  0
  191.9440  175.9190  144.8370 O   0  0  0  0  0  1  0  0  0  0  0  0
  191.2430  177.0770  145.1670 C   0  0  2  0  0  3  0  0  0  0  0  0
  191.7130  178.2180  144.2810 C   0  0  0  0  0  2  0  0  0  0  0  0
  190.7480  179.2280  144.2430 O   0  0  0  0  0  1  0  0  0  0  0  0
  1  6  1  0  0  0  0
  2 12  1  6  0  0  0
  2  7  1  0  0  0  0
  3  1  2  0  0  0  0
  4  2  1  0  0  0  0
  4  3  1  0  0  0  0
  5  3  1  0  0  0  0
  6 39  1  0  0  0  0
  7  6  2  0  0  0  0
  9  8  2  0  0  0  0
 10  9  1  0  0  0  0
 11 10  2  0  0  0  0
 11 13  1  0  0  0  0
 12  8  1  0  0  0  0
 13 12  2  0  0  0  0
 14 18  1  0  0  0  0
 15 19  1  0  0  0  0
 16 17  1  0  0  0  0
 16 15  2  0  0  0  0
 17 21  2  0  0  0  0
 18 23  2  0  0  0  0
 18 10  1  0  0  0  0
 19 20  1  0  0  0  0
 19 14  2  0  0  0  0
 20 22  2  0  0  0  0
 21 20  1  0  0  0  0
 22 23  1  0  0  0  0
 24 25  1  0  0  0  0
 24 17  1  0  0  0  0
 25 26  1  0  0  0  0
 28 27  1  6  0  0  0
 28 29  1  0  0  0  0
 28  4  1  0  0  0  0
 30 31  1  0  0  0  0
 30 29  1  0  0  0  0
 32 31  1  0  0  0  0
 33 34  1  6  0  0  0
 33 32  1  0  0  0  0
 35 37  1  0  0  0  0
 35 33  1  0  0  0  0
 37 36  2  0  0  0  0
 38 37  1  0  0  0  0
 39 40  1  0  0  0  0
 41 40  1  0  0  0  0
 42 41  1  0  0  0  0
 43 42  1  0  0  0  0
 45 44  1  6  0  0  0
 45 43  1  0  0  0  0
 46 45  1  0  0  0  0
 47 46  1  0  0  0  0
M  END
>  <MODEL>
3

>  <REMARK>
 VINA RESULT:      -6.5      3.436      9.035
  Name = 
  19 active torsions:
  status: ('A' for Active; 'I' for Inactive)
    1  A    between atoms: C_1  and  C_8
    2  A    between atoms: C_1  and  C_39
    3  A    between atoms: C_4  and  C_30
    4  A    between atoms: O_5  and  C_35
    5  A    between atoms: O_5  and  C_41
    6  A    between atoms: C_6  and  N_47
    7  A    between atoms: C_8  and  O_25
    8  A    between atoms: C_9  and  O_21
    9  A    between atoms: C_9  and  C_24
   10  A    between atoms: C_11  and  C_32
   11  A    between atoms: C_15  and  C_18
   12  A    between atoms: C_17  and  N_47
   13  A    between atoms: O_21  and  C_30
   14  A    between atoms: C_22  and  C_24
   15  A    between atoms: C_22  and  C_31
   16  A    between atoms: O_25  and  C_34
   17  A    between atoms: N_28  and  C_41
   18  A    between atoms: C_31  and  C_38
   19  A    between atoms: C_35  and  C_39
                            x       y       z     vdW  Elec       q    Type
                         _______ _______ _______ _____ _____    ______ ____

>  <TORSDO>
F 19

$$$$
=
 OpenBabel10222415253D

 47 50  0  0  1  0  0  0  0  0999 V2000
  181.0430  177.9700  138.1830 C   0  0  0  0  0  3  0  0  0  0  0  0
  183.0700  179.3930  139.6430 C   0  0  2  0  0  3  0  0  0  0  0  0
  181.3400  177.5660  139.4170 C   0  0  0  0  0  0  0  0  0  0  0  0
  182.2030  178.3680  140.2520 N   0  0  0  0  0  0  0  0  0  0  0  0
  180.7340  176.3020  139.9250 C   0  0  0  0  0  1  0  0  0  0  0  0
  181.5820  179.2400  137.6620 C   0  0  0  0  0  0  0  0  0  0  0  0
  182.4820  179.9330  138.3640 C   0  0  0  0  0  3  0  0  0  0  0  0
  184.7420  178.2610  138.1730 C   0  0  0  0  0  3  0  0  0  0  0  0
  186.0300  177.7900  137.9090 C   0  0  0  0  0  3  0  0  0  0  0  0
  187.0440  177.9000  138.8760 C   0  0  0  0  0  0  0  0  0  0  0  0
  186.7420  178.4890  140.1160 C   0  0  0  0  0  3  0  0  0  0  0  0
  184.4440  178.8480  139.4070 C   0  0  0  0  0  0  0  0  0  0  0  0
  185.4530  178.9650  140.3770 C   0  0  0  0  0  3  0  0  0  0  0  0
  189.4800  177.6860  139.4310 C   0  0  0  0  0  3  0  0  0  0  0  0
  191.8350  177.4380  139.9570 C   0  0  0  0  0  3  0  0  0  0  0  0
  193.0950  176.9210  139.6260 C   0  0  0  0  0  3  0  0  0  0  0  0
  193.2680  176.1410  138.4730 C   0  0  0  0  0  0  0  0  0  0  0  0
  188.4020  177.3960  138.5840 C   0  0  0  0  0  0  0  0  0  0  0  0
  190.7380  177.1720  139.1310 C   0  0  0  0  0  0  0  0  0  0  0  0
  190.9010  176.3750  137.9800 C   0  0  0  0  0  0  0  0  0  0  0  0
  192.1630  175.8660  137.6500 C   0  0  0  0  0  3  0  0  0  0  0  0
  189.8240  176.1150  137.1890 N   0  0  0  0  0  0  0  0  0  0  0  0
  188.6160  176.6060  137.4880 N   0  0  0  0  0  0  0  0  0  0  0  0
  194.5780  175.6550  138.1520 N   0  0  0  0  0  2  0  0  0  0  0  0
  194.8750  174.2550  137.8780 C   0  0  0  0  0  2  0  0  0  0  0  0
  195.5120  174.1200  136.5080 C   0  0  0  0  0  1  0  0  0  0  0  0
  181.3770  179.2460  142.3870 C   0  0  0  0  0  1  0  0  0  0  0  0
  182.2050  178.1690  141.7060 C   0  0  2  0  0  3  0  0  0  0  0  0
  183.5080  178.1870  142.2100 O   0  0  0  0  0  0  0  0  0  0  0  0
  183.4130  178.7870  143.4660 C   0  0  0  0  0  2  0  0  0  0  0  0
  184.8070  178.9880  144.0270 C   0  0  0  0  0  2  0  0  0  0  0  0
  184.7860  178.8690  145.5360 C   0  0  0  0  0  2  0  0  0  0  0  0
  186.0010  178.0860  146.0110 C   0  0  2  0  0  3  0  0  0  0  0  0
  186.4160  178.5550  147.4050 C   0  0  0  0  0  1  0  0  0  0  0  0
  187.0790  178.2760  145.1020 O   0  0  0  0  0  0  0  0  0  0  0  0
  188.8960  176.9020  145.5280 O   0  0  0  0  0  0  0  0  0  0  0  0
  187.9590  177.2480  144.7530 C   0  0  0  0  0  0  0  0  0  0  0  0
  187.7880  176.5320  143.4580 C   0  0  0  0  0  1  0  0  0  0  0  0
  181.0370  179.8230  136.3950 C   0  0  0  0  0  2  0  0  0  0  0  0
  179.5150  179.8950  136.4380 C   0  0  0  0  0  2  0  0  0  0  0  0
  179.0540  181.3000  136.7930 C   0  0  0  0  0  2  0  0  0  0  0  0
  179.1540  182.2010  135.5760 C   0  0  0  0  0  2  0  0  0  0  0  0
  180.0460  183.2520  135.8260 O   0  0  0  0  0  0  0  0  0  0  0  0
  178.9310  185.2170  135.5820 O   0  0  0  0  0  1  0  0  0  0  0  0
  179.2830  184.2170  136.4850 C   0  0  2  0  0  3  0  0  0  0  0  0
  180.1050  184.8220  137.6100 C   0  0  0  0  0  2  0  0  0  0  0  0
  179.2680  185.2600  138.6390 O   0  0  0  0  0  1  0  0  0  0  0  0
  1  3  2  0  0  0  0
  2 12  1  6  0  0  0
  2  4  1  0  0  0  0
  3  5  1  0  0  0  0
  3  4  1  0  0  0  0
  4 28  1  0  0  0  0
  6  1  1  0  0  0  0
  6  7  2  0  0  0  0
  7  2  1  0  0  0  0
  8 12  1  0  0  0  0
  9  8  2  0  0  0  0
  9 10  1  0  0  0  0
 10 11  2  0  0  0  0
 11 13  1  0  0  0  0
 12 13  2  0  0  0  0
 16 15  1  0  0  0  0
 17 16  2  0  0  0  0
 18 10  1  0  0  0  0
 18 14  2  0  0  0  0
 19 14  1  0  0  0  0
 19 15  2  0  0  0  0
 20 19  1  0  0  0  0
 21 20  2  0  0  0  0
 21 17  1  0  0  0  0
 22 23  2  0  0  0  0
 22 20  1  0  0  0  0
 23 18  1  0  0  0  0
 24 17  1  0  0  0  0
 25 24  1  0  0  0  0
 26 25  1  0  0  0  0
 28 29  1  0  0  0  0
 28 27  1  1  0  0  0
 29 30  1  0  0  0  0
 30 31  1  0  0  0  0
 31 32  1  0  0  0  0
 32 33  1  0  0  0  0
 33 34  1  1  0  0  0
 35 33  1  0  0  0  0
 37 35  1  0  0  0  0
 37 36  2  0  0  0  0
 38 37  1  0  0  0  0
 39 40  1  0  0  0  0
 39  6  1  0  0  0  0
 40 41  1  0  0  0  0
 42 43  1  0  0  0  0
 42 41  1  0  0  0  0
 43 45  1  0  0  0  0
 45 44  1  6  0  0  0
 45 46  1  0  0  0  0
 46 47  1  0  0  0  0
M  END
>  <MODEL>
4

>  <REMARK>
 VINA RESULT:      -6.1      4.028     10.936
  Name = 
  19 active torsions:
  status: ('A' for Active; 'I' for Inactive)
    1  A    between atoms: C_1  and  C_8
    2  A    between atoms: C_1  and  C_39
    3  A    between atoms: C_4  and  C_30
    4  A    between atoms: O_5  and  C_35
    5  A    between atoms: O_5  and  C_41
    6  A    between atoms: C_6  and  N_47
    7  A    between atoms: C_8  and  O_25
    8  A    between atoms: C_9  and  O_21
    9  A    between atoms: C_9  and  C_24
   10  A    between atoms: C_11  and  C_32
   11  A    between atoms: C_15  and  C_18
   12  A    between atoms: C_17  and  N_47
   13  A    between atoms: O_21  and  C_30
   14  A    between atoms: C_22  and  C_24
   15  A    between atoms: C_22  and  C_31
   16  A    between atoms: O_25  and  C_34
   17  A    between atoms: N_28  and  C_41
   18  A    between atoms: C_31  and  C_38
   19  A    between atoms: C_35  and  C_39
                            x       y       z     vdW  Elec       q    Type
                         _______ _______ _______ _____ _____    ______ ____

>  <TORSDO>
F 19

$$$$
=
 OpenBabel10222415253D

 47 50  0  0  1  0  0  0  0  0999 V2000
  181.3890  178.1480  138.5880 C   0  0  0  0  0  3  0  0  0  0  0  0
  183.8410  179.3160  139.5300 C   0  0  2  0  0  3  0  0  0  0  0  0
  181.9280  177.6760  139.7110 C   0  0  0  0  0  0  0  0  0  0  0  0
  183.0440  178.3610  140.3200 N   0  0  0  0  0  0  0  0  0  0  0  0
  181.3340  176.4610  140.3390 C   0  0  0  0  0  1  0  0  0  0  0  0
  181.9150  179.3750  137.9640 C   0  0  0  0  0  0  0  0  0  0  0  0
  183.0230  179.9530  138.4350 C   0  0  0  0  0  3  0  0  0  0  0  0
  186.2770  178.7690  139.6360 C   0  0  0  0  0  3  0  0  0  0  0  0
  187.4130  178.1130  139.1570 C   0  0  0  0  0  3  0  0  0  0  0  0
  187.3470  177.3220  137.9990 C   0  0  0  0  0  0  0  0  0  0  0  0
  186.1200  177.2000  137.3250 C   0  0  0  0  0  3  0  0  0  0  0  0
  185.0560  178.6460  138.9640 C   0  0  0  0  0  0  0  0  0  0  0  0
  184.9810  177.8530  137.8080 C   0  0  0  0  0  3  0  0  0  0  0  0
  189.7950  176.7940  138.1400 C   0  0  0  0  0  3  0  0  0  0  0  0
  192.1540  176.2420  138.2670 C   0  0  0  0  0  3  0  0  0  0  0  0
  193.2600  175.5530  137.7500 C   0  0  0  0  0  3  0  0  0  0  0  0
  193.1260  174.7330  136.6210 C   0  0  0  0  0  0  0  0  0  0  0  0
  188.5580  176.6340  137.5030 C   0  0  0  0  0  0  0  0  0  0  0  0
  190.9050  176.1090  137.6540 C   0  0  0  0  0  0  0  0  0  0  0  0
  190.7590  175.2720  136.5280 C   0  0  0  0  0  0  0  0  0  0  0  0
  191.8680  174.5910  136.0120 C   0  0  0  0  0  3  0  0  0  0  0  0
  189.5360  175.1420  135.9450 N   0  0  0  0  0  0  0  0  0  0  0  0
  188.4730  175.7980  136.4230 N   0  0  0  0  0  0  0  0  0  0  0  0
  194.2860  174.0680  136.1040 N   0  0  0  0  0  2  0  0  0  0  0  0
  194.6820  172.7180  136.4870 C   0  0  0  0  0  2  0  0  0  0  0  0
  195.4400  172.7550  137.8000 C   0  0  0  0  0  1  0  0  0  0  0  0
  182.3570  178.7910  142.6340 C   0  0  0  0  0  1  0  0  0  0  0  0
  183.3730  178.1130  141.7290 C   0  0  2  0  0  3  0  0  0  0  0  0
  184.6560  178.5780  142.0300 O   0  0  0  0  0  0  0  0  0  0  0  0
  184.9880  177.9890  143.2510 C   0  0  0  0  0  2  0  0  0  0  0  0
  186.4800  178.1240  143.4780 C   0  0  0  0  0  2  0  0  0  0  0  0
  186.8570  177.5650  144.8330 C   0  0  0  0  0  2  0  0  0  0  0  0
  188.2190  176.8900  144.7560 C   0  0  2  0  0  3  0  0  0  0  0  0
  189.3300  177.9360  144.8450 C   0  0  0  0  0  1  0  0  0  0  0  0
  188.3310  176.1780  143.5290 O   0  0  0  0  0  0  0  0  0  0  0  0
  190.3500  175.2430  142.8820 O   0  0  0  0  0  0  0  0  0  0  0  0
  189.5020  176.1730  142.7660 C   0  0  0  0  0  0  0  0  0  0  0  0
  189.7560  177.2680  141.7880 C   0  0  0  0  0  1  0  0  0  0  0  0
  181.1470  180.0500  136.8710 C   0  0  0  0  0  2  0  0  0  0  0  0
  179.6780  180.2010  137.2500 C   0  0  0  0  0  2  0  0  0  0  0  0
  179.2780  181.6670  137.2780 C   0  0  0  0  0  2  0  0  0  0  0  0
  180.1920  182.4360  138.2150 C   0  0  0  0  0  2  0  0  0  0  0  0
  180.2400  183.7850  137.8420 O   0  0  0  0  0  0  0  0  0  0  0  0
  182.3290  184.6440  137.5930 O   0  0  0  0  0  1  0  0  0  0  0  0
  181.3370  183.8790  136.9840 C   0  0  2  0  0  3  0  0  0  0  0  0
  180.9060  184.5510  135.6920 C   0  0  0  0  0  2  0  0  0  0  0  0
  180.7610  183.6010  134.6790 O   0  0  0  0  0  1  0  0  0  0  0  0
  1  3  2  0  0  0  0
  2 12  1  6  0  0  0
  2  4  1  0  0  0  0
  3  4  1  0  0  0  0
  3  5  1  0  0  0  0
  4 28  1  0  0  0  0
  6  7  2  0  0  0  0
  6  1  1  0  0  0  0
  7  2  1  0  0  0  0
  9  8  1  0  0  0  0
 10  9  2  0  0  0  0
 11 13  2  0  0  0  0
 11 10  1  0  0  0  0
 12  8  2  0  0  0  0
 13 12  1  0  0  0  0
 16 15  1  0  0  0  0
 17 16  2  0  0  0  0
 18 10  1  0  0  0  0
 18 14  2  0  0  0  0
 19 14  1  0  0  0  0
 19 15  2  0  0  0  0
 20 19  1  0  0  0  0
 21 20  2  0  0  0  0
 21 17  1  0  0  0  0
 22 23  2  0  0  0  0
 22 20  1  0  0  0  0
 23 18  1  0  0  0  0
 24 25  1  0  0  0  0
 24 17  1  0  0  0  0
 25 26  1  0  0  0  0
 28 29  1  0  0  0  0
 28 27  1  1  0  0  0
 29 30  1  0  0  0  0
 30 31  1  0  0  0  0
 31 32  1  0  0  0  0
 33 32  1  0  0  0  0
 33 34  1  6  0  0  0
 35 33  1  0  0  0  0
 37 36  2  0  0  0  0
 37 35  1  0  0  0  0
 38 37  1  0  0  0  0
 39 40  1  0  0  0  0
 39  6  1  0  0  0  0
 40 41  1  0  0  0  0
 41 42  1  0  0  0  0
 43 42  1  0  0  0  0
 45 44  1  1  0  0  0
 45 43  1  0  0  0  0
 46 45  1  0  0  0  0
 47 46  1  0  0  0  0
M  END
>  <MODEL>
5

>  <REMARK>
 VINA RESULT:      -6.0      3.462     10.831
  Name = 
  19 active torsions:
  status: ('A' for Active; 'I' for Inactive)
    1  A    between atoms: C_1  and  C_8
    2  A    between atoms: C_1  and  C_39
    3  A    between atoms: C_4  and  C_30
    4  A    between atoms: O_5  and  C_35
    5  A    between atoms: O_5  and  C_41
    6  A    between atoms: C_6  and  N_47
    7  A    between atoms: C_8  and  O_25
    8  A    between atoms: C_9  and  O_21
    9  A    between atoms: C_9  and  C_24
   10  A    between atoms: C_11  and  C_32
   11  A    between atoms: C_15  and  C_18
   12  A    between atoms: C_17  and  N_47
   13  A    between atoms: O_21  and  C_30
   14  A    between atoms: C_22  and  C_24
   15  A    between atoms: C_22  and  C_31
   16  A    between atoms: O_25  and  C_34
   17  A    between atoms: N_28  and  C_41
   18  A    between atoms: C_31  and  C_38
   19  A    between atoms: C_35  and  C_39
                            x       y       z     vdW  Elec       q    Type
                         _______ _______ _______ _____ _____    ______ ____

>  <TORSDO>
F 19

$$$$
=
 OpenBabel10222415253D

 47 50  0  0  1  0  0  0  0  0999 V2000
  181.1590  177.8760  138.1650 C   0  0  0  0  0  3  0  0  0  0  0  0
  183.1040  179.4130  139.6210 C   0  0  2  0  0  3  0  0  0  0  0  0
  181.4740  177.4950  139.4020 C   0  0  0  0  0  0  0  0  0  0  0  0
  182.2920  178.3460  140.2340 N   0  0  0  0  0  0  0  0  0  0  0  0
  180.9350  176.2030  139.9160 C   0  0  0  0  0  1  0  0  0  0  0  0
  181.6300  179.1700  137.6380 C   0  0  0  0  0  0  0  0  0  0  0  0
  182.4900  179.9140  138.3380 C   0  0  0  0  0  3  0  0  0  0  0  0
  185.4480  179.0730  140.4170 C   0  0  0  0  0  3  0  0  0  0  0  0
  186.7480  178.5940  140.2450 C   0  0  0  0  0  3  0  0  0  0  0  0
  187.1290  177.9730  139.0440 C   0  0  0  0  0  0  0  0  0  0  0  0
  186.1810  177.8410  138.0140 C   0  0  0  0  0  3  0  0  0  0  0  0
  184.5060  178.9400  139.3900 C   0  0  0  0  0  0  0  0  0  0  0  0
  184.8780  178.3170  138.1880 C   0  0  0  0  0  3  0  0  0  0  0  0
  188.8020  176.4470  137.9660 C   0  0  0  0  0  3  0  0  0  0  0  0
  190.4480  175.0030  136.9200 C   0  0  0  0  0  3  0  0  0  0  0  0
  191.7790  174.5820  136.8030 C   0  0  0  0  0  3  0  0  0  0  0  0
  192.7860  175.1690  137.5830 C   0  0  0  0  0  0  0  0  0  0  0  0
  188.5090  177.4710  138.8750 C   0  0  0  0  0  0  0  0  0  0  0  0
  190.1190  176.0210  137.8210 C   0  0  0  0  0  0  0  0  0  0  0  0
  191.1290  176.6280  138.5960 C   0  0  0  0  0  0  0  0  0  0  0  0
  192.4570  176.1990  138.4790 C   0  0  0  0  0  3  0  0  0  0  0  0
  190.7980  177.6240  139.4620 N   0  0  0  0  0  0  0  0  0  0  0  0
  189.5310  178.0330  139.5900 N   0  0  0  0  0  0  0  0  0  0  0  0
  194.1320  174.6910  137.4560 N   0  0  0  0  0  2  0  0  0  0  0  0
  194.5780  173.3950  137.9500 C   0  0  0  0  0  2  0  0  0  0  0  0
  196.0740  173.4210  138.1940 C   0  0  0  0  0  1  0  0  0  0  0  0
  181.4270  179.1990  142.3640 C   0  0  0  0  0  1  0  0  0  0  0  0
  182.3010  178.1550  141.6890 C   0  0  2  0  0  3  0  0  0  0  0  0
  183.6020  178.2330  142.1930 O   0  0  0  0  0  0  0  0  0  0  0  0
  183.4620  178.6290  143.5240 C   0  0  0  0  0  2  0  0  0  0  0  0
  184.8080  179.0880  144.0490 C   0  0  0  0  0  2  0  0  0  0  0  0
  185.2760  178.1740  145.1620 C   0  0  0  0  0  2  0  0  0  0  0  0
  186.7960  178.0910  145.1610 C   0  0  2  0  0  3  0  0  0  0  0  0
  187.2720  177.2070  144.0080 C   0  0  0  0  0  1  0  0  0  0  0  0
  187.2460  177.5480  146.3970 O   0  0  0  0  0  0  0  0  0  0  0  0
  186.5120  179.3010  147.7230 O   0  0  0  0  0  0  0  0  0  0  0  0
  187.2520  178.2860  147.5830 C   0  0  0  0  0  0  0  0  0  0  0  0
  188.1300  177.8680  148.7130 C   0  0  0  0  0  1  0  0  0  0  0  0
  181.0570  179.7160  136.3680 C   0  0  0  0  0  2  0  0  0  0  0  0
  179.5620  179.9770  136.5100 C   0  0  0  0  0  2  0  0  0  0  0  0
  179.3060  181.1160  137.4840 C   0  0  0  0  0  2  0  0  0  0  0  0
  179.6450  182.4430  136.8290 C   0  0  0  0  0  2  0  0  0  0  0  0
  180.7560  183.0210  137.4560 O   0  0  0  0  0  0  0  0  0  0  0  0
  181.9230  184.9700  137.4460 O   0  0  0  0  0  1  0  0  0  0  0  0
  180.7310  184.3600  137.0630 C   0  0  2  0  0  3  0  0  0  0  0  0
  179.5670  185.0590  137.7430 C   0  0  0  0  0  2  0  0  0  0  0  0
  180.0040  186.2340  138.3610 O   0  0  0  0  0  1  0  0  0  0  0  0
  1  3  2  0  0  0  0
  2 12  1  6  0  0  0
  2  4  1  0  0  0  0
  3  5  1  0  0  0  0
  3  4  1  0  0  0  0
  4 28  1  0  0  0  0
  6  1  1  0  0  0  0
  6  7  2  0  0  0  0
  7  2  1  0  0  0  0
  9  8  1  0  0  0  0
 10  9  2  0  0  0  0
 11 13  2  0  0  0  0
 11 10  1  0  0  0  0
 12  8  2  0  0  0  0
 13 12  1  0  0  0  0
 14 18  1  0  0  0  0
 15 19  1  0  0  0  0
 16 15  2  0  0  0  0
 16 17  1  0  0  0  0
 17 21  2  0  0  0  0
 18 10  1  0  0  0  0
 18 23  2  0  0  0  0
 19 14  2  0  0  0  0
 19 20  1  0  0  0  0
 20 22  2  0  0  0  0
 21 20  1  0  0  0  0
 22 23  1  0  0  0  0
 24 17  1  0  0  0  0
 24 25  1  0  0  0  0
 25 26  1  0  0  0  0
 28 29  1  0  0  0  0
 28 27  1  1  0  0  0
 29 30  1  0  0  0  0
 30 31  1  0  0  0  0
 31 32  1  0  0  0  0
 33 34  1  6  0  0  0
 33 32  1  0  0  0  0
 33 35  1  0  0  0  0
 35 37  1  0  0  0  0
 37 36  2  0  0  0  0
 37 38  1  0  0  0  0
 39 40  1  0  0  0  0
 39  6  1  0  0  0  0
 40 41  1  0  0  0  0
 42 43  1  0  0  0  0
 42 41  1  0  0  0  0
 45 44  1  1  0  0  0
 45 43  1  0  0  0  0
 45 46  1  0  0  0  0
 46 47  1  0  0  0  0
M  END
>  <MODEL>
6

>  <REMARK>
 VINA RESULT:      -6.0      4.127     10.853
  Name = 
  19 active torsions:
  status: ('A' for Active; 'I' for Inactive)
    1  A    between atoms: C_1  and  C_8
    2  A    between atoms: C_1  and  C_39
    3  A    between atoms: C_4  and  C_30
    4  A    between atoms: O_5  and  C_35
    5  A    between atoms: O_5  and  C_41
    6  A    between atoms: C_6  and  N_47
    7  A    between atoms: C_8  and  O_25
    8  A    between atoms: C_9  and  O_21
    9  A    between atoms: C_9  and  C_24
   10  A    between atoms: C_11  and  C_32
   11  A    between atoms: C_15  and  C_18
   12  A    between atoms: C_17  and  N_47
   13  A    between atoms: O_21  and  C_30
   14  A    between atoms: C_22  and  C_24
   15  A    between atoms: C_22  and  C_31
   16  A    between atoms: O_25  and  C_34
   17  A    between atoms: N_28  and  C_41
   18  A    between atoms: C_31  and  C_38
   19  A    between atoms: C_35  and  C_39
                            x       y       z     vdW  Elec       q    Type
                         _______ _______ _______ _____ _____    ______ ____

>  <TORSDO>
F 19

$$$$
=
 OpenBabel10222415253D

 47 50  0  0  1  0  0  0  0  0999 V2000
  190.8950  175.9100  145.3730 C   0  0  0  0  0  3  0  0  0  0  0  0
  190.4800  178.0980  143.5550 C   0  0  2  0  0  3  0  0  0  0  0  0
  191.0470  175.6900  144.0680 C   0  0  0  0  0  0  0  0  0  0  0  0
  191.0420  176.7990  143.1430 N   0  0  0  0  0  0  0  0  0  0  0  0
  191.2600  174.2920  143.5940 C   0  0  0  0  0  1  0  0  0  0  0  0
  190.7320  177.2830  145.8860 C   0  0  0  0  0  0  0  0  0  0  0  0
  190.5960  178.3090  145.0430 C   0  0  0  0  0  3  0  0  0  0  0  0
  188.7630  178.9370  141.9460 C   0  0  0  0  0  3  0  0  0  0  0  0
  187.4480  179.0230  141.4820 C   0  0  0  0  0  3  0  0  0  0  0  0
  186.4030  178.3900  142.1760 C   0  0  0  0  0  0  0  0  0  0  0  0
  186.6980  177.6700  143.3460 C   0  0  0  0  0  3  0  0  0  0  0  0
  189.0550  178.2190  143.1110 C   0  0  0  0  0  0  0  0  0  0  0  0
  188.0160  177.5810  143.8070 C   0  0  0  0  0  3  0  0  0  0  0  0
  184.7470  178.6220  140.3060 C   0  0  0  0  0  3  0  0  0  0  0  0
  183.1210  178.8170  138.5160 C   0  0  0  0  0  3  0  0  0  0  0  0
  181.7820  178.8960  138.1090 C   0  0  0  0  0  3  0  0  0  0  0  0
  180.7440  178.8520  139.0510 C   0  0  0  0  0  0  0  0  0  0  0  0
  185.0160  178.4900  141.6750 C   0  0  0  0  0  0  0  0  0  0  0  0
  183.4250  178.6890  139.8750 C   0  0  0  0  0  0  0  0  0  0  0  0
  182.3870  178.6260  140.8270 C   0  0  0  0  0  0  0  0  0  0  0  0
  181.0510  178.7120  140.4150 C   0  0  0  0  0  3  0  0  0  0  0  0
  182.6950  178.4920  142.1460 N   0  0  0  0  0  0  0  0  0  0  0  0
  183.9680  178.4200  142.5520 N   0  0  0  0  0  0  0  0  0  0  0  0
  179.3890  178.9660  138.5980 N   0  0  0  0  0  2  0  0  0  0  0  0
  178.9480  179.9390  137.6070 C   0  0  0  0  0  2  0  0  0  0  0  0
  179.2990  181.3410  138.0660 C   0  0  0  0  0  1  0  0  0  0  0  0
  192.3980  177.8700  141.4040 C   0  0  0  0  0  1  0  0  0  0  0  0
  191.6100  176.6320  141.8000 C   0  0  2  0  0  3  0  0  0  0  0  0
  190.6030  176.3940  140.8600 O   0  0  0  0  0  0  0  0  0  0  0  0
  190.9720  177.1200  139.7270 C   0  0  0  0  0  2  0  0  0  0  0  0
  190.0830  176.7160  138.5680 C   0  0  0  0  0  2  0  0  0  0  0  0
  188.8380  177.5780  138.5380 C   0  0  0  0  0  2  0  0  0  0  0  0
  188.0790  177.3480  137.2390 C   0  0  2  0  0  3  0  0  0  0  0  0
  187.4920  178.6650  136.7330 C   0  0  0  0  0  1  0  0  0  0  0  0
  187.0310  176.4100  137.4570 O   0  0  0  0  0  0  0  0  0  0  0  0
  186.6940  174.1340  137.1760 O   0  0  0  0  0  0  0  0  0  0  0  0
  186.8600  175.2760  136.6590 C   0  0  0  0  0  0  0  0  0  0  0  0
  186.8550  175.4060  135.1740 C   0  0  0  0  0  1  0  0  0  0  0  0
  190.8360  177.5510  147.3550 C   0  0  0  0  0  2  0  0  0  0  0  0
  189.6940  178.4430  147.8290 C   0  0  0  0  0  2  0  0  0  0  0  0
  188.6410  177.6250  148.5580 C   0  0  0  0  0  2  0  0  0  0  0  0
  187.2600  178.1910  148.2790 C   0  0  0  0  0  2  0  0  0  0  0  0
  186.9120  177.9740  146.9400 O   0  0  0  0  0  0  0  0  0  0  0  0
  185.9220  179.8760  147.6900 O   0  0  0  0  0  1  0  0  0  0  0  0
  185.9370  178.9340  146.6650 C   0  0  2  0  0  3  0  0  0  0  0  0
  184.5790  178.2590  146.5820 C   0  0  0  0  0  2  0  0  0  0  0  0
  183.7340  178.9750  145.7310 O   0  0  0  0  0  1  0  0  0  0  0  0
  1  6  1  0  0  0  0
  2 12  1  1  0  0  0
  2  7  1  0  0  0  0
  3  1  2  0  0  0  0
  4  2  1  0  0  0  0
  4  3  1  0  0  0  0
  5  3  1  0  0  0  0
  6 39  1  0  0  0  0
  7  6  2  0  0  0  0
  8 12  1  0  0  0  0
  9  8  2  0  0  0  0
  9 10  1  0  0  0  0
 10 11  2  0  0  0  0
 11 13  1  0  0  0  0
 12 13  2  0  0  0  0
 14 18  1  0  0  0  0
 15 19  1  0  0  0  0
 16 15  2  0  0  0  0
 16 17  1  0  0  0  0
 17 21  2  0  0  0  0
 18 10  1  0  0  0  0
 18 23  2  0  0  0  0
 19 14  2  0  0  0  0
 19 20  1  0  0  0  0
 20 22  2  0  0  0  0
 21 20  1  0  0  0  0
 22 23  1  0  0  0  0
 24 17  1  0  0  0  0
 25 26  1  0  0  0  0
 25 24  1  0  0  0  0
 28 27  1  6  0  0  0
 28  4  1  0  0  0  0
 29 28  1  0  0  0  0
 30 29  1  0  0  0  0
 31 30  1  0  0  0  0
 32 31  1  0  0  0  0
 33 34  1  1  0  0  0
 33 35  1  0  0  0  0
 33 32  1  0  0  0  0
 37 36  2  0  0  0  0
 37 35  1  0  0  0  0
 38 37  1  0  0  0  0
 39 40  1  0  0  0  0
 40 41  1  0  0  0  0
 42 41  1  0  0  0  0
 43 42  1  0  0  0  0
 45 43  1  0  0  0  0
 45 44  1  1  0  0  0
 46 45  1  0  0  0  0
 47 46  1  0  0  0  0
M  END
>  <MODEL>
7

>  <REMARK>
 VINA RESULT:      -5.8      3.664      9.509
  Name = 
  19 active torsions:
  status: ('A' for Active; 'I' for Inactive)
    1  A    between atoms: C_1  and  C_8
    2  A    between atoms: C_1  and  C_39
    3  A    between atoms: C_4  and  C_30
    4  A    between atoms: O_5  and  C_35
    5  A    between atoms: O_5  and  C_41
    6  A    between atoms: C_6  and  N_47
    7  A    between atoms: C_8  and  O_25
    8  A    between atoms: C_9  and  O_21
    9  A    between atoms: C_9  and  C_24
   10  A    between atoms: C_11  and  C_32
   11  A    between atoms: C_15  and  C_18
   12  A    between atoms: C_17  and  N_47
   13  A    between atoms: O_21  and  C_30
   14  A    between atoms: C_22  and  C_24
   15  A    between atoms: C_22  and  C_31
   16  A    between atoms: O_25  and  C_34
   17  A    between atoms: N_28  and  C_41
   18  A    between atoms: C_31  and  C_38
   19  A    between atoms: C_35  and  C_39
                            x       y       z     vdW  Elec       q    Type
                         _______ _______ _______ _____ _____    ______ ____

>  <TORSDO>
F 19

$$$$
=
 OpenBabel10222415253D

 47 50  0  0  1  0  0  0  0  0999 V2000
  185.8230  179.6020  146.1070 C   0  0  0  0  0  3  0  0  0  0  0  0
  185.7360  177.4040  144.2550 C   0  0  2  0  0  3  0  0  0  0  0  0
  185.2170  179.7820  144.9350 C   0  0  0  0  0  0  0  0  0  0  0  0
  184.9800  178.6550  144.0640 N   0  0  0  0  0  0  0  0  0  0  0  0
  184.7590  181.1510  144.5640 C   0  0  0  0  0  1  0  0  0  0  0  0
  186.2460  178.2540  146.5310 C   0  0  0  0  0  0  0  0  0  0  0  0
  186.1540  177.2200  145.6920 C   0  0  0  0  0  3  0  0  0  0  0  0
  187.9300  176.4180  143.5780 C   0  0  0  0  0  3  0  0  0  0  0  0
  189.0250  176.3270  142.7160 C   0  0  0  0  0  3  0  0  0  0  0  0
  189.1350  177.1820  141.6070 C   0  0  0  0  0  0  0  0  0  0  0  0
  188.1260  178.1330  141.3770 C   0  0  0  0  0  3  0  0  0  0  0  0
  186.9260  177.3650  143.3470 C   0  0  0  0  0  0  0  0  0  0  0  0
  187.0270  178.2200  142.2370 C   0  0  0  0  0  3  0  0  0  0  0  0
  190.1630  176.5800  139.4000 C   0  0  0  0  0  3  0  0  0  0  0  0
  191.1820  176.0330  137.2670 C   0  0  0  0  0  3  0  0  0  0  0  0
  192.3260  175.9690  136.4600 C   0  0  0  0  0  3  0  0  0  0  0  0
  193.5720  176.3840  136.9520 C   0  0  0  0  0  0  0  0  0  0  0  0
  190.3000  177.0760  140.7030 C   0  0  0  0  0  0  0  0  0  0  0  0
  191.2830  176.5190  138.5750 C   0  0  0  0  0  0  0  0  0  0  0  0
  192.5290  176.9540  139.0700 C   0  0  0  0  0  0  0  0  0  0  0  0
  193.6700  176.8820  138.2620 C   0  0  0  0  0  3  0  0  0  0  0  0
  192.6120  177.4340  140.3410 N   0  0  0  0  0  0  0  0  0  0  0  0
  191.5310  177.4970  141.1260 N   0  0  0  0  0  0  0  0  0  0  0  0
  194.7250  176.2750  136.1060 N   0  0  0  0  0  2  0  0  0  0  0  0
  195.5380  175.0700  136.0010 C   0  0  0  0  0  2  0  0  0  0  0  0
  196.9700  175.4400  135.6660 C   0  0  0  0  0  1  0  0  0  0  0  0
  182.5790  178.8290  143.5950 C   0  0  0  0  0  1  0  0  0  0  0  0
  183.9750  178.7530  142.9980 C   0  0  2  0  0  3  0  0  0  0  0  0
  184.0580  177.6600  142.1320 O   0  0  0  0  0  0  0  0  0  0  0  0
  182.9200  177.7340  141.3290 C   0  0  0  0  0  2  0  0  0  0  0  0
  183.2560  177.2200  139.9430 C   0  0  0  0  0  2  0  0  0  0  0  0
  182.3030  177.8030  138.9210 C   0  0  0  0  0  2  0  0  0  0  0  0
  182.8960  179.0710  138.3230 C   0  0  2  0  0  3  0  0  0  0  0  0
  184.3670  179.1980  138.7150 C   0  0  0  0  0  1  0  0  0  0  0  0
  182.1760  180.2040  138.7930 O   0  0  0  0  0  0  0  0  0  0  0  0
  180.4640  180.3660  137.2390 O   0  0  0  0  0  0  0  0  0  0  0  0
  181.3160  180.9420  137.9750 C   0  0  0  0  0  0  0  0  0  0  0  0
  181.3860  182.4300  137.9740 C   0  0  0  0  0  1  0  0  0  0  0  0
  186.6720  178.0130  147.9460 C   0  0  0  0  0  2  0  0  0  0  0  0
  188.1280  178.4140  148.1540 C   0  0  0  0  0  2  0  0  0  0  0  0
  189.0550  177.2480  147.8500 C   0  0  0  0  0  2  0  0  0  0  0  0
  189.8840  177.5530  146.6160 C   0  0  0  0  0  2  0  0  0  0  0  0
  190.2870  176.3610  146.0000 O   0  0  0  0  0  0  0  0  0  0  0  0
  192.0560  176.0270  144.6130 O   0  0  0  0  0  1  0  0  0  0  0  0
  191.6720  176.4750  145.8750 C   0  0  2  0  0  3  0  0  0  0  0  0
  192.3410  175.6190  146.9370 C   0  0  0  0  0  2  0  0  0  0  0  0
  192.6060  176.3830  148.0770 O   0  0  0  0  0  1  0  0  0  0  0  0
  1  6  1  0  0  0  0
  2 12  1  6  0  0  0
  2  7  1  0  0  0  0
  3  1  2  0  0  0  0
  4  2  1  0  0  0  0
  4  3  1  0  0  0  0
  5  3  1  0  0  0  0
  6 39  1  0  0  0  0
  7  6  2  0  0  0  0
  9  8  2  0  0  0  0
 10  9  1  0  0  0  0
 11 10  2  0  0  0  0
 11 13  1  0  0  0  0
 12  8  1  0  0  0  0
 13 12  2  0  0  0  0
 14 18  1  0  0  0  0
 15 19  1  0  0  0  0
 16 17  1  0  0  0  0
 16 15  2  0  0  0  0
 17 21  2  0  0  0  0
 18 23  2  0  0  0  0
 18 10  1  0  0  0  0
 19 20  1  0  0  0  0
 19 14  2  0  0  0  0
 20 22  2  0  0  0  0
 21 20  1  0  0  0  0
 22 23  1  0  0  0  0
 24 17  1  0  0  0  0
 25 24  1  0  0  0  0
 26 25  1  0  0  0  0
 28 27  1  1  0  0  0
 28  4  1  0  0  0  0
 29 28  1  0  0  0  0
 30 29  1  0  0  0  0
 31 30  1  0  0  0  0
 32 31  1  0  0  0  0
 33 34  1  1  0  0  0
 33 35  1  0  0  0  0
 33 32  1  0  0  0  0
 36 37  2  0  0  0  0
 37 35  1  0  0  0  0
 38 37  1  0  0  0  0
 39 40  1  0  0  0  0
 41 40  1  0  0  0  0
 42 41  1  0  0  0  0
 43 42  1  0  0  0  0
 45 44  1  6  0  0  0
 45 43  1  0  0  0  0
 45 46  1  0  0  0  0
 46 47  1  0  0  0  0
M  END
>  <MODEL>
8

>  <REMARK>
 VINA RESULT:      -5.7      3.217      8.906
  Name = 
  19 active torsions:
  status: ('A' for Active; 'I' for Inactive)
    1  A    between atoms: C_1  and  C_8
    2  A    between atoms: C_1  and  C_39
    3  A    between atoms: C_4  and  C_30
    4  A    between atoms: O_5  and  C_35
    5  A    between atoms: O_5  and  C_41
    6  A    between atoms: C_6  and  N_47
    7  A    between atoms: C_8  and  O_25
    8  A    between atoms: C_9  and  O_21
    9  A    between atoms: C_9  and  C_24
   10  A    between atoms: C_11  and  C_32
   11  A    between atoms: C_15  and  C_18
   12  A    between atoms: C_17  and  N_47
   13  A    between atoms: O_21  and  C_30
   14  A    between atoms: C_22  and  C_24
   15  A    between atoms: C_22  and  C_31
   16  A    between atoms: O_25  and  C_34
   17  A    between atoms: N_28  and  C_41
   18  A    between atoms: C_31  and  C_38
   19  A    between atoms: C_35  and  C_39
                            x       y       z     vdW  Elec       q    Type
                         _______ _______ _______ _____ _____    ______ ____

>  <TORSDO>
F 19

$$$$
=
 OpenBabel10222415253D

 47 50  0  0  1  0  0  0  0  0999 V2000
  190.6280  174.2040  134.9220 C   0  0  0  0  0  3  0  0  0  0  0  0
  190.0110  176.8680  135.8080 C   0  0  2  0  0  3  0  0  0  0  0  0
  189.3490  174.5480  135.0580 C   0  0  0  0  0  0  0  0  0  0  0  0
  188.9950  175.9260  135.3080 N   0  0  0  0  0  0  0  0  0  0  0  0
  188.3010  173.4980  134.9080 C   0  0  0  0  0  1  0  0  0  0  0  0
  191.6910  175.2220  135.0140 C   0  0  0  0  0  0  0  0  0  0  0  0
  191.3990  176.4750  135.3700 C   0  0  0  0  0  3  0  0  0  0  0  0
  190.8410  176.2540  138.0830 C   0  0  0  0  0  3  0  0  0  0  0  0
  190.8250  176.3790  139.4750 C   0  0  0  0  0  3  0  0  0  0  0  0
  189.9060  177.2330  140.1060 C   0  0  0  0  0  0  0  0  0  0  0  0
  188.9980  177.9610  139.3170 C   0  0  0  0  0  3  0  0  0  0  0  0
  189.9370  176.9790  137.3000 C   0  0  0  0  0  0  0  0  0  0  0  0
  189.0170  177.8380  137.9240 C   0  0  0  0  0  3  0  0  0  0  0  0
  188.7070  177.2660  142.3080 C   0  0  0  0  0  3  0  0  0  0  0  0
  187.5790  177.2750  144.4560 C   0  0  0  0  0  3  0  0  0  0  0  0
  187.6460  177.3900  145.8520 C   0  0  0  0  0  3  0  0  0  0  0  0
  188.8760  177.5960  146.4940 C   0  0  0  0  0  0  0  0  0  0  0  0
  189.9000  177.3560  141.5790 C   0  0  0  0  0  0  0  0  0  0  0  0
  188.7500  177.3630  143.6960 C   0  0  0  0  0  0  0  0  0  0  0  0
  189.9920  177.5530  144.3360 C   0  0  0  0  0  0  0  0  0  0  0  0
  190.0530  177.6740  145.7300 C   0  0  0  0  0  3  0  0  0  0  0  0
  191.1250  177.6280  143.5870 N   0  0  0  0  0  0  0  0  0  0  0  0
  191.0780  177.5260  142.2540 N   0  0  0  0  0  0  0  0  0  0  0  0
  188.9010  177.7380  147.9200 N   0  0  0  0  0  2  0  0  0  0  0  0
  187.7900  178.2730  148.6970 C   0  0  0  0  0  2  0  0  0  0  0  0
  186.6600  178.6810  147.7720 C   0  0  0  0  0  1  0  0  0  0  0  0
  187.6190  177.8740  134.7410 C   0  0  0  0  0  1  0  0  0  0  0  0
  187.6250  176.3860  135.0490 C   0  0  2  0  0  3  0  0  0  0  0  0
  186.7970  176.1290  136.1460 O   0  0  0  0  0  0  0  0  0  0  0  0
  185.5000  176.0950  135.6330 C   0  0  0  0  0  2  0  0  0  0  0  0
  184.5120  176.2000  136.7770 C   0  0  0  0  0  2  0  0  0  0  0  0
  184.8850  177.3490  137.6890 C   0  0  0  0  0  2  0  0  0  0  0  0
  183.8200  177.5270  138.7620 C   0  0  2  0  0  3  0  0  0  0  0  0
  183.0280  178.8090  138.5080 C   0  0  0  0  0  1  0  0  0  0  0  0
  184.4380  177.5930  140.0430 O   0  0  0  0  0  0  0  0  0  0  0  0
  185.1340  179.7520  140.5170 O   0  0  0  0  0  0  0  0  0  0  0  0
  184.4260  178.7510  140.8240 C   0  0  0  0  0  0  0  0  0  0  0  0
  183.5550  178.8230  142.0320 C   0  0  0  0  0  1  0  0  0  0  0  0
  193.0880  174.8880  134.5940 C   0  0  0  0  0  2  0  0  0  0  0  0
  194.0190  176.0780  134.7970 C   0  0  0  0  0  2  0  0  0  0  0  0
  195.4190  175.6080  135.1600 C   0  0  0  0  0  2  0  0  0  0  0  0
  195.3490  174.2630  135.8610 C   0  0  0  0  0  2  0  0  0  0  0  0
  195.2910  174.4470  137.2490 O   0  0  0  0  0  0  0  0  0  0  0  0
  195.2030  173.1230  139.0940 O   0  0  0  0  0  1  0  0  0  0  0  0
  194.8440  173.2240  137.7510 C   0  0  2  0  0  3  0  0  0  0  0  0
  195.4960  172.0950  136.9710 C   0  0  0  0  0  2  0  0  0  0  0  0
  195.7750  171.0200  137.8190 O   0  0  0  0  0  1  0  0  0  0  0  0
  1  6  1  0  0  0  0
  1  3  2  0  0  0  0
  2 12  1  1  0  0  0
  3  4  1  0  0  0  0
  4  2  1  0  0  0  0
  5  3  1  0  0  0  0
  6  7  2  0  0  0  0
  7  2  1  0  0  0  0
  8  9  1  0  0  0  0
  9 10  2  0  0  0  0
 10 18  1  0  0  0  0
 11 10  1  0  0  0  0
 12 13  1  0  0  0  0
 12  8  2  0  0  0  0
 13 11  2  0  0  0  0
 14 19  1  0  0  0  0
 15 16  1  0  0  0  0
 16 17  2  0  0  0  0
 17 24  1  0  0  0  0
 18 23  1  0  0  0  0
 18 14  2  0  0  0  0
 19 20  1  0  0  0  0
 19 15  2  0  0  0  0
 20 21  2  0  0  0  0
 21 17  1  0  0  0  0
 22 20  1  0  0  0  0
 23 22  2  0  0  0  0
 24 25  1  0  0  0  0
 26 25  1  0  0  0  0
 28 27  1  1  0  0  0
 28  4  1  0  0  0  0
 28 29  1  0  0  0  0
 30 29  1  0  0  0  0
 30 31  1  0  0  0  0
 31 32  1  0  0  0  0
 32 33  1  0  0  0  0
 33 34  1  6  0  0  0
 33 35  1  0  0  0  0
 35 37  1  0  0  0  0
 36 37  2  0  0  0  0
 37 38  1  0  0  0  0
 39 40  1  0  0  0  0
 39  6  1  0  0  0  0
 40 41  1  0  0  0  0
 41 42  1  0  0  0  0
 42 43  1  0  0  0  0
 43 45  1  0  0  0  0
 45 44  1  1  0  0  0
 46 45  1  0  0  0  0
 46 47  1  0  0  0  0
M  END
>  <MODEL>
9

>  <REMARK>
 VINA RESULT:      -5.7      1.556      2.008
  Name = 
  19 active torsions:
  status: ('A' for Active; 'I' for Inactive)
    1  A    between atoms: C_1  and  C_8
    2  A    between atoms: C_1  and  C_39
    3  A    between atoms: C_4  and  C_30
    4  A    between atoms: O_5  and  C_35
    5  A    between atoms: O_5  and  C_41
    6  A    between atoms: C_6  and  N_47
    7  A    between atoms: C_8  and  O_25
    8  A    between atoms: C_9  and  O_21
    9  A    between atoms: C_9  and  C_24
   10  A    between atoms: C_11  and  C_32
   11  A    between atoms: C_15  and  C_18
   12  A    between atoms: C_17  and  N_47
   13  A    between atoms: O_21  and  C_30
   14  A    between atoms: C_22  and  C_24
   15  A    between atoms: C_22  and  C_31
   16  A    between atoms: O_25  and  C_34
   17  A    between atoms: N_28  and  C_41
   18  A    between atoms: C_31  and  C_38
   19  A    between atoms: C_35  and  C_39
                            x       y       z     vdW  Elec       q    Type
                         _______ _______ _______ _____ _____    ______ ____

>  <TORSDO>
F 19

$$$$
