=
 OpenBabel10222417273D

 28 30  0  0  1  0  0  0  0  0999 V2000
  186.9390  177.5580  144.1510 C   0  0  1  0  0  3  0  0  0  0  0  0
  184.8420  178.4550  143.0390 C   0  0  0  0  0  0  0  0  0  0  0  0
  182.8640  179.2830  141.9550 N   0  0  0  0  0  0  0  0  0  0  0  0
  186.2230  178.8260  140.6680 N   0  0  0  0  0  0  0  0  0  0  0  0
  184.1860  178.9690  141.9020 C   0  0  0  0  0  0  0  0  0  0  0  0
  186.8800  178.3280  141.7500 C   0  0  0  0  0  3  0  0  0  0  0  0
  182.7460  178.6090  144.2440 C   0  0  0  0  0  3  0  0  0  0  0  0
  184.9030  179.1470  140.7190 C   0  0  0  0  0  3  0  0  0  0  0  0
  180.7590  179.4570  143.1120 N   0  0  0  0  0  1  0  0  0  0  0  0
  182.1390  179.1150  143.0930 C   0  0  0  0  0  0  0  0  0  0  0  0
  186.2100  178.1350  142.9670 C   0  0  0  0  0  0  0  0  0  0  0  0
  184.1020  178.2780  144.2150 C   0  0  0  0  0  3  0  0  0  0  0  0
  188.6700  175.9340  143.2790 C   0  0  0  0  0  3  0  0  0  0  0  0
  189.9990  175.6090  142.9930 C   0  0  0  0  0  3  0  0  0  0  0  0
  190.7020  177.7930  143.7710 C   0  0  0  0  0  0  0  0  0  0  0  0
  188.3510  177.1920  143.8150 C   0  0  0  0  0  0  0  0  0  0  0  0
  191.0140  176.5370  143.2400 C   0  0  0  0  0  3  0  0  0  0  0  0
  189.3720  178.1150  144.0650 C   0  0  0  0  0  3  0  0  0  0  0  0
  191.2130  180.0880  144.2780 N   0  0  0  0  0  1  0  0  0  0  0  0
  191.7850  178.7720  144.0550 C   0  0  0  0  0  2  0  0  0  0  0  0
  186.8880  178.4580  145.2970 N   0  0  0  0  0  2  0  0  0  0  0  0
  186.7510  177.6390  146.4930 C   0  0  0  0  0  2  0  0  0  0  0  0
  187.3530  178.3500  147.6990 C   0  0  0  0  0  2  0  0  0  0  0  0
  188.2530  177.4600  148.4150 N   0  0  0  0  0  2  0  0  0  0  0  0
  189.6100  177.8280  148.0410 C   0  0  0  0  0  2  0  0  0  0  0  0
  190.2620  176.6880  147.2810 C   0  0  0  0  0  2  0  0  0  0  0  0
  192.2270  175.6970  147.1340 C   0  0  0  0  0  1  0  0  0  0  0  0
  191.6210  176.9520  147.1030 O   0  0  0  0  0  0  0  0  0  0  0  0
  1 21  1  1  0  0  0
  2 12  2  0  0  0  0
  3 10  1  0  0  0  0
  4  8  2  0  0  0  0
  4  6  1  0  0  0  0
  5  3  2  0  0  0  0
  5  2  1  0  0  0  0
  6 11  2  0  0  0  0
  8  5  1  0  0  0  0
 10  9  1  0  0  0  0
 10  7  2  0  0  0  0
 11  2  1  0  0  0  0
 11  1  1  0  0  0  0
 12  7  1  0  0  0  0
 13 16  1  0  0  0  0
 14 17  1  0  0  0  0
 14 13  2  0  0  0  0
 15 20  1  0  0  0  0
 15 18  1  0  0  0  0
 16 18  2  0  0  0  0
 16  1  1  0  0  0  0
 17 15  2  0  0  0  0
 20 19  1  0  0  0  0
 21 22  1  0  0  0  0
 22 23  1  0  0  0  0
 23 24  1  0  0  0  0
 25 24  1  0  0  0  0
 26 25  1  0  0  0  0
 28 27  1  0  0  0  0
 28 26  1  0  0  0  0
M  END
>  <MODEL>
1

>  <REMARK>
 VINA RESULT:      -7.4      0.000      0.000
  Name = 
  10 active torsions:
  status: ('A' for Active; 'I' for Inactive)
    1  A    between atoms: C_5  and  N_8
    2  A    between atoms: C_5  and  C_19
    3  A    between atoms: C_6  and  N_8
    4  A    between atoms: C_6  and  C_25
    5  A    between atoms: C_11  and  C_16
    6  A    between atoms: C_11  and  C_23
    7  A    between atoms: C_11  and  N_24
    8  A    between atoms: C_14  and  C_27
    9  A    between atoms: C_19  and  N_24
   10  A    between atoms: O_20  and  C_25
                            x       y       z     vdW  Elec       q    Type
                         _______ _______ _______ _____ _____    ______ ____

>  <TORSDO>
F 10

$$$$
=
 OpenBabel10222417273D

 28 30  0  0  1  0  0  0  0  0999 V2000
  187.4010  177.7790  144.5650 C   0  0  1  0  0  3  0  0  0  0  0  0
  185.2260  178.4050  143.4200 C   0  0  0  0  0  0  0  0  0  0  0  0
  183.1610  179.0280  142.3610 N   0  0  0  0  0  0  0  0  0  0  0  0
  183.9810  178.6870  145.8770 N   0  0  0  0  0  0  0  0  0  0  0  0
  183.8710  178.7870  143.4960 C   0  0  0  0  0  0  0  0  0  0  0  0
  185.2890  178.3180  145.8330 C   0  0  0  0  0  3  0  0  0  0  0  0
  185.0660  178.5330  141.0060 C   0  0  0  0  0  3  0  0  0  0  0  0
  183.2650  178.9230  144.7450 C   0  0  0  0  0  3  0  0  0  0  0  0
  182.9520  179.1660  139.9660 N   0  0  0  0  0  1  0  0  0  0  0  0
  183.7260  178.9090  141.1300 C   0  0  0  0  0  0  0  0  0  0  0  0
  185.9460  178.1610  144.6040 C   0  0  0  0  0  0  0  0  0  0  0  0
  185.8160  178.2820  142.1560 C   0  0  0  0  0  3  0  0  0  0  0  0
  187.3490  178.3550  147.0270 C   0  0  0  0  0  3  0  0  0  0  0  0
  187.9570  178.3760  148.2850 C   0  0  0  0  0  3  0  0  0  0  0  0
  189.9100  177.2790  147.3610 C   0  0  0  0  0  0  0  0  0  0  0  0
  188.0210  177.7950  145.9290 C   0  0  0  0  0  0  0  0  0  0  0  0
  189.2370  177.8400  148.4520 C   0  0  0  0  0  3  0  0  0  0  0  0
  189.3040  177.2650  146.1000 C   0  0  0  0  0  3  0  0  0  0  0  0
  191.9350  176.6220  146.2420 N   0  0  0  0  0  1  0  0  0  0  0  0
  191.2810  176.7290  147.5350 C   0  0  0  0  0  2  0  0  0  0  0  0
  187.5960  176.4870  143.9160 N   0  0  0  0  0  2  0  0  0  0  0  0
  188.5390  176.6810  142.8250 C   0  0  0  0  0  2  0  0  0  0  0  0
  189.7050  175.7080  142.9480 C   0  0  0  0  0  2  0  0  0  0  0  0
  190.9700  176.4230  142.9060 N   0  0  0  0  0  2  0  0  0  0  0  0
  190.7870  177.5710  142.0310 C   0  0  0  0  0  2  0  0  0  0  0  0
  191.6660  177.4290  140.8030 C   0  0  0  0  0  2  0  0  0  0  0  0
  189.9540  177.6770  139.4350 C   0  0  0  0  0  1  0  0  0  0  0  0
  190.9630  176.7820  139.7870 O   0  0  0  0  0  0  0  0  0  0  0  0
  1 21  1  1  0  0  0
  1 11  1  0  0  0  0
  1 16  1  0  0  0  0
  2  5  2  0  0  0  0
  2 11  1  0  0  0  0
  3  5  1  0  0  0  0
  5  8  1  0  0  0  0
  6  4  1  0  0  0  0
  7 10  1  0  0  0  0
  7 12  2  0  0  0  0
  8  4  2  0  0  0  0
  9 10  1  0  0  0  0
 10  3  2  0  0  0  0
 11  6  2  0  0  0  0
 12  2  1  0  0  0  0
 13 14  1  0  0  0  0
 14 17  2  0  0  0  0
 15 20  1  0  0  0  0
 15 17  1  0  0  0  0
 16 18  1  0  0  0  0
 16 13  2  0  0  0  0
 18 15  2  0  0  0  0
 19 20  1  0  0  0  0
 22 23  1  0  0  0  0
 22 21  1  0  0  0  0
 24 23  1  0  0  0  0
 25 24  1  0  0  0  0
 26 25  1  0  0  0  0
 27 28  1  0  0  0  0
 28 26  1  0  0  0  0
M  END
>  <MODEL>
2

>  <REMARK>
 VINA RESULT:      -7.1      2.296      4.525
  Name = 
  10 active torsions:
  status: ('A' for Active; 'I' for Inactive)
    1  A    between atoms: C_5  and  N_8
    2  A    between atoms: C_5  and  C_19
    3  A    between atoms: C_6  and  N_8
    4  A    between atoms: C_6  and  C_25
    5  A    between atoms: C_11  and  C_16
    6  A    between atoms: C_11  and  C_23
    7  A    between atoms: C_11  and  N_24
    8  A    between atoms: C_14  and  C_27
    9  A    between atoms: C_19  and  N_24
   10  A    between atoms: O_20  and  C_25
                            x       y       z     vdW  Elec       q    Type
                         _______ _______ _______ _____ _____    ______ ____

>  <TORSDO>
F 10

$$$$
=
 OpenBabel10222417273D

 28 30  0  0  1  0  0  0  0  0999 V2000
  188.1210  177.2920  143.5780 C   0  0  1  0  0  3  0  0  0  0  0  0
  189.3770  177.1760  145.7790 C   0  0  0  0  0  0  0  0  0  0  0  0
  190.5340  177.0490  147.8820 N   0  0  0  0  0  0  0  0  0  0  0  0
  187.1850  178.2100  147.1180 N   0  0  0  0  0  0  0  0  0  0  0  0
  189.4170  177.3720  147.1750 C   0  0  0  0  0  0  0  0  0  0  0  0
  187.1180  178.0300  145.7710 C   0  0  0  0  0  3  0  0  0  0  0  0
  191.6410  176.3210  145.8930 C   0  0  0  0  0  3  0  0  0  0  0  0
  188.3010  177.8950  147.8270 C   0  0  0  0  0  3  0  0  0  0  0  0
  192.7850  176.2100  148.0440 N   0  0  0  0  0  1  0  0  0  0  0  0
  191.6350  176.5330  147.2740 C   0  0  0  0  0  0  0  0  0  0  0  0
  188.2140  177.5140  145.0640 C   0  0  0  0  0  0  0  0  0  0  0  0
  190.5070  176.6430  145.1460 C   0  0  0  0  0  3  0  0  0  0  0  0
  186.8850  178.4500  141.7010 C   0  0  0  0  0  3  0  0  0  0  0  0
  185.7260  179.0390  141.1870 C   0  0  0  0  0  3  0  0  0  0  0  0
  184.5610  178.5500  143.2540 C   0  0  0  0  0  0  0  0  0  0  0  0
  186.8870  177.9090  142.9960 C   0  0  0  0  0  0  0  0  0  0  0  0
  184.5650  179.0900  141.9640 C   0  0  0  0  0  3  0  0  0  0  0  0
  185.7240  177.9680  143.7710 C   0  0  0  0  0  3  0  0  0  0  0  0
  183.6760  179.0560  145.4330 N   0  0  0  0  0  1  0  0  0  0  0  0
  183.3320  178.6250  144.0890 C   0  0  0  0  0  2  0  0  0  0  0  0
  189.3180  177.7660  142.8940 N   0  0  0  0  0  2  0  0  0  0  0  0
  189.7770  176.6980  142.0180 C   0  0  0  0  0  2  0  0  0  0  0  0
  190.5810  177.2680  140.8560 C   0  0  0  0  0  2  0  0  0  0  0  0
  190.2940  176.5360  139.6330 N   0  0  0  0  0  2  0  0  0  0  0  0
  189.0580  177.0740  139.0890 C   0  0  0  0  0  2  0  0  0  0  0  0
  189.2230  178.5530  138.7970 C   0  0  0  0  0  2  0  0  0  0  0  0
  187.3520  177.8880  137.8380 C   0  0  0  0  0  1  0  0  0  0  0  0
  188.1930  178.9910  137.9640 O   0  0  0  0  0  0  0  0  0  0  0  0
  1 21  1  6  0  0  0
  1 11  1  0  0  0  0
  2  5  1  0  0  0  0
  4  8  2  0  0  0  0
  5  8  1  0  0  0  0
  5  3  2  0  0  0  0
  6  4  1  0  0  0  0
  7 10  2  0  0  0  0
 10  3  1  0  0  0  0
 10  9  1  0  0  0  0
 11  6  2  0  0  0  0
 11  2  1  0  0  0  0
 12  2  2  0  0  0  0
 12  7  1  0  0  0  0
 13 16  1  0  0  0  0
 14 13  2  0  0  0  0
 14 17  1  0  0  0  0
 15 18  1  0  0  0  0
 15 20  1  0  0  0  0
 16  1  1  0  0  0  0
 16 18  2  0  0  0  0
 17 15  2  0  0  0  0
 20 19  1  0  0  0  0
 22 21  1  0  0  0  0
 23 22  1  0  0  0  0
 24 23  1  0  0  0  0
 25 24  1  0  0  0  0
 26 25  1  0  0  0  0
 27 28  1  0  0  0  0
 28 26  1  0  0  0  0
M  END
>  <MODEL>
3

>  <REMARK>
 VINA RESULT:      -7.1      2.957      7.514
  Name = 
  10 active torsions:
  status: ('A' for Active; 'I' for Inactive)
    1  A    between atoms: C_5  and  N_8
    2  A    between atoms: C_5  and  C_19
    3  A    between atoms: C_6  and  N_8
    4  A    between atoms: C_6  and  C_25
    5  A    between atoms: C_11  and  C_16
    6  A    between atoms: C_11  and  C_23
    7  A    between atoms: C_11  and  N_24
    8  A    between atoms: C_14  and  C_27
    9  A    between atoms: C_19  and  N_24
   10  A    between atoms: O_20  and  C_25
                            x       y       z     vdW  Elec       q    Type
                         _______ _______ _______ _____ _____    ______ ____

>  <TORSDO>
F 10

$$$$
=
 OpenBabel10222417273D

 28 30  0  0  1  0  0  0  0  0999 V2000
  185.0380  178.2680  142.4650 C   0  0  1  0  0  3  0  0  0  0  0  0
  186.2380  177.9760  144.6800 C   0  0  0  0  0  0  0  0  0  0  0  0
  187.3420  177.6830  146.7950 N   0  0  0  0  0  0  0  0  0  0  0  0
  184.0340  178.9580  146.0370 N   0  0  0  0  0  0  0  0  0  0  0  0
  186.2490  178.0750  146.0870 C   0  0  0  0  0  0  0  0  0  0  0  0
  183.9960  178.8720  144.6800 C   0  0  0  0  0  3  0  0  0  0  0  0
  188.4840  177.0710  144.7860 C   0  0  0  0  0  3  0  0  0  0  0  0
  185.1260  178.5730  146.7480 C   0  0  0  0  0  3  0  0  0  0  0  0
  189.5740  176.7910  146.9500 N   0  0  0  0  0  1  0  0  0  0  0  0
  188.4490  177.1880  146.1780 C   0  0  0  0  0  0  0  0  0  0  0  0
  185.0990  178.3850  143.9640 C   0  0  0  0  0  0  0  0  0  0  0  0
  187.3740  177.4660  144.0370 C   0  0  0  0  0  3  0  0  0  0  0  0
  183.2760  177.5520  140.7980 C   0  0  0  0  0  3  0  0  0  0  0  0
  181.9570  177.5730  140.3370 C   0  0  0  0  0  3  0  0  0  0  0  0
  181.3300  178.9970  142.1940 C   0  0  0  0  0  0  0  0  0  0  0  0
  183.6280  178.2560  141.9610 C   0  0  0  0  0  0  0  0  0  0  0  0
  180.9840  178.2970  141.0330 C   0  0  0  0  0  3  0  0  0  0  0  0
  182.6520  178.9820  142.6510 C   0  0  0  0  0  3  0  0  0  0  0  0
  179.7500  180.8050  142.0450 N   0  0  0  0  0  1  0  0  0  0  0  0
  180.2990  179.7850  142.9220 C   0  0  0  0  0  2  0  0  0  0  0  0
  185.8180  179.3150  141.8170 N   0  0  0  0  0  2  0  0  0  0  0  0
  186.4540  178.7300  140.6450 C   0  0  0  0  0  2  0  0  0  0  0  0
  187.9650  178.6690  140.8320 C   0  0  0  0  0  2  0  0  0  0  0  0
  188.6360  178.6840  139.5420 N   0  0  0  0  0  2  0  0  0  0  0  0
  189.6710  177.6640  139.5830 C   0  0  0  0  0  2  0  0  0  0  0  0
  189.8340  177.1500  141.0010 C   0  0  0  0  0  2  0  0  0  0  0  0
  191.3090  177.7690  142.5190 C   0  0  0  0  0  1  0  0  0  0  0  0
  191.1880  177.0640  141.3230 O   0  0  0  0  0  0  0  0  0  0  0  0
  1 21  1  6  0  0  0
  1 11  1  0  0  0  0
  2  5  1  0  0  0  0
  4  8  2  0  0  0  0
  5  8  1  0  0  0  0
  5  3  2  0  0  0  0
  6  4  1  0  0  0  0
  7 10  2  0  0  0  0
 10  3  1  0  0  0  0
 10  9  1  0  0  0  0
 11  6  2  0  0  0  0
 11  2  1  0  0  0  0
 12  2  2  0  0  0  0
 12  7  1  0  0  0  0
 13 16  1  0  0  0  0
 14 13  2  0  0  0  0
 14 17  1  0  0  0  0
 15 18  1  0  0  0  0
 15 20  1  0  0  0  0
 16  1  1  0  0  0  0
 16 18  2  0  0  0  0
 17 15  2  0  0  0  0
 19 20  1  0  0  0  0
 22 23  1  0  0  0  0
 22 21  1  0  0  0  0
 24 25  1  0  0  0  0
 24 23  1  0  0  0  0
 25 26  1  0  0  0  0
 26 28  1  0  0  0  0
 28 27  1  0  0  0  0
M  END
>  <MODEL>
4

>  <REMARK>
 VINA RESULT:      -7.0      2.223      7.017
  Name = 
  10 active torsions:
  status: ('A' for Active; 'I' for Inactive)
    1  A    between atoms: C_5  and  N_8
    2  A    between atoms: C_5  and  C_19
    3  A    between atoms: C_6  and  N_8
    4  A    between atoms: C_6  and  C_25
    5  A    between atoms: C_11  and  C_16
    6  A    between atoms: C_11  and  C_23
    7  A    between atoms: C_11  and  N_24
    8  A    between atoms: C_14  and  C_27
    9  A    between atoms: C_19  and  N_24
   10  A    between atoms: O_20  and  C_25
                            x       y       z     vdW  Elec       q    Type
                         _______ _______ _______ _____ _____    ______ ____

>  <TORSDO>
F 10

$$$$
=
 OpenBabel10222417273D

 28 30  0  0  1  0  0  0  0  0999 V2000
  187.4610  177.4450  144.2440 C   0  0  1  0  0  3  0  0  0  0  0  0
  189.1270  177.2610  146.1480 C   0  0  0  0  0  0  0  0  0  0  0  0
  190.6770  177.0720  147.9750 N   0  0  0  0  0  0  0  0  0  0  0  0
  187.3080  178.4130  147.8890 N   0  0  0  0  0  0  0  0  0  0  0  0
  189.4590  177.4550  147.5040 C   0  0  0  0  0  0  0  0  0  0  0  0
  186.9620  178.2370  146.5850 C   0  0  0  0  0  3  0  0  0  0  0  0
  191.3190  176.2850  145.8120 C   0  0  0  0  0  3  0  0  0  0  0  0
  188.5260  178.0380  148.3620 C   0  0  0  0  0  3  0  0  0  0  0  0
  192.8670  176.1130  147.6890 N   0  0  0  0  0  1  0  0  0  0  0  0
  191.6040  176.4970  147.1630 C   0  0  0  0  0  0  0  0  0  0  0  0
  187.8630  177.6620  145.6780 C   0  0  0  0  0  0  0  0  0  0  0  0
  190.0760  176.6670  145.3050 C   0  0  0  0  0  3  0  0  0  0  0  0
  185.1880  178.2590  144.9940 C   0  0  0  0  0  3  0  0  0  0  0  0
  183.9100  178.7430  144.7000 C   0  0  0  0  0  3  0  0  0  0  0  0
  184.4320  178.6880  142.3350 C   0  0  0  0  0  0  0  0  0  0  0  0
  186.0940  177.9850  143.9580 C   0  0  0  0  0  0  0  0  0  0  0  0
  183.5320  178.9560  143.3710 C   0  0  0  0  0  3  0  0  0  0  0  0
  185.7080  178.1950  142.6290 C   0  0  0  0  0  3  0  0  0  0  0  0
  185.1580  179.3520  140.1400 N   0  0  0  0  0  1  0  0  0  0  0  0
  184.0220  178.8930  140.9200 C   0  0  0  0  0  2  0  0  0  0  0  0
  188.4470  178.0000  143.3240 N   0  0  0  0  0  2  0  0  0  0  0  0
  188.6470  177.0310  142.2560 C   0  0  0  0  0  2  0  0  0  0  0  0
  190.0580  177.1440  141.6910 C   0  0  0  0  0  2  0  0  0  0  0  0
  190.0340  177.0220  140.2420 N   0  0  0  0  0  2  0  0  0  0  0  0
  188.7890  177.6140  139.7800 C   0  0  0  0  0  2  0  0  0  0  0  0
  189.0570  178.5150  138.5890 C   0  0  0  0  0  2  0  0  0  0  0  0
  188.0950  178.5620  136.6040 C   0  0  0  0  0  1  0  0  0  0  0  0
  187.8560  178.8290  137.9510 O   0  0  0  0  0  0  0  0  0  0  0  0
  1 21  1  6  0  0  0
  1 11  1  0  0  0  0
  2  5  1  0  0  0  0
  4  8  1  0  0  0  0
  5  3  1  0  0  0  0
  5  8  2  0  0  0  0
  6  4  2  0  0  0  0
  7 10  1  0  0  0  0
 10  9  1  0  0  0  0
 10  3  2  0  0  0  0
 11  2  2  0  0  0  0
 11  6  1  0  0  0  0
 12  7  2  0  0  0  0
 12  2  1  0  0  0  0
 14 13  1  0  0  0  0
 15 18  2  0  0  0  0
 15 17  1  0  0  0  0
 16  1  1  0  0  0  0
 16 13  2  0  0  0  0
 17 14  2  0  0  0  0
 18 16  1  0  0  0  0
 19 20  1  0  0  0  0
 20 15  1  0  0  0  0
 22 21  1  0  0  0  0
 23 22  1  0  0  0  0
 24 23  1  0  0  0  0
 25 24  1  0  0  0  0
 26 25  1  0  0  0  0
 27 28  1  0  0  0  0
 28 26  1  0  0  0  0
M  END
>  <MODEL>
5

>  <REMARK>
 VINA RESULT:      -7.0      2.911      7.598
  Name = 
  10 active torsions:
  status: ('A' for Active; 'I' for Inactive)
    1  A    between atoms: C_5  and  N_8
    2  A    between atoms: C_5  and  C_19
    3  A    between atoms: C_6  and  N_8
    4  A    between atoms: C_6  and  C_25
    5  A    between atoms: C_11  and  C_16
    6  A    between atoms: C_11  and  C_23
    7  A    between atoms: C_11  and  N_24
    8  A    between atoms: C_14  and  C_27
    9  A    between atoms: C_19  and  N_24
   10  A    between atoms: O_20  and  C_25
                            x       y       z     vdW  Elec       q    Type
                         _______ _______ _______ _____ _____    ______ ____

>  <TORSDO>
F 10

$$$$
=
 OpenBabel10222417273D

 28 30  0  0  1  0  0  0  0  0999 V2000
  187.4580  177.4500  144.1820 C   0  0  1  0  0  3  0  0  0  0  0  0
  189.1170  177.2600  146.0930 C   0  0  0  0  0  0  0  0  0  0  0  0
  190.6590  177.0670  147.9250 N   0  0  0  0  0  0  0  0  0  0  0  0
  187.2840  178.3900  147.8340 N   0  0  0  0  0  0  0  0  0  0  0  0
  189.4420  177.4460  147.4520 C   0  0  0  0  0  0  0  0  0  0  0  0
  186.9450  178.2210  146.5270 C   0  0  0  0  0  3  0  0  0  0  0  0
  191.3160  176.2980  145.7600 C   0  0  0  0  0  3  0  0  0  0  0  0
  188.5020  178.0180  148.3100 C   0  0  0  0  0  3  0  0  0  0  0  0
  192.8560  176.1210  147.6430 N   0  0  0  0  0  1  0  0  0  0  0  0
  191.5930  176.5030  147.1140 C   0  0  0  0  0  0  0  0  0  0  0  0
  187.8530  177.6580  145.6200 C   0  0  0  0  0  0  0  0  0  0  0  0
  190.0730  176.6780  145.2500 C   0  0  0  0  0  3  0  0  0  0  0  0
  185.2140  178.3440  144.9280 C   0  0  0  0  0  3  0  0  0  0  0  0
  183.9370  178.8290  144.6310 C   0  0  0  0  0  3  0  0  0  0  0  0
  184.4070  178.6190  142.2640 C   0  0  0  0  0  0  0  0  0  0  0  0
  186.0940  177.9920  143.8920 C   0  0  0  0  0  0  0  0  0  0  0  0
  183.5340  178.9650  143.3000 C   0  0  0  0  0  3  0  0  0  0  0  0
  185.6820  178.1260  142.5610 C   0  0  0  0  0  3  0  0  0  0  0  0
  184.9290  179.5400  140.1030 N   0  0  0  0  0  1  0  0  0  0  0  0
  183.9690  178.7430  140.8480 C   0  0  0  0  0  2  0  0  0  0  0  0
  188.4500  178.0090  143.2720 N   0  0  0  0  0  2  0  0  0  0  0  0
  188.7700  176.9860  142.2860 C   0  0  0  0  0  2  0  0  0  0  0  0
  190.0820  177.3120  141.5840 C   0  0  0  0  0  2  0  0  0  0  0  0
  190.3130  176.3870  140.4860 N   0  0  0  0  0  2  0  0  0  0  0  0
  190.8320  177.1620  139.3710 C   0  0  0  0  0  2  0  0  0  0  0  0
  191.4580  176.2360  138.3460 C   0  0  0  0  0  2  0  0  0  0  0  0
  190.2340  174.7950  137.2080 C   0  0  0  0  0  1  0  0  0  0  0  0
  190.8780  174.9700  138.4320 O   0  0  0  0  0  0  0  0  0  0  0  0
  1 21  1  6  0  0  0
  1 11  1  0  0  0  0
  2  5  1  0  0  0  0
  4  8  1  0  0  0  0
  5  3  1  0  0  0  0
  5  8  2  0  0  0  0
  6  4  2  0  0  0  0
  7 10  1  0  0  0  0
 10  9  1  0  0  0  0
 10  3  2  0  0  0  0
 11  2  2  0  0  0  0
 11  6  1  0  0  0  0
 12  7  2  0  0  0  0
 12  2  1  0  0  0  0
 14 13  1  0  0  0  0
 15 18  2  0  0  0  0
 15 17  1  0  0  0  0
 16  1  1  0  0  0  0
 16 13  2  0  0  0  0
 17 14  2  0  0  0  0
 18 16  1  0  0  0  0
 19 20  1  0  0  0  0
 20 15  1  0  0  0  0
 22 21  1  0  0  0  0
 23 22  1  0  0  0  0
 24 23  1  0  0  0  0
 25 24  1  0  0  0  0
 26 28  1  0  0  0  0
 26 25  1  0  0  0  0
 27 28  1  0  0  0  0
M  END
>  <MODEL>
6

>  <REMARK>
 VINA RESULT:      -6.9      2.962      7.486
  Name = 
  10 active torsions:
  status: ('A' for Active; 'I' for Inactive)
    1  A    between atoms: C_5  and  N_8
    2  A    between atoms: C_5  and  C_19
    3  A    between atoms: C_6  and  N_8
    4  A    between atoms: C_6  and  C_25
    5  A    between atoms: C_11  and  C_16
    6  A    between atoms: C_11  and  C_23
    7  A    between atoms: C_11  and  N_24
    8  A    between atoms: C_14  and  C_27
    9  A    between atoms: C_19  and  N_24
   10  A    between atoms: O_20  and  C_25
                            x       y       z     vdW  Elec       q    Type
                         _______ _______ _______ _____ _____    ______ ____

>  <TORSDO>
F 10

$$$$
=
 OpenBabel10222417273D

 28 30  0  0  1  0  0  0  0  0999 V2000
  187.4030  177.7600  144.6430 C   0  0  1  0  0  3  0  0  0  0  0  0
  185.2750  178.4240  143.4320 C   0  0  0  0  0  0  0  0  0  0  0  0
  183.2540  179.0810  142.3110 N   0  0  0  0  0  0  0  0  0  0  0  0
  183.9320  178.6280  145.8450 N   0  0  0  0  0  0  0  0  0  0  0  0
  183.9180  178.8040  143.4650 C   0  0  0  0  0  0  0  0  0  0  0  0
  185.2410  178.2590  145.8410 C   0  0  0  0  0  3  0  0  0  0  0  0
  185.2130  178.6290  141.0190 C   0  0  0  0  0  3  0  0  0  0  0  0
  183.2630  178.8990  144.6930 C   0  0  0  0  0  3  0  0  0  0  0  0
  183.1420  179.2960  139.9150 N   0  0  0  0  0  1  0  0  0  0  0  0
  183.8690  179.0020  141.1010 C   0  0  0  0  0  0  0  0  0  0  0  0
  185.9480  178.1410  144.6360 C   0  0  0  0  0  0  0  0  0  0  0  0
  185.9160  178.3410  142.1890 C   0  0  0  0  0  3  0  0  0  0  0  0
  187.2250  178.2290  147.1220 C   0  0  0  0  0  3  0  0  0  0  0  0
  187.7960  178.2710  148.3970 C   0  0  0  0  0  3  0  0  0  0  0  0
  189.8840  177.4420  147.4900 C   0  0  0  0  0  0  0  0  0  0  0  0
  187.9830  177.7940  146.0230 C   0  0  0  0  0  0  0  0  0  0  0  0
  189.1250  177.8790  148.5810 C   0  0  0  0  0  3  0  0  0  0  0  0
  189.3150  177.4080  146.2130 C   0  0  0  0  0  3  0  0  0  0  0  0
  191.5670  175.7980  146.9870 N   0  0  0  0  0  1  0  0  0  0  0  0
  191.3050  177.0470  147.6830 C   0  0  0  0  0  2  0  0  0  0  0  0
  187.6170  176.4610  144.0160 N   0  0  0  0  0  2  0  0  0  0  0  0
  188.3640  176.6840  142.7870 C   0  0  0  0  0  2  0  0  0  0  0  0
  189.7200  175.9920  142.8530 C   0  0  0  0  0  2  0  0  0  0  0  0
  190.5490  176.3920  141.7280 N   0  0  0  0  0  2  0  0  0  0  0  0
  191.3810  177.4970  142.1760 C   0  0  0  0  0  2  0  0  0  0  0  0
  191.6810  177.3500  143.6560 C   0  0  0  0  0  2  0  0  0  0  0  0
  190.9460  179.4070  143.9680 C   0  0  0  0  0  1  0  0  0  0  0  0
  192.0490  178.5850  144.1920 O   0  0  0  0  0  0  0  0  0  0  0  0
  1 21  1  1  0  0  0
  1 16  1  0  0  0  0
  2  5  2  0  0  0  0
  2 11  1  0  0  0  0
  3  5  1  0  0  0  0
  5  8  1  0  0  0  0
  6  4  1  0  0  0  0
  7 10  1  0  0  0  0
  7 12  2  0  0  0  0
  8  4  2  0  0  0  0
  9 10  1  0  0  0  0
 10  3  2  0  0  0  0
 11  1  1  0  0  0  0
 11  6  2  0  0  0  0
 12  2  1  0  0  0  0
 13 14  1  0  0  0  0
 14 17  2  0  0  0  0
 15 20  1  0  0  0  0
 15 17  1  0  0  0  0
 16 18  1  0  0  0  0
 16 13  2  0  0  0  0
 18 15  2  0  0  0  0
 19 20  1  0  0  0  0
 22 23  1  0  0  0  0
 22 21  1  0  0  0  0
 24 25  1  0  0  0  0
 24 23  1  0  0  0  0
 25 26  1  0  0  0  0
 26 28  1  0  0  0  0
 27 28  1  0  0  0  0
M  END
>  <MODEL>
7

>  <REMARK>
 VINA RESULT:      -6.8      1.851      4.171
  Name = 
  10 active torsions:
  status: ('A' for Active; 'I' for Inactive)
    1  A    between atoms: C_5  and  N_8
    2  A    between atoms: C_5  and  C_19
    3  A    between atoms: C_6  and  N_8
    4  A    between atoms: C_6  and  C_25
    5  A    between atoms: C_11  and  C_16
    6  A    between atoms: C_11  and  C_23
    7  A    between atoms: C_11  and  N_24
    8  A    between atoms: C_14  and  C_27
    9  A    between atoms: C_19  and  N_24
   10  A    between atoms: O_20  and  C_25
                            x       y       z     vdW  Elec       q    Type
                         _______ _______ _______ _____ _____    ______ ____

>  <TORSDO>
F 10

$$$$
=
 OpenBabel10222417273D

 28 30  0  0  1  0  0  0  0  0999 V2000
  188.0500  177.7550  143.5670 C   0  0  1  0  0  3  0  0  0  0  0  0
  185.6890  178.3260  144.3000 C   0  0  0  0  0  0  0  0  0  0  0  0
  183.4680  178.8920  145.0210 N   0  0  0  0  0  0  0  0  0  0  0  0
  186.4380  178.1340  146.9590 N   0  0  0  0  0  0  0  0  0  0  0  0
  184.7510  178.5610  145.3270 C   0  0  0  0  0  0  0  0  0  0  0  0
  187.3630  177.9020  145.9890 C   0  0  0  0  0  3  0  0  0  0  0  0
  183.9440  178.7810  142.6830 C   0  0  0  0  0  3  0  0  0  0  0  0
  185.1530  178.4580  146.6590 C   0  0  0  0  0  3  0  0  0  0  0  0
  181.7000  179.3480  143.4520 N   0  0  0  0  0  1  0  0  0  0  0  0
  183.0500  179.0040  143.7330 C   0  0  0  0  0  0  0  0  0  0  0  0
  187.0130  177.9860  144.6330 C   0  0  0  0  0  0  0  0  0  0  0  0
  185.2670  178.4420  142.9700 C   0  0  0  0  0  3  0  0  0  0  0  0
  190.2570  178.9850  143.6700 C   0  0  0  0  0  3  0  0  0  0  0  0
  191.5600  179.1080  144.1610 C   0  0  0  0  0  3  0  0  0  0  0  0
  191.2440  177.1160  145.5030 C   0  0  0  0  0  0  0  0  0  0  0  0
  189.4410  177.9230  144.0930 C   0  0  0  0  0  0  0  0  0  0  0  0
  192.0540  178.1730  145.0750 C   0  0  0  0  0  3  0  0  0  0  0  0
  189.9430  176.9880  145.0050 C   0  0  0  0  0  3  0  0  0  0  0  0
  192.0560  176.7430  147.7360 N   0  0  0  0  0  1  0  0  0  0  0  0
  191.7780  176.1090  146.4590 C   0  0  0  0  0  2  0  0  0  0  0  0
  187.8820  176.4520  142.9340 N   0  0  0  0  0  2  0  0  0  0  0  0
  188.7710  176.4050  141.7820 C   0  0  0  0  0  2  0  0  0  0  0  0
  188.4140  177.5030  140.7870 C   0  0  0  0  0  2  0  0  0  0  0  0
  189.6060  177.9670  140.0960 N   0  0  0  0  0  2  0  0  0  0  0  0
  189.7460  177.1650  138.8920 C   0  0  0  0  0  2  0  0  0  0  0  0
  191.0390  176.3730  138.9460 C   0  0  0  0  0  2  0  0  0  0  0  0
  192.0170  174.9300  137.5950 C   0  0  0  0  0  1  0  0  0  0  0  0
  190.8580  175.1270  138.3440 O   0  0  0  0  0  0  0  0  0  0  0  0
  1 21  1  1  0  0  0
  1 16  1  0  0  0  0
  1 11  1  0  0  0  0
  2 11  2  0  0  0  0
  2  5  1  0  0  0  0
  3  5  1  0  0  0  0
  5  8  2  0  0  0  0
  6  4  2  0  0  0  0
  7 12  2  0  0  0  0
  7 10  1  0  0  0  0
  8  4  1  0  0  0  0
  9 10  1  0  0  0  0
 10  3  2  0  0  0  0
 11  6  1  0  0  0  0
 12  2  1  0  0  0  0
 13 16  2  0  0  0  0
 13 14  1  0  0  0  0
 14 17  2  0  0  0  0
 15 20  1  0  0  0  0
 16 18  1  0  0  0  0
 17 15  1  0  0  0  0
 18 15  2  0  0  0  0
 20 19  1  0  0  0  0
 22 21  1  0  0  0  0
 23 22  1  0  0  0  0
 24 23  1  0  0  0  0
 25 26  1  0  0  0  0
 25 24  1  0  0  0  0
 27 28  1  0  0  0  0
 28 26  1  0  0  0  0
M  END
>  <MODEL>
8

>  <REMARK>
 VINA RESULT:      -6.7      2.863      4.995
  Name = 
  10 active torsions:
  status: ('A' for Active; 'I' for Inactive)
    1  A    between atoms: C_5  and  N_8
    2  A    between atoms: C_5  and  C_19
    3  A    between atoms: C_6  and  N_8
    4  A    between atoms: C_6  and  C_25
    5  A    between atoms: C_11  and  C_16
    6  A    between atoms: C_11  and  C_23
    7  A    between atoms: C_11  and  N_24
    8  A    between atoms: C_14  and  C_27
    9  A    between atoms: C_19  and  N_24
   10  A    between atoms: O_20  and  C_25
                            x       y       z     vdW  Elec       q    Type
                         _______ _______ _______ _____ _____    ______ ____

>  <TORSDO>
F 10

$$$$
=
 OpenBabel10222417273D

 28 30  0  0  1  0  0  0  0  0999 V2000
  185.2060  178.2130  142.5180 C   0  0  1  0  0  3  0  0  0  0  0  0
  186.4240  177.9670  144.7290 C   0  0  0  0  0  0  0  0  0  0  0  0
  187.5450  177.7180  146.8400 N   0  0  0  0  0  0  0  0  0  0  0  0
  184.2410  179.0040  146.0800 N   0  0  0  0  0  0  0  0  0  0  0  0
  186.4480  178.1020  146.1330 C   0  0  0  0  0  0  0  0  0  0  0  0
  184.1900  178.8840  144.7260 C   0  0  0  0  0  3  0  0  0  0  0  0
  188.6620  177.0450  144.8380 C   0  0  0  0  0  3  0  0  0  0  0  0
  185.3360  178.6270  146.7910 C   0  0  0  0  0  3  0  0  0  0  0  0
  189.7690  176.8100  146.9980 N   0  0  0  0  0  1  0  0  0  0  0  0
  188.6410  177.1980  146.2260 C   0  0  0  0  0  0  0  0  0  0  0  0
  185.2810  178.3680  144.0130 C   0  0  0  0  0  0  0  0  0  0  0  0
  187.5480  177.4300  144.0890 C   0  0  0  0  0  3  0  0  0  0  0  0
  183.4270  177.6230  140.8200 C   0  0  0  0  0  3  0  0  0  0  0  0
  182.1060  177.6890  140.3690 C   0  0  0  0  0  3  0  0  0  0  0  0
  181.5050  179.0020  142.3130 C   0  0  0  0  0  0  0  0  0  0  0  0
  183.7940  178.2490  142.0220 C   0  0  0  0  0  0  0  0  0  0  0  0
  181.1460  178.3790  141.1140 C   0  0  0  0  0  3  0  0  0  0  0  0
  182.8290  178.9430  142.7610 C   0  0  0  0  0  3  0  0  0  0  0  0
  179.8040  180.7010  142.2280 N   0  0  0  0  0  1  0  0  0  0  0  0
  180.4880  179.7560  143.0940 C   0  0  0  0  0  2  0  0  0  0  0  0
  186.0270  179.2080  141.8370 N   0  0  0  0  0  2  0  0  0  0  0  0
  186.4610  178.6300  140.5740 C   0  0  0  0  0  2  0  0  0  0  0  0
  187.9300  178.2310  140.6460 C   0  0  0  0  0  2  0  0  0  0  0  0
  188.7120  179.0030  139.6950 N   0  0  0  0  0  2  0  0  0  0  0  0
  189.3210  178.0600  138.7700 C   0  0  0  0  0  2  0  0  0  0  0  0
  189.0630  178.4980  137.3410 C   0  0  0  0  0  2  0  0  0  0  0  0
  187.0390  177.9830  136.6310 C   0  0  0  0  0  1  0  0  0  0  0  0
  187.7700  179.0100  137.2270 O   0  0  0  0  0  0  0  0  0  0  0  0
  1 21  1  6  0  0  0
  1 11  1  0  0  0  0
  2  5  1  0  0  0  0
  4  8  2  0  0  0  0
  5  8  1  0  0  0  0
  5  3  2  0  0  0  0
  6  4  1  0  0  0  0
  7 10  2  0  0  0  0
 10  3  1  0  0  0  0
 10  9  1  0  0  0  0
 11  6  2  0  0  0  0
 11  2  1  0  0  0  0
 12  2  2  0  0  0  0
 12  7  1  0  0  0  0
 13 16  1  0  0  0  0
 14 13  2  0  0  0  0
 14 17  1  0  0  0  0
 15 18  1  0  0  0  0
 15 20  1  0  0  0  0
 16  1  1  0  0  0  0
 16 18  2  0  0  0  0
 17 15  2  0  0  0  0
 19 20  1  0  0  0  0
 22 23  1  0  0  0  0
 22 21  1  0  0  0  0
 24 23  1  0  0  0  0
 25 24  1  0  0  0  0
 26 25  1  0  0  0  0
 27 28  1  0  0  0  0
 28 26  1  0  0  0  0
M  END
>  <MODEL>
9

>  <REMARK>
 VINA RESULT:      -6.7      2.956      7.669
  Name = 
  10 active torsions:
  status: ('A' for Active; 'I' for Inactive)
    1  A    between atoms: C_5  and  N_8
    2  A    between atoms: C_5  and  C_19
    3  A    between atoms: C_6  and  N_8
    4  A    between atoms: C_6  and  C_25
    5  A    between atoms: C_11  and  C_16
    6  A    between atoms: C_11  and  C_23
    7  A    between atoms: C_11  and  N_24
    8  A    between atoms: C_14  and  C_27
    9  A    between atoms: C_19  and  N_24
   10  A    between atoms: O_20  and  C_25
                            x       y       z     vdW  Elec       q    Type
                         _______ _______ _______ _____ _____    ______ ____

>  <TORSDO>
F 10

$$$$
