=
 OpenBabel10222419293D

 42 48  0  0  1  0  0  0  0  0999 V2000
  185.3930  178.9060  141.9870 C   0  0  0  0  0  0  0  0  0  0  0  0
  186.7430  178.6370  142.2660 C   0  0  0  0  0  3  0  0  0  0  0  0
  184.9240  178.8260  140.6530 C   0  0  0  0  0  0  0  0  0  0  0  0
  187.6330  178.3120  141.2390 C   0  0  0  0  0  3  0  0  0  0  0  0
  185.8380  178.5110  139.6310 C   0  0  0  0  0  3  0  0  0  0  0  0
  187.1860  178.2640  139.9140 C   0  0  0  0  0  0  0  0  0  0  0  0
  181.1720  180.6250  138.1800 C   0  0  1  0  0  0  0  0  0  0  0  0
  179.9920  182.6810  137.6970 C   0  0  1  0  0  0  0  0  0  0  0  0
  183.4930  179.0330  140.3030 C   0  0  0  0  0  0  0  0  0  0  0  0
  180.2410  179.1050  140.0170 C   0  0  0  0  0  2  0  0  0  0  0  0
  180.2850  180.5210  139.4450 C   0  0  0  0  0  2  0  0  0  0  0  0
  180.9310  183.8760  137.3050 C   0  0  1  0  0  3  0  0  0  0  0  0
  179.7120  184.0250  135.7220 C   0  0  2  0  0  3  0  0  0  0  0  0
  182.6660  180.5240  138.3370 C   0  0  0  0  0  3  0  0  0  0  0  0
  180.5330  179.9810  137.0020 C   0  0  1  0  0  3  0  0  0  0  0  0
  179.2280  182.6430  135.3410 C   0  0  0  0  0  2  0  0  0  0  0  0
  181.1020  183.9710  135.9060 O   0  0  0  0  0  0  0  0  0  0  0  0
  181.1450  178.9740  141.2390 C   0  0  0  0  0  2  0  0  0  0  0  0
  179.3180  181.8360  136.6380 C   0  0  1  0  0  3  0  0  0  0  0  0
  183.1520  179.7910  139.2950 C   0  0  0  0  0  0  0  0  0  0  0  0
  182.4130  178.1790  140.9110 C   0  0  0  0  0  2  0  0  0  0  0  0
  180.7490  181.5090  136.9620 C   0  0  1  0  0  0  0  0  0  0  0  0
  179.4800  184.0320  137.1920 C   0  0  1  0  0  3  0  0  0  0  0  0
  181.5570  177.8200  136.3350 C   0  0  0  0  0  1  0  0  0  0  0  0
  181.5070  179.3050  136.0430 C   0  0  0  0  0  2  0  0  0  0  0  0
  188.1130  177.9040  138.7870 C   0  0  1  0  0  3  0  0  0  0  0  0
  187.3530  177.4530  137.5430 C   0  0  0  0  0  1  0  0  0  0  0  0
  188.7770  179.7660  137.6020 O   0  0  0  0  0  0  0  0  0  0  0  0
  189.0200  178.9880  138.4770 N   0  0  0  0  0  0  0  0  0  0  0  0
  184.5130  179.3000  143.0450 N   0  0  0  0  0  2  0  0  0  0  0  0
  184.9720  179.7670  144.3460 C   0  0  0  0  0  2  0  0  0  0  0  0
  184.5350  178.7900  145.4260 C   0  0  0  0  0  2  0  0  0  0  0  0
  185.5950  178.6570  146.5110 C   0  0  0  0  0  2  0  0  0  0  0  0
  186.8130  177.8960  146.0060 C   0  0  0  0  0  2  0  0  0  0  0  0
  187.6570  177.3750  147.1630 C   0  0  0  0  0  2  0  0  0  0  0  0
  189.0230  176.8950  146.6810 C   0  0  0  0  0  3  0  0  0  0  0  0
  189.3070  177.3680  145.2900 C   0  0  0  0  0  0  0  0  0  0  0  0
  189.8460  178.4900  145.1130 O   0  0  0  0  0  1  0  0  0  0  0  0
  188.9800  176.5780  144.1930 O   0  0  0  0  0  0  0  0  0  0  0  0
  191.2540  176.8560  147.5110 O   0  0  0  0  0  0  0  0  0  0  0  0
  189.8310  178.2870  148.5980 O   0  0  0  0  0  1  0  0  0  0  0  0
  190.0960  177.3360  147.6200 C   0  0  0  0  0  0  0  0  0  0  0  0
  1  2  1  0  0  0  0
  1 30  1  0  0  0  0
  3  1  2  0  0  0  0
  4  2  2  0  0  0  0
  5  6  2  0  0  0  0
  5  3  1  0  0  0  0
  6  4  1  0  0  0  0
  7 14  1  1  0  0  0
  7 11  1  0  0  0  0
  9  3  1  0  0  0  0
  9 21  1  0  0  0  0
 10 18  1  0  0  0  0
 11 10  1  0  0  0  0
 12  8  1  0  0  0  0
 13 17  1  0  0  0  0
 13 23  1  0  0  0  0
 14 20  2  0  0  0  0
 15  7  1  0  0  0  0
 16 13  1  0  0  0  0
 16 19  1  0  0  0  0
 17 12  1  0  0  0  0
 19 22  1  0  0  0  0
 19  8  1  0  0  0  0
 20  9  2  0  0  0  0
 21 18  1  0  0  0  0
 22 15  1  0  0  0  0
 22  8  1  0  0  0  0
 22  7  1  0  0  0  0
 23 12  1  0  0  0  0
 23  8  1  0  0  0  0
 25 24  1  0  0  0  0
 25 15  1  0  0  0  0
 26  6  1  0  0  0  0
 27 26  1  0  0  0  0
 28 29  2  0  0  0  0
 29 26  1  0  0  0  0
 30 31  1  0  0  0  0
 31 32  1  0  0  0  0
 32 33  1  0  0  0  0
 34 33  1  0  0  0  0
 34 35  1  0  0  0  0
 36 35  1  0  0  0  0
 36 42  1  0  0  0  0
 37 36  1  0  0  0  0
 38 37  1  0  0  0  0
 39 37  2  0  0  0  0
 40 42  2  0  0  0  0
 42 41  1  0  0  0  0
M  END
>  <MODEL>
1

>  <REMARK>
 VINA RESULT:      -8.1      0.000      0.000
  Name = 
  13 active torsions:
  status: ('A' for Active; 'I' for Inactive)
    1  A    between atoms: C_1  and  C_18
    2  A    between atoms: C_1  and  C_21
    3  A    between atoms: C_3  and  C_5
    4  A    between atoms: C_3  and  C_16
    5  A    between atoms: C_3  and  C_34
    6  A    between atoms: C_6  and  N_24
    7  A    between atoms: C_8  and  C_23
    8  A    between atoms: C_15  and  C_29
    9  A    between atoms: C_16  and  C_41
   10  A    between atoms: C_18  and  C_41
   11  A    between atoms: C_21  and  N_24
   12  A    between atoms: N_25  and  C_31
   13  A    between atoms: C_31  and  C_38
                            x       y       z     vdW  Elec       q    Type
                         _______ _______ _______ _____ _____    ______ ____

>  <TORSDO>
F 13

$$$$
=
 OpenBabel10222419293D

 42 48  0  0  1  0  0  0  0  0999 V2000
  184.3260  178.3340  142.4710 C   0  0  0  0  0  0  0  0  0  0  0  0
  183.9460  178.7410  143.7600 C   0  0  0  0  0  3  0  0  0  0  0  0
  183.3610  178.3000  141.4340 C   0  0  0  0  0  0  0  0  0  0  0  0
  182.6230  179.0900  144.0370 C   0  0  0  0  0  3  0  0  0  0  0  0
  182.0310  178.6420  141.7360 C   0  0  0  0  0  3  0  0  0  0  0  0
  181.6550  179.0260  143.0280 C   0  0  0  0  0  0  0  0  0  0  0  0
  183.4510  175.5840  137.4280 C   0  0  1  0  0  0  0  0  0  0  0  0
  184.2790  173.4920  136.5390 C   0  0  1  0  0  0  0  0  0  0  0  0
  183.7160  177.9440  140.0330 C   0  0  0  0  0  0  0  0  0  0  0  0
  184.8010  177.7090  136.9630 C   0  0  0  0  0  2  0  0  0  0  0  0
  184.8280  176.1830  137.0500 C   0  0  0  0  0  2  0  0  0  0  0  0
  184.0170  172.2570  137.4710 C   0  0  1  0  0  3  0  0  0  0  0  0
  183.2310  171.4520  135.8130 C   0  0  2  0  0  3  0  0  0  0  0  0
  182.9490  175.7650  138.8370 C   0  0  0  0  0  3  0  0  0  0  0  0
  182.4800  175.6780  136.3070 C   0  0  1  0  0  3  0  0  0  0  0  0
  182.5940  172.5470  134.9870 C   0  0  0  0  0  2  0  0  0  0  0  0
  182.8100  171.5990  137.1430 O   0  0  0  0  0  0  0  0  0  0  0  0
  185.4160  178.3440  138.2060 C   0  0  0  0  0  2  0  0  0  0  0  0
  183.3460  173.8170  135.3910 C   0  0  1  0  0  3  0  0  0  0  0  0
  183.2870  176.8340  139.4940 C   0  0  0  0  0  0  0  0  0  0  0  0
  184.3410  178.9550  139.1100 C   0  0  0  0  0  2  0  0  0  0  0  0
  182.9260  174.2720  136.7610 C   0  0  1  0  0  0  0  0  0  0  0  0
  184.5590  172.0440  136.1270 C   0  0  1  0  0  3  0  0  0  0  0  0
  180.7130  177.3920  136.6280 C   0  0  0  0  0  1  0  0  0  0  0  0
  181.0370  175.9170  136.7360 C   0  0  0  0  0  2  0  0  0  0  0  0
  180.2250  179.4080  143.2880 C   0  0  1  0  0  3  0  0  0  0  0  0
  179.6680  180.3170  142.1950 C   0  0  0  0  0  1  0  0  0  0  0  0
  179.6470  177.4170  144.2930 O   0  0  0  0  0  0  0  0  0  0  0  0
  179.3870  178.2430  143.4700 N   0  0  0  0  0  0  0  0  0  0  0  0
  185.6740  177.9190  142.2240 N   0  0  0  0  0  2  0  0  0  0  0  0
  186.7550  178.8380  141.8960 C   0  0  0  0  0  2  0  0  0  0  0  0
  187.9910  178.0530  141.4880 C   0  0  0  0  0  2  0  0  0  0  0  0
  188.4220  177.0900  142.5860 C   0  0  0  0  0  2  0  0  0  0  0  0
  188.9520  177.8380  143.8020 C   0  0  0  0  0  2  0  0  0  0  0  0
  188.9940  176.9340  145.0290 C   0  0  0  0  0  2  0  0  0  0  0  0
  189.8360  177.5510  146.1420 C   0  0  0  0  0  3  0  0  0  0  0  0
  189.1230  177.4970  147.4580 C   0  0  0  0  0  0  0  0  0  0  0  0
  188.4520  176.4770  147.7600 O   0  0  0  0  0  0  0  0  0  0  0  0
  189.1970  178.5630  148.3470 O   0  0  0  0  0  1  0  0  0  0  0  0
  191.6630  176.3470  145.2040 O   0  0  0  0  0  0  0  0  0  0  0  0
  191.8620  176.8450  147.4320 O   0  0  0  0  0  1  0  0  0  0  0  0
  191.1640  176.8760  146.2310 C   0  0  0  0  0  0  0  0  0  0  0  0
  1  2  1  0  0  0  0
  2  4  2  0  0  0  0
  3  5  1  0  0  0  0
  3  1  2  0  0  0  0
  5  6  2  0  0  0  0
  6 26  1  0  0  0  0
  6  4  1  0  0  0  0
  7 11  1  6  0  0  0
  7 14  1  0  0  0  0
  8 22  1  0  0  0  0
  8 12  1  0  0  0  0
  9  3  1  0  0  0  0
 10 11  1  0  0  0  0
 10 18  1  0  0  0  0
 13 23  1  0  0  0  0
 13 17  1  0  0  0  0
 14 20  2  0  0  0  0
 15 25  1  0  0  0  0
 15 22  1  0  0  0  0
 15  7  1  0  0  0  0
 16 19  1  0  0  0  0
 16 13  1  0  0  0  0
 17 12  1  0  0  0  0
 18 21  1  0  0  0  0
 19  8  1  0  0  0  0
 19 22  1  0  0  0  0
 20  9  2  0  0  0  0
 21  9  1  0  0  0  0
 22  7  1  0  0  0  0
 23  8  1  0  0  0  0
 23 12  1  0  0  0  0
 24 25  1  0  0  0  0
 26 29  1  0  0  0  0
 27 26  1  0  0  0  0
 29 28  2  0  0  0  0
 30  1  1  0  0  0  0
 31 30  1  0  0  0  0
 32 31  1  0  0  0  0
 32 33  1  0  0  0  0
 33 34  1  0  0  0  0
 34 35  1  0  0  0  0
 35 36  1  0  0  0  0
 36 42  1  0  0  0  0
 36 37  1  0  0  0  0
 37 38  2  0  0  0  0
 37 39  1  0  0  0  0
 40 42  2  0  0  0  0
 42 41  1  0  0  0  0
M  END
>  <MODEL>
2

>  <REMARK>
 VINA RESULT:      -8.1      3.653      6.704
  Name = 
  13 active torsions:
  status: ('A' for Active; 'I' for Inactive)
    1  A    between atoms: C_1  and  C_18
    2  A    between atoms: C_1  and  C_21
    3  A    between atoms: C_3  and  C_5
    4  A    between atoms: C_3  and  C_16
    5  A    between atoms: C_3  and  C_34
    6  A    between atoms: C_6  and  N_24
    7  A    between atoms: C_8  and  C_23
    8  A    between atoms: C_15  and  C_29
    9  A    between atoms: C_16  and  C_41
   10  A    between atoms: C_18  and  C_41
   11  A    between atoms: C_21  and  N_24
   12  A    between atoms: N_25  and  C_31
   13  A    between atoms: C_31  and  C_38
                            x       y       z     vdW  Elec       q    Type
                         _______ _______ _______ _____ _____    ______ ____

>  <TORSDO>
F 13

$$$$
=
 OpenBabel10222419293D

 42 48  0  0  1  0  0  0  0  0999 V2000
  184.2850  178.2810  142.3440 C   0  0  0  0  0  0  0  0  0  0  0  0
  183.9290  178.7160  143.6310 C   0  0  0  0  0  3  0  0  0  0  0  0
  183.3110  178.2650  141.3160 C   0  0  0  0  0  0  0  0  0  0  0  0
  182.6200  179.1110  143.9140 C   0  0  0  0  0  3  0  0  0  0  0  0
  181.9950  178.6530  141.6240 C   0  0  0  0  0  3  0  0  0  0  0  0
  181.6430  179.0650  142.9130 C   0  0  0  0  0  0  0  0  0  0  0  0
  183.3140  175.4760  137.3590 C   0  0  1  0  0  0  0  0  0  0  0  0
  184.1060  173.3600  136.4960 C   0  0  1  0  0  0  0  0  0  0  0  0
  183.6410  177.8800  139.9170 C   0  0  0  0  0  0  0  0  0  0  0  0
  184.6800  177.5770  136.8370 C   0  0  0  0  0  2  0  0  0  0  0  0
  184.6910  176.0530  136.9500 C   0  0  0  0  0  2  0  0  0  0  0  0
  183.8440  172.1440  137.4540 C   0  0  1  0  0  3  0  0  0  0  0  0
  183.0260  171.3180  135.8220 C   0  0  2  0  0  3  0  0  0  0  0  0
  182.8340  175.6880  138.7710 C   0  0  0  0  0  3  0  0  0  0  0  0
  182.3280  175.5600  136.2490 C   0  0  1  0  0  3  0  0  0  0  0  0
  182.3890  172.4060  134.9860 C   0  0  0  0  0  2  0  0  0  0  0  0
  182.6260  171.4940  137.1550 O   0  0  0  0  0  0  0  0  0  0  0  0
  185.3200  178.2280  138.0590 C   0  0  0  0  0  2  0  0  0  0  0  0
  183.1610  173.6740  135.3560 C   0  0  1  0  0  3  0  0  0  0  0  0
  183.1930  176.7650  139.4040 C   0  0  0  0  0  0  0  0  0  0  0  0
  184.2640  178.8670  138.9660 C   0  0  0  0  0  2  0  0  0  0  0  0
  182.7650  174.1580  136.7230 C   0  0  1  0  0  0  0  0  0  0  0  0
  184.3650  171.9010  136.1070 C   0  0  1  0  0  3  0  0  0  0  0  0
  179.9800  174.7630  136.1160 C   0  0  0  0  0  1  0  0  0  0  0  0
  180.8940  175.8230  136.6950 C   0  0  0  0  0  2  0  0  0  0  0  0
  180.2280  179.4970  143.1800 C   0  0  1  0  0  3  0  0  0  0  0  0
  179.6860  180.3970  142.0730 C   0  0  0  0  0  1  0  0  0  0  0  0
  179.6190  177.5310  144.2170 O   0  0  0  0  0  0  0  0  0  0  0  0
  179.3570  178.3630  143.3990 N   0  0  0  0  0  0  0  0  0  0  0  0
  185.6170  177.8190  142.0910 N   0  0  0  0  0  2  0  0  0  0  0  0
  186.7550  178.7060  141.8950 C   0  0  0  0  0  2  0  0  0  0  0  0
  188.0450  177.9020  141.9300 C   0  0  0  0  0  2  0  0  0  0  0  0
  188.0540  176.9230  143.0970 C   0  0  0  0  0  2  0  0  0  0  0  0
  188.3090  177.6370  144.4180 C   0  0  0  0  0  2  0  0  0  0  0  0
  187.1450  177.4450  145.3820 C   0  0  0  0  0  2  0  0  0  0  0  0
  187.3060  178.3160  146.6250 C   0  0  0  0  0  3  0  0  0  0  0  0
  185.9930  178.8800  147.0700 C   0  0  0  0  0  0  0  0  0  0  0  0
  185.9500  180.0320  147.5730 O   0  0  0  0  0  1  0  0  0  0  0  0
  184.8230  178.1410  146.9340 O   0  0  0  0  0  0  0  0  0  0  0  0
  188.7360  176.5990  147.4480 O   0  0  0  0  0  0  0  0  0  0  0  0
  187.7060  177.8670  149.0550 O   0  0  0  0  0  1  0  0  0  0  0  0
  187.9510  177.5420  147.7270 C   0  0  0  0  0  0  0  0  0  0  0  0
  1  2  1  0  0  0  0
  2  4  2  0  0  0  0
  3  5  1  0  0  0  0
  3  1  2  0  0  0  0
  5  6  2  0  0  0  0
  6 26  1  0  0  0  0
  6  4  1  0  0  0  0
  7 11  1  6  0  0  0
  7 14  1  0  0  0  0
  8 22  1  0  0  0  0
  8 12  1  0  0  0  0
  9  3  1  0  0  0  0
 10 11  1  0  0  0  0
 10 18  1  0  0  0  0
 13 23  1  0  0  0  0
 13 17  1  0  0  0  0
 14 20  2  0  0  0  0
 15 25  1  0  0  0  0
 15 22  1  0  0  0  0
 15  7  1  0  0  0  0
 16 19  1  0  0  0  0
 16 13  1  0  0  0  0
 17 12  1  0  0  0  0
 18 21  1  0  0  0  0
 19  8  1  0  0  0  0
 19 22  1  0  0  0  0
 20  9  2  0  0  0  0
 21  9  1  0  0  0  0
 22  7  1  0  0  0  0
 23  8  1  0  0  0  0
 23 12  1  0  0  0  0
 24 25  1  0  0  0  0
 26 29  1  0  0  0  0
 27 26  1  0  0  0  0
 29 28  2  0  0  0  0
 30  1  1  0  0  0  0
 31 32  1  0  0  0  0
 31 30  1  0  0  0  0
 32 33  1  0  0  0  0
 33 34  1  0  0  0  0
 34 35  1  0  0  0  0
 35 36  1  0  0  0  0
 36 37  1  0  0  0  0
 36 42  1  0  0  0  0
 37 38  1  0  0  0  0
 39 37  2  0  0  0  0
 40 42  2  0  0  0  0
 42 41  1  0  0  0  0
M  END
>  <MODEL>
3

>  <REMARK>
 VINA RESULT:      -8.0      3.946      6.772
  Name = 
  13 active torsions:
  status: ('A' for Active; 'I' for Inactive)
    1  A    between atoms: C_1  and  C_18
    2  A    between atoms: C_1  and  C_21
    3  A    between atoms: C_3  and  C_5
    4  A    between atoms: C_3  and  C_16
    5  A    between atoms: C_3  and  C_34
    6  A    between atoms: C_6  and  N_24
    7  A    between atoms: C_8  and  C_23
    8  A    between atoms: C_15  and  C_29
    9  A    between atoms: C_16  and  C_41
   10  A    between atoms: C_18  and  C_41
   11  A    between atoms: C_21  and  N_24
   12  A    between atoms: N_25  and  C_31
   13  A    between atoms: C_31  and  C_38
                            x       y       z     vdW  Elec       q    Type
                         _______ _______ _______ _____ _____    ______ ____

>  <TORSDO>
F 13

$$$$
=
 OpenBabel10222419293D

 42 48  0  0  1  0  0  0  0  0999 V2000
  184.0810  178.3260  142.2840 C   0  0  0  0  0  0  0  0  0  0  0  0
  183.6370  178.7620  143.5430 C   0  0  0  0  0  3  0  0  0  0  0  0
  183.1650  178.2480  141.2060 C   0  0  0  0  0  0  0  0  0  0  0  0
  182.2980  179.0980  143.7500 C   0  0  0  0  0  3  0  0  0  0  0  0
  181.8170  178.5770  141.4390 C   0  0  0  0  0  3  0  0  0  0  0  0
  181.3780  178.9910  142.7000 C   0  0  0  0  0  0  0  0  0  0  0  0
  183.4220  175.4520  137.2630 C   0  0  1  0  0  0  0  0  0  0  0  0
  184.2600  173.3300  136.4590 C   0  0  1  0  0  0  0  0  0  0  0  0
  183.5870  177.8590  139.8330 C   0  0  0  0  0  0  0  0  0  0  0  0
  184.8300  177.5450  136.8310 C   0  0  0  0  0  2  0  0  0  0  0  0
  184.8270  176.0220  136.9480 C   0  0  0  0  0  2  0  0  0  0  0  0
  183.9290  172.1180  137.3990 C   0  0  1  0  0  3  0  0  0  0  0  0
  183.2180  171.2930  135.7160 C   0  0  2  0  0  3  0  0  0  0  0  0
  182.8490  175.6680  138.6390 C   0  0  0  0  0  3  0  0  0  0  0  0
  182.5130  175.5390  136.0890 C   0  0  1  0  0  3  0  0  0  0  0  0
  182.6450  172.3820  134.8380 C   0  0  0  0  0  2  0  0  0  0  0  0
  182.7300  171.4730  137.0200 O   0  0  0  0  0  0  0  0  0  0  0  0
  185.3890  178.1950  138.0930 C   0  0  0  0  0  2  0  0  0  0  0  0
  183.3960  173.6470  135.2570 C   0  0  1  0  0  3  0  0  0  0  0  0
  183.1690  176.7450  139.2930 C   0  0  0  0  0  0  0  0  0  0  0  0
  184.2770  178.8410  138.9260 C   0  0  0  0  0  2  0  0  0  0  0  0
  182.9110  174.1350  136.5940 C   0  0  1  0  0  0  0  0  0  0  0  0
  184.5380  171.8700  136.0910 C   0  0  1  0  0  3  0  0  0  0  0  0
  180.7230  177.2580  136.1460 C   0  0  0  0  0  1  0  0  0  0  0  0
  181.0540  175.8090  136.4360 C   0  0  0  0  0  2  0  0  0  0  0  0
  179.9320  179.3580  142.8850 C   0  0  1  0  0  3  0  0  0  0  0  0
  179.3920  178.8940  144.2340 C   0  0  0  0  0  1  0  0  0  0  0  0
  179.5630  181.2420  141.6090 O   0  0  0  0  0  0  0  0  0  0  0  0
  179.7160  180.7770  142.6990 N   0  0  0  0  0  0  0  0  0  0  0  0
  185.4450  177.9250  142.1090 N   0  0  0  0  0  2  0  0  0  0  0  0
  186.5120  178.2670  143.0390 C   0  0  0  0  0  2  0  0  0  0  0  0
  186.7570  177.1050  143.9890 C   0  0  0  0  0  2  0  0  0  0  0  0
  186.9110  177.5890  145.4250 C   0  0  0  0  0  2  0  0  0  0  0  0
  188.3780  177.7040  145.8160 C   0  0  0  0  0  2  0  0  0  0  0  0
  189.2450  176.7620  144.9900 C   0  0  0  0  0  2  0  0  0  0  0  0
  190.1200  177.5330  144.0060 C   0  0  0  0  0  3  0  0  0  0  0  0
  191.4040  177.9650  144.6420 C   0  0  0  0  0  0  0  0  0  0  0  0
  192.0280  178.9520  144.1750 O   0  0  0  0  0  0  0  0  0  0  0  0
  191.9140  177.2840  145.7420 O   0  0  0  0  0  1  0  0  0  0  0  0
  190.3440  175.4610  142.8570 O   0  0  0  0  0  1  0  0  0  0  0  0
  190.6470  177.3310  141.5680 O   0  0  0  0  0  0  0  0  0  0  0  0
  190.3820  176.7160  142.7850 C   0  0  0  0  0  0  0  0  0  0  0  0
  1  2  1  0  0  0  0
  2  4  2  0  0  0  0
  3  5  1  0  0  0  0
  3  1  2  0  0  0  0
  5  6  2  0  0  0  0
  6 26  1  0  0  0  0
  6  4  1  0  0  0  0
  7 11  1  6  0  0  0
  7 14  1  0  0  0  0
  8 22  1  0  0  0  0
  8 12  1  0  0  0  0
  9  3  1  0  0  0  0
 10 11  1  0  0  0  0
 10 18  1  0  0  0  0
 13 23  1  0  0  0  0
 13 17  1  0  0  0  0
 14 20  2  0  0  0  0
 15 25  1  0  0  0  0
 15 22  1  0  0  0  0
 15  7  1  0  0  0  0
 16 19  1  0  0  0  0
 16 13  1  0  0  0  0
 17 12  1  0  0  0  0
 18 21  1  0  0  0  0
 19  8  1  0  0  0  0
 19 22  1  0  0  0  0
 20  9  2  0  0  0  0
 21  9  1  0  0  0  0
 22  7  1  0  0  0  0
 23  8  1  0  0  0  0
 23 12  1  0  0  0  0
 24 25  1  0  0  0  0
 26 27  1  0  0  0  0
 28 29  2  0  0  0  0
 29 26  1  0  0  0  0
 30  1  1  0  0  0  0
 30 31  1  0  0  0  0
 31 32  1  0  0  0  0
 32 33  1  0  0  0  0
 33 34  1  0  0  0  0
 35 34  1  0  0  0  0
 36 37  1  0  0  0  0
 36 35  1  0  0  0  0
 37 39  1  0  0  0  0
 38 37  2  0  0  0  0
 41 42  2  0  0  0  0
 42 40  1  0  0  0  0
 42 36  1  0  0  0  0
M  END
>  <MODEL>
4

>  <REMARK>
 VINA RESULT:      -7.9      3.594      6.785
  Name = 
  13 active torsions:
  status: ('A' for Active; 'I' for Inactive)
    1  A    between atoms: C_1  and  C_18
    2  A    between atoms: C_1  and  C_21
    3  A    between atoms: C_3  and  C_5
    4  A    between atoms: C_3  and  C_16
    5  A    between atoms: C_3  and  C_34
    6  A    between atoms: C_6  and  N_24
    7  A    between atoms: C_8  and  C_23
    8  A    between atoms: C_15  and  C_29
    9  A    between atoms: C_16  and  C_41
   10  A    between atoms: C_18  and  C_41
   11  A    between atoms: C_21  and  N_24
   12  A    between atoms: N_25  and  C_31
   13  A    between atoms: C_31  and  C_38
                            x       y       z     vdW  Elec       q    Type
                         _______ _______ _______ _____ _____    ______ ____

>  <TORSDO>
F 13

$$$$
=
 OpenBabel10222419293D

 42 48  0  0  1  0  0  0  0  0999 V2000
  186.9910  177.9510  143.2660 C   0  0  0  0  0  0  0  0  0  0  0  0
  186.0760  177.9320  144.3320 C   0  0  0  0  0  3  0  0  0  0  0  0
  188.3490  177.6250  143.5030 C   0  0  0  0  0  0  0  0  0  0  0  0
  186.4960  177.6190  145.6260 C   0  0  0  0  0  3  0  0  0  0  0  0
  188.7540  177.3260  144.8160 C   0  0  0  0  0  3  0  0  0  0  0  0
  187.8420  177.3300  145.8760 C   0  0  0  0  0  0  0  0  0  0  0  0
  189.9560  176.9110  138.9930 C   0  0  1  0  0  0  0  0  0  0  0  0
  190.2830  175.2000  137.3140 C   0  0  1  0  0  0  0  0  0  0  0  0
  189.3510  177.5600  142.4050 C   0  0  0  0  0  0  0  0  0  0  0  0
  191.9590  177.5770  140.4400 C   0  0  0  0  0  2  0  0  0  0  0  0
  191.3410  176.5010  139.5490 C   0  0  0  0  0  2  0  0  0  0  0  0
  189.0390  174.2640  137.1090 C   0  0  1  0  0  3  0  0  0  0  0  0
  189.2790  174.7400  135.1770 C   0  0  2  0  0  3  0  0  0  0  0  0
  188.7840  176.9550  139.9380 C   0  0  0  0  0  3  0  0  0  0  0  0
  190.0680  177.9610  137.9460 C   0  0  1  0  0  3  0  0  0  0  0  0
  189.8030  176.1550  135.0790 C   0  0  0  0  0  2  0  0  0  0  0  0
  188.1990  174.7290  136.0730 O   0  0  0  0  0  0  0  0  0  0  0  0
  191.8090  177.2240  141.9170 C   0  0  0  0  0  2  0  0  0  0  0  0
  190.5260  176.3880  136.4080 C   0  0  1  0  0  3  0  0  0  0  0  0
  188.9920  177.2560  141.1860 C   0  0  0  0  0  0  0  0  0  0  0  0
  190.7450  178.0960  142.5920 C   0  0  0  0  0  2  0  0  0  0  0  0
  189.5370  176.5740  137.5250 C   0  0  1  0  0  0  0  0  0  0  0  0
  190.1840  174.1520  136.2020 C   0  0  1  0  0  3  0  0  0  0  0  0
  188.0720  178.7520  136.7010 C   0  0  0  0  0  1  0  0  0  0  0  0
  188.9240  178.9680  137.9330 C   0  0  0  0  0  2  0  0  0  0  0  0
  188.3250  176.9740  147.2550 C   0  0  1  0  0  3  0  0  0  0  0  0
  189.8480  176.9460  147.3380 C   0  0  0  0  0  1  0  0  0  0  0  0
  188.4270  178.2500  149.1720 O   0  0  0  0  0  0  0  0  0  0  0  0
  187.7660  177.8550  148.2580 N   0  0  0  0  0  0  0  0  0  0  0  0
  186.5530  178.3370  141.9590 N   0  0  0  0  0  2  0  0  0  0  0  0
  185.5110  179.3240  141.7160 C   0  0  0  0  0  2  0  0  0  0  0  0
  184.3560  178.6790  140.9660 C   0  0  0  0  0  2  0  0  0  0  0  0
  184.2280  179.2450  139.5580 C   0  0  0  0  0  2  0  0  0  0  0  0
  185.0520  178.4420  138.5600 C   0  0  0  0  0  2  0  0  0  0  0  0
  184.1570  177.6170  137.6440 C   0  0  0  0  0  2  0  0  0  0  0  0
  184.9620  176.5720  136.8760 C   0  0  0  0  0  3  0  0  0  0  0  0
  184.5050  175.1840  137.2010 C   0  0  0  0  0  0  0  0  0  0  0  0
  184.9510  174.2120  136.5390 O   0  0  0  0  0  0  0  0  0  0  0  0
  183.5930  174.9610  138.2260 O   0  0  0  0  0  1  0  0  0  0  0  0
  183.7780  177.1210  134.8850 O   0  0  0  0  0  1  0  0  0  0  0  0
  186.0240  176.7560  134.6170 O   0  0  0  0  0  0  0  0  0  0  0  0
  184.8840  176.8250  135.4070 C   0  0  0  0  0  0  0  0  0  0  0  0
  1  3  2  0  0  0  0
  1  2  1  0  0  0  0
  2  4  2  0  0  0  0
  3  5  1  0  0  0  0
  4  6  1  0  0  0  0
  5  6  2  0  0  0  0
  6 26  1  0  0  0  0
  7 11  1  1  0  0  0
  7 14  1  0  0  0  0
  8 22  1  0  0  0  0
  9 21  1  0  0  0  0
  9  3  1  0  0  0  0
 10 18  1  0  0  0  0
 11 10  1  0  0  0  0
 12  8  1  0  0  0  0
 13 17  1  0  0  0  0
 13 23  1  0  0  0  0
 14 20  2  0  0  0  0
 15  7  1  0  0  0  0
 16 13  1  0  0  0  0
 16 19  1  0  0  0  0
 17 12  1  0  0  0  0
 18 21  1  0  0  0  0
 19  8  1  0  0  0  0
 19 22  1  0  0  0  0
 20  9  2  0  0  0  0
 22 15  1  0  0  0  0
 22  7  1  0  0  0  0
 23 12  1  0  0  0  0
 23  8  1  0  0  0  0
 24 25  1  0  0  0  0
 25 15  1  0  0  0  0
 26 27  1  0  0  0  0
 26 29  1  0  0  0  0
 29 28  2  0  0  0  0
 30  1  1  0  0  0  0
 31 30  1  0  0  0  0
 32 31  1  0  0  0  0
 33 32  1  0  0  0  0
 34 33  1  0  0  0  0
 35 34  1  0  0  0  0
 36 37  1  0  0  0  0
 36 35  1  0  0  0  0
 37 39  1  0  0  0  0
 38 37  2  0  0  0  0
 40 42  1  0  0  0  0
 41 42  2  0  0  0  0
 42 36  1  0  0  0  0
M  END
>  <MODEL>
5

>  <REMARK>
 VINA RESULT:      -7.8      3.793      9.672
  Name = 
  13 active torsions:
  status: ('A' for Active; 'I' for Inactive)
    1  A    between atoms: C_1  and  C_18
    2  A    between atoms: C_1  and  C_21
    3  A    between atoms: C_3  and  C_5
    4  A    between atoms: C_3  and  C_16
    5  A    between atoms: C_3  and  C_34
    6  A    between atoms: C_6  and  N_24
    7  A    between atoms: C_8  and  C_23
    8  A    between atoms: C_15  and  C_29
    9  A    between atoms: C_16  and  C_41
   10  A    between atoms: C_18  and  C_41
   11  A    between atoms: C_21  and  N_24
   12  A    between atoms: N_25  and  C_31
   13  A    between atoms: C_31  and  C_38
                            x       y       z     vdW  Elec       q    Type
                         _______ _______ _______ _____ _____    ______ ____

>  <TORSDO>
F 13

$$$$
=
 OpenBabel10222419293D

 42 48  0  0  1  0  0  0  0  0999 V2000
  187.0930  177.9040  143.3170 C   0  0  0  0  0  0  0  0  0  0  0  0
  186.2020  177.8850  144.4030 C   0  0  0  0  0  3  0  0  0  0  0  0
  188.4540  177.5690  143.5230 C   0  0  0  0  0  0  0  0  0  0  0  0
  186.6480  177.5620  145.6860 C   0  0  0  0  0  3  0  0  0  0  0  0
  188.8860  177.2600  144.8250 C   0  0  0  0  0  3  0  0  0  0  0  0
  187.9980  177.2630  145.9050 C   0  0  0  0  0  0  0  0  0  0  0  0
  189.9530  176.8940  138.9690 C   0  0  1  0  0  0  0  0  0  0  0  0
  190.2180  175.2010  137.2610 C   0  0  1  0  0  0  0  0  0  0  0  0
  189.4310  177.5040  142.4020 C   0  0  0  0  0  0  0  0  0  0  0  0
  191.9960  177.5100  140.3820 C   0  0  0  0  0  2  0  0  0  0  0  0
  191.3430  176.4550  139.4900 C   0  0  0  0  0  2  0  0  0  0  0  0
  188.9570  174.2870  137.0710 C   0  0  1  0  0  3  0  0  0  0  0  0
  189.1620  174.7850  135.1400 C   0  0  2  0  0  3  0  0  0  0  0  0
  188.8020  176.9420  139.9410 C   0  0  0  0  0  3  0  0  0  0  0  0
  190.0580  177.9560  137.9350 C   0  0  1  0  0  3  0  0  0  0  0  0
  189.7050  176.1940  135.0500 C   0  0  0  0  0  2  0  0  0  0  0  0
  188.1010  174.7790  136.0590 O   0  0  0  0  0  0  0  0  0  0  0  0
  191.8720  177.1390  141.8570 C   0  0  0  0  0  2  0  0  0  0  0  0
  190.4600  176.3980  136.3660 C   0  0  1  0  0  3  0  0  0  0  0  0
  189.0410  177.2230  141.1870 C   0  0  0  0  0  0  0  0  0  0  0  0
  190.8360  178.0170  142.5670 C   0  0  0  0  0  2  0  0  0  0  0  0
  189.4980  176.5830  137.5070 C   0  0  1  0  0  0  0  0  0  0  0  0
  190.0800  174.1700  136.1380 C   0  0  1  0  0  3  0  0  0  0  0  0
  187.9070  178.6340  136.8990 C   0  0  0  0  0  1  0  0  0  0  0  0
  188.9300  178.9800  137.9600 C   0  0  0  0  0  2  0  0  0  0  0  0
  188.5080  176.8970  147.2700 C   0  0  1  0  0  3  0  0  0  0  0  0
  190.0250  177.0290  147.3690 C   0  0  0  0  0  1  0  0  0  0  0  0
  188.4820  178.2510  149.1340 O   0  0  0  0  0  0  0  0  0  0  0  0
  187.8510  177.6630  148.3070 N   0  0  0  0  0  0  0  0  0  0  0  0
  186.6280  178.3010  142.0220 N   0  0  0  0  0  2  0  0  0  0  0  0
  185.5850  179.2930  141.8080 C   0  0  0  0  0  2  0  0  0  0  0  0
  184.7480  178.9060  140.5990 C   0  0  0  0  0  2  0  0  0  0  0  0
  183.6980  177.8650  140.9640 C   0  0  0  0  0  2  0  0  0  0  0  0
  182.5730  177.8300  139.9380 C   0  0  0  0  0  2  0  0  0  0  0  0
  181.2100  177.9140  140.6120 C   0  0  0  0  0  2  0  0  0  0  0  0
  181.1480  179.0790  141.5950 C   0  0  0  0  0  3  0  0  0  0  0  0
  180.3010  180.1940  141.0660 C   0  0  0  0  0  0  0  0  0  0  0  0
  180.0880  180.2810  139.8300 O   0  0  0  0  0  0  0  0  0  0  0  0
  179.7490  181.1340  141.9290 O   0  0  0  0  0  1  0  0  0  0  0  0
  181.1920  179.0480  143.9750 O   0  0  0  0  0  1  0  0  0  0  0  0
  179.5780  177.7390  143.0100 O   0  0  0  0  0  0  0  0  0  0  0  0
  180.6490  178.6190  142.9240 C   0  0  0  0  0  0  0  0  0  0  0  0
  1  3  2  0  0  0  0
  1  2  1  0  0  0  0
  2  4  2  0  0  0  0
  3  5  1  0  0  0  0
  4  6  1  0  0  0  0
  5  6  2  0  0  0  0
  6 26  1  0  0  0  0
  7 11  1  1  0  0  0
  7 14  1  0  0  0  0
  8 22  1  0  0  0  0
  9 21  1  0  0  0  0
  9  3  1  0  0  0  0
 10 18  1  0  0  0  0
 11 10  1  0  0  0  0
 12  8  1  0  0  0  0
 13 17  1  0  0  0  0
 13 23  1  0  0  0  0
 14 20  2  0  0  0  0
 15 25  1  0  0  0  0
 15  7  1  0  0  0  0
 16 13  1  0  0  0  0
 16 19  1  0  0  0  0
 17 12  1  0  0  0  0
 18 21  1  0  0  0  0
 19  8  1  0  0  0  0
 19 22  1  0  0  0  0
 20  9  2  0  0  0  0
 22 15  1  0  0  0  0
 22  7  1  0  0  0  0
 23 12  1  0  0  0  0
 23  8  1  0  0  0  0
 24 25  1  0  0  0  0
 26 27  1  0  0  0  0
 26 29  1  0  0  0  0
 29 28  2  0  0  0  0
 30  1  1  0  0  0  0
 31 30  1  0  0  0  0
 32 33  1  0  0  0  0
 32 31  1  0  0  0  0
 34 35  1  0  0  0  0
 34 33  1  0  0  0  0
 35 36  1  0  0  0  0
 36 42  1  0  0  0  0
 37 36  1  0  0  0  0
 37 39  1  0  0  0  0
 38 37  2  0  0  0  0
 42 41  2  0  0  0  0
 42 40  1  0  0  0  0
M  END
>  <MODEL>
6

>  <REMARK>
 VINA RESULT:      -7.8      3.489      9.387
  Name = 
  13 active torsions:
  status: ('A' for Active; 'I' for Inactive)
    1  A    between atoms: C_1  and  C_18
    2  A    between atoms: C_1  and  C_21
    3  A    between atoms: C_3  and  C_5
    4  A    between atoms: C_3  and  C_16
    5  A    between atoms: C_3  and  C_34
    6  A    between atoms: C_6  and  N_24
    7  A    between atoms: C_8  and  C_23
    8  A    between atoms: C_15  and  C_29
    9  A    between atoms: C_16  and  C_41
   10  A    between atoms: C_18  and  C_41
   11  A    between atoms: C_21  and  N_24
   12  A    between atoms: N_25  and  C_31
   13  A    between atoms: C_31  and  C_38
                            x       y       z     vdW  Elec       q    Type
                         _______ _______ _______ _____ _____    ______ ____

>  <TORSDO>
F 13

$$$$
=
 OpenBabel10222419293D

 42 48  0  0  1  0  0  0  0  0999 V2000
  186.2790  178.9850  141.3640 C   0  0  0  0  0  0  0  0  0  0  0  0
  187.6630  178.7530  141.4240 C   0  0  0  0  0  3  0  0  0  0  0  0
  185.5690  178.6750  140.1780 C   0  0  0  0  0  0  0  0  0  0  0  0
  188.3500  178.2430  140.3210 C   0  0  0  0  0  3  0  0  0  0  0  0
  186.2810  178.1750  139.0730 C   0  0  0  0  0  3  0  0  0  0  0  0
  187.6620  177.9670  139.1330 C   0  0  0  0  0  0  0  0  0  0  0  0
  181.3970  180.3800  138.4110 C   0  0  1  0  0  0  0  0  0  0  0  0
  180.0810  182.3980  138.1900 C   0  0  1  0  0  0  0  0  0  0  0  0
  184.0920  178.8330  140.0750 C   0  0  0  0  0  0  0  0  0  0  0  0
  180.8380  178.7830  140.3310 C   0  0  0  0  0  2  0  0  0  0  0  0
  180.7360  180.2120  139.8010 C   0  0  0  0  0  2  0  0  0  0  0  0
  180.9000  183.6390  137.6840 C   0  0  1  0  0  3  0  0  0  0  0  0
  179.4300  183.7750  136.3280 C   0  0  2  0  0  3  0  0  0  0  0  0
  182.8990  180.3350  138.3170 C   0  0  0  0  0  3  0  0  0  0  0  0
  180.5950  179.7390  137.3360 C   0  0  1  0  0  3  0  0  0  0  0  0
  178.9380  182.3850  135.9920 C   0  0  0  0  0  2  0  0  0  0  0  0
  180.8320  183.7720  136.2790 O   0  0  0  0  0  0  0  0  0  0  0  0
  181.9370  178.6590  141.3830 C   0  0  0  0  0  2  0  0  0  0  0  0
  179.2710  181.5520  137.2320 C   0  0  1  0  0  3  0  0  0  0  0  0
  183.5620  179.6000  139.1590 C   0  0  0  0  0  0  0  0  0  0  0  0
  183.1590  177.9230  140.8270 C   0  0  0  0  0  2  0  0  0  0  0  0
  180.7470  181.2740  137.3060 C   0  0  1  0  0  0  0  0  0  0  0  0
  179.4450  183.7400  137.8160 C   0  0  1  0  0  3  0  0  0  0  0  0
  181.0320  177.6710  136.0330 C   0  0  0  0  0  1  0  0  0  0  0  0
  181.4190  179.1240  136.2110 C   0  0  0  0  0  2  0  0  0  0  0  0
  188.3680  177.4030  137.9320 C   0  0  1  0  0  3  0  0  0  0  0  0
  188.1840  178.2790  136.6970 C   0  0  0  0  0  1  0  0  0  0  0  0
  190.2560  176.0880  138.0650 O   0  0  0  0  0  0  0  0  0  0  0  0
  189.7720  177.1720  138.2000 N   0  0  0  0  0  0  0  0  0  0  0  0
  185.6050  179.5690  142.4840 N   0  0  0  0  0  2  0  0  0  0  0  0
  185.4280  178.8930  143.7610 C   0  0  0  0  0  2  0  0  0  0  0  0
  186.1210  177.5400  143.7270 C   0  0  0  0  0  2  0  0  0  0  0  0
  186.7100  177.1870  145.0860 C   0  0  0  0  0  2  0  0  0  0  0  0
  188.0290  177.9100  145.3240 C   0  0  0  0  0  2  0  0  0  0  0  0
  189.1790  177.2060  144.6150 C   0  0  0  0  0  2  0  0  0  0  0  0
  190.5230  177.8220  144.9940 C   0  0  0  0  0  3  0  0  0  0  0  0
  191.4260  176.8120  145.6300 C   0  0  0  0  0  0  0  0  0  0  0  0
  191.7850  175.7990  144.9760 O   0  0  0  0  0  0  0  0  0  0  0  0
  191.8710  176.9840  146.9360 O   0  0  0  0  0  1  0  0  0  0  0  0
  191.7120  179.5690  143.8970 O   0  0  0  0  0  1  0  0  0  0  0  0
  191.2080  177.7580  142.5870 O   0  0  0  0  0  0  0  0  0  0  0  0
  191.1740  178.4360  143.7990 C   0  0  0  0  0  0  0  0  0  0  0  0
  1  2  1  0  0  0  0
  1 30  1  0  0  0  0
  3  1  2  0  0  0  0
  4  2  2  0  0  0  0
  5  6  2  0  0  0  0
  5  3  1  0  0  0  0
  6  4  1  0  0  0  0
  7 14  1  6  0  0  0
  7 11  1  0  0  0  0
  9  3  1  0  0  0  0
  9 21  1  0  0  0  0
 10 18  1  0  0  0  0
 11 10  1  0  0  0  0
 12 23  1  0  0  0  0
 12  8  1  0  0  0  0
 13 23  1  0  0  0  0
 14 20  2  0  0  0  0
 15  7  1  0  0  0  0
 16 13  1  0  0  0  0
 16 19  1  0  0  0  0
 17 13  1  0  0  0  0
 17 12  1  0  0  0  0
 19 22  1  0  0  0  0
 19  8  1  0  0  0  0
 20  9  2  0  0  0  0
 21 18  1  0  0  0  0
 22 15  1  0  0  0  0
 22  8  1  0  0  0  0
 22  7  1  0  0  0  0
 23  8  1  0  0  0  0
 24 25  1  0  0  0  0
 25 15  1  0  0  0  0
 26 29  1  0  0  0  0
 26  6  1  0  0  0  0
 27 26  1  0  0  0  0
 28 29  2  0  0  0  0
 30 31  1  0  0  0  0
 32 31  1  0  0  0  0
 32 33  1  0  0  0  0
 33 34  1  0  0  0  0
 35 36  1  0  0  0  0
 35 34  1  0  0  0  0
 36 37  1  0  0  0  0
 37 39  1  0  0  0  0
 38 37  2  0  0  0  0
 41 42  2  0  0  0  0
 42 40  1  0  0  0  0
 42 36  1  0  0  0  0
M  END
>  <MODEL>
7

>  <REMARK>
 VINA RESULT:      -7.6      1.420      2.048
  Name = 
  13 active torsions:
  status: ('A' for Active; 'I' for Inactive)
    1  A    between atoms: C_1  and  C_18
    2  A    between atoms: C_1  and  C_21
    3  A    between atoms: C_3  and  C_5
    4  A    between atoms: C_3  and  C_16
    5  A    between atoms: C_3  and  C_34
    6  A    between atoms: C_6  and  N_24
    7  A    between atoms: C_8  and  C_23
    8  A    between atoms: C_15  and  C_29
    9  A    between atoms: C_16  and  C_41
   10  A    between atoms: C_18  and  C_41
   11  A    between atoms: C_21  and  N_24
   12  A    between atoms: N_25  and  C_31
   13  A    between atoms: C_31  and  C_38
                            x       y       z     vdW  Elec       q    Type
                         _______ _______ _______ _____ _____    ______ ____

>  <TORSDO>
F 13

$$$$
=
 OpenBabel10222419293D

 42 48  0  0  1  0  0  0  0  0999 V2000
  184.2340  178.5510  142.5150 C   0  0  0  0  0  0  0  0  0  0  0  0
  183.7280  178.9790  143.7540 C   0  0  0  0  0  3  0  0  0  0  0  0
  183.3520  178.3770  141.4210 C   0  0  0  0  0  0  0  0  0  0  0  0
  182.3620  179.2120  143.9240 C   0  0  0  0  0  3  0  0  0  0  0  0
  181.9770  178.6030  141.6170 C   0  0  0  0  0  3  0  0  0  0  0  0
  181.4780  179.0090  142.8580 C   0  0  0  0  0  0  0  0  0  0  0  0
  183.6970  175.6480  137.4370 C   0  0  1  0  0  0  0  0  0  0  0  0
  184.4680  173.4990  136.6370 C   0  0  1  0  0  0  0  0  0  0  0  0
  183.8350  177.9920  140.0670 C   0  0  0  0  0  0  0  0  0  0  0  0
  185.2390  177.6690  137.1370 C   0  0  0  0  0  2  0  0  0  0  0  0
  185.1470  176.1460  137.2190 C   0  0  0  0  0  2  0  0  0  0  0  0
  184.0170  172.2890  137.5280 C   0  0  1  0  0  3  0  0  0  0  0  0
  183.3660  171.5370  135.7880 C   0  0  2  0  0  3  0  0  0  0  0  0
  183.0540  175.8690  138.7820 C   0  0  0  0  0  3  0  0  0  0  0  0
  182.8670  175.8070  136.2140 C   0  0  1  0  0  3  0  0  0  0  0  0
  182.9050  172.6720  134.9020 C   0  0  0  0  0  2  0  0  0  0  0  0
  182.8100  171.7180  137.0640 O   0  0  0  0  0  0  0  0  0  0  0  0
  185.7540  178.2630  138.4450 C   0  0  0  0  0  2  0  0  0  0  0  0
  183.6970  173.8860  135.3940 C   0  0  1  0  0  3  0  0  0  0  0  0
  183.3920  176.9130  139.4780 C   0  0  0  0  0  0  0  0  0  0  0  0
  184.6300  178.9520  139.2240 C   0  0  0  0  0  2  0  0  0  0  0  0
  183.1580  174.3740  136.7100 C   0  0  1  0  0  0  0  0  0  0  0  0
  184.6900  172.0330  136.2530 C   0  0  1  0  0  3  0  0  0  0  0  0
  180.8800  177.0280  135.3650 C   0  0  0  0  0  1  0  0  0  0  0  0
  181.4060  176.1500  136.4800 C   0  0  0  0  0  2  0  0  0  0  0  0
  180.0040  179.2650  143.0030 C   0  0  1  0  0  3  0  0  0  0  0  0
  179.4570  178.7290  144.3230 C   0  0  0  0  0  1  0  0  0  0  0  0
  179.6820  181.1800  141.7630 O   0  0  0  0  0  0  0  0  0  0  0  0
  179.6890  180.6680  142.8430 N   0  0  0  0  0  0  0  0  0  0  0  0
  185.6290  178.2560  142.3790 N   0  0  0  0  0  2  0  0  0  0  0  0
  186.4530  177.7380  143.4620 C   0  0  0  0  0  2  0  0  0  0  0  0
  187.7900  177.2690  142.9110 C   0  0  0  0  0  2  0  0  0  0  0  0
  188.0640  177.8710  141.5390 C   0  0  0  0  0  2  0  0  0  0  0  0
  189.4130  177.4210  140.9950 C   0  0  0  0  0  2  0  0  0  0  0  0
  189.7490  178.1370  139.6920 C   0  0  0  0  0  2  0  0  0  0  0  0
  189.5080  177.2340  138.4860 C   0  0  0  0  0  3  0  0  0  0  0  0
  189.2830  178.0350  137.2420 C   0  0  0  0  0  0  0  0  0  0  0  0
  189.4340  177.4930  136.1170 O   0  0  0  0  0  0  0  0  0  0  0  0
  188.9090  179.3720  137.3190 O   0  0  0  0  0  1  0  0  0  0  0  0
  190.4230  175.0470  138.2660 O   0  0  0  0  0  1  0  0  0  0  0  0
  191.9440  176.7580  138.1610 O   0  0  0  0  0  0  0  0  0  0  0  0
  190.6460  176.2850  138.3060 C   0  0  0  0  0  0  0  0  0  0  0  0
  1  2  1  0  0  0  0
  2  4  2  0  0  0  0
  3  5  1  0  0  0  0
  3  1  2  0  0  0  0
  5  6  2  0  0  0  0
  6 26  1  0  0  0  0
  6  4  1  0  0  0  0
  7 11  1  6  0  0  0
  7 14  1  0  0  0  0
  8 22  1  0  0  0  0
  8 12  1  0  0  0  0
  9  3  1  0  0  0  0
 10 11  1  0  0  0  0
 10 18  1  0  0  0  0
 13 23  1  0  0  0  0
 13 17  1  0  0  0  0
 14 20  2  0  0  0  0
 15 25  1  0  0  0  0
 15 22  1  0  0  0  0
 15  7  1  0  0  0  0
 16 19  1  0  0  0  0
 16 13  1  0  0  0  0
 17 12  1  0  0  0  0
 18 21  1  0  0  0  0
 19  8  1  0  0  0  0
 19 22  1  0  0  0  0
 20  9  2  0  0  0  0
 21  9  1  0  0  0  0
 22  7  1  0  0  0  0
 23  8  1  0  0  0  0
 23 12  1  0  0  0  0
 24 25  1  0  0  0  0
 26 27  1  0  0  0  0
 28 29  2  0  0  0  0
 29 26  1  0  0  0  0
 30  1  1  0  0  0  0
 30 31  1  0  0  0  0
 32 31  1  0  0  0  0
 33 32  1  0  0  0  0
 34 33  1  0  0  0  0
 35 34  1  0  0  0  0
 36 35  1  0  0  0  0
 37 39  1  0  0  0  0
 37 36  1  0  0  0  0
 38 37  2  0  0  0  0
 40 42  1  0  0  0  0
 41 42  2  0  0  0  0
 42 36  1  0  0  0  0
M  END
>  <MODEL>
8

>  <REMARK>
 VINA RESULT:      -7.6      4.402      7.645
  Name = 
  13 active torsions:
  status: ('A' for Active; 'I' for Inactive)
    1  A    between atoms: C_1  and  C_18
    2  A    between atoms: C_1  and  C_21
    3  A    between atoms: C_3  and  C_5
    4  A    between atoms: C_3  and  C_16
    5  A    between atoms: C_3  and  C_34
    6  A    between atoms: C_6  and  N_24
    7  A    between atoms: C_8  and  C_23
    8  A    between atoms: C_15  and  C_29
    9  A    between atoms: C_16  and  C_41
   10  A    between atoms: C_18  and  C_41
   11  A    between atoms: C_21  and  N_24
   12  A    between atoms: N_25  and  C_31
   13  A    between atoms: C_31  and  C_38
                            x       y       z     vdW  Elec       q    Type
                         _______ _______ _______ _____ _____    ______ ____

>  <TORSDO>
F 13

$$$$
=
 OpenBabel10222419293D

 42 48  0  0  1  0  0  0  0  0999 V2000
  185.4160  178.7460  140.5080 C   0  0  0  0  0  0  0  0  0  0  0  0
  186.6750  178.5240  141.0910 C   0  0  0  0  0  3  0  0  0  0  0  0
  184.2570  178.7390  141.3220 C   0  0  0  0  0  0  0  0  0  0  0  0
  186.7930  178.2740  142.4600 C   0  0  0  0  0  3  0  0  0  0  0  0
  184.3950  178.4710  142.6960 C   0  0  0  0  0  3  0  0  0  0  0  0
  185.6490  178.2300  143.2660 C   0  0  0  0  0  0  0  0  0  0  0  0
  181.0090  180.7600  138.3550 C   0  0  1  0  0  0  0  0  0  0  0  0
  180.0430  182.8850  137.7200 C   0  0  1  0  0  0  0  0  0  0  0  0
  182.9040  179.0350  140.7760 C   0  0  0  0  0  0  0  0  0  0  0  0
  179.7360  179.3140  140.0400 C   0  0  0  0  0  2  0  0  0  0  0  0
  179.9500  180.7210  139.4840 C   0  0  0  0  0  2  0  0  0  0  0  0
  181.1020  184.0160  137.4670 C   0  0  1  0  0  3  0  0  0  0  0  0
  180.1280  184.2330  135.7290 C   0  0  2  0  0  3  0  0  0  0  0  0
  182.4580  180.5650  138.7190 C   0  0  0  0  0  3  0  0  0  0  0  0
  180.5010  180.1520  137.0980 C   0  0  1  0  0  3  0  0  0  0  0  0
  179.6140  182.8840  135.2800 C   0  0  0  0  0  2  0  0  0  0  0  0
  181.4720  184.0910  136.1050 O   0  0  0  0  0  0  0  0  0  0  0  0
  180.4510  179.1320  141.3750 C   0  0  0  0  0  2  0  0  0  0  0  0
  179.4700  182.0790  136.5740 C   0  0  1  0  0  3  0  0  0  0  0  0
  182.7570  179.8080  139.7330 C   0  0  0  0  0  0  0  0  0  0  0  0
  181.6980  178.2550  141.2250 C   0  0  0  0  0  2  0  0  0  0  0  0
  180.8180  181.6630  137.0940 C   0  0  1  0  0  0  0  0  0  0  0  0
  179.6940  184.2640  137.1530 C   0  0  1  0  0  3  0  0  0  0  0  0
  180.9920  178.0830  135.8170 C   0  0  0  0  0  1  0  0  0  0  0  0
  181.5530  179.4100  136.2820 C   0  0  0  0  0  2  0  0  0  0  0  0
  185.7420  177.9780  144.7440 C   0  0  1  0  0  3  0  0  0  0  0  0
  187.1430  177.5420  145.1640 C   0  0  0  0  0  1  0  0  0  0  0  0
  184.6730  178.9960  146.5140 O   0  0  0  0  0  0  0  0  0  0  0  0
  185.3050  179.1260  145.5080 N   0  0  0  0  0  0  0  0  0  0  0  0
  185.3110  178.9370  139.0930 N   0  0  0  0  0  2  0  0  0  0  0  0
  185.1900  177.8450  138.1380 C   0  0  0  0  0  2  0  0  0  0  0  0
  186.3360  177.9050  137.1400 C   0  0  0  0  0  2  0  0  0  0  0  0
  187.6370  177.4150  137.7630 C   0  0  0  0  0  2  0  0  0  0  0  0
  188.7550  178.4340  137.5840 C   0  0  0  0  0  2  0  0  0  0  0  0
  189.7490  178.3690  138.7380 C   0  0  0  0  0  2  0  0  0  0  0  0
  189.8990  176.9430  139.2600 C   0  0  0  0  0  3  0  0  0  0  0  0
  190.8060  176.1350  138.3870 C   0  0  0  0  0  0  0  0  0  0  0  0
  190.6720  174.8850  138.3390 O   0  0  0  0  0  1  0  0  0  0  0  0
  191.7960  176.7520  137.6300 O   0  0  0  0  0  0  0  0  0  0  0  0
  191.4850  177.5030  140.9450 O   0  0  0  0  0  0  0  0  0  0  0  0
  189.6350  176.3690  141.6830 O   0  0  0  0  0  1  0  0  0  0  0  0
  190.3880  176.9500  140.6700 C   0  0  0  0  0  0  0  0  0  0  0  0
  1  2  2  0  0  0  0
  1  3  1  0  0  0  0
  2  4  1  0  0  0  0
  3  5  2  0  0  0  0
  4  6  2  0  0  0  0
  5  6  1  0  0  0  0
  6 26  1  0  0  0  0
  7 14  1  1  0  0  0
  7 11  1  0  0  0  0
  9 21  1  0  0  0  0
  9  3  1  0  0  0  0
 10 18  1  0  0  0  0
 11 10  1  0  0  0  0
 12  8  1  0  0  0  0
 13 17  1  0  0  0  0
 13 23  1  0  0  0  0
 14 20  2  0  0  0  0
 15  7  1  0  0  0  0
 16 13  1  0  0  0  0
 16 19  1  0  0  0  0
 17 12  1  0  0  0  0
 19 22  1  0  0  0  0
 19  8  1  0  0  0  0
 20  9  2  0  0  0  0
 21 18  1  0  0  0  0
 22 15  1  0  0  0  0
 22  8  1  0  0  0  0
 22  7  1  0  0  0  0
 23 12  1  0  0  0  0
 23  8  1  0  0  0  0
 24 25  1  0  0  0  0
 25 15  1  0  0  0  0
 26 27  1  0  0  0  0
 26 29  1  0  0  0  0
 29 28  2  0  0  0  0
 30  1  1  0  0  0  0
 31 30  1  0  0  0  0
 32 33  1  0  0  0  0
 32 31  1  0  0  0  0
 34 33  1  0  0  0  0
 34 35  1  0  0  0  0
 35 36  1  0  0  0  0
 36 42  1  0  0  0  0
 37 36  1  0  0  0  0
 38 37  1  0  0  0  0
 39 37  2  0  0  0  0
 42 40  2  0  0  0  0
 42 41  1  0  0  0  0
M  END
>  <MODEL>
9

>  <REMARK>
 VINA RESULT:      -7.5      2.091      4.933
  Name = 
  13 active torsions:
  status: ('A' for Active; 'I' for Inactive)
    1  A    between atoms: C_1  and  C_18
    2  A    between atoms: C_1  and  C_21
    3  A    between atoms: C_3  and  C_5
    4  A    between atoms: C_3  and  C_16
    5  A    between atoms: C_3  and  C_34
    6  A    between atoms: C_6  and  N_24
    7  A    between atoms: C_8  and  C_23
    8  A    between atoms: C_15  and  C_29
    9  A    between atoms: C_16  and  C_41
   10  A    between atoms: C_18  and  C_41
   11  A    between atoms: C_21  and  N_24
   12  A    between atoms: N_25  and  C_31
   13  A    between atoms: C_31  and  C_38
                            x       y       z     vdW  Elec       q    Type
                         _______ _______ _______ _____ _____    ______ ____

>  <TORSDO>
F 13

$$$$
