=
 OpenBabel10222416063D

 61 65  0  0  1  0  0  0  0  0999 V2000
  181.2860  177.4790  139.3530 C   0  0  0  0  0  0  0  0  0  0  0  0
  184.8120  176.9100  137.5900 O   0  0  0  0  0  0  0  0  0  0  0  0
  185.7050  178.7840  138.6970 N   0  0  0  0  0  2  0  0  0  0  0  0
  185.1600  179.4610  140.9160 N   0  0  0  0  0  0  0  0  0  0  0  0
  182.6070  177.7920  138.9700 C   0  0  0  0  0  3  0  0  0  0  0  0
  183.0730  178.5040  141.2310 C   0  0  0  0  0  0  0  0  0  0  0  0
  181.7650  178.2270  141.6380 C   0  0  0  0  0  3  0  0  0  0  0  0
  184.8010  178.8850  139.8080 C   0  0  0  0  0  0  0  0  0  0  0  0
  184.1320  179.2810  141.9450 C   0  0  1  0  0  3  0  0  0  0  0  0
  185.7410  177.7620  137.6890 C   0  0  0  0  0  0  0  0  0  0  0  0
  180.8740  177.6910  140.6900 C   0  0  0  0  0  3  0  0  0  0  0  0
  183.4840  178.2780  139.9410 C   0  0  0  0  0  0  0  0  0  0  0  0
  184.1160  178.6900  144.4060 C   0  0  0  0  0  0  0  0  0  0  0  0
  184.7210  178.5620  143.1410 C   0  0  0  0  0  0  0  0  0  0  0  0
  185.9850  177.9650  143.0580 C   0  0  0  0  0  3  0  0  0  0  0  0
  186.6290  177.5280  144.2190 C   0  0  0  0  0  3  0  0  0  0  0  0
  182.8210  179.4210  144.5690 C   0  0  0  0  0  1  0  0  0  0  0  0
  184.7620  178.2530  145.5230 N   0  0  0  0  0  0  0  0  0  0  0  0
  186.0080  177.7090  145.4550 C   0  0  0  0  0  0  0  0  0  0  0  0
  186.7420  177.3430  146.7060 C   0  0  0  0  0  2  0  0  0  0  0  0
  187.6180  178.4340  147.1150 N   0  0  0  0  0  0  0  0  0  0  0  0
  186.9420  179.1600  148.0410 O   0  0  0  0  0  1  0  0  0  0  0  0
  190.1730  176.8660  146.6100 C   0  0  1  0  0  0  0  0  0  0  0  0
  188.8130  177.8420  147.7220 C   0  0  1  0  0  3  0  0  0  0  0  0
  188.9590  176.5220  147.2360 O   0  0  0  0  0  0  0  0  0  0  0  0
  190.1070  178.3010  147.0700 C   0  0  0  0  0  2  0  0  0  0  0  0
  192.1460  176.9660  147.9950 O   0  0  0  0  0  1  0  0  0  0  0  0
  191.3220  176.1040  147.2640 C   0  0  0  0  0  2  0  0  0  0  0  0
  190.1530  176.6550  145.0890 C   0  0  0  0  0  2  0  0  0  0  0  0
  191.5360  176.5030  144.4490 C   0  0  0  0  0  2  0  0  0  0  0  0
  191.6270  177.3050  143.1600 C   0  0  0  0  0  2  0  0  0  0  0  0
  191.1210  178.6540  143.3740 N   0  0  0  0  0  2  0  0  0  0  0  0
  192.0060  179.2730  144.1870 O   0  0  0  0  0  1  0  0  0  0  0  0
  179.6560  175.7960  138.9110 O   0  0  0  0  0  1  0  0  0  0  0  0
  180.3000  176.9170  138.3720 C   0  0  2  0  0  3  0  0  0  0  0  0
  181.1270  175.3860  136.6880 C   0  0  0  0  0  3  0  0  0  0  0  0
  181.6220  174.9090  135.3610 C   0  0  0  0  0  2  0  0  0  0  0  0
  182.1430  177.8050  135.1460 C   0  0  0  0  0  3  0  0  0  0  0  0
  180.8740  176.6680  136.9910 C   0  0  0  0  0  0  0  0  0  0  0  0
  183.1690  176.7670  134.9150 C   0  0  0  0  0  3  0  0  0  0  0  0
  182.9840  175.4560  135.0510 C   0  0  0  0  0  0  0  0  0  0  0  0
  181.1170  177.7870  136.0210 C   0  0  0  0  0  0  0  0  0  0  0  0
  185.2690  174.8980  135.3030 O   0  0  0  0  0  0  0  0  0  0  0  0
  185.6420  172.2070  135.9180 O   0  0  0  0  0  0  0  0  0  0  0  0
  184.1280  174.5550  134.6690 C   0  0  0  0  0  2  0  0  0  0  0  0
  184.1800  173.8680  137.4780 O   0  0  0  0  0  0  0  0  0  0  0  0
  184.5640  173.4930  136.0640 P   0  0  0  0  0  0  0  0  0  0  0  0
  179.2290  178.8090  135.0160 O   0  0  0  0  0  1  0  0  0  0  0  0
  180.1920  178.9750  136.0110 C   0  0  2  0  0  3  0  0  0  0  0  0
  180.9430  180.2830  135.7890 C   0  0  0  0  0  2  0  0  0  0  0  0
  180.5780  181.3320  136.8320 C   0  0  0  0  0  2  0  0  0  0  0  0
  182.2990  181.5840  138.6320 C   0  0  0  0  0  1  0  0  0  0  0  0
  181.0240  180.8720  138.2120 C   0  0  0  0  0  3  0  0  0  0  0  0
  179.9370  181.1470  139.2250 C   0  0  0  0  0  1  0  0  0  0  0  0
  186.9660  177.6200  136.8380 C   0  0  0  0  0  2  0  0  0  0  0  0
  188.4360  178.7760  138.3170 O   0  0  0  0  0  0  0  0  0  0  0  0
  188.2200  177.7290  137.6400 C   0  0  0  0  0  0  0  0  0  0  0  0
  189.1930  175.4590  136.9060 C   0  0  0  0  0  0  0  0  0  0  0  0
  189.1680  176.6460  137.7170 N   0  0  0  0  0  2  0  0  0  0  0  0
  190.1350  174.3600  137.2550 C   0  0  0  0  0  1  0  0  0  0  0  0
  188.4340  175.3330  135.8680 N   0  0  0  0  0  2  0  0  0  0  0  0
  1 11  1  0  0  0  0
  2 10  2  0  0  0  0
  3  8  1  0  0  0  0
  4  9  1  0  0  0  0
  5  1  2  0  0  0  0
  5 12  1  0  0  0  0
  6  7  1  0  0  0  0
  6  9  1  0  0  0  0
  8 12  1  0  0  0  0
  8  4  2  0  0  0  0
  9 14  1  1  0  0  0
 10  3  1  0  0  0  0
 11  7  2  0  0  0  0
 12  6  2  0  0  0  0
 13 17  1  0  0  0  0
 13 18  1  0  0  0  0
 14 13  2  0  0  0  0
 15 14  1  0  0  0  0
 15 16  2  0  0  0  0
 16 19  1  0  0  0  0
 19 18  2  0  0  0  0
 19 20  1  0  0  0  0
 20 21  1  0  0  0  0
 21 22  1  0  0  0  0
 23 29  1  6  0  0  0
 23 26  1  0  0  0  0
 23 25  1  0  0  0  0
 23 28  1  0  0  0  0
 24 21  1  6  0  0  0
 25 24  1  0  0  0  0
 26 24  1  0  0  0  0
 28 27  1  0  0  0  0
 30 29  1  0  0  0  0
 31 32  1  0  0  0  0
 31 30  1  0  0  0  0
 32 33  1  0  0  0  0
 35 34  1  1  0  0  0
 35  1  1  0  0  0  0
 36 39  2  0  0  0  0
 37 36  1  0  0  0  0
 38 42  2  0  0  0  0
 39 35  1  0  0  0  0
 40 41  2  0  0  0  0
 40 38  1  0  0  0  0
 41 37  1  0  0  0  0
 42 39  1  0  0  0  0
 43 47  1  0  0  0  0
 44 47  2  0  0  0  0
 45 41  1  0  0  0  0
 45 43  1  0  0  0  0
 47 46  2  0  0  0  0
 49 48  1  6  0  0  0
 49 42  1  0  0  0  0
 50 49  1  0  0  0  0
 50 51  1  0  0  0  0
 51 53  1  0  0  0  0
 53 52  1  0  0  0  0
 53 54  1  0  0  0  0
 55 57  1  0  0  0  0
 55 10  1  0  0  0  0
 57 59  1  0  0  0  0
 57 56  2  0  0  0  0
 58 60  1  0  0  0  0
 58 59  1  0  0  0  0
 61 58  2  0  0  0  0
M  END
>  <MODEL>
1

>  <REMARK>
 VINA RESULT:      -7.7      0.000      0.000
  Name = 
  18 active torsions:
  status: ('A' for Active; 'I' for Inactive)
    1  A    between atoms: C_2  and  C_40
    2  A    between atoms: C_7  and  C_30
    3  A    between atoms: C_7  and  C_49
    4  A    between atoms: N_11  and  C_36
    5  A    between atoms: C_15  and  C_18
    6  A    between atoms: C_17  and  C_41
    7  A    between atoms: C_18  and  C_48
    8  A    between atoms: C_20  and  C_40
    9  A    between atoms: C_21  and  C_22
   10  A    between atoms: C_21  and  C_53
   11  A    between atoms: C_22  and  C_46
   12  A    between atoms: C_23  and  C_30
   13  A    between atoms: N_24  and  C_38
   14  A    between atoms: N_24  and  C_43
   15  A    between atoms: C_32  and  C_44
   16  A    between atoms: C_36  and  C_49
   17  A    between atoms: C_38  and  C_58
   18  A    between atoms: C_42  and  C_53
                            x       y       z     vdW  Elec       q    Type
                         _______ _______ _______ _____ _____    ______ ____

>  <TORSDO>
F 18

$$$$
=
 OpenBabel10222416063D

 61 65  0  0  1  0  0  0  0  0999 V2000
  188.1450  175.8150  137.0970 C   0  0  0  0  0  0  0  0  0  0  0  0
  191.5010  173.6710  137.0750 O   0  0  0  0  0  0  0  0  0  0  0  0
  192.7380  175.5400  137.7880 N   0  0  0  0  0  2  0  0  0  0  0  0
  191.9620  177.2090  139.3010 N   0  0  0  0  0  0  0  0  0  0  0  0
  189.5340  175.5870  137.1650 C   0  0  0  0  0  3  0  0  0  0  0  0
  189.6600  177.0450  139.0870 C   0  0  0  0  0  0  0  0  0  0  0  0
  188.2900  177.3120  139.0330 C   0  0  0  0  0  3  0  0  0  0  0  0
  191.6970  176.3310  138.3820 C   0  0  0  0  0  0  0  0  0  0  0  0
  190.7230  177.7520  139.8650 C   0  0  1  0  0  3  0  0  0  0  0  0
  192.6290  174.2160  137.2450 C   0  0  0  0  0  0  0  0  0  0  0  0
  187.5270  176.6720  138.0390 C   0  0  0  0  0  3  0  0  0  0  0  0
  190.2600  176.1970  138.1900 C   0  0  0  0  0  0  0  0  0  0  0  0
  189.7220  178.1410  142.1570 C   0  0  0  0  0  0  0  0  0  0  0  0
  190.6750  177.4840  141.3550 C   0  0  0  0  0  0  0  0  0  0  0  0
  191.7070  176.7760  141.9830 C   0  0  0  0  0  3  0  0  0  0  0  0
  191.7880  176.7490  143.3780 C   0  0  0  0  0  3  0  0  0  0  0  0
  188.6650  179.0060  141.5440 C   0  0  0  0  0  1  0  0  0  0  0  0
  189.8190  178.0980  143.5150 N   0  0  0  0  0  0  0  0  0  0  0  0
  190.8440  177.4460  144.1310 C   0  0  0  0  0  0  0  0  0  0  0  0
  190.9930  177.5090  145.6190 C   0  0  0  0  0  2  0  0  0  0  0  0
  189.9630  176.7030  146.2630 N   0  0  0  0  0  0  0  0  0  0  0  0
  190.6000  175.7470  146.9860 O   0  0  0  0  0  1  0  0  0  0  0  0
  187.2300  177.8630  146.9180 C   0  0  1  0  0  0  0  0  0  0  0  0
  189.2050  177.5820  147.1590 C   0  0  1  0  0  3  0  0  0  0  0  0
  188.3960  178.4360  146.3750 O   0  0  0  0  0  0  0  0  0  0  0  0
  188.0000  176.9020  147.7880 C   0  0  0  0  0  2  0  0  0  0  0  0
  185.5810  179.6240  146.9430 O   0  0  0  0  0  1  0  0  0  0  0  0
  186.4800  178.9080  147.7390 C   0  0  0  0  0  2  0  0  0  0  0  0
  186.3210  177.2200  145.8610 C   0  0  0  0  0  2  0  0  0  0  0  0
  186.6130  177.6510  144.4200 C   0  0  0  0  0  2  0  0  0  0  0  0
  185.4410  178.4260  143.8400 C   0  0  0  0  0  2  0  0  0  0  0  0
  185.2340  178.0530  142.4470 N   0  0  0  0  0  2  0  0  0  0  0  0
  184.8230  179.1700  141.8060 O   0  0  0  0  0  1  0  0  0  0  0  0
  187.6650  175.6080  134.7710 O   0  0  0  0  0  1  0  0  0  0  0  0
  187.2950  175.1630  136.0460 C   0  0  2  0  0  3  0  0  0  0  0  0
  185.1840  176.3050  135.7260 C   0  0  0  0  0  3  0  0  0  0  0  0
  183.7110  176.5550  135.7860 C   0  0  0  0  0  2  0  0  0  0  0  0
  184.0290  174.5560  137.9320 C   0  0  0  0  0  3  0  0  0  0  0  0
  185.8040  175.2670  136.3040 C   0  0  0  0  0  0  0  0  0  0  0  0
  183.3700  175.8640  138.1200 C   0  0  0  0  0  3  0  0  0  0  0  0
  183.2520  176.8100  137.1910 C   0  0  0  0  0  0  0  0  0  0  0  0
  185.0730  174.2520  137.1340 C   0  0  0  0  0  0  0  0  0  0  0  0
  181.8700  178.5890  136.4680 O   0  0  0  0  0  0  0  0  0  0  0  0
  179.5020  178.7520  137.9250 O   0  0  0  0  0  0  0  0  0  0  0  0
  182.4540  178.0340  137.5500 C   0  0  0  0  0  2  0  0  0  0  0  0
  180.1990  176.5440  136.5220 O   0  0  0  0  0  0  0  0  0  0  0  0
  180.6890  177.6850  137.3830 P   0  0  0  0  0  0  0  0  0  0  0  0
  186.6080  172.6460  137.9590 O   0  0  0  0  0  1  0  0  0  0  0  0
  185.5150  172.8130  137.1080 C   0  0  2  0  0  3  0  0  0  0  0  0
  185.8800  172.3510  135.7020 C   0  0  0  0  0  2  0  0  0  0  0  0
  184.7530  171.5570  135.0550 C   0  0  0  0  0  2  0  0  0  0  0  0
  182.4140  171.8270  135.9020 C   0  0  0  0  0  1  0  0  0  0  0  0
  183.7460  171.1260  136.1090 C   0  0  0  0  0  3  0  0  0  0  0  0
  183.5420  169.6300  136.0500 C   0  0  0  0  0  1  0  0  0  0  0  0
  193.8760  173.4180  137.0120 C   0  0  0  0  0  2  0  0  0  0  0  0
  195.1110  173.6030  139.0430 O   0  0  0  0  0  0  0  0  0  0  0  0
  195.0230  173.9240  137.8220 C   0  0  0  0  0  0  0  0  0  0  0  0
  196.0770  175.3230  135.9330 C   0  0  0  0  0  0  0  0  0  0  0  0
  196.0740  174.7180  137.2370 N   0  0  0  0  0  2  0  0  0  0  0  0
  197.3280  175.9510  135.4250 C   0  0  0  0  0  1  0  0  0  0  0  0
  195.0140  175.3540  135.1990 N   0  0  0  0  0  2  0  0  0  0  0  0
  1  5  2  0  0  0  0
  1 11  1  0  0  0  0
  2 10  2  0  0  0  0
  3  8  1  0  0  0  0
  4  9  1  0  0  0  0
  5 12  1  0  0  0  0
  6  9  1  0  0  0  0
  7  6  1  0  0  0  0
  8  4  2  0  0  0  0
  9 14  1  1  0  0  0
 10  3  1  0  0  0  0
 11  7  2  0  0  0  0
 12  8  1  0  0  0  0
 12  6  2  0  0  0  0
 13 18  1  0  0  0  0
 14 15  1  0  0  0  0
 14 13  2  0  0  0  0
 15 16  2  0  0  0  0
 16 19  1  0  0  0  0
 17 13  1  0  0  0  0
 18 19  2  0  0  0  0
 19 20  1  0  0  0  0
 20 21  1  0  0  0  0
 21 22  1  0  0  0  0
 23 29  1  6  0  0  0
 23 28  1  0  0  0  0
 23 26  1  0  0  0  0
 24 21  1  6  0  0  0
 24 26  1  0  0  0  0
 25 23  1  0  0  0  0
 25 24  1  0  0  0  0
 27 28  1  0  0  0  0
 30 29  1  0  0  0  0
 31 30  1  0  0  0  0
 32 31  1  0  0  0  0
 33 32  1  0  0  0  0
 35 34  1  6  0  0  0
 35 39  1  0  0  0  0
 35  1  1  0  0  0  0
 36 37  1  0  0  0  0
 36 39  2  0  0  0  0
 37 41  1  0  0  0  0
 38 40  1  0  0  0  0
 39 42  1  0  0  0  0
 41 45  1  0  0  0  0
 41 40  2  0  0  0  0
 42 38  2  0  0  0  0
 43 47  1  0  0  0  0
 43 45  1  0  0  0  0
 46 47  2  0  0  0  0
 47 44  2  0  0  0  0
 49 42  1  0  0  0  0
 49 48  1  1  0  0  0
 50 49  1  0  0  0  0
 51 50  1  0  0  0  0
 51 53  1  0  0  0  0
 52 53  1  0  0  0  0
 54 53  1  0  0  0  0
 55 10  1  0  0  0  0
 55 57  1  0  0  0  0
 57 56  2  0  0  0  0
 58 59  1  0  0  0  0
 59 57  1  0  0  0  0
 60 58  1  0  0  0  0
 61 58  2  0  0  0  0
M  END
>  <MODEL>
2

>  <REMARK>
 VINA RESULT:      -6.5      3.329      6.793
  Name = 
  18 active torsions:
  status: ('A' for Active; 'I' for Inactive)
    1  A    between atoms: C_2  and  C_40
    2  A    between atoms: C_7  and  C_30
    3  A    between atoms: C_7  and  C_49
    4  A    between atoms: N_11  and  C_36
    5  A    between atoms: C_15  and  C_18
    6  A    between atoms: C_17  and  C_41
    7  A    between atoms: C_18  and  C_48
    8  A    between atoms: C_20  and  C_40
    9  A    between atoms: C_21  and  C_22
   10  A    between atoms: C_21  and  C_53
   11  A    between atoms: C_22  and  C_46
   12  A    between atoms: C_23  and  C_30
   13  A    between atoms: N_24  and  C_38
   14  A    between atoms: N_24  and  C_43
   15  A    between atoms: C_32  and  C_44
   16  A    between atoms: C_36  and  C_49
   17  A    between atoms: C_38  and  C_58
   18  A    between atoms: C_42  and  C_53
                            x       y       z     vdW  Elec       q    Type
                         _______ _______ _______ _____ _____    ______ ____

>  <TORSDO>
F 18

$$$$
=
 OpenBabel10222416063D

 61 65  0  0  1  0  0  0  0  0999 V2000
  189.0850  177.8130  140.3950 C   0  0  0  0  0  0  0  0  0  0  0  0
  185.2160  178.7520  140.4860 O   0  0  0  0  0  0  0  0  0  0  0  0
  185.1910  179.0150  138.1480 N   0  0  0  0  0  2  0  0  0  0  0  0
  186.4430  177.7040  136.6020 N   0  0  0  0  0  0  0  0  0  0  0  0
  187.8530  178.2710  139.8860 C   0  0  0  0  0  3  0  0  0  0  0  0
  188.1880  176.9210  137.9110 C   0  0  0  0  0  0  0  0  0  0  0  0
  189.4250  176.4650  138.3750 C   0  0  0  0  0  3  0  0  0  0  0  0
  186.3360  178.2280  137.7860 C   0  0  0  0  0  0  0  0  0  0  0  0
  187.6040  176.8110  136.5400 C   0  0  1  0  0  3  0  0  0  0  0  0
  184.6180  179.1760  139.4550 C   0  0  0  0  0  0  0  0  0  0  0  0
  189.8620  176.9030  139.6390 C   0  0  0  0  0  3  0  0  0  0  0  0
  187.4200  177.7850  138.6510 C   0  0  0  0  0  0  0  0  0  0  0  0
  186.0770  175.2290  135.2860 C   0  0  0  0  0  0  0  0  0  0  0  0
  187.1570  175.4120  136.1710 C   0  0  0  0  0  0  0  0  0  0  0  0
  187.6460  174.3030  136.8720 C   0  0  0  0  0  3  0  0  0  0  0  0
  187.0490  173.0500  136.7020 C   0  0  0  0  0  3  0  0  0  0  0  0
  185.4400  176.3950  134.5980 C   0  0  0  0  0  1  0  0  0  0  0  0
  185.5140  173.9980  135.1340 N   0  0  0  0  0  0  0  0  0  0  0  0
  185.9580  172.9230  135.8440 C   0  0  0  0  0  0  0  0  0  0  0  0
  185.2500  171.6090  135.7440 C   0  0  0  0  0  2  0  0  0  0  0  0
  184.3810  171.4150  136.8990 N   0  0  0  0  0  0  0  0  0  0  0  0
  184.1070  172.6450  137.4010 O   0  0  0  0  0  1  0  0  0  0  0  0
  181.6080  171.8870  135.7430 C   0  0  1  0  0  0  0  0  0  0  0  0
  183.1450  170.7850  136.4240 C   0  0  1  0  0  3  0  0  0  0  0  0
  182.0440  171.4530  137.0090 O   0  0  0  0  0  0  0  0  0  0  0  0
  182.7520  171.2180  135.0210 C   0  0  0  0  0  2  0  0  0  0  0  0
  179.4950  172.0720  134.5940 O   0  0  0  0  0  1  0  0  0  0  0  0
  180.2650  171.2420  135.4140 C   0  0  0  0  0  2  0  0  0  0  0  0
  181.5450  173.4150  135.6120 C   0  0  0  0  0  2  0  0  0  0  0  0
  180.5930  174.1000  136.5980 C   0  0  0  0  0  2  0  0  0  0  0  0
  180.1690  175.4650  136.0800 C   0  0  0  0  0  2  0  0  0  0  0  0
  179.9390  176.3750  137.1940 N   0  0  0  0  0  2  0  0  0  0  0  0
  181.1580  176.7640  137.6310 O   0  0  0  0  0  1  0  0  0  0  0  0
  190.9830  178.0940  141.8100 O   0  0  0  0  0  1  0  0  0  0  0  0
  189.5950  178.2630  141.7330 C   0  0  2  0  0  3  0  0  0  0  0  0
  187.5490  177.4210  142.7190 C   0  0  0  0  0  3  0  0  0  0  0  0
  186.6500  176.7650  143.7160 C   0  0  0  0  0  2  0  0  0  0  0  0
  188.9680  177.4430  145.4110 C   0  0  0  0  0  3  0  0  0  0  0  0
  188.8550  177.6610  142.9110 C   0  0  0  0  0  0  0  0  0  0  0  0
  187.5780  177.8320  145.7260 C   0  0  0  0  0  3  0  0  0  0  0  0
  186.5160  177.5880  144.9630 C   0  0  0  0  0  0  0  0  0  0  0  0
  189.5510  177.3330  144.1990 C   0  0  0  0  0  0  0  0  0  0  0  0
  185.1190  179.2840  145.8390 O   0  0  0  0  0  0  0  0  0  0  0  0
  182.6810  179.4460  144.5030 O   0  0  0  0  0  0  0  0  0  0  0  0
  185.1690  177.9770  145.5110 C   0  0  0  0  0  2  0  0  0  0  0  0
  185.0560  179.7680  143.2440 O   0  0  0  0  0  0  0  0  0  0  0  0
  184.3010  179.0200  144.3200 P   0  0  0  0  0  0  0  0  0  0  0  0
  191.0290  175.5060  143.8910 O   0  0  0  0  0  1  0  0  0  0  0  0
  190.9840  176.8720  144.1720 C   0  0  2  0  0  3  0  0  0  0  0  0
  191.7010  177.1510  145.4890 C   0  0  0  0  0  2  0  0  0  0  0  0
  192.1560  175.8670  146.1710 C   0  0  0  0  0  2  0  0  0  0  0  0
  192.9480  175.6790  148.5370 C   0  0  0  0  0  1  0  0  0  0  0  0
  191.7420  175.8790  147.6340 C   0  0  0  0  0  3  0  0  0  0  0  0
  191.0730  177.1900  147.9730 C   0  0  0  0  0  1  0  0  0  0  0  0
  183.2290  179.7250  139.5800 C   0  0  0  0  0  2  0  0  0  0  0  0
  182.7910  177.7390  140.8230 O   0  0  0  0  0  0  0  0  0  0  0  0
  182.3650  178.8680  140.4430 C   0  0  0  0  0  0  0  0  0  0  0  0
  180.3500  180.4730  140.4650 C   0  0  0  0  0  0  0  0  0  0  0  0
  181.0780  179.3170  140.9110 N   0  0  0  0  0  2  0  0  0  0  0  0
  179.1210  180.8860  141.1970 C   0  0  0  0  0  1  0  0  0  0  0  0
  180.7250  181.1510  139.4310 N   0  0  0  0  0  2  0  0  0  0  0  0
  1 35  1  0  0  0  0
  3 10  1  0  0  0  0
  4  8  2  0  0  0  0
  5  1  1  0  0  0  0
  6  7  2  0  0  0  0
  6 12  1  0  0  0  0
  7 11  1  0  0  0  0
  8  3  1  0  0  0  0
  8 12  1  0  0  0  0
  9 14  1  1  0  0  0
  9  4  1  0  0  0  0
  9  6  1  0  0  0  0
 10 55  1  0  0  0  0
 10  2  2  0  0  0  0
 11  1  2  0  0  0  0
 12  5  2  0  0  0  0
 13 14  1  0  0  0  0
 14 15  2  0  0  0  0
 16 15  1  0  0  0  0
 17 13  1  0  0  0  0
 18 13  2  0  0  0  0
 18 19  1  0  0  0  0
 19 16  2  0  0  0  0
 20 19  1  0  0  0  0
 20 21  1  0  0  0  0
 21 22  1  0  0  0  0
 23 28  1  6  0  0  0
 23 25  1  0  0  0  0
 24 21  1  1  0  0  0
 24 25  1  0  0  0  0
 26 23  1  0  0  0  0
 26 24  1  0  0  0  0
 27 28  1  0  0  0  0
 29 23  1  0  0  0  0
 29 30  1  0  0  0  0
 31 30  1  0  0  0  0
 31 32  1  0  0  0  0
 32 33  1  0  0  0  0
 35 34  1  1  0  0  0
 35 39  1  0  0  0  0
 36 39  2  0  0  0  0
 36 37  1  0  0  0  0
 37 41  1  0  0  0  0
 38 40  1  0  0  0  0
 39 42  1  0  0  0  0
 41 45  1  0  0  0  0
 41 40  2  0  0  0  0
 42 38  2  0  0  0  0
 45 43  1  0  0  0  0
 46 47  2  0  0  0  0
 47 44  2  0  0  0  0
 47 43  1  0  0  0  0
 49 48  1  1  0  0  0
 49 42  1  0  0  0  0
 49 50  1  0  0  0  0
 50 51  1  0  0  0  0
 51 53  1  0  0  0  0
 53 54  1  0  0  0  0
 53 52  1  0  0  0  0
 55 57  1  0  0  0  0
 57 56  2  0  0  0  0
 57 59  1  0  0  0  0
 58 59  1  0  0  0  0
 58 60  1  0  0  0  0
 61 58  2  0  0  0  0
M  END
>  <MODEL>
3

>  <REMARK>
 VINA RESULT:      -6.0      3.144     11.248
  Name = 
  18 active torsions:
  status: ('A' for Active; 'I' for Inactive)
    1  A    between atoms: C_2  and  C_40
    2  A    between atoms: C_7  and  C_30
    3  A    between atoms: C_7  and  C_49
    4  A    between atoms: N_11  and  C_36
    5  A    between atoms: C_15  and  C_18
    6  A    between atoms: C_17  and  C_41
    7  A    between atoms: C_18  and  C_48
    8  A    between atoms: C_20  and  C_40
    9  A    between atoms: C_21  and  C_22
   10  A    between atoms: C_21  and  C_53
   11  A    between atoms: C_22  and  C_46
   12  A    between atoms: C_23  and  C_30
   13  A    between atoms: N_24  and  C_38
   14  A    between atoms: N_24  and  C_43
   15  A    between atoms: C_32  and  C_44
   16  A    between atoms: C_36  and  C_49
   17  A    between atoms: C_38  and  C_58
   18  A    between atoms: C_42  and  C_53
                            x       y       z     vdW  Elec       q    Type
                         _______ _______ _______ _____ _____    ______ ____

>  <TORSDO>
F 18

$$$$
=
 OpenBabel10222416063D

 61 65  0  0  1  0  0  0  0  0999 V2000
  187.1410  176.5200  137.2930 C   0  0  0  0  0  0  0  0  0  0  0  0
  189.9710  173.7430  136.9240 O   0  0  0  0  0  0  0  0  0  0  0  0
  191.6240  175.2960  137.5500 N   0  0  0  0  0  2  0  0  0  0  0  0
  191.3420  177.0340  139.1560 N   0  0  0  0  0  0  0  0  0  0  0  0
  188.4550  176.0130  137.2280 C   0  0  0  0  0  3  0  0  0  0  0  0
  189.0450  177.3470  139.1540 C   0  0  0  0  0  0  0  0  0  0  0  0
  187.7600  177.8880  139.2320 C   0  0  0  0  0  3  0  0  0  0  0  0
  190.8230  176.2600  138.2510 C   0  0  0  0  0  0  0  0  0  0  0  0
  190.2940  177.7960  139.8410 C   0  0  1  0  0  3  0  0  0  0  0  0
  191.1980  174.0410  136.9970 C   0  0  0  0  0  0  0  0  0  0  0  0
  186.7970  177.4510  138.3030 C   0  0  0  0  0  3  0  0  0  0  0  0
  189.3780  176.4270  138.1910 C   0  0  0  0  0  0  0  0  0  0  0  0
  189.4900  178.2080  142.2050 C   0  0  0  0  0  0  0  0  0  0  0  0
  190.3240  177.4920  141.3250 C   0  0  0  0  0  0  0  0  0  0  0  0
  191.3280  176.6790  141.8630 C   0  0  0  0  0  3  0  0  0  0  0  0
  191.5010  176.6050  143.2480 C   0  0  0  0  0  3  0  0  0  0  0  0
  188.4760  179.1790  141.6870 C   0  0  0  0  0  1  0  0  0  0  0  0
  189.6750  178.1170  143.5520 N   0  0  0  0  0  0  0  0  0  0  0  0
  190.6760  177.3610  144.0810 C   0  0  0  0  0  0  0  0  0  0  0  0
  190.9300  177.3680  145.5550 C   0  0  0  0  0  2  0  0  0  0  0  0
  189.8410  176.7000  146.2580 N   0  0  0  0  0  0  0  0  0  0  0  0
  190.4070  175.8150  147.1170 O   0  0  0  0  0  1  0  0  0  0  0  0
  187.1280  177.9820  146.7480 C   0  0  1  0  0  0  0  0  0  0  0  0
  189.1040  177.7210  147.0090 C   0  0  1  0  0  3  0  0  0  0  0  0
  188.2920  178.4470  146.1060 O   0  0  0  0  0  0  0  0  0  0  0  0
  187.9010  177.1650  147.7530 C   0  0  0  0  0  2  0  0  0  0  0  0
  185.0250  179.0960  147.1440 O   0  0  0  0  0  1  0  0  0  0  0  0
  186.3990  179.1540  147.3990 C   0  0  0  0  0  2  0  0  0  0  0  0
  186.1990  177.1870  145.8210 C   0  0  0  0  0  2  0  0  0  0  0  0
  186.4610  177.3950  144.3250 C   0  0  0  0  0  2  0  0  0  0  0  0
  185.6650  178.5770  143.7960 C   0  0  0  0  0  2  0  0  0  0  0  0
  184.2410  178.2740  143.8210 N   0  0  0  0  0  2  0  0  0  0  0  0
  183.8190  178.3020  142.5370 O   0  0  0  0  0  1  0  0  0  0  0  0
  186.2740  176.7270  135.0820 O   0  0  0  0  0  1  0  0  0  0  0  0
  186.0870  176.0910  136.3150 C   0  0  2  0  0  3  0  0  0  0  0  0
  184.0300  177.3500  136.5290 C   0  0  0  0  0  3  0  0  0  0  0  0
  182.6070  177.6460  136.8780 C   0  0  0  0  0  2  0  0  0  0  0  0
  183.1480  175.3410  138.6380 C   0  0  0  0  0  3  0  0  0  0  0  0
  184.6700  176.2140  136.8410 C   0  0  0  0  0  0  0  0  0  0  0  0
  182.6140  176.6320  139.1170 C   0  0  0  0  0  3  0  0  0  0  0  0
  182.4050  177.7090  138.3630 C   0  0  0  0  0  0  0  0  0  0  0  0
  184.0230  175.1180  137.6360 C   0  0  0  0  0  0  0  0  0  0  0  0
  181.1290  179.6870  138.1270 O   0  0  0  0  0  0  0  0  0  0  0  0
  178.9310  179.7410  139.8370 O   0  0  0  0  0  0  0  0  0  0  0  0
  181.7570  178.8970  139.0220 C   0  0  0  0  0  2  0  0  0  0  0  0
  179.2920  177.7940  137.9900 O   0  0  0  0  0  0  0  0  0  0  0  0
  179.9610  178.7140  138.9860 P   0  0  0  0  0  0  0  0  0  0  0  0
  185.6520  173.4030  137.7860 O   0  0  0  0  0  1  0  0  0  0  0  0
  184.3620  173.6820  137.3350 C   0  0  2  0  0  3  0  0  0  0  0  0
  184.2570  173.3690  135.8460 C   0  0  0  0  0  2  0  0  0  0  0  0
  183.0370  172.5120  135.5310 C   0  0  0  0  0  2  0  0  0  0  0  0
  181.0190  173.6600  134.5980 C   0  0  0  0  0  1  0  0  0  0  0  0
  181.7640  173.2740  135.8650 C   0  0  0  0  0  3  0  0  0  0  0  0
  180.8680  172.4270  136.7370 C   0  0  0  0  0  1  0  0  0  0  0  0
  192.2300  173.0160  136.6360 C   0  0  0  0  0  2  0  0  0  0  0  0
  192.4160  174.2360  134.5960 O   0  0  0  0  0  0  0  0  0  0  0  0
  192.8870  173.3200  135.3310 C   0  0  0  0  0  0  0  0  0  0  0  0
  194.6740  171.4720  135.5060 C   0  0  0  0  0  0  0  0  0  0  0  0
  194.0860  172.6400  134.9090 N   0  0  0  0  0  2  0  0  0  0  0  0
  196.0180  171.0210  135.0500 C   0  0  0  0  0  1  0  0  0  0  0  0
  194.0560  170.7930  136.4140 N   0  0  0  0  0  2  0  0  0  0  0  0
  1 11  1  0  0  0  0
  2 10  2  0  0  0  0
  3  8  1  0  0  0  0
  4  9  1  0  0  0  0
  5  1  2  0  0  0  0
  5 12  1  0  0  0  0
  6  7  1  0  0  0  0
  6  9  1  0  0  0  0
  8  4  2  0  0  0  0
  9 14  1  1  0  0  0
 10  3  1  0  0  0  0
 11  7  2  0  0  0  0
 12  8  1  0  0  0  0
 12  6  2  0  0  0  0
 13 18  1  0  0  0  0
 14 15  1  0  0  0  0
 14 13  2  0  0  0  0
 15 16  2  0  0  0  0
 16 19  1  0  0  0  0
 17 13  1  0  0  0  0
 18 19  2  0  0  0  0
 19 20  1  0  0  0  0
 20 21  1  0  0  0  0
 21 22  1  0  0  0  0
 23 29  1  6  0  0  0
 23 28  1  0  0  0  0
 23 26  1  0  0  0  0
 24 21  1  6  0  0  0
 24 26  1  0  0  0  0
 25 23  1  0  0  0  0
 25 24  1  0  0  0  0
 27 28  1  0  0  0  0
 30 29  1  0  0  0  0
 31 32  1  0  0  0  0
 31 30  1  0  0  0  0
 33 32  1  0  0  0  0
 35 34  1  6  0  0  0
 35 39  1  0  0  0  0
 35  1  1  0  0  0  0
 36 39  2  0  0  0  0
 36 37  1  0  0  0  0
 37 41  1  0  0  0  0
 38 40  1  0  0  0  0
 39 42  1  0  0  0  0
 41 45  1  0  0  0  0
 41 40  2  0  0  0  0
 42 38  2  0  0  0  0
 43 47  1  0  0  0  0
 43 45  1  0  0  0  0
 46 47  2  0  0  0  0
 47 44  2  0  0  0  0
 49 42  1  0  0  0  0
 49 48  1  6  0  0  0
 50 49  1  0  0  0  0
 51 50  1  0  0  0  0
 51 53  1  0  0  0  0
 52 53  1  0  0  0  0
 53 54  1  0  0  0  0
 55 10  1  0  0  0  0
 56 57  2  0  0  0  0
 57 55  1  0  0  0  0
 58 61  2  0  0  0  0
 59 57  1  0  0  0  0
 59 58  1  0  0  0  0
 60 58  1  0  0  0  0
M  END
>  <MODEL>
4

>  <REMARK>
 VINA RESULT:      -5.7      3.033      6.336
  Name = 
  18 active torsions:
  status: ('A' for Active; 'I' for Inactive)
    1  A    between atoms: C_2  and  C_40
    2  A    between atoms: C_7  and  C_30
    3  A    between atoms: C_7  and  C_49
    4  A    between atoms: N_11  and  C_36
    5  A    between atoms: C_15  and  C_18
    6  A    between atoms: C_17  and  C_41
    7  A    between atoms: C_18  and  C_48
    8  A    between atoms: C_20  and  C_40
    9  A    between atoms: C_21  and  C_22
   10  A    between atoms: C_21  and  C_53
   11  A    between atoms: C_22  and  C_46
   12  A    between atoms: C_23  and  C_30
   13  A    between atoms: N_24  and  C_38
   14  A    between atoms: N_24  and  C_43
   15  A    between atoms: C_32  and  C_44
   16  A    between atoms: C_36  and  C_49
   17  A    between atoms: C_38  and  C_58
   18  A    between atoms: C_42  and  C_53
                            x       y       z     vdW  Elec       q    Type
                         _______ _______ _______ _____ _____    ______ ____

>  <TORSDO>
F 18

$$$$
=
 OpenBabel10222416063D

 61 65  0  0  1  0  0  0  0  0999 V2000
  186.3280  178.0430  138.2980 C   0  0  0  0  0  0  0  0  0  0  0  0
  188.6850  179.0130  141.3570 O   0  0  0  0  0  0  0  0  0  0  0  0
  189.7550  176.9220  141.2390 N   0  0  0  0  0  2  0  0  0  0  0  0
  190.2160  175.7220  139.2330 N   0  0  0  0  0  0  0  0  0  0  0  0
  187.2750  177.8280  139.3190 C   0  0  0  0  0  3  0  0  0  0  0  0
  188.6410  176.5810  137.7650 C   0  0  0  0  0  0  0  0  0  0  0  0
  187.7120  176.7540  136.7370 C   0  0  0  0  0  3  0  0  0  0  0  0
  189.4600  176.5540  139.8830 C   0  0  0  0  0  0  0  0  0  0  0  0
  189.8080  175.6480  137.8270 C   0  0  1  0  0  3  0  0  0  0  0  0
  189.4460  178.1590  141.8970 C   0  0  0  0  0  0  0  0  0  0  0  0
  186.5560  177.5110  137.0060 C   0  0  0  0  0  3  0  0  0  0  0  0
  188.4360  177.1150  139.0130 C   0  0  0  0  0  0  0  0  0  0  0  0
  191.0090  175.5990  135.6000 C   0  0  0  0  0  0  0  0  0  0  0  0
  190.9640  176.0490  136.9330 C   0  0  0  0  0  0  0  0  0  0  0  0
  192.0990  176.6630  137.4740 C   0  0  0  0  0  3  0  0  0  0  0  0
  193.2560  176.8000  136.7010 C   0  0  0  0  0  3  0  0  0  0  0  0
  189.8680  174.8340  135.0050 C   0  0  0  0  0  1  0  0  0  0  0  0
  192.1460  175.7470  134.8640 N   0  0  0  0  0  0  0  0  0  0  0  0
  193.2680  176.3050  135.3970 C   0  0  0  0  0  0  0  0  0  0  0  0
  194.5370  176.3530  134.6060 C   0  0  0  0  0  2  0  0  0  0  0  0
  195.5010  175.3990  135.1410 N   0  0  0  0  0  0  0  0  0  0  0  0
  196.2250  176.0510  136.0850 O   0  0  0  0  0  1  0  0  0  0  0  0
  195.6670  172.6300  136.3880 C   0  0  1  0  0  0  0  0  0  0  0  0
  194.7470  174.3040  135.7600 C   0  0  1  0  0  3  0  0  0  0  0  0
  195.1470  173.0860  135.1610 O   0  0  0  0  0  0  0  0  0  0  0  0
  195.2910  173.8950  137.1190 C   0  0  0  0  0  2  0  0  0  0  0  0
  195.4210  170.2300  136.4110 O   0  0  0  0  0  1  0  0  0  0  0  0
  194.8620  171.4270  136.8700 C   0  0  0  0  0  2  0  0  0  0  0  0
  197.1680  172.3170  136.3320 C   0  0  0  0  0  2  0  0  0  0  0  0
  197.9750  172.8520  137.5190 C   0  0  0  0  0  2  0  0  0  0  0  0
  198.8660  174.0070  137.0910 C   0  0  0  0  0  2  0  0  0  0  0  0
  199.1800  174.8500  138.2370 N   0  0  0  0  0  2  0  0  0  0  0  0
  198.0030  175.3340  138.6930 O   0  0  0  0  0  1  0  0  0  0  0  0
  185.1530  179.5030  139.7710 O   0  0  0  0  0  1  0  0  0  0  0  0
  185.0760  178.8320  138.5440 C   0  0  2  0  0  3  0  0  0  0  0  0
  183.9180  176.7060  138.5350 C   0  0  0  0  0  3  0  0  0  0  0  0
  182.7790  175.7390  138.4930 C   0  0  0  0  0  2  0  0  0  0  0  0
  181.5240  178.1390  137.3220 C   0  0  0  0  0  3  0  0  0  0  0  0
  183.7990  178.0320  138.3810 C   0  0  0  0  0  0  0  0  0  0  0  0
  181.5240  176.8130  136.6720 C   0  0  0  0  0  3  0  0  0  0  0  0
  182.1210  175.7210  137.1450 C   0  0  0  0  0  0  0  0  0  0  0  0
  182.4820  178.6930  138.0920 C   0  0  0  0  0  0  0  0  0  0  0  0
  182.1530  173.3560  137.1520 O   0  0  0  0  0  0  0  0  0  0  0  0
  179.7760  172.2600  136.1980 O   0  0  0  0  0  0  0  0  0  0  0  0
  181.9180  174.4390  136.3830 C   0  0  0  0  0  2  0  0  0  0  0  0
  179.8630  173.9060  138.3460 O   0  0  0  0  0  0  0  0  0  0  0  0
  180.4330  173.6010  136.9800 P   0  0  0  0  0  0  0  0  0  0  0  0
  181.6780  179.9210  139.9530 O   0  0  0  0  0  1  0  0  0  0  0  0
  182.1940  180.0560  138.6640 C   0  0  2  0  0  3  0  0  0  0  0  0
  181.2190  180.8460  137.7980 C   0  0  0  0  0  2  0  0  0  0  0  0
  181.5310  182.3370  137.8090 C   0  0  0  0  0  2  0  0  0  0  0  0
  179.7600  183.3640  136.3690 C   0  0  0  0  0  1  0  0  0  0  0  0
  180.2390  183.1400  137.7930 C   0  0  0  0  0  3  0  0  0  0  0  0
  179.1690  182.4140  138.5750 C   0  0  0  0  0  1  0  0  0  0  0  0
  190.1480  178.5010  143.1760 C   0  0  0  0  0  2  0  0  0  0  0  0
  191.7460  176.7310  143.1590 O   0  0  0  0  0  0  0  0  0  0  0  0
  190.8110  177.3110  143.7860 C   0  0  0  0  0  0  0  0  0  0  0  0
  189.3310  177.2400  145.8930 C   0  0  0  0  0  0  0  0  0  0  0  0
  190.4600  176.8360  145.1000 N   0  0  0  0  0  2  0  0  0  0  0  0
  189.2330  176.7830  147.3060 C   0  0  0  0  0  1  0  0  0  0  0  0
  188.3880  177.9740  145.4010 N   0  0  0  0  0  2  0  0  0  0  0  0
  1 35  1  0  0  0  0
  1  5  1  0  0  0  0
  2 10  2  0  0  0  0
  3 10  1  0  0  0  0
  4  8  2  0  0  0  0
  6  9  1  0  0  0  0
  6 12  1  0  0  0  0
  7 11  1  0  0  0  0
  7  6  2  0  0  0  0
  8  3  1  0  0  0  0
  9 14  1  6  0  0  0
  9  4  1  0  0  0  0
 10 55  1  0  0  0  0
 11  1  2  0  0  0  0
 12  5  2  0  0  0  0
 12  8  1  0  0  0  0
 13 14  1  0  0  0  0
 14 15  2  0  0  0  0
 16 15  1  0  0  0  0
 17 13  1  0  0  0  0
 18 19  1  0  0  0  0
 18 13  2  0  0  0  0
 19 16  2  0  0  0  0
 20 21  1  0  0  0  0
 20 19  1  0  0  0  0
 21 22  1  0  0  0  0
 23 29  1  6  0  0  0
 23 28  1  0  0  0  0
 23 26  1  0  0  0  0
 24 21  1  6  0  0  0
 24 26  1  0  0  0  0
 25 24  1  0  0  0  0
 25 23  1  0  0  0  0
 27 28  1  0  0  0  0
 29 30  1  0  0  0  0
 31 30  1  0  0  0  0
 31 32  1  0  0  0  0
 32 33  1  0  0  0  0
 35 34  1  1  0  0  0
 37 36  1  0  0  0  0
 38 42  2  0  0  0  0
 39 36  2  0  0  0  0
 39 35  1  0  0  0  0
 40 41  2  0  0  0  0
 40 38  1  0  0  0  0
 41 37  1  0  0  0  0
 42 39  1  0  0  0  0
 42 49  1  0  0  0  0
 44 47  2  0  0  0  0
 45 41  1  0  0  0  0
 45 43  1  0  0  0  0
 47 43  1  0  0  0  0
 47 46  2  0  0  0  0
 49 48  1  1  0  0  0
 50 51  1  0  0  0  0
 50 49  1  0  0  0  0
 52 53  1  0  0  0  0
 53 51  1  0  0  0  0
 53 54  1  0  0  0  0
 55 57  1  0  0  0  0
 56 57  2  0  0  0  0
 57 59  1  0  0  0  0
 58 60  1  0  0  0  0
 59 58  1  0  0  0  0
 61 58  2  0  0  0  0
M  END
>  <MODEL>
5

>  <REMARK>
 VINA RESULT:      -5.2      4.234      8.426
  Name = 
  18 active torsions:
  status: ('A' for Active; 'I' for Inactive)
    1  A    between atoms: C_2  and  C_40
    2  A    between atoms: C_7  and  C_30
    3  A    between atoms: C_7  and  C_49
    4  A    between atoms: N_11  and  C_36
    5  A    between atoms: C_15  and  C_18
    6  A    between atoms: C_17  and  C_41
    7  A    between atoms: C_18  and  C_48
    8  A    between atoms: C_20  and  C_40
    9  A    between atoms: C_21  and  C_22
   10  A    between atoms: C_21  and  C_53
   11  A    between atoms: C_22  and  C_46
   12  A    between atoms: C_23  and  C_30
   13  A    between atoms: N_24  and  C_38
   14  A    between atoms: N_24  and  C_43
   15  A    between atoms: C_32  and  C_44
   16  A    between atoms: C_36  and  C_49
   17  A    between atoms: C_38  and  C_58
   18  A    between atoms: C_42  and  C_53
                            x       y       z     vdW  Elec       q    Type
                         _______ _______ _______ _____ _____    ______ ____

>  <TORSDO>
F 18

$$$$
