=
 OpenBabel10222415503D

 47 51  0  0  1  0  0  0  0  0999 V2000
  190.4510  177.3010  139.5050 C   0  0  2  0  0  3  0  0  0  0  0  0
  190.6220  174.9650  136.0040 C   0  0  0  0  0  1  0  0  0  0  0  0
  191.3170  174.6860  137.3250 C   0  0  2  0  0  3  0  0  0  0  0  0
  191.1730  176.1740  138.9250 N   0  0  0  0  0  0  0  0  0  0  0  0
  190.4890  175.1210  138.3900 O   0  0  0  0  0  0  0  0  0  0  0  0
  192.5620  175.4940  137.4430 C   0  0  0  0  0  0  0  0  0  0  0  0
  192.4360  176.3580  138.3700 N   0  0  0  0  0  0  0  0  0  0  0  0
  194.5790  176.3030  136.5050 O   0  0  0  0  0  0  0  0  0  0  0  0
  193.7950  175.3280  136.6570 C   0  0  0  0  0  0  0  0  0  0  0  0
  194.1270  174.0140  136.0330 C   0  0  0  0  0  2  0  0  0  0  0  0
  196.7040  173.3740  136.6140 O   0  0  0  0  0  0  0  0  0  0  0  0
  194.9720  171.4370  136.9390 O   0  0  0  0  0  1  0  0  0  0  0  0
  195.2930  173.0930  137.0810 P   0  0  2  0  0  0  0  0  0  0  0  0
  195.1100  173.5950  138.6920 O   0  0  0  0  0  0  0  0  0  0  0  0
  196.3430  174.1480  139.0530 C   0  0  0  0  0  2  0  0  0  0  0  0
  197.4490  175.4270  140.8540 C   0  0  0  0  0  1  0  0  0  0  0  0
  196.1340  175.1650  140.1560 C   0  0  0  0  0  2  0  0  0  0  0  0
  189.6240  176.8870  140.5970 O   0  0  0  0  0  0  0  0  0  0  0  0
  189.5820  178.2570  142.7370 C   0  0  0  0  0  2  0  0  0  0  0  0
  190.5720  175.9840  142.5440 C   0  0  0  0  0  3  0  0  0  0  0  0
  190.2540  177.0270  144.8050 C   0  0  2  0  0  3  0  0  0  0  0  0
  189.9610  177.0170  141.9520 C   0  0  0  0  0  0  0  0  0  0  0  0
  191.0430  176.0170  143.9710 C   0  0  0  0  0  2  0  0  0  0  0  0
  190.3080  178.3690  144.0780 C   0  0  0  0  0  2  0  0  0  0  0  0
  190.8360  177.1470  146.2180 C   0  0  2  0  0  3  0  0  0  0  0  0
  191.9300  176.1110  146.4380 C   0  0  0  0  0  1  0  0  0  0  0  0
  189.7470  176.9380  147.2600 C   0  0  0  0  0  2  0  0  0  0  0  0
  188.3790  177.0130  146.6080 C   0  0  0  0  0  2  0  0  0  0  0  0
  186.4080  178.6390  146.7760 N   0  0  0  0  0  2  0  0  0  0  0  0
  186.5860  177.7800  144.5960 O   0  0  0  0  0  0  0  0  0  0  0  0
  187.4900  177.9250  147.3890 C   0  0  0  0  0  0  0  0  0  0  0  0
  186.0140  178.5700  145.3980 C   0  0  0  0  0  0  0  0  0  0  0  0
  187.6840  178.0510  148.6260 O   0  0  0  0  0  0  0  0  0  0  0  0
  183.5840  178.6120  144.9610 C   0  0  0  0  0  2  0  0  0  0  0  0
  184.8750  179.4130  144.9180 C   0  0  0  0  0  3  0  0  0  0  0  0
  184.2980  178.8230  143.6440 C   0  0  0  0  0  2  0  0  0  0  0  0
  189.6350  178.0310  138.4430 C   0  0  0  0  0  2  0  0  0  0  0  0
  188.2550  178.3880  138.9750 C   0  0  0  0  0  2  0  0  0  0  0  0
  187.1940  177.7430  138.1460 C   0  0  0  0  0  0  0  0  0  0  0  0
  186.7160  175.1910  135.4470 C   0  0  0  0  0  3  0  0  0  0  0  0
  184.3500  175.7600  135.4470 S   0  0  0  0  0  0  0  0  0  0  0  0
  185.2380  176.6260  136.5490 C   0  0  0  0  0  0  0  0  0  0  0  0
  185.8550  178.1760  138.2570 C   0  0  0  0  0  3  0  0  0  0  0  0
  186.5440  176.1900  136.4230 C   0  0  0  0  0  0  0  0  0  0  0  0
  187.5460  176.7450  137.2180 C   0  0  0  0  0  3  0  0  0  0  0  0
  185.5750  174.8300  134.7980 N   0  0  0  0  0  0  0  0  0  0  0  0
  184.8530  177.6130  137.4500 C   0  0  0  0  0  3  0  0  0  0  0  0
  1 37  1  6  0  0  0
  1 18  1  0  0  0  0
  3  2  1  6  0  0  0
  3  6  1  0  0  0  0
  3  5  1  0  0  0  0
  4  1  1  0  0  0  0
  5  4  1  0  0  0  0
  6  7  2  0  0  0  0
  7  4  1  0  0  0  0
  8  9  2  0  0  0  0
  9  6  1  0  0  0  0
 10  9  1  0  0  0  0
 10 13  1  0  0  0  0
 12 13  1  0  0  0  0
 13 11  2  6  0  0  0
 13 14  1  0  0  0  0
 14 15  1  0  0  0  0
 15 17  1  0  0  0  0
 17 16  1  0  0  0  0
 18 22  1  0  0  0  0
 19 24  1  0  0  0  0
 20 23  1  0  0  0  0
 21 25  1  1  0  0  0
 22 20  2  0  0  0  0
 22 19  1  0  0  0  0
 23 21  1  0  0  0  0
 24 21  1  0  0  0  0
 25 26  1  1  0  0  0
 25 27  1  0  0  0  0
 28 27  1  0  0  0  0
 28 31  1  0  0  0  0
 29 31  1  0  0  0  0
 30 32  2  0  0  0  0
 31 33  2  0  0  0  0
 32 29  1  0  0  0  0
 35 34  1  0  0  0  0
 35 32  1  0  0  0  0
 36 35  1  0  0  0  0
 36 34  1  0  0  0  0
 37 38  1  0  0  0  0
 39 43  1  0  0  0  0
 39 38  1  0  0  0  0
 40 44  1  0  0  0  0
 41 42  1  0  0  0  0
 42 47  1  0  0  0  0
 44 42  2  0  0  0  0
 44 45  1  0  0  0  0
 45 39  2  0  0  0  0
 46 41  1  0  0  0  0
 46 40  2  0  0  0  0
 47 43  2  0  0  0  0
M  END
>  <MODEL>
1

>  <REMARK>
 VINA RESULT:      -8.3      0.000      0.000
  Name = 
  17 active torsions:
  status: ('A' for Active; 'I' for Inactive)
    1  A    between atoms: C_2  and  C_15
    2  A    between atoms: O_4  and  P_29
    3  A    between atoms: O_4  and  C_37
    4  A    between atoms: C_11  and  C_15
    5  A    between atoms: C_11  and  C_46
    6  A    between atoms: C_12  and  C_22
    7  A    between atoms: C_12  and  C_31
    8  A    between atoms: C_17  and  C_28
    9  A    between atoms: C_20  and  C_25
   10  A    between atoms: C_20  and  P_29
   11  A    between atoms: N_21  and  C_46
   12  A    between atoms: C_22  and  C_28
   13  A    between atoms: C_25  and  C_30
   14  A    between atoms: O_32  and  C_39
   15  A    between atoms: O_32  and  C_46
   16  A    between atoms: C_33  and  C_34
   17  A    between atoms: C_37  and  C_38
                            x       y       z     vdW  Elec       q    Type
                         _______ _______ _______ _____ _____    ______ ____

>  <TORSDO>
F 17

$$$$
=
 OpenBabel10222415503D

 47 51  0  0  1  0  0  0  0  0999 V2000
  190.1630  177.4100  140.1750 C   0  0  2  0  0  3  0  0  0  0  0  0
  189.8590  176.7520  136.0260 C   0  0  0  0  0  1  0  0  0  0  0  0
  189.7920  175.7060  137.1250 C   0  0  2  0  0  3  0  0  0  0  0  0
  190.1480  176.3310  139.1930 N   0  0  0  0  0  0  0  0  0  0  0  0
  189.1530  176.2640  138.2610 O   0  0  0  0  0  0  0  0  0  0  0  0
  191.1600  175.3420  137.5860 C   0  0  0  0  0  0  0  0  0  0  0  0
  191.3370  175.7340  138.7850 N   0  0  0  0  0  0  0  0  0  0  0  0
  192.1280  173.3430  136.7660 O   0  0  0  0  0  0  0  0  0  0  0  0
  192.1760  174.6020  136.8210 C   0  0  0  0  0  0  0  0  0  0  0  0
  193.2690  175.3270  136.1090 C   0  0  0  0  0  2  0  0  0  0  0  0
  195.9500  175.7670  136.1940 O   0  0  0  0  0  0  0  0  0  0  0  0
  195.2160  173.2750  136.5310 O   0  0  0  0  0  1  0  0  0  0  0  0
  194.8820  174.9080  136.8340 P   0  0  2  0  0  0  0  0  0  0  0  0
  194.8350  175.2000  138.5060 O   0  0  0  0  0  0  0  0  0  0  0  0
  195.6240  174.2000  139.0830 C   0  0  0  0  0  2  0  0  0  0  0  0
  197.1820  175.2520  140.6850 C   0  0  0  0  0  1  0  0  0  0  0  0
  197.0330  174.7190  139.2780 C   0  0  0  0  0  2  0  0  0  0  0  0
  191.3080  177.3250  141.0290 O   0  0  0  0  0  0  0  0  0  0  0  0
  190.8590  175.8480  143.0480 C   0  0  0  0  0  2  0  0  0  0  0  0
  191.6380  178.2060  143.1780 C   0  0  0  0  0  3  0  0  0  0  0  0
  191.6310  176.7720  145.2380 C   0  0  2  0  0  3  0  0  0  0  0  0
  191.2590  177.1690  142.4220 C   0  0  0  0  0  0  0  0  0  0  0  0
  191.5740  178.1950  144.6800 C   0  0  0  0  0  2  0  0  0  0  0  0
  190.5430  175.9580  144.5400 C   0  0  0  0  0  2  0  0  0  0  0  0
  191.4260  176.7690  146.7570 C   0  0  2  0  0  3  0  0  0  0  0  0
  192.1670  175.6030  147.3970 C   0  0  0  0  0  1  0  0  0  0  0  0
  189.9460  176.6520  147.0910 C   0  0  0  0  0  2  0  0  0  0  0  0
  189.3590  178.0260  147.3580 C   0  0  0  0  0  2  0  0  0  0  0  0
  186.8180  177.9350  147.0540 N   0  0  0  0  0  2  0  0  0  0  0  0
  187.8930  178.1040  144.9720 O   0  0  0  0  0  0  0  0  0  0  0  0
  187.9750  177.8930  147.9020 C   0  0  0  0  0  0  0  0  0  0  0  0
  186.8140  178.0720  145.6270 C   0  0  0  0  0  0  0  0  0  0  0  0
  187.8220  177.7180  149.1390 O   0  0  0  0  0  0  0  0  0  0  0  0
  184.9420  179.5390  144.9650 C   0  0  0  0  0  2  0  0  0  0  0  0
  185.5070  178.1300  144.9000 C   0  0  0  0  0  3  0  0  0  0  0  0
  184.3910  178.4620  145.8730 C   0  0  0  0  0  2  0  0  0  0  0  0
  188.8720  177.4290  140.9860 C   0  0  0  0  0  2  0  0  0  0  0  0
  188.1940  178.7870  140.8900 C   0  0  0  0  0  2  0  0  0  0  0  0
  186.7470  178.6260  140.5610 C   0  0  0  0  0  0  0  0  0  0  0  0
  184.4490  177.8530  137.7070 C   0  0  0  0  0  3  0  0  0  0  0  0
  182.5810  178.2290  139.2210 S   0  0  0  0  0  0  0  0  0  0  0  0
  184.0640  178.4270  139.9390 C   0  0  0  0  0  0  0  0  0  0  0  0
  185.7690  178.8760  141.5480 C   0  0  0  0  0  3  0  0  0  0  0  0
  185.0060  178.1810  138.9560 C   0  0  0  0  0  0  0  0  0  0  0  0
  186.3650  178.2810  139.2510 C   0  0  0  0  0  3  0  0  0  0  0  0
  183.0870  177.8340  137.6800 N   0  0  0  0  0  0  0  0  0  0  0  0
  184.4030  178.7760  141.2420 C   0  0  0  0  0  3  0  0  0  0  0  0
  1 37  1  1  0  0  0
  1 18  1  0  0  0  0
  3  2  1  6  0  0  0
  3  6  1  0  0  0  0
  3  5  1  0  0  0  0
  4  1  1  0  0  0  0
  5  4  1  0  0  0  0
  6  7  2  0  0  0  0
  7  4  1  0  0  0  0
  8  9  2  0  0  0  0
  9  6  1  0  0  0  0
 10  9  1  0  0  0  0
 10 13  1  0  0  0  0
 12 13  1  0  0  0  0
 13 11  2  6  0  0  0
 13 14  1  0  0  0  0
 14 15  1  0  0  0  0
 15 17  1  0  0  0  0
 17 16  1  0  0  0  0
 18 22  1  0  0  0  0
 19 24  1  0  0  0  0
 20 23  1  0  0  0  0
 21 25  1  1  0  0  0
 22 19  1  0  0  0  0
 22 20  2  0  0  0  0
 23 21  1  0  0  0  0
 24 21  1  0  0  0  0
 25 27  1  0  0  0  0
 25 26  1  1  0  0  0
 27 28  1  0  0  0  0
 28 31  1  0  0  0  0
 29 31  1  0  0  0  0
 30 32  2  0  0  0  0
 31 33  2  0  0  0  0
 32 29  1  0  0  0  0
 34 36  1  0  0  0  0
 35 34  1  0  0  0  0
 35 32  1  0  0  0  0
 35 36  1  0  0  0  0
 38 37  1  0  0  0  0
 39 38  1  0  0  0  0
 39 43  1  0  0  0  0
 40 44  1  0  0  0  0
 41 42  1  0  0  0  0
 42 47  1  0  0  0  0
 44 45  1  0  0  0  0
 44 42  2  0  0  0  0
 45 39  2  0  0  0  0
 46 40  2  0  0  0  0
 46 41  1  0  0  0  0
 47 43  2  0  0  0  0
M  END
>  <MODEL>
2

>  <REMARK>
 VINA RESULT:      -8.2      1.754      2.322
  Name = 
  17 active torsions:
  status: ('A' for Active; 'I' for Inactive)
    1  A    between atoms: C_2  and  C_15
    2  A    between atoms: O_4  and  P_29
    3  A    between atoms: O_4  and  C_37
    4  A    between atoms: C_11  and  C_15
    5  A    between atoms: C_11  and  C_46
    6  A    between atoms: C_12  and  C_22
    7  A    between atoms: C_12  and  C_31
    8  A    between atoms: C_17  and  C_28
    9  A    between atoms: C_20  and  C_25
   10  A    between atoms: C_20  and  P_29
   11  A    between atoms: N_21  and  C_46
   12  A    between atoms: C_22  and  C_28
   13  A    between atoms: C_25  and  C_30
   14  A    between atoms: O_32  and  C_39
   15  A    between atoms: O_32  and  C_46
   16  A    between atoms: C_33  and  C_34
   17  A    between atoms: C_37  and  C_38
                            x       y       z     vdW  Elec       q    Type
                         _______ _______ _______ _____ _____    ______ ____

>  <TORSDO>
F 17

$$$$
=
 OpenBabel10222415503D

 47 51  0  0  1  0  0  0  0  0999 V2000
  190.3650  177.2730  139.2350 C   0  0  2  0  0  3  0  0  0  0  0  0
  191.1830  174.4700  136.1990 C   0  0  0  0  0  1  0  0  0  0  0  0
  191.9170  174.6280  137.5190 C   0  0  2  0  0  3  0  0  0  0  0  0
  191.3670  176.2910  138.8340 N   0  0  0  0  0  0  0  0  0  0  0  0
  190.9940  175.0160  138.5230 O   0  0  0  0  0  0  0  0  0  0  0  0
  192.8990  175.7440  137.4410 C   0  0  0  0  0  0  0  0  0  0  0  0
  192.5400  176.6980  138.2050 N   0  0  0  0  0  0  0  0  0  0  0  0
  194.5490  176.8570  136.1580 O   0  0  0  0  0  0  0  0  0  0  0  0
  194.1380  175.7700  136.6460 C   0  0  0  0  0  0  0  0  0  0  0  0
  194.9140  174.5180  136.4090 C   0  0  0  0  0  2  0  0  0  0  0  0
  195.8660  174.8320  138.9350 O   0  0  0  0  0  1  0  0  0  0  0  0
  197.5360  175.4790  137.0240 O   0  0  0  0  0  0  0  0  0  0  0  0
  196.3240  174.4220  137.5530 P   0  0  2  0  0  0  0  0  0  0  0  0
  196.9050  172.8280  137.5890 O   0  0  0  0  0  0  0  0  0  0  0  0
  198.2470  172.9100  137.2060 C   0  0  0  0  0  2  0  0  0  0  0  0
  198.4240  170.4460  137.1940 C   0  0  0  0  0  1  0  0  0  0  0  0
  198.6070  171.7000  136.3700 C   0  0  0  0  0  2  0  0  0  0  0  0
  189.5440  176.7790  140.2980 O   0  0  0  0  0  0  0  0  0  0  0  0
  189.3040  178.2590  142.3500 C   0  0  0  0  0  2  0  0  0  0  0  0
  190.3930  176.0240  142.3500 C   0  0  0  0  0  3  0  0  0  0  0  0
  189.8830  177.1700  144.5240 C   0  0  2  0  0  3  0  0  0  0  0  0
  189.7840  176.9970  141.6630 C   0  0  0  0  0  0  0  0  0  0  0  0
  190.7660  176.1520  143.8000 C   0  0  0  0  0  2  0  0  0  0  0  0
  189.9330  178.4730  143.7270 C   0  0  0  0  0  2  0  0  0  0  0  0
  190.3640  177.3900  145.9620 C   0  0  2  0  0  3  0  0  0  0  0  0
  191.6040  176.5550  146.2480 C   0  0  0  0  0  1  0  0  0  0  0  0
  189.2740  177.0020  146.9500 C   0  0  0  0  0  2  0  0  0  0  0  0
  187.9130  177.0760  146.2840 C   0  0  0  0  0  2  0  0  0  0  0  0
  186.0480  178.8300  146.2240 N   0  0  0  0  0  2  0  0  0  0  0  0
  186.1800  177.6950  144.1710 O   0  0  0  0  0  0  0  0  0  0  0  0
  187.0810  178.1310  146.9340 C   0  0  0  0  0  0  0  0  0  0  0  0
  185.6560  178.6130  144.8620 C   0  0  0  0  0  0  0  0  0  0  0  0
  187.2780  178.3990  148.1480 O   0  0  0  0  0  0  0  0  0  0  0  0
  183.2230  178.8020  144.4880 C   0  0  0  0  0  2  0  0  0  0  0  0
  184.5750  179.4590  144.2670 C   0  0  0  0  0  3  0  0  0  0  0  0
  183.8950  178.7070  143.1360 C   0  0  0  0  0  2  0  0  0  0  0  0
  189.5190  177.7070  138.0420 C   0  0  0  0  0  2  0  0  0  0  0  0
  188.6290  176.5670  137.5700 C   0  0  0  0  0  2  0  0  0  0  0  0
  187.1940  176.9750  137.6120 C   0  0  0  0  0  0  0  0  0  0  0  0
  184.8370  179.2560  139.4200 C   0  0  0  0  0  3  0  0  0  0  0  0
  183.0310  178.2930  138.1050 S   0  0  0  0  0  0  0  0  0  0  0  0
  184.5200  177.6530  137.7510 C   0  0  0  0  0  0  0  0  0  0  0  0
  186.2530  176.3270  136.7820 C   0  0  0  0  0  3  0  0  0  0  0  0
  185.4250  178.2980  138.5750 C   0  0  0  0  0  0  0  0  0  0  0  0
  186.7780  177.9660  138.5220 C   0  0  0  0  0  3  0  0  0  0  0  0
  183.4880  179.3810  139.2850 N   0  0  0  0  0  0  0  0  0  0  0  0
  184.8920  176.6660  136.8440 C   0  0  0  0  0  3  0  0  0  0  0  0
  1 37  1  6  0  0  0
  1 18  1  0  0  0  0
  3  2  1  6  0  0  0
  3  5  1  0  0  0  0
  4  1  1  0  0  0  0
  5  4  1  0  0  0  0
  6  3  1  0  0  0  0
  6  7  2  0  0  0  0
  7  4  1  0  0  0  0
  8  9  2  0  0  0  0
  9  6  1  0  0  0  0
 10  9  1  0  0  0  0
 10 13  1  0  0  0  0
 13 12  2  6  0  0  0
 13 14  1  0  0  0  0
 13 11  1  0  0  0  0
 15 14  1  0  0  0  0
 17 16  1  0  0  0  0
 17 15  1  0  0  0  0
 18 22  1  0  0  0  0
 19 24  1  0  0  0  0
 20 23  1  0  0  0  0
 21 25  1  1  0  0  0
 22 19  1  0  0  0  0
 22 20  2  0  0  0  0
 23 21  1  0  0  0  0
 24 21  1  0  0  0  0
 25 26  1  1  0  0  0
 25 27  1  0  0  0  0
 28 31  1  0  0  0  0
 28 27  1  0  0  0  0
 29 31  1  0  0  0  0
 30 32  2  0  0  0  0
 31 33  2  0  0  0  0
 32 29  1  0  0  0  0
 35 34  1  0  0  0  0
 35 32  1  0  0  0  0
 36 35  1  0  0  0  0
 36 34  1  0  0  0  0
 38 39  1  0  0  0  0
 38 37  1  0  0  0  0
 39 45  1  0  0  0  0
 41 46  1  0  0  0  0
 42 41  1  0  0  0  0
 42 44  1  0  0  0  0
 43 47  1  0  0  0  0
 43 39  2  0  0  0  0
 44 40  1  0  0  0  0
 45 44  2  0  0  0  0
 46 40  2  0  0  0  0
 47 42  2  0  0  0  0
M  END
>  <MODEL>
3

>  <REMARK>
 VINA RESULT:      -8.1      1.707      2.333
  Name = 
  17 active torsions:
  status: ('A' for Active; 'I' for Inactive)
    1  A    between atoms: C_2  and  C_15
    2  A    between atoms: O_4  and  P_29
    3  A    between atoms: O_4  and  C_37
    4  A    between atoms: C_11  and  C_15
    5  A    between atoms: C_11  and  C_46
    6  A    between atoms: C_12  and  C_22
    7  A    between atoms: C_12  and  C_31
    8  A    between atoms: C_17  and  C_28
    9  A    between atoms: C_20  and  C_25
   10  A    between atoms: C_20  and  P_29
   11  A    between atoms: N_21  and  C_46
   12  A    between atoms: C_22  and  C_28
   13  A    between atoms: C_25  and  C_30
   14  A    between atoms: O_32  and  C_39
   15  A    between atoms: O_32  and  C_46
   16  A    between atoms: C_33  and  C_34
   17  A    between atoms: C_37  and  C_38
                            x       y       z     vdW  Elec       q    Type
                         _______ _______ _______ _____ _____    ______ ____

>  <TORSDO>
F 17

$$$$
=
 OpenBabel10222415503D

 47 51  0  0  1  0  0  0  0  0999 V2000
  191.2360  177.0760  139.7180 C   0  0  2  0  0  3  0  0  0  0  0  0
  191.3580  175.1610  135.9680 C   0  0  0  0  0  1  0  0  0  0  0  0
  192.3400  174.9920  137.1140 C   0  0  2  0  0  3  0  0  0  0  0  0
  192.1090  176.2500  138.8910 N   0  0  0  0  0  0  0  0  0  0  0  0
  191.6430  175.0900  138.3440 O   0  0  0  0  0  0  0  0  0  0  0  0
  193.3230  176.1110  137.1310 C   0  0  0  0  0  0  0  0  0  0  0  0
  193.1480  176.8300  138.1690 N   0  0  0  0  0  0  0  0  0  0  0  0
  194.7310  177.5480  135.8850 O   0  0  0  0  0  0  0  0  0  0  0  0
  194.3820  176.3650  136.1420 C   0  0  0  0  0  0  0  0  0  0  0  0
  195.0490  175.2320  135.4350 C   0  0  0  0  0  2  0  0  0  0  0  0
  197.3860  176.6190  135.4890 O   0  0  0  0  0  1  0  0  0  0  0  0
  197.5930  174.1100  134.7660 O   0  0  0  0  0  0  0  0  0  0  0  0
  196.8350  175.2400  135.7750 P   0  0  2  0  0  0  0  0  0  0  0  0
  197.0940  174.8430  137.4050 O   0  0  0  0  0  0  0  0  0  0  0  0
  196.7020  173.5070  137.5320 C   0  0  0  0  0  2  0  0  0  0  0  0
  195.7360  174.6300  139.5090 C   0  0  0  0  0  1  0  0  0  0  0  0
  195.6980  173.3810  138.6580 C   0  0  0  0  0  2  0  0  0  0  0  0
  190.5000  176.2840  140.6560 O   0  0  0  0  0  0  0  0  0  0  0  0
  190.6800  177.9760  142.5440 C   0  0  0  0  0  2  0  0  0  0  0  0
  189.1660  176.0040  142.5650 C   0  0  0  0  0  3  0  0  0  0  0  0
  188.9310  177.7850  144.3180 C   0  0  2  0  0  3  0  0  0  0  0  0
  190.1080  176.7130  141.9330 C   0  0  0  0  0  0  0  0  0  0  0  0
  188.7010  176.3160  143.9590 C   0  0  0  0  0  2  0  0  0  0  0  0
  190.3990  178.1030  144.0410 C   0  0  0  0  0  2  0  0  0  0  0  0
  188.5800  178.0540  145.7850 C   0  0  2  0  0  3  0  0  0  0  0  0
  189.5250  177.2990  146.7100 C   0  0  0  0  0  1  0  0  0  0  0  0
  187.1530  177.6140  146.0780 C   0  0  0  0  0  2  0  0  0  0  0  0
  186.1720  178.4710  145.3000 C   0  0  0  0  0  2  0  0  0  0  0  0
  183.6730  179.0050  145.4630 N   0  0  0  0  0  2  0  0  0  0  0  0
  184.3700  178.9970  143.2200 O   0  0  0  0  0  0  0  0  0  0  0  0
  184.9160  178.6520  146.0870 C   0  0  0  0  0  0  0  0  0  0  0  0
  183.4490  179.1980  144.0600 C   0  0  0  0  0  0  0  0  0  0  0  0
  184.9450  178.4680  147.3320 O   0  0  0  0  0  0  0  0  0  0  0  0
  181.0720  178.5360  143.9680 C   0  0  0  0  0  2  0  0  0  0  0  0
  182.0890  179.5980  143.5820 C   0  0  0  0  0  3  0  0  0  0  0  0
  181.5920  178.6030  142.5490 C   0  0  0  0  0  2  0  0  0  0  0  0
  190.3000  177.9160  138.8530 C   0  0  0  0  0  2  0  0  0  0  0  0
  189.1720  177.0620  138.2940 C   0  0  0  0  0  2  0  0  0  0  0  0
  187.8500  177.5810  138.7530 C   0  0  0  0  0  0  0  0  0  0  0  0
  184.2880  177.9390  137.6520 C   0  0  0  0  0  3  0  0  0  0  0  0
  183.8560  179.1330  139.7270 S   0  0  0  0  0  0  0  0  0  0  0  0
  185.4300  178.6310  139.5690 C   0  0  0  0  0  0  0  0  0  0  0  0
  187.7490  178.2540  139.9910 C   0  0  0  0  0  3  0  0  0  0  0  0
  185.5080  177.9790  138.3520 C   0  0  0  0  0  0  0  0  0  0  0  0
  186.7220  177.4460  137.9210 C   0  0  0  0  0  3  0  0  0  0  0  0
  183.2490  178.5460  138.2870 N   0  0  0  0  0  0  0  0  0  0  0  0
  186.5220  178.7900  140.4140 C   0  0  0  0  0  3  0  0  0  0  0  0
  1 37  1  6  0  0  0
  1 18  1  0  0  0  0
  3  2  1  6  0  0  0
  3  6  1  0  0  0  0
  3  5  1  0  0  0  0
  4  1  1  0  0  0  0
  5  4  1  0  0  0  0
  6  7  2  0  0  0  0
  7  4  1  0  0  0  0
  8  9  2  0  0  0  0
  9  6  1  0  0  0  0
 10 13  1  0  0  0  0
 10  9  1  0  0  0  0
 11 13  1  0  0  0  0
 13 12  2  6  0  0  0
 13 14  1  0  0  0  0
 14 15  1  0  0  0  0
 15 17  1  0  0  0  0
 17 16  1  0  0  0  0
 18 22  1  0  0  0  0
 19 24  1  0  0  0  0
 20 23  1  0  0  0  0
 21 25  1  1  0  0  0
 22 19  1  0  0  0  0
 22 20  2  0  0  0  0
 23 21  1  0  0  0  0
 24 21  1  0  0  0  0
 25 27  1  0  0  0  0
 25 26  1  1  0  0  0
 28 27  1  0  0  0  0
 28 31  1  0  0  0  0
 29 31  1  0  0  0  0
 30 32  2  0  0  0  0
 31 33  2  0  0  0  0
 32 29  1  0  0  0  0
 35 34  1  0  0  0  0
 35 32  1  0  0  0  0
 36 35  1  0  0  0  0
 36 34  1  0  0  0  0
 38 39  1  0  0  0  0
 38 37  1  0  0  0  0
 39 43  1  0  0  0  0
 40 46  2  0  0  0  0
 40 44  1  0  0  0  0
 42 41  1  0  0  0  0
 42 47  1  0  0  0  0
 43 47  2  0  0  0  0
 44 42  2  0  0  0  0
 45 44  1  0  0  0  0
 45 39  2  0  0  0  0
 46 41  1  0  0  0  0
M  END
>  <MODEL>
4

>  <REMARK>
 VINA RESULT:      -7.9      2.023      2.583
  Name = 
  17 active torsions:
  status: ('A' for Active; 'I' for Inactive)
    1  A    between atoms: C_2  and  C_15
    2  A    between atoms: O_4  and  P_29
    3  A    between atoms: O_4  and  C_37
    4  A    between atoms: C_11  and  C_15
    5  A    between atoms: C_11  and  C_46
    6  A    between atoms: C_12  and  C_22
    7  A    between atoms: C_12  and  C_31
    8  A    between atoms: C_17  and  C_28
    9  A    between atoms: C_20  and  C_25
   10  A    between atoms: C_20  and  P_29
   11  A    between atoms: N_21  and  C_46
   12  A    between atoms: C_22  and  C_28
   13  A    between atoms: C_25  and  C_30
   14  A    between atoms: O_32  and  C_39
   15  A    between atoms: O_32  and  C_46
   16  A    between atoms: C_33  and  C_34
   17  A    between atoms: C_37  and  C_38
                            x       y       z     vdW  Elec       q    Type
                         _______ _______ _______ _____ _____    ______ ____

>  <TORSDO>
F 17

$$$$
=
 OpenBabel10222415503D

 47 51  0  0  1  0  0  0  0  0999 V2000
  189.4500  177.8370  140.1030 C   0  0  2  0  0  3  0  0  0  0  0  0
  191.7400  175.8580  137.1740 C   0  0  0  0  0  1  0  0  0  0  0  0
  190.4030  176.5500  136.9760 C   0  0  2  0  0  3  0  0  0  0  0  0
  189.3660  177.3550  138.7290 N   0  0  0  0  0  0  0  0  0  0  0  0
  190.3340  177.6830  137.8250 O   0  0  0  0  0  0  0  0  0  0  0  0
  189.2860  175.6670  137.4130 C   0  0  0  0  0  0  0  0  0  0  0  0
  188.7170  176.1570  138.4420 N   0  0  0  0  0  0  0  0  0  0  0  0
  189.4750  173.3530  136.9530 O   0  0  0  0  0  0  0  0  0  0  0  0
  188.8420  174.4250  136.7600 C   0  0  0  0  0  0  0  0  0  0  0  0
  187.6470  174.4220  135.8660 C   0  0  0  0  0  2  0  0  0  0  0  0
  186.6890  172.9140  137.9140 O   0  0  0  0  0  1  0  0  0  0  0  0
  186.5560  171.7980  135.5480 O   0  0  0  0  0  0  0  0  0  0  0  0
  186.4180  173.2200  136.4580 P   0  0  2  0  0  0  0  0  0  0  0  0
  184.8640  173.8810  136.2880 O   0  0  0  0  0  0  0  0  0  0  0  0
  184.3460  173.9540  137.5850 C   0  0  0  0  0  2  0  0  0  0  0  0
  183.3650  175.8790  136.3860 C   0  0  0  0  0  1  0  0  0  0  0  0
  183.3040  175.0510  137.6500 C   0  0  0  0  0  2  0  0  0  0  0  0
  190.6090  177.3240  140.7680 O   0  0  0  0  0  0  0  0  0  0  0  0
  190.3800  175.8780  142.8450 C   0  0  0  0  0  2  0  0  0  0  0  0
  191.2450  178.2090  142.8460 C   0  0  0  0  0  3  0  0  0  0  0  0
  191.4620  176.7900  144.9050 C   0  0  2  0  0  3  0  0  0  0  0  0
  190.7370  177.1800  142.1580 C   0  0  0  0  0  0  0  0  0  0  0  0
  191.3780  178.2100  144.3420 C   0  0  0  0  0  2  0  0  0  0  0  0
  190.2650  176.0090  144.3640 C   0  0  0  0  0  2  0  0  0  0  0  0
  191.4570  176.8050  146.4380 C   0  0  2  0  0  3  0  0  0  0  0  0
  192.3180  175.6770  146.9890 C   0  0  0  0  0  1  0  0  0  0  0  0
  190.0380  176.6410  146.9640 C   0  0  0  0  0  2  0  0  0  0  0  0
  189.4320  177.9990  147.2650 C   0  0  0  0  0  2  0  0  0  0  0  0
  186.8840  177.8700  147.0430 N   0  0  0  0  0  2  0  0  0  0  0  0
  187.8860  178.1000  144.9300 O   0  0  0  0  0  0  0  0  0  0  0  0
  188.0690  177.8320  147.8510 C   0  0  0  0  0  0  0  0  0  0  0  0
  186.8300  178.0350  145.6190 C   0  0  0  0  0  0  0  0  0  0  0  0
  187.9590  177.6290  149.0890 O   0  0  0  0  0  0  0  0  0  0  0  0
  185.0050  179.5210  144.8730 C   0  0  0  0  0  2  0  0  0  0  0  0
  185.4990  178.0850  144.9370 C   0  0  0  0  0  3  0  0  0  0  0  0
  184.4400  178.5730  145.9080 C   0  0  0  0  0  2  0  0  0  0  0  0
  188.1790  177.5040  140.8770 C   0  0  0  0  0  2  0  0  0  0  0  0
  187.3990  178.7690  141.2020 C   0  0  0  0  0  2  0  0  0  0  0  0
  186.0330  178.7080  140.6010 C   0  0  0  0  0  0  0  0  0  0  0  0
  182.4090  178.6360  141.5390 C   0  0  0  0  0  3  0  0  0  0  0  0
  181.8900  178.3870  139.1750 S   0  0  0  0  0  0  0  0  0  0  0  0
  183.5160  178.4960  139.4870 C   0  0  0  0  0  0  0  0  0  0  0  0
  185.8850  178.5670  139.2040 C   0  0  0  0  0  3  0  0  0  0  0  0
  183.6390  178.6310  140.8580 C   0  0  0  0  0  0  0  0  0  0  0  0
  184.9020  178.7350  141.4390 C   0  0  0  0  0  3  0  0  0  0  0  0
  181.3150  178.5070  140.7380 N   0  0  0  0  0  0  0  0  0  0  0  0
  184.6090  178.4590  138.6280 C   0  0  0  0  0  3  0  0  0  0  0  0
  1 18  1  0  0  0  0
  1 37  1  1  0  0  0
  3  2  1  1  0  0  0
  3  6  1  0  0  0  0
  3  5  1  0  0  0  0
  4  1  1  0  0  0  0
  5  4  1  0  0  0  0
  6  7  2  0  0  0  0
  7  4  1  0  0  0  0
  9  8  2  0  0  0  0
  9  6  1  0  0  0  0
 10 13  1  0  0  0  0
 10  9  1  0  0  0  0
 13 12  2  6  0  0  0
 13 11  1  0  0  0  0
 14 13  1  0  0  0  0
 14 15  1  0  0  0  0
 15 17  1  0  0  0  0
 16 17  1  0  0  0  0
 18 22  1  0  0  0  0
 19 24  1  0  0  0  0
 20 23  1  0  0  0  0
 21 25  1  1  0  0  0
 22 19  1  0  0  0  0
 22 20  2  0  0  0  0
 23 21  1  0  0  0  0
 24 21  1  0  0  0  0
 25 27  1  0  0  0  0
 25 26  1  1  0  0  0
 27 28  1  0  0  0  0
 28 31  1  0  0  0  0
 29 31  1  0  0  0  0
 30 32  2  0  0  0  0
 31 33  2  0  0  0  0
 32 29  1  0  0  0  0
 34 35  1  0  0  0  0
 34 36  1  0  0  0  0
 35 32  1  0  0  0  0
 35 36  1  0  0  0  0
 37 38  1  0  0  0  0
 39 38  1  0  0  0  0
 39 45  1  0  0  0  0
 41 42  1  0  0  0  0
 41 46  1  0  0  0  0
 42 44  1  0  0  0  0
 43 39  2  0  0  0  0
 44 45  2  0  0  0  0
 44 40  1  0  0  0  0
 46 40  2  0  0  0  0
 47 43  1  0  0  0  0
 47 42  2  0  0  0  0
M  END
>  <MODEL>
5

>  <REMARK>
 VINA RESULT:      -7.9      3.156      5.377
  Name = 
  17 active torsions:
  status: ('A' for Active; 'I' for Inactive)
    1  A    between atoms: C_2  and  C_15
    2  A    between atoms: O_4  and  P_29
    3  A    between atoms: O_4  and  C_37
    4  A    between atoms: C_11  and  C_15
    5  A    between atoms: C_11  and  C_46
    6  A    between atoms: C_12  and  C_22
    7  A    between atoms: C_12  and  C_31
    8  A    between atoms: C_17  and  C_28
    9  A    between atoms: C_20  and  C_25
   10  A    between atoms: C_20  and  P_29
   11  A    between atoms: N_21  and  C_46
   12  A    between atoms: C_22  and  C_28
   13  A    between atoms: C_25  and  C_30
   14  A    between atoms: O_32  and  C_39
   15  A    between atoms: O_32  and  C_46
   16  A    between atoms: C_33  and  C_34
   17  A    between atoms: C_37  and  C_38
                            x       y       z     vdW  Elec       q    Type
                         _______ _______ _______ _____ _____    ______ ____

>  <TORSDO>
F 17

$$$$
=
 OpenBabel10222415503D

 47 51  0  0  1  0  0  0  0  0999 V2000
  187.5920  177.9560  140.6150 C   0  0  2  0  0  3  0  0  0  0  0  0
  191.0240  176.7390  138.4990 C   0  0  0  0  0  1  0  0  0  0  0  0
  189.9500  177.7010  138.0230 C   0  0  2  0  0  3  0  0  0  0  0  0
  188.1890  178.0180  139.2850 N   0  0  0  0  0  0  0  0  0  0  0  0
  189.4730  178.4510  139.1280 O   0  0  0  0  0  0  0  0  0  0  0  0
  188.7650  176.9550  137.5170 C   0  0  0  0  0  0  0  0  0  0  0  0
  187.7660  177.1490  138.2830 N   0  0  0  0  0  0  0  0  0  0  0  0
  189.4960  176.3600  135.3460 O   0  0  0  0  0  0  0  0  0  0  0  0
  188.6990  176.1360  136.2960 C   0  0  0  0  0  0  0  0  0  0  0  0
  187.6940  175.0410  136.1690 C   0  0  0  0  0  2  0  0  0  0  0  0
  189.6680  173.6370  137.4020 O   0  0  0  0  0  1  0  0  0  0  0  0
  188.9690  172.7440  135.0410 O   0  0  0  0  0  0  0  0  0  0  0  0
  188.4670  173.4310  136.5050 P   0  0  2  0  0  0  0  0  0  0  0  0
  187.3410  172.4210  137.2750 O   0  0  0  0  0  0  0  0  0  0  0  0
  186.1110  172.7080  136.6760 C   0  0  0  0  0  2  0  0  0  0  0  0
  184.3620  174.1730  137.6260 C   0  0  0  0  0  1  0  0  0  0  0  0
  185.0460  172.8300  137.7460 C   0  0  0  0  0  2  0  0  0  0  0  0
  186.6600  179.0230  140.8210 O   0  0  0  0  0  0  0  0  0  0  0  0
  184.7090  179.1260  139.1960 C   0  0  0  0  0  2  0  0  0  0  0  0
  184.4920  178.6230  141.6220 C   0  0  0  0  0  3  0  0  0  0  0  0
  182.5310  178.2890  140.0920 C   0  0  2  0  0  3  0  0  0  0  0  0
  185.2800  178.9380  140.5870 C   0  0  0  0  0  0  0  0  0  0  0  0
  182.9940  178.5600  141.5240 C   0  0  0  0  0  2  0  0  0  0  0  0
  183.1930  179.3270  139.1890 C   0  0  0  0  0  2  0  0  0  0  0  0
  181.0040  178.3650  139.9840 C   0  0  2  0  0  3  0  0  0  0  0  0
  180.4010  176.9700  139.8980 C   0  0  0  0  0  1  0  0  0  0  0  0
  180.5990  179.1520  138.7460 C   0  0  0  0  0  2  0  0  0  0  0  0
  179.3320  179.9410  139.0180 C   0  0  0  0  0  2  0  0  0  0  0  0
  179.8290  182.4530  138.9660 N   0  0  0  0  0  2  0  0  0  0  0  0
  179.2960  181.6710  136.8150 O   0  0  0  0  0  0  0  0  0  0  0  0
  179.6680  181.2280  139.6960 C   0  0  0  0  0  0  0  0  0  0  0  0
  179.6720  182.6260  137.5510 C   0  0  0  0  0  0  0  0  0  0  0  0
  179.7900  181.2420  140.9490 O   0  0  0  0  0  0  0  0  0  0  0  0
  180.9510  183.8680  135.8430 C   0  0  0  0  0  2  0  0  0  0  0  0
  179.9110  183.9740  136.9460 C   0  0  0  0  0  3  0  0  0  0  0  0
  181.3440  184.4060  137.2010 C   0  0  0  0  0  2  0  0  0  0  0  0
  188.6680  177.9490  141.6960 C   0  0  0  0  0  2  0  0  0  0  0  0
  188.5170  176.7340  142.5980 C   0  0  0  0  0  2  0  0  0  0  0  0
  188.1770  177.1560  143.9890 C   0  0  0  0  0  0  0  0  0  0  0  0
  189.7020  177.6120  147.3790 C   0  0  0  0  0  3  0  0  0  0  0  0
  187.4870  178.1930  148.2030 S   0  0  0  0  0  0  0  0  0  0  0  0
  187.5180  177.8430  146.5810 C   0  0  0  0  0  0  0  0  0  0  0  0
  186.8410  177.4690  144.3220 C   0  0  0  0  0  3  0  0  0  0  0  0
  188.8320  177.5360  146.2760 C   0  0  0  0  0  0  0  0  0  0  0  0
  189.1830  177.1830  144.9740 C   0  0  0  0  0  3  0  0  0  0  0  0
  189.1050  177.9700  148.5490 N   0  0  0  0  0  0  0  0  0  0  0  0
  186.4970  177.8210  145.6370 C   0  0  0  0  0  3  0  0  0  0  0  0
  1 18  1  0  0  0  0
  1 37  1  1  0  0  0
  3  2  1  1  0  0  0
  3  5  1  0  0  0  0
  4  1  1  0  0  0  0
  5  4  1  0  0  0  0
  6  3  1  0  0  0  0
  6  7  2  0  0  0  0
  7  4  1  0  0  0  0
  8  9  2  0  0  0  0
  9  6  1  0  0  0  0
 10  9  1  0  0  0  0
 10 13  1  0  0  0  0
 13 12  2  6  0  0  0
 13 14  1  0  0  0  0
 13 11  1  0  0  0  0
 15 14  1  0  0  0  0
 15 17  1  0  0  0  0
 16 17  1  0  0  0  0
 19 22  1  0  0  0  0
 21 25  1  1  0  0  0
 21 23  1  0  0  0  0
 22 18  1  0  0  0  0
 22 20  2  0  0  0  0
 23 20  1  0  0  0  0
 24 19  1  0  0  0  0
 24 21  1  0  0  0  0
 25 26  1  6  0  0  0
 27 28  1  0  0  0  0
 27 25  1  0  0  0  0
 28 31  1  0  0  0  0
 29 31  1  0  0  0  0
 30 32  2  0  0  0  0
 31 33  2  0  0  0  0
 32 29  1  0  0  0  0
 34 35  1  0  0  0  0
 34 36  1  0  0  0  0
 35 36  1  0  0  0  0
 35 32  1  0  0  0  0
 37 38  1  0  0  0  0
 38 39  1  0  0  0  0
 39 43  2  0  0  0  0
 39 45  1  0  0  0  0
 40 46  2  0  0  0  0
 41 46  1  0  0  0  0
 42 41  1  0  0  0  0
 43 47  1  0  0  0  0
 44 42  1  0  0  0  0
 44 40  1  0  0  0  0
 45 44  2  0  0  0  0
 47 42  2  0  0  0  0
M  END
>  <MODEL>
6

>  <REMARK>
 VINA RESULT:      -7.8      4.890      8.913
  Name = 
  17 active torsions:
  status: ('A' for Active; 'I' for Inactive)
    1  A    between atoms: C_2  and  C_15
    2  A    between atoms: O_4  and  P_29
    3  A    between atoms: O_4  and  C_37
    4  A    between atoms: C_11  and  C_15
    5  A    between atoms: C_11  and  C_46
    6  A    between atoms: C_12  and  C_22
    7  A    between atoms: C_12  and  C_31
    8  A    between atoms: C_17  and  C_28
    9  A    between atoms: C_20  and  C_25
   10  A    between atoms: C_20  and  P_29
   11  A    between atoms: N_21  and  C_46
   12  A    between atoms: C_22  and  C_28
   13  A    between atoms: C_25  and  C_30
   14  A    between atoms: O_32  and  C_39
   15  A    between atoms: O_32  and  C_46
   16  A    between atoms: C_33  and  C_34
   17  A    between atoms: C_37  and  C_38
                            x       y       z     vdW  Elec       q    Type
                         _______ _______ _______ _____ _____    ______ ____

>  <TORSDO>
F 17

$$$$
=
 OpenBabel10222415503D

 47 51  0  0  1  0  0  0  0  0999 V2000
  190.1940  176.7490  140.1490 C   0  0  2  0  0  3  0  0  0  0  0  0
  189.0130  178.5770  136.5440 C   0  0  0  0  0  1  0  0  0  0  0  0
  188.4720  178.8610  137.9330 C   0  0  2  0  0  3  0  0  0  0  0  0
  189.1670  177.6300  139.6050 N   0  0  0  0  0  0  0  0  0  0  0  0
  189.5190  178.7300  138.8790 O   0  0  0  0  0  0  0  0  0  0  0  0
  187.4640  177.8370  138.3220 C   0  0  0  0  0  0  0  0  0  0  0  0
  187.9080  177.1300  139.2850 N   0  0  0  0  0  0  0  0  0  0  0  0
  185.7890  176.5340  137.2730 O   0  0  0  0  0  0  0  0  0  0  0  0
  186.1250  177.6560  137.7400 C   0  0  0  0  0  0  0  0  0  0  0  0
  185.1570  178.7910  137.6920 C   0  0  0  0  0  2  0  0  0  0  0  0
  185.3630  179.3980  140.3330 O   0  0  0  0  0  1  0  0  0  0  0  0
  183.6430  177.5110  139.7530 O   0  0  0  0  0  0  0  0  0  0  0  0
  184.3360  178.9890  139.3020 P   0  0  2  0  0  0  0  0  0  0  0  0
  183.1400  180.1870  139.1750 O   0  0  0  0  0  0  0  0  0  0  0  0
  182.2700  179.7420  138.1740 C   0  0  0  0  0  2  0  0  0  0  0  0
  180.4330  180.9710  137.0710 C   0  0  0  0  0  1  0  0  0  0  0  0
  180.9070  180.3700  138.3740 C   0  0  0  0  0  2  0  0  0  0  0  0
  191.1250  177.4690  140.9640 O   0  0  0  0  0  0  0  0  0  0  0  0
  190.9530  178.6440  143.2110 C   0  0  0  0  0  2  0  0  0  0  0  0
  191.3760  176.2100  142.9270 C   0  0  0  0  0  3  0  0  0  0  0  0
  190.8360  177.1330  145.1980 C   0  0  2  0  0  3  0  0  0  0  0  0
  191.1800  177.4080  142.3640 C   0  0  0  0  0  0  0  0  0  0  0  0
  191.5180  176.0130  144.4100 C   0  0  0  0  0  2  0  0  0  0  0  0
  191.3740  178.4620  144.6690 C   0  0  0  0  0  2  0  0  0  0  0  0
  191.1080  176.9930  146.7000 C   0  0  2  0  0  3  0  0  0  0  0  0
  192.0560  175.8320  146.9680 C   0  0  0  0  0  1  0  0  0  0  0  0
  189.8080  176.7480  147.4520 C   0  0  0  0  0  2  0  0  0  0  0  0
  188.6240  177.1710  146.6030 C   0  0  0  0  0  2  0  0  0  0  0  0
  186.5080  178.5900  146.8600 N   0  0  0  0  0  2  0  0  0  0  0  0
  186.8050  177.9480  144.6190 O   0  0  0  0  0  0  0  0  0  0  0  0
  187.6410  177.9250  147.4370 C   0  0  0  0  0  0  0  0  0  0  0  0
  186.1480  178.6080  145.4720 C   0  0  0  0  0  0  0  0  0  0  0  0
  187.8000  177.9570  148.6850 O   0  0  0  0  0  0  0  0  0  0  0  0
  183.7030  178.5150  145.1420 C   0  0  0  0  0  2  0  0  0  0  0  0
  184.9450  179.3840  145.0370 C   0  0  0  0  0  3  0  0  0  0  0  0
  184.3460  178.7520  143.7930 C   0  0  0  0  0  2  0  0  0  0  0  0
  190.9090  175.9910  139.0360 C   0  0  0  0  0  2  0  0  0  0  0  0
  191.9030  176.8940  138.3210 C   0  0  0  0  0  2  0  0  0  0  0  0
  193.0200  176.0870  137.7470 C   0  0  0  0  0  0  0  0  0  0  0  0
  195.8140  173.8040  138.7480 C   0  0  0  0  0  3  0  0  0  0  0  0
  196.4810  173.7340  136.4090 S   0  0  0  0  0  0  0  0  0  0  0  0
  195.1450  174.6780  136.6880 C   0  0  0  0  0  0  0  0  0  0  0  0
  193.2890  176.1430  136.3620 C   0  0  0  0  0  3  0  0  0  0  0  0
  194.9020  174.6120  138.0480 C   0  0  0  0  0  0  0  0  0  0  0  0
  193.8360  175.3210  138.6010 C   0  0  0  0  0  3  0  0  0  0  0  0
  196.7750  173.2290  137.9730 N   0  0  0  0  0  0  0  0  0  0  0  0
  194.3660  175.4280  135.8140 C   0  0  0  0  0  3  0  0  0  0  0  0
  1 37  1  6  0  0  0
  1 18  1  0  0  0  0
  3  2  1  6  0  0  0
  3  6  1  0  0  0  0
  3  5  1  0  0  0  0
  4  1  1  0  0  0  0
  5  4  1  0  0  0  0
  6  7  2  0  0  0  0
  7  4  1  0  0  0  0
  8  9  2  0  0  0  0
  9  6  1  0  0  0  0
 10  9  1  0  0  0  0
 10 13  1  0  0  0  0
 13 12  2  1  0  0  0
 13 11  1  0  0  0  0
 14 13  1  0  0  0  0
 15 17  1  0  0  0  0
 15 14  1  0  0  0  0
 16 17  1  0  0  0  0
 18 22  1  0  0  0  0
 19 24  1  0  0  0  0
 20 23  1  0  0  0  0
 21 25  1  1  0  0  0
 22 20  2  0  0  0  0
 22 19  1  0  0  0  0
 23 21  1  0  0  0  0
 24 21  1  0  0  0  0
 25 26  1  6  0  0  0
 25 27  1  0  0  0  0
 28 31  1  0  0  0  0
 28 27  1  0  0  0  0
 29 31  1  0  0  0  0
 30 32  2  0  0  0  0
 31 33  2  0  0  0  0
 32 29  1  0  0  0  0
 35 34  1  0  0  0  0
 35 32  1  0  0  0  0
 36 35  1  0  0  0  0
 36 34  1  0  0  0  0
 38 37  1  0  0  0  0
 39 38  1  0  0  0  0
 39 45  1  0  0  0  0
 41 42  1  0  0  0  0
 41 46  1  0  0  0  0
 42 44  1  0  0  0  0
 43 39  2  0  0  0  0
 44 45  2  0  0  0  0
 44 40  1  0  0  0  0
 46 40  2  0  0  0  0
 47 43  1  0  0  0  0
 47 42  2  0  0  0  0
M  END
>  <MODEL>
7

>  <REMARK>
 VINA RESULT:      -7.6      3.717      7.621
  Name = 
  17 active torsions:
  status: ('A' for Active; 'I' for Inactive)
    1  A    between atoms: C_2  and  C_15
    2  A    between atoms: O_4  and  P_29
    3  A    between atoms: O_4  and  C_37
    4  A    between atoms: C_11  and  C_15
    5  A    between atoms: C_11  and  C_46
    6  A    between atoms: C_12  and  C_22
    7  A    between atoms: C_12  and  C_31
    8  A    between atoms: C_17  and  C_28
    9  A    between atoms: C_20  and  C_25
   10  A    between atoms: C_20  and  P_29
   11  A    between atoms: N_21  and  C_46
   12  A    between atoms: C_22  and  C_28
   13  A    between atoms: C_25  and  C_30
   14  A    between atoms: O_32  and  C_39
   15  A    between atoms: O_32  and  C_46
   16  A    between atoms: C_33  and  C_34
   17  A    between atoms: C_37  and  C_38
                            x       y       z     vdW  Elec       q    Type
                         _______ _______ _______ _____ _____    ______ ____

>  <TORSDO>
F 17

$$$$
=
 OpenBabel10222415503D

 47 51  0  0  1  0  0  0  0  0999 V2000
  188.2570  177.0680  138.2090 C   0  0  2  0  0  3  0  0  0  0  0  0
  184.1220  176.3050  137.9780 C   0  0  0  0  0  1  0  0  0  0  0  0
  184.8670  177.4930  137.3940 C   0  0  2  0  0  3  0  0  0  0  0  0
  187.0040  177.7050  137.8180 N   0  0  0  0  0  0  0  0  0  0  0  0
  186.1500  177.0730  136.9620 O   0  0  0  0  0  0  0  0  0  0  0  0
  185.1240  178.5170  138.4440 C   0  0  0  0  0  0  0  0  0  0  0  0
  186.3740  178.6010  138.6760 N   0  0  0  0  0  0  0  0  0  0  0  0
  184.0880  180.6000  138.8820 O   0  0  0  0  0  0  0  0  0  0  0  0
  184.1210  179.3600  139.1120 C   0  0  0  0  0  0  0  0  0  0  0  0
  183.1390  178.7640  140.0650 C   0  0  0  0  0  2  0  0  0  0  0  0
  181.3790  178.5440  138.0060 O   0  0  0  0  0  0  0  0  0  0  0  0
  181.0340  180.6300  139.5520 O   0  0  0  0  0  1  0  0  0  0  0  0
  181.4430  178.9900  139.4500 P   0  0  2  0  0  0  0  0  0  0  0  0
  180.3810  178.0560  140.3880 O   0  0  0  0  0  0  0  0  0  0  0  0
  180.8000  178.2280  141.7110 C   0  0  0  0  0  2  0  0  0  0  0  0
  179.8870  178.5670  143.9810 C   0  0  0  0  0  1  0  0  0  0  0  0
  179.6880  178.8700  142.5130 C   0  0  0  0  0  2  0  0  0  0  0  0
  189.1510  178.0020  138.8240 O   0  0  0  0  0  0  0  0  0  0  0  0
  188.8400  178.1190  141.3430 C   0  0  0  0  0  2  0  0  0  0  0  0
  190.9540  177.4490  140.2190 C   0  0  0  0  0  3  0  0  0  0  0  0
  190.6930  177.1250  142.6940 C   0  0  2  0  0  3  0  0  0  0  0  0
  189.6880  177.8680  140.1120 C   0  0  0  0  0  0  0  0  0  0  0  0
  191.6700  177.3230  141.5340 C   0  0  0  0  0  2  0  0  0  0  0  0
  189.6620  178.2500  142.6260 C   0  0  0  0  0  2  0  0  0  0  0  0
  191.4270  177.1370  144.0390 C   0  0  2  0  0  3  0  0  0  0  0  0
  191.6760  175.7170  144.5280 C   0  0  0  0  0  1  0  0  0  0  0  0
  190.6050  177.8780  145.0840 C   0  0  0  0  0  2  0  0  0  0  0  0
  189.7430  176.9010  145.8610 C   0  0  0  0  0  2  0  0  0  0  0  0
  187.9650  178.1830  147.1860 N   0  0  0  0  0  2  0  0  0  0  0  0
  187.1970  177.7110  145.0160 O   0  0  0  0  0  0  0  0  0  0  0  0
  189.2470  177.5430  147.1150 C   0  0  0  0  0  0  0  0  0  0  0  0
  187.0000  178.2750  146.1280 C   0  0  0  0  0  0  0  0  0  0  0  0
  189.9670  177.4990  148.1470 O   0  0  0  0  0  0  0  0  0  0  0  0
  184.6000  178.0250  146.6490 C   0  0  0  0  0  2  0  0  0  0  0  0
  185.7200  179.0120  146.3660 C   0  0  0  0  0  3  0  0  0  0  0  0
  184.7160  178.6630  145.2820 C   0  0  0  0  0  2  0  0  0  0  0  0
  188.9160  176.3810  137.0160 C   0  0  0  0  0  2  0  0  0  0  0  0
  189.7060  175.1620  137.4650 C   0  0  0  0  0  2  0  0  0  0  0  0
  191.0970  175.2150  136.9270 C   0  0  0  0  0  0  0  0  0  0  0  0
  194.6670  174.7240  137.9470 C   0  0  0  0  0  3  0  0  0  0  0  0
  195.3140  175.4240  135.7090 S   0  0  0  0  0  0  0  0  0  0  0  0
  193.6720  175.4120  135.9490 C   0  0  0  0  0  0  0  0  0  0  0  0
  191.3210  175.6390  135.5990 C   0  0  0  0  0  3  0  0  0  0  0  0
  193.4740  174.9980  137.2530 C   0  0  0  0  0  0  0  0  0  0  0  0
  192.1820  174.8970  137.7660 C   0  0  0  0  0  3  0  0  0  0  0  0
  195.8030  174.9140  137.2210 N   0  0  0  0  0  0  0  0  0  0  0  0
  192.6270  175.7410  135.0920 C   0  0  0  0  0  3  0  0  0  0  0  0
  1 37  1  6  0  0  0
  1 18  1  0  0  0  0
  3  2  1  1  0  0  0
  3  6  1  0  0  0  0
  4  1  1  0  0  0  0
  4  7  1  0  0  0  0
  5  3  1  0  0  0  0
  5  4  1  0  0  0  0
  6  7  2  0  0  0  0
  6  9  1  0  0  0  0
  8  9  2  0  0  0  0
  9 10  1  0  0  0  0
 13 11  2  6  0  0  0
 13 12  1  0  0  0  0
 13 10  1  0  0  0  0
 13 14  1  0  0  0  0
 14 15  1  0  0  0  0
 15 17  1  0  0  0  0
 17 16  1  0  0  0  0
 18 22  1  0  0  0  0
 19 24  1  0  0  0  0
 20 23  1  0  0  0  0
 21 25  1  1  0  0  0
 22 20  2  0  0  0  0
 22 19  1  0  0  0  0
 23 21  1  0  0  0  0
 24 21  1  0  0  0  0
 25 26  1  1  0  0  0
 25 27  1  0  0  0  0
 27 28  1  0  0  0  0
 28 31  1  0  0  0  0
 30 32  2  0  0  0  0
 31 29  1  0  0  0  0
 31 33  2  0  0  0  0
 32 35  1  0  0  0  0
 32 29  1  0  0  0  0
 35 34  1  0  0  0  0
 36 35  1  0  0  0  0
 36 34  1  0  0  0  0
 37 38  1  0  0  0  0
 39 38  1  0  0  0  0
 39 45  1  0  0  0  0
 41 42  1  0  0  0  0
 41 46  1  0  0  0  0
 42 44  1  0  0  0  0
 43 39  2  0  0  0  0
 44 45  2  0  0  0  0
 44 40  1  0  0  0  0
 46 40  2  0  0  0  0
 47 43  1  0  0  0  0
 47 42  2  0  0  0  0
M  END
>  <MODEL>
8

>  <REMARK>
 VINA RESULT:      -7.6      4.132      8.318
  Name = 
  17 active torsions:
  status: ('A' for Active; 'I' for Inactive)
    1  A    between atoms: C_2  and  C_15
    2  A    between atoms: O_4  and  P_29
    3  A    between atoms: O_4  and  C_37
    4  A    between atoms: C_11  and  C_15
    5  A    between atoms: C_11  and  C_46
    6  A    between atoms: C_12  and  C_22
    7  A    between atoms: C_12  and  C_31
    8  A    between atoms: C_17  and  C_28
    9  A    between atoms: C_20  and  C_25
   10  A    between atoms: C_20  and  P_29
   11  A    between atoms: N_21  and  C_46
   12  A    between atoms: C_22  and  C_28
   13  A    between atoms: C_25  and  C_30
   14  A    between atoms: O_32  and  C_39
   15  A    between atoms: O_32  and  C_46
   16  A    between atoms: C_33  and  C_34
   17  A    between atoms: C_37  and  C_38
                            x       y       z     vdW  Elec       q    Type
                         _______ _______ _______ _____ _____    ______ ____

>  <TORSDO>
F 17

$$$$
=
 OpenBabel10222415503D

 47 51  0  0  1  0  0  0  0  0999 V2000
  186.7370  178.3720  140.5290 C   0  0  2  0  0  3  0  0  0  0  0  0
  190.3730  176.6190  139.3290 C   0  0  0  0  0  1  0  0  0  0  0  0
  189.7530  177.8970  138.7910 C   0  0  2  0  0  3  0  0  0  0  0  0
  187.7620  178.4760  139.4970 N   0  0  0  0  0  0  0  0  0  0  0  0
  189.0790  178.5670  139.8430 O   0  0  0  0  0  0  0  0  0  0  0  0
  188.6970  177.5840  137.7880 C   0  0  0  0  0  0  0  0  0  0  0  0
  187.5530  177.9190  138.2390 N   0  0  0  0  0  0  0  0  0  0  0  0
  190.0160  177.1400  135.8740 O   0  0  0  0  0  0  0  0  0  0  0  0
  188.9010  177.0130  136.4480 C   0  0  0  0  0  0  0  0  0  0  0  0
  187.7970  176.2860  135.7550 C   0  0  0  0  0  2  0  0  0  0  0  0
  189.0870  174.2230  136.9670 O   0  0  0  0  0  1  0  0  0  0  0  0
  187.7150  173.5810  134.8300 O   0  0  0  0  0  0  0  0  0  0  0  0
  187.8030  174.5300  136.2300 P   0  0  2  0  0  0  0  0  0  0  0  0
  186.4730  174.2210  137.2380 O   0  0  0  0  0  0  0  0  0  0  0  0
  186.0860  172.9070  136.9540 C   0  0  0  0  0  2  0  0  0  0  0  0
  183.7820  172.1150  136.5450 C   0  0  0  0  0  1  0  0  0  0  0  0
  184.7430  172.6280  137.5940 C   0  0  0  0  0  2  0  0  0  0  0  0
  185.7100  179.3520  140.3480 O   0  0  0  0  0  0  0  0  0  0  0  0
  183.4680  179.1280  139.1720 C   0  0  0  0  0  2  0  0  0  0  0  0
  183.8220  178.7500  141.6040 C   0  0  0  0  0  3  0  0  0  0  0  0
  181.6460  178.0980  140.5370 C   0  0  2  0  0  3  0  0  0  0  0  0
  184.3330  179.0920  140.4160 C   0  0  0  0  0  0  0  0  0  0  0  0
  182.3560  178.5070  141.8280 C   0  0  0  0  0  2  0  0  0  0  0  0
  181.9710  179.1500  139.4780 C   0  0  0  0  0  2  0  0  0  0  0  0
  180.1320  177.9890  140.7530 C   0  0  2  0  0  3  0  0  0  0  0  0
  179.7390  178.5690  142.1040 C   0  0  0  0  0  1  0  0  0  0  0  0
  179.6930  176.5330  140.6980 C   0  0  0  0  0  2  0  0  0  0  0  0
  180.6550  175.7280  139.8450 C   0  0  0  0  0  2  0  0  0  0  0  0
  181.1940  175.8120  137.3430 N   0  0  0  0  0  2  0  0  0  0  0  0
  183.1660  175.6210  138.6060 O   0  0  0  0  0  0  0  0  0  0  0  0
  180.2380  175.7830  138.4130 C   0  0  0  0  0  0  0  0  0  0  0  0
  182.6210  175.7640  137.4760 C   0  0  0  0  0  0  0  0  0  0  0  0
  179.0100  175.7820  138.1360 O   0  0  0  0  0  0  0  0  0  0  0  0
  184.2700  177.1330  136.2500 C   0  0  0  0  0  2  0  0  0  0  0  0
  183.4740  175.8380  136.2490 C   0  0  0  0  0  3  0  0  0  0  0  0
  183.0350  177.0060  135.3850 C   0  0  0  0  0  2  0  0  0  0  0  0
  187.3520  178.4700  141.9220 C   0  0  0  0  0  2  0  0  0  0  0  0
  187.5600  177.0860  142.5180 C   0  0  0  0  0  2  0  0  0  0  0  0
  188.1850  177.1900  143.8700 C   0  0  0  0  0  0  0  0  0  0  0  0
  191.4510  176.7330  145.6430 C   0  0  0  0  0  3  0  0  0  0  0  0
  190.2970  177.2460  147.7230 S   0  0  0  0  0  0  0  0  0  0  0  0
  189.3090  177.2880  146.3900 C   0  0  0  0  0  0  0  0  0  0  0  0
  187.3860  177.5020  144.9910 C   0  0  0  0  0  3  0  0  0  0  0  0
  190.1080  176.9760  145.3050 C   0  0  0  0  0  0  0  0  0  0  0  0
  189.5570  176.9180  144.0260 C   0  0  0  0  0  3  0  0  0  0  0  0
  191.7320  176.8430  146.9710 N   0  0  0  0  0  0  0  0  0  0  0  0
  187.9490  177.5560  146.2760 C   0  0  0  0  0  3  0  0  0  0  0  0
  1 37  1  1  0  0  0
  3  2  1  1  0  0  0
  3  5  1  0  0  0  0
  4  5  1  0  0  0  0
  4  1  1  0  0  0  0
  6  7  2  0  0  0  0
  6  3  1  0  0  0  0
  7  4  1  0  0  0  0
  8  9  2  0  0  0  0
  9  6  1  0  0  0  0
 10 13  1  0  0  0  0
 10  9  1  0  0  0  0
 13 12  2  6  0  0  0
 13 11  1  0  0  0  0
 13 14  1  0  0  0  0
 15 14  1  0  0  0  0
 15 17  1  0  0  0  0
 16 17  1  0  0  0  0
 18 22  1  0  0  0  0
 18  1  1  0  0  0  0
 19 24  1  0  0  0  0
 19 22  1  0  0  0  0
 20 23  1  0  0  0  0
 21 25  1  1  0  0  0
 21 23  1  0  0  0  0
 22 20  2  0  0  0  0
 24 21  1  0  0  0  0
 25 26  1  1  0  0  0
 27 25  1  0  0  0  0
 28 27  1  0  0  0  0
 29 32  1  0  0  0  0
 29 31  1  0  0  0  0
 31 28  1  0  0  0  0
 32 30  2  0  0  0  0
 33 31  2  0  0  0  0
 35 34  1  0  0  0  0
 35 32  1  0  0  0  0
 36 35  1  0  0  0  0
 36 34  1  0  0  0  0
 37 38  1  0  0  0  0
 38 39  1  0  0  0  0
 39 45  2  0  0  0  0
 39 43  1  0  0  0  0
 40 46  2  0  0  0  0
 42 41  1  0  0  0  0
 43 47  2  0  0  0  0
 44 40  1  0  0  0  0
 44 42  2  0  0  0  0
 45 44  1  0  0  0  0
 46 41  1  0  0  0  0
 47 42  1  0  0  0  0
M  END
>  <MODEL>
9

>  <REMARK>
 VINA RESULT:      -7.5      4.368      8.925
  Name = 
  17 active torsions:
  status: ('A' for Active; 'I' for Inactive)
    1  A    between atoms: C_2  and  C_15
    2  A    between atoms: O_4  and  P_29
    3  A    between atoms: O_4  and  C_37
    4  A    between atoms: C_11  and  C_15
    5  A    between atoms: C_11  and  C_46
    6  A    between atoms: C_12  and  C_22
    7  A    between atoms: C_12  and  C_31
    8  A    between atoms: C_17  and  C_28
    9  A    between atoms: C_20  and  C_25
   10  A    between atoms: C_20  and  P_29
   11  A    between atoms: N_21  and  C_46
   12  A    between atoms: C_22  and  C_28
   13  A    between atoms: C_25  and  C_30
   14  A    between atoms: O_32  and  C_39
   15  A    between atoms: O_32  and  C_46
   16  A    between atoms: C_33  and  C_34
   17  A    between atoms: C_37  and  C_38
                            x       y       z     vdW  Elec       q    Type
                         _______ _______ _______ _____ _____    ______ ____

>  <TORSDO>
F 17

$$$$
