=
 OpenBabel10222418593D

 43 48  0  0  1  0  0  0  0  0999 V2000
  187.8100  178.1170  141.3370 C   0  0  0  0  0  3  0  0  0  0  0  0
  189.5390  177.8250  139.5940 C   0  0  1  0  0  3  0  0  0  0  0  0
  188.7850  178.3760  137.3710 F   0  0  0  0  0  0  0  0  0  0  0  0
  188.3770  177.8190  138.5670 C   0  0  2  0  0  3  0  0  0  0  0  0
  187.1930  178.5270  139.0500 N   0  0  0  0  0  0  0  0  0  0  0  0
  185.6770  179.2530  140.7130 N   0  0  0  0  0  2  0  0  0  0  0  0
  186.8850  178.6110  140.3090 C   0  0  0  0  0  0  0  0  0  0  0  0
  189.0510  177.7160  141.0340 C   0  0  0  0  0  0  0  0  0  0  0  0
  192.0190  173.3440  136.1380 C   0  0  0  0  0  2  0  0  0  0  0  0
  190.0700  175.8530  138.2860 C   0  0  0  0  0  2  0  0  0  0  0  0
  191.7000  177.4640  138.7740 N   0  0  0  0  0  2  0  0  0  0  0  0
  193.1530  173.2500  137.0690 N   0  0  2  0  0  0  0  0  0  0  0  0
  190.7770  173.9070  136.8470 C   0  0  0  0  0  2  0  0  0  0  0  0
  191.1630  174.8380  137.9940 C   0  0  1  0  0  3  0  0  0  0  0  0
  193.6040  174.6090  137.4270 C   0  0  0  0  0  2  0  0  0  0  0  0
  192.7550  176.5300  138.7270 N   0  0  0  0  0  2  0  0  0  0  0  0
  192.4440  175.5880  137.6570 C   0  0  2  0  0  3  0  0  0  0  0  0
  190.5600  176.8090  139.2890 N   0  0  1  0  0  0  0  0  0  0  0  0
  195.4630  170.7570  137.3930 S   0  0  0  0  0  0  0  0  0  0  0  0
  195.1060  170.2070  138.7450 O   0  0  0  0  0  0  0  0  0  0  0  0
  196.5980  170.0380  136.7180 O   0  0  0  0  0  0  0  0  0  0  0  0
  194.2620  172.5870  136.3780 C   0  0  2  0  0  3  0  0  0  0  0  0
  194.0700  171.0600  136.3510 C   0  0  0  0  0  2  0  0  0  0  0  0
  195.4950  172.5270  137.2910 C   0  0  2  0  0  3  0  0  0  0  0  0
  196.7160  173.0160  136.5280 C   0  0  0  0  0  2  0  0  0  0  0  0
  198.7770  174.2430  137.0920 C   0  0  0  0  0  2  0  0  0  0  0  0
  197.2640  174.2760  137.1680 C   0  0  0  0  0  3  0  0  0  0  0  0
  197.9930  175.0870  136.1150 C   0  0  0  0  0  2  0  0  0  0  0  0
  189.9620  177.3200  142.1420 C   0  0  0  0  0  0  0  0  0  0  0  0
  191.5320  177.9110  143.9090 C   0  0  0  0  0  3  0  0  0  0  0  0
  190.9560  175.5890  143.5390 C   0  0  0  0  0  3  0  0  0  0  0  0
  190.1070  175.9660  142.4970 C   0  0  0  0  0  3  0  0  0  0  0  0
  191.6710  176.5610  144.2430 C   0  0  0  0  0  3  0  0  0  0  0  0
  190.6780  178.2870  142.8680 C   0  0  0  0  0  3  0  0  0  0  0  0
  184.7400  179.6950  139.7670 N   0  0  0  0  0  2  0  0  0  0  0  0
  183.5050  179.1340  140.1230 N   0  0  0  0  0  2  0  0  0  0  0  0
  183.7230  178.3540  141.3290 C   0  0  0  0  0  2  0  0  0  0  0  0
  182.7670  178.8150  142.4150 C   0  0  0  0  0  2  0  0  0  0  0  0
  183.4200  178.6740  143.7810 C   0  0  2  0  0  3  0  0  0  0  0  0
  182.4530  178.7860  144.7810 O   0  0  0  0  0  1  0  0  0  0  0  0
  184.3790  179.6770  143.9440 O   0  0  0  0  0  0  0  0  0  0  0  0
  185.9440  177.9790  144.5090 C   0  0  0  0  0  1  0  0  0  0  0  0
  185.2050  179.2180  144.9720 C   0  0  0  0  0  2  0  0  0  0  0  0
  2  8  1  1  0  0  0
  4  3  1  6  0  0  0
  4  5  1  0  0  0  0
  4  2  1  0  0  0  0
  5  7  2  0  0  0  0
  7  6  1  0  0  0  0
  7  1  1  0  0  0  0
  8  1  2  0  0  0  0
  8 29  1  0  0  0  0
  9 13  1  0  0  0  0
 11 18  1  0  0  0  0
 12  9  1  6  0  0  0
 12 15  1  0  0  0  0
 14 13  1  6  0  0  0
 14 10  1  0  0  0  0
 16 11  1  0  0  0  0
 17 15  1  1  0  0  0
 17 14  1  0  0  0  0
 17 16  1  0  0  0  0
 18 10  1  6  0  0  0
 18  2  1  0  0  0  0
 19 20  2  0  0  0  0
 21 19  2  0  0  0  0
 22 23  1  1  0  0  0
 22 12  1  0  0  0  0
 22 24  1  0  0  0  0
 23 19  1  0  0  0  0
 24 25  1  6  0  0  0
 24 19  1  0  0  0  0
 25 27  1  0  0  0  0
 26 27  1  0  0  0  0
 28 26  1  0  0  0  0
 28 27  1  0  0  0  0
 29 32  2  0  0  0  0
 29 34  1  0  0  0  0
 30 33  1  0  0  0  0
 31 33  2  0  0  0  0
 32 31  1  0  0  0  0
 34 30  2  0  0  0  0
 35 36  1  0  0  0  0
 35  6  1  0  0  0  0
 36 37  1  0  0  0  0
 37 38  1  0  0  0  0
 38 39  1  0  0  0  0
 39 41  1  0  0  0  0
 39 40  1  1  0  0  0
 41 43  1  0  0  0  0
 42 43  1  0  0  0  0
M  END
>  <MODEL>
1

>  <REMARK>
 VINA RESULT:      -7.7      0.000      0.000
  Name = 
  12 active torsions:
  status: ('A' for Active; 'I' for Inactive)
    1  A    between atoms: C_3  and  C_29
    2  A    between atoms: C_5  and  N_43
    3  A    between atoms: N_10  and  C_23
    4  A    between atoms: N_17  and  N_26
    5  A    between atoms: C_22  and  C_24
    6  A    between atoms: C_22  and  C_39
    7  A    between atoms: C_24  and  O_38
    8  A    between atoms: N_26  and  N_34
    9  A    between atoms: C_28  and  C_36
   10  A    between atoms: C_31  and  O_38
   11  A    between atoms: N_34  and  C_39
   12  A    between atoms: C_35  and  C_36
                            x       y       z     vdW  Elec       q    Type
                         _______ _______ _______ _____ _____    ______ ____

>  <TORSDO>
F 12

$$$$
=
 OpenBabel10222418593D

 43 48  0  0  1  0  0  0  0  0999 V2000
  187.5730  178.1730  141.4080 C   0  0  0  0  0  3  0  0  0  0  0  0
  189.2520  177.8830  139.6170 C   0  0  1  0  0  3  0  0  0  0  0  0
  188.4240  178.3970  137.4120 F   0  0  0  0  0  0  0  0  0  0  0  0
  188.0600  177.8490  138.6270 C   0  0  2  0  0  3  0  0  0  0  0  0
  186.8820  178.5470  139.1370 N   0  0  0  0  0  0  0  0  0  0  0  0
  185.4070  179.2740  140.8360 N   0  0  0  0  0  2  0  0  0  0  0  0
  186.6110  178.6430  140.4030 C   0  0  0  0  0  0  0  0  0  0  0  0
  188.8100  177.7840  141.0730 C   0  0  0  0  0  0  0  0  0  0  0  0
  191.7280  173.4470  136.1000 C   0  0  0  0  0  2  0  0  0  0  0  0
  189.7840  175.9250  138.2880 C   0  0  0  0  0  2  0  0  0  0  0  0
  191.4070  177.5440  138.7720 N   0  0  0  0  0  2  0  0  0  0  0  0
  192.8720  173.3540  137.0180 N   0  0  2  0  0  0  0  0  0  0  0  0
  190.4900  173.9960  136.8260 C   0  0  0  0  0  2  0  0  0  0  0  0
  190.8800  174.9200  137.9770 C   0  0  1  0  0  3  0  0  0  0  0  0
  193.3170  174.7140  137.3830 C   0  0  0  0  0  2  0  0  0  0  0  0
  192.4680  176.6180  138.7070 N   0  0  0  0  0  2  0  0  0  0  0  0
  192.1520  175.6820  137.6320 C   0  0  2  0  0  3  0  0  0  0  0  0
  190.2770  176.8760  139.2940 N   0  0  1  0  0  0  0  0  0  0  0  0
  195.2950  170.9730  137.3530 S   0  0  0  0  0  0  0  0  0  0  0  0
  195.0180  170.4720  138.7430 O   0  0  0  0  0  0  0  0  0  0  0  0
  196.4310  170.2690  136.6630 O   0  0  0  0  0  0  0  0  0  0  0  0
  193.9790  172.7040  136.3110 C   0  0  2  0  0  3  0  0  0  0  0  0
  193.8490  171.1720  136.3600 C   0  0  0  0  0  2  0  0  0  0  0  0
  195.2500  172.7360  137.1720 C   0  0  2  0  0  3  0  0  0  0  0  0
  196.4170  173.2370  136.3360 C   0  0  0  0  0  2  0  0  0  0  0  0
  198.6140  173.6810  137.3570 C   0  0  0  0  0  2  0  0  0  0  0  0
  197.2290  174.2470  137.1230 C   0  0  0  0  0  3  0  0  0  0  0  0
  198.3960  174.7100  136.2730 C   0  0  0  0  0  2  0  0  0  0  0  0
  189.7590  177.4140  142.1580 C   0  0  0  0  0  0  0  0  0  0  0  0
  191.0120  175.7300  143.3930 C   0  0  0  0  0  3  0  0  0  0  0  0
  191.2210  178.0650  143.9940 C   0  0  0  0  0  3  0  0  0  0  0  0
  190.3270  178.4070  142.9770 C   0  0  0  0  0  3  0  0  0  0  0  0
  191.5620  176.7260  144.2040 C   0  0  0  0  0  3  0  0  0  0  0  0
  190.1200  176.0730  142.3740 C   0  0  0  0  0  3  0  0  0  0  0  0
  184.4360  179.6910  139.9130 N   0  0  0  0  0  2  0  0  0  0  0  0
  183.4900  178.6610  139.8230 N   0  0  0  0  0  2  0  0  0  0  0  0
  182.7280  178.6710  141.0600 C   0  0  0  0  0  2  0  0  0  0  0  0
  181.2790  178.3230  140.7720 C   0  0  0  0  0  2  0  0  0  0  0  0
  180.3790  179.4950  141.1270 C   0  0  2  0  0  3  0  0  0  0  0  0
  180.5490  180.5210  140.1960 O   0  0  0  0  0  1  0  0  0  0  0  0
  180.7050  179.9630  142.4030 O   0  0  0  0  0  0  0  0  0  0  0  0
  179.9130  178.5070  144.1070 C   0  0  0  0  0  1  0  0  0  0  0  0
  179.5880  179.6670  143.1880 C   0  0  0  0  0  2  0  0  0  0  0  0
  2  8  1  1  0  0  0
  4  3  1  6  0  0  0
  4  5  1  0  0  0  0
  4  2  1  0  0  0  0
  5  7  2  0  0  0  0
  7  6  1  0  0  0  0
  7  1  1  0  0  0  0
  8  1  2  0  0  0  0
  8 29  1  0  0  0  0
  9 13  1  0  0  0  0
 11 18  1  0  0  0  0
 12  9  1  6  0  0  0
 12 15  1  0  0  0  0
 14 13  1  6  0  0  0
 14 10  1  0  0  0  0
 16 11  1  0  0  0  0
 17 15  1  1  0  0  0
 17 14  1  0  0  0  0
 17 16  1  0  0  0  0
 18 10  1  6  0  0  0
 18  2  1  0  0  0  0
 19 20  2  0  0  0  0
 21 19  2  0  0  0  0
 22 23  1  1  0  0  0
 22 12  1  0  0  0  0
 22 24  1  0  0  0  0
 23 19  1  0  0  0  0
 24 25  1  6  0  0  0
 24 19  1  0  0  0  0
 25 27  1  0  0  0  0
 27 26  1  0  0  0  0
 28 27  1  0  0  0  0
 28 26  1  0  0  0  0
 29 34  2  0  0  0  0
 29 32  1  0  0  0  0
 30 33  2  0  0  0  0
 31 33  1  0  0  0  0
 32 31  2  0  0  0  0
 34 30  1  0  0  0  0
 35  6  1  0  0  0  0
 36 35  1  0  0  0  0
 36 37  1  0  0  0  0
 38 37  1  0  0  0  0
 38 39  1  0  0  0  0
 39 40  1  6  0  0  0
 39 41  1  0  0  0  0
 41 43  1  0  0  0  0
 43 42  1  0  0  0  0
M  END
>  <MODEL>
2

>  <REMARK>
 VINA RESULT:      -7.1      1.350      1.963
  Name = 
  12 active torsions:
  status: ('A' for Active; 'I' for Inactive)
    1  A    between atoms: C_3  and  C_29
    2  A    between atoms: C_5  and  N_43
    3  A    between atoms: N_10  and  C_23
    4  A    between atoms: N_17  and  N_26
    5  A    between atoms: C_22  and  C_24
    6  A    between atoms: C_22  and  C_39
    7  A    between atoms: C_24  and  O_38
    8  A    between atoms: N_26  and  N_34
    9  A    between atoms: C_28  and  C_36
   10  A    between atoms: C_31  and  O_38
   11  A    between atoms: N_34  and  C_39
   12  A    between atoms: C_35  and  C_36
                            x       y       z     vdW  Elec       q    Type
                         _______ _______ _______ _____ _____    ______ ____

>  <TORSDO>
F 12

$$$$
=
 OpenBabel10222418593D

 43 48  0  0  1  0  0  0  0  0999 V2000
  187.7150  178.1490  141.5520 C   0  0  0  0  0  3  0  0  0  0  0  0
  189.4140  177.8930  139.7760 C   0  0  1  0  0  3  0  0  0  0  0  0
  188.6150  178.4610  137.5730 F   0  0  0  0  0  0  0  0  0  0  0  0
  188.2340  177.8880  138.7700 C   0  0  2  0  0  3  0  0  0  0  0  0
  187.0530  178.5790  139.2820 N   0  0  0  0  0  0  0  0  0  0  0  0
  185.5610  179.2730  140.9800 N   0  0  0  0  0  2  0  0  0  0  0  0
  186.7670  178.6460  140.5470 C   0  0  0  0  0  0  0  0  0  0  0  0
  188.9540  177.7620  141.2230 C   0  0  0  0  0  0  0  0  0  0  0  0
  192.0190  173.6670  136.0970 C   0  0  0  0  0  2  0  0  0  0  0  0
  189.9900  176.0240  138.3410 C   0  0  0  0  0  2  0  0  0  0  0  0
  191.6100  177.5670  139.0380 N   0  0  0  0  0  2  0  0  0  0  0  0
  193.1030  173.4810  137.0730 N   0  0  2  0  0  0  0  0  0  0  0  0
  190.7490  174.1890  136.7860 C   0  0  0  0  0  2  0  0  0  0  0  0
  191.0850  175.0190  138.0230 C   0  0  1  0  0  3  0  0  0  0  0  0
  193.5500  174.8010  137.5620 C   0  0  0  0  0  2  0  0  0  0  0  0
  192.6560  176.6230  138.9690 N   0  0  0  0  0  2  0  0  0  0  0  0
  192.3900  175.7750  137.8110 C   0  0  2  0  0  3  0  0  0  0  0  0
  190.4380  176.8890  139.4410 N   0  0  1  0  0  0  0  0  0  0  0  0
  195.4850  171.0580  137.3960 S   0  0  0  0  0  0  0  0  0  0  0  0
  195.1320  170.4840  138.7390 O   0  0  0  0  0  0  0  0  0  0  0  0
  196.6490  170.3800  136.7260 O   0  0  0  0  0  0  0  0  0  0  0  0
  194.2390  172.8600  136.3870 C   0  0  2  0  0  3  0  0  0  0  0  0
  194.0940  171.3280  136.3430 C   0  0  0  0  0  2  0  0  0  0  0  0
  195.4640  172.8280  137.3120 C   0  0  2  0  0  3  0  0  0  0  0  0
  196.6770  173.3620  136.5660 C   0  0  0  0  0  2  0  0  0  0  0  0
  197.2590  174.3930  138.7260 C   0  0  0  0  0  2  0  0  0  0  0  0
  197.1870  174.6250  137.2310 C   0  0  0  0  0  3  0  0  0  0  0  0
  198.5180  174.3310  137.8930 C   0  0  0  0  0  2  0  0  0  0  0  0
  189.8870  177.3620  142.3100 C   0  0  0  0  0  0  0  0  0  0  0  0
  191.0440  175.6360  143.5820 C   0  0  0  0  0  3  0  0  0  0  0  0
  191.4060  177.9680  144.1160 C   0  0  0  0  0  3  0  0  0  0  0  0
  190.5250  178.3380  143.0980 C   0  0  0  0  0  3  0  0  0  0  0  0
  191.6630  176.6170  144.3610 C   0  0  0  0  0  3  0  0  0  0  0  0
  190.1660  176.0070  142.5600 C   0  0  0  0  0  3  0  0  0  0  0  0
  184.6030  179.7170  140.0560 N   0  0  0  0  0  2  0  0  0  0  0  0
  183.5890  178.7490  140.0230 N   0  0  0  0  0  2  0  0  0  0  0  0
  183.1470  178.6410  138.6430 C   0  0  0  0  0  2  0  0  0  0  0  0
  182.4000  177.3340  138.4460 C   0  0  0  0  0  2  0  0  0  0  0  0
  183.2760  176.3370  137.7040 C   0  0  2  0  0  3  0  0  0  0  0  0
  183.3900  175.1630  138.4480 O   0  0  0  0  0  1  0  0  0  0  0  0
  184.5440  176.8900  137.5050 O   0  0  0  0  0  0  0  0  0  0  0  0
  186.0390  177.3690  135.7210 C   0  0  0  0  0  1  0  0  0  0  0  0
  184.9100  176.4910  136.2180 C   0  0  0  0  0  2  0  0  0  0  0  0
  2  8  1  1  0  0  0
  4  3  1  6  0  0  0
  4  5  1  0  0  0  0
  4  2  1  0  0  0  0
  5  7  2  0  0  0  0
  7  6  1  0  0  0  0
  7  1  1  0  0  0  0
  8  1  2  0  0  0  0
  8 29  1  0  0  0  0
  9 13  1  0  0  0  0
 11 18  1  0  0  0  0
 12  9  1  6  0  0  0
 12 15  1  0  0  0  0
 14 13  1  6  0  0  0
 14 10  1  0  0  0  0
 16 11  1  0  0  0  0
 17 15  1  1  0  0  0
 17 14  1  0  0  0  0
 17 16  1  0  0  0  0
 18 10  1  6  0  0  0
 18  2  1  0  0  0  0
 19 20  2  0  0  0  0
 21 19  2  0  0  0  0
 22 23  1  1  0  0  0
 22 12  1  0  0  0  0
 22 24  1  0  0  0  0
 23 19  1  0  0  0  0
 24 25  1  6  0  0  0
 24 19  1  0  0  0  0
 25 27  1  0  0  0  0
 27 28  1  0  0  0  0
 27 26  1  0  0  0  0
 28 26  1  0  0  0  0
 29 34  2  0  0  0  0
 29 32  1  0  0  0  0
 30 33  2  0  0  0  0
 31 33  1  0  0  0  0
 32 31  2  0  0  0  0
 34 30  1  0  0  0  0
 35  6  1  0  0  0  0
 36 35  1  0  0  0  0
 37 36  1  0  0  0  0
 38 37  1  0  0  0  0
 39 38  1  0  0  0  0
 39 40  1  1  0  0  0
 41 39  1  0  0  0  0
 42 43  1  0  0  0  0
 43 41  1  0  0  0  0
M  END
>  <MODEL>
3

>  <REMARK>
 VINA RESULT:      -7.0      2.065      2.925
  Name = 
  12 active torsions:
  status: ('A' for Active; 'I' for Inactive)
    1  A    between atoms: C_3  and  C_29
    2  A    between atoms: C_5  and  N_43
    3  A    between atoms: N_10  and  C_23
    4  A    between atoms: N_17  and  N_26
    5  A    between atoms: C_22  and  C_24
    6  A    between atoms: C_22  and  C_39
    7  A    between atoms: C_24  and  O_38
    8  A    between atoms: N_26  and  N_34
    9  A    between atoms: C_28  and  C_36
   10  A    between atoms: C_31  and  O_38
   11  A    between atoms: N_34  and  C_39
   12  A    between atoms: C_35  and  C_36
                            x       y       z     vdW  Elec       q    Type
                         _______ _______ _______ _____ _____    ______ ____

>  <TORSDO>
F 12

$$$$
=
 OpenBabel10222418593D

 43 48  0  0  1  0  0  0  0  0999 V2000
  187.7970  178.0960  141.3940 C   0  0  0  0  0  3  0  0  0  0  0  0
  189.5350  177.8240  139.6570 C   0  0  1  0  0  3  0  0  0  0  0  0
  188.7850  178.3730  137.4330 F   0  0  0  0  0  0  0  0  0  0  0  0
  188.3780  177.8100  138.6260 C   0  0  2  0  0  3  0  0  0  0  0  0
  187.1850  178.5060  139.1060 N   0  0  0  0  0  0  0  0  0  0  0  0
  185.6570  179.2150  140.7640 N   0  0  0  0  0  2  0  0  0  0  0  0
  186.8720  178.5850  140.3640 C   0  0  0  0  0  0  0  0  0  0  0  0
  189.0430  177.7070  141.0950 C   0  0  0  0  0  0  0  0  0  0  0  0
  192.1450  173.4720  136.1330 C   0  0  0  0  0  2  0  0  0  0  0  0
  190.1160  175.9020  138.2970 C   0  0  0  0  0  2  0  0  0  0  0  0
  191.7260  177.4890  138.9100 N   0  0  0  0  0  2  0  0  0  0  0  0
  193.2420  173.3390  137.1030 N   0  0  2  0  0  0  0  0  0  0  0  0
  190.8770  174.0100  136.8130 C   0  0  0  0  0  2  0  0  0  0  0  0
  191.2180  174.8950  138.0100 C   0  0  1  0  0  3  0  0  0  0  0  0
  193.6790  174.6830  137.5300 C   0  0  0  0  0  2  0  0  0  0  0  0
  192.7820  176.5550  138.8690 N   0  0  0  0  0  2  0  0  0  0  0  0
  192.5120  175.6550  137.7520 C   0  0  2  0  0  3  0  0  0  0  0  0
  190.5660  176.8170  139.3550 N   0  0  1  0  0  0  0  0  0  0  0  0
  195.0750  170.4620  136.9970 S   0  0  0  0  0  0  0  0  0  0  0  0
  194.3640  169.6280  138.0260 O   0  0  0  0  0  0  0  0  0  0  0  0
  196.2240  169.7600  136.3270 O   0  0  0  0  0  0  0  0  0  0  0  0
  194.3760  172.7000  136.4320 C   0  0  2  0  0  3  0  0  0  0  0  0
  193.9940  171.3120  135.8900 C   0  0  0  0  0  2  0  0  0  0  0  0
  195.3630  172.1460  137.4690 C   0  0  2  0  0  3  0  0  0  0  0  0
  196.7740  172.5880  137.1150 C   0  0  0  0  0  2  0  0  0  0  0  0
  198.6710  174.0170  137.7680 C   0  0  0  0  0  2  0  0  0  0  0  0
  197.1990  173.7440  137.9990 C   0  0  0  0  0  3  0  0  0  0  0  0
  197.6310  174.9020  137.1230 C   0  0  0  0  0  2  0  0  0  0  0  0
  189.9530  177.3160  142.2070 C   0  0  0  0  0  0  0  0  0  0  0  0
  190.9900  175.6030  143.5930 C   0  0  0  0  0  3  0  0  0  0  0  0
  191.5230  177.9350  143.9640 C   0  0  0  0  0  3  0  0  0  0  0  0
  190.6640  178.2960  142.9230 C   0  0  0  0  0  3  0  0  0  0  0  0
  191.6830  176.5890  144.3010 C   0  0  0  0  0  3  0  0  0  0  0  0
  190.1340  175.9650  142.5490 C   0  0  0  0  0  3  0  0  0  0  0  0
  184.7200  179.6500  139.8150 N   0  0  0  0  0  2  0  0  0  0  0  0
  183.5500  178.9050  140.0250 N   0  0  0  0  0  2  0  0  0  0  0  0
  182.7330  179.0490  138.8320 C   0  0  0  0  0  2  0  0  0  0  0  0
  182.3070  180.4980  138.6760 C   0  0  0  0  0  2  0  0  0  0  0  0
  180.9210  180.7030  139.2650 C   0  0  2  0  0  3  0  0  0  0  0  0
  180.0910  179.6430  138.8990 O   0  0  0  0  0  1  0  0  0  0  0  0
  180.3850  181.9020  138.7890 O   0  0  0  0  0  0  0  0  0  0  0  0
  179.7960  182.3760  136.5360 C   0  0  0  0  0  1  0  0  0  0  0  0
  180.9130  182.0440  137.5030 C   0  0  0  0  0  2  0  0  0  0  0  0
  2  8  1  1  0  0  0
  4  3  1  6  0  0  0
  4  5  1  0  0  0  0
  4  2  1  0  0  0  0
  5  7  2  0  0  0  0
  7  6  1  0  0  0  0
  7  1  1  0  0  0  0
  8  1  2  0  0  0  0
  8 29  1  0  0  0  0
  9 13  1  0  0  0  0
 11 18  1  0  0  0  0
 12  9  1  6  0  0  0
 12 15  1  0  0  0  0
 14 13  1  6  0  0  0
 14 10  1  0  0  0  0
 16 11  1  0  0  0  0
 17 15  1  1  0  0  0
 17 14  1  0  0  0  0
 17 16  1  0  0  0  0
 18 10  1  6  0  0  0
 18  2  1  0  0  0  0
 19 24  1  0  0  0  0
 19 20  2  0  0  0  0
 21 19  2  0  0  0  0
 22 23  1  1  0  0  0
 22 12  1  0  0  0  0
 22 24  1  0  0  0  0
 23 19  1  0  0  0  0
 24 25  1  6  0  0  0
 25 27  1  0  0  0  0
 26 27  1  0  0  0  0
 28 26  1  0  0  0  0
 28 27  1  0  0  0  0
 29 34  2  0  0  0  0
 29 32  1  0  0  0  0
 30 33  2  0  0  0  0
 31 33  1  0  0  0  0
 32 31  2  0  0  0  0
 34 30  1  0  0  0  0
 35 36  1  0  0  0  0
 35  6  1  0  0  0  0
 37 36  1  0  0  0  0
 38 37  1  0  0  0  0
 38 39  1  0  0  0  0
 39 40  1  6  0  0  0
 41 39  1  0  0  0  0
 42 43  1  0  0  0  0
 43 41  1  0  0  0  0
M  END
>  <MODEL>
4

>  <REMARK>
 VINA RESULT:      -6.7      2.276      2.958
  Name = 
  12 active torsions:
  status: ('A' for Active; 'I' for Inactive)
    1  A    between atoms: C_3  and  C_29
    2  A    between atoms: C_5  and  N_43
    3  A    between atoms: N_10  and  C_23
    4  A    between atoms: N_17  and  N_26
    5  A    between atoms: C_22  and  C_24
    6  A    between atoms: C_22  and  C_39
    7  A    between atoms: C_24  and  O_38
    8  A    between atoms: N_26  and  N_34
    9  A    between atoms: C_28  and  C_36
   10  A    between atoms: C_31  and  O_38
   11  A    between atoms: N_34  and  C_39
   12  A    between atoms: C_35  and  C_36
                            x       y       z     vdW  Elec       q    Type
                         _______ _______ _______ _____ _____    ______ ____

>  <TORSDO>
F 12

$$$$
=
 OpenBabel10222418593D

 43 48  0  0  1  0  0  0  0  0999 V2000
  191.2460  174.2520  136.1450 C   0  0  0  0  0  3  0  0  0  0  0  0
  191.0440  176.1540  137.7110 C   0  0  1  0  0  3  0  0  0  0  0  0
  193.1320  177.2730  138.1590 F   0  0  0  0  0  0  0  0  0  0  0  0
  192.5760  176.0330  137.9170 C   0  0  2  0  0  3  0  0  0  0  0  0
  193.2520  175.4160  136.7770 N   0  0  0  0  0  0  0  0  0  0  0  0
  193.4120  173.9260  134.9490 N   0  0  0  0  0  2  0  0  0  0  0  0
  192.6770  174.5480  136.0010 C   0  0  0  0  0  0  0  0  0  0  0  0
  190.4560  174.9670  136.9570 C   0  0  0  0  0  0  0  0  0  0  0  0
  190.7560  177.5880  143.7140 C   0  0  0  0  0  2  0  0  0  0  0  0
  191.2440  176.3390  140.1210 C   0  0  0  0  0  2  0  0  0  0  0  0
  189.7590  177.6930  138.9160 N   0  0  0  0  0  2  0  0  0  0  0  0
  189.2890  177.5210  143.6630 N   0  0  2  0  0  0  0  0  0  0  0  0
  191.3810  176.7210  142.6100 C   0  0  0  0  0  2  0  0  0  0  0  0
  190.4620  176.6160  141.3950 C   0  0  1  0  0  3  0  0  0  0  0  0
  188.8120  178.2020  142.4430 C   0  0  0  0  0  2  0  0  0  0  0  0
  188.8690  177.8250  140.0020 N   0  0  0  0  0  2  0  0  0  0  0  0
  189.6820  177.9110  141.2120 C   0  0  2  0  0  3  0  0  0  0  0  0
  190.3270  176.4010  138.9730 N   0  0  1  0  0  0  0  0  0  0  0  0
  188.8480  177.3400  147.0430 S   0  0  0  0  0  0  0  0  0  0  0  0
  189.4810  176.0110  147.3460 O   0  0  0  0  0  0  0  0  0  0  0  0
  188.3250  178.0600  148.2550 O   0  0  0  0  0  0  0  0  0  0  0  0
  188.7540  178.2540  144.8130 C   0  0  2  0  0  3  0  0  0  0  0  0
  189.7920  178.3500  145.9450 C   0  0  0  0  0  2  0  0  0  0  0  0
  187.7980  177.3590  145.6150 C   0  0  2  0  0  3  0  0  0  0  0  0
  186.5050  178.1120  145.8870 C   0  0  0  0  0  2  0  0  0  0  0  0
  184.2300  178.5980  145.0770 C   0  0  0  0  0  2  0  0  0  0  0  0
  185.5620  177.9760  144.7080 C   0  0  0  0  0  3  0  0  0  0  0  0
  185.2010  179.3590  144.2050 C   0  0  0  0  0  2  0  0  0  0  0  0
  188.9980  174.6690  136.9750 C   0  0  0  0  0  0  0  0  0  0  0  0
  186.6830  175.4010  136.7760 C   0  0  0  0  0  3  0  0  0  0  0  0
  187.1750  173.0700  137.2060 C   0  0  0  0  0  3  0  0  0  0  0  0
  188.5420  173.3560  137.1920 C   0  0  0  0  0  3  0  0  0  0  0  0
  186.2450  174.0930  137.0020 C   0  0  0  0  0  3  0  0  0  0  0  0
  188.0520  175.6850  136.7590 C   0  0  0  0  0  3  0  0  0  0  0  0
  194.7910  174.1390  134.8040 N   0  0  0  0  0  2  0  0  0  0  0  0
  195.4360  173.0200  135.3520 N   0  0  0  0  0  2  0  0  0  0  0  0
  196.7810  173.4360  135.7100 C   0  0  0  0  0  2  0  0  0  0  0  0
  196.7240  174.4030  136.8790 C   0  0  0  0  0  2  0  0  0  0  0  0
  198.1240  174.6600  137.4140 C   0  0  2  0  0  3  0  0  0  0  0  0
  198.6540  173.4790  137.9350 O   0  0  0  0  0  1  0  0  0  0  0  0
  198.0670  175.6300  138.4180 O   0  0  0  0  0  0  0  0  0  0  0  0
  197.7060  175.2470  140.7360 C   0  0  0  0  0  1  0  0  0  0  0  0
  198.6110  175.0090  139.5460 C   0  0  0  0  0  2  0  0  0  0  0  0
  1  8  2  0  0  0  0
  2  8  1  1  0  0  0
  2  4  1  0  0  0  0
  2 18  1  0  0  0  0
  4  3  1  6  0  0  0
  5  4  1  0  0  0  0
  6  7  1  0  0  0  0
  7  1  1  0  0  0  0
  7  5  2  0  0  0  0
  8 29  1  0  0  0  0
 11 18  1  0  0  0  0
 11 16  1  0  0  0  0
 12 15  1  6  0  0  0
 12  9  1  0  0  0  0
 12 22  1  0  0  0  0
 13  9  1  0  0  0  0
 14 10  1  6  0  0  0
 14 13  1  0  0  0  0
 16 17  1  0  0  0  0
 17 14  1  0  0  0  0
 17 15  1  1  0  0  0
 18 10  1  1  0  0  0
 19 20  2  0  0  0  0
 19 21  2  0  0  0  0
 22 24  1  0  0  0  0
 22 23  1  1  0  0  0
 23 19  1  0  0  0  0
 24 25  1  1  0  0  0
 24 19  1  0  0  0  0
 27 26  1  0  0  0  0
 27 25  1  0  0  0  0
 28 27  1  0  0  0  0
 28 26  1  0  0  0  0
 29 32  1  0  0  0  0
 30 33  2  0  0  0  0
 32 31  2  0  0  0  0
 33 31  1  0  0  0  0
 34 30  1  0  0  0  0
 34 29  2  0  0  0  0
 35  6  1  0  0  0  0
 35 36  1  0  0  0  0
 36 37  1  0  0  0  0
 37 38  1  0  0  0  0
 38 39  1  0  0  0  0
 39 40  1  1  0  0  0
 39 41  1  0  0  0  0
 41 43  1  0  0  0  0
 43 42  1  0  0  0  0
M  END
>  <MODEL>
5

>  <REMARK>
 VINA RESULT:      -6.6      3.483     10.904
  Name = 
  12 active torsions:
  status: ('A' for Active; 'I' for Inactive)
    1  A    between atoms: C_3  and  C_29
    2  A    between atoms: C_5  and  N_43
    3  A    between atoms: N_10  and  C_23
    4  A    between atoms: N_17  and  N_26
    5  A    between atoms: C_22  and  C_24
    6  A    between atoms: C_22  and  C_39
    7  A    between atoms: C_24  and  O_38
    8  A    between atoms: N_26  and  N_34
    9  A    between atoms: C_28  and  C_36
   10  A    between atoms: C_31  and  O_38
   11  A    between atoms: N_34  and  C_39
   12  A    between atoms: C_35  and  C_36
                            x       y       z     vdW  Elec       q    Type
                         _______ _______ _______ _____ _____    ______ ____

>  <TORSDO>
F 12

$$$$
=
 OpenBabel10222418593D

 43 48  0  0  1  0  0  0  0  0999 V2000
  187.3980  177.4370  143.8150 C   0  0  0  0  0  3  0  0  0  0  0  0
  188.7900  177.9670  141.8410 C   0  0  1  0  0  3  0  0  0  0  0  0
  187.5510  178.9060  139.9990 F   0  0  0  0  0  0  0  0  0  0  0  0
  187.4710  177.9880  141.0270 C   0  0  2  0  0  3  0  0  0  0  0  0
  186.3020  178.2890  141.8520 N   0  0  0  0  0  0  0  0  0  0  0  0
  185.0330  178.2330  143.8450 N   0  0  0  0  0  2  0  0  0  0  0  0
  186.2290  177.9800  143.1110 C   0  0  0  0  0  0  0  0  0  0  0  0
  188.6070  177.3910  143.2410 C   0  0  0  0  0  0  0  0  0  0  0  0
  191.5280  175.7810  136.7520 C   0  0  0  0  0  2  0  0  0  0  0  0
  189.4440  176.8580  139.7860 C   0  0  0  0  0  2  0  0  0  0  0  0
  190.9460  178.2140  140.9680 N   0  0  0  0  0  2  0  0  0  0  0  0
  192.6960  175.3790  137.5500 N   0  0  2  0  0  0  0  0  0  0  0  0
  190.2670  175.8470  137.6280 C   0  0  0  0  0  2  0  0  0  0  0  0
  190.6090  176.1880  139.0760 C   0  0  1  0  0  3  0  0  0  0  0  0
  193.0410  176.4630  138.4900 C   0  0  0  0  0  2  0  0  0  0  0  0
  192.0740  177.5020  140.5120 N   0  0  0  0  0  2  0  0  0  0  0  0
  191.8090  177.1220  139.1280 C   0  0  2  0  0  3  0  0  0  0  0  0
  189.8830  177.2960  141.1190 N   0  0  1  0  0  0  0  0  0  0  0  0
  194.4040  173.0400  135.7430 S   0  0  0  0  0  0  0  0  0  0  0  0
  193.6050  171.8030  136.0440 O   0  0  0  0  0  0  0  0  0  0  0  0
  195.5540  172.8140  134.8000 O   0  0  0  0  0  0  0  0  0  0  0  0
  193.8340  175.2040  136.6440 C   0  0  2  0  0  3  0  0  0  0  0  0
  193.4190  174.4560  135.3650 C   0  0  0  0  0  2  0  0  0  0  0  0
  194.7410  174.0710  137.1450 C   0  0  2  0  0  3  0  0  0  0  0  0
  196.1860  174.5430  137.1520 C   0  0  0  0  0  2  0  0  0  0  0  0
  198.4490  174.0150  137.9700 C   0  0  0  0  0  2  0  0  0  0  0  0
  196.9700  173.8190  138.2290 C   0  0  0  0  0  3  0  0  0  0  0  0
  197.7570  174.8350  139.0320 C   0  0  0  0  0  2  0  0  0  0  0  0
  189.7620  176.9180  144.0510 C   0  0  0  0  0  0  0  0  0  0  0  0
  191.1080  177.0120  146.0790 C   0  0  0  0  0  3  0  0  0  0  0  0
  191.6870  175.4500  144.3240 C   0  0  0  0  0  3  0  0  0  0  0  0
  190.6040  175.9010  143.5660 C   0  0  0  0  0  3  0  0  0  0  0  0
  191.9410  176.0080  145.5800 C   0  0  0  0  0  3  0  0  0  0  0  0
  190.0230  177.4610  145.3210 C   0  0  0  0  0  3  0  0  0  0  0  0
  183.8760  178.7020  143.2060 N   0  0  0  0  0  2  0  0  0  0  0  0
  183.1220  179.3840  144.1730 N   0  0  0  0  0  2  0  0  0  0  0  0
  181.8270  179.6700  143.5800 C   0  0  0  0  0  2  0  0  0  0  0  0
  181.4550  178.5690  142.6050 C   0  0  0  0  0  2  0  0  0  0  0  0
  179.9690  178.2650  142.6990 C   0  0  2  0  0  3  0  0  0  0  0  0
  179.6250  177.9980  144.0250 O   0  0  0  0  0  1  0  0  0  0  0  0
  179.6690  177.1550  141.9060 O   0  0  0  0  0  0  0  0  0  0  0  0
  178.9330  179.0160  140.6250 C   0  0  0  0  0  1  0  0  0  0  0  0
  179.5960  177.6550  140.6040 C   0  0  0  0  0  2  0  0  0  0  0  0
  2  8  1  1  0  0  0
  4  3  1  6  0  0  0
  4  2  1  0  0  0  0
  4  5  1  0  0  0  0
  5  7  2  0  0  0  0
  7  1  1  0  0  0  0
  7  6  1  0  0  0  0
  8  1  2  0  0  0  0
  8 29  1  0  0  0  0
  9 13  1  0  0  0  0
 11 18  1  0  0  0  0
 12  9  1  6  0  0  0
 12 15  1  0  0  0  0
 14 13  1  6  0  0  0
 14 17  1  0  0  0  0
 14 10  1  0  0  0  0
 16 11  1  0  0  0  0
 17 15  1  1  0  0  0
 17 16  1  0  0  0  0
 18 10  1  6  0  0  0
 18  2  1  0  0  0  0
 19 20  2  0  0  0  0
 19 24  1  0  0  0  0
 21 19  2  0  0  0  0
 22 23  1  6  0  0  0
 22 24  1  0  0  0  0
 22 12  1  0  0  0  0
 23 19  1  0  0  0  0
 24 25  1  6  0  0  0
 25 27  1  0  0  0  0
 26 27  1  0  0  0  0
 26 28  1  0  0  0  0
 27 28  1  0  0  0  0
 29 34  1  0  0  0  0
 31 33  2  0  0  0  0
 32 29  2  0  0  0  0
 32 31  1  0  0  0  0
 33 30  1  0  0  0  0
 34 30  2  0  0  0  0
 35  6  1  0  0  0  0
 35 36  1  0  0  0  0
 37 36  1  0  0  0  0
 38 39  1  0  0  0  0
 38 37  1  0  0  0  0
 39 40  1  1  0  0  0
 41 39  1  0  0  0  0
 43 42  1  0  0  0  0
 43 41  1  0  0  0  0
M  END
>  <MODEL>
6

>  <REMARK>
 VINA RESULT:      -6.2      2.263      3.115
  Name = 
  12 active torsions:
  status: ('A' for Active; 'I' for Inactive)
    1  A    between atoms: C_3  and  C_29
    2  A    between atoms: C_5  and  N_43
    3  A    between atoms: N_10  and  C_23
    4  A    between atoms: N_17  and  N_26
    5  A    between atoms: C_22  and  C_24
    6  A    between atoms: C_22  and  C_39
    7  A    between atoms: C_24  and  O_38
    8  A    between atoms: N_26  and  N_34
    9  A    between atoms: C_28  and  C_36
   10  A    between atoms: C_31  and  O_38
   11  A    between atoms: N_34  and  C_39
   12  A    between atoms: C_35  and  C_36
                            x       y       z     vdW  Elec       q    Type
                         _______ _______ _______ _____ _____    ______ ____

>  <TORSDO>
F 12

$$$$
=
 OpenBabel10222418593D

 43 48  0  0  1  0  0  0  0  0999 V2000
  191.4170  176.0280  136.3360 C   0  0  0  0  0  3  0  0  0  0  0  0
  191.6620  177.3500  138.4100 C   0  0  1  0  0  3  0  0  0  0  0  0
  193.9400  177.5510  139.1750 F   0  0  0  0  0  0  0  0  0  0  0  0
  193.0540  176.6850  138.5650 C   0  0  2  0  0  3  0  0  0  0  0  0
  193.6130  176.2410  137.2900 N   0  0  0  0  0  0  0  0  0  0  0  0
  193.4820  175.3790  135.0920 N   0  0  0  0  0  2  0  0  0  0  0  0
  192.8770  175.8720  136.2860 C   0  0  0  0  0  0  0  0  0  0  0  0
  190.8120  176.6910  137.3300 C   0  0  0  0  0  0  0  0  0  0  0  0
  186.5830  178.1070  141.8460 C   0  0  0  0  0  2  0  0  0  0  0  0
  189.6240  178.0710  139.5090 C   0  0  0  0  0  2  0  0  0  0  0  0
  190.7480  176.1280  140.1830 N   0  0  0  0  0  2  0  0  0  0  0  0
  187.3700  177.8790  143.0660 N   0  0  2  0  0  0  0  0  0  0  0  0
  187.4770  178.6270  140.7090 C   0  0  0  0  0  2  0  0  0  0  0  0
  188.9110  178.1230  140.8500 C   0  0  1  0  0  3  0  0  0  0  0  0
  188.2790  176.7350  142.8530 C   0  0  0  0  0  2  0  0  0  0  0  0
  190.2910  176.2270  141.5130 N   0  0  0  0  0  2  0  0  0  0  0  0
  188.9200  176.7270  141.4580 C   0  0  2  0  0  3  0  0  0  0  0  0
  190.9380  177.4380  139.6890 N   0  0  1  0  0  0  0  0  0  0  0  0
  184.8740  179.1030  145.0460 S   0  0  0  0  0  0  0  0  0  0  0  0
  184.7480  180.5050  144.5190 O   0  0  0  0  0  0  0  0  0  0  0  0
  183.9010  178.7720  146.1440 O   0  0  0  0  0  0  0  0  0  0  0  0
  186.4510  177.5150  144.1460 C   0  0  2  0  0  3  0  0  0  0  0  0
  184.9970  177.8720  143.7860 C   0  0  0  0  0  2  0  0  0  0  0  0
  186.5370  178.5410  145.2850 C   0  0  2  0  0  3  0  0  0  0  0  0
  186.6910  177.8140  146.6120 C   0  0  0  0  0  2  0  0  0  0  0  0
  188.0650  178.2070  148.6190 C   0  0  0  0  0  2  0  0  0  0  0  0
  188.1110  177.9560  147.1260 C   0  0  0  0  0  3  0  0  0  0  0  0
  188.3980  176.8290  148.0980 C   0  0  0  0  0  2  0  0  0  0  0  0
  189.3390  176.8900  137.2600 C   0  0  0  0  0  0  0  0  0  0  0  0
  187.4120  178.3050  136.7960 C   0  0  0  0  0  3  0  0  0  0  0  0
  187.0790  176.0160  137.5060 C   0  0  0  0  0  3  0  0  0  0  0  0
  188.4620  175.8360  137.5750 C   0  0  0  0  0  3  0  0  0  0  0  0
  186.5530  177.2520  137.1200 C   0  0  0  0  0  3  0  0  0  0  0  0
  188.7960  178.1230  136.8610 C   0  0  0  0  0  3  0  0  0  0  0  0
  194.8660  175.1660  135.0170 N   0  0  0  0  0  2  0  0  0  0  0  0
  195.1030  173.8610  135.4730 N   0  0  0  0  0  2  0  0  0  0  0  0
  196.5390  173.6470  135.4270 C   0  0  0  0  0  2  0  0  0  0  0  0
  197.2500  174.7880  136.1310 C   0  0  0  0  0  2  0  0  0  0  0  0
  198.0090  174.2650  137.3400 C   0  0  2  0  0  3  0  0  0  0  0  0
  197.6360  172.9450  137.5970 O   0  0  0  0  0  1  0  0  0  0  0  0
  197.7160  175.0580  138.4520 O   0  0  0  0  0  0  0  0  0  0  0  0
  196.1860  175.2300  140.2630 C   0  0  0  0  0  1  0  0  0  0  0  0
  196.5230  174.5380  138.9580 C   0  0  0  0  0  2  0  0  0  0  0  0
  1  8  2  0  0  0  0
  2  8  1  6  0  0  0
  2  4  1  0  0  0  0
  2 18  1  0  0  0  0
  4  3  1  6  0  0  0
  5  4  1  0  0  0  0
  6  7  1  0  0  0  0
  7  1  1  0  0  0  0
  7  5  2  0  0  0  0
 11 16  1  0  0  0  0
 12  9  1  6  0  0  0
 12 22  1  0  0  0  0
 13 14  1  0  0  0  0
 13  9  1  0  0  0  0
 14 10  1  6  0  0  0
 14 17  1  0  0  0  0
 15 12  1  0  0  0  0
 17 16  1  0  0  0  0
 17 15  1  1  0  0  0
 18 10  1  6  0  0  0
 18 11  1  0  0  0  0
 19 24  1  0  0  0  0
 19 21  2  0  0  0  0
 20 19  2  0  0  0  0
 22 23  1  6  0  0  0
 22 24  1  0  0  0  0
 23 19  1  0  0  0  0
 24 25  1  1  0  0  0
 25 27  1  0  0  0  0
 27 28  1  0  0  0  0
 27 26  1  0  0  0  0
 28 26  1  0  0  0  0
 29  8  1  0  0  0  0
 29 32  1  0  0  0  0
 30 34  1  0  0  0  0
 30 33  2  0  0  0  0
 31 32  2  0  0  0  0
 33 31  1  0  0  0  0
 34 29  2  0  0  0  0
 35  6  1  0  0  0  0
 35 36  1  0  0  0  0
 37 36  1  0  0  0  0
 37 38  1  0  0  0  0
 38 39  1  0  0  0  0
 39 40  1  1  0  0  0
 39 41  1  0  0  0  0
 41 43  1  0  0  0  0
 43 42  1  0  0  0  0
M  END
>  <MODEL>
7

>  <REMARK>
 VINA RESULT:      -6.1      3.454     10.984
  Name = 
  12 active torsions:
  status: ('A' for Active; 'I' for Inactive)
    1  A    between atoms: C_3  and  C_29
    2  A    between atoms: C_5  and  N_43
    3  A    between atoms: N_10  and  C_23
    4  A    between atoms: N_17  and  N_26
    5  A    between atoms: C_22  and  C_24
    6  A    between atoms: C_22  and  C_39
    7  A    between atoms: C_24  and  O_38
    8  A    between atoms: N_26  and  N_34
    9  A    between atoms: C_28  and  C_36
   10  A    between atoms: C_31  and  O_38
   11  A    between atoms: N_34  and  C_39
   12  A    between atoms: C_35  and  C_36
                            x       y       z     vdW  Elec       q    Type
                         _______ _______ _______ _____ _____    ______ ____

>  <TORSDO>
F 12

$$$$
=
 OpenBabel10222418593D

 43 48  0  0  1  0  0  0  0  0999 V2000
  186.0930  178.4980  139.2550 C   0  0  0  0  0  3  0  0  0  0  0  0
  188.1420  177.1170  139.1770 C   0  0  1  0  0  3  0  0  0  0  0  0
  189.4560  177.2080  141.1960 F   0  0  0  0  0  0  0  0  0  0  0  0
  188.6550  177.9680  140.3670 C   0  0  2  0  0  3  0  0  0  0  0  0
  187.5690  178.5540  141.1510 N   0  0  0  0  0  0  0  0  0  0  0  0
  185.4230  179.5020  141.4390 N   0  0  0  0  0  2  0  0  0  0  0  0
  186.4170  178.8650  140.6390 C   0  0  0  0  0  0  0  0  0  0  0  0
  186.8920  177.7030  138.5310 C   0  0  0  0  0  0  0  0  0  0  0  0
  193.9040  175.6830  137.4660 C   0  0  0  0  0  2  0  0  0  0  0  0
  190.5300  176.9370  138.7890 C   0  0  0  0  0  2  0  0  0  0  0  0
  189.0070  175.5570  137.6630 N   0  0  0  0  0  2  0  0  0  0  0  0
  193.4980  175.7240  136.0540 N   0  0  2  0  0  0  0  0  0  0  0  0
  192.9790  176.5600  138.3250 C   0  0  0  0  0  2  0  0  0  0  0  0
  191.5770  176.6470  137.7270 C   0  0  1  0  0  3  0  0  0  0  0  0
  192.2020  175.0340  135.8990 C   0  0  0  0  0  2  0  0  0  0  0  0
  189.8460  175.4110  136.5390 N   0  0  0  0  0  2  0  0  0  0  0  0
  191.2170  175.3390  137.0360 C   0  0  2  0  0  3  0  0  0  0  0  0
  189.1950  176.8590  138.1800 N   0  0  1  0  0  0  0  0  0  0  0  0
  194.9530  172.6560  135.7060 S   0  0  0  0  0  0  0  0  0  0  0  0
  194.2330  171.8730  136.7670 O   0  0  0  0  0  0  0  0  0  0  0  0
  195.9490  171.8500  134.9190 O   0  0  0  0  0  0  0  0  0  0  0  0
  194.4870  174.9820  135.2690 C   0  0  2  0  0  3  0  0  0  0  0  0
  193.8960  173.6710  134.7210 C   0  0  0  0  0  2  0  0  0  0  0  0
  195.4810  174.2740  136.2010 C   0  0  2  0  0  3  0  0  0  0  0  0
  196.9020  174.5590  135.7390 C   0  0  0  0  0  2  0  0  0  0  0  0
  197.3000  174.0740  138.1210 C   0  0  0  0  0  2  0  0  0  0  0  0
  197.7870  174.8720  136.9290 C   0  0  0  0  0  3  0  0  0  0  0  0
  198.5120  173.6090  137.3490 C   0  0  0  0  0  2  0  0  0  0  0  0
  186.4480  177.2970  137.1700 C   0  0  0  0  0  0  0  0  0  0  0  0
  185.2250  175.7860  135.7020 C   0  0  0  0  0  3  0  0  0  0  0  0
  186.3970  177.6840  134.7650 C   0  0  0  0  0  3  0  0  0  0  0  0
  186.8150  178.0570  136.0450 C   0  0  0  0  0  3  0  0  0  0  0  0
  185.6050  176.5460  134.5940 C   0  0  0  0  0  3  0  0  0  0  0  0
  185.6400  176.1620  136.9830 C   0  0  0  0  0  3  0  0  0  0  0  0
  185.7040  179.9170  142.7500 N   0  0  0  0  0  2  0  0  0  0  0  0
  184.5770  179.6120  143.5250 N   0  0  0  0  0  2  0  0  0  0  0  0
  184.7460  178.2510  144.0070 C   0  0  0  0  0  2  0  0  0  0  0  0
  186.1390  178.0820  144.5850 C   0  0  0  0  0  2  0  0  0  0  0  0
  186.0860  178.1400  146.1030 C   0  0  2  0  0  3  0  0  0  0  0  0
  185.6260  179.3920  146.5120 O   0  0  0  0  0  1  0  0  0  0  0  0
  187.3650  177.9180  146.6220 O   0  0  0  0  0  0  0  0  0  0  0  0
  188.6100  178.0670  148.6410 C   0  0  0  0  0  1  0  0  0  0  0  0
  187.2860  178.3310  147.9540 C   0  0  0  0  0  2  0  0  0  0  0  0
  1  7  1  0  0  0  0
  2  8  1  6  0  0  0
  2  4  1  0  0  0  0
  4  5  1  0  0  0  0
  4  3  1  1  0  0  0
  6 35  1  0  0  0  0
  7  5  2  0  0  0  0
  7  6  1  0  0  0  0
  8  1  2  0  0  0  0
  9 13  1  0  0  0  0
 11 18  1  0  0  0  0
 12 15  1  1  0  0  0
 12  9  1  0  0  0  0
 14 13  1  1  0  0  0
 14 10  1  0  0  0  0
 16 17  1  0  0  0  0
 16 11  1  0  0  0  0
 17 15  1  6  0  0  0
 17 14  1  0  0  0  0
 18 10  1  1  0  0  0
 18  2  1  0  0  0  0
 19 24  1  0  0  0  0
 19 20  2  0  0  0  0
 21 19  2  0  0  0  0
 22 23  1  1  0  0  0
 22 12  1  0  0  0  0
 22 24  1  0  0  0  0
 23 19  1  0  0  0  0
 24 25  1  6  0  0  0
 25 27  1  0  0  0  0
 27 28  1  0  0  0  0
 27 26  1  0  0  0  0
 28 26  1  0  0  0  0
 29  8  1  0  0  0  0
 30 34  2  0  0  0  0
 31 32  1  0  0  0  0
 32 29  2  0  0  0  0
 33 31  2  0  0  0  0
 33 30  1  0  0  0  0
 34 29  1  0  0  0  0
 35 36  1  0  0  0  0
 36 37  1  0  0  0  0
 37 38  1  0  0  0  0
 38 39  1  0  0  0  0
 39 40  1  6  0  0  0
 39 41  1  0  0  0  0
 41 43  1  0  0  0  0
 43 42  1  0  0  0  0
M  END
>  <MODEL>
8

>  <REMARK>
 VINA RESULT:      -6.1      2.550      4.330
  Name = 
  12 active torsions:
  status: ('A' for Active; 'I' for Inactive)
    1  A    between atoms: C_3  and  C_29
    2  A    between atoms: C_5  and  N_43
    3  A    between atoms: N_10  and  C_23
    4  A    between atoms: N_17  and  N_26
    5  A    between atoms: C_22  and  C_24
    6  A    between atoms: C_22  and  C_39
    7  A    between atoms: C_24  and  O_38
    8  A    between atoms: N_26  and  N_34
    9  A    between atoms: C_28  and  C_36
   10  A    between atoms: C_31  and  O_38
   11  A    between atoms: N_34  and  C_39
   12  A    between atoms: C_35  and  C_36
                            x       y       z     vdW  Elec       q    Type
                         _______ _______ _______ _____ _____    ______ ____

>  <TORSDO>
F 12

$$$$
=
 OpenBabel10222418593D

 43 48  0  0  1  0  0  0  0  0999 V2000
  182.0570  178.1500  136.5290 C   0  0  0  0  0  3  0  0  0  0  0  0
  182.3970  178.1210  138.9780 C   0  0  1  0  0  3  0  0  0  0  0  0
  181.3850  179.9850  140.1240 F   0  0  0  0  0  0  0  0  0  0  0  0
  182.0310  179.6280  138.9570 C   0  0  2  0  0  3  0  0  0  0  0  0
  181.1970  179.9910  137.8130 N   0  0  0  0  0  0  0  0  0  0  0  0
  180.4630  179.8150  135.5730 N   0  0  0  0  0  2  0  0  0  0  0  0
  181.2490  179.3680  136.6750 C   0  0  0  0  0  0  0  0  0  0  0  0
  182.6320  177.5550  137.5820 C   0  0  0  0  0  0  0  0  0  0  0  0
  188.1880  178.8780  140.9940 C   0  0  0  0  0  2  0  0  0  0  0  0
  184.7930  178.3130  139.3030 C   0  0  0  0  0  2  0  0  0  0  0  0
  183.3030  178.4970  141.1010 N   0  0  0  0  0  2  0  0  0  0  0  0
  187.9390  177.9200  142.0800 N   0  0  2  0  0  0  0  0  0  0  0  0
  187.2440  178.6180  139.8090 C   0  0  0  0  0  2  0  0  0  0  0  0
  185.9230  178.0070  140.2710 C   0  0  1  0  0  3  0  0  0  0  0  0
  186.6200  178.1990  142.6830 C   0  0  0  0  0  2  0  0  0  0  0  0
  184.2430  178.0160  142.0360 N   0  0  0  0  0  2  0  0  0  0  0  0
  185.5450  178.5480  141.6440 C   0  0  2  0  0  3  0  0  0  0  0  0
  183.5280  177.8320  139.8760 N   0  0  1  0  0  0  0  0  0  0  0  0
  190.5420  176.4090  143.6900 S   0  0  0  0  0  0  0  0  0  0  0  0
  190.5840  175.0810  142.9870 O   0  0  0  0  0  0  0  0  0  0  0  0
  191.6050  176.5810  144.7390 O   0  0  0  0  0  0  0  0  0  0  0  0
  188.9490  178.1290  143.1200 C   0  0  2  0  0  3  0  0  0  0  0  0
  190.3590  177.7890  142.6030 C   0  0  0  0  0  2  0  0  0  0  0  0
  188.9200  176.9710  144.1290 C   0  0  2  0  0  3  0  0  0  0  0  0
  188.8900  177.5300  145.5420 C   0  0  0  0  0  2  0  0  0  0  0  0
  187.5900  177.7440  147.6230 C   0  0  0  0  0  2  0  0  0  0  0  0
  187.5800  177.1760  146.2190 C   0  0  0  0  0  3  0  0  0  0  0  0
  186.8250  178.4530  146.5300 C   0  0  0  0  0  2  0  0  0  0  0  0
  183.3540  176.2710  137.3670 C   0  0  0  0  0  0  0  0  0  0  0  0
  185.2880  175.0390  136.5460 C   0  0  0  0  0  3  0  0  0  0  0  0
  183.4690  173.8500  137.6090 C   0  0  0  0  0  3  0  0  0  0  0  0
  182.7930  175.0570  137.8040 C   0  0  0  0  0  3  0  0  0  0  0  0
  184.7150  173.8410  136.9780 C   0  0  0  0  0  3  0  0  0  0  0  0
  184.6130  176.2470  136.7450 C   0  0  0  0  0  3  0  0  0  0  0  0
  179.7160  181.0010  135.6500 N   0  0  0  0  0  2  0  0  0  0  0  0
  180.2790  181.8980  134.7310 N   0  0  0  0  0  2  0  0  0  0  0  0
  179.4540  183.0940  134.7430 C   0  0  0  0  0  2  0  0  0  0  0  0
  179.3330  183.6180  136.1620 C   0  0  0  0  0  2  0  0  0  0  0  0
  180.2040  184.8510  136.3410 C   0  0  2  0  0  3  0  0  0  0  0  0
  181.4120  184.6780  135.6650 O   0  0  0  0  0  1  0  0  0  0  0  0
  180.4550  185.0500  137.7010 O   0  0  0  0  0  0  0  0  0  0  0  0
  178.9390  186.4780  138.8470 C   0  0  0  0  0  1  0  0  0  0  0  0
  179.1910  185.0900  138.2950 C   0  0  0  0  0  2  0  0  0  0  0  0
  1  7  1  0  0  0  0
  1  8  2  0  0  0  0
  2  8  1  6  0  0  0
  2 18  1  0  0  0  0
  4  2  1  0  0  0  0
  4  3  1  1  0  0  0
  5  4  1  0  0  0  0
  6 35  1  0  0  0  0
  6  7  1  0  0  0  0
  7  5  2  0  0  0  0
 11 16  1  0  0  0  0
 12  9  1  6  0  0  0
 12 15  1  0  0  0  0
 12 22  1  0  0  0  0
 13 14  1  0  0  0  0
 13  9  1  0  0  0  0
 14 10  1  6  0  0  0
 14 17  1  0  0  0  0
 17 16  1  0  0  0  0
 17 15  1  1  0  0  0
 18 10  1  6  0  0  0
 18 11  1  0  0  0  0
 19 24  1  0  0  0  0
 19 21  2  0  0  0  0
 20 19  2  0  0  0  0
 22 23  1  6  0  0  0
 22 24  1  0  0  0  0
 23 19  1  0  0  0  0
 24 25  1  1  0  0  0
 25 27  1  0  0  0  0
 27 28  1  0  0  0  0
 27 26  1  0  0  0  0
 28 26  1  0  0  0  0
 29  8  1  0  0  0  0
 29 32  1  0  0  0  0
 30 34  1  0  0  0  0
 30 33  2  0  0  0  0
 31 32  2  0  0  0  0
 33 31  1  0  0  0  0
 34 29  2  0  0  0  0
 36 37  1  0  0  0  0
 36 35  1  0  0  0  0
 37 38  1  0  0  0  0
 38 39  1  0  0  0  0
 39 40  1  6  0  0  0
 39 41  1  0  0  0  0
 41 43  1  0  0  0  0
 43 42  1  0  0  0  0
M  END
>  <MODEL>
9

>  <REMARK>
 VINA RESULT:      -6.1      6.061      9.450
  Name = 
  12 active torsions:
  status: ('A' for Active; 'I' for Inactive)
    1  A    between atoms: C_3  and  C_29
    2  A    between atoms: C_5  and  N_43
    3  A    between atoms: N_10  and  C_23
    4  A    between atoms: N_17  and  N_26
    5  A    between atoms: C_22  and  C_24
    6  A    between atoms: C_22  and  C_39
    7  A    between atoms: C_24  and  O_38
    8  A    between atoms: N_26  and  N_34
    9  A    between atoms: C_28  and  C_36
   10  A    between atoms: C_31  and  O_38
   11  A    between atoms: N_34  and  C_39
   12  A    between atoms: C_35  and  C_36
                            x       y       z     vdW  Elec       q    Type
                         _______ _______ _______ _____ _____    ______ ____

>  <TORSDO>
F 12

$$$$
