=
 OpenBabel10222420013D

 36 40  0  0  1  0  0  0  0  0999 V2000
  182.2230  179.6080  138.8080 N   0  0  0  0  0  2  0  0  0  0  0  0
  183.3190  180.5270  138.7770 C   0  0  0  0  0  3  0  0  0  0  0  0
  184.5360  180.1080  138.9620 N   0  0  0  0  0  0  0  0  0  0  0  0
  184.8860  178.6840  139.1020 C   0  0  1  0  0  3  0  0  0  0  0  0
  181.4960  177.4470  139.2850 O   0  0  0  0  0  0  0  0  0  0  0  0
  182.4370  178.2830  139.2910 C   0  0  0  0  0  0  0  0  0  0  0  0
  183.7770  177.9130  139.8530 C   0  0  2  0  0  3  0  0  0  0  0  0
  184.6360  176.7110  137.7820 C   0  0  0  0  0  2  0  0  0  0  0  0
  186.5930  178.0050  137.5810 C   0  0  1  0  0  3  0  0  0  0  0  0
  186.2660  175.8740  136.0960 C   0  0  0  0  0  2  0  0  0  0  0  0
  185.7630  175.7310  137.5240 C   0  0  1  0  0  3  0  0  0  0  0  0
  185.1450  178.0860  137.7820 N   0  0  2  0  0  0  0  0  0  0  0  0
  186.9660  176.5770  137.2390 C   0  0  2  0  0  0  0  0  0  0  0  0
  187.0160  178.9470  136.4660 C   0  0  0  0  0  1  0  0  0  0  0  0
  188.2360  175.9590  137.7900 C   0  0  0  0  0  2  0  0  0  0  0  0
  189.2110  177.0000  138.0630 N   0  0  0  0  0  2  0  0  0  0  0  0
  190.1470  176.4510  139.0300 C   0  0  0  0  0  2  0  0  0  0  0  0
  190.4750  177.4830  140.1060 C   0  0  2  0  0  3  0  0  0  0  0  0
  191.8490  177.6380  140.1880 F   0  0  0  0  0  0  0  0  0  0  0  0
  189.8880  177.1010  141.4710 C   0  0  1  0  0  3  0  0  0  0  0  0
  190.9330  178.6130  143.1560 O   0  0  0  0  0  1  0  0  0  0  0  0
  190.8730  177.3570  142.5700 C   0  0  0  0  0  0  0  0  0  0  0  0
  191.6460  176.4440  142.9670 O   0  0  0  0  0  0  0  0  0  0  0  0
  188.6250  177.8570  141.7600 C   0  0  0  0  0  3  0  0  0  0  0  0
  188.0910  178.6070  140.8690 N   0  0  0  0  0  2  0  0  0  0  0  0
  184.5130  178.3110  143.3020 C   0  0  0  0  0  0  0  0  0  0  0  0
  182.8640  178.6470  142.0540 O   0  0  0  0  0  0  0  0  0  0  0  0
  183.2380  178.7460  143.2920 N   0  0  0  0  0  0  0  0  0  0  0  0
  183.8510  178.1820  141.3270 C   0  0  0  0  0  0  0  0  0  0  0  0
  184.9430  177.9390  142.0780 N   0  0  0  0  0  0  0  0  0  0  0  0
  185.3500  178.2600  144.5110 C   0  0  0  0  0  0  0  0  0  0  0  0
  184.9450  178.9200  145.6810 C   0  0  0  0  0  3  0  0  0  0  0  0
  186.5580  177.5490  144.5070 C   0  0  0  0  0  3  0  0  0  0  0  0
  185.7360  178.8640  146.8320 C   0  0  0  0  0  3  0  0  0  0  0  0
  186.9370  178.1510  146.8220 C   0  0  0  0  0  3  0  0  0  0  0  0
  187.3490  177.4940  145.6580 C   0  0  0  0  0  3  0  0  0  0  0  0
  1  6  1  0  0  0  0
  2  1  1  0  0  0  0
  2  3  2  0  0  0  0
  4  3  1  6  0  0  0
  4  7  1  0  0  0  0
  5  6  2  0  0  0  0
  6  7  1  0  0  0  0
  7 29  1  1  0  0  0
  9 14  1  6  0  0  0
  9 12  1  0  0  0  0
 10 13  1  0  0  0  0
 11 10  1  6  0  0  0
 11  8  1  0  0  0  0
 12  8  1  1  0  0  0
 12  4  1  0  0  0  0
 13 11  1  0  0  0  0
 13  9  1  0  0  0  0
 13 15  1  1  0  0  0
 15 16  1  0  0  0  0
 16 17  1  0  0  0  0
 17 18  1  0  0  0  0
 18 19  1  1  0  0  0
 18 20  1  0  0  0  0
 20 24  1  1  0  0  0
 20 22  1  0  0  0  0
 22 23  2  0  0  0  0
 22 21  1  0  0  0  0
 25 24  2  0  0  0  0
 26 31  1  0  0  0  0
 27 28  1  0  0  0  0
 28 26  2  0  0  0  0
 29 27  1  0  0  0  0
 29 30  2  0  0  0  0
 30 26  1  0  0  0  0
 31 32  1  0  0  0  0
 32 34  2  0  0  0  0
 33 31  2  0  0  0  0
 33 36  1  0  0  0  0
 35 34  1  0  0  0  0
 36 35  2  0  0  0  0
M  END
>  <MODEL>
1

>  <REMARK>
 VINA RESULT:      -7.7      0.000      0.000
  Name = 
  10 active torsions:
  status: ('A' for Active; 'I' for Inactive)
    1  A    between atoms: C_2  and  C_4
    2  A    between atoms: N_6  and  C_7
    3  A    between atoms: N_6  and  C_18
    4  A    between atoms: C_7  and  C_30
    5  A    between atoms: C_13  and  N_27
    6  A    between atoms: C_14  and  C_17
    7  A    between atoms: C_14  and  C_20
    8  A    between atoms: C_14  and  C_29
    9  A    between atoms: C_17  and  C_18
   10  A    between atoms: C_19  and  C_32
                            x       y       z     vdW  Elec       q    Type
                         _______ _______ _______ _____ _____    ______ ____

>  <TORSDO>
F 10

$$$$
=
 OpenBabel10222420013D

 36 40  0  0  1  0  0  0  0  0999 V2000
  190.0340  177.7650  136.9870 N   0  0  0  0  0  2  0  0  0  0  0  0
  190.0160  176.3390  137.1010 C   0  0  0  0  0  3  0  0  0  0  0  0
  189.0030  175.7330  137.6460 N   0  0  0  0  0  0  0  0  0  0  0  0
  187.7800  176.4350  138.0740 C   0  0  1  0  0  3  0  0  0  0  0  0
  189.0350  179.7860  137.5730 O   0  0  0  0  0  0  0  0  0  0  0  0
  189.0630  178.5340  137.6940 C   0  0  0  0  0  0  0  0  0  0  0  0
  188.1130  177.8400  138.6240 C   0  0  2  0  0  3  0  0  0  0  0  0
  186.0590  177.7650  137.0890 C   0  0  0  0  0  2  0  0  0  0  0  0
  185.8570  175.4190  137.0950 C   0  0  1  0  0  3  0  0  0  0  0  0
  184.0160  176.8950  135.9620 C   0  0  0  0  0  2  0  0  0  0  0  0
  184.5820  177.4700  137.2520 C   0  0  1  0  0  3  0  0  0  0  0  0
  186.8180  176.5150  136.9630 N   0  0  2  0  0  0  0  0  0  0  0  0
  184.4530  175.9860  137.0920 C   0  0  2  0  0  0  0  0  0  0  0  0
  186.0350  174.4320  135.9530 C   0  0  0  0  0  1  0  0  0  0  0  0
  183.3850  175.4100  138.0000 C   0  0  0  0  0  2  0  0  0  0  0  0
  182.3870  176.4240  138.2910 N   0  0  0  0  0  2  0  0  0  0  0  0
  182.4710  176.6950  139.7170 C   0  0  0  0  0  2  0  0  0  0  0  0
  181.9060  178.0760  140.0350 C   0  0  2  0  0  3  0  0  0  0  0  0
  181.6050  178.7320  138.8530 F   0  0  0  0  0  0  0  0  0  0  0  0
  182.8670  178.9100  140.8920 C   0  0  1  0  0  3  0  0  0  0  0  0
  183.6700  178.3700  143.1900 O   0  0  0  0  0  1  0  0  0  0  0  0
  182.6130  178.6920  142.3520 C   0  0  0  0  0  0  0  0  0  0  0  0
  181.4490  178.7960  142.8250 O   0  0  0  0  0  0  0  0  0  0  0  0
  184.3000  178.5850  140.5910 C   0  0  0  0  0  3  0  0  0  0  0  0
  185.0950  179.4820  140.1370 N   0  0  0  0  0  2  0  0  0  0  0  0
  188.8470  177.6640  142.0920 C   0  0  0  0  0  0  0  0  0  0  0  0
  189.9460  177.7040  140.3090 O   0  0  0  0  0  0  0  0  0  0  0  0
  190.0990  177.6470  141.5950 N   0  0  0  0  0  0  0  0  0  0  0  0
  188.6690  177.7460  140.0140 C   0  0  0  0  0  0  0  0  0  0  0  0
  187.9070  177.7290  141.1250 N   0  0  0  0  0  0  0  0  0  0  0  0
  188.5360  177.6010  143.5290 C   0  0  0  0  0  0  0  0  0  0  0  0
  189.5700  177.5380  144.4750 C   0  0  0  0  0  3  0  0  0  0  0  0
  187.2050  177.6100  143.9670 C   0  0  0  0  0  3  0  0  0  0  0  0
  189.2750  177.4880  145.8410 C   0  0  0  0  0  3  0  0  0  0  0  0
  187.9460  177.4990  146.2690 C   0  0  0  0  0  3  0  0  0  0  0  0
  186.9100  177.5590  145.3330 C   0  0  0  0  0  3  0  0  0  0  0  0
  1  2  1  0  0  0  0
  1  6  1  0  0  0  0
  2  3  2  0  0  0  0
  4  3  1  6  0  0  0
  4  7  1  0  0  0  0
  5  6  2  0  0  0  0
  6  7  1  0  0  0  0
  7 29  1  1  0  0  0
  8 11  1  0  0  0  0
  9 14  1  6  0  0  0
 10 13  1  0  0  0  0
 11 10  1  6  0  0  0
 12  8  1  1  0  0  0
 12  9  1  0  0  0  0
 12  4  1  0  0  0  0
 13  9  1  0  0  0  0
 13 11  1  0  0  0  0
 13 15  1  1  0  0  0
 15 16  1  0  0  0  0
 16 17  1  0  0  0  0
 17 18  1  0  0  0  0
 18 19  1  6  0  0  0
 18 20  1  0  0  0  0
 20 24  1  1  0  0  0
 20 22  1  0  0  0  0
 22 23  2  0  0  0  0
 22 21  1  0  0  0  0
 25 24  2  0  0  0  0
 26 31  1  0  0  0  0
 27 28  1  0  0  0  0
 28 26  2  0  0  0  0
 29 27  1  0  0  0  0
 29 30  2  0  0  0  0
 30 26  1  0  0  0  0
 31 33  2  0  0  0  0
 31 32  1  0  0  0  0
 32 34  2  0  0  0  0
 33 36  1  0  0  0  0
 34 35  1  0  0  0  0
 36 35  2  0  0  0  0
M  END
>  <MODEL>
2

>  <REMARK>
 VINA RESULT:      -7.6      2.598      5.821
  Name = 
  10 active torsions:
  status: ('A' for Active; 'I' for Inactive)
    1  A    between atoms: C_2  and  C_4
    2  A    between atoms: N_6  and  C_7
    3  A    between atoms: N_6  and  C_18
    4  A    between atoms: C_7  and  C_30
    5  A    between atoms: C_13  and  N_27
    6  A    between atoms: C_14  and  C_17
    7  A    between atoms: C_14  and  C_20
    8  A    between atoms: C_14  and  C_29
    9  A    between atoms: C_17  and  C_18
   10  A    between atoms: C_19  and  C_32
                            x       y       z     vdW  Elec       q    Type
                         _______ _______ _______ _____ _____    ______ ____

>  <TORSDO>
F 10

$$$$
=
 OpenBabel10222420013D

 36 40  0  0  1  0  0  0  0  0999 V2000
  181.3220  179.7520  139.9150 N   0  0  0  0  0  2  0  0  0  0  0  0
  182.2470  180.2250  138.9310 C   0  0  0  0  0  3  0  0  0  0  0  0
  183.2140  179.4620  138.5140 N   0  0  0  0  0  0  0  0  0  0  0  0
  183.3630  178.0550  138.9240 C   0  0  1  0  0  3  0  0  0  0  0  0
  180.7860  178.0900  141.4570 O   0  0  0  0  0  0  0  0  0  0  0  0
  181.6080  178.5450  140.6190 C   0  0  0  0  0  0  0  0  0  0  0  0
  182.9200  177.8550  140.3910 C   0  0  2  0  0  3  0  0  0  0  0  0
  182.7060  175.7960  138.5150 C   0  0  0  0  0  2  0  0  0  0  0  0
  183.2470  177.1960  136.7010 C   0  0  1  0  0  3  0  0  0  0  0  0
  182.4600  174.7370  136.2750 C   0  0  0  0  0  2  0  0  0  0  0  0
  183.3700  174.9080  137.4820 C   0  0  1  0  0  3  0  0  0  0  0  0
  182.6090  177.1730  138.0180 N   0  0  2  0  0  0  0  0  0  0  0  0
  183.5600  175.7770  136.2760 C   0  0  2  0  0  0  0  0  0  0  0  0
  182.3300  177.8650  135.6910 C   0  0  0  0  0  1  0  0  0  0  0  0
  184.8490  175.4560  135.5450 C   0  0  0  0  0  2  0  0  0  0  0  0
  185.7980  176.5410  135.7250 N   0  0  0  0  0  2  0  0  0  0  0  0
  186.6310  176.1820  136.8610 C   0  0  0  0  0  2  0  0  0  0  0  0
  186.7830  177.3660  137.8110 C   0  0  2  0  0  3  0  0  0  0  0  0
  186.2650  178.5030  137.2130 F   0  0  0  0  0  0  0  0  0  0  0  0
  188.2430  177.5880  138.2300 C   0  0  1  0  0  3  0  0  0  0  0  0
  189.4350  178.0700  136.0930 O   0  0  0  0  0  0  0  0  0  0  0  0
  188.9300  178.5380  137.2980 C   0  0  0  0  0  0  0  0  0  0  0  0
  189.0550  179.7560  137.5970 O   0  0  0  0  0  1  0  0  0  0  0  0
  188.3410  178.1170  139.6290 C   0  0  0  0  0  3  0  0  0  0  0  0
  189.2870  177.7400  140.4080 N   0  0  0  0  0  2  0  0  0  0  0  0
  185.1690  178.6330  143.0230 C   0  0  0  0  0  0  0  0  0  0  0  0
  184.8280  179.3100  141.0700 O   0  0  0  0  0  0  0  0  0  0  0  0
  185.5930  179.5140  142.0960 N   0  0  0  0  0  0  0  0  0  0  0  0
  183.9760  178.3490  141.3350 C   0  0  0  0  0  0  0  0  0  0  0  0
  184.1420  177.8750  142.5850 N   0  0  0  0  0  0  0  0  0  0  0  0
  185.7690  178.5000  144.3600 C   0  0  0  0  0  0  0  0  0  0  0  0
  185.0990  178.9960  145.4890 C   0  0  0  0  0  3  0  0  0  0  0  0
  187.0130  177.8740  144.5190 C   0  0  0  0  0  3  0  0  0  0  0  0
  185.6660  178.8610  146.7610 C   0  0  0  0  0  3  0  0  0  0  0  0
  186.9040  178.2340  146.9120 C   0  0  0  0  0  3  0  0  0  0  0  0
  187.5790  177.7410  145.7910 C   0  0  0  0  0  3  0  0  0  0  0  0
  1  6  1  0  0  0  0
  2  1  1  0  0  0  0
  3  2  2  0  0  0  0
  4  3  1  6  0  0  0
  4  7  1  0  0  0  0
  6  5  2  0  0  0  0
  7  6  1  0  0  0  0
  7 29  1  1  0  0  0
  9 14  1  6  0  0  0
  9 12  1  0  0  0  0
 10 13  1  0  0  0  0
 11 10  1  6  0  0  0
 11  8  1  0  0  0  0
 12  8  1  1  0  0  0
 12  4  1  0  0  0  0
 13 15  1  6  0  0  0
 13  9  1  0  0  0  0
 13 11  1  0  0  0  0
 15 16  1  0  0  0  0
 16 17  1  0  0  0  0
 17 18  1  0  0  0  0
 18 19  1  6  0  0  0
 18 20  1  0  0  0  0
 20 24  1  1  0  0  0
 21 22  2  0  0  0  0
 22 23  1  0  0  0  0
 22 20  1  0  0  0  0
 24 25  2  0  0  0  0
 26 31  1  0  0  0  0
 27 29  1  0  0  0  0
 27 28  1  0  0  0  0
 28 26  2  0  0  0  0
 29 30  2  0  0  0  0
 30 26  1  0  0  0  0
 31 33  2  0  0  0  0
 31 32  1  0  0  0  0
 32 34  2  0  0  0  0
 33 36  1  0  0  0  0
 34 35  1  0  0  0  0
 36 35  2  0  0  0  0
M  END
>  <MODEL>
3

>  <REMARK>
 VINA RESULT:      -7.6      2.498      3.250
  Name = 
  10 active torsions:
  status: ('A' for Active; 'I' for Inactive)
    1  A    between atoms: C_2  and  C_4
    2  A    between atoms: N_6  and  C_7
    3  A    between atoms: N_6  and  C_18
    4  A    between atoms: C_7  and  C_30
    5  A    between atoms: C_13  and  N_27
    6  A    between atoms: C_14  and  C_17
    7  A    between atoms: C_14  and  C_20
    8  A    between atoms: C_14  and  C_29
    9  A    between atoms: C_17  and  C_18
   10  A    between atoms: C_19  and  C_32
                            x       y       z     vdW  Elec       q    Type
                         _______ _______ _______ _____ _____    ______ ____

>  <TORSDO>
F 10

$$$$
=
 OpenBabel10222420013D

 36 40  0  0  1  0  0  0  0  0999 V2000
  190.1610  177.7440  136.9730 N   0  0  0  0  0  2  0  0  0  0  0  0
  190.1910  176.3170  137.0820 C   0  0  0  0  0  3  0  0  0  0  0  0
  189.1790  175.6720  137.5830 N   0  0  0  0  0  0  0  0  0  0  0  0
  187.9160  176.3260  137.9640 C   0  0  1  0  0  3  0  0  0  0  0  0
  189.0650  179.7240  137.5250 O   0  0  0  0  0  0  0  0  0  0  0  0
  189.1340  178.4730  137.6440 C   0  0  0  0  0  0  0  0  0  0  0  0
  188.1730  177.7400  138.5320 C   0  0  2  0  0  3  0  0  0  0  0  0
  186.2260  177.6240  136.8850 C   0  0  0  0  0  2  0  0  0  0  0  0
  186.0370  175.2770  136.9340 C   0  0  1  0  0  3  0  0  0  0  0  0
  184.2340  176.7170  135.6990 C   0  0  0  0  0  2  0  0  0  0  0  0
  184.7450  177.3230  136.9970 C   0  0  1  0  0  3  0  0  0  0  0  0
  186.9960  176.3770  136.8160 N   0  0  2  0  0  0  0  0  0  0  0  0
  184.6310  175.8350  136.8640 C   0  0  2  0  0  0  0  0  0  0  0  0
  186.2650  174.2670  135.8210 C   0  0  0  0  0  1  0  0  0  0  0  0
  183.5330  175.2710  137.7430 C   0  0  0  0  0  2  0  0  0  0  0  0
  183.1790  176.2370  138.7680 N   0  0  0  0  0  2  0  0  0  0  0  0
  181.7530  176.4880  138.6300 C   0  0  0  0  0  2  0  0  0  0  0  0
  181.4750  177.9870  138.5720 C   0  0  2  0  0  3  0  0  0  0  0  0
  181.7750  178.4610  137.3050 F   0  0  0  0  0  0  0  0  0  0  0  0
  182.2550  178.7620  139.6420 C   0  0  1  0  0  3  0  0  0  0  0  0
  184.2120  180.1650  138.9940 O   0  0  0  0  0  1  0  0  0  0  0  0
  182.8350  180.0220  139.0770 C   0  0  0  0  0  0  0  0  0  0  0  0
  182.0840  180.9530  138.6780 O   0  0  0  0  0  0  0  0  0  0  0  0
  181.3890  179.1040  140.8170 C   0  0  0  0  0  3  0  0  0  0  0  0
  181.7780  178.8570  142.0130 N   0  0  0  0  0  2  0  0  0  0  0  0
  188.7770  177.6210  142.0270 C   0  0  0  0  0  0  0  0  0  0  0  0
  189.9400  177.5810  140.2850 O   0  0  0  0  0  0  0  0  0  0  0  0
  190.0440  177.5490  141.5770 N   0  0  0  0  0  0  0  0  0  0  0  0
  188.6760  177.6600  139.9430 C   0  0  0  0  0  0  0  0  0  0  0  0
  187.8750  177.6960  141.0260 N   0  0  0  0  0  0  0  0  0  0  0  0
  188.4130  177.6030  143.4540 C   0  0  0  0  0  0  0  0  0  0  0  0
  189.4070  177.7060  144.4380 C   0  0  0  0  0  3  0  0  0  0  0  0
  187.0710  177.4890  143.8400 C   0  0  0  0  0  3  0  0  0  0  0  0
  189.0600  177.6990  145.7930 C   0  0  0  0  0  3  0  0  0  0  0  0
  187.7210  177.5860  146.1710 C   0  0  0  0  0  3  0  0  0  0  0  0
  186.7250  177.4800  145.1950 C   0  0  0  0  0  3  0  0  0  0  0  0
  1  2  1  0  0  0  0
  1  6  1  0  0  0  0
  2  3  2  0  0  0  0
  4  3  1  6  0  0  0
  4  7  1  0  0  0  0
  5  6  2  0  0  0  0
  6  7  1  0  0  0  0
  7 29  1  1  0  0  0
  8 11  1  0  0  0  0
  9 14  1  6  0  0  0
 10 13  1  0  0  0  0
 11 10  1  6  0  0  0
 12  8  1  1  0  0  0
 12  9  1  0  0  0  0
 12  4  1  0  0  0  0
 13  9  1  0  0  0  0
 13 11  1  0  0  0  0
 13 15  1  1  0  0  0
 15 16  1  0  0  0  0
 17 16  1  0  0  0  0
 18 19  1  6  0  0  0
 18 17  1  0  0  0  0
 18 20  1  0  0  0  0
 20 24  1  1  0  0  0
 21 22  1  0  0  0  0
 22 20  1  0  0  0  0
 23 22  2  0  0  0  0
 24 25  2  0  0  0  0
 26 31  1  0  0  0  0
 27 28  1  0  0  0  0
 28 26  2  0  0  0  0
 29 27  1  0  0  0  0
 29 30  2  0  0  0  0
 30 26  1  0  0  0  0
 31 33  2  0  0  0  0
 31 32  1  0  0  0  0
 32 34  2  0  0  0  0
 33 36  1  0  0  0  0
 34 35  1  0  0  0  0
 36 35  2  0  0  0  0
M  END
>  <MODEL>
4

>  <REMARK>
 VINA RESULT:      -7.4      2.746      6.154
  Name = 
  10 active torsions:
  status: ('A' for Active; 'I' for Inactive)
    1  A    between atoms: C_2  and  C_4
    2  A    between atoms: N_6  and  C_7
    3  A    between atoms: N_6  and  C_18
    4  A    between atoms: C_7  and  C_30
    5  A    between atoms: C_13  and  N_27
    6  A    between atoms: C_14  and  C_17
    7  A    between atoms: C_14  and  C_20
    8  A    between atoms: C_14  and  C_29
    9  A    between atoms: C_17  and  C_18
   10  A    between atoms: C_19  and  C_32
                            x       y       z     vdW  Elec       q    Type
                         _______ _______ _______ _____ _____    ______ ____

>  <TORSDO>
F 10

$$$$
=
 OpenBabel10222420013D

 36 40  0  0  1  0  0  0  0  0999 V2000
  189.8080  177.7990  136.8620 N   0  0  0  0  0  2  0  0  0  0  0  0
  189.6720  176.3770  136.9360 C   0  0  0  0  0  3  0  0  0  0  0  0
  188.6620  175.8420  137.5560 N   0  0  0  0  0  0  0  0  0  0  0  0
  187.5510  176.6310  138.1160 C   0  0  1  0  0  3  0  0  0  0  0  0
  189.0520  179.8770  137.5960 O   0  0  0  0  0  0  0  0  0  0  0  0
  188.9780  178.6240  137.6790 C   0  0  0  0  0  0  0  0  0  0  0  0
  188.0570  177.9810  138.6730 C   0  0  2  0  0  3  0  0  0  0  0  0
  185.5950  177.8870  137.5740 C   0  0  0  0  0  2  0  0  0  0  0  0
  185.7130  175.6090  136.9920 C   0  0  1  0  0  3  0  0  0  0  0  0
  183.6070  177.0240  136.3480 C   0  0  0  0  0  2  0  0  0  0  0  0
  184.1880  177.3420  137.7170 C   0  0  1  0  0  3  0  0  0  0  0  0
  186.5030  176.8360  137.1040 N   0  0  2  0  0  0  0  0  0  0  0  0
  184.2490  175.9410  137.1900 C   0  0  2  0  0  0  0  0  0  0  0  0
  185.9340  174.9710  135.6300 C   0  0  0  0  0  1  0  0  0  0  0  0
  183.3430  175.0050  137.9650 C   0  0  0  0  0  2  0  0  0  0  0  0
  181.9560  175.3840  137.7610 N   0  0  0  0  0  2  0  0  0  0  0  0
  181.4090  175.6850  139.0740 C   0  0  0  0  0  2  0  0  0  0  0  0
  180.3220  176.7510  138.9710 C   0  0  2  0  0  3  0  0  0  0  0  0
  180.4740  177.4480  137.7830 F   0  0  0  0  0  0  0  0  0  0  0  0
  180.3350  177.7080  140.1700 C   0  0  1  0  0  3  0  0  0  0  0  0
  178.9320  175.9130  141.1820 O   0  0  0  0  0  0  0  0  0  0  0  0
  179.5050  177.1710  141.2950 C   0  0  0  0  0  0  0  0  0  0  0  0
  179.3210  177.8510  142.3410 O   0  0  0  0  0  1  0  0  0  0  0  0
  181.7300  177.9540  140.6650 C   0  0  0  0  0  3  0  0  0  0  0  0
  182.3800  178.9960  140.3020 N   0  0  0  0  0  2  0  0  0  0  0  0
  189.0840  177.6200  142.0510 C   0  0  0  0  0  0  0  0  0  0  0  0
  190.0150  177.6150  140.1740 O   0  0  0  0  0  0  0  0  0  0  0  0
  190.2780  177.5010  141.4380 N   0  0  0  0  0  0  0  0  0  0  0  0
  188.7270  177.7880  140.0020 C   0  0  0  0  0  0  0  0  0  0  0  0
  188.0710  177.8070  141.1790 N   0  0  0  0  0  0  0  0  0  0  0  0
  188.9020  177.5390  143.5090 C   0  0  0  0  0  0  0  0  0  0  0  0
  190.0140  177.4310  144.3570 C   0  0  0  0  0  3  0  0  0  0  0  0
  187.6160  177.5750  144.0650 C   0  0  0  0  0  3  0  0  0  0  0  0
  189.8410  177.3640  145.7430 C   0  0  0  0  0  3  0  0  0  0  0  0
  188.5570  177.4030  146.2890 C   0  0  0  0  0  3  0  0  0  0  0  0
  187.4430  177.5070  145.4500 C   0  0  0  0  0  3  0  0  0  0  0  0
  1  2  1  0  0  0  0
  1  6  1  0  0  0  0
  2  3  2  0  0  0  0
  4  3  1  6  0  0  0
  4  7  1  0  0  0  0
  5  6  2  0  0  0  0
  6  7  1  0  0  0  0
  7 29  1  1  0  0  0
  8 11  1  0  0  0  0
  9 14  1  6  0  0  0
  9 12  1  0  0  0  0
  9 13  1  0  0  0  0
 10 13  1  0  0  0  0
 11 10  1  6  0  0  0
 12  8  1  1  0  0  0
 12  4  1  0  0  0  0
 13 11  1  0  0  0  0
 13 15  1  1  0  0  0
 16 15  1  0  0  0  0
 16 17  1  0  0  0  0
 18 19  1  6  0  0  0
 18 17  1  0  0  0  0
 18 20  1  0  0  0  0
 20 24  1  1  0  0  0
 20 22  1  0  0  0  0
 21 22  2  0  0  0  0
 22 23  1  0  0  0  0
 25 24  2  0  0  0  0
 26 31  1  0  0  0  0
 27 28  1  0  0  0  0
 28 26  2  0  0  0  0
 29 27  1  0  0  0  0
 29 30  2  0  0  0  0
 30 26  1  0  0  0  0
 31 33  2  0  0  0  0
 31 32  1  0  0  0  0
 32 34  2  0  0  0  0
 33 36  1  0  0  0  0
 34 35  1  0  0  0  0
 36 35  2  0  0  0  0
M  END
>  <MODEL>
5

>  <REMARK>
 VINA RESULT:      -7.1      3.003      6.686
  Name = 
  10 active torsions:
  status: ('A' for Active; 'I' for Inactive)
    1  A    between atoms: C_2  and  C_4
    2  A    between atoms: N_6  and  C_7
    3  A    between atoms: N_6  and  C_18
    4  A    between atoms: C_7  and  C_30
    5  A    between atoms: C_13  and  N_27
    6  A    between atoms: C_14  and  C_17
    7  A    between atoms: C_14  and  C_20
    8  A    between atoms: C_14  and  C_29
    9  A    between atoms: C_17  and  C_18
   10  A    between atoms: C_19  and  C_32
                            x       y       z     vdW  Elec       q    Type
                         _______ _______ _______ _____ _____    ______ ____

>  <TORSDO>
F 10

$$$$
=
 OpenBabel10222420013D

 36 40  0  0  1  0  0  0  0  0999 V2000
  179.1500  179.6590  141.7960 N   0  0  0  0  0  2  0  0  0  0  0  0
  179.7520  180.7620  141.1120 C   0  0  0  0  0  3  0  0  0  0  0  0
  180.7930  180.5790  140.3540 N   0  0  0  0  0  0  0  0  0  0  0  0
  181.3490  179.2480  140.0570 C   0  0  1  0  0  3  0  0  0  0  0  0
  179.3060  177.4170  142.4080 O   0  0  0  0  0  0  0  0  0  0  0  0
  179.8380  178.4100  141.8490 C   0  0  0  0  0  0  0  0  0  0  0  0
  181.2210  178.3100  141.2780 C   0  0  2  0  0  3  0  0  0  0  0  0
  180.7260  177.2060  138.9880 C   0  0  0  0  0  2  0  0  0  0  0  0
  181.4740  179.0200  137.6860 C   0  0  1  0  0  3  0  0  0  0  0  0
  180.7220  176.7940  136.5320 C   0  0  0  0  0  2  0  0  0  0  0  0
  181.4940  176.6040  137.8290 C   0  0  1  0  0  3  0  0  0  0  0  0
  180.6940  178.6680  138.8740 N   0  0  2  0  0  0  0  0  0  0  0  0
  181.8220  177.7550  136.9290 C   0  0  2  0  0  0  0  0  0  0  0  0
  180.6790  179.9670  136.8030 C   0  0  0  0  0  1  0  0  0  0  0  0
  183.1820  177.5950  136.2780 C   0  0  0  0  0  2  0  0  0  0  0  0
  183.8130  176.3760  136.7530 N   0  0  0  0  0  2  0  0  0  0  0  0
  185.2460  176.5570  136.5850 C   0  0  0  0  0  2  0  0  0  0  0  0
  185.6970  177.8760  137.2050 C   0  0  2  0  0  3  0  0  0  0  0  0
  186.7100  178.4230  136.4330 F   0  0  0  0  0  0  0  0  0  0  0  0
  186.1540  177.7050  138.6610 C   0  0  1  0  0  3  0  0  0  0  0  0
  188.1680  178.9990  139.3570 O   0  0  0  0  0  1  0  0  0  0  0  0
  187.6390  177.8540  138.7780 C   0  0  0  0  0  0  0  0  0  0  0  0
  188.4120  176.9520  138.3570 O   0  0  0  0  0  0  0  0  0  0  0  0
  185.4880  178.6950  139.5680 C   0  0  0  0  0  3  0  0  0  0  0  0
  184.8480  179.6970  139.0900 N   0  0  0  0  0  2  0  0  0  0  0  0
  184.0020  178.6020  143.4640 C   0  0  0  0  0  0  0  0  0  0  0  0
  182.1470  179.5490  143.2340 O   0  0  0  0  0  0  0  0  0  0  0  0
  183.2110  179.5660  143.9750 N   0  0  0  0  0  0  0  0  0  0  0  0
  182.2670  178.6310  142.3050 C   0  0  0  0  0  0  0  0  0  0  0  0
  183.4420  177.9800  142.4050 N   0  0  0  0  0  0  0  0  0  0  0  0
  185.3360  178.2730  143.9920 C   0  0  0  0  0  0  0  0  0  0  0  0
  185.5910  178.3530  145.3690 C   0  0  0  0  0  3  0  0  0  0  0  0
  186.3620  177.8730  143.1250 C   0  0  0  0  0  3  0  0  0  0  0  0
  186.8570  178.0320  145.8710 C   0  0  0  0  0  3  0  0  0  0  0  0
  187.8730  177.6320  145.0020 C   0  0  0  0  0  3  0  0  0  0  0  0
  187.6260  177.5530  143.6270 C   0  0  0  0  0  3  0  0  0  0  0  0
  1  6  1  0  0  0  0
  2  1  1  0  0  0  0
  3  2  2  0  0  0  0
  4  3  1  1  0  0  0
  4  7  1  0  0  0  0
  6  5  2  0  0  0  0
  7  6  1  0  0  0  0
  7 29  1  1  0  0  0
  9 14  1  6  0  0  0
  9 12  1  0  0  0  0
 10 13  1  0  0  0  0
 11 10  1  6  0  0  0
 11  8  1  0  0  0  0
 12  8  1  1  0  0  0
 12  4  1  0  0  0  0
 13 15  1  6  0  0  0
 13  9  1  0  0  0  0
 13 11  1  0  0  0  0
 15 16  1  0  0  0  0
 17 16  1  0  0  0  0
 17 18  1  0  0  0  0
 18 19  1  6  0  0  0
 18 20  1  0  0  0  0
 20 22  1  0  0  0  0
 20 24  1  1  0  0  0
 22 21  1  0  0  0  0
 23 22  2  0  0  0  0
 25 24  2  0  0  0  0
 26 28  2  0  0  0  0
 26 31  1  0  0  0  0
 27 28  1  0  0  0  0
 29 30  2  0  0  0  0
 29 27  1  0  0  0  0
 30 26  1  0  0  0  0
 31 32  1  0  0  0  0
 32 34  2  0  0  0  0
 33 36  1  0  0  0  0
 33 31  2  0  0  0  0
 35 34  1  0  0  0  0
 36 35  2  0  0  0  0
M  END
>  <MODEL>
6

>  <REMARK>
 VINA RESULT:      -6.7      2.652      4.115
  Name = 
  10 active torsions:
  status: ('A' for Active; 'I' for Inactive)
    1  A    between atoms: C_2  and  C_4
    2  A    between atoms: N_6  and  C_7
    3  A    between atoms: N_6  and  C_18
    4  A    between atoms: C_7  and  C_30
    5  A    between atoms: C_13  and  N_27
    6  A    between atoms: C_14  and  C_17
    7  A    between atoms: C_14  and  C_20
    8  A    between atoms: C_14  and  C_29
    9  A    between atoms: C_17  and  C_18
   10  A    between atoms: C_19  and  C_32
                            x       y       z     vdW  Elec       q    Type
                         _______ _______ _______ _____ _____    ______ ____

>  <TORSDO>
F 10

$$$$
=
 OpenBabel10222420013D

 36 40  0  0  1  0  0  0  0  0999 V2000
  190.1970  177.7200  137.2450 N   0  0  0  0  0  2  0  0  0  0  0  0
  190.2010  176.3260  137.5650 C   0  0  0  0  0  3  0  0  0  0  0  0
  189.1060  175.7320  137.9420 N   0  0  0  0  0  0  0  0  0  0  0  0
  187.7940  176.4000  137.9610 C   0  0  1  0  0  3  0  0  0  0  0  0
  189.0170  179.7290  137.2700 O   0  0  0  0  0  0  0  0  0  0  0  0
  189.0580  178.5110  137.5820 C   0  0  0  0  0  0  0  0  0  0  0  0
  187.9350  177.8870  138.3560 C   0  0  2  0  0  3  0  0  0  0  0  0
  186.3310  177.4660  136.4040 C   0  0  0  0  0  2  0  0  0  0  0  0
  186.1880  175.1380  136.7280 C   0  0  1  0  0  3  0  0  0  0  0  0
  184.6420  176.3210  134.9780 C   0  0  0  0  0  2  0  0  0  0  0  0
  184.8650  177.1100  136.2580 C   0  0  1  0  0  3  0  0  0  0  0  0
  187.1260  176.2600  136.6570 N   0  0  2  0  0  0  0  0  0  0  0  0
  184.8140  175.6140  136.3060 C   0  0  2  0  0  0  0  0  0  0  0  0
  186.6600  174.0080  135.8280 C   0  0  0  0  0  1  0  0  0  0  0  0
  183.5720  175.1130  137.0160 C   0  0  0  0  0  2  0  0  0  0  0  0
  182.8690  176.2290  137.6230 N   0  0  0  0  0  2  0  0  0  0  0  0
  182.8960  176.0060  139.0600 C   0  0  0  0  0  2  0  0  0  0  0  0
  182.4020  177.2430  139.8040 C   0  0  2  0  0  3  0  0  0  0  0  0
  181.5440  177.9590  138.9850 F   0  0  0  0  0  0  0  0  0  0  0  0
  183.5590  178.1280  140.2870 C   0  0  1  0  0  3  0  0  0  0  0  0
  182.6760  180.1950  139.2090 O   0  0  0  0  0  1  0  0  0  0  0  0
  183.7340  179.3170  139.3940 C   0  0  0  0  0  0  0  0  0  0  0  0
  184.8310  179.5280  138.8100 O   0  0  0  0  0  0  0  0  0  0  0  0
  183.3440  178.5990  141.6950 C   0  0  0  0  0  3  0  0  0  0  0  0
  184.2940  178.5530  142.5540 N   0  0  0  0  0  2  0  0  0  0  0  0
  188.8900  177.8290  141.7740 C   0  0  0  0  0  0  0  0  0  0  0  0
  187.3570  178.7010  140.6420 O   0  0  0  0  0  0  0  0  0  0  0  0
  187.7940  178.6080  141.8590 N   0  0  0  0  0  0  0  0  0  0  0  0
  188.1410  178.0250  139.8360 C   0  0  0  0  0  0  0  0  0  0  0  0
  189.1470  177.4340  140.5090 N   0  0  0  0  0  0  0  0  0  0  0  0
  189.7250  177.4640  142.9290 C   0  0  0  0  0  0  0  0  0  0  0  0
  189.3580  177.8640  144.2220 C   0  0  0  0  0  3  0  0  0  0  0  0
  190.8910  176.7080  142.7480 C   0  0  0  0  0  3  0  0  0  0  0  0
  190.1480  177.5080  145.3210 C   0  0  0  0  0  3  0  0  0  0  0  0
  191.3070  176.7530  145.1340 C   0  0  0  0  0  3  0  0  0  0  0  0
  191.6800  176.3530  143.8470 C   0  0  0  0  0  3  0  0  0  0  0  0
  1  2  1  0  0  0  0
  1  6  1  0  0  0  0
  2  3  2  0  0  0  0
  4  3  1  6  0  0  0
  4  7  1  0  0  0  0
  5  6  2  0  0  0  0
  6  7  1  0  0  0  0
  7 29  1  1  0  0  0
  9 14  1  6  0  0  0
 10 13  1  0  0  0  0
 11 10  1  6  0  0  0
 11 13  1  0  0  0  0
 11  8  1  0  0  0  0
 12  8  1  1  0  0  0
 12  9  1  0  0  0  0
 12  4  1  0  0  0  0
 13  9  1  0  0  0  0
 13 15  1  1  0  0  0
 15 16  1  0  0  0  0
 16 17  1  0  0  0  0
 17 18  1  0  0  0  0
 18 19  1  6  0  0  0
 18 20  1  0  0  0  0
 20 24  1  1  0  0  0
 21 22  1  0  0  0  0
 22 20  1  0  0  0  0
 23 22  2  0  0  0  0
 24 25  2  0  0  0  0
 26 28  2  0  0  0  0
 26 31  1  0  0  0  0
 27 28  1  0  0  0  0
 29 30  2  0  0  0  0
 29 27  1  0  0  0  0
 30 26  1  0  0  0  0
 31 32  1  0  0  0  0
 32 34  2  0  0  0  0
 33 31  2  0  0  0  0
 33 36  1  0  0  0  0
 35 34  1  0  0  0  0
 36 35  2  0  0  0  0
M  END
>  <MODEL>
7

>  <REMARK>
 VINA RESULT:      -6.6      3.013      5.859
  Name = 
  10 active torsions:
  status: ('A' for Active; 'I' for Inactive)
    1  A    between atoms: C_2  and  C_4
    2  A    between atoms: N_6  and  C_7
    3  A    between atoms: N_6  and  C_18
    4  A    between atoms: C_7  and  C_30
    5  A    between atoms: C_13  and  N_27
    6  A    between atoms: C_14  and  C_17
    7  A    between atoms: C_14  and  C_20
    8  A    between atoms: C_14  and  C_29
    9  A    between atoms: C_17  and  C_18
   10  A    between atoms: C_19  and  C_32
                            x       y       z     vdW  Elec       q    Type
                         _______ _______ _______ _____ _____    ______ ____

>  <TORSDO>
F 10

$$$$
=
 OpenBabel10222420013D

 36 40  0  0  1  0  0  0  0  0999 V2000
  191.8590  175.3660  137.9730 N   0  0  0  0  0  2  0  0  0  0  0  0
  190.7480  174.4710  137.8560 C   0  0  0  0  0  3  0  0  0  0  0  0
  189.5300  174.9160  137.9530 N   0  0  0  0  0  0  0  0  0  0  0  0
  189.2020  176.3460  138.0730 C   0  0  1  0  0  3  0  0  0  0  0  0
  192.5940  177.5090  138.5130 O   0  0  0  0  0  0  0  0  0  0  0  0
  191.6380  176.6950  138.4450 C   0  0  0  0  0  0  0  0  0  0  0  0
  190.2680  177.0910  138.9080 C   0  0  2  0  0  3  0  0  0  0  0  0
  188.6950  178.3670  136.9060 C   0  0  0  0  0  2  0  0  0  0  0  0
  187.9340  176.3080  136.0530 C   0  0  1  0  0  3  0  0  0  0  0  0
  187.4500  178.5300  134.7560 C   0  0  0  0  0  2  0  0  0  0  0  0
  187.3490  178.6470  136.2700 C   0  0  1  0  0  3  0  0  0  0  0  0
  189.0540  176.9540  136.7410 N   0  0  2  0  0  0  0  0  0  0  0  0
  186.9560  177.3690  135.5930 C   0  0  2  0  0  0  0  0  0  0  0  0
  188.4460  175.5070  134.8670 C   0  0  0  0  0  1  0  0  0  0  0  0
  185.4620  177.1260  135.6690 C   0  0  0  0  0  2  0  0  0  0  0  0
  185.1400  176.4260  136.9000 N   0  0  0  0  0  2  0  0  0  0  0  0
  184.7830  177.4430  137.8760 C   0  0  0  0  0  2  0  0  0  0  0  0
  183.3860  177.1850  138.4350 C   0  0  2  0  0  3  0  0  0  0  0  0
  182.5530  176.7640  137.4110 F   0  0  0  0  0  0  0  0  0  0  0  0
  182.8060  178.4200  139.1360 C   0  0  1  0  0  3  0  0  0  0  0  0
  184.1770  180.5030  139.0920 O   0  0  0  0  0  0  0  0  0  0  0  0
  183.8970  179.2830  139.6920 C   0  0  0  0  0  0  0  0  0  0  0  0
  184.5620  178.9130  140.6960 O   0  0  0  0  0  1  0  0  0  0  0  0
  181.9610  179.2370  138.2060 C   0  0  0  0  0  3  0  0  0  0  0  0
  180.6960  179.3370  138.3860 N   0  0  0  0  0  2  0  0  0  0  0  0
  189.3850  176.8750  142.3390 C   0  0  0  0  0  0  0  0  0  0  0  0
  190.8200  176.0050  141.0840 O   0  0  0  0  0  0  0  0  0  0  0  0
  190.4160  176.0080  142.3160 N   0  0  0  0  0  0  0  0  0  0  0  0
  190.0800  176.8190  140.3710 C   0  0  0  0  0  0  0  0  0  0  0  0
  189.1380  177.4170  141.1270 N   0  0  0  0  0  0  0  0  0  0  0  0
  188.6050  177.1860  143.5470 C   0  0  0  0  0  0  0  0  0  0  0  0
  189.2520  177.3930  144.7740 C   0  0  0  0  0  3  0  0  0  0  0  0
  187.2080  177.2820  143.4820 C   0  0  0  0  0  3  0  0  0  0  0  0
  188.5100  177.6980  145.9200 C   0  0  0  0  0  3  0  0  0  0  0  0
  187.1190  177.7940  145.8470 C   0  0  0  0  0  3  0  0  0  0  0  0
  186.4670  177.5850  144.6280 C   0  0  0  0  0  3  0  0  0  0  0  0
  1  6  1  0  0  0  0
  2  3  2  0  0  0  0
  2  1  1  0  0  0  0
  4  3  1  6  0  0  0
  4  7  1  0  0  0  0
  6  5  2  0  0  0  0
  6  7  1  0  0  0  0
  7 29  1  1  0  0  0
  9 14  1  6  0  0  0
  9 12  1  0  0  0  0
 10 13  1  0  0  0  0
 11 10  1  6  0  0  0
 11  8  1  0  0  0  0
 12  8  1  1  0  0  0
 12  4  1  0  0  0  0
 13 15  1  6  0  0  0
 13  9  1  0  0  0  0
 13 11  1  0  0  0  0
 15 16  1  0  0  0  0
 16 17  1  0  0  0  0
 17 18  1  0  0  0  0
 18 19  1  6  0  0  0
 18 20  1  0  0  0  0
 20 24  1  6  0  0  0
 20 22  1  0  0  0  0
 21 22  2  0  0  0  0
 22 23  1  0  0  0  0
 24 25  2  0  0  0  0
 26 31  1  0  0  0  0
 27 28  1  0  0  0  0
 28 26  2  0  0  0  0
 29 27  1  0  0  0  0
 29 30  2  0  0  0  0
 30 26  1  0  0  0  0
 31 32  1  0  0  0  0
 32 34  2  0  0  0  0
 33 31  2  0  0  0  0
 33 36  1  0  0  0  0
 35 34  1  0  0  0  0
 36 35  2  0  0  0  0
M  END
>  <MODEL>
8

>  <REMARK>
 VINA RESULT:      -6.3      2.652      6.387
  Name = 
  10 active torsions:
  status: ('A' for Active; 'I' for Inactive)
    1  A    between atoms: C_2  and  C_4
    2  A    between atoms: N_6  and  C_7
    3  A    between atoms: N_6  and  C_18
    4  A    between atoms: C_7  and  C_30
    5  A    between atoms: C_13  and  N_27
    6  A    between atoms: C_14  and  C_17
    7  A    between atoms: C_14  and  C_20
    8  A    between atoms: C_14  and  C_29
    9  A    between atoms: C_17  and  C_18
   10  A    between atoms: C_19  and  C_32
                            x       y       z     vdW  Elec       q    Type
                         _______ _______ _______ _____ _____    ______ ____

>  <TORSDO>
F 10

$$$$
=
 OpenBabel10222420013D

 36 40  0  0  1  0  0  0  0  0999 V2000
  182.8750  175.6720  136.4020 N   0  0  0  0  0  2  0  0  0  0  0  0
  182.9310  174.9930  137.6600 C   0  0  0  0  0  3  0  0  0  0  0  0
  182.9570  175.6660  138.7730 N   0  0  0  0  0  0  0  0  0  0  0  0
  182.8210  177.1310  138.8300 C   0  0  1  0  0  3  0  0  0  0  0  0
  183.0140  177.7010  135.2670 O   0  0  0  0  0  0  0  0  0  0  0  0
  183.1020  177.0800  136.3580 C   0  0  0  0  0  0  0  0  0  0  0  0
  183.4990  177.7990  137.6120 C   0  0  2  0  0  3  0  0  0  0  0  0
  181.3020  178.9740  138.8240 C   0  0  0  0  0  2  0  0  0  0  0  0
  180.9010  177.1400  140.2450 C   0  0  1  0  0  3  0  0  0  0  0  0
  179.2140  179.1400  140.1700 C   0  0  0  0  0  2  0  0  0  0  0  0
  180.6780  179.5440  140.0810 C   0  0  1  0  0  3  0  0  0  0  0  0
  181.4030  177.5130  138.9220 N   0  0  2  0  0  0  0  0  0  0  0  0
  180.2820  178.3560  140.9020 C   0  0  2  0  0  0  0  0  0  0  0  0
  179.8750  176.0250  140.1160 C   0  0  0  0  0  1  0  0  0  0  0  0
  180.4650  178.6070  142.3860 C   0  0  0  0  0  2  0  0  0  0  0  0
  181.6330  179.4430  142.6030 N   0  0  0  0  0  2  0  0  0  0  0  0
  182.5240  178.6950  143.4740 C   0  0  0  0  0  2  0  0  0  0  0  0
  183.9430  178.6880  142.9120 C   0  0  2  0  0  3  0  0  0  0  0  0
  183.9920  177.8620  141.8010 F   0  0  0  0  0  0  0  0  0  0  0  0
  184.9780  178.2550  143.9590 C   0  0  1  0  0  3  0  0  0  0  0  0
  187.2480  177.2240  143.9710 O   0  0  0  0  0  1  0  0  0  0  0  0
  186.3170  178.0270  143.3290 C   0  0  0  0  0  0  0  0  0  0  0  0
  186.6070  178.5580  142.2230 O   0  0  0  0  0  0  0  0  0  0  0  0
  185.1170  179.2730  145.0510 C   0  0  0  0  0  3  0  0  0  0  0  0
  184.9010  178.9580  146.2740 N   0  0  0  0  0  2  0  0  0  0  0  0
  187.0250  177.3930  137.6350 C   0  0  0  0  0  0  0  0  0  0  0  0
  185.6330  178.6250  138.6030 O   0  0  0  0  0  0  0  0  0  0  0  0
  186.9060  178.3890  138.5350 N   0  0  0  0  0  0  0  0  0  0  0  0
  184.9890  177.8270  137.7850 C   0  0  0  0  0  0  0  0  0  0  0  0
  185.8330  177.0030  137.1350 N   0  0  0  0  0  0  0  0  0  0  0  0
  188.3120  176.8070  137.2300 C   0  0  0  0  0  0  0  0  0  0  0  0
  188.6410  175.4950  137.6030 C   0  0  0  0  0  3  0  0  0  0  0  0
  189.2190  177.5510  136.4630 C   0  0  0  0  0  3  0  0  0  0  0  0
  189.8600  174.9350  137.2090 C   0  0  0  0  0  3  0  0  0  0  0  0
  190.7580  175.6810  136.4440 C   0  0  0  0  0  3  0  0  0  0  0  0
  190.4380  176.9900  136.0710 C   0  0  0  0  0  3  0  0  0  0  0  0
  1  2  1  0  0  0  0
  2  3  2  0  0  0  0
  4  3  1  6  0  0  0
  4 12  1  0  0  0  0
  5  6  2  0  0  0  0
  6  1  1  0  0  0  0
  6  7  1  0  0  0  0
  7 29  1  1  0  0  0
  7  4  1  0  0  0  0
  9 14  1  6  0  0  0
  9 13  1  0  0  0  0
 10 13  1  0  0  0  0
 11  8  1  6  0  0  0
 11 10  1  0  0  0  0
 11 13  1  0  0  0  0
 12  8  1  1  0  0  0
 12  9  1  0  0  0  0
 13 15  1  1  0  0  0
 15 16  1  0  0  0  0
 16 17  1  0  0  0  0
 18 19  1  6  0  0  0
 18 17  1  0  0  0  0
 18 20  1  0  0  0  0
 20 24  1  1  0  0  0
 22 20  1  0  0  0  0
 22 21  1  0  0  0  0
 23 22  2  0  0  0  0
 24 25  2  0  0  0  0
 26 28  2  0  0  0  0
 28 27  1  0  0  0  0
 29 27  1  0  0  0  0
 30 26  1  0  0  0  0
 30 29  2  0  0  0  0
 31 32  1  0  0  0  0
 31 26  1  0  0  0  0
 33 31  2  0  0  0  0
 34 32  2  0  0  0  0
 35 34  1  0  0  0  0
 36 35  2  0  0  0  0
 36 33  1  0  0  0  0
M  END
>  <MODEL>
9

>  <REMARK>
 VINA RESULT:      -6.0      2.890      6.874
  Name = 
  10 active torsions:
  status: ('A' for Active; 'I' for Inactive)
    1  A    between atoms: C_2  and  C_4
    2  A    between atoms: N_6  and  C_7
    3  A    between atoms: N_6  and  C_18
    4  A    between atoms: C_7  and  C_30
    5  A    between atoms: C_13  and  N_27
    6  A    between atoms: C_14  and  C_17
    7  A    between atoms: C_14  and  C_20
    8  A    between atoms: C_14  and  C_29
    9  A    between atoms: C_17  and  C_18
   10  A    between atoms: C_19  and  C_32
                            x       y       z     vdW  Elec       q    Type
                         _______ _______ _______ _____ _____    ______ ____

>  <TORSDO>
F 10

$$$$
