=
 OpenBabel10222420063D

 27 31  0  0  1  0  0  0  0  0999 V2000
  186.1140  178.0670  144.2940 C   0  0  0  0  0  0  0  0  0  0  0  0
  187.2810  177.7590  145.1460 C   0  0  0  0  0  0  0  0  0  0  0  0
  190.9920  177.7020  145.2000 C   0  0  2  0  0  3  0  0  0  0  0  0
  191.9920  177.3790  146.1160 O   0  0  0  0  0  1  0  0  0  0  0  0
  191.1450  177.5510  142.7880 C   0  0  0  0  0  3  0  0  0  0  0  0
  191.4200  178.4020  143.9610 C   0  0  0  0  0  2  0  0  0  0  0  0
  189.6930  177.4740  145.4970 C   0  0  0  0  0  0  0  0  0  0  0  0
  183.7610  178.5780  143.9730 C   0  0  0  0  0  0  0  0  0  0  0  0
  186.3130  178.1420  142.9170 C   0  0  2  0  0  3  0  0  0  0  0  0
  182.4010  178.8480  144.5460 C   0  0  0  0  0  2  0  0  0  0  0  0
  185.2500  178.4410  142.0600 C   0  0  0  0  0  3  0  0  0  0  0  0
  182.9070  178.9570  141.7280 O   0  0  0  0  0  0  0  0  0  0  0  0
  187.0670  177.4860  146.5020 C   0  0  0  0  0  3  0  0  0  0  0  0
  188.5920  177.6580  144.5850 C   0  0  0  0  0  0  0  0  0  0  0  0
  184.8320  178.2890  144.8240 C   0  0  0  0  0  3  0  0  0  0  0  0
  189.9100  177.2010  142.4600 C   0  0  0  0  0  0  0  0  0  0  0  0
  189.4160  177.1630  146.8390 C   0  0  0  0  0  3  0  0  0  0  0  0
  183.9740  178.6690  142.5850 C   0  0  0  0  0  0  0  0  0  0  0  0
  181.6320  179.3600  142.2280 C   0  0  0  0  0  2  0  0  0  0  0  0
  187.5820  177.8990  142.4030 O   0  0  0  0  0  0  0  0  0  0  0  0
  181.3040  178.6000  143.5110 C   0  0  0  0  0  2  0  0  0  0  0  0
  188.7000  177.6290  143.2120 C   0  0  0  0  0  0  0  0  0  0  0  0
  188.1220  177.1570  147.3360 C   0  0  0  0  0  3  0  0  0  0  0  0
  189.7310  176.4160  141.2030 C   0  0  0  0  0  2  0  0  0  0  0  0
  190.2470  177.1680  140.0730 N   0  0  0  0  0  2  0  0  0  0  0  0
  189.4240  178.0810  139.4060 C   0  0  0  0  0  0  0  0  0  0  0  0
  188.7430  178.8370  138.8560 N   0  0  0  0  0  0  0  0  0  0  0  0
  1 15  1  0  0  0  0
  1  2  2  0  0  0  0
  2 13  1  0  0  0  0
  3  7  1  0  0  0  0
  3  4  1  1  0  0  0
  5  6  1  0  0  0  0
  6  3  1  0  0  0  0
  7 17  2  0  0  0  0
  8 10  1  0  0  0  0
  8 15  2  0  0  0  0
  9 11  1  6  0  0  0
  9  1  1  0  0  0  0
 11 18  2  0  0  0  0
 12 19  1  0  0  0  0
 12 18  1  0  0  0  0
 13 23  2  0  0  0  0
 14  2  1  0  0  0  0
 14  7  1  0  0  0  0
 16  5  2  0  0  0  0
 16 22  1  0  0  0  0
 17 23  1  0  0  0  0
 18  8  1  0  0  0  0
 19 21  1  0  0  0  0
 20  9  1  0  0  0  0
 20 22  1  0  0  0  0
 21 10  1  0  0  0  0
 22 14  2  0  0  0  0
 24 16  1  0  0  0  0
 25 24  1  0  0  0  0
 26 25  1  0  0  0  0
 27 26  3  0  0  0  0
M  END
>  <MODEL>
1

>  <REMARK>
 VINA RESULT:     -10.4      0.000      0.000
  Name = 
  3 active torsions:
  status: ('A' for Active; 'I' for Inactive)
    1  A    between atoms: C_7  and  C_19
    2  A    between atoms: C_7  and  N_25
    3  A    between atoms: C_11  and  N_25
                            x       y       z     vdW  Elec       q    Type
                         _______ _______ _______ _____ _____    ______ ____

>  <TORSDO>
F 3

$$$$
=
 OpenBabel10222420063D

 27 31  0  0  1  0  0  0  0  0999 V2000
  188.4560  177.7410  142.3640 C   0  0  0  0  0  0  0  0  0  0  0  0
  187.0720  177.9360  142.8450 C   0  0  0  0  0  0  0  0  0  0  0  0
  185.0630  178.9160  145.8080 C   0  0  2  0  0  3  0  0  0  0  0  0
  183.7120  179.0640  146.1190 O   0  0  0  0  0  1  0  0  0  0  0  0
  186.8420  178.3530  147.3510 C   0  0  0  0  0  3  0  0  0  0  0  0
  186.0390  179.4550  146.7910 C   0  0  0  0  0  2  0  0  0  0  0  0
  185.4390  178.4000  144.6160 C   0  0  0  0  0  0  0  0  0  0  0  0
  190.1060  177.5110  140.5960 C   0  0  0  0  0  0  0  0  0  0  0  0
  189.4640  177.6010  143.3160 C   0  0  0  0  0  0  0  0  0  0  0  0
  190.4520  177.5010  139.1370 C   0  0  0  0  0  2  0  0  0  0  0  0
  190.7930  177.4250  142.9230 C   0  0  0  0  0  3  0  0  0  0  0  0
  192.4490  177.2020  141.1700 O   0  0  0  0  0  0  0  0  0  0  0  0
  186.0270  177.8810  141.9160 C   0  0  0  0  0  3  0  0  0  0  0  0
  186.7960  178.0950  144.2390 C   0  0  0  0  0  0  0  0  0  0  0  0
  188.7800  177.6980  140.9980 C   0  0  0  0  0  2  0  0  0  0  0  0
  187.6400  177.6190  146.5880 C   0  0  0  0  0  0  0  0  0  0  0  0
  184.4250  178.2880  143.6500 C   0  0  0  0  0  3  0  0  0  0  0  0
  191.1200  177.3890  141.5650 C   0  0  0  0  0  0  0  0  0  0  0  0
  192.8490  177.3250  139.8050 C   0  0  0  0  0  2  0  0  0  0  0  0
  189.1270  177.6240  144.6660 O   0  0  0  0  0  0  0  0  0  0  0  0
  191.7690  176.7650  138.8840 C   0  0  0  0  0  2  0  0  0  0  0  0
  187.8150  177.8330  145.1270 C   0  0  0  0  0  0  0  0  0  0  0  0
  184.7100  178.0220  142.3190 C   0  0  0  0  0  3  0  0  0  0  0  0
  188.4800  176.5890  147.2670 C   0  0  0  0  0  2  0  0  0  0  0  0
  189.6680  177.2090  147.8270 N   0  0  0  0  0  2  0  0  0  0  0  0
  190.9370  176.8040  147.3980 C   0  0  0  0  0  0  0  0  0  0  0  0
  191.9860  176.4700  147.0440 N   0  0  0  0  0  0  0  0  0  0  0  0
  1  2  2  0  0  0  0
  1  9  1  0  0  0  0
  2 14  1  0  0  0  0
  3  4  1  6  0  0  0
  3  6  1  0  0  0  0
  6  5  1  0  0  0  0
  7  3  1  0  0  0  0
  8 15  1  0  0  0  0
  8 18  2  0  0  0  0
  9 20  1  0  0  0  0
 10  8  1  0  0  0  0
 11  9  2  0  0  0  0
 12 18  1  0  0  0  0
 13 23  2  0  0  0  0
 13  2  1  0  0  0  0
 14  7  1  0  0  0  0
 14 22  2  0  0  0  0
 15  1  1  0  0  0  0
 16 24  1  0  0  0  0
 16  5  2  0  0  0  0
 17  7  2  0  0  0  0
 18 11  1  0  0  0  0
 19 12  1  0  0  0  0
 20 22  1  0  0  0  0
 21 10  1  0  0  0  0
 21 19  1  0  0  0  0
 22 16  1  0  0  0  0
 23 17  1  0  0  0  0
 24 25  1  0  0  0  0
 26 25  1  0  0  0  0
 27 26  3  0  0  0  0
M  END
>  <MODEL>
2

>  <REMARK>
 VINA RESULT:      -9.5      2.873      6.791
  Name = 
  3 active torsions:
  status: ('A' for Active; 'I' for Inactive)
    1  A    between atoms: C_7  and  C_19
    2  A    between atoms: C_7  and  N_25
    3  A    between atoms: C_11  and  N_25
                            x       y       z     vdW  Elec       q    Type
                         _______ _______ _______ _____ _____    ______ ____

>  <TORSDO>
F 3

$$$$
=
 OpenBabel10222420063D

 27 31  0  0  1  0  0  0  0  0999 V2000
  185.0810  178.3260  144.1980 C   0  0  0  0  0  0  0  0  0  0  0  0
  185.9250  178.1800  145.4020 C   0  0  0  0  0  0  0  0  0  0  0  0
  189.4430  177.9330  146.5590 C   0  0  2  0  0  3  0  0  0  0  0  0
  190.1070  177.7980  147.7770 O   0  0  0  0  0  1  0  0  0  0  0  0
  190.2260  177.1660  144.3990 C   0  0  0  0  0  3  0  0  0  0  0  0
  190.2760  178.2700  145.3750 C   0  0  0  0  0  2  0  0  0  0  0  0
  188.0940  177.8600  146.5040 C   0  0  0  0  0  0  0  0  0  0  0  0
  182.9890  178.8680  143.0900 C   0  0  0  0  0  0  0  0  0  0  0  0
  185.6550  178.0370  142.9610 C   0  0  2  0  0  3  0  0  0  0  0  0
  181.5700  179.3500  143.1600 C   0  0  0  0  0  2  0  0  0  0  0  0
  184.9120  178.1670  141.7850 C   0  0  0  0  0  3  0  0  0  0  0  0
  182.8320  178.7110  140.6680 O   0  0  0  0  0  0  0  0  0  0  0  0
  185.3170  178.2730  146.6600 C   0  0  0  0  0  3  0  0  0  0  0  0
  187.3150  177.8670  145.2900 C   0  0  0  0  0  0  0  0  0  0  0  0
  183.7430  178.7450  144.2610 C   0  0  0  0  0  3  0  0  0  0  0  0
  189.0920  176.8120  143.8100 C   0  0  0  0  0  0  0  0  0  0  0  0
  187.4260  177.9160  147.7380 C   0  0  0  0  0  3  0  0  0  0  0  0
  183.5810  178.5910  141.8440 C   0  0  0  0  0  0  0  0  0  0  0  0
  181.5310  179.2970  140.6660 C   0  0  0  0  0  2  0  0  0  0  0  0
  186.9750  177.6020  142.9130 O   0  0  0  0  0  0  0  0  0  0  0  0
  180.7730  178.9080  141.9320 C   0  0  0  0  0  2  0  0  0  0  0  0
  187.7870  177.4840  144.0550 C   0  0  0  0  0  0  0  0  0  0  0  0
  186.0550  178.1090  147.8200 C   0  0  0  0  0  3  0  0  0  0  0  0
  189.1640  175.7450  142.7700 C   0  0  0  0  0  2  0  0  0  0  0  0
  190.1140  176.1230  141.7390 N   0  0  0  0  0  2  0  0  0  0  0  0
  189.7520  177.0570  140.7620 C   0  0  0  0  0  0  0  0  0  0  0  0
  189.4540  177.8300  139.9550 N   0  0  0  0  0  0  0  0  0  0  0  0
  1 15  1  0  0  0  0
  1  2  2  0  0  0  0
  2 13  1  0  0  0  0
  3  4  1  1  0  0  0
  5  6  1  0  0  0  0
  6  3  1  0  0  0  0
  7  3  1  0  0  0  0
  7 17  2  0  0  0  0
  8 10  1  0  0  0  0
  8 15  2  0  0  0  0
  9 11  1  1  0  0  0
  9  1  1  0  0  0  0
 11 18  2  0  0  0  0
 12 18  1  0  0  0  0
 13 23  2  0  0  0  0
 14  2  1  0  0  0  0
 14  7  1  0  0  0  0
 16 22  1  0  0  0  0
 16  5  2  0  0  0  0
 17 23  1  0  0  0  0
 18  8  1  0  0  0  0
 19 12  1  0  0  0  0
 19 21  1  0  0  0  0
 20  9  1  0  0  0  0
 20 22  1  0  0  0  0
 21 10  1  0  0  0  0
 22 14  2  0  0  0  0
 24 16  1  0  0  0  0
 25 24  1  0  0  0  0
 26 25  1  0  0  0  0
 27 26  3  0  0  0  0
M  END
>  <MODEL>
3

>  <REMARK>
 VINA RESULT:      -9.5      1.216      1.644
  Name = 
  3 active torsions:
  status: ('A' for Active; 'I' for Inactive)
    1  A    between atoms: C_7  and  C_19
    2  A    between atoms: C_7  and  N_25
    3  A    between atoms: C_11  and  N_25
                            x       y       z     vdW  Elec       q    Type
                         _______ _______ _______ _____ _____    ______ ____

>  <TORSDO>
F 3

$$$$
=
 OpenBabel10222420063D

 27 31  0  0  1  0  0  0  0  0999 V2000
  187.5090  177.6970  145.0200 C   0  0  0  0  0  0  0  0  0  0  0  0
  186.1130  178.1530  144.8590 C   0  0  0  0  0  0  0  0  0  0  0  0
  183.3420  178.4460  142.4070 C   0  0  2  0  0  3  0  0  0  0  0  0
  182.0290  178.9130  142.4060 O   0  0  0  0  0  1  0  0  0  0  0  0
  184.8500  178.3860  140.5140 C   0  0  0  0  0  3  0  0  0  0  0  0
  183.7760  177.6640  141.2200 C   0  0  0  0  0  2  0  0  0  0  0  0
  184.1290  178.6190  143.4940 C   0  0  0  0  0  0  0  0  0  0  0  0
  189.4060  177.0130  146.3740 C   0  0  0  0  0  0  0  0  0  0  0  0
  188.2710  177.5090  143.8680 C   0  0  2  0  0  3  0  0  0  0  0  0
  189.9990  176.7110  147.7180 C   0  0  0  0  0  2  0  0  0  0  0  0
  189.5940  177.0680  143.9540 C   0  0  0  0  0  3  0  0  0  0  0  0
  191.4900  176.3780  145.2930 O   0  0  0  0  0  0  0  0  0  0  0  0
  185.3980  178.5340  146.0000 C   0  0  0  0  0  3  0  0  0  0  0  0
  185.5290  178.2840  143.5610 C   0  0  0  0  0  0  0  0  0  0  0  0
  188.0800  177.4440  146.2780 C   0  0  0  0  0  3  0  0  0  0  0  0
  186.0190  178.6280  141.0910 C   0  0  0  0  0  0  0  0  0  0  0  0
  183.4730  179.0330  144.6650 C   0  0  0  0  0  3  0  0  0  0  0  0
  190.1620  176.8090  145.2050 C   0  0  0  0  0  0  0  0  0  0  0  0
  192.0560  175.9440  146.5310 C   0  0  0  0  0  2  0  0  0  0  0  0
  187.7010  177.7830  142.6290 O   0  0  0  0  0  0  0  0  0  0  0  0
  191.5260  176.7950  147.6810 C   0  0  0  0  0  2  0  0  0  0  0  0
  186.3660  178.1950  142.4710 C   0  0  0  0  0  0  0  0  0  0  0  0
  184.0990  179.0030  145.9020 C   0  0  0  0  0  3  0  0  0  0  0  0
  187.0710  179.2820  140.2590 C   0  0  0  0  0  2  0  0  0  0  0  0
  187.5550  178.3540  139.2520 N   0  0  0  0  0  2  0  0  0  0  0  0
  188.8380  177.8070  139.3640 C   0  0  0  0  0  0  0  0  0  0  0  0
  189.8980  177.3540  139.4570 N   0  0  0  0  0  0  0  0  0  0  0  0
  1 15  1  0  0  0  0
  2  1  2  0  0  0  0
  2 13  1  0  0  0  0
  3  4  1  1  0  0  0
  3  7  1  0  0  0  0
  5 16  2  0  0  0  0
  5  6  1  0  0  0  0
  6  3  1  0  0  0  0
  7 14  1  0  0  0  0
  7 17  2  0  0  0  0
  8 10  1  0  0  0  0
  9 11  1  1  0  0  0
  9  1  1  0  0  0  0
 11 18  2  0  0  0  0
 12 19  1  0  0  0  0
 14  2  1  0  0  0  0
 15  8  2  0  0  0  0
 16 22  1  0  0  0  0
 17 23  1  0  0  0  0
 18 12  1  0  0  0  0
 18  8  1  0  0  0  0
 19 21  1  0  0  0  0
 20  9  1  0  0  0  0
 21 10  1  0  0  0  0
 22 20  1  0  0  0  0
 22 14  2  0  0  0  0
 23 13  2  0  0  0  0
 24 16  1  0  0  0  0
 25 26  1  0  0  0  0
 25 24  1  0  0  0  0
 26 27  3  0  0  0  0
M  END
>  <MODEL>
4

>  <REMARK>
 VINA RESULT:      -9.0      1.285      6.180
  Name = 
  3 active torsions:
  status: ('A' for Active; 'I' for Inactive)
    1  A    between atoms: C_7  and  C_19
    2  A    between atoms: C_7  and  N_25
    3  A    between atoms: C_11  and  N_25
                            x       y       z     vdW  Elec       q    Type
                         _______ _______ _______ _____ _____    ______ ____

>  <TORSDO>
F 3

$$$$
=
 OpenBabel10222420063D

 27 31  0  0  1  0  0  0  0  0999 V2000
  188.6970  178.0310  141.9520 C   0  0  0  0  0  0  0  0  0  0  0  0
  189.4930  177.9060  143.1910 C   0  0  0  0  0  0  0  0  0  0  0  0
  189.2540  177.1560  146.8180 C   0  0  2  0  0  3  0  0  0  0  0  0
  190.1280  177.0680  147.8990 O   0  0  0  0  0  1  0  0  0  0  0  0
  186.9070  177.7460  146.9080 C   0  0  0  0  0  3  0  0  0  0  0  0
  187.8750  176.6410  147.0280 C   0  0  0  0  0  2  0  0  0  0  0  0
  189.6930  177.5930  145.6160 C   0  0  0  0  0  0  0  0  0  0  0  0
  188.4800  178.1100  139.5340 C   0  0  0  0  0  0  0  0  0  0  0  0
  187.3180  178.1900  142.0760 C   0  0  0  0  0  0  0  0  0  0  0  0
  189.1020  178.0280  138.1710 C   0  0  0  0  0  2  0  0  0  0  0  0
  186.5100  178.3020  140.9410 C   0  0  0  0  0  3  0  0  0  0  0  0
  186.2800  178.3760  138.5310 O   0  0  0  0  0  0  0  0  0  0  0  0
  190.8880  177.9440  143.0960 C   0  0  0  0  0  3  0  0  0  0  0  0
  188.8550  177.8330  144.4680 C   0  0  0  0  0  0  0  0  0  0  0  0
  189.2790  177.9880  140.6740 C   0  0  0  0  0  2  0  0  0  0  0  0
  186.7510  178.4110  145.7720 C   0  0  0  0  0  0  0  0  0  0  0  0
  191.0870  177.6830  145.4690 C   0  0  0  0  0  3  0  0  0  0  0  0
  187.0860  178.2530  139.6680 C   0  0  0  0  0  0  0  0  0  0  0  0
  186.8000  178.1640  137.2180 C   0  0  0  0  0  2  0  0  0  0  0  0
  186.7560  178.2530  143.3470 O   0  0  0  0  0  0  0  0  0  0  0  0
  188.2230  178.7070  137.1190 C   0  0  0  0  0  2  0  0  0  0  0  0
  187.5070  178.1110  144.5270 C   0  0  0  0  0  0  0  0  0  0  0  0
  191.6810  177.8670  144.2290 C   0  0  0  0  0  3  0  0  0  0  0  0
  185.6800  179.4500  145.7270 C   0  0  0  0  0  2  0  0  0  0  0  0
  184.3760  178.8210  145.8440 N   0  0  0  0  0  2  0  0  0  0  0  0
  183.4560  178.9200  144.7940 C   0  0  0  0  0  0  0  0  0  0  0  0
  182.6950  179.0030  143.9280 N   0  0  0  0  0  0  0  0  0  0  0  0
  1  9  1  0  0  0  0
  1  2  2  0  0  0  0
  2 14  1  0  0  0  0
  3  6  1  0  0  0  0
  3  4  1  6  0  0  0
  5  6  1  0  0  0  0
  7  3  1  0  0  0  0
  8 18  2  0  0  0  0
  8 15  1  0  0  0  0
  9 20  1  0  0  0  0
 10  8  1  0  0  0  0
 11  9  2  0  0  0  0
 12 18  1  0  0  0  0
 13  2  1  0  0  0  0
 13 23  2  0  0  0  0
 14 22  2  0  0  0  0
 14  7  1  0  0  0  0
 15  1  1  0  0  0  0
 16  5  2  0  0  0  0
 17  7  2  0  0  0  0
 18 11  1  0  0  0  0
 19 12  1  0  0  0  0
 20 22  1  0  0  0  0
 21 19  1  0  0  0  0
 21 10  1  0  0  0  0
 22 16  1  0  0  0  0
 23 17  1  0  0  0  0
 24 16  1  0  0  0  0
 24 25  1  0  0  0  0
 26 25  1  0  0  0  0
 27 26  3  0  0  0  0
M  END
>  <MODEL>
5

>  <REMARK>
 VINA RESULT:      -8.9      2.721      5.347
  Name = 
  3 active torsions:
  status: ('A' for Active; 'I' for Inactive)
    1  A    between atoms: C_7  and  C_19
    2  A    between atoms: C_7  and  N_25
    3  A    between atoms: C_11  and  N_25
                            x       y       z     vdW  Elec       q    Type
                         _______ _______ _______ _____ _____    ______ ____

>  <TORSDO>
F 3

$$$$
=
 OpenBabel10222420063D

 27 31  0  0  1  0  0  0  0  0999 V2000
  185.7400  178.1750  144.5100 C   0  0  0  0  0  0  0  0  0  0  0  0
  184.4020  178.5060  143.9770 C   0  0  0  0  0  0  0  0  0  0  0  0
  182.2520  178.2430  140.9630 C   0  0  2  0  0  3  0  0  0  0  0  0
  180.9590  178.6140  140.6000 O   0  0  0  0  0  1  0  0  0  0  0  0
  184.1520  178.0060  139.4800 C   0  0  0  0  0  3  0  0  0  0  0  0
  182.9700  177.3250  140.0400 C   0  0  0  0  0  2  0  0  0  0  0  0
  182.7660  178.6280  142.1530 C   0  0  0  0  0  0  0  0  0  0  0  0
  187.3010  177.8300  146.3390 C   0  0  0  0  0  0  0  0  0  0  0  0
  186.7490  177.8710  143.5980 C   0  0  2  0  0  3  0  0  0  0  0  0
  187.5840  177.7730  147.8110 C   0  0  0  0  0  2  0  0  0  0  0  0
  188.0320  177.5390  144.0420 C   0  0  0  0  0  3  0  0  0  0  0  0
  189.5960  177.1860  145.8560 O   0  0  0  0  0  0  0  0  0  0  0  0
  183.4350  179.0030  144.8580 C   0  0  0  0  0  3  0  0  0  0  0  0
  184.1240  178.4030  142.5780 C   0  0  0  0  0  0  0  0  0  0  0  0
  186.0180  178.1520  145.8870 C   0  0  0  0  0  3  0  0  0  0  0  0
  185.1510  178.4090  140.2530 C   0  0  0  0  0  0  0  0  0  0  0  0
  181.8480  179.1660  143.0710 C   0  0  0  0  0  3  0  0  0  0  0  0
  188.3100  177.5080  145.4110 C   0  0  0  0  0  0  0  0  0  0  0  0
  189.8800  176.9800  147.2400 C   0  0  0  0  0  2  0  0  0  0  0  0
  186.4670  177.9180  142.2370 O   0  0  0  0  0  0  0  0  0  0  0  0
  189.0760  177.9550  148.0960 C   0  0  0  0  0  2  0  0  0  0  0  0
  185.1890  178.2110  141.7270 C   0  0  0  0  0  0  0  0  0  0  0  0
  182.1770  179.3620  144.4040 C   0  0  0  0  0  3  0  0  0  0  0  0
  186.3420  179.0030  139.5790 C   0  0  0  0  0  2  0  0  0  0  0  0
  186.6660  178.2420  138.3850 N   0  0  0  0  0  2  0  0  0  0  0  0
  187.9950  178.1410  137.9590 C   0  0  0  0  0  0  0  0  0  0  0  0
  189.0930  178.0580  137.6060 N   0  0  0  0  0  0  0  0  0  0  0  0
  1 15  1  0  0  0  0
  2  1  2  0  0  0  0
  2 13  1  0  0  0  0
  3  4  1  1  0  0  0
  3  7  1  0  0  0  0
  5  6  1  0  0  0  0
  5 16  2  0  0  0  0
  6  3  1  0  0  0  0
  7 14  1  0  0  0  0
  7 17  2  0  0  0  0
  8 10  1  0  0  0  0
  9 11  1  6  0  0  0
  9  1  1  0  0  0  0
 10 21  1  0  0  0  0
 11 18  2  0  0  0  0
 12 19  1  0  0  0  0
 14  2  1  0  0  0  0
 15  8  2  0  0  0  0
 16 22  1  0  0  0  0
 17 23  1  0  0  0  0
 18 12  1  0  0  0  0
 18  8  1  0  0  0  0
 19 21  1  0  0  0  0
 20  9  1  0  0  0  0
 22 20  1  0  0  0  0
 22 14  2  0  0  0  0
 23 13  2  0  0  0  0
 24 16  1  0  0  0  0
 25 24  1  0  0  0  0
 26 25  1  0  0  0  0
 27 26  3  0  0  0  0
M  END
>  <MODEL>
6

>  <REMARK>
 VINA RESULT:      -8.7      1.780      6.296
  Name = 
  3 active torsions:
  status: ('A' for Active; 'I' for Inactive)
    1  A    between atoms: C_7  and  C_19
    2  A    between atoms: C_7  and  N_25
    3  A    between atoms: C_11  and  N_25
                            x       y       z     vdW  Elec       q    Type
                         _______ _______ _______ _____ _____    ______ ____

>  <TORSDO>
F 3

$$$$
=
 OpenBabel10222420063D

 27 31  0  0  1  0  0  0  0  0999 V2000
  186.8380  177.8500  143.9580 C   0  0  0  0  0  0  0  0  0  0  0  0
  185.4190  178.2510  144.0540 C   0  0  0  0  0  0  0  0  0  0  0  0
  182.2380  178.4160  142.1490 C   0  0  2  0  0  3  0  0  0  0  0  0
  180.9300  178.8310  142.3870 O   0  0  0  0  0  1  0  0  0  0  0  0
  183.3780  178.3990  140.0120 C   0  0  0  0  0  3  0  0  0  0  0  0
  182.4790  177.6420  140.9030 C   0  0  0  0  0  2  0  0  0  0  0  0
  183.2020  178.6280  143.0730 C   0  0  0  0  0  0  0  0  0  0  0  0
  188.9760  177.2520  144.9450 C   0  0  0  0  0  0  0  0  0  0  0  0
  187.3840  177.6830  142.6870 C   0  0  2  0  0  3  0  0  0  0  0  0
  189.8160  176.9840  146.1580 C   0  0  0  0  0  2  0  0  0  0  0  0
  188.7170  177.2940  142.5310 C   0  0  0  0  0  3  0  0  0  0  0  0
  190.8520  176.6890  143.5030 O   0  0  0  0  0  0  0  0  0  0  0  0
  184.9100  178.6130  145.3060 C   0  0  0  0  0  3  0  0  0  0  0  0
  184.6040  178.3480  142.8840 C   0  0  0  0  0  0  0  0  0  0  0  0
  187.6380  177.6310  145.0920 C   0  0  0  0  0  3  0  0  0  0  0  0
  184.6220  178.6900  140.3660 C   0  0  0  0  0  0  0  0  0  0  0  0
  182.7560  179.0260  144.3440 C   0  0  0  0  0  3  0  0  0  0  0  0
  189.5140  177.0680  143.6570 C   0  0  0  0  0  0  0  0  0  0  0  0
  191.6500  176.2880  144.6160 C   0  0  0  0  0  2  0  0  0  0  0  0
  186.5880  177.9240  141.5720 O   0  0  0  0  0  0  0  0  0  0  0  0
  191.3060  177.1280  145.8430 C   0  0  0  0  0  2  0  0  0  0  0  0
  185.2310  178.2830  141.6600 C   0  0  0  0  0  0  0  0  0  0  0  0
  183.5970  179.0310  145.4460 C   0  0  0  0  0  3  0  0  0  0  0  0
  185.4780  179.3780  139.3560 C   0  0  0  0  0  2  0  0  0  0  0  0
  185.6860  178.5100  138.2100 N   0  0  0  0  0  2  0  0  0  0  0  0
  186.9130  177.8590  138.0400 C   0  0  0  0  0  0  0  0  0  0  0  0
  187.9270  177.3210  137.9000 N   0  0  0  0  0  0  0  0  0  0  0  0
  1  2  2  0  0  0  0
  1 15  1  0  0  0  0
  2 13  1  0  0  0  0
  3  4  1  1  0  0  0
  3  7  1  0  0  0  0
  5 16  2  0  0  0  0
  5  6  1  0  0  0  0
  6  3  1  0  0  0  0
  7 17  2  0  0  0  0
  8 15  2  0  0  0  0
  8 10  1  0  0  0  0
  9 11  1  6  0  0  0
  9  1  1  0  0  0  0
 11 18  2  0  0  0  0
 12 18  1  0  0  0  0
 12 19  1  0  0  0  0
 13 23  2  0  0  0  0
 14  7  1  0  0  0  0
 14  2  1  0  0  0  0
 16 22  1  0  0  0  0
 17 23  1  0  0  0  0
 18  8  1  0  0  0  0
 19 21  1  0  0  0  0
 20 22  1  0  0  0  0
 20  9  1  0  0  0  0
 21 10  1  0  0  0  0
 22 14  2  0  0  0  0
 24 16  1  0  0  0  0
 25 24  1  0  0  0  0
 26 25  1  0  0  0  0
 27 26  3  0  0  0  0
M  END
>  <MODEL>
7

>  <REMARK>
 VINA RESULT:      -8.5      1.674      6.410
  Name = 
  3 active torsions:
  status: ('A' for Active; 'I' for Inactive)
    1  A    between atoms: C_7  and  C_19
    2  A    between atoms: C_7  and  N_25
    3  A    between atoms: C_11  and  N_25
                            x       y       z     vdW  Elec       q    Type
                         _______ _______ _______ _____ _____    ______ ____

>  <TORSDO>
F 3

$$$$
=
 OpenBabel10222420063D

 27 31  0  0  1  0  0  0  0  0999 V2000
  190.2020  177.2750  141.2190 C   0  0  0  0  0  0  0  0  0  0  0  0
  190.1270  177.5070  142.6760 C   0  0  0  0  0  0  0  0  0  0  0  0
  187.7810  177.6490  145.5490 C   0  0  2  0  0  3  0  0  0  0  0  0
  187.8640  177.8830  146.9200 O   0  0  0  0  0  1  0  0  0  0  0  0
  185.8740  178.0940  144.1240 C   0  0  0  0  0  3  0  0  0  0  0  0
  186.4920  177.1140  145.0370 C   0  0  0  0  0  2  0  0  0  0  0  0
  188.8680  177.8070  144.7610 C   0  0  0  0  0  0  0  0  0  0  0  0
  191.4210  176.7490  139.1850 C   0  0  0  0  0  0  0  0  0  0  0  0
  189.0240  177.3730  140.4810 C   0  0  2  0  0  3  0  0  0  0  0  0
  192.7030  176.3780  138.4990 C   0  0  0  0  0  2  0  0  0  0  0  0
  189.0290  177.1540  139.1010 C   0  0  0  0  0  3  0  0  0  0  0  0
  190.2320  176.6230  137.0670 O   0  0  0  0  0  0  0  0  0  0  0  0
  191.3200  177.6080  143.4000 C   0  0  0  0  0  3  0  0  0  0  0  0
  188.8680  177.7070  143.3230 C   0  0  0  0  0  0  0  0  0  0  0  0
  191.4050  176.9600  140.5670 C   0  0  0  0  0  3  0  0  0  0  0  0
  186.4600  178.4510  142.9910 C   0  0  0  0  0  0  0  0  0  0  0  0
  190.0950  177.9460  145.4300 C   0  0  0  0  0  3  0  0  0  0  0  0
  190.2230  176.8320  138.4500 C   0  0  0  0  0  0  0  0  0  0  0  0
  191.3900  176.1320  136.3910 C   0  0  0  0  0  2  0  0  0  0  0  0
  187.8420  177.7070  141.1350 O   0  0  0  0  0  0  0  0  0  0  0  0
  192.6540  176.7230  137.0090 C   0  0  0  0  0  2  0  0  0  0  0  0
  187.7630  177.9060  142.5250 C   0  0  0  0  0  0  0  0  0  0  0  0
  191.3070  177.8590  144.7620 C   0  0  0  0  0  3  0  0  0  0  0  0
  185.7100  179.3780  142.0930 C   0  0  0  0  0  2  0  0  0  0  0  0
  184.8370  178.6180  141.2160 N   0  0  0  0  0  2  0  0  0  0  0  0
  184.6820  179.0030  139.8790 C   0  0  0  0  0  0  0  0  0  0  0  0
  184.5560  179.3200  138.7750 N   0  0  0  0  0  0  0  0  0  0  0  0
  1  2  2  0  0  0  0
  2 14  1  0  0  0  0
  2 13  1  0  0  0  0
  3  4  1  1  0  0  0
  5  6  1  0  0  0  0
  6  3  1  0  0  0  0
  7 17  2  0  0  0  0
  7  3  1  0  0  0  0
  8 15  2  0  0  0  0
  9 11  1  6  0  0  0
  9 20  1  0  0  0  0
  9  1  1  0  0  0  0
 10  8  1  0  0  0  0
 12 18  1  0  0  0  0
 13 23  2  0  0  0  0
 14  7  1  0  0  0  0
 15  1  1  0  0  0  0
 16  5  2  0  0  0  0
 18 11  2  0  0  0  0
 18  8  1  0  0  0  0
 19 21  1  0  0  0  0
 19 12  1  0  0  0  0
 20 22  1  0  0  0  0
 21 10  1  0  0  0  0
 22 16  1  0  0  0  0
 22 14  2  0  0  0  0
 23 17  1  0  0  0  0
 24 16  1  0  0  0  0
 25 24  1  0  0  0  0
 26 25  1  0  0  0  0
 27 26  3  0  0  0  0
M  END
>  <MODEL>
8

>  <REMARK>
 VINA RESULT:      -8.3      2.524      6.337
  Name = 
  3 active torsions:
  status: ('A' for Active; 'I' for Inactive)
    1  A    between atoms: C_7  and  C_19
    2  A    between atoms: C_7  and  N_25
    3  A    between atoms: C_11  and  N_25
                            x       y       z     vdW  Elec       q    Type
                         _______ _______ _______ _____ _____    ______ ____

>  <TORSDO>
F 3

$$$$
=
 OpenBabel10222420063D

 27 31  0  0  1  0  0  0  0  0999 V2000
  185.7860  178.2490  142.3220 C   0  0  0  0  0  0  0  0  0  0  0  0
  187.0520  178.1040  141.5750 C   0  0  0  0  0  0  0  0  0  0  0  0
  190.5030  176.7560  141.8020 C   0  0  2  0  0  3  0  0  0  0  0  0
  191.6260  176.6890  140.9790 O   0  0  0  0  0  1  0  0  0  0  0  0
  190.4920  176.8070  144.2230 C   0  0  0  0  0  3  0  0  0  0  0  0
  190.5280  175.9300  143.0380 C   0  0  0  0  0  2  0  0  0  0  0  0
  189.4150  177.4620  141.4190 C   0  0  0  0  0  0  0  0  0  0  0  0
  183.3950  178.6600  142.4430 C   0  0  0  0  0  0  0  0  0  0  0  0
  185.8220  178.0870  143.7060 C   0  0  0  0  0  0  0  0  0  0  0  0
  182.0880  178.9310  141.7580 C   0  0  0  0  0  2  0  0  0  0  0  0
  184.6550  178.2010  144.4660 C   0  0  0  0  0  3  0  0  0  0  0  0
  182.2700  178.6030  144.5990 O   0  0  0  0  0  0  0  0  0  0  0  0
  187.0740  178.4550  140.2210 C   0  0  0  0  0  3  0  0  0  0  0  0
  188.2510  177.6950  142.2370 C   0  0  0  0  0  0  0  0  0  0  0  0
  184.5650  178.5350  141.6890 C   0  0  0  0  0  2  0  0  0  0  0  0
  189.4560  177.5940  144.4730 C   0  0  0  0  0  0  0  0  0  0  0  0
  189.3920  177.8720  140.0750 C   0  0  0  0  0  3  0  0  0  0  0  0
  183.4380  178.4780  143.8380 C   0  0  0  0  0  0  0  0  0  0  0  0
  180.9860  178.7180  143.9860 C   0  0  0  0  0  2  0  0  0  0  0  0
  187.0400  177.8250  144.3240 O   0  0  0  0  0  0  0  0  0  0  0  0
  181.0790  179.5620  142.7180 C   0  0  0  0  0  2  0  0  0  0  0  0
  188.2430  177.6640  143.6140 C   0  0  0  0  0  0  0  0  0  0  0  0
  188.2430  178.3720  139.4830 C   0  0  0  0  0  3  0  0  0  0  0  0
  189.4770  178.3710  145.7460 C   0  0  0  0  0  2  0  0  0  0  0  0
  189.5400  177.4650  146.8790 N   0  0  0  0  0  2  0  0  0  0  0  0
  188.7060  177.6670  147.9840 C   0  0  0  0  0  0  0  0  0  0  0  0
  188.0160  177.8340  148.8970 N   0  0  0  0  0  0  0  0  0  0  0  0
  1  9  1  0  0  0  0
  2 14  1  0  0  0  0
  2  1  2  0  0  0  0
  3  4  1  6  0  0  0
  3  6  1  0  0  0  0
  5 16  2  0  0  0  0
  6  5  1  0  0  0  0
  7  3  1  0  0  0  0
  7 14  1  0  0  0  0
  8 18  2  0  0  0  0
  9 20  1  0  0  0  0
  9 11  2  0  0  0  0
 10  8  1  0  0  0  0
 10 21  1  0  0  0  0
 13  2  1  0  0  0  0
 14 22  2  0  0  0  0
 15  1  1  0  0  0  0
 15  8  1  0  0  0  0
 16 24  1  0  0  0  0
 17  7  2  0  0  0  0
 18 11  1  0  0  0  0
 18 12  1  0  0  0  0
 19 12  1  0  0  0  0
 21 19  1  0  0  0  0
 22 20  1  0  0  0  0
 22 16  1  0  0  0  0
 23 17  1  0  0  0  0
 23 13  2  0  0  0  0
 24 25  1  0  0  0  0
 25 26  1  0  0  0  0
 26 27  3  0  0  0  0
M  END
>  <MODEL>
9

>  <REMARK>
 VINA RESULT:      -8.2      2.638      4.472
  Name = 
  3 active torsions:
  status: ('A' for Active; 'I' for Inactive)
    1  A    between atoms: C_7  and  C_19
    2  A    between atoms: C_7  and  N_25
    3  A    between atoms: C_11  and  N_25
                            x       y       z     vdW  Elec       q    Type
                         _______ _______ _______ _____ _____    ______ ____

>  <TORSDO>
F 3

$$$$
