=
 OpenBabel10222417183D

 46 52  0  0  1  0  0  0  0  0999 V2000
  190.2310  175.6230  138.3060 N   0  0  0  0  0  2  0  0  0  0  0  0
  191.2770  175.6630  137.2970 C   0  0  1  0  0  3  0  0  0  0  0  0
  193.5360  177.0660  138.2030 O   0  0  0  0  0  1  0  0  0  0  0  0
  192.5610  174.8590  137.6680 C   0  0  2  0  0  3  0  0  0  0  0  0
  194.7350  175.1390  134.6890 C   0  0  0  0  0  2  0  0  0  0  0  0
  193.7160  175.6810  138.3000 C   0  0  1  0  0  3  0  0  0  0  0  0
  193.8840  175.0720  136.9170 C   0  0  1  0  0  0  0  0  0  0  0  0
  195.5570  174.0950  135.4580 C   0  0  2  0  0  3  0  0  0  0  0  0
  194.7680  173.8430  136.7600 C   0  0  1  0  0  3  0  0  0  0  0  0
  194.0080  175.9870  135.7180 C   0  0  0  0  0  2  0  0  0  0  0  0
  195.6270  173.6260  137.9210 N   0  0  0  0  0  1  0  0  0  0  0  0
  197.3990  175.6000  134.5940 C   0  0  0  0  0  1  0  0  0  0  0  0
  197.0020  174.5950  135.6640 C   0  0  2  0  0  3  0  0  0  0  0  0
  197.8910  173.5200  135.5980 O   0  0  0  0  0  1  0  0  0  0  0  0
  188.5020  175.1670  135.3730 C   0  0  0  0  0  0  0  0  0  0  0  0
  187.2270  173.2050  135.4210 C   0  0  0  0  0  3  0  0  0  0  0  0
  190.7490  175.4200  135.8720 C   0  0  2  0  0  3  0  0  0  0  0  0
  187.3200  174.5410  135.1550 N   0  0  0  0  0  0  0  0  0  0  0  0
  188.3570  172.5040  135.8970 C   0  0  0  0  0  3  0  0  0  0  0  0
  190.0670  176.6730  135.3520 C   0  0  0  0  0  3  0  0  0  0  0  0
  189.5850  174.4970  135.8390 C   0  0  0  0  0  0  0  0  0  0  0  0
  189.5370  173.1640  136.0930 N   0  0  0  0  0  0  0  0  0  0  0  0
  188.8050  176.5140  135.0750 N   0  0  0  0  0  0  0  0  0  0  0  0
  190.3360  176.8540  139.0730 C   0  0  0  0  0  2  0  0  0  0  0  0
  189.2180  177.8180  138.6990 C   0  0  0  0  0  2  0  0  0  0  0  0
  187.9020  177.0890  138.4780 C   0  0  0  0  0  2  0  0  0  0  0  0
  184.6370  178.4320  139.0590 C   0  0  0  0  0  3  0  0  0  0  0  0
  185.7740  178.2330  138.4560 C   0  0  0  0  0  0  0  0  0  0  0  0
  186.9170  178.0250  137.8720 C   0  0  0  0  0  3  0  0  0  0  0  0
  184.6200  179.0250  140.4250 C   0  0  0  0  0  2  0  0  0  0  0  0
  183.6450  178.2660  141.3120 C   0  0  0  0  0  2  0  0  0  0  0  0
  184.8030  179.0020  144.6300 C   0  0  0  0  0  0  0  0  0  0  0  0
  182.8780  178.8120  143.5750 N   0  0  0  0  0  0  0  0  0  0  0  0
  183.8580  178.6120  142.7080 N   0  0  0  0  0  0  0  0  0  0  0  0
  183.4270  179.0450  144.7810 C   0  0  0  0  0  3  0  0  0  0  0  0
  185.0550  178.6960  143.3100 C   0  0  0  0  0  3  0  0  0  0  0  0
  185.8290  179.0830  145.7120 C   0  0  0  0  0  2  0  0  0  0  0  0
  186.1380  177.6990  146.2850 C   0  0  1  0  0  3  0  0  0  0  0  0
  187.4720  177.1270  145.9180 C   0  0  2  0  0  3  0  0  0  0  0  0
  187.2550  177.7900  147.1390 O   0  0  0  0  0  0  0  0  0  0  0  0
  188.3650  177.9920  145.0300 C   0  0  0  0  0  2  0  0  0  0  0  0
  188.9810  177.1770  143.9010 C   0  0  0  0  0  0  0  0  0  0  0  0
  188.4500  177.5630  142.5430 C   0  0  0  0  0  2  0  0  0  0  0  0
  188.0640  176.2280  143.1620 C   0  0  0  0  0  2  0  0  0  0  0  0
  190.6880  175.6530  143.2010 O   0  0  0  0  0  1  0  0  0  0  0  0
  190.4630  176.8520  143.8790 C   0  0  0  0  0  2  0  0  0  0  0  0
  1 24  1  0  0  0  0
  2  1  1  1  0  0  0
  4  2  1  6  0  0  0
  4  6  1  0  0  0  0
  5  8  1  0  0  0  0
  5 10  1  0  0  0  0
  6  3  1  6  0  0  0
  7 10  1  6  0  0  0
  7  4  1  0  0  0  0
  7  6  1  0  0  0  0
  8 13  1  1  0  0  0
  8  9  1  0  0  0  0
  9  7  1  0  0  0  0
  9 11  1  1  0  0  0
 13 12  1  6  0  0  0
 14 13  1  0  0  0  0
 15 21  1  0  0  0  0
 16 19  2  0  0  0  0
 17  2  1  1  0  0  0
 18 15  2  0  0  0  0
 18 16  1  0  0  0  0
 19 22  1  0  0  0  0
 20 17  1  0  0  0  0
 21 17  1  0  0  0  0
 21 22  2  0  0  0  0
 23 20  2  0  0  0  0
 23 15  1  0  0  0  0
 25 24  1  0  0  0  0
 26 25  1  0  0  0  0
 27 30  1  0  0  0  0
 28 27  2  0  0  0  0
 29 28  2  0  0  0  0
 29 26  1  0  0  0  0
 30 31  1  0  0  0  0
 31 34  1  0  0  0  0
 32 35  1  0  0  0  0
 32 37  1  0  0  0  0
 33 35  2  0  0  0  0
 34 36  1  0  0  0  0
 34 33  1  0  0  0  0
 36 32  2  0  0  0  0
 38 37  1  6  0  0  0
 38 40  1  0  0  0  0
 39 41  1  6  0  0  0
 39 38  1  0  0  0  0
 39 40  1  0  0  0  0
 42 41  1  0  0  0  0
 43 44  1  0  0  0  0
 43 42  1  0  0  0  0
 44 42  1  0  0  0  0
 45 46  1  0  0  0  0
 46 42  1  0  0  0  0
M  END
>  <MODEL>
1

>  <REMARK>
 VINA RESULT:      -7.1      0.000      0.000
  Name = 
  16 active torsions:
  status: ('A' for Active; 'I' for Inactive)
    1  A    between atoms: C_1  and  C_12
    2  A    between atoms: C_3  and  C_42
    3  A    between atoms: C_6  and  C_41
    4  A    between atoms: C_7  and  C_42
    5  A    between atoms: C_9  and  C_19
    6  A    between atoms: C_9  and  C_26
    7  A    between atoms: C_10  and  C_41
    8  A    between atoms: C_12  and  C_40
    9  A    between atoms: N_15  and  C_21
   10  A    between atoms: N_15  and  C_42
   11  A    between atoms: C_21  and  C_23
   12  A    between atoms: C_23  and  C_31
   13  A    between atoms: C_25  and  C_38
   14  A    between atoms: C_26  and  C_39
   15  A    between atoms: N_27  and  C_40
   16  A    between atoms: C_28  and  C_31
                            x       y       z     vdW  Elec       q    Type
                         _______ _______ _______ _____ _____    ______ ____

>  <TORSDO>
F 16

$$$$
=
 OpenBabel10222417183D

 46 52  0  0  1  0  0  0  0  0999 V2000
  188.5870  176.9840  146.2740 N   0  0  0  0  0  2  0  0  0  0  0  0
  189.1860  176.9620  144.9490 C   0  0  1  0  0  3  0  0  0  0  0  0
  187.2020  175.7620  143.3620 O   0  0  0  0  0  1  0  0  0  0  0  0
  188.4420  177.8340  143.8910 C   0  0  2  0  0  3  0  0  0  0  0  0
  190.1410  177.0790  140.6940 C   0  0  0  0  0  2  0  0  0  0  0  0
  187.2600  177.1460  143.1570 C   0  0  1  0  0  3  0  0  0  0  0  0
  188.5220  177.5130  142.3900 C   0  0  1  0  0  0  0  0  0  0  0  0
  189.2760  178.2490  140.2060 C   0  0  2  0  0  3  0  0  0  0  0  0
  188.4850  178.7090  141.4490 C   0  0  1  0  0  3  0  0  0  0  0  0
  189.3940  176.4090  141.8330 C   0  0  0  0  0  2  0  0  0  0  0  0
  187.1210  179.1310  141.1420 N   0  0  0  0  0  1  0  0  0  0  0  0
  188.9630  176.5630  138.3440 C   0  0  0  0  0  1  0  0  0  0  0  0
  188.4030  177.8100  139.0120 C   0  0  2  0  0  3  0  0  0  0  0  0
  188.3570  178.8280  138.0570 O   0  0  0  0  0  1  0  0  0  0  0  0
  192.1410  175.7060  146.1040 C   0  0  0  0  0  0  0  0  0  0  0  0
  192.7990  175.7990  148.3480 C   0  0  0  0  0  3  0  0  0  0  0  0
  190.7140  177.1380  144.9760 C   0  0  2  0  0  3  0  0  0  0  0  0
  192.8920  175.2120  147.1180 N   0  0  0  0  0  0  0  0  0  0  0  0
  191.9460  176.9090  148.5340 C   0  0  0  0  0  3  0  0  0  0  0  0
  191.3730  176.0810  144.1070 C   0  0  0  0  0  3  0  0  0  0  0  0
  191.3140  176.7650  146.2830 C   0  0  0  0  0  0  0  0  0  0  0  0
  191.2130  177.3880  147.4850 N   0  0  0  0  0  0  0  0  0  0  0  0
  192.1740  175.2850  144.7560 N   0  0  0  0  0  0  0  0  0  0  0  0
  187.9590  178.2860  146.4320 C   0  0  0  0  0  2  0  0  0  0  0  0
  186.4750  178.1350  146.7360 C   0  0  0  0  0  2  0  0  0  0  0  0
  185.6410  179.1520  145.9720 C   0  0  0  0  0  2  0  0  0  0  0  0
  183.1810  178.9160  143.3860 C   0  0  0  0  0  3  0  0  0  0  0  0
  183.7260  178.7480  144.5560 C   0  0  0  0  0  0  0  0  0  0  0  0
  184.2890  178.5860  145.7180 C   0  0  0  0  0  3  0  0  0  0  0  0
  183.8380  178.3450  142.1770 C   0  0  0  0  0  2  0  0  0  0  0  0
  183.1180  178.8110  140.9210 C   0  0  0  0  0  2  0  0  0  0  0  0
  183.8090  176.9320  137.9400 C   0  0  0  0  0  0  0  0  0  0  0  0
  182.8140  176.6130  139.8800 N   0  0  0  0  0  0  0  0  0  0  0  0
  183.2960  177.8450  139.8490 N   0  0  0  0  0  0  0  0  0  0  0  0
  183.1030  176.0210  138.7070 C   0  0  0  0  0  3  0  0  0  0  0  0
  183.8950  178.0970  138.6730 C   0  0  0  0  0  3  0  0  0  0  0  0
  184.2390  176.7700  136.5200 C   0  0  0  0  0  2  0  0  0  0  0  0
  185.7630  176.7180  136.4060 C   0  0  1  0  0  3  0  0  0  0  0  0
  186.3380  175.4180  135.9380 C   0  0  2  0  0  3  0  0  0  0  0  0
  186.1210  176.4960  135.0620 O   0  0  0  0  0  0  0  0  0  0  0  0
  185.3390  174.3060  135.6210 C   0  0  0  0  0  2  0  0  0  0  0  0
  185.6680  173.0300  136.3830 C   0  0  0  0  0  0  0  0  0  0  0  0
  184.4410  172.2280  136.7390 C   0  0  0  0  0  2  0  0  0  0  0  0
  185.2170  172.9580  137.8250 C   0  0  0  0  0  2  0  0  0  0  0  0
  187.7580  172.0690  137.0410 O   0  0  0  0  0  1  0  0  0  0  0  0
  186.8450  172.1560  135.9890 C   0  0  0  0  0  2  0  0  0  0  0  0
  1 24  1  0  0  0  0
  2  1  1  1  0  0  0
  4  2  1  1  0  0  0
  5 10  1  0  0  0  0
  6  3  1  1  0  0  0
  6  4  1  0  0  0  0
  7 10  1  6  0  0  0
  7  6  1  0  0  0  0
  7  4  1  0  0  0  0
  8 13  1  6  0  0  0
  8  5  1  0  0  0  0
  8  9  1  0  0  0  0
  9 11  1  6  0  0  0
  9  7  1  0  0  0  0
 13 12  1  6  0  0  0
 14 13  1  0  0  0  0
 15 21  1  0  0  0  0
 15 18  2  0  0  0  0
 16 19  2  0  0  0  0
 17  2  1  1  0  0  0
 17 21  1  0  0  0  0
 18 16  1  0  0  0  0
 20 23  2  0  0  0  0
 20 17  1  0  0  0  0
 21 22  2  0  0  0  0
 22 19  1  0  0  0  0
 23 15  1  0  0  0  0
 24 25  1  0  0  0  0
 26 25  1  0  0  0  0
 27 28  2  0  0  0  0
 28 29  2  0  0  0  0
 29 26  1  0  0  0  0
 30 27  1  0  0  0  0
 31 30  1  0  0  0  0
 32 36  2  0  0  0  0
 32 35  1  0  0  0  0
 34 33  1  0  0  0  0
 34 31  1  0  0  0  0
 35 33  2  0  0  0  0
 36 34  1  0  0  0  0
 37 32  1  0  0  0  0
 38 37  1  6  0  0  0
 39 41  1  6  0  0  0
 39 38  1  0  0  0  0
 40 39  1  0  0  0  0
 40 38  1  0  0  0  0
 41 42  1  0  0  0  0
 42 43  1  0  0  0  0
 42 44  1  0  0  0  0
 43 44  1  0  0  0  0
 46 42  1  0  0  0  0
 46 45  1  0  0  0  0
M  END
>  <MODEL>
2

>  <REMARK>
 VINA RESULT:      -7.0      4.493      9.023
  Name = 
  16 active torsions:
  status: ('A' for Active; 'I' for Inactive)
    1  A    between atoms: C_1  and  C_12
    2  A    between atoms: C_3  and  C_42
    3  A    between atoms: C_6  and  C_41
    4  A    between atoms: C_7  and  C_42
    5  A    between atoms: C_9  and  C_19
    6  A    between atoms: C_9  and  C_26
    7  A    between atoms: C_10  and  C_41
    8  A    between atoms: C_12  and  C_40
    9  A    between atoms: N_15  and  C_21
   10  A    between atoms: N_15  and  C_42
   11  A    between atoms: C_21  and  C_23
   12  A    between atoms: C_23  and  C_31
   13  A    between atoms: C_25  and  C_38
   14  A    between atoms: C_26  and  C_39
   15  A    between atoms: N_27  and  C_40
   16  A    between atoms: C_28  and  C_31
                            x       y       z     vdW  Elec       q    Type
                         _______ _______ _______ _____ _____    ______ ____

>  <TORSDO>
F 16

$$$$
=
 OpenBabel10222417183D

 46 52  0  0  1  0  0  0  0  0999 V2000
  183.0960  178.6860  142.0530 N   0  0  0  0  0  2  0  0  0  0  0  0
  182.5120  178.4570  140.7410 C   0  0  1  0  0  3  0  0  0  0  0  0
  183.9710  178.7060  138.3530 O   0  0  0  0  0  1  0  0  0  0  0  0
  183.0130  177.1630  140.0290 C   0  0  2  0  0  3  0  0  0  0  0  0
  180.5320  176.5430  137.3570 C   0  0  0  0  0  2  0  0  0  0  0  0
  183.9360  177.3800  138.8010 C   0  0  1  0  0  3  0  0  0  0  0  0
  182.5450  176.7950  138.6130 C   0  0  1  0  0  0  0  0  0  0  0  0
  181.3100  175.2240  137.2390 C   0  0  2  0  0  3  0  0  0  0  0  0
  182.4080  175.3080  138.3190 C   0  0  1  0  0  3  0  0  0  0  0  0
  181.5040  177.5960  137.8600 C   0  0  0  0  0  2  0  0  0  0  0  0
  183.6730  174.7070  137.9040 N   0  0  0  0  0  1  0  0  0  0  0  0
  180.9410  175.7420  134.7890 C   0  0  0  0  0  1  0  0  0  0  0  0
  181.8320  175.0360  135.8000 C   0  0  2  0  0  3  0  0  0  0  0  0
  181.8590  173.6780  135.4770 O   0  0  0  0  0  1  0  0  0  0  0  0
  179.8650  180.0540  142.1880 C   0  0  0  0  0  0  0  0  0  0  0  0
  179.0550  179.5420  144.3230 C   0  0  0  0  0  3  0  0  0  0  0  0
  180.9870  178.6600  140.7170 C   0  0  2  0  0  3  0  0  0  0  0  0
  179.1860  180.4340  143.2980 N   0  0  0  0  0  0  0  0  0  0  0  0
  179.6080  178.2480  144.2040 C   0  0  0  0  0  3  0  0  0  0  0  0
  180.6560  180.0360  140.1660 C   0  0  0  0  0  3  0  0  0  0  0  0
  180.4050  178.8150  142.0770 C   0  0  0  0  0  0  0  0  0  0  0  0
  180.2750  177.8940  143.0660 N   0  0  0  0  0  0  0  0  0  0  0  0
  180.0240  180.8070  141.0040 N   0  0  0  0  0  0  0  0  0  0  0  0
  184.5330  178.8040  141.8610 C   0  0  0  0  0  2  0  0  0  0  0  0
  185.2830  178.2560  143.0670 C   0  0  0  0  0  2  0  0  0  0  0  0
  184.5320  178.5220  144.3620 C   0  0  0  0  0  2  0  0  0  0  0  0
  186.4980  178.3620  147.3460 C   0  0  0  0  0  3  0  0  0  0  0  0
  185.9310  178.8850  146.2970 C   0  0  0  0  0  0  0  0  0  0  0  0
  185.3600  179.3880  145.2420 C   0  0  0  0  0  3  0  0  0  0  0  0
  187.5020  177.2750  147.1770 C   0  0  0  0  0  2  0  0  0  0  0  0
  188.8970  177.8000  147.4820 C   0  0  0  0  0  2  0  0  0  0  0  0
  190.5000  177.8170  144.2690 C   0  0  0  0  0  0  0  0  0  0  0  0
  190.8840  177.0120  146.2840 N   0  0  0  0  0  0  0  0  0  0  0  0
  189.7470  177.6880  146.3080 N   0  0  0  0  0  0  0  0  0  0  0  0
  191.3730  177.0600  145.0310 C   0  0  0  0  0  3  0  0  0  0  0  0
  189.4560  178.1820  145.0930 C   0  0  0  0  0  3  0  0  0  0  0  0
  190.5600  178.0480  142.7950 C   0  0  0  0  0  2  0  0  0  0  0  0
  189.1610  178.0650  142.1800 C   0  0  1  0  0  3  0  0  0  0  0  0
  189.0470  177.4870  140.8040 C   0  0  2  0  0  3  0  0  0  0  0  0
  188.7370  176.7410  141.9550 O   0  0  0  0  0  0  0  0  0  0  0  0
  190.3350  176.9410  140.1860 C   0  0  0  0  0  2  0  0  0  0  0  0
  190.1380  176.5850  138.7180 C   0  0  0  0  0  0  0  0  0  0  0  0
  189.7450  177.7740  137.8760 C   0  0  0  0  0  2  0  0  0  0  0  0
  188.7300  176.6810  138.1740 C   0  0  0  0  0  2  0  0  0  0  0  0
  192.2310  176.3330  137.5870 O   0  0  0  0  0  1  0  0  0  0  0  0
  191.0870  175.6460  137.9980 C   0  0  0  0  0  2  0  0  0  0  0  0
  2  1  1  1  0  0  0
  4  2  1  6  0  0  0
  5 10  1  0  0  0  0
  6  3  1  6  0  0  0
  6  4  1  0  0  0  0
  7 10  1  6  0  0  0
  7  6  1  0  0  0  0
  7  4  1  0  0  0  0
  8 13  1  6  0  0  0
  8  5  1  0  0  0  0
  8  9  1  0  0  0  0
  9 11  1  6  0  0  0
  9  7  1  0  0  0  0
 13 12  1  6  0  0  0
 14 13  1  0  0  0  0
 15 18  2  0  0  0  0
 17  2  1  1  0  0  0
 17 21  1  0  0  0  0
 18 16  1  0  0  0  0
 19 16  2  0  0  0  0
 20 17  1  0  0  0  0
 20 23  2  0  0  0  0
 21 15  1  0  0  0  0
 21 22  2  0  0  0  0
 22 19  1  0  0  0  0
 23 15  1  0  0  0  0
 24  1  1  0  0  0  0
 24 25  1  0  0  0  0
 25 26  1  0  0  0  0
 26 29  1  0  0  0  0
 28 27  2  0  0  0  0
 29 28  2  0  0  0  0
 30 27  1  0  0  0  0
 30 31  1  0  0  0  0
 32 35  1  0  0  0  0
 32 36  2  0  0  0  0
 33 34  1  0  0  0  0
 34 31  1  0  0  0  0
 35 33  2  0  0  0  0
 36 34  1  0  0  0  0
 37 32  1  0  0  0  0
 38 37  1  1  0  0  0
 39 41  1  1  0  0  0
 39 40  1  0  0  0  0
 39 38  1  0  0  0  0
 40 38  1  0  0  0  0
 42 41  1  0  0  0  0
 43 44  1  0  0  0  0
 43 42  1  0  0  0  0
 44 42  1  0  0  0  0
 45 46  1  0  0  0  0
 46 42  1  0  0  0  0
M  END
>  <MODEL>
3

>  <REMARK>
 VINA RESULT:      -7.0      3.837      9.983
  Name = 
  16 active torsions:
  status: ('A' for Active; 'I' for Inactive)
    1  A    between atoms: C_1  and  C_12
    2  A    between atoms: C_3  and  C_42
    3  A    between atoms: C_6  and  C_41
    4  A    between atoms: C_7  and  C_42
    5  A    between atoms: C_9  and  C_19
    6  A    between atoms: C_9  and  C_26
    7  A    between atoms: C_10  and  C_41
    8  A    between atoms: C_12  and  C_40
    9  A    between atoms: N_15  and  C_21
   10  A    between atoms: N_15  and  C_42
   11  A    between atoms: C_21  and  C_23
   12  A    between atoms: C_23  and  C_31
   13  A    between atoms: C_25  and  C_38
   14  A    between atoms: C_26  and  C_39
   15  A    between atoms: N_27  and  C_40
   16  A    between atoms: C_28  and  C_31
                            x       y       z     vdW  Elec       q    Type
                         _______ _______ _______ _____ _____    ______ ____

>  <TORSDO>
F 16

$$$$
=
 OpenBabel10222417183D

 46 52  0  0  1  0  0  0  0  0999 V2000
  188.5410  177.1030  146.2310 N   0  0  0  0  0  2  0  0  0  0  0  0
  189.1230  177.0430  144.8990 C   0  0  1  0  0  3  0  0  0  0  0  0
  187.1240  175.8040  143.3630 O   0  0  0  0  0  1  0  0  0  0  0  0
  188.3670  177.8880  143.8280 C   0  0  2  0  0  3  0  0  0  0  0  0
  190.0350  177.0560  140.6340 C   0  0  0  0  0  2  0  0  0  0  0  0
  187.1790  177.1820  143.1230 C   0  0  1  0  0  3  0  0  0  0  0  0
  188.4320  177.5310  142.3350 C   0  0  1  0  0  0  0  0  0  0  0  0
  189.1640  178.2140  140.1260 C   0  0  2  0  0  3  0  0  0  0  0  0
  188.3850  178.7030  141.3650 C   0  0  1  0  0  3  0  0  0  0  0  0
  189.3000  176.4140  141.7960 C   0  0  0  0  0  2  0  0  0  0  0  0
  187.0180  179.1170  141.0610 N   0  0  0  0  0  1  0  0  0  0  0  0
  188.9050  176.5650  138.2230 C   0  0  0  0  0  1  0  0  0  0  0  0
  188.2790  177.7450  138.9520 C   0  0  2  0  0  3  0  0  0  0  0  0
  188.1190  178.7840  138.0330 O   0  0  0  0  0  1  0  0  0  0  0  0
  192.0950  175.7590  145.9770 C   0  0  0  0  0  0  0  0  0  0  0  0
  192.7930  175.8100  148.2110 C   0  0  0  0  0  3  0  0  0  0  0  0
  190.6510  177.2150  144.9020 C   0  0  2  0  0  3  0  0  0  0  0  0
  192.8630  175.2450  146.9690 N   0  0  0  0  0  0  0  0  0  0  0  0
  191.9460  176.9170  148.4320 C   0  0  0  0  0  3  0  0  0  0  0  0
  191.2920  176.1730  144.0020 C   0  0  0  0  0  3  0  0  0  0  0  0
  191.2740  176.8170  146.1920 C   0  0  0  0  0  0  0  0  0  0  0  0
  191.1960  177.4180  147.4060 N   0  0  0  0  0  0  0  0  0  0  0  0
  192.1020  175.3630  144.6210 N   0  0  0  0  0  0  0  0  0  0  0  0
  187.8030  178.3530  146.3140 C   0  0  0  0  0  2  0  0  0  0  0  0
  186.7010  178.2580  147.3610 C   0  0  0  0  0  2  0  0  0  0  0  0
  185.3220  178.2420  146.7210 C   0  0  0  0  0  2  0  0  0  0  0  0
  183.7150  178.8150  143.5750 C   0  0  0  0  0  3  0  0  0  0  0  0
  184.5050  179.0310  144.5890 C   0  0  0  0  0  0  0  0  0  0  0  0
  185.2840  179.2320  145.6110 C   0  0  0  0  0  3  0  0  0  0  0  0
  182.2430  178.7390  143.7910 C   0  0  0  0  0  2  0  0  0  0  0  0
  181.5100  179.3440  142.6040 C   0  0  0  0  0  2  0  0  0  0  0  0
  181.1330  176.9210  139.9810 C   0  0  0  0  0  0  0  0  0  0  0  0
  179.9440  177.7120  141.6590 N   0  0  0  0  0  0  0  0  0  0  0  0
  181.1270  178.3040  141.6620 N   0  0  0  0  0  0  0  0  0  0  0  0
  179.9070  176.8560  140.6210 C   0  0  0  0  0  3  0  0  0  0  0  0
  181.8840  177.8700  140.6410 C   0  0  0  0  0  3  0  0  0  0  0  0
  181.5190  176.2420  138.7090 C   0  0  0  0  0  2  0  0  0  0  0  0
  182.9820  176.5160  138.3580 C   0  0  1  0  0  3  0  0  0  0  0  0
  183.7200  175.3840  137.7150 C   0  0  2  0  0  3  0  0  0  0  0  0
  183.1490  176.4250  136.9620 O   0  0  0  0  0  0  0  0  0  0  0  0
  182.9260  174.1000  137.4780 C   0  0  0  0  0  2  0  0  0  0  0  0
  183.8400  172.9480  137.0820 C   0  0  0  0  0  0  0  0  0  0  0  0
  185.1670  172.9810  137.8000 C   0  0  0  0  0  2  0  0  0  0  0  0
  185.0950  173.3020  136.3150 C   0  0  0  0  0  2  0  0  0  0  0  0
  182.0610  171.5660  136.2750 O   0  0  0  0  0  1  0  0  0  0  0  0
  183.3060  171.5390  136.9070 C   0  0  0  0  0  2  0  0  0  0  0  0
  1 24  1  0  0  0  0
  2  1  1  1  0  0  0
  4  2  1  1  0  0  0
  5 10  1  0  0  0  0
  6  3  1  1  0  0  0
  6  4  1  0  0  0  0
  7 10  1  6  0  0  0
  7  6  1  0  0  0  0
  7  4  1  0  0  0  0
  8 13  1  6  0  0  0
  8  5  1  0  0  0  0
  8  9  1  0  0  0  0
  9 11  1  6  0  0  0
  9  7  1  0  0  0  0
 13 12  1  6  0  0  0
 14 13  1  0  0  0  0
 15 21  1  0  0  0  0
 15 18  2  0  0  0  0
 16 19  2  0  0  0  0
 17  2  1  1  0  0  0
 17 21  1  0  0  0  0
 18 16  1  0  0  0  0
 20 23  2  0  0  0  0
 20 17  1  0  0  0  0
 21 22  2  0  0  0  0
 22 19  1  0  0  0  0
 23 15  1  0  0  0  0
 24 25  1  0  0  0  0
 26 25  1  0  0  0  0
 27 30  1  0  0  0  0
 27 28  2  0  0  0  0
 28 29  2  0  0  0  0
 29 26  1  0  0  0  0
 31 30  1  0  0  0  0
 32 35  1  0  0  0  0
 32 36  2  0  0  0  0
 33 34  1  0  0  0  0
 34 31  1  0  0  0  0
 35 33  2  0  0  0  0
 36 34  1  0  0  0  0
 37 32  1  0  0  0  0
 38 37  1  6  0  0  0
 39 41  1  6  0  0  0
 39 38  1  0  0  0  0
 40 39  1  0  0  0  0
 40 38  1  0  0  0  0
 42 41  1  0  0  0  0
 42 43  1  0  0  0  0
 44 42  1  0  0  0  0
 44 43  1  0  0  0  0
 45 46  1  0  0  0  0
 46 42  1  0  0  0  0
M  END
>  <MODEL>
4

>  <REMARK>
 VINA RESULT:      -6.9      4.635      9.023
  Name = 
  16 active torsions:
  status: ('A' for Active; 'I' for Inactive)
    1  A    between atoms: C_1  and  C_12
    2  A    between atoms: C_3  and  C_42
    3  A    between atoms: C_6  and  C_41
    4  A    between atoms: C_7  and  C_42
    5  A    between atoms: C_9  and  C_19
    6  A    between atoms: C_9  and  C_26
    7  A    between atoms: C_10  and  C_41
    8  A    between atoms: C_12  and  C_40
    9  A    between atoms: N_15  and  C_21
   10  A    between atoms: N_15  and  C_42
   11  A    between atoms: C_21  and  C_23
   12  A    between atoms: C_23  and  C_31
   13  A    between atoms: C_25  and  C_38
   14  A    between atoms: C_26  and  C_39
   15  A    between atoms: N_27  and  C_40
   16  A    between atoms: C_28  and  C_31
                            x       y       z     vdW  Elec       q    Type
                         _______ _______ _______ _____ _____    ______ ____

>  <TORSDO>
F 16

$$$$
=
 OpenBabel10222417183D

 46 52  0  0  1  0  0  0  0  0999 V2000
  188.0510  177.9310  143.5920 N   0  0  0  0  0  2  0  0  0  0  0  0
  186.6310  178.1070  143.8500 C   0  0  1  0  0  3  0  0  0  0  0  0
  186.0730  180.0770  141.9270 O   0  0  0  0  0  1  0  0  0  0  0  0
  185.7070  177.7420  142.6480 C   0  0  2  0  0  3  0  0  0  0  0  0
  182.3780  179.0460  143.5940 C   0  0  0  0  0  2  0  0  0  0  0  0
  185.5630  178.8290  141.5500 C   0  0  1  0  0  3  0  0  0  0  0  0
  184.3700  178.4620  142.4180 C   0  0  1  0  0  0  0  0  0  0  0  0
  181.9540  178.2590  142.3460 C   0  0  2  0  0  3  0  0  0  0  0  0
  183.2540  177.6220  141.8130 C   0  0  1  0  0  3  0  0  0  0  0  0
  183.8150  179.4890  143.3820 C   0  0  0  0  0  2  0  0  0  0  0  0
  183.3200  177.5810  140.3540 N   0  0  0  0  0  1  0  0  0  0  0  0
  180.2740  180.1310  142.0570 C   0  0  0  0  0  1  0  0  0  0  0  0
  181.2320  179.1870  141.3460 C   0  0  2  0  0  3  0  0  0  0  0  0
  180.4930  178.4250  140.4390 O   0  0  0  0  0  1  0  0  0  0  0  0
  186.8260  178.4290  147.2420 C   0  0  0  0  0  0  0  0  0  0  0  0
  188.7620  177.9750  148.4770 C   0  0  0  0  0  3  0  0  0  0  0  0
  186.1890  177.5290  145.2060 C   0  0  2  0  0  3  0  0  0  0  0  0
  187.5620  178.6180  148.3640 N   0  0  0  0  0  0  0  0  0  0  0  0
  189.2000  177.1210  147.4410 C   0  0  0  0  0  3  0  0  0  0  0  0
  185.1600  178.4420  145.8480 C   0  0  0  0  0  3  0  0  0  0  0  0
  187.2510  177.6170  146.2430 C   0  0  0  0  0  0  0  0  0  0  0  0
  188.4260  176.9440  146.3290 N   0  0  0  0  0  0  0  0  0  0  0  0
  185.5320  178.9390  146.9930 N   0  0  0  0  0  0  0  0  0  0  0  0
  188.1940  176.6950  142.8390 C   0  0  0  0  0  2  0  0  0  0  0  0
  189.6540  176.2660  142.7830 C   0  0  0  0  0  2  0  0  0  0  0  0
  190.4640  177.1590  141.8560 C   0  0  0  0  0  2  0  0  0  0  0  0
  191.3110  176.7860  138.4000 C   0  0  0  0  0  3  0  0  0  0  0  0
  190.5640  176.9810  139.4490 C   0  0  0  0  0  0  0  0  0  0  0  0
  189.8340  177.1690  140.5090 C   0  0  0  0  0  3  0  0  0  0  0  0
  192.0370  175.4950  138.2420 C   0  0  0  0  0  2  0  0  0  0  0  0
  191.9420  175.0150  136.8020 C   0  0  0  0  0  2  0  0  0  0  0  0
  188.6230  174.3080  135.6290 C   0  0  0  0  0  0  0  0  0  0  0  0
  189.9520  173.6620  137.2640 N   0  0  0  0  0  0  0  0  0  0  0  0
  190.5980  174.5410  136.5150 N   0  0  0  0  0  0  0  0  0  0  0  0
  188.7180  173.5020  136.7500 C   0  0  0  0  0  3  0  0  0  0  0  0
  189.8200  174.9830  135.5140 C   0  0  0  0  0  3  0  0  0  0  0  0
  187.4060  174.5550  134.8000 C   0  0  0  0  0  2  0  0  0  0  0  0
  186.1440  174.5720  135.6610 C   0  0  1  0  0  3  0  0  0  0  0  0
  185.6520  175.9250  136.0700 C   0  0  2  0  0  3  0  0  0  0  0  0
  185.1160  175.2380  134.9660 O   0  0  0  0  0  0  0  0  0  0  0  0
  186.4590  177.1230  135.5700 C   0  0  0  0  0  2  0  0  0  0  0  0
  187.2130  177.7970  136.7080 C   0  0  0  0  0  0  0  0  0  0  0  0
  187.2520  176.9580  137.9620 C   0  0  0  0  0  2  0  0  0  0  0  0
  186.4010  178.2180  137.9130 C   0  0  0  0  0  2  0  0  0  0  0  0
  188.7840  179.4050  137.5280 O   0  0  0  0  0  1  0  0  0  0  0  0
  188.5110  178.5440  136.4640 C   0  0  0  0  0  2  0  0  0  0  0  0
  2  1  1  6  0  0  0
  4  2  1  1  0  0  0
  6  3  1  1  0  0  0
  6  7  1  0  0  0  0
  6  4  1  0  0  0  0
  7  4  1  0  0  0  0
  7 10  1  1  0  0  0
  8 13  1  6  0  0  0
  8  5  1  0  0  0  0
  9 11  1  6  0  0  0
  9  8  1  0  0  0  0
  9  7  1  0  0  0  0
 10  5  1  0  0  0  0
 13 12  1  1  0  0  0
 14 13  1  0  0  0  0
 15 18  2  0  0  0  0
 17  2  1  6  0  0  0
 17 20  1  0  0  0  0
 17 21  1  0  0  0  0
 18 16  1  0  0  0  0
 19 16  2  0  0  0  0
 20 23  2  0  0  0  0
 21 22  2  0  0  0  0
 21 15  1  0  0  0  0
 22 19  1  0  0  0  0
 23 15  1  0  0  0  0
 24  1  1  0  0  0  0
 25 24  1  0  0  0  0
 26 25  1  0  0  0  0
 27 28  2  0  0  0  0
 28 29  2  0  0  0  0
 29 26  1  0  0  0  0
 30 27  1  0  0  0  0
 31 30  1  0  0  0  0
 32 35  1  0  0  0  0
 34 31  1  0  0  0  0
 34 33  1  0  0  0  0
 35 33  2  0  0  0  0
 36 32  2  0  0  0  0
 36 34  1  0  0  0  0
 37 32  1  0  0  0  0
 38 37  1  6  0  0  0
 38 39  1  0  0  0  0
 39 41  1  6  0  0  0
 40 38  1  0  0  0  0
 40 39  1  0  0  0  0
 41 42  1  0  0  0  0
 42 44  1  0  0  0  0
 42 43  1  0  0  0  0
 44 43  1  0  0  0  0
 46 42  1  0  0  0  0
 46 45  1  0  0  0  0
M  END
>  <MODEL>
5

>  <REMARK>
 VINA RESULT:      -6.6      3.201     11.023
  Name = 
  16 active torsions:
  status: ('A' for Active; 'I' for Inactive)
    1  A    between atoms: C_1  and  C_12
    2  A    between atoms: C_3  and  C_42
    3  A    between atoms: C_6  and  C_41
    4  A    between atoms: C_7  and  C_42
    5  A    between atoms: C_9  and  C_19
    6  A    between atoms: C_9  and  C_26
    7  A    between atoms: C_10  and  C_41
    8  A    between atoms: C_12  and  C_40
    9  A    between atoms: N_15  and  C_21
   10  A    between atoms: N_15  and  C_42
   11  A    between atoms: C_21  and  C_23
   12  A    between atoms: C_23  and  C_31
   13  A    between atoms: C_25  and  C_38
   14  A    between atoms: C_26  and  C_39
   15  A    between atoms: N_27  and  C_40
   16  A    between atoms: C_28  and  C_31
                            x       y       z     vdW  Elec       q    Type
                         _______ _______ _______ _____ _____    ______ ____

>  <TORSDO>
F 16

$$$$
=
 OpenBabel10222417183D

 46 52  0  0  1  0  0  0  0  0999 V2000
  187.9560  177.9600  143.6430 N   0  0  0  0  0  2  0  0  0  0  0  0
  186.5610  178.1850  143.9850 C   0  0  1  0  0  3  0  0  0  0  0  0
  185.8850  180.2420  142.1950 O   0  0  0  0  0  1  0  0  0  0  0  0
  185.5570  177.8770  142.8320 C   0  0  2  0  0  3  0  0  0  0  0  0
  182.3060  179.1420  144.0580 C   0  0  0  0  0  2  0  0  0  0  0  0
  185.3450  179.0130  141.7970 C   0  0  1  0  0  3  0  0  0  0  0  0
  184.2110  178.6090  142.7250 C   0  0  1  0  0  0  0  0  0  0  0  0
  181.7950  178.4150  142.8060 C   0  0  2  0  0  3  0  0  0  0  0  0
  183.0530  177.7990  142.1580 C   0  0  1  0  0  3  0  0  0  0  0  0
  183.7270  179.5920  143.7700 C   0  0  0  0  0  2  0  0  0  0  0  0
  183.0210  177.8250  140.6990 N   0  0  0  0  0  1  0  0  0  0  0  0
  180.0100  180.2070  142.7010 C   0  0  0  0  0  1  0  0  0  0  0  0
  181.0130  179.3880  141.9010 C   0  0  2  0  0  3  0  0  0  0  0  0
  180.3080  178.6730  140.9300 O   0  0  0  0  0  1  0  0  0  0  0  0
  186.8780  178.4990  147.3690 C   0  0  0  0  0  0  0  0  0  0  0  0
  188.8620  178.0590  148.5290 C   0  0  0  0  0  3  0  0  0  0  0  0
  186.1750  177.5990  145.3550 C   0  0  2  0  0  3  0  0  0  0  0  0
  187.6530  178.6910  148.4630 N   0  0  0  0  0  0  0  0  0  0  0  0
  189.2700  177.2120  147.4760 C   0  0  0  0  0  3  0  0  0  0  0  0
  185.1620  178.5010  146.0370 C   0  0  0  0  0  3  0  0  0  0  0  0
  187.2730  177.6940  146.3520 C   0  0  0  0  0  0  0  0  0  0  0  0
  188.4570  177.0310  146.3930 N   0  0  0  0  0  0  0  0  0  0  0  0
  185.5710  178.9980  147.1690 N   0  0  0  0  0  0  0  0  0  0  0  0
  188.0200  176.6890  142.9390 C   0  0  0  0  0  2  0  0  0  0  0  0
  189.4080  176.0760  143.0600 C   0  0  0  0  0  2  0  0  0  0  0  0
  190.4660  177.1360  143.3290 C   0  0  0  0  0  2  0  0  0  0  0  0
  190.3100  177.1330  139.7540 C   0  0  0  0  0  3  0  0  0  0  0  0
  190.8390  177.1970  140.9430 C   0  0  0  0  0  0  0  0  0  0  0  0
  191.3490  177.2620  142.1380 C   0  0  0  0  0  3  0  0  0  0  0  0
  189.3100  178.1550  139.3370 C   0  0  0  0  0  2  0  0  0  0  0  0
  189.3140  178.3030  137.8240 C   0  0  0  0  0  2  0  0  0  0  0  0
  185.8810  177.5240  137.1150 C   0  0  0  0  0  0  0  0  0  0  0  0
  187.7680  177.7620  136.0010 N   0  0  0  0  0  0  0  0  0  0  0  0
  187.9990  177.9990  137.2820 N   0  0  0  0  0  0  0  0  0  0  0  0
  186.4650  177.4520  135.8620 C   0  0  0  0  0  3  0  0  0  0  0  0
  186.8810  177.8440  138.0090 C   0  0  0  0  0  3  0  0  0  0  0  0
  184.4830  177.1480  137.4780 C   0  0  0  0  0  2  0  0  0  0  0  0
  183.6280  176.9250  136.2300 C   0  0  1  0  0  3  0  0  0  0  0  0
  183.0420  175.5560  136.0770 C   0  0  2  0  0  3  0  0  0  0  0  0
  182.3080  176.6270  136.6180 O   0  0  0  0  0  0  0  0  0  0  0  0
  183.3560  174.5530  137.1870 C   0  0  0  0  0  2  0  0  0  0  0  0
  184.1120  173.3470  136.6460 C   0  0  0  0  0  0  0  0  0  0  0  0
  185.1430  172.8200  137.6140 C   0  0  0  0  0  2  0  0  0  0  0  0
  185.5820  173.5370  136.3470 C   0  0  0  0  0  2  0  0  0  0  0  0
  182.0240  172.2980  136.1300 O   0  0  0  0  0  1  0  0  0  0  0  0
  183.3980  172.2400  135.8930 C   0  0  0  0  0  2  0  0  0  0  0  0
  2  1  1  6  0  0  0
  4  2  1  1  0  0  0
  6  3  1  1  0  0  0
  6  7  1  0  0  0  0
  6  4  1  0  0  0  0
  7  4  1  0  0  0  0
  7 10  1  1  0  0  0
  8 13  1  6  0  0  0
  8  5  1  0  0  0  0
  9 11  1  6  0  0  0
  9  7  1  0  0  0  0
  9  8  1  0  0  0  0
 10  5  1  0  0  0  0
 13 12  1  1  0  0  0
 14 13  1  0  0  0  0
 15 18  2  0  0  0  0
 17  2  1  6  0  0  0
 17 20  1  0  0  0  0
 17 21  1  0  0  0  0
 18 16  1  0  0  0  0
 19 16  2  0  0  0  0
 20 23  2  0  0  0  0
 21 22  2  0  0  0  0
 21 15  1  0  0  0  0
 22 19  1  0  0  0  0
 23 15  1  0  0  0  0
 24 25  1  0  0  0  0
 24  1  1  0  0  0  0
 25 26  1  0  0  0  0
 27 28  2  0  0  0  0
 28 29  2  0  0  0  0
 29 26  1  0  0  0  0
 30 27  1  0  0  0  0
 31 30  1  0  0  0  0
 32 37  1  0  0  0  0
 32 36  2  0  0  0  0
 33 34  1  0  0  0  0
 34 31  1  0  0  0  0
 34 36  1  0  0  0  0
 35 33  2  0  0  0  0
 35 32  1  0  0  0  0
 38 40  1  0  0  0  0
 38 37  1  1  0  0  0
 39 38  1  0  0  0  0
 39 40  1  0  0  0  0
 39 41  1  1  0  0  0
 42 41  1  0  0  0  0
 42 43  1  0  0  0  0
 44 42  1  0  0  0  0
 44 43  1  0  0  0  0
 46 45  1  0  0  0  0
 46 42  1  0  0  0  0
M  END
>  <MODEL>
6

>  <REMARK>
 VINA RESULT:      -6.6      4.696     11.039
  Name = 
  16 active torsions:
  status: ('A' for Active; 'I' for Inactive)
    1  A    between atoms: C_1  and  C_12
    2  A    between atoms: C_3  and  C_42
    3  A    between atoms: C_6  and  C_41
    4  A    between atoms: C_7  and  C_42
    5  A    between atoms: C_9  and  C_19
    6  A    between atoms: C_9  and  C_26
    7  A    between atoms: C_10  and  C_41
    8  A    between atoms: C_12  and  C_40
    9  A    between atoms: N_15  and  C_21
   10  A    between atoms: N_15  and  C_42
   11  A    between atoms: C_21  and  C_23
   12  A    between atoms: C_23  and  C_31
   13  A    between atoms: C_25  and  C_38
   14  A    between atoms: C_26  and  C_39
   15  A    between atoms: N_27  and  C_40
   16  A    between atoms: C_28  and  C_31
                            x       y       z     vdW  Elec       q    Type
                         _______ _______ _______ _____ _____    ______ ____

>  <TORSDO>
F 16

$$$$
=
 OpenBabel10222417183D

 46 52  0  0  1  0  0  0  0  0999 V2000
  188.0070  177.9890  143.6230 N   0  0  0  0  0  2  0  0  0  0  0  0
  186.6060  178.1590  143.9750 C   0  0  1  0  0  3  0  0  0  0  0  0
  185.9470  180.1410  142.0960 O   0  0  0  0  0  1  0  0  0  0  0  0
  185.6070  177.8060  142.8300 C   0  0  2  0  0  3  0  0  0  0  0  0
  182.3540  179.1340  143.9840 C   0  0  0  0  0  2  0  0  0  0  0  0
  185.4050  178.8980  141.7470 C   0  0  1  0  0  3  0  0  0  0  0  0
  184.2640  178.5380  142.6860 C   0  0  1  0  0  0  0  0  0  0  0  0
  181.8470  178.3550  142.7620 C   0  0  2  0  0  3  0  0  0  0  0  0
  183.1060  177.7090  142.1470 C   0  0  1  0  0  3  0  0  0  0  0  0
  183.7790  179.5650  143.6850 C   0  0  0  0  0  2  0  0  0  0  0  0
  183.0820  177.6730  140.6880 N   0  0  0  0  0  1  0  0  0  0  0  0
  180.1350  180.2110  142.5800 C   0  0  0  0  0  1  0  0  0  0  0  0
  181.0730  179.2930  141.8120 C   0  0  2  0  0  3  0  0  0  0  0  0
  180.3050  178.5390  140.9220 O   0  0  0  0  0  1  0  0  0  0  0  0
  187.0150  178.4450  147.3510 C   0  0  0  0  0  0  0  0  0  0  0  0
  189.0270  177.9850  148.4550 C   0  0  0  0  0  3  0  0  0  0  0  0
  186.2540  177.5640  145.3500 C   0  0  2  0  0  3  0  0  0  0  0  0
  187.8210  178.6240  148.4260 N   0  0  0  0  0  0  0  0  0  0  0  0
  189.4020  177.1450  147.3840 C   0  0  0  0  0  3  0  0  0  0  0  0
  185.2640  178.4660  146.0660 C   0  0  0  0  0  3  0  0  0  0  0  0
  187.3790  177.6450  146.3180 C   0  0  0  0  0  0  0  0  0  0  0  0
  188.5600  176.9760  146.3220 N   0  0  0  0  0  0  0  0  0  0  0  0
  185.7060  178.9520  147.1910 N   0  0  0  0  0  0  0  0  0  0  0  0
  188.1160  176.7180  142.9260 C   0  0  0  0  0  2  0  0  0  0  0  0
  189.5490  176.2050  142.9660 C   0  0  0  0  0  2  0  0  0  0  0  0
  190.5420  177.3340  143.1970 C   0  0  0  0  0  2  0  0  0  0  0  0
  190.4120  177.2940  139.6220 C   0  0  0  0  0  3  0  0  0  0  0  0
  190.9320  177.3750  140.8140 C   0  0  0  0  0  0  0  0  0  0  0  0
  191.4310  177.4570  142.0120 C   0  0  0  0  0  3  0  0  0  0  0  0
  189.4040  178.3010  139.1880 C   0  0  0  0  0  2  0  0  0  0  0  0
  189.0500  178.0890  137.7240 C   0  0  0  0  0  2  0  0  0  0  0  0
  185.8140  176.7020  137.0170 C   0  0  0  0  0  0  0  0  0  0  0  0
  186.6490  178.4660  138.0400 N   0  0  0  0  0  0  0  0  0  0  0  0
  187.6480  177.7240  137.5910 N   0  0  0  0  0  0  0  0  0  0  0  0
  185.4950  177.8680  137.6910 C   0  0  0  0  0  3  0  0  0  0  0  0
  187.1900  176.6440  136.9380 C   0  0  0  0  0  3  0  0  0  0  0  0
  184.8680  175.7690  136.3350 C   0  0  0  0  0  2  0  0  0  0  0  0
  184.4710  174.6140  137.2550 C   0  0  1  0  0  3  0  0  0  0  0  0
  183.0560  174.6260  137.7420 C   0  0  2  0  0  3  0  0  0  0  0  0
  183.4580  173.8560  136.6370 O   0  0  0  0  0  0  0  0  0  0  0  0
  182.1780  175.7790  137.2570 C   0  0  0  0  0  2  0  0  0  0  0  0
  180.7260  175.5830  137.6710 C   0  0  0  0  0  0  0  0  0  0  0  0
  180.5660  175.3600  139.1550 C   0  0  0  0  0  2  0  0  0  0  0  0
  180.3390  174.2130  138.1820 C   0  0  0  0  0  2  0  0  0  0  0  0
  179.2610  177.4500  137.9720 O   0  0  0  0  0  1  0  0  0  0  0  0
  179.6150  176.4330  137.0840 C   0  0  0  0  0  2  0  0  0  0  0  0
  2  1  1  6  0  0  0
  4  2  1  1  0  0  0
  6  3  1  1  0  0  0
  6  7  1  0  0  0  0
  6  4  1  0  0  0  0
  7  4  1  0  0  0  0
  7 10  1  1  0  0  0
  8 13  1  6  0  0  0
  8  5  1  0  0  0  0
  9 11  1  6  0  0  0
  9  7  1  0  0  0  0
  9  8  1  0  0  0  0
 10  5  1  0  0  0  0
 13 12  1  1  0  0  0
 14 13  1  0  0  0  0
 15 18  2  0  0  0  0
 17  2  1  6  0  0  0
 17 20  1  0  0  0  0
 17 21  1  0  0  0  0
 18 16  1  0  0  0  0
 19 16  2  0  0  0  0
 20 23  2  0  0  0  0
 21 22  2  0  0  0  0
 21 15  1  0  0  0  0
 22 19  1  0  0  0  0
 23 15  1  0  0  0  0
 24 25  1  0  0  0  0
 24  1  1  0  0  0  0
 25 26  1  0  0  0  0
 27 28  2  0  0  0  0
 28 29  2  0  0  0  0
 29 26  1  0  0  0  0
 30 27  1  0  0  0  0
 31 30  1  0  0  0  0
 32 35  1  0  0  0  0
 34 31  1  0  0  0  0
 34 33  1  0  0  0  0
 35 33  2  0  0  0  0
 36 32  2  0  0  0  0
 36 34  1  0  0  0  0
 37 32  1  0  0  0  0
 38 37  1  6  0  0  0
 38 39  1  0  0  0  0
 39 41  1  6  0  0  0
 40 38  1  0  0  0  0
 40 39  1  0  0  0  0
 41 42  1  0  0  0  0
 42 44  1  0  0  0  0
 42 43  1  0  0  0  0
 44 43  1  0  0  0  0
 46 42  1  0  0  0  0
 46 45  1  0  0  0  0
M  END
>  <MODEL>
7

>  <REMARK>
 VINA RESULT:      -6.5      4.672     11.050
  Name = 
  16 active torsions:
  status: ('A' for Active; 'I' for Inactive)
    1  A    between atoms: C_1  and  C_12
    2  A    between atoms: C_3  and  C_42
    3  A    between atoms: C_6  and  C_41
    4  A    between atoms: C_7  and  C_42
    5  A    between atoms: C_9  and  C_19
    6  A    between atoms: C_9  and  C_26
    7  A    between atoms: C_10  and  C_41
    8  A    between atoms: C_12  and  C_40
    9  A    between atoms: N_15  and  C_21
   10  A    between atoms: N_15  and  C_42
   11  A    between atoms: C_21  and  C_23
   12  A    between atoms: C_23  and  C_31
   13  A    between atoms: C_25  and  C_38
   14  A    between atoms: C_26  and  C_39
   15  A    between atoms: N_27  and  C_40
   16  A    between atoms: C_28  and  C_31
                            x       y       z     vdW  Elec       q    Type
                         _______ _______ _______ _____ _____    ______ ____

>  <TORSDO>
F 16

$$$$
=
 OpenBabel10222417183D

 46 52  0  0  1  0  0  0  0  0999 V2000
  183.8970  179.3540  139.5950 N   0  0  0  0  0  2  0  0  0  0  0  0
  183.2100  178.6370  138.5320 C   0  0  1  0  0  3  0  0  0  0  0  0
  185.2420  177.7870  136.7880 O   0  0  0  0  0  1  0  0  0  0  0  0
  183.5490  177.1160  138.4580 C   0  0  2  0  0  3  0  0  0  0  0  0
  181.7520  175.9020  135.4630 C   0  0  0  0  0  2  0  0  0  0  0  0
  184.7770  176.7370  137.5890 C   0  0  1  0  0  3  0  0  0  0  0  0
  183.3800  176.3210  137.1550 C   0  0  1  0  0  0  0  0  0  0  0  0
  182.1920  174.5390  136.0160 C   0  0  2  0  0  3  0  0  0  0  0  0
  182.9680  174.8630  137.3100 C   0  0  1  0  0  3  0  0  0  0  0  0
  182.7880  176.9220  135.8980 C   0  0  0  0  0  2  0  0  0  0  0  0
  184.1130  173.9850  137.5310 N   0  0  0  0  0  1  0  0  0  0  0  0
  182.8680  172.2610  135.1430 C   0  0  0  0  0  1  0  0  0  0  0  0
  183.0010  173.7650  134.9550 C   0  0  2  0  0  3  0  0  0  0  0  0
  184.3550  174.0940  135.0560 O   0  0  0  0  0  1  0  0  0  0  0  0
  180.5880  180.1840  140.0740 C   0  0  0  0  0  0  0  0  0  0  0  0
  179.5820  179.3850  142.0300 C   0  0  0  0  0  3  0  0  0  0  0  0
  181.7110  178.9720  138.4510 C   0  0  2  0  0  3  0  0  0  0  0  0
  179.8570  180.4250  141.1890 N   0  0  0  0  0  0  0  0  0  0  0  0
  180.0450  178.0880  141.7180 C   0  0  0  0  0  3  0  0  0  0  0  0
  181.5260  180.4450  138.1330 C   0  0  0  0  0  3  0  0  0  0  0  0
  181.0410  178.9400  139.7780 C   0  0  0  0  0  0  0  0  0  0  0  0
  180.7690  177.8790  140.5780 N   0  0  0  0  0  0  0  0  0  0  0  0
  180.8920  181.1120  139.0540 N   0  0  0  0  0  0  0  0  0  0  0  0
  184.2220  178.3780  140.6230 C   0  0  0  0  0  2  0  0  0  0  0  0
  184.8380  179.0600  141.8360 C   0  0  0  0  0  2  0  0  0  0  0  0
  184.0630  178.7480  143.1070 C   0  0  0  0  0  2  0  0  0  0  0  0
  185.2730  178.4540  146.4610 C   0  0  0  0  0  3  0  0  0  0  0  0
  184.9300  179.0290  145.3440 C   0  0  0  0  0  0  0  0  0  0  0  0
  184.5860  179.5850  144.2200 C   0  0  0  0  0  3  0  0  0  0  0  0
  186.3740  177.4510  146.4660 C   0  0  0  0  0  2  0  0  0  0  0  0
  187.6020  178.0270  147.1530 C   0  0  0  0  0  2  0  0  0  0  0  0
  190.1910  176.8680  144.9520 C   0  0  0  0  0  0  0  0  0  0  0  0
  189.9810  177.4410  147.0690 N   0  0  0  0  0  0  0  0  0  0  0  0
  188.8120  177.6000  146.4690 N   0  0  0  0  0  0  0  0  0  0  0  0
  190.8580  176.9760  146.1600 C   0  0  0  0  0  3  0  0  0  0  0  0
  188.8830  177.2410  145.1770 C   0  0  0  0  0  3  0  0  0  0  0  0
  190.7190  176.2830  143.6840 C   0  0  0  0  0  2  0  0  0  0  0  0
  191.6660  177.2550  142.9790 C   0  0  1  0  0  3  0  0  0  0  0  0
  191.4300  177.4460  141.5130 C   0  0  2  0  0  3  0  0  0  0  0  0
  190.9240  178.3410  142.4730 O   0  0  0  0  0  0  0  0  0  0  0  0
  190.2710  176.6590  140.9010 C   0  0  0  0  0  2  0  0  0  0  0  0
  189.4840  177.5100  139.9130 C   0  0  0  0  0  0  0  0  0  0  0  0
  189.1470  176.7690  138.6430 C   0  0  0  0  0  2  0  0  0  0  0  0
  190.1810  177.8840  138.6240 C   0  0  0  0  0  2  0  0  0  0  0  0
  187.4490  178.6300  139.3390 O   0  0  0  0  0  1  0  0  0  0  0  0
  188.3620  178.4220  140.3740 C   0  0  0  0  0  2  0  0  0  0  0  0
  1 24  1  0  0  0  0
  2  1  1  1  0  0  0
  4  2  1  6  0  0  0
  5 10  1  0  0  0  0
  5  8  1  0  0  0  0
  6  3  1  6  0  0  0
  6  4  1  0  0  0  0
  7 10  1  6  0  0  0
  7  9  1  0  0  0  0
  7  6  1  0  0  0  0
  7  4  1  0  0  0  0
  8 13  1  6  0  0  0
  8  9  1  0  0  0  0
  9 11  1  6  0  0  0
 13 14  1  0  0  0  0
 13 12  1  1  0  0  0
 15 18  2  0  0  0  0
 17  2  1  1  0  0  0
 17 21  1  0  0  0  0
 18 16  1  0  0  0  0
 19 16  2  0  0  0  0
 20 17  1  0  0  0  0
 20 23  2  0  0  0  0
 21 15  1  0  0  0  0
 21 22  2  0  0  0  0
 22 19  1  0  0  0  0
 23 15  1  0  0  0  0
 24 25  1  0  0  0  0
 25 26  1  0  0  0  0
 26 29  1  0  0  0  0
 27 30  1  0  0  0  0
 28 27  2  0  0  0  0
 29 28  2  0  0  0  0
 30 31  1  0  0  0  0
 32 36  2  0  0  0  0
 32 35  1  0  0  0  0
 34 33  1  0  0  0  0
 34 31  1  0  0  0  0
 35 33  2  0  0  0  0
 36 34  1  0  0  0  0
 37 32  1  0  0  0  0
 38 37  1  1  0  0  0
 39 41  1  1  0  0  0
 39 40  1  0  0  0  0
 39 38  1  0  0  0  0
 40 38  1  0  0  0  0
 42 46  1  0  0  0  0
 42 41  1  0  0  0  0
 43 42  1  0  0  0  0
 44 43  1  0  0  0  0
 44 42  1  0  0  0  0
 45 46  1  0  0  0  0
M  END
>  <MODEL>
8

>  <REMARK>
 VINA RESULT:      -6.5      4.593      9.004
  Name = 
  16 active torsions:
  status: ('A' for Active; 'I' for Inactive)
    1  A    between atoms: C_1  and  C_12
    2  A    between atoms: C_3  and  C_42
    3  A    between atoms: C_6  and  C_41
    4  A    between atoms: C_7  and  C_42
    5  A    between atoms: C_9  and  C_19
    6  A    between atoms: C_9  and  C_26
    7  A    between atoms: C_10  and  C_41
    8  A    between atoms: C_12  and  C_40
    9  A    between atoms: N_15  and  C_21
   10  A    between atoms: N_15  and  C_42
   11  A    between atoms: C_21  and  C_23
   12  A    between atoms: C_23  and  C_31
   13  A    between atoms: C_25  and  C_38
   14  A    between atoms: C_26  and  C_39
   15  A    between atoms: N_27  and  C_40
   16  A    between atoms: C_28  and  C_31
                            x       y       z     vdW  Elec       q    Type
                         _______ _______ _______ _____ _____    ______ ____

>  <TORSDO>
F 16

$$$$
=
 OpenBabel10222417183D

 46 52  0  0  1  0  0  0  0  0999 V2000
  182.7370  178.9950  140.8680 N   0  0  0  0  0  2  0  0  0  0  0  0
  181.8380  178.5080  139.8340 C   0  0  1  0  0  3  0  0  0  0  0  0
  183.0830  178.1960  137.3350 O   0  0  0  0  0  1  0  0  0  0  0  0
  182.1570  177.0670  139.3290 C   0  0  2  0  0  3  0  0  0  0  0  0
  179.3920  176.2540  137.0110 C   0  0  0  0  0  2  0  0  0  0  0  0
  182.9760  176.9770  138.0140 C   0  0  1  0  0  3  0  0  0  0  0  0
  181.5280  176.5130  138.0420 C   0  0  1  0  0  0  0  0  0  0  0  0
  180.0390  174.8630  137.0710 C   0  0  2  0  0  3  0  0  0  0  0  0
  181.2370  175.0180  138.0310 C   0  0  1  0  0  3  0  0  0  0  0  0
  180.4940  177.2740  137.2400 C   0  0  0  0  0  2  0  0  0  0  0  0
  182.4000  174.2300  137.6330 N   0  0  0  0  0  1  0  0  0  0  0  0
  179.5510  175.0620  134.5950 C   0  0  0  0  0  1  0  0  0  0  0  0
  180.4060  174.3800  135.6530 C   0  0  2  0  0  3  0  0  0  0  0  0
  180.1990  173.0020  135.5510 O   0  0  0  0  0  1  0  0  0  0  0  0
  179.6480  180.1280  141.8910 C   0  0  0  0  0  0  0  0  0  0  0  0
  179.2960  179.5390  144.1280 C   0  0  0  0  0  3  0  0  0  0  0  0
  180.3560  178.7700  140.1530 C   0  0  2  0  0  3  0  0  0  0  0  0
  179.2450  180.4760  143.1360 N   0  0  0  0  0  0  0  0  0  0  0  0
  179.7470  178.2330  143.8370 C   0  0  0  0  0  3  0  0  0  0  0  0
  179.9800  180.1840  139.7450 C   0  0  0  0  0  3  0  0  0  0  0  0
  180.0910  178.8770  141.6120 C   0  0  0  0  0  0  0  0  0  0  0  0
  180.1340  177.9130  142.5660 N   0  0  0  0  0  0  0  0  0  0  0  0
  179.5830  180.9340  140.7320 N   0  0  0  0  0  0  0  0  0  0  0  0
  183.4620  177.8420  141.3760 C   0  0  0  0  0  2  0  0  0  0  0  0
  184.4220  178.2550  142.4830 C   0  0  0  0  0  2  0  0  0  0  0  0
  183.6930  178.9300  143.6330 C   0  0  0  0  0  2  0  0  0  0  0  0
  186.3030  177.9840  145.8900 C   0  0  0  0  0  3  0  0  0  0  0  0
  185.4980  178.7680  145.2310 C   0  0  0  0  0  0  0  0  0  0  0  0
  184.6880  179.5330  144.5600 C   0  0  0  0  0  3  0  0  0  0  0  0
  187.2590  177.1170  145.1490 C   0  0  0  0  0  2  0  0  0  0  0  0
  188.6000  177.8200  145.0060 C   0  0  0  0  0  2  0  0  0  0  0  0
  189.0280  177.6870  141.4430 C   0  0  0  0  0  0  0  0  0  0  0  0
  190.2970  177.8420  143.2380 N   0  0  0  0  0  0  0  0  0  0  0  0
  189.0300  177.8110  143.6170 N   0  0  0  0  0  0  0  0  0  0  0  0
  190.3350  177.7540  141.8950 C   0  0  0  0  0  3  0  0  0  0  0  0
  188.2140  177.6940  142.5560 C   0  0  0  0  0  3  0  0  0  0  0  0
  188.5730  177.4600  140.0390 C   0  0  0  0  0  2  0  0  0  0  0  0
  189.5380  178.0930  139.0360 C   0  0  1  0  0  3  0  0  0  0  0  0
  188.9850  178.3400  137.6670 C   0  0  2  0  0  3  0  0  0  0  0  0
  189.0400  179.3510  138.6430 O   0  0  0  0  0  0  0  0  0  0  0  0
  187.5270  177.9410  137.4390 C   0  0  0  0  0  2  0  0  0  0  0  0
  187.3950  176.9580  136.2840 C   0  0  0  0  0  0  0  0  0  0  0  0
  187.9730  177.4890  134.9950 C   0  0  0  0  0  2  0  0  0  0  0  0
  186.4670  177.3480  135.1560 C   0  0  0  0  0  2  0  0  0  0  0  0
  186.4930  174.8290  136.9010 O   0  0  0  0  0  1  0  0  0  0  0  0
  187.6550  175.4750  136.4750 C   0  0  0  0  0  2  0  0  0  0  0  0
  1 24  1  0  0  0  0
  2  1  1  1  0  0  0
  4  2  1  6  0  0  0
  5  8  1  0  0  0  0
  5 10  1  0  0  0  0
  6  3  1  6  0  0  0
  6  7  1  0  0  0  0
  6  4  1  0  0  0  0
  7 10  1  6  0  0  0
  7  4  1  0  0  0  0
  8 13  1  6  0  0  0
  8  9  1  0  0  0  0
  9 11  1  6  0  0  0
  9  7  1  0  0  0  0
 13 12  1  6  0  0  0
 14 13  1  0  0  0  0
 15 18  2  0  0  0  0
 17  2  1  1  0  0  0
 17 21  1  0  0  0  0
 18 16  1  0  0  0  0
 19 16  2  0  0  0  0
 20 17  1  0  0  0  0
 20 23  2  0  0  0  0
 21 15  1  0  0  0  0
 21 22  2  0  0  0  0
 22 19  1  0  0  0  0
 23 15  1  0  0  0  0
 24 25  1  0  0  0  0
 25 26  1  0  0  0  0
 26 29  1  0  0  0  0
 28 27  2  0  0  0  0
 29 28  2  0  0  0  0
 30 27  1  0  0  0  0
 31 30  1  0  0  0  0
 32 35  1  0  0  0  0
 32 36  2  0  0  0  0
 33 34  1  0  0  0  0
 34 31  1  0  0  0  0
 35 33  2  0  0  0  0
 36 34  1  0  0  0  0
 37 32  1  0  0  0  0
 38 37  1  1  0  0  0
 39 41  1  1  0  0  0
 39 40  1  0  0  0  0
 39 38  1  0  0  0  0
 40 38  1  0  0  0  0
 42 46  1  0  0  0  0
 42 41  1  0  0  0  0
 43 44  1  0  0  0  0
 43 42  1  0  0  0  0
 44 42  1  0  0  0  0
 46 45  1  0  0  0  0
M  END
>  <MODEL>
9

>  <REMARK>
 VINA RESULT:      -6.4      4.766     10.576
  Name = 
  16 active torsions:
  status: ('A' for Active; 'I' for Inactive)
    1  A    between atoms: C_1  and  C_12
    2  A    between atoms: C_3  and  C_42
    3  A    between atoms: C_6  and  C_41
    4  A    between atoms: C_7  and  C_42
    5  A    between atoms: C_9  and  C_19
    6  A    between atoms: C_9  and  C_26
    7  A    between atoms: C_10  and  C_41
    8  A    between atoms: C_12  and  C_40
    9  A    between atoms: N_15  and  C_21
   10  A    between atoms: N_15  and  C_42
   11  A    between atoms: C_21  and  C_23
   12  A    between atoms: C_23  and  C_31
   13  A    between atoms: C_25  and  C_38
   14  A    between atoms: C_26  and  C_39
   15  A    between atoms: N_27  and  C_40
   16  A    between atoms: C_28  and  C_31
                            x       y       z     vdW  Elec       q    Type
                         _______ _______ _______ _____ _____    ______ ____

>  <TORSDO>
F 16

$$$$
