=
 OpenBabel10222417333D

 57 62  0  0  1  0  0  0  0  0999 V2000
  188.3300  178.1490  141.2020 C   0  0  1  0  0  3  0  0  0  0  0  0
  187.0460  177.7780  141.9140 C   0  0  1  0  0  3  0  0  0  0  0  0
  188.3750  177.1510  142.3440 C   0  0  2  0  0  3  0  0  0  0  0  0
  190.5000  177.0830  146.4020 C   0  0  0  0  0  0  0  0  0  0  0  0
  190.4860  177.6200  143.5910 C   0  0  1  0  0  3  0  0  0  0  0  0
  191.5180  178.7080  143.3380 C   0  0  0  0  0  2  0  0  0  0  0  0
  191.2870  177.9020  145.7490 N   0  0  0  0  0  0  0  0  0  0  0  0
  189.0700  176.8110  145.9940 C   0  0  0  0  0  3  0  0  0  0  0  0
  190.7770  178.6780  144.6400 C   0  0  2  0  0  3  0  0  0  0  0  0
  188.9890  177.7790  143.5960 C   0  0  2  0  0  3  0  0  0  0  0  0
  188.4280  177.0870  144.8300 C   0  0  0  0  0  3  0  0  0  0  0  0
  191.0290  176.4280  147.5170 O   0  0  0  0  0  0  0  0  0  0  0  0
  192.2340  175.6820  147.4640 C   0  0  0  0  0  1  0  0  0  0  0  0
  188.3900  175.9780  137.4470 C   0  0  0  0  0  1  0  0  0  0  0  0
  189.5550  175.9520  138.3190 N   0  0  0  0  0  0  0  0  0  0  0  0
  189.5420  176.6580  139.5680 C   0  0  0  0  0  0  0  0  0  0  0  0
  188.3980  177.4340  139.9400 N   0  0  0  0  0  2  0  0  0  0  0  0
  190.5350  176.5930  140.3420 O   0  0  0  0  0  0  0  0  0  0  0  0
  190.6680  175.0720  137.9720 C   0  0  0  0  0  2  0  0  0  0  0  0
  192.3530  174.6660  136.2110 C   0  0  1  0  0  3  0  0  0  0  0  0
  191.6890  175.7430  137.0490 C   0  0  1  0  0  0  0  0  0  0  0  0
  190.9950  176.6040  136.0070 C   0  0  0  0  0  2  0  0  0  0  0  0
  192.6630  176.6150  137.8390 C   0  0  0  0  0  1  0  0  0  0  0  0
  192.1600  175.1300  134.7890 C   0  0  0  0  0  2  0  0  0  0  0  0
  191.0220  175.9460  134.7630 O   0  0  0  0  0  0  0  0  0  0  0  0
  195.3920  173.2260  137.8860 C   0  0  0  0  0  3  0  0  0  0  0  0
  194.7970  174.8110  135.6890 C   0  0  0  0  0  3  0  0  0  0  0  0
  196.4300  173.6890  137.0730 C   0  0  0  0  0  3  0  0  0  0  0  0
  194.1030  173.5550  137.5990 N   0  0  0  0  0  0  0  0  0  0  0  0
  196.1250  174.4850  135.9670 C   0  0  0  0  0  3  0  0  0  0  0  0
  193.7870  174.3410  136.5300 C   0  0  0  0  0  0  0  0  0  0  0  0
  186.6390  178.8910  142.7640 N   0  0  0  0  0  2  0  0  0  0  0  0
  185.3230  178.5770  143.2860 C   0  0  1  0  0  3  0  0  0  0  0  0
  185.3110  178.7870  144.7890 C   0  0  0  0  0  1  0  0  0  0  0  0
  184.2920  179.4720  142.6060 C   0  0  0  0  0  2  0  0  0  0  0  0
  181.4110  178.1670  140.7830 O   0  0  0  0  0  0  0  0  0  0  0  0
  183.0570  178.7420  142.3400 N   0  0  0  0  0  0  0  0  0  0  0  0
  182.5740  178.6070  140.9920 C   0  0  0  0  0  0  0  0  0  0  0  0
  184.4750  178.0900  139.6550 O   0  0  0  0  0  1  0  0  0  0  0  0
  183.4310  179.0020  139.8250 C   0  0  1  0  0  3  0  0  0  0  0  0
  180.1490  179.5130  134.7450 Cl  0  0  0  0  0  0  0  0  0  0  0  0
  182.5490  178.0660  137.6690 C   0  0  0  0  0  3  0  0  0  0  0  0
  181.9520  180.3320  138.2870 C   0  0  0  0  0  0  0  0  0  0  0  0
  181.1060  179.3640  136.2190 C   0  0  0  0  0  0  0  0  0  0  0  0
  182.0700  181.3710  139.1520 F   0  0  0  0  0  0  0  0  0  0  0  0
  182.6310  179.1370  138.5650 C   0  0  0  0  0  0  0  0  0  0  0  0
  181.1690  180.4480  137.1140 C   0  0  0  0  0  0  0  0  0  0  0  0
  181.7990  178.1750  136.4980 C   0  0  0  0  0  0  0  0  0  0  0  0
  179.3920  182.1440  137.5920 C   0  0  0  0  0  1  0  0  0  0  0  0
  180.4440  181.6080  136.7990 O   0  0  0  0  0  0  0  0  0  0  0  0
  181.7430  177.0040  135.5700 C   0  0  0  0  0  2  0  0  0  0  0  0
  181.7090  174.4690  136.8030 C   0  0  0  0  0  1  0  0  0  0  0  0
  180.6060  175.7540  136.1990 S   0  0  2  0  0  0  0  0  0  0  0  0
  180.0160  175.1380  134.9380 O   0  0  0  0  0  0  0  0  0  0  0  0
  182.2990  178.2100  143.4720 C   0  0  0  0  0  2  0  0  0  0  0  0
  181.0190  179.0030  143.6860 C   0  0  0  0  0  2  0  0  0  0  0  0
  179.9140  178.1020  143.9620 N   0  0  0  0  0  1  0  0  0  0  0  0
  1 17  1  6  0  0  0
  1  2  1  0  0  0  0
  1  3  1  0  0  0  0
  2  3  1  0  0  0  0
  2 32  1  1  0  0  0
  3 10  1  1  0  0  0
  4 12  1  0  0  0  0
  5  6  1  6  0  0  0
  5 10  1  0  0  0  0
  5  9  1  0  0  0  0
  7  4  2  0  0  0  0
  8  4  1  0  0  0  0
  9  6  1  6  0  0  0
  9  7  1  0  0  0  0
 10 11  1  1  0  0  0
 11  8  2  0  0  0  0
 13 12  1  0  0  0  0
 14 15  1  0  0  0  0
 15 16  1  0  0  0  0
 16 17  1  0  0  0  0
 16 18  2  0  0  0  0
 19 15  1  0  0  0  0
 20 31  1  1  0  0  0
 20 21  1  0  0  0  0
 21 23  1  1  0  0  0
 21 19  1  0  0  0  0
 22 21  1  0  0  0  0
 24 20  1  0  0  0  0
 25 24  1  0  0  0  0
 25 22  1  0  0  0  0
 27 30  2  0  0  0  0
 27 31  1  0  0  0  0
 28 26  2  0  0  0  0
 29 26  1  0  0  0  0
 30 28  1  0  0  0  0
 31 29  2  0  0  0  0
 32 33  1  0  0  0  0
 33 34  1  1  0  0  0
 35 33  1  0  0  0  0
 36 38  2  0  0  0  0
 37 35  1  0  0  0  0
 37 55  1  0  0  0  0
 38 37  1  0  0  0  0
 40 39  1  6  0  0  0
 40 38  1  0  0  0  0
 41 44  1  0  0  0  0
 42 46  1  0  0  0  0
 43 46  2  0  0  0  0
 43 45  1  0  0  0  0
 44 48  1  0  0  0  0
 44 47  2  0  0  0  0
 46 40  1  0  0  0  0
 47 43  1  0  0  0  0
 48 42  2  0  0  0  0
 50 47  1  0  0  0  0
 50 49  1  0  0  0  0
 51 53  1  0  0  0  0
 51 48  1  0  0  0  0
 53 52  1  6  0  0  0
 54 53  2  0  0  0  0
 55 56  1  0  0  0  0
 56 57  1  0  0  0  0
M  END
>  <MODEL>
1

>  <REMARK>
 VINA RESULT:      -6.6      0.000      0.000
  Name = 
  17 active torsions:
  status: ('A' for Active; 'I' for Inactive)
    1  A    between atoms: C_5  and  O_8
    2  A    between atoms: N_7  and  C_11
    3  A    between atoms: C_11  and  C_30
    4  A    between atoms: C_12  and  N_47
    5  A    between atoms: C_12  and  C_55
    6  A    between atoms: C_14  and  C_24
    7  A    between atoms: C_14  and  C_35
    8  A    between atoms: N_16  and  C_44
    9  A    between atoms: N_16  and  C_55
   10  A    between atoms: C_19  and  C_57
   11  A    between atoms: C_22  and  N_41
   12  A    between atoms: C_33  and  C_44
   13  A    between atoms: S_34  and  C_43
   14  A    between atoms: C_38  and  N_47
   15  A    between atoms: C_39  and  O_48
   16  A    between atoms: C_43  and  C_45
   17  A    between atoms: C_50  and  C_52
                            x       y       z     vdW  Elec       q    Type
                         _______ _______ _______ _____ _____    ______ ____

>  <TORSDO>
F 17

$$$$
=
 OpenBabel10222417333D

 57 62  0  0  1  0  0  0  0  0999 V2000
  185.1850  176.8570  137.5190 C   0  0  1  0  0  3  0  0  0  0  0  0
  184.1420  177.9470  137.6510 C   0  0  1  0  0  3  0  0  0  0  0  0
  184.4080  177.2930  136.2910 C   0  0  2  0  0  3  0  0  0  0  0  0
  181.1870  174.1330  137.0840 C   0  0  0  0  0  0  0  0  0  0  0  0
  181.9800  176.7260  136.1670 C   0  0  1  0  0  3  0  0  0  0  0  0
  180.9510  177.1720  135.1410 C   0  0  0  0  0  2  0  0  0  0  0  0
  180.5410  174.9090  136.2490 N   0  0  0  0  0  0  0  0  0  0  0  0
  182.6950  174.1000  137.1830 C   0  0  0  0  0  3  0  0  0  0  0  0
  181.2660  175.7140  135.2900 C   0  0  2  0  0  3  0  0  0  0  0  0
  183.3780  176.2360  135.8920 C   0  0  2  0  0  3  0  0  0  0  0  0
  183.6200  174.9700  136.7000 C   0  0  0  0  0  3  0  0  0  0  0  0
  180.4290  173.3160  137.9260 O   0  0  0  0  0  0  0  0  0  0  0  0
  180.3290  171.9130  137.7430 C   0  0  0  0  0  1  0  0  0  0  0  0
  189.0640  178.7940  137.3810 C   0  0  0  0  0  1  0  0  0  0  0  0
  188.9390  177.3950  137.0020 N   0  0  0  0  0  0  0  0  0  0  0  0
  187.6580  176.7470  137.0340 C   0  0  0  0  0  0  0  0  0  0  0  0
  186.5050  177.4630  137.4880 N   0  0  0  0  0  2  0  0  0  0  0  0
  187.5470  175.5490  136.6580 O   0  0  0  0  0  0  0  0  0  0  0  0
  190.1040  176.7140  136.4420 C   0  0  0  0  0  2  0  0  0  0  0  0
  192.3340  176.4250  137.4660 C   0  0  1  0  0  3  0  0  0  0  0  0
  190.8970  175.9360  137.4960 C   0  0  1  0  0  0  0  0  0  0  0  0
  190.4440  176.3020  138.8980 C   0  0  0  0  0  2  0  0  0  0  0  0
  190.7430  174.4290  137.3050 C   0  0  0  0  0  1  0  0  0  0  0  0
  192.6220  176.8170  138.8940 C   0  0  0  0  0  2  0  0  0  0  0  0
  191.4000  177.1430  139.4960 O   0  0  0  0  0  0  0  0  0  0  0  0
  194.4650  174.5320  135.0190 C   0  0  0  0  0  3  0  0  0  0  0  0
  194.1970  174.7810  137.7690 C   0  0  0  0  0  3  0  0  0  0  0  0
  195.3090  173.8010  135.8600 C   0  0  0  0  0  3  0  0  0  0  0  0
  193.5200  175.3540  135.5500 N   0  0  0  0  0  0  0  0  0  0  0  0
  195.1710  173.9310  137.2440 C   0  0  0  0  0  3  0  0  0  0  0  0
  193.3620  175.4850  136.8990 C   0  0  0  0  0  0  0  0  0  0  0  0
  182.9720  177.4000  138.3270 N   0  0  0  0  0  2  0  0  0  0  0  0
  182.5490  178.3760  139.3140 C   0  0  1  0  0  3  0  0  0  0  0  0
  181.2670  179.0430  138.8500 C   0  0  0  0  0  1  0  0  0  0  0  0
  182.3410  177.6720  140.6500 C   0  0  0  0  0  2  0  0  0  0  0  0
  183.8290  179.5860  143.3800 O   0  0  0  0  0  0  0  0  0  0  0  0
  182.4520  178.6110  141.7620 N   0  0  0  0  0  0  0  0  0  0  0  0
  183.7440  178.9490  142.2950 C   0  0  0  0  0  0  0  0  0  0  0  0
  185.4350  179.5500  140.7290 O   0  0  0  0  0  1  0  0  0  0  0  0
  185.0000  178.5360  141.5850 C   0  0  1  0  0  3  0  0  0  0  0  0
  189.3650  176.9210  145.4820 Cl  0  0  0  0  0  0  0  0  0  0  0  0
  185.7910  177.9890  143.9050 C   0  0  0  0  0  3  0  0  0  0  0  0
  187.3910  177.9380  142.0860 C   0  0  0  0  0  0  0  0  0  0  0  0
  188.0970  177.3940  144.3520 C   0  0  0  0  0  0  0  0  0  0  0  0
  187.6630  178.1310  140.7700 F   0  0  0  0  0  0  0  0  0  0  0  0
  186.0840  178.1510  142.5470 C   0  0  0  0  0  0  0  0  0  0  0  0
  188.4070  177.5420  142.9870 C   0  0  0  0  0  0  0  0  0  0  0  0
  186.7880  177.6210  144.8090 C   0  0  0  0  0  0  0  0  0  0  0  0
  190.3320  176.0000  142.5640 C   0  0  0  0  0  1  0  0  0  0  0  0
  189.7260  177.2860  142.5780 O   0  0  0  0  0  0  0  0  0  0  0  0
  186.4260  177.4620  146.2500 C   0  0  0  0  0  2  0  0  0  0  0  0
  187.7400  178.1070  148.6600 C   0  0  0  0  0  1  0  0  0  0  0  0
  187.0110  178.8750  147.2070 S   0  0  2  0  0  0  0  0  0  0  0  0
  185.7310  179.4960  147.7490 O   0  0  0  0  0  0  0  0  0  0  0  0
  181.2260  179.1460  142.3530 C   0  0  0  0  0  2  0  0  0  0  0  0
  180.7380  178.2560  143.4860 C   0  0  0  0  0  2  0  0  0  0  0  0
  179.3270  178.4910  143.7320 N   0  0  0  0  0  1  0  0  0  0  0  0
  1 17  1  6  0  0  0
  1  2  1  0  0  0  0
  2 32  1  1  0  0  0
  3 10  1  1  0  0  0
  3  1  1  0  0  0  0
  3  2  1  0  0  0  0
  4  8  1  0  0  0  0
  4 12  1  0  0  0  0
  5  6  1  6  0  0  0
  7  4  2  0  0  0  0
  9  6  1  6  0  0  0
  9  5  1  0  0  0  0
  9  7  1  0  0  0  0
 10  5  1  0  0  0  0
 10 11  1  1  0  0  0
 11  8  2  0  0  0  0
 13 12  1  0  0  0  0
 15 16  1  0  0  0  0
 15 14  1  0  0  0  0
 16 17  1  0  0  0  0
 18 16  2  0  0  0  0
 19 15  1  0  0  0  0
 19 21  1  0  0  0  0
 20 31  1  1  0  0  0
 20 21  1  0  0  0  0
 20 24  1  0  0  0  0
 21 23  1  6  0  0  0
 21 22  1  0  0  0  0
 22 25  1  0  0  0  0
 24 25  1  0  0  0  0
 26 29  2  0  0  0  0
 26 28  1  0  0  0  0
 28 30  2  0  0  0  0
 29 31  1  0  0  0  0
 30 27  1  0  0  0  0
 31 27  2  0  0  0  0
 32 33  1  0  0  0  0
 33 34  1  6  0  0  0
 33 35  1  0  0  0  0
 35 37  1  0  0  0  0
 37 38  1  0  0  0  0
 37 55  1  0  0  0  0
 38 36  2  0  0  0  0
 40 39  1  1  0  0  0
 40 38  1  0  0  0  0
 40 46  1  0  0  0  0
 42 48  1  0  0  0  0
 43 46  1  0  0  0  0
 43 47  2  0  0  0  0
 44 48  2  0  0  0  0
 44 41  1  0  0  0  0
 45 43  1  0  0  0  0
 46 42  2  0  0  0  0
 47 44  1  0  0  0  0
 48 51  1  0  0  0  0
 49 50  1  0  0  0  0
 50 47  1  0  0  0  0
 51 53  1  0  0  0  0
 53 54  2  0  0  0  0
 53 52  1  1  0  0  0
 55 56  1  0  0  0  0
 56 57  1  0  0  0  0
M  END
>  <MODEL>
2

>  <REMARK>
 VINA RESULT:      -6.4      3.740      8.175
  Name = 
  17 active torsions:
  status: ('A' for Active; 'I' for Inactive)
    1  A    between atoms: C_5  and  O_8
    2  A    between atoms: N_7  and  C_11
    3  A    between atoms: C_11  and  C_30
    4  A    between atoms: C_12  and  N_47
    5  A    between atoms: C_12  and  C_55
    6  A    between atoms: C_14  and  C_24
    7  A    between atoms: C_14  and  C_35
    8  A    between atoms: N_16  and  C_44
    9  A    between atoms: N_16  and  C_55
   10  A    between atoms: C_19  and  C_57
   11  A    between atoms: C_22  and  N_41
   12  A    between atoms: C_33  and  C_44
   13  A    between atoms: S_34  and  C_43
   14  A    between atoms: C_38  and  N_47
   15  A    between atoms: C_39  and  O_48
   16  A    between atoms: C_43  and  C_45
   17  A    between atoms: C_50  and  C_52
                            x       y       z     vdW  Elec       q    Type
                         _______ _______ _______ _____ _____    ______ ____

>  <TORSDO>
F 17

$$$$
=
 OpenBabel10222417333D

 57 62  0  0  1  0  0  0  0  0999 V2000
  183.5340  177.3900  137.7500 C   0  0  1  0  0  3  0  0  0  0  0  0
  182.5290  178.5190  137.6490 C   0  0  1  0  0  3  0  0  0  0  0  0
  182.6310  177.4740  136.5340 C   0  0  2  0  0  3  0  0  0  0  0  0
  180.8680  173.3210  135.7370 C   0  0  0  0  0  0  0  0  0  0  0  0
  181.9400  175.2870  137.5200 C   0  0  1  0  0  3  0  0  0  0  0  0
  181.3620  175.0050  138.8970 C   0  0  0  0  0  2  0  0  0  0  0  0
  180.6840  173.3990  137.0320 N   0  0  0  0  0  0  0  0  0  0  0  0
  181.0620  174.5340  134.8550 C   0  0  0  0  0  3  0  0  0  0  0  0
  180.5530  174.6890  137.6750 C   0  0  2  0  0  3  0  0  0  0  0  0
  181.5450  176.3980  136.5830 C   0  0  2  0  0  3  0  0  0  0  0  0
  181.3510  175.8170  135.1900 C   0  0  0  0  0  3  0  0  0  0  0  0
  180.8990  172.0480  135.1640 O   0  0  0  0  0  0  0  0  0  0  0  0
  182.0740  171.4930  134.5950 C   0  0  0  0  0  1  0  0  0  0  0  0
  187.4110  178.9440  136.5780 C   0  0  0  0  0  1  0  0  0  0  0  0
  187.3240  177.6910  137.3140 N   0  0  0  0  0  0  0  0  0  0  0  0
  186.0460  177.1630  137.6970 C   0  0  0  0  0  0  0  0  0  0  0  0
  184.8510  177.8930  137.4010 N   0  0  0  0  0  2  0  0  0  0  0  0
  185.9720  176.0530  138.2920 O   0  0  0  0  0  0  0  0  0  0  0  0
  188.5430  176.9110  137.5130 C   0  0  0  0  0  2  0  0  0  0  0  0
  189.1750  174.6350  136.7860 C   0  0  1  0  0  3  0  0  0  0  0  0
  188.8980  176.0470  136.3000 C   0  0  1  0  0  0  0  0  0  0  0  0
  187.6940  175.8620  135.3920 C   0  0  0  0  0  2  0  0  0  0  0  0
  190.0350  176.6670  135.4910 C   0  0  0  0  0  1  0  0  0  0  0  0
  188.2590  173.7710  135.9570 C   0  0  0  0  0  2  0  0  0  0  0  0
  187.1760  174.5650  135.5590 O   0  0  0  0  0  0  0  0  0  0  0  0
  192.8070  174.2210  137.6520 C   0  0  0  0  0  3  0  0  0  0  0  0
  190.9870  173.2010  135.8240 C   0  0  0  0  0  3  0  0  0  0  0  0
  193.2270  173.2600  136.7290 C   0  0  0  0  0  3  0  0  0  0  0  0
  191.5160  174.6510  137.6480 N   0  0  0  0  0  0  0  0  0  0  0  0
  192.3070  172.7480  135.8120 C   0  0  0  0  0  3  0  0  0  0  0  0
  190.6050  174.1720  136.7520 C   0  0  0  0  0  0  0  0  0  0  0  0
  181.4340  178.2590  138.5760 N   0  0  0  0  0  2  0  0  0  0  0  0
  181.6600  179.0800  139.7510 C   0  0  1  0  0  3  0  0  0  0  0  0
  180.5620  180.1220  139.8600 C   0  0  0  0  0  1  0  0  0  0  0  0
  181.6810  178.1850  140.9850 C   0  0  0  0  0  2  0  0  0  0  0  0
  183.6950  179.5090  143.7270 O   0  0  0  0  0  0  0  0  0  0  0  0
  182.0370  178.9440  142.1800 N   0  0  0  0  0  0  0  0  0  0  0  0
  183.4110  179.0380  142.5920 C   0  0  0  0  0  0  0  0  0  0  0  0
  184.7760  179.5090  140.6990 O   0  0  0  0  0  1  0  0  0  0  0  0
  184.5180  178.5660  141.6950 C   0  0  1  0  0  3  0  0  0  0  0  0
  189.5520  177.2250  144.8100 Cl  0  0  0  0  0  0  0  0  0  0  0  0
  185.6810  177.8650  143.8070 C   0  0  0  0  0  3  0  0  0  0  0  0
  187.0170  178.3240  141.8380 C   0  0  0  0  0  0  0  0  0  0  0  0
  188.0890  177.6180  143.9070 C   0  0  0  0  0  0  0  0  0  0  0  0
  187.0810  178.7300  140.5450 F   0  0  0  0  0  0  0  0  0  0  0  0
  185.7640  178.2490  142.4650 C   0  0  0  0  0  0  0  0  0  0  0  0
  188.1910  177.9920  142.5540 C   0  0  0  0  0  0  0  0  0  0  0  0
  186.8320  177.5580  144.5320 C   0  0  0  0  0  0  0  0  0  0  0  0
  190.1290  176.8880  141.4220 C   0  0  0  0  0  1  0  0  0  0  0  0
  189.4680  178.0200  141.9710 O   0  0  0  0  0  0  0  0  0  0  0  0
  186.6920  177.1540  145.9650 C   0  0  0  0  0  2  0  0  0  0  0  0
  187.8140  177.6490  148.5030 C   0  0  0  0  0  1  0  0  0  0  0  0
  187.1840  178.5060  147.0520 S   0  0  2  0  0  0  0  0  0  0  0  0
  185.8590  179.0770  147.5370 O   0  0  0  0  0  0  0  0  0  0  0  0
  180.9660  179.5490  142.9710 C   0  0  0  0  0  2  0  0  0  0  0  0
  180.5660  178.6410  144.1230 C   0  0  0  0  0  2  0  0  0  0  0  0
  179.5330  177.7150  143.6920 N   0  0  0  0  0  1  0  0  0  0  0  0
  1 17  1  6  0  0  0
  2  1  1  0  0  0  0
  2 32  1  1  0  0  0
  3 10  1  1  0  0  0
  3  2  1  0  0  0  0
  3  1  1  0  0  0  0
  4  7  2  0  0  0  0
  5  9  1  0  0  0  0
  5  6  1  1  0  0  0
  7  9  1  0  0  0  0
  8 11  2  0  0  0  0
  8  4  1  0  0  0  0
  9  6  1  1  0  0  0
 10 11  1  6  0  0  0
 10  5  1  0  0  0  0
 12  4  1  0  0  0  0
 13 12  1  0  0  0  0
 14 15  1  0  0  0  0
 15 19  1  0  0  0  0
 15 16  1  0  0  0  0
 16 18  2  0  0  0  0
 17 16  1  0  0  0  0
 20 31  1  6  0  0  0
 21 23  1  6  0  0  0
 21 20  1  0  0  0  0
 21 19  1  0  0  0  0
 22 25  1  0  0  0  0
 22 21  1  0  0  0  0
 24 20  1  0  0  0  0
 25 24  1  0  0  0  0
 27 31  1  0  0  0  0
 28 26  2  0  0  0  0
 29 26  1  0  0  0  0
 30 27  2  0  0  0  0
 30 28  1  0  0  0  0
 31 29  2  0  0  0  0
 32 33  1  0  0  0  0
 33 34  1  1  0  0  0
 33 35  1  0  0  0  0
 35 37  1  0  0  0  0
 37 38  1  0  0  0  0
 37 55  1  0  0  0  0
 38 36  2  0  0  0  0
 40 39  1  6  0  0  0
 40 46  1  0  0  0  0
 40 38  1  0  0  0  0
 42 48  1  0  0  0  0
 43 46  1  0  0  0  0
 43 47  2  0  0  0  0
 44 48  2  0  0  0  0
 44 41  1  0  0  0  0
 45 43  1  0  0  0  0
 46 42  2  0  0  0  0
 47 44  1  0  0  0  0
 48 51  1  0  0  0  0
 49 50  1  0  0  0  0
 50 47  1  0  0  0  0
 51 53  1  0  0  0  0
 53 54  2  0  0  0  0
 53 52  1  1  0  0  0
 55 56  1  0  0  0  0
 57 56  1  0  0  0  0
M  END
>  <MODEL>
3

>  <REMARK>
 VINA RESULT:      -6.3      3.779      8.379
  Name = 
  17 active torsions:
  status: ('A' for Active; 'I' for Inactive)
    1  A    between atoms: C_5  and  O_8
    2  A    between atoms: N_7  and  C_11
    3  A    between atoms: C_11  and  C_30
    4  A    between atoms: C_12  and  N_47
    5  A    between atoms: C_12  and  C_55
    6  A    between atoms: C_14  and  C_24
    7  A    between atoms: C_14  and  C_35
    8  A    between atoms: N_16  and  C_44
    9  A    between atoms: N_16  and  C_55
   10  A    between atoms: C_19  and  C_57
   11  A    between atoms: C_22  and  N_41
   12  A    between atoms: C_33  and  C_44
   13  A    between atoms: S_34  and  C_43
   14  A    between atoms: C_38  and  N_47
   15  A    between atoms: C_39  and  O_48
   16  A    between atoms: C_43  and  C_45
   17  A    between atoms: C_50  and  C_52
                            x       y       z     vdW  Elec       q    Type
                         _______ _______ _______ _____ _____    ______ ____

>  <TORSDO>
F 17

$$$$
=
 OpenBabel10222417333D

 57 62  0  0  1  0  0  0  0  0999 V2000
  190.9200  175.4080  136.4810 C   0  0  1  0  0  3  0  0  0  0  0  0
  190.4050  176.7670  136.9050 C   0  0  1  0  0  3  0  0  0  0  0  0
  190.1160  176.2370  135.4980 C   0  0  2  0  0  3  0  0  0  0  0  0
  186.2980  174.1140  136.8760 C   0  0  0  0  0  0  0  0  0  0  0  0
  187.7020  176.4790  136.0880 C   0  0  1  0  0  3  0  0  0  0  0  0
  186.6740  177.4390  135.5100 C   0  0  0  0  0  2  0  0  0  0  0  0
  185.7810  175.2170  136.3970 N   0  0  0  0  0  0  0  0  0  0  0  0
  187.6650  173.6020  136.4810 C   0  0  0  0  0  3  0  0  0  0  0  0
  186.4720  175.9610  135.3660 C   0  0  2  0  0  3  0  0  0  0  0  0
  188.7100  175.6640  135.3200 C   0  0  2  0  0  3  0  0  0  0  0  0
  188.6810  174.2350  135.8410 C   0  0  0  0  0  3  0  0  0  0  0  0
  185.5420  173.3960  137.8070 O   0  0  0  0  0  0  0  0  0  0  0  0
  184.4160  172.6160  137.4390 C   0  0  0  0  0  1  0  0  0  0  0  0
  195.1060  175.8610  135.4370 C   0  0  0  0  0  1  0  0  0  0  0  0
  194.4880  174.5440  135.3990 N   0  0  0  0  0  0  0  0  0  0  0  0
  193.1010  174.3840  135.7320 C   0  0  0  0  0  0  0  0  0  0  0  0
  192.3310  175.5150  136.1530 N   0  0  0  0  0  2  0  0  0  0  0  0
  192.5570  173.2490  135.6510 O   0  0  0  0  0  0  0  0  0  0  0  0
  195.2600  173.4230  134.8670 C   0  0  0  0  0  2  0  0  0  0  0  0
  195.4720  173.1210  137.3110 C   0  0  1  0  0  3  0  0  0  0  0  0
  195.9430  172.6020  135.9640 C   0  0  1  0  0  0  0  0  0  0  0  0
  195.4440  171.1670  135.9600 C   0  0  0  0  0  2  0  0  0  0  0  0
  197.4600  172.5970  135.7890 C   0  0  0  0  0  1  0  0  0  0  0  0
  194.9510  171.8950  138.0190 C   0  0  0  0  0  2  0  0  0  0  0  0
  194.5600  170.9750  137.0370 O   0  0  0  0  0  0  0  0  0  0  0  0
  197.0990  174.8970  140.1930 C   0  0  0  0  0  3  0  0  0  0  0  0
  197.7060  174.2170  137.5730 C   0  0  0  0  0  3  0  0  0  0  0  0
  198.3420  175.2520  139.6630 C   0  0  0  0  0  3  0  0  0  0  0  0
  196.1970  174.2270  139.4260 N   0  0  0  0  0  0  0  0  0  0  0  0
  198.6440  174.9050  138.3440 C   0  0  0  0  0  3  0  0  0  0  0  0
  196.4690  173.8910  138.1320 C   0  0  0  0  0  0  0  0  0  0  0  0
  189.2880  176.5820  137.8250 N   0  0  0  0  0  2  0  0  0  0  0  0
  189.5830  177.3470  139.0210 C   0  0  1  0  0  3  0  0  0  0  0  0
  188.2890  177.8630  139.6240 C   0  0  0  0  0  1  0  0  0  0  0  0
  190.3240  176.4550  140.0110 C   0  0  0  0  0  2  0  0  0  0  0  0
  191.6810  178.2270  142.9000 O   0  0  0  0  0  0  0  0  0  0  0  0
  191.2490  177.2320  140.8290 N   0  0  0  0  0  0  0  0  0  0  0  0
  191.0100  177.3900  142.2390 C   0  0  0  0  0  0  0  0  0  0  0  0
  190.2400  175.2180  142.8390 O   0  0  0  0  0  1  0  0  0  0  0  0
  189.9530  176.5810  142.9340 C   0  0  1  0  0  3  0  0  0  0  0  0
  189.2460  178.1980  148.7410 Cl  0  0  0  0  0  0  0  0  0  0  0  0
  188.6160  177.6310  144.7810 C   0  0  0  0  0  3  0  0  0  0  0  0
  190.8030  176.7240  145.2970 C   0  0  0  0  0  0  0  0  0  0  0  0
  189.4510  177.7320  147.0530 C   0  0  0  0  0  0  0  0  0  0  0  0
  191.9460  176.1320  144.8690 F   0  0  0  0  0  0  0  0  0  0  0  0
  189.7880  176.9920  144.3660 C   0  0  0  0  0  0  0  0  0  0  0  0
  190.6330  177.0800  146.6550 C   0  0  0  0  0  0  0  0  0  0  0  0
  188.4450  178.0090  146.1130 C   0  0  0  0  0  0  0  0  0  0  0  0
  192.2410  175.5530  147.8140 C   0  0  0  0  0  1  0  0  0  0  0  0
  191.6010  176.8100  147.6360 O   0  0  0  0  0  0  0  0  0  0  0  0
  187.1750  178.6920  146.5080 C   0  0  0  0  0  2  0  0  0  0  0  0
  185.3410  178.6320  144.3680 C   0  0  0  0  0  1  0  0  0  0  0  0
  185.7480  177.7750  145.8950 S   0  0  2  0  0  0  0  0  0  0  0  0
  184.6250  178.1900  146.8350 O   0  0  0  0  0  0  0  0  0  0  0  0
  192.3800  177.8910  140.1760 C   0  0  0  0  0  2  0  0  0  0  0  0
  193.5740  176.9520  140.0870 C   0  0  0  0  0  2  0  0  0  0  0  0
  193.7880  176.5470  138.7090 N   0  0  0  0  0  1  0  0  0  0  0  0
  1 17  1  6  0  0  0
  1  2  1  0  0  0  0
  2 32  1  1  0  0  0
  3 10  1  1  0  0  0
  3  1  1  0  0  0  0
  3  2  1  0  0  0  0
  4 12  1  0  0  0  0
  5  6  1  6  0  0  0
  7  4  2  0  0  0  0
  8  4  1  0  0  0  0
  9  6  1  1  0  0  0
  9  5  1  0  0  0  0
  9  7  1  0  0  0  0
 10 11  1  1  0  0  0
 10  5  1  0  0  0  0
 11  8  2  0  0  0  0
 13 12  1  0  0  0  0
 15 14  1  0  0  0  0
 15 16  1  0  0  0  0
 16 17  1  0  0  0  0
 18 16  2  0  0  0  0
 19 15  1  0  0  0  0
 19 21  1  0  0  0  0
 20 24  1  0  0  0  0
 20 31  1  1  0  0  0
 21 23  1  6  0  0  0
 21 20  1  0  0  0  0
 22 21  1  0  0  0  0
 22 25  1  0  0  0  0
 25 24  1  0  0  0  0
 27 31  2  0  0  0  0
 27 30  1  0  0  0  0
 28 26  1  0  0  0  0
 29 26  2  0  0  0  0
 30 28  2  0  0  0  0
 31 29  1  0  0  0  0
 32 33  1  0  0  0  0
 33 34  1  1  0  0  0
 33 35  1  0  0  0  0
 35 37  1  0  0  0  0
 37 38  1  0  0  0  0
 38 36  2  0  0  0  0
 38 40  1  0  0  0  0
 40 39  1  1  0  0  0
 40 46  1  0  0  0  0
 42 48  1  0  0  0  0
 43 47  2  0  0  0  0
 44 41  1  0  0  0  0
 45 43  1  0  0  0  0
 46 42  2  0  0  0  0
 46 43  1  0  0  0  0
 47 44  1  0  0  0  0
 47 50  1  0  0  0  0
 48 51  1  0  0  0  0
 48 44  2  0  0  0  0
 50 49  1  0  0  0  0
 53 52  1  6  0  0  0
 53 51  1  0  0  0  0
 53 54  2  0  0  0  0
 55 37  1  0  0  0  0
 56 55  1  0  0  0  0
 57 56  1  0  0  0  0
M  END
>  <MODEL>
4

>  <REMARK>
 VINA RESULT:      -6.3      5.036      9.478
  Name = 
  17 active torsions:
  status: ('A' for Active; 'I' for Inactive)
    1  A    between atoms: C_5  and  O_8
    2  A    between atoms: N_7  and  C_11
    3  A    between atoms: C_11  and  C_30
    4  A    between atoms: C_12  and  N_47
    5  A    between atoms: C_12  and  C_55
    6  A    between atoms: C_14  and  C_24
    7  A    between atoms: C_14  and  C_35
    8  A    between atoms: N_16  and  C_44
    9  A    between atoms: N_16  and  C_55
   10  A    between atoms: C_19  and  C_57
   11  A    between atoms: C_22  and  N_41
   12  A    between atoms: C_33  and  C_44
   13  A    between atoms: S_34  and  C_43
   14  A    between atoms: C_38  and  N_47
   15  A    between atoms: C_39  and  O_48
   16  A    between atoms: C_43  and  C_45
   17  A    between atoms: C_50  and  C_52
                            x       y       z     vdW  Elec       q    Type
                         _______ _______ _______ _____ _____    ______ ____

>  <TORSDO>
F 17

$$$$
=
 OpenBabel10222417333D

 57 62  0  0  1  0  0  0  0  0999 V2000
  188.2430  176.5160  138.1350 C   0  0  1  0  0  3  0  0  0  0  0  0
  187.5810  177.2790  137.0060 C   0  0  1  0  0  3  0  0  0  0  0  0
  189.0900  177.0180  136.9810 C   0  0  2  0  0  3  0  0  0  0  0  0
  192.0790  174.1120  135.0810 C   0  0  0  0  0  0  0  0  0  0  0  0
  189.9260  174.6670  136.8830 C   0  0  1  0  0  3  0  0  0  0  0  0
  189.1490  173.3740  137.0640 C   0  0  0  0  0  2  0  0  0  0  0  0
  191.2100  173.2580  135.5610 N   0  0  0  0  0  0  0  0  0  0  0  0
  191.7490  175.5610  134.8060 C   0  0  0  0  0  3  0  0  0  0  0  0
  189.8320  173.6520  135.7590 C   0  0  2  0  0  3  0  0  0  0  0  0
  189.5120  175.8650  136.0690 C   0  0  2  0  0  3  0  0  0  0  0  0
  190.6910  176.3070  135.2140 C   0  0  0  0  0  3  0  0  0  0  0  0
  193.3730  173.6460  134.8320 O   0  0  0  0  0  0  0  0  0  0  0  0
  194.5260  174.4460  135.0360 C   0  0  0  0  0  1  0  0  0  0  0  0
  188.7080  179.2770  141.4470 C   0  0  0  0  0  1  0  0  0  0  0  0
  189.6360  178.1660  141.2940 N   0  0  0  0  0  0  0  0  0  0  0  0
  189.4970  177.2530  140.1960 C   0  0  0  0  0  0  0  0  0  0  0  0
  188.4140  177.4020  139.2730 N   0  0  0  0  0  2  0  0  0  0  0  0
  190.3310  176.3200  140.0400 O   0  0  0  0  0  0  0  0  0  0  0  0
  190.7930  178.0930  142.1820 C   0  0  0  0  0  2  0  0  0  0  0  0
  189.1120  176.7080  143.3500 C   0  0  1  0  0  3  0  0  0  0  0  0
  190.5410  177.2160  143.4120 C   0  0  1  0  0  0  0  0  0  0  0  0
  191.3580  175.9370  143.3450 C   0  0  0  0  0  2  0  0  0  0  0  0
  190.8890  177.9550  144.7020 C   0  0  0  0  0  1  0  0  0  0  0  0
  189.2440  175.2100  143.4690 C   0  0  0  0  0  2  0  0  0  0  0  0
  190.5180  174.8620  143.0030 O   0  0  0  0  0  0  0  0  0  0  0  0
  186.0380  178.3040  144.8030 C   0  0  0  0  0  3  0  0  0  0  0  0
  188.4450  177.2560  145.6990 C   0  0  0  0  0  3  0  0  0  0  0  0
  186.3170  178.2990  146.1730 C   0  0  0  0  0  3  0  0  0  0  0  0
  186.9440  177.8010  143.9220 N   0  0  0  0  0  0  0  0  0  0  0  0
  187.5290  177.7690  146.6190 C   0  0  0  0  0  3  0  0  0  0  0  0
  188.1380  177.2900  144.3370 C   0  0  0  0  0  0  0  0  0  0  0  0
  186.8270  176.3410  136.1830 N   0  0  0  0  0  2  0  0  0  0  0  0
  185.5490  176.1250  136.8350 C   0  0  1  0  0  3  0  0  0  0  0  0
  184.9020  177.4630  137.1380 C   0  0  0  0  0  1  0  0  0  0  0  0
  184.6610  175.2870  135.9220 C   0  0  0  0  0  2  0  0  0  0  0  0
  181.7120  173.9750  137.6270 O   0  0  0  0  0  0  0  0  0  0  0  0
  183.8160  174.3830  136.6950 N   0  0  0  0  0  0  0  0  0  0  0  0
  182.4020  174.6250  136.7950 C   0  0  0  0  0  0  0  0  0  0  0  0
  180.5080  175.1850  135.4650 O   0  0  0  0  0  1  0  0  0  0  0  0
  181.7360  175.6570  135.9340 C   0  0  1  0  0  3  0  0  0  0  0  0
  181.1000  180.9340  138.8650 Cl  0  0  0  0  0  0  0  0  0  0  0  0
  181.7110  177.0150  138.0450 C   0  0  0  0  0  3  0  0  0  0  0  0
  181.2690  178.1290  135.9390 C   0  0  0  0  0  0  0  0  0  0  0  0
  181.2810  179.4000  138.0150 C   0  0  0  0  0  0  0  0  0  0  0  0
  181.0980  178.0490  134.5950 F   0  0  0  0  0  0  0  0  0  0  0  0
  181.5640  176.9600  136.6560 C   0  0  0  0  0  0  0  0  0  0  0  0
  181.1410  179.3640  136.6150 C   0  0  0  0  0  0  0  0  0  0  0  0
  181.5640  178.2230  138.7290 C   0  0  0  0  0  0  0  0  0  0  0  0
  179.5810  181.0150  135.5660 C   0  0  0  0  0  1  0  0  0  0  0  0
  180.8760  180.5700  135.9470 O   0  0  0  0  0  0  0  0  0  0  0  0
  181.7280  178.2320  140.2140 C   0  0  0  0  0  2  0  0  0  0  0  0
  183.4450  178.6530  142.4110 C   0  0  0  0  0  1  0  0  0  0  0  0
  183.4760  178.2580  140.6560 S   0  0  2  0  0  0  0  0  0  0  0  0
  183.9870  179.5450  140.0220 O   0  0  0  0  0  0  0  0  0  0  0  0
  184.4460  173.2710  137.4060 C   0  0  0  0  0  2  0  0  0  0  0  0
  184.1920  171.9560  136.6870 C   0  0  0  0  0  2  0  0  0  0  0  0
  184.4140  172.1160  135.2610 N   0  0  0  0  0  1  0  0  0  0  0  0
  1 17  1  1  0  0  0
  2 32  1  6  0  0  0
  2  1  1  0  0  0  0
  3 10  1  6  0  0  0
  3  2  1  0  0  0  0
  3  1  1  0  0  0  0
  4  7  2  0  0  0  0
  5  6  1  1  0  0  0
  7  9  1  0  0  0  0
  8  4  1  0  0  0  0
  8 11  2  0  0  0  0
  9  5  1  0  0  0  0
  9  6  1  1  0  0  0
 10 11  1  1  0  0  0
 10  5  1  0  0  0  0
 12 13  1  0  0  0  0
 12  4  1  0  0  0  0
 15 14  1  0  0  0  0
 15 19  1  0  0  0  0
 16 15  1  0  0  0  0
 17 16  1  0  0  0  0
 18 16  2  0  0  0  0
 19 21  1  0  0  0  0
 20 21  1  0  0  0  0
 20 24  1  0  0  0  0
 20 31  1  1  0  0  0
 21 23  1  1  0  0  0
 22 21  1  0  0  0  0
 25 22  1  0  0  0  0
 25 24  1  0  0  0  0
 26 28  1  0  0  0  0
 27 30  1  0  0  0  0
 28 30  2  0  0  0  0
 29 31  1  0  0  0  0
 29 26  2  0  0  0  0
 31 27  2  0  0  0  0
 32 33  1  0  0  0  0
 33 34  1  6  0  0  0
 35 37  1  0  0  0  0
 35 33  1  0  0  0  0
 37 38  1  0  0  0  0
 37 55  1  0  0  0  0
 38 36  2  0  0  0  0
 40 39  1  1  0  0  0
 40 46  1  0  0  0  0
 40 38  1  0  0  0  0
 42 48  1  0  0  0  0
 43 47  2  0  0  0  0
 43 46  1  0  0  0  0
 44 48  2  0  0  0  0
 44 41  1  0  0  0  0
 45 43  1  0  0  0  0
 46 42  2  0  0  0  0
 47 44  1  0  0  0  0
 48 51  1  0  0  0  0
 49 50  1  0  0  0  0
 50 47  1  0  0  0  0
 51 53  1  0  0  0  0
 53 52  1  1  0  0  0
 54 53  2  0  0  0  0
 56 55  1  0  0  0  0
 57 56  1  0  0  0  0
M  END
>  <MODEL>
5

>  <REMARK>
 VINA RESULT:      -6.3      2.514      7.864
  Name = 
  17 active torsions:
  status: ('A' for Active; 'I' for Inactive)
    1  A    between atoms: C_5  and  O_8
    2  A    between atoms: N_7  and  C_11
    3  A    between atoms: C_11  and  C_30
    4  A    between atoms: C_12  and  N_47
    5  A    between atoms: C_12  and  C_55
    6  A    between atoms: C_14  and  C_24
    7  A    between atoms: C_14  and  C_35
    8  A    between atoms: N_16  and  C_44
    9  A    between atoms: N_16  and  C_55
   10  A    between atoms: C_19  and  C_57
   11  A    between atoms: C_22  and  N_41
   12  A    between atoms: C_33  and  C_44
   13  A    between atoms: S_34  and  C_43
   14  A    between atoms: C_38  and  N_47
   15  A    between atoms: C_39  and  O_48
   16  A    between atoms: C_43  and  C_45
   17  A    between atoms: C_50  and  C_52
                            x       y       z     vdW  Elec       q    Type
                         _______ _______ _______ _____ _____    ______ ____

>  <TORSDO>
F 17

$$$$
=
 OpenBabel10222417333D

 57 62  0  0  1  0  0  0  0  0999 V2000
  188.5490  176.4890  138.2450 C   0  0  1  0  0  3  0  0  0  0  0  0
  187.9100  177.3430  137.1690 C   0  0  1  0  0  3  0  0  0  0  0  0
  189.4110  177.0410  137.1250 C   0  0  2  0  0  3  0  0  0  0  0  0
  192.3150  174.1750  135.0400 C   0  0  0  0  0  0  0  0  0  0  0  0
  190.1750  174.6770  136.8730 C   0  0  1  0  0  3  0  0  0  0  0  0
  189.3580  173.3990  136.9680 C   0  0  0  0  0  2  0  0  0  0  0  0
  191.4180  173.3190  135.4620 N   0  0  0  0  0  0  0  0  0  0  0  0
  192.0300  175.6490  134.8600 C   0  0  0  0  0  3  0  0  0  0  0  0
  190.0520  173.7410  135.6840 C   0  0  2  0  0  3  0  0  0  0  0  0
  189.7990  175.9380  136.1390 C   0  0  2  0  0  3  0  0  0  0  0  0
  190.9930  176.3980  135.3160 C   0  0  0  0  0  3  0  0  0  0  0  0
  193.5940  173.6880  134.7620 O   0  0  0  0  0  0  0  0  0  0  0  0
  194.7170  174.5380  134.5940 C   0  0  0  0  0  1  0  0  0  0  0  0
  189.1030  179.0170  141.7260 C   0  0  0  0  0  1  0  0  0  0  0  0
  189.9340  177.8350  141.5480 N   0  0  0  0  0  0  0  0  0  0  0  0
  189.7660  176.9980  140.3950 C   0  0  0  0  0  0  0  0  0  0  0  0
  188.7450  177.2950  139.4370 N   0  0  0  0  0  2  0  0  0  0  0  0
  190.5190  176.0020  140.2210 O   0  0  0  0  0  0  0  0  0  0  0  0
  191.0370  177.6080  142.4790 C   0  0  0  0  0  2  0  0  0  0  0  0
  189.6440  176.9170  144.4000 C   0  0  1  0  0  3  0  0  0  0  0  0
  190.6660  177.9360  143.9280 C   0  0  1  0  0  0  0  0  0  0  0  0
  191.8410  177.6930  144.8590 C   0  0  0  0  0  2  0  0  0  0  0  0
  190.2160  179.3890  144.0710 C   0  0  0  0  0  1  0  0  0  0  0  0
  190.2400  176.3530  145.6650 C   0  0  0  0  0  2  0  0  0  0  0  0
  191.6290  176.5040  145.5810 O   0  0  0  0  0  0  0  0  0  0  0  0
  186.0460  177.7510  143.7150 C   0  0  0  0  0  3  0  0  0  0  0  0
  187.8290  177.8700  145.8360 C   0  0  0  0  0  3  0  0  0  0  0  0
  185.6100  178.2360  144.9510 C   0  0  0  0  0  3  0  0  0  0  0  0
  187.3340  177.3440  143.5580 N   0  0  0  0  0  0  0  0  0  0  0  0
  186.5110  178.2920  146.0160 C   0  0  0  0  0  3  0  0  0  0  0  0
  188.2320  177.4030  144.5840 C   0  0  0  0  0  0  0  0  0  0  0  0
  187.1290  176.4830  136.2880 N   0  0  0  0  0  2  0  0  0  0  0  0
  185.8300  176.2970  136.9050 C   0  0  1  0  0  3  0  0  0  0  0  0
  185.3040  177.6350  137.3910 C   0  0  0  0  0  1  0  0  0  0  0  0
  184.8790  175.6790  135.8860 C   0  0  0  0  0  2  0  0  0  0  0  0
  182.8090  172.9850  137.2200 O   0  0  0  0  0  0  0  0  0  0  0  0
  184.4730  174.3370  136.2910 N   0  0  0  0  0  0  0  0  0  0  0  0
  183.1110  174.0790  136.6720 C   0  0  0  0  0  0  0  0  0  0  0  0
  180.9860  174.5580  135.7100 O   0  0  0  0  0  1  0  0  0  0  0  0
  182.0410  175.1060  136.4420 C   0  0  1  0  0  3  0  0  0  0  0  0
  180.0040  177.5290  141.6210 Cl  0  0  0  0  0  0  0  0  0  0  0  0
  181.9860  176.9590  138.1350 C   0  0  0  0  0  3  0  0  0  0  0  0
  180.6310  174.9870  138.5220 C   0  0  0  0  0  0  0  0  0  0  0  0
  180.5990  176.8250  140.1180 C   0  0  0  0  0  0  0  0  0  0  0  0
  180.2420  173.7480  138.1270 F   0  0  0  0  0  0  0  0  0  0  0  0
  181.5460  175.6950  137.7280 C   0  0  0  0  0  0  0  0  0  0  0  0
  180.1380  175.5560  139.7190 C   0  0  0  0  0  0  0  0  0  0  0  0
  181.5250  177.5230  139.3250 C   0  0  0  0  0  0  0  0  0  0  0  0
  179.4760  173.7600  141.3300 C   0  0  0  0  0  1  0  0  0  0  0  0
  179.1990  174.9070  140.5360 O   0  0  0  0  0  0  0  0  0  0  0  0
  182.0260  178.8760  139.7190 C   0  0  0  0  0  2  0  0  0  0  0  0
  180.0660  180.8610  140.1260 C   0  0  0  0  0  1  0  0  0  0  0  0
  181.1170  180.1640  138.8440 S   0  0  2  0  0  0  0  0  0  0  0  0
  180.1360  179.3860  137.9780 O   0  0  0  0  0  0  0  0  0  0  0  0
  185.4890  173.2880  136.3580 C   0  0  0  0  0  2  0  0  0  0  0  0
  185.6030  172.5600  135.0280 C   0  0  0  0  0  2  0  0  0  0  0  0
  186.8630  171.8410  134.9590 N   0  0  0  0  0  1  0  0  0  0  0  0
  1 17  1  1  0  0  0
  2 32  1  6  0  0  0
  2  1  1  0  0  0  0
  3 10  1  6  0  0  0
  3  2  1  0  0  0  0
  3  1  1  0  0  0  0
  4  7  2  0  0  0  0
  5  6  1  1  0  0  0
  7  9  1  0  0  0  0
  8  4  1  0  0  0  0
  8 11  2  0  0  0  0
  9  5  1  0  0  0  0
  9  6  1  1  0  0  0
 10 11  1  1  0  0  0
 10  5  1  0  0  0  0
 12  4  1  0  0  0  0
 13 12  1  0  0  0  0
 15 14  1  0  0  0  0
 15 19  1  0  0  0  0
 16 15  1  0  0  0  0
 17 16  1  0  0  0  0
 18 16  2  0  0  0  0
 19 21  1  0  0  0  0
 20 31  1  1  0  0  0
 20 24  1  0  0  0  0
 21 23  1  1  0  0  0
 21 20  1  0  0  0  0
 21 22  1  0  0  0  0
 22 25  1  0  0  0  0
 25 24  1  0  0  0  0
 26 28  1  0  0  0  0
 27 30  1  0  0  0  0
 28 30  2  0  0  0  0
 29 26  2  0  0  0  0
 29 31  1  0  0  0  0
 31 27  2  0  0  0  0
 32 33  1  0  0  0  0
 33 34  1  6  0  0  0
 35 37  1  0  0  0  0
 35 33  1  0  0  0  0
 37 55  1  0  0  0  0
 37 38  1  0  0  0  0
 38 36  2  0  0  0  0
 40 39  1  1  0  0  0
 40 38  1  0  0  0  0
 40 46  1  0  0  0  0
 42 48  1  0  0  0  0
 43 47  2  0  0  0  0
 44 41  1  0  0  0  0
 45 43  1  0  0  0  0
 46 42  2  0  0  0  0
 46 43  1  0  0  0  0
 47 44  1  0  0  0  0
 47 50  1  0  0  0  0
 48 51  1  0  0  0  0
 48 44  2  0  0  0  0
 50 49  1  0  0  0  0
 53 51  1  0  0  0  0
 53 52  1  1  0  0  0
 54 53  2  0  0  0  0
 56 55  1  0  0  0  0
 57 56  1  0  0  0  0
M  END
>  <MODEL>
6

>  <REMARK>
 VINA RESULT:      -6.1      2.905      8.375
  Name = 
  17 active torsions:
  status: ('A' for Active; 'I' for Inactive)
    1  A    between atoms: C_5  and  O_8
    2  A    between atoms: N_7  and  C_11
    3  A    between atoms: C_11  and  C_30
    4  A    between atoms: C_12  and  N_47
    5  A    between atoms: C_12  and  C_55
    6  A    between atoms: C_14  and  C_24
    7  A    between atoms: C_14  and  C_35
    8  A    between atoms: N_16  and  C_44
    9  A    between atoms: N_16  and  C_55
   10  A    between atoms: C_19  and  C_57
   11  A    between atoms: C_22  and  N_41
   12  A    between atoms: C_33  and  C_44
   13  A    between atoms: S_34  and  C_43
   14  A    between atoms: C_38  and  N_47
   15  A    between atoms: C_39  and  O_48
   16  A    between atoms: C_43  and  C_45
   17  A    between atoms: C_50  and  C_52
                            x       y       z     vdW  Elec       q    Type
                         _______ _______ _______ _____ _____    ______ ____

>  <TORSDO>
F 17

$$$$
=
 OpenBabel10222417333D

 57 62  0  0  1  0  0  0  0  0999 V2000
  189.3060  174.5950  136.2050 C   0  0  1  0  0  3  0  0  0  0  0  0
  189.7330  176.0110  136.5340 C   0  0  1  0  0  3  0  0  0  0  0  0
  188.9630  175.7170  135.2430 C   0  0  2  0  0  3  0  0  0  0  0  0
  184.9220  176.2640  137.3310 C   0  0  0  0  0  0  0  0  0  0  0  0
  187.2570  177.3400  136.0730 C   0  0  1  0  0  3  0  0  0  0  0  0
  186.8720  178.6930  135.4970 C   0  0  0  0  0  2  0  0  0  0  0  0
  185.0480  177.4420  136.7720 N   0  0  0  0  0  0  0  0  0  0  0  0
  185.6650  175.0380  136.8520 C   0  0  0  0  0  3  0  0  0  0  0  0
  185.8470  177.6020  135.5760 C   0  0  2  0  0  3  0  0  0  0  0  0
  187.4740  176.0600  135.3090 C   0  0  2  0  0  3  0  0  0  0  0  0
  186.7320  174.9360  136.0180 C   0  0  0  0  0  3  0  0  0  0  0  0
  184.0680  176.1590  138.4310 O   0  0  0  0  0  0  0  0  0  0  0  0
  182.7310  176.6330  138.4100 C   0  0  0  0  0  1  0  0  0  0  0  0
  192.6230  172.3090  134.5980 C   0  0  0  0  0  1  0  0  0  0  0  0
  192.6980  172.8440  135.9500 N   0  0  0  0  0  0  0  0  0  0  0  0
  191.6020  173.5930  136.4950 C   0  0  0  0  0  0  0  0  0  0  0  0
  190.4480  173.8600  135.6920 N   0  0  0  0  0  2  0  0  0  0  0  0
  191.6520  174.0130  137.6830 O   0  0  0  0  0  0  0  0  0  0  0  0
  193.8360  172.4720  136.7870 C   0  0  0  0  0  2  0  0  0  0  0  0
  196.2480  172.6880  137.2780 C   0  0  1  0  0  3  0  0  0  0  0  0
  195.1370  173.1530  136.3540 C   0  0  1  0  0  0  0  0  0  0  0  0
  195.5910  172.6460  134.9960 C   0  0  0  0  0  2  0  0  0  0  0  0
  194.9730  174.6700  136.2840 C   0  0  0  0  0  1  0  0  0  0  0  0
  197.3110  172.1610  136.3460 C   0  0  0  0  0  2  0  0  0  0  0  0
  196.6740  171.7630  135.1640 O   0  0  0  0  0  0  0  0  0  0  0  0
  196.5020  174.9770  140.2460 C   0  0  0  0  0  3  0  0  0  0  0  0
  198.0810  174.1740  138.1110 C   0  0  0  0  0  3  0  0  0  0  0  0
  197.7950  175.4920  140.1170 C   0  0  0  0  0  3  0  0  0  0  0  0
  196.0260  174.0930  139.3280 N   0  0  0  0  0  0  0  0  0  0  0  0
  198.5870  175.0830  139.0420 C   0  0  0  0  0  3  0  0  0  0  0  0
  196.7800  173.6910  138.2640 C   0  0  0  0  0  0  0  0  0  0  0  0
  188.8830  176.5240  137.6010 N   0  0  0  0  0  2  0  0  0  0  0  0
  189.7280  177.2930  138.4950 C   0  0  1  0  0  3  0  0  0  0  0  0
  188.9850  178.5330  138.9530 C   0  0  0  0  0  1  0  0  0  0  0  0
  190.1140  176.4210  139.6850 C   0  0  0  0  0  2  0  0  0  0  0  0
  190.8020  178.1760  142.8110 O   0  0  0  0  0  0  0  0  0  0  0  0
  190.8360  177.1940  140.6900 N   0  0  0  0  0  0  0  0  0  0  0  0
  190.2930  177.3420  142.0140 C   0  0  0  0  0  0  0  0  0  0  0  0
  189.4570  175.1780  142.5500 O   0  0  0  0  0  1  0  0  0  0  0  0
  189.1130  176.5280  142.4560 C   0  0  1  0  0  3  0  0  0  0  0  0
  186.8620  178.5770  147.7070 Cl  0  0  0  0  0  0  0  0  0  0  0  0
  189.1800  176.7130  144.9590 C   0  0  0  0  0  3  0  0  0  0  0  0
  187.3860  177.8120  143.7570 C   0  0  0  0  0  0  0  0  0  0  0  0
  187.5150  177.9780  146.1830 C   0  0  0  0  0  0  0  0  0  0  0  0
  186.7660  178.0760  142.5790 F   0  0  0  0  0  0  0  0  0  0  0  0
  188.5460  177.0240  143.7520 C   0  0  0  0  0  0  0  0  0  0  0  0
  186.8700  178.3090  144.9770 C   0  0  0  0  0  0  0  0  0  0  0  0
  188.6700  177.1770  146.1710 C   0  0  0  0  0  0  0  0  0  0  0  0
  184.4070  178.6910  144.7580 C   0  0  0  0  0  1  0  0  0  0  0  0
  185.7300  179.1270  145.0410 O   0  0  0  0  0  0  0  0  0  0  0  0
  189.3820  176.8170  147.4350 C   0  0  0  0  0  2  0  0  0  0  0  0
  191.7240  175.2510  147.5300 C   0  0  0  0  0  1  0  0  0  0  0  0
  191.1670  176.9310  147.2080 S   0  0  2  0  0  0  0  0  0  0  0  0
  191.6380  177.6930  148.4390 O   0  0  0  0  0  0  0  0  0  0  0  0
  192.0810  177.8580  140.3050 C   0  0  0  0  0  2  0  0  0  0  0  0
  193.1730  176.8370  140.0230 C   0  0  0  0  0  2  0  0  0  0  0  0
  193.5720  176.9070  138.6290 N   0  0  0  0  0  1  0  0  0  0  0  0
  1 17  1  6  0  0  0
  1  2  1  0  0  0  0
  2 32  1  1  0  0  0
  3 10  1  1  0  0  0
  3  1  1  0  0  0  0
  3  2  1  0  0  0  0
  4 12  1  0  0  0  0
  5  6  1  6  0  0  0
  7  4  2  0  0  0  0
  8  4  1  0  0  0  0
  9  6  1  1  0  0  0
  9  5  1  0  0  0  0
  9  7  1  0  0  0  0
 10 11  1  1  0  0  0
 10  5  1  0  0  0  0
 11  8  2  0  0  0  0
 13 12  1  0  0  0  0
 14 15  1  0  0  0  0
 15 16  1  0  0  0  0
 15 19  1  0  0  0  0
 16 18  2  0  0  0  0
 17 16  1  0  0  0  0
 20 31  1  6  0  0  0
 21 23  1  1  0  0  0
 21 19  1  0  0  0  0
 21 20  1  0  0  0  0
 22 25  1  0  0  0  0
 22 21  1  0  0  0  0
 24 20  1  0  0  0  0
 25 24  1  0  0  0  0
 27 31  2  0  0  0  0
 27 30  1  0  0  0  0
 28 26  1  0  0  0  0
 29 26  2  0  0  0  0
 30 28  2  0  0  0  0
 31 29  1  0  0  0  0
 32 33  1  0  0  0  0
 33 34  1  1  0  0  0
 33 35  1  0  0  0  0
 35 37  1  0  0  0  0
 37 38  1  0  0  0  0
 38 40  1  0  0  0  0
 38 36  2  0  0  0  0
 40 39  1  1  0  0  0
 40 46  1  0  0  0  0
 42 48  1  0  0  0  0
 43 47  2  0  0  0  0
 44 41  1  0  0  0  0
 45 43  1  0  0  0  0
 46 43  1  0  0  0  0
 46 42  2  0  0  0  0
 47 50  1  0  0  0  0
 47 44  1  0  0  0  0
 48 44  2  0  0  0  0
 48 51  1  0  0  0  0
 49 50  1  0  0  0  0
 53 51  1  0  0  0  0
 53 52  1  1  0  0  0
 53 54  2  0  0  0  0
 55 37  1  0  0  0  0
 56 55  1  0  0  0  0
 57 56  1  0  0  0  0
M  END
>  <MODEL>
7

>  <REMARK>
 VINA RESULT:      -6.0      4.236      8.988
  Name = 
  17 active torsions:
  status: ('A' for Active; 'I' for Inactive)
    1  A    between atoms: C_5  and  O_8
    2  A    between atoms: N_7  and  C_11
    3  A    between atoms: C_11  and  C_30
    4  A    between atoms: C_12  and  N_47
    5  A    between atoms: C_12  and  C_55
    6  A    between atoms: C_14  and  C_24
    7  A    between atoms: C_14  and  C_35
    8  A    between atoms: N_16  and  C_44
    9  A    between atoms: N_16  and  C_55
   10  A    between atoms: C_19  and  C_57
   11  A    between atoms: C_22  and  N_41
   12  A    between atoms: C_33  and  C_44
   13  A    between atoms: S_34  and  C_43
   14  A    between atoms: C_38  and  N_47
   15  A    between atoms: C_39  and  O_48
   16  A    between atoms: C_43  and  C_45
   17  A    between atoms: C_50  and  C_52
                            x       y       z     vdW  Elec       q    Type
                         _______ _______ _______ _____ _____    ______ ____

>  <TORSDO>
F 17

$$$$
=
 OpenBabel10222417333D

 57 62  0  0  1  0  0  0  0  0999 V2000
  185.3410  178.0120  137.4220 C   0  0  1  0  0  3  0  0  0  0  0  0
  185.4120  177.2580  138.7340 C   0  0  1  0  0  3  0  0  0  0  0  0
  185.5460  176.5090  137.4050 C   0  0  2  0  0  3  0  0  0  0  0  0
  188.8050  174.0340  135.3460 C   0  0  0  0  0  0  0  0  0  0  0  0
  187.2270  176.4120  135.5620 C   0  0  1  0  0  3  0  0  0  0  0  0
  188.0390  177.5450  134.9550 C   0  0  0  0  0  2  0  0  0  0  0  0
  189.0990  175.2230  134.8830 N   0  0  0  0  0  0  0  0  0  0  0  0
  187.9990  173.8130  136.6060 C   0  0  0  0  0  3  0  0  0  0  0  0
  188.7430  176.4080  135.6330 C   0  0  2  0  0  3  0  0  0  0  0  0
  186.9840  176.1560  137.0260 C   0  0  2  0  0  3  0  0  0  0  0  0
  187.2320  174.6820  137.3130 C   0  0  0  0  0  3  0  0  0  0  0  0
  189.2520  172.9280  134.6180 O   0  0  0  0  0  0  0  0  0  0  0  0
  188.6130  171.6630  134.6790 C   0  0  0  0  0  1  0  0  0  0  0  0
  181.2250  178.8830  136.3650 C   0  0  0  0  0  1  0  0  0  0  0  0
  181.8330  179.5380  137.5140 N   0  0  0  0  0  0  0  0  0  0  0  0
  183.1970  179.2650  137.8660 C   0  0  0  0  0  0  0  0  0  0  0  0
  183.9520  178.3070  137.1170 N   0  0  0  0  0  2  0  0  0  0  0  0
  183.7340  179.8710  138.8320 O   0  0  0  0  0  0  0  0  0  0  0  0
  181.0830  180.5870  138.1990 C   0  0  0  0  0  2  0  0  0  0  0  0
  180.6000  179.3060  140.2560 C   0  0  1  0  0  3  0  0  0  0  0  0
  179.9640  180.0330  139.0850 C   0  0  1  0  0  0  0  0  0  0  0  0
  179.1960  181.1570  139.7600 C   0  0  0  0  0  2  0  0  0  0  0  0
  178.9850  179.1840  138.2760 C   0  0  0  0  0  1  0  0  0  0  0  0
  179.9720  179.9410  141.4720 C   0  0  0  0  0  2  0  0  0  0  0  0
  179.5730  181.2340  141.1130 O   0  0  0  0  0  0  0  0  0  0  0  0
  181.4000  175.6810  139.6860 C   0  0  0  0  0  3  0  0  0  0  0  0
  179.4410  177.1950  140.9360 C   0  0  0  0  0  3  0  0  0  0  0  0
  180.3470  175.0350  140.3390 C   0  0  0  0  0  3  0  0  0  0  0  0
  181.4580  177.0390  139.6640 N   0  0  0  0  0  0  0  0  0  0  0  0
  179.3640  175.8020  140.9680 C   0  0  0  0  0  3  0  0  0  0  0  0
  180.5000  177.8060  140.2630 C   0  0  0  0  0  0  0  0  0  0  0  0
  186.6970  177.5320  139.3660 N   0  0  0  0  0  2  0  0  0  0  0  0
  186.4720  178.5430  140.3820 C   0  0  1  0  0  3  0  0  0  0  0  0
  185.0050  178.5560  140.7670 C   0  0  0  0  0  1  0  0  0  0  0  0
  187.3480  178.2330  141.5920 C   0  0  0  0  0  2  0  0  0  0  0  0
  190.9250  177.5290  141.7780 O   0  0  0  0  0  0  0  0  0  0  0  0
  188.7610  178.2210  141.2280 N   0  0  0  0  0  0  0  0  0  0  0  0
  189.6840  177.3840  141.9470 C   0  0  0  0  0  0  0  0  0  0  0  0
  189.9000  175.1560  142.7600 O   0  0  0  0  0  1  0  0  0  0  0  0
  189.1900  176.3480  142.9140 C   0  0  1  0  0  3  0  0  0  0  0  0
  189.4410  178.2500  148.6730 Cl  0  0  0  0  0  0  0  0  0  0  0  0
  188.1210  177.3590  144.9490 C   0  0  0  0  0  3  0  0  0  0  0  0
  190.4620  176.7390  145.0480 C   0  0  0  0  0  0  0  0  0  0  0  0
  189.3680  177.7010  146.9990 C   0  0  0  0  0  0  0  0  0  0  0  0
  191.5630  176.2530  144.4220 F   0  0  0  0  0  0  0  0  0  0  0  0
  189.2590  176.8300  144.3320 C   0  0  0  0  0  0  0  0  0  0  0  0
  190.5200  177.1610  146.3970 C   0  0  0  0  0  0  0  0  0  0  0  0
  188.1700  177.8010  146.2710 C   0  0  0  0  0  0  0  0  0  0  0  0
  192.2040  175.8560  147.7070 C   0  0  0  0  0  1  0  0  0  0  0  0
  191.6870  177.0670  147.1710 O   0  0  0  0  0  0  0  0  0  0  0  0
  186.9280  178.3610  146.8870 C   0  0  0  0  0  2  0  0  0  0  0  0
  185.4240  179.3130  144.7010 C   0  0  0  0  0  1  0  0  0  0  0  0
  185.4870  177.9570  145.8800 S   0  0  2  0  0  0  0  0  0  0  0  0
  184.3120  178.2470  146.8030 O   0  0  0  0  0  0  0  0  0  0  0  0
  189.2200  179.1150  140.1670 C   0  0  0  0  0  2  0  0  0  0  0  0
  189.4430  178.3490  138.8720 C   0  0  0  0  0  2  0  0  0  0  0  0
  189.1300  179.1930  137.7330 N   0  0  0  0  0  1  0  0  0  0  0  0
  1 17  1  6  0  0  0
  1  2  1  0  0  0  0
  2 32  1  1  0  0  0
  3 10  1  1  0  0  0
  3  1  1  0  0  0  0
  3  2  1  0  0  0  0
  4  8  1  0  0  0  0
  5  6  1  1  0  0  0
  5  9  1  0  0  0  0
  5 10  1  0  0  0  0
  7  4  2  0  0  0  0
  7  9  1  0  0  0  0
  8 11  2  0  0  0  0
  9  6  1  6  0  0  0
 10 11  1  6  0  0  0
 12 13  1  0  0  0  0
 12  4  1  0  0  0  0
 14 15  1  0  0  0  0
 15 16  1  0  0  0  0
 15 19  1  0  0  0  0
 16 18  2  0  0  0  0
 17 16  1  0  0  0  0
 19 21  1  0  0  0  0
 20 31  1  6  0  0  0
 20 24  1  0  0  0  0
 21 23  1  6  0  0  0
 21 22  1  0  0  0  0
 21 20  1  0  0  0  0
 22 25  1  0  0  0  0
 25 24  1  0  0  0  0
 26 28  1  0  0  0  0
 27 30  1  0  0  0  0
 28 30  2  0  0  0  0
 29 26  2  0  0  0  0
 29 31  1  0  0  0  0
 31 27  2  0  0  0  0
 32 33  1  0  0  0  0
 33 34  1  1  0  0  0
 33 35  1  0  0  0  0
 36 38  2  0  0  0  0
 37 35  1  0  0  0  0
 37 38  1  0  0  0  0
 38 40  1  0  0  0  0
 40 39  1  1  0  0  0
 40 46  1  0  0  0  0
 42 48  1  0  0  0  0
 43 47  2  0  0  0  0
 44 41  1  0  0  0  0
 45 43  1  0  0  0  0
 46 42  2  0  0  0  0
 46 43  1  0  0  0  0
 47 44  1  0  0  0  0
 47 50  1  0  0  0  0
 48 51  1  0  0  0  0
 48 44  2  0  0  0  0
 50 49  1  0  0  0  0
 53 52  1  6  0  0  0
 53 54  2  0  0  0  0
 53 51  1  0  0  0  0
 55 37  1  0  0  0  0
 56 55  1  0  0  0  0
 57 56  1  0  0  0  0
M  END
>  <MODEL>
8

>  <REMARK>
 VINA RESULT:      -5.8      4.496     11.132
  Name = 
  17 active torsions:
  status: ('A' for Active; 'I' for Inactive)
    1  A    between atoms: C_5  and  O_8
    2  A    between atoms: N_7  and  C_11
    3  A    between atoms: C_11  and  C_30
    4  A    between atoms: C_12  and  N_47
    5  A    between atoms: C_12  and  C_55
    6  A    between atoms: C_14  and  C_24
    7  A    between atoms: C_14  and  C_35
    8  A    between atoms: N_16  and  C_44
    9  A    between atoms: N_16  and  C_55
   10  A    between atoms: C_19  and  C_57
   11  A    between atoms: C_22  and  N_41
   12  A    between atoms: C_33  and  C_44
   13  A    between atoms: S_34  and  C_43
   14  A    between atoms: C_38  and  N_47
   15  A    between atoms: C_39  and  O_48
   16  A    between atoms: C_43  and  C_45
   17  A    between atoms: C_50  and  C_52
                            x       y       z     vdW  Elec       q    Type
                         _______ _______ _______ _____ _____    ______ ____

>  <TORSDO>
F 17

$$$$
=
 OpenBabel10222417333D

 57 62  0  0  1  0  0  0  0  0999 V2000
  185.8040  178.5080  137.9310 C   0  0  1  0  0  3  0  0  0  0  0  0
  186.0210  177.7830  139.2430 C   0  0  1  0  0  3  0  0  0  0  0  0
  186.1700  177.0360  137.9150 C   0  0  2  0  0  3  0  0  0  0  0  0
  189.5400  175.0340  135.5430 C   0  0  0  0  0  0  0  0  0  0  0  0
  187.7910  177.2470  136.0270 C   0  0  1  0  0  3  0  0  0  0  0  0
  188.4910  178.4930  135.5110 C   0  0  0  0  0  2  0  0  0  0  0  0
  189.7260  176.2810  135.1890 N   0  0  0  0  0  0  0  0  0  0  0  0
  188.7960  174.6330  136.7970 C   0  0  0  0  0  3  0  0  0  0  0  0
  189.3040  177.3580  136.0580 C   0  0  2  0  0  3  0  0  0  0  0  0
  187.6180  176.8370  137.4670 C   0  0  2  0  0  3  0  0  0  0  0  0
  187.9880  175.3670  137.6040 C   0  0  0  0  0  3  0  0  0  0  0  0
  190.0470  174.0410  134.7020 O   0  0  0  0  0  0  0  0  0  0  0  0
  189.9820  172.6600  135.0220 C   0  0  0  0  0  1  0  0  0  0  0  0
  181.5700  178.9130  137.0770 C   0  0  0  0  0  1  0  0  0  0  0  0
  182.1590  179.6420  138.1910 N   0  0  0  0  0  0  0  0  0  0  0  0
  183.5600  179.5240  138.4760 C   0  0  0  0  0  0  0  0  0  0  0  0
  184.3780  178.6470  137.6950 N   0  0  0  0  0  2  0  0  0  0  0  0
  184.0740  180.1940  139.4120 O   0  0  0  0  0  0  0  0  0  0  0  0
  181.3320  180.6100  138.9080 C   0  0  0  0  0  2  0  0  0  0  0  0
  180.9110  178.9470  140.6870 C   0  0  1  0  0  3  0  0  0  0  0  0
  180.2450  179.9460  139.7570 C   0  0  1  0  0  0  0  0  0  0  0  0
  179.6220  180.9420  140.7200 C   0  0  0  0  0  2  0  0  0  0  0  0
  179.1430  179.3520  138.8830 C   0  0  0  0  0  1  0  0  0  0  0  0
  180.4300  179.3420  142.0610 C   0  0  0  0  0  2  0  0  0  0  0  0
  180.1070  180.7040  142.0190 O   0  0  0  0  0  0  0  0  0  0  0  0
  181.5250  175.4060  139.5960 C   0  0  0  0  0  3  0  0  0  0  0  0
  179.4750  176.8980  140.7220 C   0  0  0  0  0  3  0  0  0  0  0  0
  180.3130  174.7830  139.9040 C   0  0  0  0  0  3  0  0  0  0  0  0
  181.6920  176.7330  139.8450 N   0  0  0  0  0  0  0  0  0  0  0  0
  179.2840  175.5380  140.4730 C   0  0  0  0  0  3  0  0  0  0  0  0
  180.6950  177.4890  140.3880 C   0  0  0  0  0  0  0  0  0  0  0  0
  187.2980  178.2030  139.8070 N   0  0  0  0  0  2  0  0  0  0  0  0
  187.0100  178.9820  140.9970 C   0  0  1  0  0  3  0  0  0  0  0  0
  185.7640  178.4360  141.6700 C   0  0  0  0  0  1  0  0  0  0  0  0
  188.2080  178.9130  141.9380 C   0  0  0  0  0  2  0  0  0  0  0  0
  190.0820  175.7800  141.9980 O   0  0  0  0  0  0  0  0  0  0  0  0
  189.1390  177.8670  141.5270 N   0  0  0  0  0  0  0  0  0  0  0  0
  189.1460  176.5990  142.2060 C   0  0  0  0  0  0  0  0  0  0  0  0
  187.8920  174.8580  143.2390 O   0  0  0  0  0  1  0  0  0  0  0  0
  188.0610  176.2430  143.1800 C   0  0  1  0  0  3  0  0  0  0  0  0
  189.1650  178.5690  148.6760 Cl  0  0  0  0  0  0  0  0  0  0  0  0
  189.6240  176.7930  145.0650 C   0  0  0  0  0  3  0  0  0  0  0  0
  187.2790  177.3580  145.2940 C   0  0  0  0  0  0  0  0  0  0  0  0
  188.8450  177.8890  147.0810 C   0  0  0  0  0  0  0  0  0  0  0  0
  186.0220  177.3310  144.7840 F   0  0  0  0  0  0  0  0  0  0  0  0
  188.3270  176.8050  144.5430 C   0  0  0  0  0  0  0  0  0  0  0  0
  187.5350  177.9200  146.5670 C   0  0  0  0  0  0  0  0  0  0  0  0
  189.8880  177.3230  146.3290 C   0  0  0  0  0  0  0  0  0  0  0  0
  185.2320  178.8450  146.8800 C   0  0  0  0  0  1  0  0  0  0  0  0
  186.5320  178.5130  147.3490 O   0  0  0  0  0  0  0  0  0  0  0  0
  191.2900  177.2850  146.8450 C   0  0  0  0  0  2  0  0  0  0  0  0
  193.0870  175.8780  148.4990 C   0  0  0  0  0  1  0  0  0  0  0  0
  191.7340  175.6100  147.3460 S   0  0  2  0  0  0  0  0  0  0  0  0
  192.4320  175.0420  146.1190 O   0  0  0  0  0  0  0  0  0  0  0  0
  190.0950  178.1580  140.4590 C   0  0  0  0  0  2  0  0  0  0  0  0
  190.8140  176.8920  140.0170 C   0  0  0  0  0  2  0  0  0  0  0  0
  192.0630  177.2320  139.3600 N   0  0  0  0  0  1  0  0  0  0  0  0
  1 17  1  1  0  0  0
  1  2  1  0  0  0  0
  2 32  1  6  0  0  0
  3 10  1  6  0  0  0
  3  1  1  0  0  0  0
  3  2  1  0  0  0  0
  4  8  1  0  0  0  0
  5  6  1  1  0  0  0
  5  9  1  0  0  0  0
  5 10  1  0  0  0  0
  7  4  2  0  0  0  0
  7  9  1  0  0  0  0
  8 11  2  0  0  0  0
  9  6  1  6  0  0  0
 10 11  1  6  0  0  0
 12 13  1  0  0  0  0
 12  4  1  0  0  0  0
 14 15  1  0  0  0  0
 15 16  1  0  0  0  0
 15 19  1  0  0  0  0
 16 18  2  0  0  0  0
 17 16  1  0  0  0  0
 19 21  1  0  0  0  0
 20 31  1  6  0  0  0
 20 24  1  0  0  0  0
 21 23  1  6  0  0  0
 21 20  1  0  0  0  0
 21 22  1  0  0  0  0
 22 25  1  0  0  0  0
 25 24  1  0  0  0  0
 26 29  2  0  0  0  0
 26 28  1  0  0  0  0
 28 30  2  0  0  0  0
 29 31  1  0  0  0  0
 30 27  1  0  0  0  0
 31 27  2  0  0  0  0
 32 33  1  0  0  0  0
 33 34  1  1  0  0  0
 33 35  1  0  0  0  0
 36 38  2  0  0  0  0
 37 35  1  0  0  0  0
 37 38  1  0  0  0  0
 38 40  1  0  0  0  0
 40 39  1  1  0  0  0
 40 46  1  0  0  0  0
 42 48  1  0  0  0  0
 43 47  2  0  0  0  0
 44 41  1  0  0  0  0
 45 43  1  0  0  0  0
 46 42  2  0  0  0  0
 46 43  1  0  0  0  0
 47 44  1  0  0  0  0
 47 50  1  0  0  0  0
 48 51  1  0  0  0  0
 48 44  2  0  0  0  0
 49 50  1  0  0  0  0
 51 53  1  0  0  0  0
 53 52  1  1  0  0  0
 54 53  2  0  0  0  0
 55 37  1  0  0  0  0
 56 55  1  0  0  0  0
 57 56  1  0  0  0  0
M  END
>  <MODEL>
9

>  <REMARK>
 VINA RESULT:      -5.7      4.393     11.016
  Name = 
  17 active torsions:
  status: ('A' for Active; 'I' for Inactive)
    1  A    between atoms: C_5  and  O_8
    2  A    between atoms: N_7  and  C_11
    3  A    between atoms: C_11  and  C_30
    4  A    between atoms: C_12  and  N_47
    5  A    between atoms: C_12  and  C_55
    6  A    between atoms: C_14  and  C_24
    7  A    between atoms: C_14  and  C_35
    8  A    between atoms: N_16  and  C_44
    9  A    between atoms: N_16  and  C_55
   10  A    between atoms: C_19  and  C_57
   11  A    between atoms: C_22  and  N_41
   12  A    between atoms: C_33  and  C_44
   13  A    between atoms: S_34  and  C_43
   14  A    between atoms: C_38  and  N_47
   15  A    between atoms: C_39  and  O_48
   16  A    between atoms: C_43  and  C_45
   17  A    between atoms: C_50  and  C_52
                            x       y       z     vdW  Elec       q    Type
                         _______ _______ _______ _____ _____    ______ ____

>  <TORSDO>
F 17

$$$$
