=
 OpenBabel10222420293D

 63 64  0  0  1  0  0  0  0  0999 V2000
  188.4520  177.6300  139.0790 C   0  0  1  0  0  0  0  0  0  0  0  0
  188.4360  176.1370  139.3890 C   0  0  0  0  0  1  0  0  0  0  0  0
  188.7970  177.8390  137.6040 C   0  0  0  0  0  2  0  0  0  0  0  0
  190.2360  177.9390  137.3950 N   0  0  0  0  0  2  0  0  0  0  0  0
  190.5720  176.9610  136.3690 C   0  0  0  0  0  2  0  0  0  0  0  0
  191.6570  176.0100  136.8590 C   0  0  1  0  0  3  0  0  0  0  0  0
  193.7380  176.0450  138.0290 O   0  0  0  0  0  1  0  0  0  0  0  0
  192.4800  176.6450  137.9700 C   0  0  0  0  0  2  0  0  0  0  0  0
  191.0570  174.6860  137.3160 C   0  0  0  0  0  2  0  0  0  0  0  0
  191.3390  173.5960  136.2890 C   0  0  2  0  0  3  0  0  0  0  0  0
  190.3250  172.6350  136.3140 O   0  0  0  0  0  0  0  0  0  0  0  0
  189.1430  173.3670  136.4360 C   0  0  0  0  0  2  0  0  0  0  0  0
  187.9860  172.4370  136.7570 C   0  0  0  0  0  2  0  0  0  0  0  0
  186.6980  172.9660  136.1540 C   0  0  0  0  0  1  0  0  0  0  0  0
  192.7150  172.9540  136.5090 C   0  0  0  0  0  2  0  0  0  0  0  0
  193.6880  173.1820  135.3840 C   0  0  0  0  0  0  0  0  0  0  0  0
  194.7620  172.2670  135.1530 N   0  0  0  0  0  2  0  0  0  0  0  0
  193.5270  174.1490  134.5940 O   0  0  0  0  0  0  0  0  0  0  0  0
  194.9860  171.0970  135.9870 C   0  0  0  0  0  1  0  0  0  0  0  0
  187.0780  178.2240  139.3970 C   0  0  0  0  0  2  0  0  0  0  0  0
  186.4110  178.6920  138.1840 N   0  0  0  0  0  2  0  0  0  0  0  0
  181.9590  177.1590  136.8360 C   0  0  0  0  0  0  0  0  0  0  0  0
  183.9420  176.4290  135.6630 C   0  0  0  0  0  3  0  0  0  0  0  0
  185.0240  178.6420  138.4090 N   0  0  0  0  0  0  0  0  0  0  0  0
  182.5510  176.4230  135.8060 C   0  0  0  0  0  3  0  0  0  0  0  0
  182.7790  177.8780  137.7120 C   0  0  0  0  0  3  0  0  0  0  0  0
  184.7120  177.1450  136.5260 N   0  0  0  0  0  0  0  0  0  0  0  0
  184.1710  177.8720  137.5410 C   0  0  0  0  0  0  0  0  0  0  0  0
  179.7400  177.2260  136.0280 O   0  0  0  0  0  0  0  0  0  0  0  0
  180.4120  176.3960  139.4610 C   0  0  0  0  0  0  0  0  0  0  0  0
  181.3510  175.5680  139.3210 O   0  0  0  0  0  0  0  0  0  0  0  0
  180.4950  177.1580  137.0340 C   0  0  0  0  0  0  0  0  0  0  0  0
  179.9000  177.1180  138.3370 N   0  0  0  0  0  2  0  0  0  0  0  0
  179.7720  176.5630  140.7980 C   0  0  0  0  0  2  0  0  0  0  0  0
  180.3000  177.8040  141.4970 C   0  0  0  0  0  2  0  0  0  0  0  0
  179.1710  178.7820  141.7600 C   0  0  0  0  0  2  0  0  0  0  0  0
  179.8890  178.2310  144.2400 C   0  0  0  0  0  1  0  0  0  0  0  0
  179.4960  179.7260  143.2810 S   0  0  0  0  0  0  0  0  0  0  0  0
  183.7920  180.5590  138.9370 O   0  0  0  0  0  1  0  0  0  0  0  0
  184.4710  179.4680  139.4770 C   0  0  0  0  0  2  0  0  0  0  0  0
  189.5520  178.3010  139.9010 C   0  0  0  0  0  2  0  0  0  0  0  0
  189.2890  178.2820  141.4040 C   0  0  0  0  0  2  0  0  0  0  0  0
  190.2160  176.2680  142.5770 C   0  0  0  0  0  0  0  0  0  0  0  0
  189.0550  175.7920  142.7300 O   0  0  0  0  0  0  0  0  0  0  0  0
  190.3870  177.5960  142.0700 N   0  0  0  0  0  0  0  0  0  0  0  0
  191.6260  178.1350  142.0210 O   0  0  0  0  0  1  0  0  0  0  0  0
  191.3420  175.4900  142.8560 O   0  0  0  0  0  0  0  0  0  0  0  0
  190.5070  176.3650  146.1550 C   0  0  0  0  0  0  0  0  0  0  0  0
  191.8360  175.3590  144.1490 C   0  0  0  0  0  3  0  0  0  0  0  0
  191.1710  175.8490  145.1550 C   0  0  0  0  0  0  0  0  0  0  0  0
  191.7680  177.2310  148.1140 C   0  0  0  0  0  1  0  0  0  0  0  0
  190.9620  176.2440  147.4750 O   0  0  0  0  0  0  0  0  0  0  0  0
  189.2850  177.0500  145.8850 N   0  0  0  0  0  2  0  0  0  0  0  0
  186.1430  178.3830  147.1360 N   0  0  0  0  0  2  0  0  0  0  0  0
  188.4970  178.4980  147.6790 C   0  0  0  0  0  2  0  0  0  0  0  0
  186.8640  177.4240  146.3000 C   0  0  2  0  0  3  0  0  0  0  0  0
  188.2550  177.2370  146.8990 C   0  0  1  0  0  3  0  0  0  0  0  0
  187.1110  178.9530  148.0770 C   0  0  0  0  0  2  0  0  0  0  0  0
  186.8350  177.8590  144.8240 C   0  0  1  0  0  3  0  0  0  0  0  0
  186.7520  176.7380  144.0000 O   0  0  0  0  0  1  0  0  0  0  0  0
  183.4030  179.2880  143.8920 C   0  0  0  0  0  1  0  0  0  0  0  0
  184.5070  178.3380  144.1950 C   0  0  0  0  0  3  0  0  0  0  0  0
  185.7110  178.8020  144.5210 C   0  0  0  0  0  3  0  0  0  0  0  0
  1  2  1  1  0  0  0
  1 20  1  0  0  0  0
  1 41  1  0  0  0  0
  3  1  1  0  0  0  0
  4  3  1  0  0  0  0
  5  4  1  0  0  0  0
  6  5  1  1  0  0  0
  6  9  1  0  0  0  0
  6  8  1  0  0  0  0
  8  7  1  0  0  0  0
 10 11  1  0  0  0  0
 10 15  1  1  0  0  0
 10  9  1  0  0  0  0
 11 12  1  0  0  0  0
 12 13  1  0  0  0  0
 14 13  1  0  0  0  0
 16 15  1  0  0  0  0
 17 16  1  0  0  0  0
 17 19  1  0  0  0  0
 18 16  2  0  0  0  0
 21 24  1  0  0  0  0
 21 20  1  0  0  0  0
 22 32  1  0  0  0  0
 22 26  1  0  0  0  0
 23 25  1  0  0  0  0
 23 27  2  0  0  0  0
 24 40  1  0  0  0  0
 25 22  2  0  0  0  0
 27 28  1  0  0  0  0
 28 26  2  0  0  0  0
 28 24  1  0  0  0  0
 29 32  2  0  0  0  0
 30 34  1  0  0  0  0
 31 30  2  0  0  0  0
 32 33  1  0  0  0  0
 33 30  1  0  0  0  0
 34 35  1  0  0  0  0
 35 36  1  0  0  0  0
 36 38  1  0  0  0  0
 38 37  1  0  0  0  0
 39 40  1  0  0  0  0
 41 42  1  0  0  0  0
 42 45  1  0  0  0  0
 43 44  2  0  0  0  0
 43 47  1  0  0  0  0
 45 43  1  0  0  0  0
 46 45  1  0  0  0  0
 47 49  1  0  0  0  0
 48 52  1  0  0  0  0
 49 50  2  0  0  0  0
 50 48  2  0  0  0  0
 52 51  1  0  0  0  0
 53 48  1  0  0  0  0
 54 58  1  0  0  0  0
 55 58  1  0  0  0  0
 56 59  1  6  0  0  0
 56 57  1  0  0  0  0
 56 54  1  0  0  0  0
 57 53  1  6  0  0  0
 57 55  1  0  0  0  0
 59 60  1  6  0  0  0
 61 62  1  0  0  0  0
 62 63  2  0  0  0  0
 63 59  1  0  0  0  0
M  END
>  <MODEL>
1

>  <REMARK>
 VINA RESULT:      -4.3      0.000      0.000
  Name = 
  31 active torsions:
  status: ('A' for Active; 'I' for Inactive)
    1  A    between atoms: C_1  and  N_12
    2  A    between atoms: C_1  and  C_22
    3  A    between atoms: C_2  and  C_22
    4  A    between atoms: C_2  and  C_35
    5  A    between atoms: C_2  and  C_44
    6  A    between atoms: C_3  and  N_37
    7  A    between atoms: C_3  and  O_40
    8  A    between atoms: C_5  and  O_42
    9  A    between atoms: O_7  and  C_18
   10  A    between atoms: O_7  and  C_20
   11  A    between atoms: C_9  and  C_36
   12  A    between atoms: N_10  and  C_33
   13  A    between atoms: N_10  and  C_44
   14  A    between atoms: C_13  and  C_29
   15  A    between atoms: C_13  and  C_54
   16  A    between atoms: C_15  and  C_39
   17  A    between atoms: N_17  and  C_35
   18  A    between atoms: N_17  and  N_48
   19  A    between atoms: C_18  and  C_36
   20  A    between atoms: C_18  and  C_57
   21  A    between atoms: C_19  and  N_48
   22  A    between atoms: C_20  and  C_47
   23  A    between atoms: C_24  and  C_46
   24  A    between atoms: C_29  and  C_31
   25  A    between atoms: C_30  and  O_42
   26  A    between atoms: C_33  and  C_53
   27  A    between atoms: N_37  and  C_51
   28  A    between atoms: C_38  and  C_39
   29  A    between atoms: C_45  and  C_53
   30  A    between atoms: C_53  and  C_57
   31  A    between atoms: C_54  and  S_55
                            x       y       z     vdW  Elec       q    Type
                         _______ _______ _______ _____ _____    ______ ____

>  <TORSDO>
F 31

$$$$
=
 OpenBabel10222420293D

 63 64  0  0  1  0  0  0  0  0999 V2000
  190.0350  176.1350  137.6390 C   0  0  1  0  0  0  0  0  0  0  0  0
  189.6170  174.9180  138.4570 C   0  0  0  0  0  1  0  0  0  0  0  0
  190.8860  175.6830  136.4530 C   0  0  0  0  0  2  0  0  0  0  0  0
  192.0060  176.5860  136.2160 N   0  0  0  0  0  2  0  0  0  0  0  0
  192.9090  175.8930  135.3090 C   0  0  0  0  0  2  0  0  0  0  0  0
  193.2260  174.4930  135.8190 C   0  0  1  0  0  3  0  0  0  0  0  0
  192.1720  172.3570  135.6600 O   0  0  0  0  0  1  0  0  0  0  0  0
  192.6400  173.4310  134.9020 C   0  0  0  0  0  2  0  0  0  0  0  0
  194.7290  174.2990  135.9850 C   0  0  0  0  0  2  0  0  0  0  0  0
  195.0380  173.7180  137.3580 C   0  0  2  0  0  3  0  0  0  0  0  0
  195.2580  174.7450  138.2800 O   0  0  0  0  0  0  0  0  0  0  0  0
  196.0340  174.1630  139.2830 C   0  0  0  0  0  2  0  0  0  0  0  0
  196.8450  175.2300  139.9970 C   0  0  0  0  0  2  0  0  0  0  0  0
  198.3210  175.0700  139.6840 C   0  0  0  0  0  1  0  0  0  0  0  0
  196.2320  172.7550  137.3090 C   0  0  0  0  0  2  0  0  0  0  0  0
  196.1360  171.7090  136.2320 C   0  0  0  0  0  0  0  0  0  0  0  0
  197.1210  171.6330  135.1990 N   0  0  0  0  0  2  0  0  0  0  0  0
  195.2190  170.8450  136.2680 O   0  0  0  0  0  0  0  0  0  0  0  0
  198.2390  172.5590  135.1150 C   0  0  0  0  0  1  0  0  0  0  0  0
  188.7810  176.8670  137.1520 C   0  0  0  0  0  2  0  0  0  0  0  0
  188.1420  176.1450  136.0540 N   0  0  0  0  0  2  0  0  0  0  0  0
  183.6600  174.5070  137.1530 C   0  0  0  0  0  0  0  0  0  0  0  0
  185.6240  173.1670  137.5890 C   0  0  0  0  0  3  0  0  0  0  0  0
  186.7570  176.3650  136.1420 N   0  0  0  0  0  0  0  0  0  0  0  0
  184.2340  173.3180  137.6160 C   0  0  0  0  0  3  0  0  0  0  0  0
  184.4960  175.5250  136.6840 C   0  0  0  0  0  3  0  0  0  0  0  0
  186.4100  174.1720  137.1190 N   0  0  0  0  0  0  0  0  0  0  0  0
  185.8870  175.3420  136.6620 C   0  0  0  0  0  0  0  0  0  0  0  0
  181.4430  173.8520  136.6610 O   0  0  0  0  0  0  0  0  0  0  0  0
  182.0900  176.5700  138.9240 C   0  0  0  0  0  0  0  0  0  0  0  0
  182.9930  176.0650  139.6430 O   0  0  0  0  0  0  0  0  0  0  0  0
  182.1980  174.7130  137.1870 C   0  0  0  0  0  0  0  0  0  0  0  0
  181.6040  175.8820  137.7680 N   0  0  0  0  0  2  0  0  0  0  0  0
  181.4600  177.8590  139.3320 C   0  0  0  0  0  2  0  0  0  0  0  0
  182.0680  179.0220  138.5660 C   0  0  0  0  0  2  0  0  0  0  0  0
  181.1800  179.4060  137.3970 C   0  0  0  0  0  2  0  0  0  0  0  0
  179.9510  181.1530  135.8470 C   0  0  0  0  0  1  0  0  0  0  0  0
  180.7750  181.1780  137.4680 S   0  0  0  0  0  0  0  0  0  0  0  0
  187.0590  178.0960  134.5990 O   0  0  0  0  0  1  0  0  0  0  0  0
  186.2230  177.6110  135.6020 C   0  0  0  0  0  2  0  0  0  0  0  0
  190.9090  177.0440  138.5030 C   0  0  0  0  0  2  0  0  0  0  0  0
  190.1240  178.1250  139.2420 C   0  0  0  0  0  2  0  0  0  0  0  0
  190.8400  177.6280  141.5940 C   0  0  0  0  0  0  0  0  0  0  0  0
  192.0580  177.7100  141.2660 O   0  0  0  0  0  0  0  0  0  0  0  0
  189.8220  177.6580  140.5870 N   0  0  0  0  0  0  0  0  0  0  0  0
  188.5320  177.4530  140.9390 O   0  0  0  0  0  1  0  0  0  0  0  0
  190.4720  177.5550  142.9390 O   0  0  0  0  0  0  0  0  0  0  0  0
  190.7470  176.7350  146.3450 C   0  0  0  0  0  0  0  0  0  0  0  0
  191.4220  177.5310  143.9540 C   0  0  0  0  0  3  0  0  0  0  0  0
  191.0930  177.1240  145.1460 C   0  0  0  0  0  0  0  0  0  0  0  0
  192.6850  175.6830  147.4900 C   0  0  0  0  0  1  0  0  0  0  0  0
  191.6750  176.6830  147.3940 O   0  0  0  0  0  0  0  0  0  0  0  0
  189.3950  176.3440  146.5740 N   0  0  0  0  0  2  0  0  0  0  0  0
  186.8540  178.6020  147.8600 N   0  0  0  0  0  2  0  0  0  0  0  0
  189.2170  178.1840  148.1610 C   0  0  0  0  0  2  0  0  0  0  0  0
  187.2090  177.3830  147.1370 C   0  0  2  0  0  3  0  0  0  0  0  0
  188.5800  176.9310  147.6310 C   0  0  1  0  0  3  0  0  0  0  0  0
  188.0440  179.0320  148.5990 C   0  0  0  0  0  2  0  0  0  0  0  0
  187.0930  177.5970  145.6180 C   0  0  1  0  0  3  0  0  0  0  0  0
  186.6410  176.4300  145.0060 O   0  0  0  0  0  1  0  0  0  0  0  0
  184.3640  179.7460  143.9980 C   0  0  0  0  0  1  0  0  0  0  0  0
  185.2440  178.5970  144.3420 C   0  0  0  0  0  3  0  0  0  0  0  0
  186.1950  178.7430  145.2620 C   0  0  0  0  0  3  0  0  0  0  0  0
  1  2  1  1  0  0  0
  1 41  1  0  0  0  0
  3  1  1  0  0  0  0
  4  3  1  0  0  0  0
  5  6  1  0  0  0  0
  5  4  1  0  0  0  0
  6  8  1  6  0  0  0
  6  9  1  0  0  0  0
  8  7  1  0  0  0  0
 10  9  1  6  0  0  0
 10 11  1  0  0  0  0
 11 12  1  0  0  0  0
 12 13  1  0  0  0  0
 14 13  1  0  0  0  0
 15 10  1  0  0  0  0
 16 18  2  0  0  0  0
 16 15  1  0  0  0  0
 17 16  1  0  0  0  0
 19 17  1  0  0  0  0
 20  1  1  0  0  0  0
 21 24  1  0  0  0  0
 21 20  1  0  0  0  0
 22 32  1  0  0  0  0
 22 25  1  0  0  0  0
 23 25  2  0  0  0  0
 24 28  1  0  0  0  0
 26 22  2  0  0  0  0
 27 23  1  0  0  0  0
 28 26  1  0  0  0  0
 28 27  2  0  0  0  0
 29 32  2  0  0  0  0
 30 34  1  0  0  0  0
 30 31  2  0  0  0  0
 32 33  1  0  0  0  0
 33 30  1  0  0  0  0
 35 34  1  0  0  0  0
 36 38  1  0  0  0  0
 36 35  1  0  0  0  0
 37 38  1  0  0  0  0
 39 40  1  0  0  0  0
 40 24  1  0  0  0  0
 41 42  1  0  0  0  0
 42 45  1  0  0  0  0
 43 47  1  0  0  0  0
 44 43  2  0  0  0  0
 45 46  1  0  0  0  0
 45 43  1  0  0  0  0
 47 49  1  0  0  0  0
 48 53  1  0  0  0  0
 48 52  1  0  0  0  0
 49 50  2  0  0  0  0
 50 48  2  0  0  0  0
 52 51  1  0  0  0  0
 54 58  1  0  0  0  0
 55 58  1  0  0  0  0
 56 59  1  6  0  0  0
 56 57  1  0  0  0  0
 56 54  1  0  0  0  0
 57 53  1  6  0  0  0
 57 55  1  0  0  0  0
 59 60  1  6  0  0  0
 61 62  1  0  0  0  0
 62 63  2  0  0  0  0
 63 59  1  0  0  0  0
M  END
>  <MODEL>
2

>  <REMARK>
 VINA RESULT:      -4.3      2.495      3.863
  Name = 
  31 active torsions:
  status: ('A' for Active; 'I' for Inactive)
    1  A    between atoms: C_1  and  N_12
    2  A    between atoms: C_1  and  C_22
    3  A    between atoms: C_2  and  C_22
    4  A    between atoms: C_2  and  C_35
    5  A    between atoms: C_2  and  C_44
    6  A    between atoms: C_3  and  N_37
    7  A    between atoms: C_3  and  O_40
    8  A    between atoms: C_5  and  O_42
    9  A    between atoms: O_7  and  C_18
   10  A    between atoms: O_7  and  C_20
   11  A    between atoms: C_9  and  C_36
   12  A    between atoms: N_10  and  C_33
   13  A    between atoms: N_10  and  C_44
   14  A    between atoms: C_13  and  C_29
   15  A    between atoms: C_13  and  C_54
   16  A    between atoms: C_15  and  C_39
   17  A    between atoms: N_17  and  C_35
   18  A    between atoms: N_17  and  N_48
   19  A    between atoms: C_18  and  C_36
   20  A    between atoms: C_18  and  C_57
   21  A    between atoms: C_19  and  N_48
   22  A    between atoms: C_20  and  C_47
   23  A    between atoms: C_24  and  C_46
   24  A    between atoms: C_29  and  C_31
   25  A    between atoms: C_30  and  O_42
   26  A    between atoms: C_33  and  C_53
   27  A    between atoms: N_37  and  C_51
   28  A    between atoms: C_38  and  C_39
   29  A    between atoms: C_45  and  C_53
   30  A    between atoms: C_53  and  C_57
   31  A    between atoms: C_54  and  S_55
                            x       y       z     vdW  Elec       q    Type
                         _______ _______ _______ _____ _____    ______ ____

>  <TORSDO>
F 31

$$$$
=
 OpenBabel10222420293D

 63 64  0  0  1  0  0  0  0  0999 V2000
  187.8460  177.6000  142.9930 C   0  0  1  0  0  0  0  0  0  0  0  0
  188.3500  176.1740  142.7990 C   0  0  0  0  0  1  0  0  0  0  0  0
  188.0590  178.3940  141.7040 C   0  0  0  0  0  2  0  0  0  0  0  0
  188.3640  177.5230  140.5770 N   0  0  0  0  0  2  0  0  0  0  0  0
  188.9070  178.3770  139.5300 C   0  0  0  0  0  2  0  0  0  0  0  0
  188.0180  178.3550  138.2930 C   0  0  1  0  0  3  0  0  0  0  0  0
  188.8290  179.8310  136.6020 O   0  0  0  0  0  1  0  0  0  0  0  0
  188.8430  178.5020  137.0240 C   0  0  0  0  0  2  0  0  0  0  0  0
  187.1750  177.0850  138.2490 C   0  0  0  0  0  2  0  0  0  0  0  0
  187.2630  176.4400  136.8720 C   0  0  2  0  0  3  0  0  0  0  0  0
  186.0310  176.5250  136.2180 O   0  0  0  0  0  0  0  0  0  0  0  0
  185.0810  176.3910  137.2320 C   0  0  0  0  0  2  0  0  0  0  0  0
  183.6830  176.5440  136.6570 C   0  0  0  0  0  2  0  0  0  0  0  0
  182.9430  175.2200  136.7090 C   0  0  0  0  0  1  0  0  0  0  0  0
  187.7440  174.9860  136.9580 C   0  0  0  0  0  2  0  0  0  0  0  0
  187.8770  174.3000  135.6250 C   0  0  0  0  0  0  0  0  0  0  0  0
  187.2190  173.0550  135.3770 N   0  0  0  0  0  2  0  0  0  0  0  0
  188.5160  174.8520  134.6900 O   0  0  0  0  0  0  0  0  0  0  0  0
  186.4190  172.3790  136.3850 C   0  0  0  0  0  1  0  0  0  0  0  0
  186.3600  177.5610  143.3590 C   0  0  0  0  0  2  0  0  0  0  0  0
  185.8340  178.9080  143.5780 N   0  0  0  0  0  2  0  0  0  0  0  0
  181.7640  178.6980  140.8630 C   0  0  0  0  0  0  0  0  0  0  0  0
  183.9530  178.5970  139.8450 C   0  0  0  0  0  3  0  0  0  0  0  0
  184.4330  178.8420  143.4940 N   0  0  0  0  0  0  0  0  0  0  0  0
  182.5610  178.6130  139.7170 C   0  0  0  0  0  3  0  0  0  0  0  0
  182.3830  178.7520  142.1160 C   0  0  0  0  0  3  0  0  0  0  0  0
  184.5260  178.6610  141.0770 N   0  0  0  0  0  0  0  0  0  0  0  0
  183.7820  178.7420  142.2130 C   0  0  0  0  0  0  0  0  0  0  0  0
  179.6380  179.6340  141.2950 O   0  0  0  0  0  0  0  0  0  0  0  0
  180.0010  176.9120  138.9740 C   0  0  0  0  0  0  0  0  0  0  0  0
  180.9920  177.3080  138.3040 O   0  0  0  0  0  0  0  0  0  0  0  0
  180.2890  178.6920  140.7710 C   0  0  0  0  0  0  0  0  0  0  0  0
  179.5680  177.6300  140.1330 N   0  0  0  0  0  2  0  0  0  0  0  0
  179.2200  175.7320  138.5050 C   0  0  0  0  0  2  0  0  0  0  0  0
  178.9340  175.8320  137.0160 C   0  0  0  0  0  2  0  0  0  0  0  0
  179.3610  174.5600  136.3090 C   0  0  0  0  0  2  0  0  0  0  0  0
  178.9450  172.0980  137.1650 C   0  0  0  0  0  1  0  0  0  0  0  0
  180.1510  173.4200  137.4870 S   0  0  0  0  0  0  0  0  0  0  0  0
  184.3270  178.3480  145.7780 O   0  0  0  0  0  1  0  0  0  0  0  0
  183.6630  178.9770  144.7270 C   0  0  0  0  0  2  0  0  0  0  0  0
  188.6700  178.2800  144.0860 C   0  0  0  0  0  2  0  0  0  0  0  0
  189.8710  177.4580  144.5460 C   0  0  0  0  0  2  0  0  0  0  0  0
  191.7010  176.5930  143.0650 C   0  0  0  0  0  0  0  0  0  0  0  0
  191.5890  175.4360  143.5610 O   0  0  0  0  0  0  0  0  0  0  0  0
  190.9840  177.6920  143.6380 N   0  0  0  0  0  0  0  0  0  0  0  0
  191.2020  178.9430  143.1720 O   0  0  0  0  0  1  0  0  0  0  0  0
  192.4860  176.8030  141.9300 O   0  0  0  0  0  0  0  0  0  0  0  0
  192.5820  176.2710  138.4570 C   0  0  0  0  0  0  0  0  0  0  0  0
  191.9490  177.3260  140.7580 C   0  0  0  0  0  3  0  0  0  0  0  0
  192.2530  176.7960  139.6080 C   0  0  0  0  0  0  0  0  0  0  0  0
  191.0510  176.0720  136.5100 C   0  0  0  0  0  1  0  0  0  0  0  0
  192.0530  176.7580  137.2540 O   0  0  0  0  0  0  0  0  0  0  0  0
  193.4880  175.1700  138.4410 N   0  0  0  0  0  2  0  0  0  0  0  0
  196.6890  174.4620  136.8710 N   0  0  0  0  0  2  0  0  0  0  0  0
  195.6880  174.3330  139.0690 C   0  0  0  0  0  2  0  0  0  0  0  0
  195.3740  175.0990  136.8250 C   0  0  2  0  0  3  0  0  0  0  0  0
  194.9240  175.3440  138.2620 C   0  0  1  0  0  3  0  0  0  0  0  0
  196.9510  174.1060  138.2680 C   0  0  0  0  0  2  0  0  0  0  0  0
  194.4010  174.2770  135.9610 C   0  0  1  0  0  3  0  0  0  0  0  0
  194.4270  174.7380  134.6460 O   0  0  0  0  0  1  0  0  0  0  0  0
  194.3090  170.5410  136.8110 C   0  0  0  0  0  1  0  0  0  0  0  0
  194.0000  171.9960  136.7860 C   0  0  0  0  0  3  0  0  0  0  0  0
  194.6970  172.8090  135.9950 C   0  0  0  0  0  3  0  0  0  0  0  0
  1  2  1  6  0  0  0
  1 20  1  0  0  0  0
  1 41  1  0  0  0  0
  3  1  1  0  0  0  0
  4  3  1  0  0  0  0
  5  4  1  0  0  0  0
  6  8  1  6  0  0  0
  6  5  1  0  0  0  0
  7  8  1  0  0  0  0
  9  6  1  0  0  0  0
 10 15  1  1  0  0  0
 10  9  1  0  0  0  0
 11 10  1  0  0  0  0
 11 12  1  0  0  0  0
 13 14  1  0  0  0  0
 13 12  1  0  0  0  0
 16 15  1  0  0  0  0
 17 16  1  0  0  0  0
 17 19  1  0  0  0  0
 18 16  2  0  0  0  0
 20 21  1  0  0  0  0
 22 26  1  0  0  0  0
 23 27  2  0  0  0  0
 24 21  1  0  0  0  0
 24 40  1  0  0  0  0
 25 23  1  0  0  0  0
 25 22  2  0  0  0  0
 26 28  2  0  0  0  0
 27 28  1  0  0  0  0
 28 24  1  0  0  0  0
 30 33  1  0  0  0  0
 31 30  2  0  0  0  0
 32 22  1  0  0  0  0
 32 29  2  0  0  0  0
 33 32  1  0  0  0  0
 34 30  1  0  0  0  0
 35 34  1  0  0  0  0
 36 35  1  0  0  0  0
 36 38  1  0  0  0  0
 37 38  1  0  0  0  0
 40 39  1  0  0  0  0
 41 42  1  0  0  0  0
 43 44  2  0  0  0  0
 43 45  1  0  0  0  0
 45 42  1  0  0  0  0
 46 45  1  0  0  0  0
 47 43  1  0  0  0  0
 48 50  2  0  0  0  0
 49 47  1  0  0  0  0
 50 49  2  0  0  0  0
 51 52  1  0  0  0  0
 52 48  1  0  0  0  0
 53 48  1  0  0  0  0
 54 58  1  0  0  0  0
 56 59  1  1  0  0  0
 56 54  1  0  0  0  0
 56 57  1  0  0  0  0
 57 53  1  6  0  0  0
 57 55  1  0  0  0  0
 58 55  1  0  0  0  0
 59 60  1  6  0  0  0
 59 63  1  0  0  0  0
 62 61  1  0  0  0  0
 63 62  2  0  0  0  0
M  END
>  <MODEL>
3

>  <REMARK>
 VINA RESULT:      -3.8      2.754      7.342
  Name = 
  31 active torsions:
  status: ('A' for Active; 'I' for Inactive)
    1  A    between atoms: C_1  and  N_12
    2  A    between atoms: C_1  and  C_22
    3  A    between atoms: C_2  and  C_22
    4  A    between atoms: C_2  and  C_35
    5  A    between atoms: C_2  and  C_44
    6  A    between atoms: C_3  and  N_37
    7  A    between atoms: C_3  and  O_40
    8  A    between atoms: C_5  and  O_42
    9  A    between atoms: O_7  and  C_18
   10  A    between atoms: O_7  and  C_20
   11  A    between atoms: C_9  and  C_36
   12  A    between atoms: N_10  and  C_33
   13  A    between atoms: N_10  and  C_44
   14  A    between atoms: C_13  and  C_29
   15  A    between atoms: C_13  and  C_54
   16  A    between atoms: C_15  and  C_39
   17  A    between atoms: N_17  and  C_35
   18  A    between atoms: N_17  and  N_48
   19  A    between atoms: C_18  and  C_36
   20  A    between atoms: C_18  and  C_57
   21  A    between atoms: C_19  and  N_48
   22  A    between atoms: C_20  and  C_47
   23  A    between atoms: C_24  and  C_46
   24  A    between atoms: C_29  and  C_31
   25  A    between atoms: C_30  and  O_42
   26  A    between atoms: C_33  and  C_53
   27  A    between atoms: N_37  and  C_51
   28  A    between atoms: C_38  and  C_39
   29  A    between atoms: C_45  and  C_53
   30  A    between atoms: C_53  and  C_57
   31  A    between atoms: C_54  and  S_55
                            x       y       z     vdW  Elec       q    Type
                         _______ _______ _______ _____ _____    ______ ____

>  <TORSDO>
F 31

$$$$
=
 OpenBabel10222420293D

 63 64  0  0  1  0  0  0  0  0999 V2000
  185.8880  178.7160  141.5490 C   0  0  1  0  0  0  0  0  0  0  0  0
  186.4560  179.9460  142.2500 C   0  0  0  0  0  1  0  0  0  0  0  0
  185.8650  177.5400  142.5240 C   0  0  0  0  0  2  0  0  0  0  0  0
  187.1240  177.4120  143.2470 N   0  0  0  0  0  2  0  0  0  0  0  0
  186.7830  176.9930  144.5990 C   0  0  0  0  0  2  0  0  0  0  0  0
  186.8490  178.1670  145.5670 C   0  0  1  0  0  3  0  0  0  0  0  0
  185.6470  179.2070  147.3480 O   0  0  0  0  0  1  0  0  0  0  0  0
  185.4910  178.4330  146.1980 C   0  0  0  0  0  2  0  0  0  0  0  0
  187.9100  177.9340  146.6370 C   0  0  0  0  0  2  0  0  0  0  0  0
  189.0490  177.0920  146.0770 C   0  0  2  0  0  3  0  0  0  0  0  0
  189.5710  176.2620  147.0730 O   0  0  0  0  0  0  0  0  0  0  0  0
  190.1960  177.1310  147.9690 C   0  0  0  0  0  2  0  0  0  0  0  0
  191.6950  176.8890  147.9660 C   0  0  0  0  0  2  0  0  0  0  0  0
  191.9980  175.4520  147.5850 C   0  0  0  0  0  1  0  0  0  0  0  0
  190.1460  177.9670  145.4550 C   0  0  0  0  0  2  0  0  0  0  0  0
  190.9560  177.2760  144.3920 C   0  0  0  0  0  0  0  0  0  0  0  0
  191.3930  177.9870  143.2320 N   0  0  0  0  0  2  0  0  0  0  0  0
  191.3130  176.0780  144.5460 O   0  0  0  0  0  0  0  0  0  0  0  0
  191.0680  179.3860  143.0030 C   0  0  0  0  0  1  0  0  0  0  0  0
  184.4740  179.0300  141.0540 C   0  0  0  0  0  2  0  0  0  0  0  0
  183.6190  177.8460  141.1120 N   0  0  0  0  0  2  0  0  0  0  0  0
  181.1910  176.2690  137.1620 C   0  0  0  0  0  0  0  0  0  0  0  0
  182.9470  174.9440  138.1630 C   0  0  0  0  0  3  0  0  0  0  0  0
  182.5850  178.0140  140.1750 N   0  0  0  0  0  0  0  0  0  0  0  0
  181.9830  175.1160  137.1650 C   0  0  0  0  0  3  0  0  0  0  0  0
  181.3750  177.2190  138.1710 C   0  0  0  0  0  3  0  0  0  0  0  0
  183.1090  175.8910  139.1260 N   0  0  0  0  0  0  0  0  0  0  0  0
  182.3550  177.0230  139.1550 C   0  0  0  0  0  0  0  0  0  0  0  0
  179.6960  175.4820  135.5110 O   0  0  0  0  0  0  0  0  0  0  0  0
  179.4610  178.8550  136.7320 C   0  0  0  0  0  0  0  0  0  0  0  0
  179.5470  178.6590  137.9740 O   0  0  0  0  0  0  0  0  0  0  0  0
  180.1460  176.4760  136.1390 C   0  0  0  0  0  0  0  0  0  0  0  0
  179.6480  177.7790  135.8080 N   0  0  0  0  0  2  0  0  0  0  0  0
  179.0760  180.2030  136.2250 C   0  0  0  0  0  2  0  0  0  0  0  0
  180.3050  180.9970  135.8150 C   0  0  0  0  0  2  0  0  0  0  0  0
  180.0110  182.4840  135.8520 C   0  0  0  0  0  2  0  0  0  0  0  0
  181.2460  184.6700  136.6660 C   0  0  0  0  0  1  0  0  0  0  0  0
  180.5320  183.1900  137.4450 S   0  0  0  0  0  0  0  0  0  0  0  0
  180.7540  179.1460  141.0880 O   0  0  0  0  0  1  0  0  0  0  0  0
  181.8260  179.2600  140.2060 C   0  0  0  0  0  2  0  0  0  0  0  0
  186.8090  178.3280  140.3920 C   0  0  0  0  0  2  0  0  0  0  0  0
  188.2660  178.1430  140.8070 C   0  0  0  0  0  2  0  0  0  0  0  0
  189.9840  176.6810  139.7110 C   0  0  0  0  0  0  0  0  0  0  0  0
  190.3670  176.2470  140.8350 O   0  0  0  0  0  0  0  0  0  0  0  0
  189.0480  177.7620  139.6400 N   0  0  0  0  0  0  0  0  0  0  0  0
  188.7350  178.2930  138.4360 O   0  0  0  0  0  1  0  0  0  0  0  0
  190.4310  176.0820  138.5310 O   0  0  0  0  0  0  0  0  0  0  0  0
  193.6810  175.9320  137.2040 C   0  0  0  0  0  0  0  0  0  0  0  0
  191.2450  176.7610  137.6310 C   0  0  0  0  0  3  0  0  0  0  0  0
  192.4580  176.3450  137.4060 C   0  0  0  0  0  0  0  0  0  0  0  0
  194.3320  176.5460  134.8850 C   0  0  0  0  0  1  0  0  0  0  0  0
  194.5310  176.5790  136.2960 O   0  0  0  0  0  0  0  0  0  0  0  0
  194.1440  174.7880  137.9180 N   0  0  0  0  0  2  0  0  0  0  0  0
  194.6740  171.5090  136.4430 N   0  0  0  0  0  2  0  0  0  0  0  0
  193.1770  173.3890  136.1740 C   0  0  0  0  0  2  0  0  0  0  0  0
  194.9180  172.4600  137.5260 C   0  0  2  0  0  3  0  0  0  0  0  0
  193.7430  173.4320  137.5650 C   0  0  1  0  0  3  0  0  0  0  0  0
  193.5220  172.0010  135.6830 C   0  0  0  0  0  2  0  0  0  0  0  0
  196.3050  173.1080  137.3800 C   0  0  1  0  0  3  0  0  0  0  0  0
  196.3480  173.8840  136.2230 O   0  0  0  0  0  1  0  0  0  0  0  0
  198.2240  175.3720  139.8060 C   0  0  0  0  0  1  0  0  0  0  0  0
  197.8630  174.5540  138.6170 C   0  0  0  0  0  3  0  0  0  0  0  0
  196.6830  173.9400  138.5680 C   0  0  0  0  0  3  0  0  0  0  0  0
  1  2  1  1  0  0  0
  1  3  1  0  0  0  0
  3  4  1  0  0  0  0
  4  5  1  0  0  0  0
  6  5  1  6  0  0  0
  6  8  1  0  0  0  0
  6  9  1  0  0  0  0
  8  7  1  0  0  0  0
 10 15  1  1  0  0  0
 10  9  1  0  0  0  0
 10 11  1  0  0  0  0
 11 12  1  0  0  0  0
 13 12  1  0  0  0  0
 14 13  1  0  0  0  0
 16 18  2  0  0  0  0
 16 15  1  0  0  0  0
 17 16  1  0  0  0  0
 19 17  1  0  0  0  0
 20 21  1  0  0  0  0
 20  1  1  0  0  0  0
 22 25  2  0  0  0  0
 22 26  1  0  0  0  0
 23 27  2  0  0  0  0
 24 40  1  0  0  0  0
 24 21  1  0  0  0  0
 25 23  1  0  0  0  0
 26 28  2  0  0  0  0
 27 28  1  0  0  0  0
 28 24  1  0  0  0  0
 29 32  2  0  0  0  0
 30 31  2  0  0  0  0
 32 22  1  0  0  0  0
 33 32  1  0  0  0  0
 33 30  1  0  0  0  0
 34 30  1  0  0  0  0
 35 36  1  0  0  0  0
 35 34  1  0  0  0  0
 36 38  1  0  0  0  0
 37 38  1  0  0  0  0
 40 39  1  0  0  0  0
 41 42  1  0  0  0  0
 41  1  1  0  0  0  0
 43 44  2  0  0  0  0
 45 43  1  0  0  0  0
 45 42  1  0  0  0  0
 46 45  1  0  0  0  0
 47 43  1  0  0  0  0
 48 50  2  0  0  0  0
 48 53  1  0  0  0  0
 49 47  1  0  0  0  0
 50 49  2  0  0  0  0
 51 52  1  0  0  0  0
 52 48  1  0  0  0  0
 54 56  1  0  0  0  0
 55 57  1  0  0  0  0
 56 59  1  6  0  0  0
 56 57  1  0  0  0  0
 57 53  1  6  0  0  0
 58 55  1  0  0  0  0
 58 54  1  0  0  0  0
 59 60  1  6  0  0  0
 59 63  1  0  0  0  0
 62 61  1  0  0  0  0
 63 62  2  0  0  0  0
M  END
>  <MODEL>
4

>  <REMARK>
 VINA RESULT:      -3.4      2.880      8.914
  Name = 
  31 active torsions:
  status: ('A' for Active; 'I' for Inactive)
    1  A    between atoms: C_1  and  N_12
    2  A    between atoms: C_1  and  C_22
    3  A    between atoms: C_2  and  C_22
    4  A    between atoms: C_2  and  C_35
    5  A    between atoms: C_2  and  C_44
    6  A    between atoms: C_3  and  N_37
    7  A    between atoms: C_3  and  O_40
    8  A    between atoms: C_5  and  O_42
    9  A    between atoms: O_7  and  C_18
   10  A    between atoms: O_7  and  C_20
   11  A    between atoms: C_9  and  C_36
   12  A    between atoms: N_10  and  C_33
   13  A    between atoms: N_10  and  C_44
   14  A    between atoms: C_13  and  C_29
   15  A    between atoms: C_13  and  C_54
   16  A    between atoms: C_15  and  C_39
   17  A    between atoms: N_17  and  C_35
   18  A    between atoms: N_17  and  N_48
   19  A    between atoms: C_18  and  C_36
   20  A    between atoms: C_18  and  C_57
   21  A    between atoms: C_19  and  N_48
   22  A    between atoms: C_20  and  C_47
   23  A    between atoms: C_24  and  C_46
   24  A    between atoms: C_29  and  C_31
   25  A    between atoms: C_30  and  O_42
   26  A    between atoms: C_33  and  C_53
   27  A    between atoms: N_37  and  C_51
   28  A    between atoms: C_38  and  C_39
   29  A    between atoms: C_45  and  C_53
   30  A    between atoms: C_53  and  C_57
   31  A    between atoms: C_54  and  S_55
                            x       y       z     vdW  Elec       q    Type
                         _______ _______ _______ _____ _____    ______ ____

>  <TORSDO>
F 31

$$$$
=
 OpenBabel10222420293D

 63 64  0  0  1  0  0  0  0  0999 V2000
  188.8310  176.6870  135.9160 C   0  0  1  0  0  0  0  0  0  0  0  0
  188.7090  177.8330  134.9180 C   0  0  0  0  0  1  0  0  0  0  0  0
  189.4000  175.4560  135.2100 C   0  0  0  0  0  2  0  0  0  0  0  0
  190.6140  174.9750  135.8550 N   0  0  0  0  0  2  0  0  0  0  0  0
  191.3600  174.2450  134.8400 C   0  0  0  0  0  2  0  0  0  0  0  0
  192.5760  173.5580  135.4480 C   0  0  1  0  0  3  0  0  0  0  0  0
  193.2080  171.2770  135.7660 O   0  0  0  0  0  1  0  0  0  0  0  0
  192.8210  172.2050  134.7980 C   0  0  0  0  0  2  0  0  0  0  0  0
  193.8140  174.4430  135.3420 C   0  0  0  0  0  2  0  0  0  0  0  0
  194.2630  174.8890  136.7280 C   0  0  2  0  0  3  0  0  0  0  0  0
  195.4580  175.6080  136.6410 O   0  0  0  0  0  0  0  0  0  0  0  0
  195.7740  175.6090  135.2810 C   0  0  0  0  0  2  0  0  0  0  0  0
  197.2410  175.9530  135.0900 C   0  0  0  0  0  2  0  0  0  0  0  0
  198.1090  174.7420  135.3760 C   0  0  0  0  0  1  0  0  0  0  0  0
  194.4010  173.7000  137.6870 C   0  0  0  0  0  2  0  0  0  0  0  0
  195.8080  173.1860  137.8330 C   0  0  0  0  0  0  0  0  0  0  0  0
  196.6420  173.6380  138.9030 N   0  0  0  0  0  2  0  0  0  0  0  0
  196.2430  172.3010  137.0490 O   0  0  0  0  0  0  0  0  0  0  0  0
  196.1980  174.6180  139.8800 C   0  0  0  0  0  1  0  0  0  0  0  0
  189.7480  177.1170  137.0640 C   0  0  0  0  0  2  0  0  0  0  0  0
  189.2890  176.5690  138.3390 N   0  0  0  0  0  2  0  0  0  0  0  0
  190.4730  177.3310  143.0300 C   0  0  0  0  0  0  0  0  0  0  0  0
  188.2570  176.5970  142.4020 C   0  0  0  0  0  3  0  0  0  0  0  0
  190.2540  176.8790  139.3130 N   0  0  0  0  0  0  0  0  0  0  0  0
  189.1680  176.9800  143.3910 C   0  0  0  0  0  3  0  0  0  0  0  0
  190.8390  177.2770  141.6810 C   0  0  0  0  0  3  0  0  0  0  0  0
  188.6420  176.5640  141.0980 N   0  0  0  0  0  0  0  0  0  0  0  0
  189.9020  176.8970  140.7090 C   0  0  0  0  0  0  0  0  0  0  0  0
  192.6060  178.1160  143.6760 O   0  0  0  0  0  0  0  0  0  0  0  0
  189.9400  177.8760  146.0770 C   0  0  0  0  0  0  0  0  0  0  0  0
  188.9950  178.3990  145.4280 O   0  0  0  0  0  0  0  0  0  0  0  0
  191.4700  177.7180  144.0480 C   0  0  0  0  0  0  0  0  0  0  0  0
  191.2030  177.6240  145.4540 N   0  0  0  0  0  2  0  0  0  0  0  0
  189.7680  177.5960  147.5310 C   0  0  0  0  0  2  0  0  0  0  0  0
  188.6980  178.4950  148.1300 C   0  0  0  0  0  2  0  0  0  0  0  0
  187.3280  177.8650  147.9660 C   0  0  0  0  0  2  0  0  0  0  0  0
  185.3780  178.4780  146.2970 C   0  0  0  0  0  1  0  0  0  0  0  0
  186.0520  179.1560  147.8430 S   0  0  0  0  0  0  0  0  0  0  0  0
  192.4650  176.2010  138.9650 O   0  0  0  0  0  1  0  0  0  0  0  0
  191.5840  177.2750  138.8610 C   0  0  0  0  0  2  0  0  0  0  0  0
  187.4390  176.3140  136.4250 C   0  0  0  0  0  2  0  0  0  0  0  0
  186.3200  177.1530  135.8130 C   0  0  0  0  0  2  0  0  0  0  0  0
  185.8350  178.5660  137.8280 C   0  0  0  0  0  0  0  0  0  0  0  0
  187.0620  178.8410  137.9610 O   0  0  0  0  0  0  0  0  0  0  0  0
  185.4190  177.5860  136.8710 N   0  0  0  0  0  0  0  0  0  0  0  0
  184.1180  177.2180  136.8190 O   0  0  0  0  0  1  0  0  0  0  0  0
  184.8720  179.2460  138.5770 O   0  0  0  0  0  0  0  0  0  0  0  0
  182.6990  178.4330  141.2160 C   0  0  0  0  0  0  0  0  0  0  0  0
  184.8590  179.1940  139.9670 C   0  0  0  0  0  3  0  0  0  0  0  0
  183.7870  178.8040  140.5950 C   0  0  0  0  0  0  0  0  0  0  0  0
  182.7640  179.4920  143.4640 C   0  0  0  0  0  1  0  0  0  0  0  0
  182.6460  178.3540  142.6150 O   0  0  0  0  0  0  0  0  0  0  0  0
  181.5510  178.0910  140.4420 N   0  0  0  0  0  2  0  0  0  0  0  0
  179.3280  175.4980  139.1980 N   0  0  0  0  0  2  0  0  0  0  0  0
  179.7910  176.6310  141.2830 C   0  0  0  0  0  2  0  0  0  0  0  0
  180.5140  176.3340  139.0220 C   0  0  2  0  0  3  0  0  0  0  0  0
  181.0080  176.7380  140.4090 C   0  0  1  0  0  3  0  0  0  0  0  0
  178.9520  175.5670  140.6120 C   0  0  0  0  0  2  0  0  0  0  0  0
  180.2220  177.5000  138.0620 C   0  0  1  0  0  3  0  0  0  0  0  0
  181.3890  178.2230  137.8220 O   0  0  0  0  0  1  0  0  0  0  0  0
  179.7550  175.9360  134.5940 C   0  0  0  0  0  1  0  0  0  0  0  0
  180.3610  176.3770  135.8790 C   0  0  0  0  0  3  0  0  0  0  0  0
  179.6250  177.0450  136.7640 C   0  0  0  0  0  3  0  0  0  0  0  0
  1  2  1  6  0  0  0
  1 41  1  0  0  0  0
  1 20  1  0  0  0  0
  3  4  1  0  0  0  0
  3  1  1  0  0  0  0
  5  6  1  0  0  0  0
  5  4  1  0  0  0  0
  6  8  1  6  0  0  0
  8  7  1  0  0  0  0
  9  6  1  0  0  0  0
 10  9  1  6  0  0  0
 10 15  1  0  0  0  0
 11 10  1  0  0  0  0
 12 11  1  0  0  0  0
 13 12  1  0  0  0  0
 13 14  1  0  0  0  0
 15 16  1  0  0  0  0
 16 17  1  0  0  0  0
 17 19  1  0  0  0  0
 18 16  2  0  0  0  0
 20 21  1  0  0  0  0
 21 24  1  0  0  0  0
 22 25  1  0  0  0  0
 22 32  1  0  0  0  0
 23 25  2  0  0  0  0
 24 28  1  0  0  0  0
 26 22  2  0  0  0  0
 27 23  1  0  0  0  0
 28 27  2  0  0  0  0
 28 26  1  0  0  0  0
 29 32  2  0  0  0  0
 30 34  1  0  0  0  0
 31 30  2  0  0  0  0
 32 33  1  0  0  0  0
 33 30  1  0  0  0  0
 34 35  1  0  0  0  0
 36 35  1  0  0  0  0
 37 38  1  0  0  0  0
 38 36  1  0  0  0  0
 40 39  1  0  0  0  0
 40 24  1  0  0  0  0
 42 41  1  0  0  0  0
 42 45  1  0  0  0  0
 43 44  2  0  0  0  0
 43 47  1  0  0  0  0
 45 43  1  0  0  0  0
 46 45  1  0  0  0  0
 47 49  1  0  0  0  0
 48 52  1  0  0  0  0
 49 50  2  0  0  0  0
 50 48  2  0  0  0  0
 52 51  1  0  0  0  0
 53 48  1  0  0  0  0
 54 58  1  0  0  0  0
 56 59  1  6  0  0  0
 56 54  1  0  0  0  0
 56 57  1  0  0  0  0
 57 53  1  6  0  0  0
 57 55  1  0  0  0  0
 58 55  1  0  0  0  0
 59 60  1  6  0  0  0
 61 62  1  0  0  0  0
 62 63  2  0  0  0  0
 63 59  1  0  0  0  0
M  END
>  <MODEL>
5

>  <REMARK>
 VINA RESULT:      -3.3      2.576      8.366
  Name = 
  31 active torsions:
  status: ('A' for Active; 'I' for Inactive)
    1  A    between atoms: C_1  and  N_12
    2  A    between atoms: C_1  and  C_22
    3  A    between atoms: C_2  and  C_22
    4  A    between atoms: C_2  and  C_35
    5  A    between atoms: C_2  and  C_44
    6  A    between atoms: C_3  and  N_37
    7  A    between atoms: C_3  and  O_40
    8  A    between atoms: C_5  and  O_42
    9  A    between atoms: O_7  and  C_18
   10  A    between atoms: O_7  and  C_20
   11  A    between atoms: C_9  and  C_36
   12  A    between atoms: N_10  and  C_33
   13  A    between atoms: N_10  and  C_44
   14  A    between atoms: C_13  and  C_29
   15  A    between atoms: C_13  and  C_54
   16  A    between atoms: C_15  and  C_39
   17  A    between atoms: N_17  and  C_35
   18  A    between atoms: N_17  and  N_48
   19  A    between atoms: C_18  and  C_36
   20  A    between atoms: C_18  and  C_57
   21  A    between atoms: C_19  and  N_48
   22  A    between atoms: C_20  and  C_47
   23  A    between atoms: C_24  and  C_46
   24  A    between atoms: C_29  and  C_31
   25  A    between atoms: C_30  and  O_42
   26  A    between atoms: C_33  and  C_53
   27  A    between atoms: N_37  and  C_51
   28  A    between atoms: C_38  and  C_39
   29  A    between atoms: C_45  and  C_53
   30  A    between atoms: C_53  and  C_57
   31  A    between atoms: C_54  and  S_55
                            x       y       z     vdW  Elec       q    Type
                         _______ _______ _______ _____ _____    ______ ____

>  <TORSDO>
F 31

$$$$
=
 OpenBabel10222420293D

 63 64  0  0  1  0  0  0  0  0999 V2000
  188.7770  177.6870  139.6620 C   0  0  1  0  0  0  0  0  0  0  0  0
  188.6590  176.1900  139.9240 C   0  0  0  0  0  1  0  0  0  0  0  0
  189.1680  177.9190  138.2020 C   0  0  0  0  0  2  0  0  0  0  0  0
  190.5850  177.6660  137.9760 N   0  0  0  0  0  2  0  0  0  0  0  0
  190.6880  177.0460  136.6620 C   0  0  0  0  0  2  0  0  0  0  0  0
  191.5450  175.7870  136.7210 C   0  0  1  0  0  3  0  0  0  0  0  0
  189.3450  174.8660  136.6070 O   0  0  0  0  0  1  0  0  0  0  0  0
  190.6990  174.5400  136.5190 C   0  0  0  0  0  2  0  0  0  0  0  0
  192.6760  175.8480  135.7010 C   0  0  0  0  0  2  0  0  0  0  0  0
  193.9940  175.4470  136.3490 C   0  0  2  0  0  3  0  0  0  0  0  0
  194.8890  174.9850  135.3810 O   0  0  0  0  0  0  0  0  0  0  0  0
  196.1170  175.5470  135.7340 C   0  0  0  0  0  2  0  0  0  0  0  0
  197.1700  175.1840  134.7020 C   0  0  0  0  0  2  0  0  0  0  0  0
  198.5240  175.0090  135.3670 C   0  0  0  0  0  1  0  0  0  0  0  0
  193.7860  174.4010  137.4530 C   0  0  0  0  0  2  0  0  0  0  0  0
  194.8050  174.4610  138.5590 C   0  0  0  0  0  0  0  0  0  0  0  0
  195.7120  173.3770  138.7740 N   0  0  0  0  0  2  0  0  0  0  0  0
  194.9120  175.4980  139.2650 O   0  0  0  0  0  0  0  0  0  0  0  0
  195.6890  172.1670  137.9690 C   0  0  0  0  0  1  0  0  0  0  0  0
  187.4360  178.3570  139.9710 C   0  0  0  0  0  2  0  0  0  0  0  0
  186.8850  179.0080  138.7840 N   0  0  0  0  0  2  0  0  0  0  0  0
  183.5710  176.8450  135.8990 C   0  0  0  0  0  0  0  0  0  0  0  0
  185.8690  177.0970  135.1940 C   0  0  0  0  0  3  0  0  0  0  0  0
  185.5830  178.5150  138.5870 N   0  0  0  0  0  0  0  0  0  0  0  0
  184.5650  176.6690  134.9300 C   0  0  0  0  0  3  0  0  0  0  0  0
  183.9130  177.4370  137.1190 C   0  0  0  0  0  3  0  0  0  0  0  0
  186.1680  177.6790  136.3870 N   0  0  0  0  0  0  0  0  0  0  0  0
  185.2280  177.8650  137.3530 C   0  0  0  0  0  0  0  0  0  0  0  0
  181.3520  177.1790  135.1620 O   0  0  0  0  0  0  0  0  0  0  0  0
  182.5410  173.8780  135.9490 C   0  0  0  0  0  0  0  0  0  0  0  0
  183.6520  173.8830  135.3540 O   0  0  0  0  0  0  0  0  0  0  0  0
  182.1870  176.3840  135.6670 C   0  0  0  0  0  0  0  0  0  0  0  0
  181.7500  175.0680  136.0300 N   0  0  0  0  0  2  0  0  0  0  0  0
  182.0070  172.6000  136.4990 C   0  0  0  0  0  2  0  0  0  0  0  0
  182.6180  171.4070  135.7830 C   0  0  0  0  0  2  0  0  0  0  0  0
  181.7640  171.0110  134.5940 C   0  0  0  0  0  2  0  0  0  0  0  0
  180.5450  170.6620  136.9090 C   0  0  0  0  0  1  0  0  0  0  0  0
  180.1760  170.3260  135.1600 S   0  0  0  0  0  0  0  0  0  0  0  0
  185.0020  179.8240  140.4360 O   0  0  0  0  0  1  0  0  0  0  0  0
  184.5870  178.7710  139.6230 C   0  0  0  0  0  2  0  0  0  0  0  0
  189.8980  178.2620  140.5280 C   0  0  0  0  0  2  0  0  0  0  0  0
  189.5760  178.2680  142.0190 C   0  0  0  0  0  2  0  0  0  0  0  0
  190.7940  176.2690  142.9190 C   0  0  0  0  0  0  0  0  0  0  0  0
  189.7870  175.5320  142.7120 O   0  0  0  0  0  0  0  0  0  0  0  0
  190.6920  177.6870  142.7500 N   0  0  0  0  0  0  0  0  0  0  0  0
  191.7410  178.4730  143.0850 O   0  0  0  0  0  1  0  0  0  0  0  0
  192.0240  175.7050  143.2660 O   0  0  0  0  0  0  0  0  0  0  0  0
  190.8640  176.4360  146.5020 C   0  0  0  0  0  0  0  0  0  0  0  0
  192.4010  175.5410  144.5940 C   0  0  0  0  0  3  0  0  0  0  0  0
  191.6320  175.9760  145.5500 C   0  0  0  0  0  0  0  0  0  0  0  0
  192.3430  175.5520  148.2920 C   0  0  0  0  0  1  0  0  0  0  0  0
  191.2000  176.2800  147.8530 O   0  0  0  0  0  0  0  0  0  0  0  0
  189.6520  177.0980  146.1430 N   0  0  0  0  0  2  0  0  0  0  0  0
  186.3400  178.2390  147.1110 N   0  0  0  0  0  2  0  0  0  0  0  0
  188.6300  178.5220  147.8350 C   0  0  0  0  0  2  0  0  0  0  0  0
  187.1860  177.3170  146.3570 C   0  0  2  0  0  3  0  0  0  0  0  0
  188.5340  177.2340  147.0680 C   0  0  1  0  0  3  0  0  0  0  0  0
  187.1890  178.8900  148.1120 C   0  0  0  0  0  2  0  0  0  0  0  0
  187.2480  177.7220  144.8740 C   0  0  1  0  0  3  0  0  0  0  0  0
  187.2780  176.5840  144.0700 O   0  0  0  0  0  1  0  0  0  0  0  0
  183.7680  179.2970  144.5540 C   0  0  0  0  0  1  0  0  0  0  0  0
  184.8900  178.4140  144.9710 C   0  0  0  0  0  3  0  0  0  0  0  0
  186.1080  178.6050  144.4680 C   0  0  0  0  0  3  0  0  0  0  0  0
  1  2  1  1  0  0  0
  1 20  1  0  0  0  0
  1 41  1  0  0  0  0
  3  1  1  0  0  0  0
  4  3  1  0  0  0  0
  5  6  1  0  0  0  0
  5  4  1  0  0  0  0
  6  9  1  6  0  0  0
  8  7  1  0  0  0  0
  8  6  1  0  0  0  0
 10  9  1  6  0  0  0
 10 15  1  0  0  0  0
 11 12  1  0  0  0  0
 11 10  1  0  0  0  0
 13 14  1  0  0  0  0
 13 12  1  0  0  0  0
 15 16  1  0  0  0  0
 16 17  1  0  0  0  0
 16 18  2  0  0  0  0
 19 17  1  0  0  0  0
 21 20  1  0  0  0  0
 22 26  1  0  0  0  0
 23 27  2  0  0  0  0
 24 21  1  0  0  0  0
 24 40  1  0  0  0  0
 25 23  1  0  0  0  0
 25 22  2  0  0  0  0
 26 28  2  0  0  0  0
 27 28  1  0  0  0  0
 28 24  1  0  0  0  0
 29 32  2  0  0  0  0
 30 33  1  0  0  0  0
 30 34  1  0  0  0  0
 31 30  2  0  0  0  0
 32 22  1  0  0  0  0
 32 33  1  0  0  0  0
 35 34  1  0  0  0  0
 36 38  1  0  0  0  0
 36 35  1  0  0  0  0
 38 37  1  0  0  0  0
 40 39  1  0  0  0  0
 41 42  1  0  0  0  0
 42 45  1  0  0  0  0
 43 47  1  0  0  0  0
 44 43  2  0  0  0  0
 45 43  1  0  0  0  0
 45 46  1  0  0  0  0
 47 49  1  0  0  0  0
 48 52  1  0  0  0  0
 49 50  2  0  0  0  0
 50 48  2  0  0  0  0
 52 51  1  0  0  0  0
 53 48  1  0  0  0  0
 54 58  1  0  0  0  0
 55 58  1  0  0  0  0
 56 59  1  6  0  0  0
 56 57  1  0  0  0  0
 56 54  1  0  0  0  0
 57 53  1  6  0  0  0
 57 55  1  0  0  0  0
 59 60  1  6  0  0  0
 61 62  1  0  0  0  0
 63 59  1  0  0  0  0
 63 62  2  0  0  0  0
M  END
>  <MODEL>
6

>  <REMARK>
 VINA RESULT:      -2.9      2.664      4.072
  Name = 
  31 active torsions:
  status: ('A' for Active; 'I' for Inactive)
    1  A    between atoms: C_1  and  N_12
    2  A    between atoms: C_1  and  C_22
    3  A    between atoms: C_2  and  C_22
    4  A    between atoms: C_2  and  C_35
    5  A    between atoms: C_2  and  C_44
    6  A    between atoms: C_3  and  N_37
    7  A    between atoms: C_3  and  O_40
    8  A    between atoms: C_5  and  O_42
    9  A    between atoms: O_7  and  C_18
   10  A    between atoms: O_7  and  C_20
   11  A    between atoms: C_9  and  C_36
   12  A    between atoms: N_10  and  C_33
   13  A    between atoms: N_10  and  C_44
   14  A    between atoms: C_13  and  C_29
   15  A    between atoms: C_13  and  C_54
   16  A    between atoms: C_15  and  C_39
   17  A    between atoms: N_17  and  C_35
   18  A    between atoms: N_17  and  N_48
   19  A    between atoms: C_18  and  C_36
   20  A    between atoms: C_18  and  C_57
   21  A    between atoms: C_19  and  N_48
   22  A    between atoms: C_20  and  C_47
   23  A    between atoms: C_24  and  C_46
   24  A    between atoms: C_29  and  C_31
   25  A    between atoms: C_30  and  O_42
   26  A    between atoms: C_33  and  C_53
   27  A    between atoms: N_37  and  C_51
   28  A    between atoms: C_38  and  C_39
   29  A    between atoms: C_45  and  C_53
   30  A    between atoms: C_53  and  C_57
   31  A    between atoms: C_54  and  S_55
                            x       y       z     vdW  Elec       q    Type
                         _______ _______ _______ _____ _____    ______ ____

>  <TORSDO>
F 31

$$$$
=
 OpenBabel10222420293D

 63 64  0  0  1  0  0  0  0  0999 V2000
  189.4600  176.9580  138.8730 C   0  0  1  0  0  0  0  0  0  0  0  0
  188.1390  176.4850  139.4710 C   0  0  0  0  0  1  0  0  0  0  0  0
  190.2880  175.7460  138.4480 C   0  0  0  0  0  2  0  0  0  0  0  0
  190.9140  175.9490  137.1470 N   0  0  0  0  0  2  0  0  0  0  0  0
  192.0560  175.0470  137.0930 C   0  0  0  0  0  2  0  0  0  0  0  0
  193.3070  175.7810  136.6280 C   0  0  1  0  0  3  0  0  0  0  0  0
  193.2710  176.2740  138.9640 O   0  0  0  0  0  1  0  0  0  0  0  0
  194.0110  176.4570  137.7960 C   0  0  0  0  0  2  0  0  0  0  0  0
  194.2540  174.8380  135.8960 C   0  0  0  0  0  2  0  0  0  0  0  0
  195.1780  174.1430  136.8880 C   0  0  2  0  0  3  0  0  0  0  0  0
  196.5100  174.2760  136.4840 O   0  0  0  0  0  0  0  0  0  0  0  0
  197.1090  175.0450  137.4840 C   0  0  0  0  0  2  0  0  0  0  0  0
  197.6440  174.1430  138.5820 C   0  0  0  0  0  2  0  0  0  0  0  0
  199.0430  174.5730  138.9850 C   0  0  0  0  0  1  0  0  0  0  0  0
  194.8020  172.6660  137.0720 C   0  0  0  0  0  2  0  0  0  0  0  0
  194.3960  171.9710  135.8010 C   0  0  0  0  0  0  0  0  0  0  0  0
  195.3840  171.4270  134.9210 N   0  0  0  0  0  2  0  0  0  0  0  0
  193.1780  171.8030  135.5310 O   0  0  0  0  0  0  0  0  0  0  0  0
  196.8100  171.5300  135.1850 C   0  0  0  0  0  1  0  0  0  0  0  0
  189.1710  177.8600  137.6700 C   0  0  0  0  0  2  0  0  0  0  0  0
  187.9090  178.5770  137.8390 N   0  0  0  0  0  2  0  0  0  0  0  0
  183.3340  177.1470  136.8330 C   0  0  0  0  0  0  0  0  0  0  0  0
  183.8700  178.2560  138.9120 C   0  0  0  0  0  3  0  0  0  0  0  0
  186.9780  178.0280  136.9390 N   0  0  0  0  0  0  0  0  0  0  0  0
  182.9320  177.6410  138.0780 C   0  0  0  0  0  3  0  0  0  0  0  0
  184.6700  177.2950  136.4460 C   0  0  0  0  0  3  0  0  0  0  0  0
  185.1640  178.3760  138.5120 N   0  0  0  0  0  0  0  0  0  0  0  0
  185.5910  177.9090  137.3070 C   0  0  0  0  0  0  0  0  0  0  0  0
  182.4010  175.2650  135.7540 O   0  0  0  0  0  0  0  0  0  0  0  0
  180.7440  178.4530  135.6280 C   0  0  0  0  0  0  0  0  0  0  0  0
  180.8150  178.8000  136.8380 O   0  0  0  0  0  0  0  0  0  0  0  0
  182.3680  176.5130  135.9130 C   0  0  0  0  0  0  0  0  0  0  0  0
  181.4120  177.2750  135.1650 N   0  0  0  0  0  2  0  0  0  0  0  0
  179.8840  179.2290  134.6900 C   0  0  0  0  0  2  0  0  0  0  0  0
  179.0160  180.2200  135.4480 C   0  0  0  0  0  2  0  0  0  0  0  0
  179.0820  181.5870  134.7950 C   0  0  0  0  0  2  0  0  0  0  0  0
  180.7920  182.5040  136.5840 C   0  0  0  0  0  1  0  0  0  0  0  0
  179.0930  182.8910  136.0630 S   0  0  0  0  0  0  0  0  0  0  0  0
  187.4050  176.1050  135.6790 O   0  0  0  0  0  1  0  0  0  0  0  0
  187.4760  177.4960  135.6750 C   0  0  0  0  0  2  0  0  0  0  0  0
  190.2590  177.6990  139.9450 C   0  0  0  0  0  2  0  0  0  0  0  0
  190.6020  176.8370  141.1570 C   0  0  0  0  0  2  0  0  0  0  0  0
  190.1450  178.7250  142.7430 C   0  0  0  0  0  0  0  0  0  0  0  0
  189.1520  179.0950  142.0540 O   0  0  0  0  0  0  0  0  0  0  0  0
  191.0170  177.7000  142.2520 N   0  0  0  0  0  0  0  0  0  0  0  0
  192.1390  177.3940  142.9430 O   0  0  0  0  0  1  0  0  0  0  0  0
  190.3760  179.2750  144.0060 O   0  0  0  0  0  0  0  0  0  0  0  0
  188.0520  177.1540  145.5700 C   0  0  0  0  0  0  0  0  0  0  0  0
  190.2360  178.5220  145.1660 C   0  0  0  0  0  3  0  0  0  0  0  0
  189.1530  177.8290  145.3670 C   0  0  0  0  0  0  0  0  0  0  0  0
  188.3470  176.7610  148.0060 C   0  0  0  0  0  1  0  0  0  0  0  0
  187.8750  176.3720  146.7190 O   0  0  0  0  0  0  0  0  0  0  0  0
  187.0220  177.2130  144.5850 N   0  0  0  0  0  2  0  0  0  0  0  0
  184.8140  179.8010  143.3060 N   0  0  0  0  0  2  0  0  0  0  0  0
  186.2950  178.1000  142.4350 C   0  0  0  0  0  2  0  0  0  0  0  0
  185.5550  179.2110  144.4190 C   0  0  2  0  0  3  0  0  0  0  0  0
  186.7270  178.4280  143.8360 C   0  0  1  0  0  3  0  0  0  0  0  0
  185.3510  179.2230  142.0710 C   0  0  0  0  0  2  0  0  0  0  0  0
  184.6140  178.4060  145.3330 C   0  0  1  0  0  3  0  0  0  0  0  0
  185.0290  178.5170  146.6590 O   0  0  0  0  0  1  0  0  0  0  0  0
  181.0330  178.8810  144.0520 C   0  0  0  0  0  1  0  0  0  0  0  0
  182.4520  178.4470  144.1630 C   0  0  0  0  0  3  0  0  0  0  0  0
  183.1830  178.8300  145.2080 C   0  0  0  0  0  3  0  0  0  0  0  0
  1  2  1  1  0  0  0
  1 41  1  0  0  0  0
  3  1  1  0  0  0  0
  4  3  1  0  0  0  0
  5  4  1  0  0  0  0
  6  9  1  1  0  0  0
  6  5  1  0  0  0  0
  6  8  1  0  0  0  0
  8  7  1  0  0  0  0
 10  9  1  6  0  0  0
 10 15  1  0  0  0  0
 11 10  1  0  0  0  0
 11 12  1  0  0  0  0
 12 13  1  0  0  0  0
 13 14  1  0  0  0  0
 16 15  1  0  0  0  0
 17 19  1  0  0  0  0
 17 16  1  0  0  0  0
 18 16  2  0  0  0  0
 20 21  1  0  0  0  0
 20  1  1  0  0  0  0
 22 25  1  0  0  0  0
 24 28  1  0  0  0  0
 24 21  1  0  0  0  0
 25 23  2  0  0  0  0
 26 22  2  0  0  0  0
 26 28  1  0  0  0  0
 27 23  1  0  0  0  0
 28 27  2  0  0  0  0
 29 32  2  0  0  0  0
 30 31  2  0  0  0  0
 32 22  1  0  0  0  0
 33 30  1  0  0  0  0
 33 32  1  0  0  0  0
 34 35  1  0  0  0  0
 34 30  1  0  0  0  0
 36 35  1  0  0  0  0
 36 38  1  0  0  0  0
 38 37  1  0  0  0  0
 40 39  1  0  0  0  0
 40 24  1  0  0  0  0
 41 42  1  0  0  0  0
 42 45  1  0  0  0  0
 43 47  1  0  0  0  0
 44 43  2  0  0  0  0
 45 43  1  0  0  0  0
 45 46  1  0  0  0  0
 47 49  1  0  0  0  0
 48 52  1  0  0  0  0
 49 50  2  0  0  0  0
 50 48  2  0  0  0  0
 52 51  1  0  0  0  0
 53 48  1  0  0  0  0
 54 56  1  0  0  0  0
 55 57  1  0  0  0  0
 56 59  1  6  0  0  0
 57 56  1  0  0  0  0
 57 53  1  1  0  0  0
 58 55  1  0  0  0  0
 58 54  1  0  0  0  0
 59 60  1  1  0  0  0
 61 62  1  0  0  0  0
 62 63  2  0  0  0  0
 63 59  1  0  0  0  0
M  END
>  <MODEL>
7

>  <REMARK>
 VINA RESULT:      -2.7      2.662      4.294
  Name = 
  31 active torsions:
  status: ('A' for Active; 'I' for Inactive)
    1  A    between atoms: C_1  and  N_12
    2  A    between atoms: C_1  and  C_22
    3  A    between atoms: C_2  and  C_22
    4  A    between atoms: C_2  and  C_35
    5  A    between atoms: C_2  and  C_44
    6  A    between atoms: C_3  and  N_37
    7  A    between atoms: C_3  and  O_40
    8  A    between atoms: C_5  and  O_42
    9  A    between atoms: O_7  and  C_18
   10  A    between atoms: O_7  and  C_20
   11  A    between atoms: C_9  and  C_36
   12  A    between atoms: N_10  and  C_33
   13  A    between atoms: N_10  and  C_44
   14  A    between atoms: C_13  and  C_29
   15  A    between atoms: C_13  and  C_54
   16  A    between atoms: C_15  and  C_39
   17  A    between atoms: N_17  and  C_35
   18  A    between atoms: N_17  and  N_48
   19  A    between atoms: C_18  and  C_36
   20  A    between atoms: C_18  and  C_57
   21  A    between atoms: C_19  and  N_48
   22  A    between atoms: C_20  and  C_47
   23  A    between atoms: C_24  and  C_46
   24  A    between atoms: C_29  and  C_31
   25  A    between atoms: C_30  and  O_42
   26  A    between atoms: C_33  and  C_53
   27  A    between atoms: N_37  and  C_51
   28  A    between atoms: C_38  and  C_39
   29  A    between atoms: C_45  and  C_53
   30  A    between atoms: C_53  and  C_57
   31  A    between atoms: C_54  and  S_55
                            x       y       z     vdW  Elec       q    Type
                         _______ _______ _______ _____ _____    ______ ____

>  <TORSDO>
F 31

$$$$
=
 OpenBabel10222420293D

 63 64  0  0  1  0  0  0  0  0999 V2000
  189.3870  176.8130  138.8110 C   0  0  1  0  0  0  0  0  0  0  0  0
  188.0810  176.3980  139.4790 C   0  0  0  0  0  1  0  0  0  0  0  0
  190.0980  175.5730  138.2690 C   0  0  0  0  0  2  0  0  0  0  0  0
  190.8900  175.8790  137.0840 N   0  0  0  0  0  2  0  0  0  0  0  0
  192.2100  175.3090  137.3120 C   0  0  0  0  0  2  0  0  0  0  0  0
  193.1950  176.3810  137.7630 C   0  0  1  0  0  3  0  0  0  0  0  0
  194.2970  177.3200  139.6610 O   0  0  0  0  0  1  0  0  0  0  0  0
  193.5090  176.2460  139.2450 C   0  0  0  0  0  2  0  0  0  0  0  0
  194.4710  176.3350  136.9310 C   0  0  0  0  0  2  0  0  0  0  0  0
  195.1140  174.9570  137.0250 C   0  0  2  0  0  3  0  0  0  0  0  0
  196.1850  174.9830  137.9220 O   0  0  0  0  0  0  0  0  0  0  0  0
  196.7370  173.7030  137.8530 C   0  0  0  0  0  2  0  0  0  0  0  0
  198.2520  173.7860  137.9260 C   0  0  0  0  0  2  0  0  0  0  0  0
  198.6740  174.8140  138.9610 C   0  0  0  0  0  1  0  0  0  0  0  0
  195.5580  174.4460  135.6480 C   0  0  0  0  0  2  0  0  0  0  0  0
  194.5910  173.4900  135.0040 C   0  0  0  0  0  0  0  0  0  0  0  0
  194.9470  172.1200  134.8020 N   0  0  0  0  0  2  0  0  0  0  0  0
  193.4310  173.8720  134.6970 O   0  0  0  0  0  0  0  0  0  0  0  0
  196.2460  171.5850  135.1760 C   0  0  0  0  0  1  0  0  0  0  0  0
  189.0800  177.7940  137.6770 C   0  0  0  0  0  2  0  0  0  0  0  0
  187.8280  178.5070  137.9200 N   0  0  0  0  0  2  0  0  0  0  0  0
  183.2150  177.5880  136.5560 C   0  0  0  0  0  0  0  0  0  0  0  0
  183.7180  178.4890  138.7410 C   0  0  0  0  0  3  0  0  0  0  0  0
  186.9090  178.1140  136.9310 N   0  0  0  0  0  0  0  0  0  0  0  0
  182.7820  178.0260  137.8120 C   0  0  0  0  0  3  0  0  0  0  0  0
  184.5800  177.6370  136.2560 C   0  0  0  0  0  3  0  0  0  0  0  0
  185.0400  178.5150  138.4230 N   0  0  0  0  0  0  0  0  0  0  0  0
  185.4970  178.0990  137.2110 C   0  0  0  0  0  0  0  0  0  0  0  0
  181.8480  177.9170  134.6570 O   0  0  0  0  0  0  0  0  0  0  0  0
  182.4710  174.6050  135.9110 C   0  0  0  0  0  0  0  0  0  0  0  0
  183.7170  174.6540  136.0890 O   0  0  0  0  0  0  0  0  0  0  0  0
  182.2550  177.1140  135.5380 C   0  0  0  0  0  0  0  0  0  0  0  0
  181.7390  175.7770  135.5380 N   0  0  0  0  0  2  0  0  0  0  0  0
  181.7650  173.2950  136.0070 C   0  0  0  0  0  2  0  0  0  0  0  0
  180.4020  173.3680  135.3380 C   0  0  0  0  0  2  0  0  0  0  0  0
  179.3890  172.5500  136.1160 C   0  0  0  0  0  2  0  0  0  0  0  0
  180.3400  170.2420  135.2580 C   0  0  0  0  0  1  0  0  0  0  0  0
  180.1900  171.0940  136.8570 S   0  0  0  0  0  0  0  0  0  0  0  0
  187.6220  178.6970  134.7810 O   0  0  0  0  0  1  0  0  0  0  0  0
  187.4350  177.6310  135.6580 C   0  0  0  0  0  2  0  0  0  0  0  0
  190.3080  177.4420  139.8560 C   0  0  0  0  0  2  0  0  0  0  0  0
  190.4300  176.6200  141.1370 C   0  0  0  0  0  2  0  0  0  0  0  0
  190.4700  178.6930  142.5490 C   0  0  0  0  0  0  0  0  0  0  0  0
  189.6120  179.2470  141.8020 O   0  0  0  0  0  0  0  0  0  0  0  0
  191.0470  177.4390  142.1700 N   0  0  0  0  0  0  0  0  0  0  0  0
  192.0460  176.9140  142.9160 O   0  0  0  0  0  1  0  0  0  0  0  0
  190.8270  179.2730  143.7680 O   0  0  0  0  0  0  0  0  0  0  0  0
  188.6220  177.2760  145.6380 C   0  0  0  0  0  0  0  0  0  0  0  0
  190.7930  178.5510  144.9560 C   0  0  0  0  0  3  0  0  0  0  0  0
  189.7150  177.9030  145.2950 C   0  0  0  0  0  0  0  0  0  0  0  0
  187.7380  176.9010  147.9310 C   0  0  0  0  0  1  0  0  0  0  0  0
  188.5480  176.5260  146.8200 O   0  0  0  0  0  0  0  0  0  0  0  0
  187.4900  177.3510  144.7740 N   0  0  0  0  0  2  0  0  0  0  0  0
  185.4750  179.6670  142.8270 N   0  0  0  0  0  2  0  0  0  0  0  0
  187.1050  177.9240  142.4370 C   0  0  0  0  0  2  0  0  0  0  0  0
  186.0360  179.2550  144.1130 C   0  0  2  0  0  3  0  0  0  0  0  0
  187.3000  178.4470  143.8320 C   0  0  1  0  0  3  0  0  0  0  0  0
  186.2130  178.9550  141.7820 C   0  0  0  0  0  2  0  0  0  0  0  0
  184.9740  178.5400  144.9660 C   0  0  1  0  0  3  0  0  0  0  0  0
  184.7630  179.2430  146.1510 O   0  0  0  0  0  1  0  0  0  0  0  0
  181.2780  178.7320  143.9670 C   0  0  0  0  0  1  0  0  0  0  0  0
  182.5600  178.9260  144.6960 C   0  0  0  0  0  3  0  0  0  0  0  0
  183.6750  178.3580  144.2410 C   0  0  0  0  0  3  0  0  0  0  0  0
  1  2  1  1  0  0  0
  1 41  1  0  0  0  0
  3  1  1  0  0  0  0
  4  5  1  0  0  0  0
  4  3  1  0  0  0  0
  5  6  1  0  0  0  0
  6  9  1  6  0  0  0
  6  8  1  0  0  0  0
  8  7  1  0  0  0  0
  9 10  1  0  0  0  0
 10 15  1  6  0  0  0
 10 11  1  0  0  0  0
 12 11  1  0  0  0  0
 12 13  1  0  0  0  0
 13 14  1  0  0  0  0
 16 15  1  0  0  0  0
 17 16  1  0  0  0  0
 17 19  1  0  0  0  0
 18 16  2  0  0  0  0
 20 21  1  0  0  0  0
 20  1  1  0  0  0  0
 22 25  1  0  0  0  0
 24 28  1  0  0  0  0
 24 21  1  0  0  0  0
 25 23  2  0  0  0  0
 26 22  2  0  0  0  0
 26 28  1  0  0  0  0
 27 23  1  0  0  0  0
 28 27  2  0  0  0  0
 29 32  2  0  0  0  0
 30 34  1  0  0  0  0
 30 31  2  0  0  0  0
 32 33  1  0  0  0  0
 32 22  1  0  0  0  0
 33 30  1  0  0  0  0
 35 34  1  0  0  0  0
 35 36  1  0  0  0  0
 36 38  1  0  0  0  0
 37 38  1  0  0  0  0
 39 40  1  0  0  0  0
 40 24  1  0  0  0  0
 41 42  1  0  0  0  0
 42 45  1  0  0  0  0
 43 47  1  0  0  0  0
 44 43  2  0  0  0  0
 45 43  1  0  0  0  0
 45 46  1  0  0  0  0
 47 49  1  0  0  0  0
 48 52  1  0  0  0  0
 49 50  2  0  0  0  0
 50 48  2  0  0  0  0
 52 51  1  0  0  0  0
 53 48  1  0  0  0  0
 54 56  1  0  0  0  0
 55 57  1  0  0  0  0
 56 59  1  6  0  0  0
 57 56  1  0  0  0  0
 57 53  1  1  0  0  0
 58 55  1  0  0  0  0
 58 54  1  0  0  0  0
 59 60  1  1  0  0  0
 61 62  1  0  0  0  0
 63 62  2  0  0  0  0
 63 59  1  0  0  0  0
M  END
>  <MODEL>
8

>  <REMARK>
 VINA RESULT:      -2.6      2.867      4.509
  Name = 
  31 active torsions:
  status: ('A' for Active; 'I' for Inactive)
    1  A    between atoms: C_1  and  N_12
    2  A    between atoms: C_1  and  C_22
    3  A    between atoms: C_2  and  C_22
    4  A    between atoms: C_2  and  C_35
    5  A    between atoms: C_2  and  C_44
    6  A    between atoms: C_3  and  N_37
    7  A    between atoms: C_3  and  O_40
    8  A    between atoms: C_5  and  O_42
    9  A    between atoms: O_7  and  C_18
   10  A    between atoms: O_7  and  C_20
   11  A    between atoms: C_9  and  C_36
   12  A    between atoms: N_10  and  C_33
   13  A    between atoms: N_10  and  C_44
   14  A    between atoms: C_13  and  C_29
   15  A    between atoms: C_13  and  C_54
   16  A    between atoms: C_15  and  C_39
   17  A    between atoms: N_17  and  C_35
   18  A    between atoms: N_17  and  N_48
   19  A    between atoms: C_18  and  C_36
   20  A    between atoms: C_18  and  C_57
   21  A    between atoms: C_19  and  N_48
   22  A    between atoms: C_20  and  C_47
   23  A    between atoms: C_24  and  C_46
   24  A    between atoms: C_29  and  C_31
   25  A    between atoms: C_30  and  O_42
   26  A    between atoms: C_33  and  C_53
   27  A    between atoms: N_37  and  C_51
   28  A    between atoms: C_38  and  C_39
   29  A    between atoms: C_45  and  C_53
   30  A    between atoms: C_53  and  C_57
   31  A    between atoms: C_54  and  S_55
                            x       y       z     vdW  Elec       q    Type
                         _______ _______ _______ _____ _____    ______ ____

>  <TORSDO>
F 31

$$$$
=
 OpenBabel10222420293D

 63 64  0  0  1  0  0  0  0  0999 V2000
  190.2590  176.3890  138.1020 C   0  0  1  0  0  0  0  0  0  0  0  0
  189.6750  175.2020  138.8600 C   0  0  0  0  0  1  0  0  0  0  0  0
  191.0170  175.8860  136.8740 C   0  0  0  0  0  2  0  0  0  0  0  0
  192.1160  176.7730  136.5160 N   0  0  0  0  0  2  0  0  0  0  0  0
  193.1590  175.9300  135.9470 C   0  0  0  0  0  2  0  0  0  0  0  0
  193.3400  174.6610  136.7680 C   0  0  1  0  0  3  0  0  0  0  0  0
  192.7810  173.7740  134.6230 O   0  0  0  0  0  1  0  0  0  0  0  0
  192.9540  173.4290  135.9640 C   0  0  0  0  0  2  0  0  0  0  0  0
  194.7690  174.5450  137.2860 C   0  0  0  0  0  2  0  0  0  0  0  0
  195.4660  173.3480  136.6510 C   0  0  2  0  0  3  0  0  0  0  0  0
  196.1560  172.6180  137.6220 O   0  0  0  0  0  0  0  0  0  0  0  0
  195.5910  171.3420  137.5770 C   0  0  0  0  0  2  0  0  0  0  0  0
  196.6850  170.2890  137.5850 C   0  0  0  0  0  2  0  0  0  0  0  0
  197.4540  170.3160  136.2770 C   0  0  0  0  0  1  0  0  0  0  0  0
  196.4020  173.7780  135.5140 C   0  0  0  0  0  2  0  0  0  0  0  0
  196.9870  175.1540  135.6830 C   0  0  0  0  0  0  0  0  0  0  0  0
  198.2750  175.3300  136.2780 N   0  0  0  0  0  2  0  0  0  0  0  0
  196.3730  176.1620  135.2420 O   0  0  0  0  0  0  0  0  0  0  0  0
  199.0710  174.2150  136.7650 C   0  0  0  0  0  1  0  0  0  0  0  0
  189.1220  177.3250  137.6830 C   0  0  0  0  0  2  0  0  0  0  0  0
  188.9230  177.3000  136.2360 N   0  0  0  0  0  2  0  0  0  0  0  0
  184.3610  178.0480  137.8520 C   0  0  0  0  0  0  0  0  0  0  0  0
  186.2740  178.4610  139.2700 C   0  0  0  0  0  3  0  0  0  0  0  0
  187.5390  177.3420  135.9900 N   0  0  0  0  0  0  0  0  0  0  0  0
  184.8880  178.4360  139.0880 C   0  0  0  0  0  3  0  0  0  0  0  0
  185.2390  177.7060  136.8190 C   0  0  0  0  0  3  0  0  0  0  0  0
  187.1020  178.1140  138.2480 N   0  0  0  0  0  0  0  0  0  0  0  0
  186.6250  177.7330  137.0320 C   0  0  0  0  0  0  0  0  0  0  0  0
  182.2610  179.1130  137.6650 O   0  0  0  0  0  0  0  0  0  0  0  0
  182.6800  175.7000  136.6180 C   0  0  0  0  0  0  0  0  0  0  0  0
  183.7480  175.7890  135.9560 O   0  0  0  0  0  0  0  0  0  0  0  0
  182.9030  178.0320  137.6140 C   0  0  0  0  0  0  0  0  0  0  0  0
  182.1840  176.8180  137.3600 N   0  0  0  0  0  2  0  0  0  0  0  0
  181.8800  174.4430  136.5580 C   0  0  0  0  0  2  0  0  0  0  0  0
  182.7890  173.2290  136.4570 C   0  0  0  0  0  2  0  0  0  0  0  0
  182.0710  172.0880  135.7630 C   0  0  0  0  0  2  0  0  0  0  0  0
  184.4890  171.2790  136.4470 C   0  0  0  0  0  1  0  0  0  0  0  0
  182.8680  170.5030  136.1690 S   0  0  0  0  0  0  0  0  0  0  0  0
  186.9140  175.4990  134.6940 O   0  0  0  0  0  1  0  0  0  0  0  0
  187.0570  176.8850  134.6910 C   0  0  0  0  0  2  0  0  0  0  0  0
  191.2700  177.1070  138.9960 C   0  0  0  0  0  2  0  0  0  0  0  0
  190.6400  178.1450  139.9200 C   0  0  0  0  0  2  0  0  0  0  0  0
  191.1470  177.1220  142.1530 C   0  0  0  0  0  0  0  0  0  0  0  0
  192.3810  177.0790  141.8800 O   0  0  0  0  0  0  0  0  0  0  0  0
  190.2010  177.4890  141.1430 N   0  0  0  0  0  0  0  0  0  0  0  0
  188.8780  177.4190  141.4140 O   0  0  0  0  0  1  0  0  0  0  0  0
  190.7000  176.8580  143.4490 O   0  0  0  0  0  0  0  0  0  0  0  0
  190.6100  176.5760  146.9510 C   0  0  0  0  0  0  0  0  0  0  0  0
  191.5530  176.9340  144.5450 C   0  0  0  0  0  3  0  0  0  0  0  0
  191.0890  176.7450  145.7470 C   0  0  0  0  0  0  0  0  0  0  0  0
  192.6110  175.8370  148.2250 C   0  0  0  0  0  1  0  0  0  0  0  0
  191.4370  176.6300  148.0810 O   0  0  0  0  0  0  0  0  0  0  0  0
  189.2160  176.3170  147.1020 N   0  0  0  0  0  2  0  0  0  0  0  0
  186.7800  178.9330  147.7590 N   0  0  0  0  0  2  0  0  0  0  0  0
  189.0570  178.3920  148.3690 C   0  0  0  0  0  2  0  0  0  0  0  0
  187.0900  177.5920  147.2680 C   0  0  2  0  0  3  0  0  0  0  0  0
  188.3620  177.1220  147.9670 C   0  0  1  0  0  3  0  0  0  0  0  0
  187.9290  179.3830  148.5490 C   0  0  0  0  0  2  0  0  0  0  0  0
  187.1370  177.5730  145.7300 C   0  0  1  0  0  3  0  0  0  0  0  0
  186.9260  176.2770  145.2640 O   0  0  0  0  0  1  0  0  0  0  0  0
  184.6730  179.2070  143.2910 C   0  0  0  0  0  1  0  0  0  0  0  0
  185.6550  178.2660  143.8950 C   0  0  0  0  0  3  0  0  0  0  0  0
  186.1450  178.5080  145.1090 C   0  0  0  0  0  3  0  0  0  0  0  0
  1  2  1  1  0  0  0
  1 41  1  0  0  0  0
  3  1  1  0  0  0  0
  4  3  1  0  0  0  0
  5  4  1  0  0  0  0
  6  5  1  6  0  0  0
  6  9  1  0  0  0  0
  7  8  1  0  0  0  0
  8  6  1  0  0  0  0
 10 15  1  6  0  0  0
 10  9  1  0  0  0  0
 10 11  1  0  0  0  0
 12 13  1  0  0  0  0
 12 11  1  0  0  0  0
 14 13  1  0  0  0  0
 15 16  1  0  0  0  0
 16 17  1  0  0  0  0
 17 19  1  0  0  0  0
 18 16  2  0  0  0  0
 20  1  1  0  0  0  0
 21 20  1  0  0  0  0
 22 25  1  0  0  0  0
 24 21  1  0  0  0  0
 24 28  1  0  0  0  0
 25 23  2  0  0  0  0
 26 28  1  0  0  0  0
 26 22  2  0  0  0  0
 27 23  1  0  0  0  0
 28 27  2  0  0  0  0
 30 33  1  0  0  0  0
 31 30  2  0  0  0  0
 32 29  2  0  0  0  0
 32 22  1  0  0  0  0
 33 32  1  0  0  0  0
 34 30  1  0  0  0  0
 35 34  1  0  0  0  0
 36 38  1  0  0  0  0
 36 35  1  0  0  0  0
 38 37  1  0  0  0  0
 40 39  1  0  0  0  0
 40 24  1  0  0  0  0
 41 42  1  0  0  0  0
 42 45  1  0  0  0  0
 43 47  1  0  0  0  0
 44 43  2  0  0  0  0
 45 46  1  0  0  0  0
 45 43  1  0  0  0  0
 47 49  1  0  0  0  0
 48 53  1  0  0  0  0
 48 52  1  0  0  0  0
 49 50  2  0  0  0  0
 50 48  2  0  0  0  0
 52 51  1  0  0  0  0
 54 58  1  0  0  0  0
 55 58  1  0  0  0  0
 56 59  1  6  0  0  0
 56 54  1  0  0  0  0
 56 57  1  0  0  0  0
 57 53  1  6  0  0  0
 57 55  1  0  0  0  0
 59 60  1  6  0  0  0
 61 62  1  0  0  0  0
 62 63  2  0  0  0  0
 63 59  1  0  0  0  0
M  END
>  <MODEL>
9

>  <REMARK>
 VINA RESULT:      -2.3      2.730      4.429
  Name = 
  31 active torsions:
  status: ('A' for Active; 'I' for Inactive)
    1  A    between atoms: C_1  and  N_12
    2  A    between atoms: C_1  and  C_22
    3  A    between atoms: C_2  and  C_22
    4  A    between atoms: C_2  and  C_35
    5  A    between atoms: C_2  and  C_44
    6  A    between atoms: C_3  and  N_37
    7  A    between atoms: C_3  and  O_40
    8  A    between atoms: C_5  and  O_42
    9  A    between atoms: O_7  and  C_18
   10  A    between atoms: O_7  and  C_20
   11  A    between atoms: C_9  and  C_36
   12  A    between atoms: N_10  and  C_33
   13  A    between atoms: N_10  and  C_44
   14  A    between atoms: C_13  and  C_29
   15  A    between atoms: C_13  and  C_54
   16  A    between atoms: C_15  and  C_39
   17  A    between atoms: N_17  and  C_35
   18  A    between atoms: N_17  and  N_48
   19  A    between atoms: C_18  and  C_36
   20  A    between atoms: C_18  and  C_57
   21  A    between atoms: C_19  and  N_48
   22  A    between atoms: C_20  and  C_47
   23  A    between atoms: C_24  and  C_46
   24  A    between atoms: C_29  and  C_31
   25  A    between atoms: C_30  and  O_42
   26  A    between atoms: C_33  and  C_53
   27  A    between atoms: N_37  and  C_51
   28  A    between atoms: C_38  and  C_39
   29  A    between atoms: C_45  and  C_53
   30  A    between atoms: C_53  and  C_57
   31  A    between atoms: C_54  and  S_55
                            x       y       z     vdW  Elec       q    Type
                         _______ _______ _______ _____ _____    ______ ____

>  <TORSDO>
F 31

$$$$
