=
 OpenBabel10222419583D

 36 40  0  0  1  0  0  0  0  0999 V2000
  179.5420  177.9460  140.1720 C   0  0  0  0  0  3  0  0  0  0  0  0
  180.9410  178.2610  139.8030 C   0  0  0  0  0  0  0  0  0  0  0  0
  180.7560  175.1180  140.2790 C   0  0  0  0  0  3  0  0  0  0  0  0
  183.9030  177.0690  138.1050 C   0  0  0  0  0  0  0  0  0  0  0  0
  183.2180  177.8120  139.1360 N   0  0  0  0  0  0  0  0  0  0  0  0
  178.9360  174.6060  141.6260 O   0  0  0  0  0  1  0  0  0  0  0  0
  185.0390  177.6820  137.3300 C   0  0  0  0  0  2  0  0  0  0  0  0
  184.2270  175.0010  136.7730 C   0  0  0  0  0  2  0  0  0  0  0  0
  181.6610  175.8900  139.4270 C   0  0  0  0  0  0  0  0  0  0  0  0
  186.4810  174.4860  136.3290 O   0  0  0  0  0  0  0  0  0  0  0  0
  185.6930  175.3340  136.7120 C   0  0  0  0  0  0  0  0  0  0  0  0
  186.1950  176.6900  137.1540 C   0  0  1  0  0  3  0  0  0  0  0  0
  181.9070  177.3510  139.5510 C   0  0  0  0  0  0  0  0  0  0  0  0
  183.5280  175.8060  137.8330 C   0  0  0  0  0  0  0  0  0  0  0  0
  184.5920  179.6950  139.3770 O   0  0  0  0  0  0  0  0  0  0  0  0
  178.9910  176.8180  140.6110 C   0  0  0  0  0  3  0  0  0  0  0  0
  179.6200  175.5170  140.8350 C   0  0  0  0  0  0  0  0  0  0  0  0
  182.4440  175.1810  138.6100 C   0  0  0  0  0  3  0  0  0  0  0  0
  183.9520  178.7620  139.9300 C   0  0  0  0  0  0  0  0  0  0  0  0
  189.4900  177.6940  135.3770 C   0  0  0  0  0  1  0  0  0  0  0  0
  187.1570  177.2170  136.1950 N   0  0  0  0  0  2  0  0  0  0  0  0
  188.5680  177.1230  136.3920 C   0  0  0  0  0  0  0  0  0  0  0  0
  189.0370  176.5570  137.4140 O   0  0  0  0  0  0  0  0  0  0  0  0
  181.2720  179.6150  139.6470 O   0  0  0  0  0  0  0  0  0  0  0  0
  181.3230  180.3930  137.4740 C   0  0  0  0  0  2  0  0  0  0  0  0
  180.8590  182.6620  137.2820 C   0  0  0  0  0  1  0  0  0  0  0  0
  180.5910  180.5050  138.7700 C   0  0  1  0  0  0  0  0  0  0  0  0
  180.6310  181.7650  139.3710 O   0  0  0  0  0  0  0  0  0  0  0  0
  181.4620  181.6660  138.2470 C   0  0  1  0  0  0  0  0  0  0  0  0
  184.0030  178.6240  141.4160 C   0  0  0  0  0  2  0  0  0  0  0  0
  185.1720  179.4070  141.9900 C   0  0  0  0  0  2  0  0  0  0  0  0
  186.2170  178.4920  142.4190 N   0  0  0  0  0  2  0  0  0  0  0  0
  185.6920  177.7290  143.5450 C   0  0  0  0  0  2  0  0  0  0  0  0
  186.4650  178.0180  144.7420 N   0  0  0  0  0  2  0  0  0  0  0  0
  185.8690  178.6340  145.8520 C   0  0  0  0  0  0  0  0  0  0  0  0
  185.3760  179.1440  146.7670 N   0  0  0  0  0  0  0  0  0  0  0  0
  1 16  2  0  0  0  0
  2  1  1  0  0  0  0
  3 17  2  0  0  0  0
  4  5  1  0  0  0  0
  5 13  1  0  0  0  0
  5 19  1  0  0  0  0
  7  4  1  0  0  0  0
  8 14  1  0  0  0  0
  9 13  1  0  0  0  0
  9  3  1  0  0  0  0
 10 11  2  0  0  0  0
 11  8  1  0  0  0  0
 11 12  1  0  0  0  0
 12 21  1  6  0  0  0
 12  7  1  0  0  0  0
 13  2  2  0  0  0  0
 14  4  2  0  0  0  0
 14 18  1  0  0  0  0
 15 19  2  0  0  0  0
 16 17  1  0  0  0  0
 17  6  1  0  0  0  0
 18  9  2  0  0  0  0
 19 30  1  0  0  0  0
 20 22  1  0  0  0  0
 21 22  1  0  0  0  0
 22 23  2  0  0  0  0
 24  2  1  0  0  0  0
 25 29  1  0  0  0  0
 25 27  1  0  0  0  0
 27 28  1  0  0  0  0
 27 24  1  1  0  0  0
 29 26  1  6  0  0  0
 29 27  1  0  0  0  0
 29 28  1  0  0  0  0
 30 31  1  0  0  0  0
 31 32  1  0  0  0  0
 32 33  1  0  0  0  0
 33 34  1  0  0  0  0
 34 35  1  0  0  0  0
 35 36  3  0  0  0  0
M  END
>  <MODEL>
1

>  <REMARK>
 VINA RESULT:      -6.0      0.000      0.000
  Name = 
  9 active torsions:
  status: ('A' for Active; 'I' for Inactive)
    1  A    between atoms: C_3  and  O_5
    2  A    between atoms: O_5  and  C_21
    3  A    between atoms: C_6  and  N_24
    4  A    between atoms: C_8  and  C_13
    5  A    between atoms: C_8  and  N_29
    6  A    between atoms: C_13  and  C_36
    7  A    between atoms: N_18  and  C_25
    8  A    between atoms: N_24  and  C_32
    9  A    between atoms: N_29  and  C_32
                            x       y       z     vdW  Elec       q    Type
                         _______ _______ _______ _____ _____    ______ ____

>  <TORSDO>
F 9

$$$$
=
 OpenBabel10222419583D

 36 40  0  0  1  0  0  0  0  0999 V2000
  191.9800  176.3700  138.3030 C   0  0  0  0  0  3  0  0  0  0  0  0
  190.5460  176.0300  138.1560 C   0  0  0  0  0  0  0  0  0  0  0  0
  192.0490  175.0020  135.5450 C   0  0  0  0  0  3  0  0  0  0  0  0
  188.1850  173.6380  136.8240 C   0  0  0  0  0  0  0  0  0  0  0  0
  188.6010  174.9680  137.1970 N   0  0  0  0  0  0  0  0  0  0  0  0
  194.0410  176.1570  135.2460 O   0  0  0  0  0  1  0  0  0  0  0  0
  186.8270  173.1110  137.2090 C   0  0  0  0  0  2  0  0  0  0  0  0
  188.6100  171.4670  135.7000 C   0  0  0  0  0  2  0  0  0  0  0  0
  190.8300  174.5090  136.1850 C   0  0  0  0  0  0  0  0  0  0  0  0
  186.7340  170.5720  134.5940 O   0  0  0  0  0  0  0  0  0  0  0  0
  187.1380  171.3970  135.3960 C   0  0  0  0  0  0  0  0  0  0  0  0
  186.1690  172.3580  136.0470 C   0  0  1  0  0  3  0  0  0  0  0  0
  190.0190  175.2710  137.1710 C   0  0  0  0  0  0  0  0  0  0  0  0
  189.0170  172.8530  136.1150 C   0  0  0  0  0  0  0  0  0  0  0  0
  186.6060  175.8980  138.0020 O   0  0  0  0  0  0  0  0  0  0  0  0
  192.9840  176.2940  137.4350 C   0  0  0  0  0  3  0  0  0  0  0  0
  192.9700  175.8090  136.0550 C   0  0  0  0  0  0  0  0  0  0  0  0
  190.3310  173.3700  135.6970 C   0  0  0  0  0  3  0  0  0  0  0  0
  187.6230  176.0220  137.2690 C   0  0  0  0  0  0  0  0  0  0  0  0
  182.5070  171.3880  136.8630 C   0  0  0  0  0  1  0  0  0  0  0  0
  184.9870  171.6510  136.5230 N   0  0  0  0  0  2  0  0  0  0  0  0
  183.6650  172.1570  136.3420 C   0  0  0  0  0  0  0  0  0  0  0  0
  183.4710  173.2460  135.7400 O   0  0  0  0  0  0  0  0  0  0  0  0
  189.6750  176.4870  139.1560 O   0  0  0  0  0  0  0  0  0  0  0  0
  190.4220  176.6120  141.3380 C   0  0  0  0  0  2  0  0  0  0  0  0
  189.4540  178.3360  142.5590 C   0  0  0  0  0  1  0  0  0  0  0  0
  190.0370  177.4360  140.1530 C   0  0  1  0  0  0  0  0  0  0  0  0
  188.9270  178.2630  140.3380 O   0  0  0  0  0  0  0  0  0  0  0  0
  189.1490  177.3960  141.4150 C   0  0  1  0  0  0  0  0  0  0  0  0
  187.7780  177.2540  136.4400 C   0  0  0  0  0  2  0  0  0  0  0  0
  186.5840  178.1770  136.6180 C   0  0  0  0  0  2  0  0  0  0  0  0
  186.5260  178.6510  137.9910 N   0  0  0  0  0  2  0  0  0  0  0  0
  185.1220  178.6920  138.3800 C   0  0  0  0  0  2  0  0  0  0  0  0
  184.9580  179.5330  139.5540 N   0  0  0  0  0  2  0  0  0  0  0  0
  185.3690  179.0890  140.8200 C   0  0  0  0  0  0  0  0  0  0  0  0
  185.7090  178.7250  141.8650 N   0  0  0  0  0  0  0  0  0  0  0  0
  2  1  1  0  0  0  0
  2 24  1  0  0  0  0
  3 17  2  0  0  0  0
  3  9  1  0  0  0  0
  4  5  1  0  0  0  0
  4  7  1  0  0  0  0
  5 19  1  0  0  0  0
  6 17  1  0  0  0  0
  8 14  1  0  0  0  0
  9 13  1  0  0  0  0
 10 11  2  0  0  0  0
 11  8  1  0  0  0  0
 11 12  1  0  0  0  0
 12 21  1  1  0  0  0
 12  7  1  0  0  0  0
 13  5  1  0  0  0  0
 13  2  2  0  0  0  0
 14  4  2  0  0  0  0
 16  1  2  0  0  0  0
 17 16  1  0  0  0  0
 18 14  1  0  0  0  0
 18  9  2  0  0  0  0
 19 15  2  0  0  0  0
 22 21  1  0  0  0  0
 22 20  1  0  0  0  0
 23 22  2  0  0  0  0
 25 29  1  0  0  0  0
 27 24  1  6  0  0  0
 27 28  1  0  0  0  0
 27 25  1  0  0  0  0
 27 29  1  0  0  0  0
 28 29  1  0  0  0  0
 29 26  1  1  0  0  0
 30 31  1  0  0  0  0
 30 19  1  0  0  0  0
 31 32  1  0  0  0  0
 32 33  1  0  0  0  0
 33 34  1  0  0  0  0
 34 35  1  0  0  0  0
 35 36  3  0  0  0  0
M  END
>  <MODEL>
2

>  <REMARK>
 VINA RESULT:      -5.1      4.239      8.528
  Name = 
  9 active torsions:
  status: ('A' for Active; 'I' for Inactive)
    1  A    between atoms: C_3  and  O_5
    2  A    between atoms: O_5  and  C_21
    3  A    between atoms: C_6  and  N_24
    4  A    between atoms: C_8  and  C_13
    5  A    between atoms: C_8  and  N_29
    6  A    between atoms: C_13  and  C_36
    7  A    between atoms: N_18  and  C_25
    8  A    between atoms: N_24  and  C_32
    9  A    between atoms: N_29  and  C_32
                            x       y       z     vdW  Elec       q    Type
                         _______ _______ _______ _____ _____    ______ ____

>  <TORSDO>
F 9

$$$$
=
 OpenBabel10222419583D

 36 40  0  0  1  0  0  0  0  0999 V2000
  179.6810  177.8230  139.4800 C   0  0  0  0  0  3  0  0  0  0  0  0
  181.1070  178.1080  139.1940 C   0  0  0  0  0  0  0  0  0  0  0  0
  180.8430  174.9830  139.7490 C   0  0  0  0  0  3  0  0  0  0  0  0
  184.1530  176.8250  137.7280 C   0  0  0  0  0  0  0  0  0  0  0  0
  183.4140  177.6080  138.6890 N   0  0  0  0  0  0  0  0  0  0  0  0
  178.9320  174.5370  140.9890 O   0  0  0  0  0  1  0  0  0  0  0  0
  185.3460  177.4000  137.0100 C   0  0  0  0  0  2  0  0  0  0  0  0
  184.5300  174.7140  136.4810 C   0  0  0  0  0  2  0  0  0  0  0  0
  181.8120  175.7170  138.9350 C   0  0  0  0  0  0  0  0  0  0  0  0
  186.8000  174.1560  136.1990 O   0  0  0  0  0  0  0  0  0  0  0  0
  186.0020  175.0250  136.5050 C   0  0  0  0  0  0  0  0  0  0  0  0
  186.4950  176.3870  136.9390 C   0  0  1  0  0  3  0  0  0  0  0  0
  182.0730  177.1780  139.0320 C   0  0  0  0  0  0  0  0  0  0  0  0
  183.7770  175.5600  137.4690 C   0  0  0  0  0  0  0  0  0  0  0  0
  184.7990  179.4800  138.9640 O   0  0  0  0  0  0  0  0  0  0  0  0
  179.0870  176.7160  139.9160 C   0  0  0  0  0  3  0  0  0  0  0  0
  179.6800  175.4140  140.2190 C   0  0  0  0  0  0  0  0  0  0  0  0
  182.6360  174.9730  138.1920 C   0  0  0  0  0  3  0  0  0  0  0  0
  184.1100  178.5720  139.5020 C   0  0  0  0  0  0  0  0  0  0  0  0
  189.9120  177.1790  135.2890 C   0  0  0  0  0  1  0  0  0  0  0  0
  187.5250  176.8720  136.0290 N   0  0  0  0  0  2  0  0  0  0  0  0
  188.9170  176.6440  136.2530 C   0  0  0  0  0  0  0  0  0  0  0  0
  189.3070  175.9910  137.2560 O   0  0  0  0  0  0  0  0  0  0  0  0
  181.4670  179.4520  139.0210 O   0  0  0  0  0  0  0  0  0  0  0  0
  181.1320  180.7200  137.1200 C   0  0  0  0  0  2  0  0  0  0  0  0
  180.4860  182.9080  137.5590 C   0  0  0  0  0  1  0  0  0  0  0  0
  180.5990  180.4460  138.4880 C   0  0  1  0  0  0  0  0  0  0  0  0
  180.6420  181.5270  139.3710 O   0  0  0  0  0  0  0  0  0  0  0  0
  181.2970  181.7830  138.1600 C   0  0  1  0  0  0  0  0  0  0  0  0
  184.0630  178.4780  140.9910 C   0  0  0  0  0  2  0  0  0  0  0  0
  185.3670  178.9620  141.6020 C   0  0  0  0  0  2  0  0  0  0  0  0
  186.3170  177.8640  141.6770 N   0  0  0  0  0  2  0  0  0  0  0  0
  187.4490  178.3200  142.4740 C   0  0  0  0  0  2  0  0  0  0  0  0
  188.6340  178.4190  141.6380 N   0  0  0  0  0  2  0  0  0  0  0  0
  188.5230  178.5200  140.2420 C   0  0  0  0  0  0  0  0  0  0  0  0
  188.4330  178.6060  139.0920 N   0  0  0  0  0  0  0  0  0  0  0  0
  1 16  2  0  0  0  0
  2  1  1  0  0  0  0
  3 17  2  0  0  0  0
  4  5  1  0  0  0  0
  5 13  1  0  0  0  0
  5 19  1  0  0  0  0
  7  4  1  0  0  0  0
  8 11  1  0  0  0  0
  8 14  1  0  0  0  0
  9 13  1  0  0  0  0
  9  3  1  0  0  0  0
 10 11  2  0  0  0  0
 11 12  1  0  0  0  0
 12 21  1  6  0  0  0
 12  7  1  0  0  0  0
 13  2  2  0  0  0  0
 14  4  2  0  0  0  0
 14 18  1  0  0  0  0
 15 19  2  0  0  0  0
 16 17  1  0  0  0  0
 17  6  1  0  0  0  0
 18  9  2  0  0  0  0
 19 30  1  0  0  0  0
 20 22  1  0  0  0  0
 21 22  1  0  0  0  0
 22 23  2  0  0  0  0
 24  2  1  0  0  0  0
 25 29  1  0  0  0  0
 25 27  1  0  0  0  0
 27 24  1  1  0  0  0
 27 28  1  0  0  0  0
 29 26  1  6  0  0  0
 29 27  1  0  0  0  0
 29 28  1  0  0  0  0
 30 31  1  0  0  0  0
 31 32  1  0  0  0  0
 32 33  1  0  0  0  0
 34 33  1  0  0  0  0
 35 34  1  0  0  0  0
 36 35  3  0  0  0  0
M  END
>  <MODEL>
3

>  <REMARK>
 VINA RESULT:      -5.1      1.361      1.946
  Name = 
  9 active torsions:
  status: ('A' for Active; 'I' for Inactive)
    1  A    between atoms: C_3  and  O_5
    2  A    between atoms: O_5  and  C_21
    3  A    between atoms: C_6  and  N_24
    4  A    between atoms: C_8  and  C_13
    5  A    between atoms: C_8  and  N_29
    6  A    between atoms: C_13  and  C_36
    7  A    between atoms: N_18  and  C_25
    8  A    between atoms: N_24  and  C_32
    9  A    between atoms: N_29  and  C_32
                            x       y       z     vdW  Elec       q    Type
                         _______ _______ _______ _____ _____    ______ ____

>  <TORSDO>
F 9

$$$$
=
 OpenBabel10222419583D

 36 40  0  0  1  0  0  0  0  0999 V2000
  179.7940  177.5330  138.7460 C   0  0  0  0  0  3  0  0  0  0  0  0
  181.2360  177.8400  138.6080 C   0  0  0  0  0  0  0  0  0  0  0  0
  180.9700  174.7280  139.2260 C   0  0  0  0  0  3  0  0  0  0  0  0
  184.4460  176.5820  137.5200 C   0  0  0  0  0  0  0  0  0  0  0  0
  183.5940  177.3760  138.3710 N   0  0  0  0  0  0  0  0  0  0  0  0
  178.9440  174.2760  140.2650 O   0  0  0  0  0  1  0  0  0  0  0  0
  185.7000  177.1610  136.9180 C   0  0  0  0  0  2  0  0  0  0  0  0
  184.9960  174.4450  136.3860 C   0  0  0  0  0  2  0  0  0  0  0  0
  182.0090  175.4580  138.4990 C   0  0  0  0  0  0  0  0  0  0  0  0
  187.2920  173.9280  136.3680 O   0  0  0  0  0  0  0  0  0  0  0  0
  186.4500  174.7880  136.5600 C   0  0  0  0  0  0  0  0  0  0  0  0
  186.8690  176.1720  137.0030 C   0  0  1  0  0  3  0  0  0  0  0  0
  182.2310  176.9270  138.5790 C   0  0  0  0  0  0  0  0  0  0  0  0
  184.1240  175.3020  137.2600 C   0  0  0  0  0  0  0  0  0  0  0  0
  184.9060  179.2830  138.7370 O   0  0  0  0  0  0  0  0  0  0  0  0
  179.1750  176.4270  139.1490 C   0  0  0  0  0  3  0  0  0  0  0  0
  179.7550  175.1470  139.5530 C   0  0  0  0  0  0  0  0  0  0  0  0
  182.9220  174.7120  137.8730 C   0  0  0  0  0  3  0  0  0  0  0  0
  184.1800  178.3770  139.2250 C   0  0  0  0  0  0  0  0  0  0  0  0
  190.4270  177.0540  135.7440 C   0  0  0  0  0  1  0  0  0  0  0  0
  187.9820  176.6530  136.1950 N   0  0  0  0  0  2  0  0  0  0  0  0
  189.3430  176.5300  136.6120 C   0  0  0  0  0  0  0  0  0  0  0  0
  189.6310  175.9780  137.7070 O   0  0  0  0  0  0  0  0  0  0  0  0
  181.5890  179.1860  138.4340 O   0  0  0  0  0  0  0  0  0  0  0  0
  180.8000  180.5800  136.7700 C   0  0  0  0  0  2  0  0  0  0  0  0
  180.3880  182.7510  137.4880 C   0  0  0  0  0  1  0  0  0  0  0  0
  180.6500  180.2330  138.2150 C   0  0  1  0  0  0  0  0  0  0  0  0
  180.9760  181.2540  139.1100 O   0  0  0  0  0  0  0  0  0  0  0  0
  181.2860  181.5710  137.7810 C   0  0  1  0  0  0  0  0  0  0  0  0
  183.9720  178.3240  140.7030 C   0  0  0  0  0  2  0  0  0  0  0  0
  185.1240  178.9960  141.4320 C   0  0  0  0  0  2  0  0  0  0  0  0
  185.3660  178.3250  142.6990 N   0  0  0  0  0  2  0  0  0  0  0  0
  184.9010  179.2130  143.7570 C   0  0  0  0  0  2  0  0  0  0  0  0
  183.7260  178.6460  144.3990 N   0  0  0  0  0  2  0  0  0  0  0  0
  182.4380  178.9270  143.9180 C   0  0  0  0  0  0  0  0  0  0  0  0
  181.3760  179.1600  143.5220 N   0  0  0  0  0  0  0  0  0  0  0  0
  1 16  2  0  0  0  0
  2  1  1  0  0  0  0
  3 17  2  0  0  0  0
  4  5  1  0  0  0  0
  5 13  1  0  0  0  0
  5 19  1  0  0  0  0
  7 12  1  0  0  0  0
  7  4  1  0  0  0  0
  8 11  1  0  0  0  0
  8 14  1  0  0  0  0
  9 13  1  0  0  0  0
  9  3  1  0  0  0  0
 10 11  2  0  0  0  0
 11 12  1  0  0  0  0
 12 21  1  6  0  0  0
 13  2  2  0  0  0  0
 14  4  2  0  0  0  0
 14 18  1  0  0  0  0
 15 19  2  0  0  0  0
 16 17  1  0  0  0  0
 17  6  1  0  0  0  0
 18  9  2  0  0  0  0
 19 30  1  0  0  0  0
 20 22  1  0  0  0  0
 21 22  1  0  0  0  0
 22 23  2  0  0  0  0
 24  2  1  0  0  0  0
 25 29  1  0  0  0  0
 25 27  1  0  0  0  0
 27 24  1  1  0  0  0
 27 28  1  0  0  0  0
 29 26  1  6  0  0  0
 29 27  1  0  0  0  0
 29 28  1  0  0  0  0
 30 31  1  0  0  0  0
 31 32  1  0  0  0  0
 32 33  1  0  0  0  0
 33 34  1  0  0  0  0
 35 34  1  0  0  0  0
 36 35  3  0  0  0  0
M  END
>  <MODEL>
4

>  <REMARK>
 VINA RESULT:      -5.0      1.447      1.549
  Name = 
  9 active torsions:
  status: ('A' for Active; 'I' for Inactive)
    1  A    between atoms: C_3  and  O_5
    2  A    between atoms: O_5  and  C_21
    3  A    between atoms: C_6  and  N_24
    4  A    between atoms: C_8  and  C_13
    5  A    between atoms: C_8  and  N_29
    6  A    between atoms: C_13  and  C_36
    7  A    between atoms: N_18  and  C_25
    8  A    between atoms: N_24  and  C_32
    9  A    between atoms: N_29  and  C_32
                            x       y       z     vdW  Elec       q    Type
                         _______ _______ _______ _____ _____    ______ ____

>  <TORSDO>
F 9

$$$$
=
 OpenBabel10222419583D

 36 40  0  0  1  0  0  0  0  0999 V2000
  191.5880  177.1140  139.5050 C   0  0  0  0  0  3  0  0  0  0  0  0
  190.1930  176.8990  139.0570 C   0  0  0  0  0  0  0  0  0  0  0  0
  192.1100  175.4980  136.9350 C   0  0  0  0  0  3  0  0  0  0  0  0
  187.9300  174.6280  137.3860 C   0  0  0  0  0  0  0  0  0  0  0  0
  188.4010  175.9420  137.7530 N   0  0  0  0  0  0  0  0  0  0  0  0
  194.2350  176.4280  137.0230 O   0  0  0  0  0  1  0  0  0  0  0  0
  186.4700  174.2690  137.4860 C   0  0  0  0  0  2  0  0  0  0  0  0
  188.3450  172.3330  136.5400 C   0  0  0  0  0  2  0  0  0  0  0  0
  190.7310  175.1830  137.3120 C   0  0  0  0  0  0  0  0  0  0  0  0
  186.6710  171.5220  135.0970 O   0  0  0  0  0  0  0  0  0  0  0  0
  186.9780  172.3740  135.9130 C   0  0  0  0  0  0  0  0  0  0  0  0
  186.0040  173.4780  136.2570 C   0  0  1  0  0  3  0  0  0  0  0  0
  189.8140  176.1050  138.0320 C   0  0  0  0  0  0  0  0  0  0  0  0
  188.8040  173.7070  136.9410 C   0  0  0  0  0  0  0  0  0  0  0  0
  186.3940  177.1250  138.0160 O   0  0  0  0  0  0  0  0  0  0  0  0
  192.7440  176.8640  138.8970 C   0  0  0  0  0  3  0  0  0  0  0  0
  192.9800  176.2580  137.5870 C   0  0  0  0  0  0  0  0  0  0  0  0
  190.2270  174.0570  136.8010 C   0  0  0  0  0  3  0  0  0  0  0  0
  187.5550  177.0850  137.5280 C   0  0  0  0  0  0  0  0  0  0  0  0
  182.2410  172.6050  135.9390 C   0  0  0  0  0  1  0  0  0  0  0  0
  184.6750  172.9320  136.4970 N   0  0  0  0  0  2  0  0  0  0  0  0
  183.5720  173.1850  135.6260 C   0  0  0  0  0  0  0  0  0  0  0  0
  183.7180  173.8910  134.5940 O   0  0  0  0  0  0  0  0  0  0  0  0
  189.1800  177.5260  139.7980 O   0  0  0  0  0  0  0  0  0  0  0  0
  189.2840  176.5600  141.8930 C   0  0  0  0  0  2  0  0  0  0  0  0
  188.1080  177.7300  143.5210 C   0  0  0  0  0  1  0  0  0  0  0  0
  189.2980  177.8680  141.1750 C   0  0  1  0  0  0  0  0  0  0  0  0
  188.2300  178.7200  141.4660 O   0  0  0  0  0  0  0  0  0  0  0  0
  188.0880  177.4480  142.0350 C   0  0  1  0  0  0  0  0  0  0  0  0
  188.0270  178.2160  136.6740 C   0  0  0  0  0  2  0  0  0  0  0  0
  188.0430  177.8130  135.2090 C   0  0  0  0  0  2  0  0  0  0  0  0
  186.7650  178.1340  134.5940 N   0  0  0  0  0  2  0  0  0  0  0  0
  185.8970  176.9760  134.7620 C   0  0  0  0  0  2  0  0  0  0  0  0
  184.5100  177.4050  134.8450 N   0  0  0  0  0  2  0  0  0  0  0  0
  183.6720  176.9350  135.8670 C   0  0  0  0  0  0  0  0  0  0  0  0
  182.9800  176.5500  136.7110 N   0  0  0  0  0  0  0  0  0  0  0  0
  2  1  1  0  0  0  0
  2 24  1  0  0  0  0
  3  9  1  0  0  0  0
  3 17  2  0  0  0  0
  4  7  1  0  0  0  0
  4  5  1  0  0  0  0
  5 13  1  0  0  0  0
  6 17  1  0  0  0  0
  8 14  1  0  0  0  0
  9 13  1  0  0  0  0
 10 11  2  0  0  0  0
 11 12  1  0  0  0  0
 11  8  1  0  0  0  0
 12 21  1  1  0  0  0
 12  7  1  0  0  0  0
 13  2  2  0  0  0  0
 14  4  2  0  0  0  0
 16  1  2  0  0  0  0
 17 16  1  0  0  0  0
 18 14  1  0  0  0  0
 18  9  2  0  0  0  0
 19  5  1  0  0  0  0
 19 15  2  0  0  0  0
 22 20  1  0  0  0  0
 22 21  1  0  0  0  0
 23 22  2  0  0  0  0
 25 29  1  0  0  0  0
 27 24  1  6  0  0  0
 27 28  1  0  0  0  0
 27 25  1  0  0  0  0
 27 29  1  0  0  0  0
 28 29  1  0  0  0  0
 29 26  1  1  0  0  0
 30 19  1  0  0  0  0
 31 30  1  0  0  0  0
 32 33  1  0  0  0  0
 32 31  1  0  0  0  0
 33 34  1  0  0  0  0
 34 35  1  0  0  0  0
 35 36  3  0  0  0  0
M  END
>  <MODEL>
5

>  <REMARK>
 VINA RESULT:      -4.9      4.818      8.640
  Name = 
  9 active torsions:
  status: ('A' for Active; 'I' for Inactive)
    1  A    between atoms: C_3  and  O_5
    2  A    between atoms: O_5  and  C_21
    3  A    between atoms: C_6  and  N_24
    4  A    between atoms: C_8  and  C_13
    5  A    between atoms: C_8  and  N_29
    6  A    between atoms: C_13  and  C_36
    7  A    between atoms: N_18  and  C_25
    8  A    between atoms: N_24  and  C_32
    9  A    between atoms: N_29  and  C_32
                            x       y       z     vdW  Elec       q    Type
                         _______ _______ _______ _____ _____    ______ ____

>  <TORSDO>
F 9

$$$$
=
 OpenBabel10222419583D

 36 40  0  0  1  0  0  0  0  0999 V2000
  182.0000  177.4200  135.8040 C   0  0  0  0  0  3  0  0  0  0  0  0
  183.0390  177.4290  136.8600 C   0  0  0  0  0  0  0  0  0  0  0  0
  181.1240  179.9200  137.3750 C   0  0  0  0  0  3  0  0  0  0  0  0
  183.7530  178.2230  140.3140 C   0  0  0  0  0  0  0  0  0  0  0  0
  184.1070  178.0940  138.9210 N   0  0  0  0  0  0  0  0  0  0  0  0
  180.0180  180.5120  135.4210 O   0  0  0  0  0  1  0  0  0  0  0  0
  184.6500  177.6820  141.3970 C   0  0  0  0  0  2  0  0  0  0  0  0
  182.2160  179.0030  142.0990 C   0  0  0  0  0  2  0  0  0  0  0  0
  181.9300  179.1410  138.3150 C   0  0  0  0  0  0  0  0  0  0  0  0
  183.3060  179.8430  144.0080 O   0  0  0  0  0  0  0  0  0  0  0  0
  183.4230  179.2080  142.9740 C   0  0  0  0  0  0  0  0  0  0  0  0
  184.7740  178.6690  142.5640 C   0  0  1  0  0  3  0  0  0  0  0  0
  183.0550  178.2470  137.9350 C   0  0  0  0  0  0  0  0  0  0  0  0
  182.6080  178.8410  140.6570 C   0  0  0  0  0  0  0  0  0  0  0  0
  186.3220  177.3390  139.0460 O   0  0  0  0  0  0  0  0  0  0  0  0
  181.0720  178.3190  135.4910 C   0  0  0  0  0  3  0  0  0  0  0  0
  180.7790  179.5990  136.1350 C   0  0  0  0  0  0  0  0  0  0  0  0
  181.7420  179.4100  139.6100 C   0  0  0  0  0  3  0  0  0  0  0  0
  185.4930  178.1380  138.5350 C   0  0  0  0  0  0  0  0  0  0  0  0
  187.4400  177.1290  144.9180 C   0  0  0  0  0  1  0  0  0  0  0  0
  185.4300  178.0200  143.6920 N   0  0  0  0  0  2  0  0  0  0  0  0
  186.8410  177.8080  143.7420 C   0  0  0  0  0  0  0  0  0  0  0  0
  187.5820  178.1970  142.8010 O   0  0  0  0  0  0  0  0  0  0  0  0
  184.0570  176.4690  136.7630 O   0  0  0  0  0  0  0  0  0  0  0  0
  183.5460  174.5660  137.9680 C   0  0  0  0  0  2  0  0  0  0  0  0
  184.6750  172.6690  137.2420 C   0  0  0  0  0  1  0  0  0  0  0  0
  183.8230  175.0760  136.5920 C   0  0  1  0  0  0  0  0  0  0  0  0
  184.9640  174.5520  135.9800 O   0  0  0  0  0  0  0  0  0  0  0  0
  184.8370  174.1700  137.3220 C   0  0  1  0  0  0  0  0  0  0  0  0
  185.9730  179.1640  137.5610 C   0  0  0  0  0  2  0  0  0  0  0  0
  187.1840  178.6550  136.7980 C   0  0  0  0  0  2  0  0  0  0  0  0
  188.3740  179.3770  137.2190 N   0  0  0  0  0  2  0  0  0  0  0  0
  189.3550  178.3890  137.6480 C   0  0  0  0  0  2  0  0  0  0  0  0
  189.4300  178.3660  139.1000 N   0  0  0  0  0  2  0  0  0  0  0  0
  190.0040  177.2760  139.7730 C   0  0  0  0  0  0  0  0  0  0  0  0
  190.4800  176.3790  140.3280 N   0  0  0  0  0  0  0  0  0  0  0  0
  1  2  1  0  0  0  0
  2 13  2  0  0  0  0
  3  9  1  0  0  0  0
  4 14  2  0  0  0  0
  4  7  1  0  0  0  0
  5  4  1  0  0  0  0
  6 17  1  0  0  0  0
  7 12  1  0  0  0  0
  8 11  1  0  0  0  0
  9 18  2  0  0  0  0
 11 10  2  0  0  0  0
 12 11  1  0  0  0  0
 12 21  1  1  0  0  0
 13  9  1  0  0  0  0
 13  5  1  0  0  0  0
 14  8  1  0  0  0  0
 16  1  2  0  0  0  0
 16 17  1  0  0  0  0
 17  3  2  0  0  0  0
 18 14  1  0  0  0  0
 19  5  1  0  0  0  0
 19 15  2  0  0  0  0
 21 22  1  0  0  0  0
 22 20  1  0  0  0  0
 23 22  2  0  0  0  0
 24  2  1  0  0  0  0
 27 24  1  1  0  0  0
 27 29  1  0  0  0  0
 27 25  1  0  0  0  0
 28 27  1  0  0  0  0
 28 29  1  0  0  0  0
 29 26  1  6  0  0  0
 29 25  1  0  0  0  0
 30 19  1  0  0  0  0
 31 32  1  0  0  0  0
 31 30  1  0  0  0  0
 32 33  1  0  0  0  0
 33 34  1  0  0  0  0
 34 35  1  0  0  0  0
 35 36  3  0  0  0  0
M  END
>  <MODEL>
6

>  <REMARK>
 VINA RESULT:      -4.8      2.651      6.402
  Name = 
  9 active torsions:
  status: ('A' for Active; 'I' for Inactive)
    1  A    between atoms: C_3  and  O_5
    2  A    between atoms: O_5  and  C_21
    3  A    between atoms: C_6  and  N_24
    4  A    between atoms: C_8  and  C_13
    5  A    between atoms: C_8  and  N_29
    6  A    between atoms: C_13  and  C_36
    7  A    between atoms: N_18  and  C_25
    8  A    between atoms: N_24  and  C_32
    9  A    between atoms: N_29  and  C_32
                            x       y       z     vdW  Elec       q    Type
                         _______ _______ _______ _____ _____    ______ ____

>  <TORSDO>
F 9

$$$$
=
 OpenBabel10222419583D

 36 40  0  0  1  0  0  0  0  0999 V2000
  182.2700  181.2200  138.7230 C   0  0  0  0  0  3  0  0  0  0  0  0
  182.0720  179.7710  138.9580 C   0  0  0  0  0  0  0  0  0  0  0  0
  180.1930  180.6150  136.5300 C   0  0  0  0  0  3  0  0  0  0  0  0
  181.3720  176.5810  137.4060 C   0  0  0  0  0  0  0  0  0  0  0  0
  181.3080  177.5280  138.4930 N   0  0  0  0  0  0  0  0  0  0  0  0
  179.7620  182.8960  136.5910 O   0  0  0  0  0  1  0  0  0  0  0  0
  181.7440  175.1410  137.6510 C   0  0  0  0  0  2  0  0  0  0  0  0
  181.1380  176.0190  135.0010 C   0  0  0  0  0  2  0  0  0  0  0  0
  180.8070  179.3240  136.8410 C   0  0  0  0  0  0  0  0  0  0  0  0
  180.1870  173.9040  134.5950 O   0  0  0  0  0  0  0  0  0  0  0  0
  180.6960  174.6440  135.4200 C   0  0  0  0  0  0  0  0  0  0  0  0
  180.8440  174.1890  136.8540 C   0  0  1  0  0  3  0  0  0  0  0  0
  181.3560  178.9400  138.1690 C   0  0  0  0  0  0  0  0  0  0  0  0
  181.0910  176.9830  136.1530 C   0  0  0  0  0  0  0  0  0  0  0  0
  181.4820  176.1340  140.3690 O   0  0  0  0  0  0  0  0  0  0  0  0
  181.6160  182.0690  137.9360 C   0  0  0  0  0  3  0  0  0  0  0  0
  180.5010  181.8060  137.0270 C   0  0  0  0  0  0  0  0  0  0  0  0
  180.6880  178.3780  135.9070 C   0  0  0  0  0  3  0  0  0  0  0  0
  180.8860  177.0830  139.7960 C   0  0  0  0  0  0  0  0  0  0  0  0
  183.1940  171.1210  136.5650 C   0  0  0  0  0  1  0  0  0  0  0  0
  181.3840  172.8370  136.9100 N   0  0  0  0  0  2  0  0  0  0  0  0
  182.7140  172.5240  136.4920 C   0  0  0  0  0  0  0  0  0  0  0  0
  183.4820  173.4260  136.0680 O   0  0  0  0  0  0  0  0  0  0  0  0
  182.7330  179.2060  140.0590 O   0  0  0  0  0  0  0  0  0  0  0  0
  184.2250  177.9430  141.2870 C   0  0  0  0  0  2  0  0  0  0  0  0
  186.4010  178.7580  141.2390 C   0  0  0  0  0  1  0  0  0  0  0  0
  184.0680  178.7120  140.0180 C   0  0  1  0  0  0  0  0  0  0  0  0
  184.9000  179.8260  139.8890 O   0  0  0  0  0  0  0  0  0  0  0  0
  184.9690  179.2350  141.1560 C   0  0  1  0  0  0  0  0  0  0  0  0
  179.7050  177.7110  140.4610 C   0  0  0  0  0  2  0  0  0  0  0  0
  179.6060  177.2670  141.9110 C   0  0  0  0  0  2  0  0  0  0  0  0
  178.9310  178.2880  142.6960 N   0  0  0  0  0  2  0  0  0  0  0  0
  179.7770  178.5830  143.8460 C   0  0  0  0  0  2  0  0  0  0  0  0
  181.0020  179.2280  143.4050 N   0  0  0  0  0  2  0  0  0  0  0  0
  182.2170  178.9950  144.0690 C   0  0  0  0  0  0  0  0  0  0  0  0
  183.2180  178.8030  144.6180 N   0  0  0  0  0  0  0  0  0  0  0  0
  1  2  1  0  0  0  0
  2 24  1  0  0  0  0
  3  9  1  0  0  0  0
  3 17  2  0  0  0  0
  4  7  1  0  0  0  0
  4  5  1  0  0  0  0
  5 19  1  0  0  0  0
  6 17  1  0  0  0  0
  8 11  1  0  0  0  0
  8 14  1  0  0  0  0
  9 13  1  0  0  0  0
 10 11  2  0  0  0  0
 11 12  1  0  0  0  0
 12 21  1  6  0  0  0
 12  7  1  0  0  0  0
 13  5  1  0  0  0  0
 13  2  2  0  0  0  0
 14  4  2  0  0  0  0
 16  1  2  0  0  0  0
 17 16  1  0  0  0  0
 18 14  1  0  0  0  0
 18  9  2  0  0  0  0
 19 15  2  0  0  0  0
 19 30  1  0  0  0  0
 22 20  1  0  0  0  0
 22 21  1  0  0  0  0
 23 22  2  0  0  0  0
 27 24  1  1  0  0  0
 27 29  1  0  0  0  0
 27 25  1  0  0  0  0
 28 27  1  0  0  0  0
 28 29  1  0  0  0  0
 29 26  1  6  0  0  0
 29 25  1  0  0  0  0
 30 31  1  0  0  0  0
 31 32  1  0  0  0  0
 32 33  1  0  0  0  0
 34 33  1  0  0  0  0
 34 35  1  0  0  0  0
 35 36  3  0  0  0  0
M  END
>  <MODEL>
7

>  <REMARK>
 VINA RESULT:      -4.7      3.016      5.518
  Name = 
  9 active torsions:
  status: ('A' for Active; 'I' for Inactive)
    1  A    between atoms: C_3  and  O_5
    2  A    between atoms: O_5  and  C_21
    3  A    between atoms: C_6  and  N_24
    4  A    between atoms: C_8  and  C_13
    5  A    between atoms: C_8  and  N_29
    6  A    between atoms: C_13  and  C_36
    7  A    between atoms: N_18  and  C_25
    8  A    between atoms: N_24  and  C_32
    9  A    between atoms: N_29  and  C_32
                            x       y       z     vdW  Elec       q    Type
                         _______ _______ _______ _____ _____    ______ ____

>  <TORSDO>
F 9

$$$$
=
 OpenBabel10222419583D

 36 40  0  0  1  0  0  0  0  0999 V2000
  190.0810  178.1760  140.2340 C   0  0  0  0  0  3  0  0  0  0  0  0
  188.7050  178.3170  139.7040 C   0  0  0  0  0  0  0  0  0  0  0  0
  188.5160  176.7400  142.4640 C   0  0  0  0  0  3  0  0  0  0  0  0
  185.2200  178.7360  140.5700 C   0  0  0  0  0  0  0  0  0  0  0  0
  186.2920  178.2430  139.7400 N   0  0  0  0  0  0  0  0  0  0  0  0
  190.5490  175.7400  142.9690 O   0  0  0  0  0  1  0  0  0  0  0  0
  184.0180  179.4130  139.9660 C   0  0  0  0  0  2  0  0  0  0  0  0
  184.1830  179.0790  142.7980 C   0  0  0  0  0  2  0  0  0  0  0  0
  187.5340  177.5980  141.8000 C   0  0  0  0  0  0  0  0  0  0  0  0
  181.8480  178.7840  142.8270 O   0  0  0  0  0  0  0  0  0  0  0  0
  182.8400  178.9350  142.1350 C   0  0  0  0  0  0  0  0  0  0  0  0
  182.7190  178.9390  140.6280 C   0  0  1  0  0  3  0  0  0  0  0  0
  187.5750  177.9850  140.3650 C   0  0  0  0  0  0  0  0  0  0  0  0
  185.2880  178.5860  141.9050 C   0  0  0  0  0  0  0  0  0  0  0  0
  185.3760  178.4340  137.5910 O   0  0  0  0  0  0  0  0  0  0  0  0
  190.5490  177.4760  141.2630 C   0  0  0  0  0  3  0  0  0  0  0  0
  189.8160  176.6430  142.2150 C   0  0  0  0  0  0  0  0  0  0  0  0
  186.4390  177.8900  142.5050 C   0  0  0  0  0  3  0  0  0  0  0  0
  185.9930  177.7260  138.4290 C   0  0  0  0  0  0  0  0  0  0  0  0
  179.6750  180.3850  138.7110 C   0  0  0  0  0  1  0  0  0  0  0  0
  181.6120  179.7880  140.2070 N   0  0  0  0  0  2  0  0  0  0  0  0
  180.7790  179.4670  139.0920 C   0  0  0  0  0  0  0  0  0  0  0  0
  180.9680  178.4110  138.4330 O   0  0  0  0  0  0  0  0  0  0  0  0
  188.5660  178.8960  138.4340 O   0  0  0  0  0  0  0  0  0  0  0  0
  188.6090  178.8910  136.1250 C   0  0  0  0  0  2  0  0  0  0  0  0
  189.8050  177.1180  135.2160 C   0  0  0  0  0  1  0  0  0  0  0  0
  189.4370  178.6330  137.3400 C   0  0  1  0  0  0  0  0  0  0  0  0
  189.8800  177.3170  137.4910 O   0  0  0  0  0  0  0  0  0  0  0  0
  188.9780  177.4740  136.4310 C   0  0  1  0  0  0  0  0  0  0  0  0
  186.3680  176.3260  138.0670 C   0  0  0  0  0  2  0  0  0  0  0  0
  185.6100  175.8690  136.8310 C   0  0  0  0  0  2  0  0  0  0  0  0
  186.4190  174.9270  136.0750 N   0  0  0  0  0  2  0  0  0  0  0  0
  187.0770  174.0490  137.0340 C   0  0  0  0  0  2  0  0  0  0  0  0
  188.2240  173.4090  136.4130 N   0  0  0  0  0  2  0  0  0  0  0  0
  189.5280  173.6820  136.8560 C   0  0  0  0  0  0  0  0  0  0  0  0
  190.6020  173.9080  137.2230 N   0  0  0  0  0  0  0  0  0  0  0  0
  1 16  2  0  0  0  0
  2  1  1  0  0  0  0
  2 13  2  0  0  0  0
  4 14  2  0  0  0  0
  5 13  1  0  0  0  0
  5  4  1  0  0  0  0
  7  4  1  0  0  0  0
  7 12  1  0  0  0  0
  9  3  1  0  0  0  0
  9 18  2  0  0  0  0
 11  8  1  0  0  0  0
 11 10  2  0  0  0  0
 12 21  1  1  0  0  0
 12 11  1  0  0  0  0
 13  9  1  0  0  0  0
 14 18  1  0  0  0  0
 14  8  1  0  0  0  0
 15 19  2  0  0  0  0
 16 17  1  0  0  0  0
 17  3  2  0  0  0  0
 17  6  1  0  0  0  0
 19  5  1  0  0  0  0
 20 22  1  0  0  0  0
 22 21  1  0  0  0  0
 23 22  2  0  0  0  0
 24  2  1  0  0  0  0
 25 29  1  0  0  0  0
 25 27  1  0  0  0  0
 27 28  1  0  0  0  0
 27 24  1  1  0  0  0
 29 26  1  6  0  0  0
 29 27  1  0  0  0  0
 29 28  1  0  0  0  0
 30 19  1  0  0  0  0
 31 30  1  0  0  0  0
 32 31  1  0  0  0  0
 32 33  1  0  0  0  0
 34 35  1  0  0  0  0
 34 33  1  0  0  0  0
 35 36  3  0  0  0  0
M  END
>  <MODEL>
8

>  <REMARK>
 VINA RESULT:      -4.6      2.909      8.095
  Name = 
  9 active torsions:
  status: ('A' for Active; 'I' for Inactive)
    1  A    between atoms: C_3  and  O_5
    2  A    between atoms: O_5  and  C_21
    3  A    between atoms: C_6  and  N_24
    4  A    between atoms: C_8  and  C_13
    5  A    between atoms: C_8  and  N_29
    6  A    between atoms: C_13  and  C_36
    7  A    between atoms: N_18  and  C_25
    8  A    between atoms: N_24  and  C_32
    9  A    between atoms: N_29  and  C_32
                            x       y       z     vdW  Elec       q    Type
                         _______ _______ _______ _____ _____    ______ ____

>  <TORSDO>
F 9

$$$$
=
 OpenBabel10222419583D

 36 40  0  0  1  0  0  0  0  0999 V2000
  181.1240  179.3040  136.6210 C   0  0  0  0  0  3  0  0  0  0  0  0
  181.3100  179.2180  138.0880 C   0  0  0  0  0  0  0  0  0  0  0  0
  183.4730  177.3160  136.7300 C   0  0  0  0  0  3  0  0  0  0  0  0
  183.7160  178.7950  140.7530 C   0  0  0  0  0  0  0  0  0  0  0  0
  182.4120  178.6390  140.1570 N   0  0  0  0  0  0  0  0  0  0  0  0
  182.7940  176.7070  134.5950 O   0  0  0  0  0  1  0  0  0  0  0  0
  183.8700  179.2750  142.1730 C   0  0  0  0  0  2  0  0  0  0  0  0
  186.1900  178.6440  140.6290 C   0  0  0  0  0  2  0  0  0  0  0  0
  183.5130  178.0250  138.0090 C   0  0  0  0  0  0  0  0  0  0  0  0
  187.2060  177.8690  142.6060 O   0  0  0  0  0  0  0  0  0  0  0  0
  186.1890  178.3040  142.0950 C   0  0  0  0  0  0  0  0  0  0  0  0
  184.9340  178.4650  142.9230 C   0  0  1  0  0  3  0  0  0  0  0  0
  182.3260  178.5810  138.7110 C   0  0  0  0  0  0  0  0  0  0  0  0
  184.8170  178.5030  140.0350 C   0  0  0  0  0  0  0  0  0  0  0  0
  180.9950  178.8930  142.0070 O   0  0  0  0  0  0  0  0  0  0  0  0
  181.6650  178.5980  135.6330 C   0  0  0  0  0  3  0  0  0  0  0  0
  182.6530  177.5220  135.7080 C   0  0  0  0  0  0  0  0  0  0  0  0
  184.6790  177.9950  138.6600 C   0  0  0  0  0  3  0  0  0  0  0  0
  181.3010  178.2320  140.9790 C   0  0  0  0  0  0  0  0  0  0  0  0
  185.9240  179.0950  146.6180 C   0  0  0  0  0  1  0  0  0  0  0  0
  185.2390  179.1090  144.1950 N   0  0  0  0  0  2  0  0  0  0  0  0
  185.6400  178.3740  145.3510 C   0  0  0  0  0  0  0  0  0  0  0  0
  185.7610  177.1210  145.3060 O   0  0  0  0  0  0  0  0  0  0  0  0
  180.3870  179.9030  138.8910 O   0  0  0  0  0  0  0  0  0  0  0  0
  179.2890  181.5660  140.0580 C   0  0  0  0  0  2  0  0  0  0  0  0
  179.0310  183.5380  138.8560 C   0  0  0  0  0  1  0  0  0  0  0  0
  180.4130  181.3090  139.1100 C   0  0  1  0  0  0  0  0  0  0  0  0
  180.2840  181.9100  137.8560 O   0  0  0  0  0  0  0  0  0  0  0  0
  179.1370  182.0440  138.6480 C   0  0  1  0  0  0  0  0  0  0  0  0
  180.5320  176.9960  140.6500 C   0  0  0  0  0  2  0  0  0  0  0  0
  181.4580  175.9070  140.1330 C   0  0  0  0  0  2  0  0  0  0  0  0
  180.9660  175.4010  138.8620 N   0  0  0  0  0  2  0  0  0  0  0  0
  179.6210  174.8870  139.0890 C   0  0  0  0  0  2  0  0  0  0  0  0
  179.6900  173.6080  139.7770 N   0  0  0  0  0  2  0  0  0  0  0  0
  179.4780  173.5230  141.1610 C   0  0  0  0  0  0  0  0  0  0  0  0
  179.3050  173.4510  142.3040 N   0  0  0  0  0  0  0  0  0  0  0  0
  1  2  1  0  0  0  0
  2 13  2  0  0  0  0
  2 24  1  0  0  0  0
  3  9  1  0  0  0  0
  4  7  1  0  0  0  0
  5  4  1  0  0  0  0
  5 19  1  0  0  0  0
  6 17  1  0  0  0  0
  7 12  1  0  0  0  0
  8 11  1  0  0  0  0
  9 18  2  0  0  0  0
  9 13  1  0  0  0  0
 11 10  2  0  0  0  0
 11 12  1  0  0  0  0
 12 21  1  1  0  0  0
 13  5  1  0  0  0  0
 14  8  1  0  0  0  0
 14  4  2  0  0  0  0
 16 17  1  0  0  0  0
 16  1  2  0  0  0  0
 17  3  2  0  0  0  0
 18 14  1  0  0  0  0
 19 15  2  0  0  0  0
 21 22  1  0  0  0  0
 22 20  1  0  0  0  0
 23 22  2  0  0  0  0
 27 24  1  6  0  0  0
 27 25  1  0  0  0  0
 28 29  1  0  0  0  0
 28 27  1  0  0  0  0
 29 26  1  1  0  0  0
 29 27  1  0  0  0  0
 29 25  1  0  0  0  0
 30 19  1  0  0  0  0
 31 30  1  0  0  0  0
 32 33  1  0  0  0  0
 32 31  1  0  0  0  0
 33 34  1  0  0  0  0
 34 35  1  0  0  0  0
 35 36  3  0  0  0  0
M  END
>  <MODEL>
9

>  <REMARK>
 VINA RESULT:      -4.6      2.735      5.984
  Name = 
  9 active torsions:
  status: ('A' for Active; 'I' for Inactive)
    1  A    between atoms: C_3  and  O_5
    2  A    between atoms: O_5  and  C_21
    3  A    between atoms: C_6  and  N_24
    4  A    between atoms: C_8  and  C_13
    5  A    between atoms: C_8  and  N_29
    6  A    between atoms: C_13  and  C_36
    7  A    between atoms: N_18  and  C_25
    8  A    between atoms: N_24  and  C_32
    9  A    between atoms: N_29  and  C_32
                            x       y       z     vdW  Elec       q    Type
                         _______ _______ _______ _____ _____    ______ ____

>  <TORSDO>
F 9

$$$$
