=
 OpenBabel10222419123D

 64 72  0  0  1  0  0  0  0  0999 V2000
  184.5190  173.6160  136.3220 N   0  0  0  0  0  0  0  0  0  0  0  0
  189.6380  173.0840  135.5160 C   0  0  0  0  0  2  0  0  0  0  0  0
  186.5340  174.2520  135.0370 C   0  0  2  0  0  3  0  0  0  0  0  0
  185.0000  176.7490  136.2260 C   0  0  0  0  0  1  0  0  0  0  0  0
  188.5360  175.0290  136.2120 C   0  0  2  0  0  3  0  0  0  0  0  0
  185.0000  174.1270  135.0440 C   0  0  0  0  0  2  0  0  0  0  0  0
  189.6050  175.4490  135.3030 N   0  0  0  0  0  2  0  0  0  0  0  0
  188.5150  173.5630  136.2990 N   0  0  1  0  0  0  0  0  0  0  0  0
  187.1030  177.9670  135.8170 C   0  0  1  0  0  3  0  0  0  0  0  0
  186.4910  172.2910  136.7370 C   0  0  0  0  0  2  0  0  0  0  0  0
  187.2830  173.0630  135.6700 C   0  0  1  0  0  3  0  0  0  0  0  0
  190.1310  174.2430  134.6970 C   0  0  1  0  0  3  0  0  0  0  0  0
  187.0900  176.7450  134.9180 C   0  0  1  0  0  3  0  0  0  0  0  0
  187.1750  175.4480  135.6980 C   0  0  1  0  0  0  0  0  0  0  0  0
  186.5100  176.6730  136.3310 C   0  0  2  0  0  0  0  0  0  0  0  0
  185.0050  172.2470  136.4220 C   0  0  0  0  0  2  0  0  0  0  0  0
  183.0680  173.5770  136.2330 C   0  0  0  0  0  2  0  0  0  0  0  0
  182.5600  174.8180  135.5190 C   0  0  0  0  0  2  0  0  0  0  0  0
  181.1440  174.9790  135.7800 N   0  0  0  0  0  2  0  0  0  0  0  0
  180.9590  174.8850  137.2230 C   0  0  2  0  0  3  0  0  0  0  0  0
  179.4450  173.7680  138.8560 O   0  0  0  0  0  1  0  0  0  0  0  0
  179.8730  173.9090  137.5470 C   0  0  0  0  0  0  0  0  0  0  0  0
  179.3230  173.2410  136.6330 O   0  0  0  0  0  0  0  0  0  0  0  0
  180.6940  176.2550  137.8540 C   0  0  0  0  0  2  0  0  0  0  0  0
  182.0150  178.3610  137.8900 C   0  0  0  0  0  0  0  0  0  0  0  0
  182.3660  177.8160  140.6810 C   0  0  0  0  0  3  0  0  0  0  0  0
  182.0160  176.8050  139.8730 C   0  0  0  0  0  3  0  0  0  0  0  0
  182.0920  178.5950  136.6940 O   0  0  0  0  0  0  0  0  0  0  0  0
  181.9740  179.5050  138.8620 C   0  0  0  0  0  2  0  0  0  0  0  0
  181.9620  176.9300  138.3680 C   0  0  1  0  0  3  0  0  0  0  0  0
  182.7420  179.1720  140.1460 C   0  0  2  0  0  3  0  0  0  0  0  0
  184.7790  179.4820  138.6470 N   0  0  0  0  0  1  0  0  0  0  0  0
  184.9800  179.3340  140.9560 O   0  0  0  0  0  0  0  0  0  0  0  0
  184.2250  179.3110  139.9500 C   0  0  0  0  0  0  0  0  0  0  0  0
  191.6480  174.2670  134.7000 C   0  0  0  0  0  2  0  0  0  0  0  0
  192.1580  173.7630  136.0380 C   0  0  0  0  0  2  0  0  0  0  0  0
  192.7540  174.8380  136.8210 N   0  0  0  0  0  2  0  0  0  0  0  0
  194.2880  176.5680  136.6260 O   0  0  0  0  0  0  0  0  0  0  0  0
  194.0880  175.3220  136.6220 C   0  0  0  0  0  0  0  0  0  0  0  0
  195.2110  174.4080  136.2200 C   0  0  1  0  0  3  0  0  0  0  0  0
  195.7730  172.0870  136.3940 C   0  0  0  0  0  1  0  0  0  0  0  0
  196.3990  174.5300  137.1920 C   0  0  0  0  0  0  0  0  0  0  0  0
  195.4070  173.3260  137.2090 C   0  0  1  0  0  3  0  0  0  0  0  0
  197.4780  174.6910  136.1050 C   0  0  0  0  0  2  0  0  0  0  0  0
  197.7590  173.8080  137.2530 C   0  0  0  0  0  2  0  0  0  0  0  0
  188.4940  178.2010  136.3820 C   0  0  0  0  0  2  0  0  0  0  0  0
  188.4540  178.0150  137.8840 C   0  0  0  0  0  2  0  0  0  0  0  0
  189.8640  178.0290  138.4500 C   0  0  0  0  0  2  0  0  0  0  0  0
  190.3160  176.6240  138.8320 C   0  0  0  0  0  2  0  0  0  0  0  0
  191.3860  176.6130  139.9210 C   0  0  1  0  0  3  0  0  0  0  0  0
  192.5980  177.0910  139.4190 O   0  0  0  0  0  1  0  0  0  0  0  0
  190.9650  177.4440  141.0480 N   0  0  0  0  0  2  0  0  0  0  0  0
  190.1860  175.6760  142.3550 O   0  0  0  0  0  0  0  0  0  0  0  0
  190.3580  176.9210  142.2380 C   0  0  0  0  0  0  0  0  0  0  0  0
  188.4290  178.4410  142.9810 C   0  0  1  0  0  3  0  0  0  0  0  0
  189.5250  176.9950  144.5530 C   0  0  2  0  0  3  0  0  0  0  0  0
  189.8000  177.8470  143.3030 C   0  0  1  0  0  0  0  0  0  0  0  0
  188.0970  176.4840  144.3870 C   0  0  0  0  0  2  0  0  0  0  0  0
  188.1950  179.0550  141.3170 Cl  0  0  0  0  0  0  0  0  0  0  0  0
  187.4030  177.3990  143.3870 C   0  0  0  0  0  2  0  0  0  0  0  0
  190.7940  178.9810  143.5520 C   0  0  0  0  0  1  0  0  0  0  0  0
  189.6080  177.7780  145.8580 C   0  0  0  0  0  2  0  0  0  0  0  0
  188.5700  177.2700  146.8450 C   0  0  0  0  0  2  0  0  0  0  0  0
  188.4440  178.1790  147.8950 O   0  0  0  0  0  1  0  0  0  0  0  0
  1 16  1  0  0  0  0
  3  6  1  1  0  0  0
  3 11  1  0  0  0  0
  3 14  1  0  0  0  0
  4 15  1  0  0  0  0
  5  7  1  6  0  0  0
  5  8  1  0  0  0  0
  6  1  1  0  0  0  0
  8  2  1  6  0  0  0
  9 15  1  0  0  0  0
  9 46  1  1  0  0  0
 11  8  1  0  0  0  0
 11 10  1  1  0  0  0
 12 35  1  1  0  0  0
 12  7  1  0  0  0  0
 12  2  1  0  0  0  0
 13 14  1  0  0  0  0
 13  9  1  0  0  0  0
 13 15  1  0  0  0  0
 14  5  1  0  0  0  0
 14 15  1  0  0  0  0
 16 10  1  0  0  0  0
 17  1  1  0  0  0  0
 18 19  1  0  0  0  0
 18 17  1  0  0  0  0
 19 20  1  0  0  0  0
 20 22  1  0  0  0  0
 20 24  1  0  0  0  0
 22 21  1  0  0  0  0
 23 22  2  0  0  0  0
 24 30  1  0  0  0  0
 25 30  1  0  0  0  0
 25 29  1  0  0  0  0
 27 26  2  0  0  0  0
 28 25  2  0  0  0  0
 29 31  1  0  0  0  0
 30 27  1  0  0  0  0
 31 26  1  0  0  0  0
 32 34  1  0  0  0  0
 34 31  1  0  0  0  0
 34 33  2  0  0  0  0
 35 36  1  0  0  0  0
 36 37  1  0  0  0  0
 39 38  2  0  0  0  0
 39 37  1  0  0  0  0
 40 39  1  0  0  0  0
 40 42  1  0  0  0  0
 40 43  1  0  0  0  0
 41 43  1  0  0  0  0
 42 43  1  0  0  0  0
 42 45  1  0  0  0  0
 44 42  1  0  0  0  0
 44 45  1  0  0  0  0
 46 47  1  0  0  0  0
 47 48  1  0  0  0  0
 48 49  1  0  0  0  0
 49 50  1  0  0  0  0
 50 52  1  0  0  0  0
 51 50  1  0  0  0  0
 52 54  1  0  0  0  0
 54 53  2  0  0  0  0
 54 57  1  0  0  0  0
 55 57  1  0  0  0  0
 55 60  1  0  0  0  0
 56 62  1  0  0  0  0
 57 61  1  0  0  0  0
 57 56  1  0  0  0  0
 58 56  1  0  0  0  0
 59 55  1  0  0  0  0
 60 58  1  0  0  0  0
 62 63  1  0  0  0  0
 63 64  1  0  0  0  0
M  END
>  <MODEL>
1

>  <REMARK>
 VINA RESULT:      -6.8      0.000      0.000
  Name = 
  21 active torsions:
  status: ('A' for Active; 'I' for Inactive)
    1  A    between atoms: C_1  and  N_27
    2  A    between atoms: C_1  and  C_59
    3  A    between atoms: C_2  and  C_12
    4  A    between atoms: C_2  and  C_22
    5  A    between atoms: C_3  and  N_23
    6  A    between atoms: C_3  and  C_49
    7  A    between atoms: N_4  and  C_49
    8  A    between atoms: C_8  and  C_44
    9  A    between atoms: C_9  and  C_35
   10  A    between atoms: C_9  and  C_54
   11  A    between atoms: N_11  and  C_20
   12  A    between atoms: C_17  and  C_43
   13  A    between atoms: CA_18  and  N_23
   14  A    between atoms: CA_18  and  C_42
   15  A    between atoms: CA_18  and  C_47
   16  A    between atoms: C_20  and  C_21
   17  A    between atoms: C_21  and  C_45
   18  A    between atoms: C_42  and  C_61
   19  A    between atoms: C_51  and  C_54
   20  A    between atoms: C_51  and  C_59
   21  A    between atoms: C_62  and  C_63
                            x       y       z     vdW  Elec       q    Type
                         _______ _______ _______ _____ _____    ______ ____

>  <TORSDO>
F 21

$$$$
=
 OpenBabel10222419123D

 64 72  0  0  1  0  0  0  0  0999 V2000
  188.5170  177.2740  136.3260 N   0  0  0  0  0  0  0  0  0  0  0  0
  191.4790  176.4850  140.5370 C   0  0  0  0  0  2  0  0  0  0  0  0
  189.4860  178.1550  138.4230 C   0  0  2  0  0  3  0  0  0  0  0  0
  186.3440  178.4900  138.2890 C   0  0  0  0  0  1  0  0  0  0  0  0
  189.1810  176.9260  140.5190 C   0  0  2  0  0  3  0  0  0  0  0  0
  188.9280  178.4840  137.0280 C   0  0  0  0  0  2  0  0  0  0  0  0
  189.7380  177.6260  141.6790 N   0  0  0  0  0  2  0  0  0  0  0  0
  190.2640  176.2690  139.7770 N   0  0  1  0  0  0  0  0  0  0  0  0
  186.4870  178.8070  140.7290 C   0  0  1  0  0  3  0  0  0  0  0  0
  190.1830  175.8830  137.3790 C   0  0  0  0  0  2  0  0  0  0  0  0
  190.4240  176.9330  138.4740 C   0  0  1  0  0  3  0  0  0  0  0  0
  191.1780  177.5460  141.5580 C   0  0  1  0  0  3  0  0  0  0  0  0
  187.8500  179.1150  140.1390 C   0  0  1  0  0  3  0  0  0  0  0  0
  188.5210  177.8880  139.5540 C   0  0  1  0  0  0  0  0  0  0  0  0
  186.9930  177.9860  139.5630 C   0  0  2  0  0  0  0  0  0  0  0  0
  189.7350  176.5170  136.0720 C   0  0  0  0  0  2  0  0  0  0  0  0
  187.9730  177.7020  135.0460 C   0  0  0  0  0  2  0  0  0  0  0  0
  186.4990  177.3440  134.9660 C   0  0  0  0  0  2  0  0  0  0  0  0
  186.3600  175.9220  134.7240 N   0  0  0  0  0  2  0  0  0  0  0  0
  185.2890  175.4410  135.5880 C   0  0  2  0  0  3  0  0  0  0  0  0
  185.0450  174.0510  137.6410 O   0  0  0  0  0  1  0  0  0  0  0  0
  185.8120  174.4230  136.5500 C   0  0  0  0  0  0  0  0  0  0  0  0
  186.9300  173.8770  136.3550 O   0  0  0  0  0  0  0  0  0  0  0  0
  184.1050  174.9000  134.7810 C   0  0  0  0  0  2  0  0  0  0  0  0
  181.8790  175.0030  135.8850 C   0  0  0  0  0  0  0  0  0  0  0  0
  181.5190  172.3450  134.8770 C   0  0  0  0  0  3  0  0  0  0  0  0
  182.7670  172.8270  134.9730 C   0  0  0  0  0  3  0  0  0  0  0  0
  181.9920  176.0410  136.5160 O   0  0  0  0  0  0  0  0  0  0  0  0
  180.5290  174.6020  135.3640 C   0  0  0  0  0  2  0  0  0  0  0  0
  183.0950  174.1430  135.6390 C   0  0  1  0  0  3  0  0  0  0  0  0
  180.3330  173.0840  135.4350 C   0  0  2  0  0  3  0  0  0  0  0  0
  180.8860  171.8060  137.5690 N   0  0  0  0  0  1  0  0  0  0  0  0
  178.9390  173.0570  137.3710 O   0  0  0  0  0  0  0  0  0  0  0  0
  179.9950  172.6390  136.8290 C   0  0  0  0  0  0  0  0  0  0  0  0
  191.8020  177.1710  142.8880 C   0  0  0  0  0  2  0  0  0  0  0  0
  190.8470  177.5280  144.0120 C   0  0  0  0  0  2  0  0  0  0  0  0
  191.4420  177.2760  145.3190 N   0  0  0  0  0  2  0  0  0  0  0  0
  190.9990  176.1810  147.3160 O   0  0  0  0  0  0  0  0  0  0  0  0
  190.6810  177.1080  146.5210 C   0  0  0  0  0  0  0  0  0  0  0  0
  189.4090  177.8710  146.7670 C   0  0  1  0  0  3  0  0  0  0  0  0
  188.0100  178.4620  148.6180 C   0  0  0  0  0  1  0  0  0  0  0  0
  188.1760  177.0240  146.4040 C   0  0  0  0  0  0  0  0  0  0  0  0
  188.6290  177.2800  147.8750 C   0  0  1  0  0  3  0  0  0  0  0  0
  187.4830  178.1070  145.5580 C   0  0  0  0  0  2  0  0  0  0  0  0
  186.6650  177.3130  146.4930 C   0  0  0  0  0  2  0  0  0  0  0  0
  186.6300  178.0540  142.0410 C   0  0  0  0  0  2  0  0  0  0  0  0
  185.2900  178.0340  142.7450 C   0  0  0  0  0  2  0  0  0  0  0  0
  184.2500  178.7650  141.9120 C   0  0  0  0  0  2  0  0  0  0  0  0
  183.1800  177.8050  141.4040 C   0  0  0  0  0  2  0  0  0  0  0  0
  183.2080  177.6230  139.8880 C   0  0  1  0  0  3  0  0  0  0  0  0
  183.4310  176.2840  139.5620 O   0  0  0  0  0  1  0  0  0  0  0  0
  181.9410  178.0610  139.3040 N   0  0  0  0  0  2  0  0  0  0  0  0
  182.7630  180.0770  138.4650 O   0  0  0  0  0  0  0  0  0  0  0  0
  181.7740  179.3070  138.6120 C   0  0  0  0  0  0  0  0  0  0  0  0
  179.4920  180.2560  139.2990 C   0  0  1  0  0  3  0  0  0  0  0  0
  180.6010  181.0430  137.3210 C   0  0  2  0  0  3  0  0  0  0  0  0
  180.4000  179.7760  138.1690 C   0  0  1  0  0  0  0  0  0  0  0  0
  180.5690  182.2020  138.3130 C   0  0  0  0  0  2  0  0  0  0  0  0
  179.4500  179.2470  140.7750 Cl  0  0  0  0  0  0  0  0  0  0  0  0
  179.8680  181.7020  139.5690 C   0  0  0  0  0  2  0  0  0  0  0  0
  179.7060  178.6460  137.4100 C   0  0  0  0  0  1  0  0  0  0  0  0
  179.5060  181.2660  136.2840 C   0  0  0  0  0  2  0  0  0  0  0  0
  180.0940  181.8530  135.0120 C   0  0  0  0  0  2  0  0  0  0  0  0
  180.9080  182.9380  135.3350 O   0  0  0  0  0  1  0  0  0  0  0  0
  1  6  1  0  0  0  0
  2 12  1  0  0  0  0
  3  6  1  6  0  0  0
  3 11  1  0  0  0  0
  3 14  1  0  0  0  0
  4 15  1  0  0  0  0
  5  7  1  1  0  0  0
  8  5  1  0  0  0  0
  8  2  1  1  0  0  0
  9 46  1  1  0  0  0
 11 10  1  6  0  0  0
 11  8  1  0  0  0  0
 12  7  1  0  0  0  0
 12 35  1  1  0  0  0
 13  9  1  0  0  0  0
 14 15  1  0  0  0  0
 14 13  1  0  0  0  0
 14  5  1  0  0  0  0
 15 13  1  0  0  0  0
 15  9  1  0  0  0  0
 16  1  1  0  0  0  0
 16 10  1  0  0  0  0
 17  1  1  0  0  0  0
 18 17  1  0  0  0  0
 19 18  1  0  0  0  0
 19 20  1  0  0  0  0
 20 22  1  0  0  0  0
 22 21  1  0  0  0  0
 23 22  2  0  0  0  0
 24 20  1  0  0  0  0
 24 30  1  0  0  0  0
 25 28  2  0  0  0  0
 26 27  2  0  0  0  0
 26 31  1  0  0  0  0
 27 30  1  0  0  0  0
 29 31  1  0  0  0  0
 29 25  1  0  0  0  0
 30 25  1  0  0  0  0
 31 34  1  0  0  0  0
 34 33  2  0  0  0  0
 34 32  1  0  0  0  0
 35 36  1  0  0  0  0
 36 37  1  0  0  0  0
 37 39  1  0  0  0  0
 39 40  1  0  0  0  0
 39 38  2  0  0  0  0
 40 43  1  0  0  0  0
 42 45  1  0  0  0  0
 42 40  1  0  0  0  0
 42 43  1  0  0  0  0
 43 41  1  0  0  0  0
 44 42  1  0  0  0  0
 44 45  1  0  0  0  0
 46 47  1  0  0  0  0
 48 47  1  0  0  0  0
 49 48  1  0  0  0  0
 50 49  1  0  0  0  0
 51 50  1  0  0  0  0
 52 50  1  0  0  0  0
 53 54  2  0  0  0  0
 54 52  1  0  0  0  0
 55 60  1  0  0  0  0
 55 59  1  0  0  0  0
 56 57  1  0  0  0  0
 56 58  1  0  0  0  0
 57 54  1  0  0  0  0
 57 55  1  0  0  0  0
 58 60  1  0  0  0  0
 61 57  1  0  0  0  0
 62 56  1  0  0  0  0
 63 64  1  0  0  0  0
 63 62  1  0  0  0  0
M  END
>  <MODEL>
2

>  <REMARK>
 VINA RESULT:      -6.4      3.362      8.808
  Name = 
  21 active torsions:
  status: ('A' for Active; 'I' for Inactive)
    1  A    between atoms: C_1  and  N_27
    2  A    between atoms: C_1  and  C_59
    3  A    between atoms: C_2  and  C_12
    4  A    between atoms: C_2  and  C_22
    5  A    between atoms: C_3  and  N_23
    6  A    between atoms: C_3  and  C_49
    7  A    between atoms: N_4  and  C_49
    8  A    between atoms: C_8  and  C_44
    9  A    between atoms: C_9  and  C_35
   10  A    between atoms: C_9  and  C_54
   11  A    between atoms: N_11  and  C_20
   12  A    between atoms: C_17  and  C_43
   13  A    between atoms: CA_18  and  N_23
   14  A    between atoms: CA_18  and  C_42
   15  A    between atoms: CA_18  and  C_47
   16  A    between atoms: C_20  and  C_21
   17  A    between atoms: C_21  and  C_45
   18  A    between atoms: C_42  and  C_61
   19  A    between atoms: C_51  and  C_54
   20  A    between atoms: C_51  and  C_59
   21  A    between atoms: C_62  and  C_63
                            x       y       z     vdW  Elec       q    Type
                         _______ _______ _______ _____ _____    ______ ____

>  <TORSDO>
F 21

$$$$
=
 OpenBabel10222419123D

 64 72  0  0  1  0  0  0  0  0999 V2000
  187.7380  178.5880  138.1080 N   0  0  0  0  0  0  0  0  0  0  0  0
  182.5450  178.1870  138.1150 C   0  0  0  0  0  2  0  0  0  0  0  0
  185.6990  177.5540  139.0510 C   0  0  2  0  0  3  0  0  0  0  0  0
  187.5540  178.8450  141.2630 C   0  0  0  0  0  1  0  0  0  0  0  0
  183.8790  178.9710  139.8700 C   0  0  2  0  0  3  0  0  0  0  0  0
  187.2100  177.4140  138.7920 C   0  0  0  0  0  2  0  0  0  0  0  0
  182.7870  178.2060  140.4770 N   0  0  0  0  0  2  0  0  0  0  0  0
  183.7660  178.9110  138.4070 N   0  0  1  0  0  0  0  0  0  0  0  0
  185.5520  178.7460  142.6970 C   0  0  1  0  0  3  0  0  0  0  0  0
  185.6860  179.0420  136.9240 C   0  0  0  0  0  2  0  0  0  0  0  0
  184.8910  178.1300  137.8710 C   0  0  1  0  0  3  0  0  0  0  0  0
  182.1020  177.5330  139.3930 C   0  0  1  0  0  3  0  0  0  0  0  0
  185.3770  177.7330  141.5820 C   0  0  1  0  0  3  0  0  0  0  0  0
  185.2300  178.3840  140.2220 C   0  0  1  0  0  0  0  0  0  0  0  0
  186.0570  179.0750  141.3090 C   0  0  2  0  0  0  0  0  0  0  0  0
  187.1320  178.5940  136.7840 C   0  0  0  0  0  2  0  0  0  0  0  0
  189.1680  178.3690  137.9510 C   0  0  0  0  0  2  0  0  0  0  0  0
  189.4440  176.8880  137.7530 C   0  0  0  0  0  2  0  0  0  0  0  0
  190.7950  176.7120  137.2590 N   0  0  0  0  0  2  0  0  0  0  0  0
  190.6970  176.3990  135.8390 C   0  0  2  0  0  3  0  0  0  0  0  0
  188.4980  176.0950  134.7080 O   0  0  0  0  0  0  0  0  0  0  0  0
  189.4640  175.5970  135.5660 C   0  0  0  0  0  0  0  0  0  0  0  0
  189.3160  174.4600  136.0840 O   0  0  0  0  0  1  0  0  0  0  0  0
  191.9550  175.6940  135.3220 C   0  0  0  0  0  2  0  0  0  0  0  0
  192.9660  173.7690  136.5270 C   0  0  0  0  0  0  0  0  0  0  0  0
  195.4130  175.2490  136.3550 C   0  0  0  0  0  3  0  0  0  0  0  0
  194.2560  175.9110  136.2080 C   0  0  0  0  0  3  0  0  0  0  0  0
  191.9620  173.1410  136.8230 O   0  0  0  0  0  0  0  0  0  0  0  0
  194.2430  173.0280  136.2550 C   0  0  0  0  0  2  0  0  0  0  0  0
  192.9050  175.2750  136.4390 C   0  0  1  0  0  3  0  0  0  0  0  0
  195.4590  173.8040  136.7730 C   0  0  2  0  0  3  0  0  0  0  0  0
  196.0830  174.7320  139.0630 N   0  0  0  0  0  1  0  0  0  0  0  0
  195.2700  172.5710  138.8070 O   0  0  0  0  0  0  0  0  0  0  0  0
  195.6140  173.6510  138.2590 C   0  0  0  0  0  0  0  0  0  0  0  0
  180.6000  177.6720  139.5490 C   0  0  0  0  0  2  0  0  0  0  0  0
  179.9410  176.3250  139.3140 C   0  0  0  0  0  2  0  0  0  0  0  0
  179.6970  176.0910  137.8950 N   0  0  0  0  0  2  0  0  0  0  0  0
  179.2340  174.3700  136.4100 O   0  0  0  0  0  0  0  0  0  0  0  0
  180.0590  174.8830  137.2140 C   0  0  0  0  0  0  0  0  0  0  0  0
  181.3010  174.1150  137.5700 C   0  0  1  0  0  3  0  0  0  0  0  0
  183.6300  174.5460  137.9160 C   0  0  0  0  0  1  0  0  0  0  0  0
  181.8580  173.3660  136.3460 C   0  0  0  0  0  0  0  0  0  0  0  0
  182.4950  174.6770  136.9030 C   0  0  1  0  0  3  0  0  0  0  0  0
  182.0240  172.0080  137.0520 C   0  0  0  0  0  2  0  0  0  0  0  0
  183.1030  172.4760  136.1620 C   0  0  0  0  0  2  0  0  0  0  0  0
  184.2390  179.4500  142.9910 C   0  0  0  0  0  2  0  0  0  0  0  0
  184.2780  179.9960  144.4030 C   0  0  0  0  0  2  0  0  0  0  0  0
  184.6240  178.8860  145.3820 C   0  0  0  0  0  2  0  0  0  0  0  0
  186.0090  179.0960  145.9830 C   0  0  0  0  0  2  0  0  0  0  0  0
  186.8230  177.8080  146.0800 C   0  0  1  0  0  3  0  0  0  0  0  0
  186.0410  176.7090  145.7190 O   0  0  0  0  0  1  0  0  0  0  0  0
  187.9910  177.8830  145.2030 N   0  0  0  0  0  2  0  0  0  0  0  0
  189.4280  176.7390  146.6400 O   0  0  0  0  0  0  0  0  0  0  0  0
  189.2750  177.3400  145.5410 C   0  0  0  0  0  0  0  0  0  0  0  0
  191.6640  176.6490  144.9110 C   0  0  1  0  0  3  0  0  0  0  0  0
  190.0760  177.2540  143.2160 C   0  0  2  0  0  3  0  0  0  0  0  0
  190.4850  177.5880  144.6590 C   0  0  1  0  0  0  0  0  0  0  0  0
  190.3780  175.7670  143.0450 C   0  0  0  0  0  2  0  0  0  0  0  0
  192.0880  176.3390  146.6210 Cl  0  0  0  0  0  0  0  0  0  0  0  0
  191.3830  175.3840  144.1220 C   0  0  0  0  0  2  0  0  0  0  0  0
  190.9450  179.0340  144.8360 C   0  0  0  0  0  1  0  0  0  0  0  0
  190.8590  178.0280  142.1620 C   0  0  0  0  0  2  0  0  0  0  0  0
  191.0590  177.1760  140.9200 C   0  0  0  0  0  2  0  0  0  0  0  0
  192.2750  177.5040  140.3230 O   0  0  0  0  0  1  0  0  0  0  0  0
  1  6  1  0  0  0  0
  2 12  1  0  0  0  0
  3  6  1  6  0  0  0
  3 14  1  0  0  0  0
  4 15  1  0  0  0  0
  5 14  1  0  0  0  0
  5  7  1  1  0  0  0
  8  2  1  1  0  0  0
  8  5  1  0  0  0  0
  9 46  1  6  0  0  0
 11 10  1  1  0  0  0
 11  8  1  0  0  0  0
 11  3  1  0  0  0  0
 12 35  1  1  0  0  0
 12  7  1  0  0  0  0
 13  9  1  0  0  0  0
 14 15  1  0  0  0  0
 14 13  1  0  0  0  0
 15 13  1  0  0  0  0
 15  9  1  0  0  0  0
 16 10  1  0  0  0  0
 16  1  1  0  0  0  0
 17  1  1  0  0  0  0
 18 17  1  0  0  0  0
 19 18  1  0  0  0  0
 20 19  1  0  0  0  0
 21 22  2  0  0  0  0
 22 20  1  0  0  0  0
 22 23  1  0  0  0  0
 24 20  1  0  0  0  0
 24 30  1  0  0  0  0
 25 28  2  0  0  0  0
 26 31  1  0  0  0  0
 27 26  2  0  0  0  0
 27 30  1  0  0  0  0
 29 25  1  0  0  0  0
 29 31  1  0  0  0  0
 30 25  1  0  0  0  0
 31 34  1  0  0  0  0
 34 33  2  0  0  0  0
 34 32  1  0  0  0  0
 36 35  1  0  0  0  0
 37 36  1  0  0  0  0
 38 39  2  0  0  0  0
 39 40  1  0  0  0  0
 39 37  1  0  0  0  0
 42 43  1  0  0  0  0
 42 44  1  0  0  0  0
 42 40  1  0  0  0  0
 43 40  1  0  0  0  0
 43 41  1  0  0  0  0
 45 42  1  0  0  0  0
 45 44  1  0  0  0  0
 46 47  1  0  0  0  0
 47 48  1  0  0  0  0
 48 49  1  0  0  0  0
 49 50  1  0  0  0  0
 51 50  1  0  0  0  0
 52 54  1  0  0  0  0
 52 50  1  0  0  0  0
 54 53  2  0  0  0  0
 55 59  1  0  0  0  0
 56 57  1  0  0  0  0
 57 61  1  0  0  0  0
 57 55  1  0  0  0  0
 57 54  1  0  0  0  0
 58 56  1  0  0  0  0
 58 60  1  0  0  0  0
 60 55  1  0  0  0  0
 62 56  1  0  0  0  0
 63 62  1  0  0  0  0
 64 63  1  0  0  0  0
M  END
>  <MODEL>
3

>  <REMARK>
 VINA RESULT:      -6.3      2.539      9.690
  Name = 
  21 active torsions:
  status: ('A' for Active; 'I' for Inactive)
    1  A    between atoms: C_1  and  N_27
    2  A    between atoms: C_1  and  C_59
    3  A    between atoms: C_2  and  C_12
    4  A    between atoms: C_2  and  C_22
    5  A    between atoms: C_3  and  N_23
    6  A    between atoms: C_3  and  C_49
    7  A    between atoms: N_4  and  C_49
    8  A    between atoms: C_8  and  C_44
    9  A    between atoms: C_9  and  C_35
   10  A    between atoms: C_9  and  C_54
   11  A    between atoms: N_11  and  C_20
   12  A    between atoms: C_17  and  C_43
   13  A    between atoms: CA_18  and  N_23
   14  A    between atoms: CA_18  and  C_42
   15  A    between atoms: CA_18  and  C_47
   16  A    between atoms: C_20  and  C_21
   17  A    between atoms: C_21  and  C_45
   18  A    between atoms: C_42  and  C_61
   19  A    between atoms: C_51  and  C_54
   20  A    between atoms: C_51  and  C_59
   21  A    between atoms: C_62  and  C_63
                            x       y       z     vdW  Elec       q    Type
                         _______ _______ _______ _____ _____    ______ ____

>  <TORSDO>
F 21

$$$$
=
 OpenBabel10222419123D

 64 72  0  0  1  0  0  0  0  0999 V2000
  185.4400  176.5030  136.4300 N   0  0  0  0  0  0  0  0  0  0  0  0
  190.1780  174.6820  135.2600 C   0  0  0  0  0  2  0  0  0  0  0  0
  187.8290  176.9600  135.9860 C   0  0  2  0  0  3  0  0  0  0  0  0
  186.8370  178.1830  138.7280 C   0  0  0  0  0  1  0  0  0  0  0  0
  189.5550  175.7600  137.2420 C   0  0  2  0  0  3  0  0  0  0  0  0
  186.3920  177.5070  135.9690 C   0  0  0  0  0  2  0  0  0  0  0  0
  190.9120  176.2110  136.9230 N   0  0  0  0  0  2  0  0  0  0  0  0
  189.0760  174.8620  136.1840 N   0  0  1  0  0  0  0  0  0  0  0  0
  189.2330  178.3180  139.2910 C   0  0  1  0  0  3  0  0  0  0  0  0
  186.7280  174.6420  135.5960 C   0  0  0  0  0  2  0  0  0  0  0  0
  187.9810  175.5200  135.4560 C   0  0  1  0  0  3  0  0  0  0  0  0
  191.2040  175.7300  135.5890 C   0  0  1  0  0  3  0  0  0  0  0  0
  189.1120  178.2550  137.7800 C   0  0  1  0  0  3  0  0  0  0  0  0
  188.5830  176.9200  137.2940 C   0  0  1  0  0  0  0  0  0  0  0  0
  188.1620  177.4490  138.6670 C   0  0  2  0  0  0  0  0  0  0  0  0
  185.4480  175.4450  135.4300 C   0  0  0  0  0  2  0  0  0  0  0  0
  184.1300  177.1350  136.4120 C   0  0  0  0  0  2  0  0  0  0  0  0
  183.0450  176.0720  136.3990 C   0  0  0  0  0  2  0  0  0  0  0  0
  183.2720  175.1370  137.4830 N   0  0  0  0  0  2  0  0  0  0  0  0
  181.9810  174.8860  138.1120 C   0  0  2  0  0  3  0  0  0  0  0  0
  180.4270  174.2370  136.2760 O   0  0  0  0  0  0  0  0  0  0  0  0
  181.2200  173.8530  137.3440 C   0  0  0  0  0  0  0  0  0  0  0  0
  181.3210  172.6340  137.6410 O   0  0  0  0  0  1  0  0  0  0  0  0
  181.1700  176.1740  138.2830 C   0  0  0  0  0  2  0  0  0  0  0  0
  181.8830  177.6220  140.1750 C   0  0  0  0  0  0  0  0  0  0  0  0
  179.0810  177.9700  140.6560 C   0  0  0  0  0  3  0  0  0  0  0  0
  179.4760  176.9160  139.9280 C   0  0  0  0  0  3  0  0  0  0  0  0
  183.0830  177.3990  140.1840 O   0  0  0  0  0  0  0  0  0  0  0  0
  181.3830  178.9740  140.5910 C   0  0  0  0  0  2  0  0  0  0  0  0
  180.9270  176.5350  139.7460 C   0  0  1  0  0  3  0  0  0  0  0  0
  180.0630  178.8670  141.3620 C   0  0  2  0  0  3  0  0  0  0  0  0
  181.2940  179.0710  143.5830 N   0  0  0  0  0  1  0  0  0  0  0  0
  179.5470  177.5670  143.2950 O   0  0  0  0  0  0  0  0  0  0  0  0
  180.2910  178.4450  142.7850 C   0  0  0  0  0  0  0  0  0  0  0  0
  192.5930  175.1230  135.5360 C   0  0  0  0  0  2  0  0  0  0  0  0
  193.5260  175.9190  136.4300 C   0  0  0  0  0  2  0  0  0  0  0  0
  194.0050  175.1170  137.5500 N   0  0  0  0  0  2  0  0  0  0  0  0
  195.9290  174.7220  138.7850 O   0  0  0  0  0  0  0  0  0  0  0  0
  195.3510  174.6390  137.6670 C   0  0  0  0  0  0  0  0  0  0  0  0
  196.1510  174.2230  136.4650 C   0  0  1  0  0  3  0  0  0  0  0  0
  197.6280  172.4490  135.8290 C   0  0  0  0  0  1  0  0  0  0  0  0
  197.4550  175.0350  136.3610 C   0  0  0  0  0  0  0  0  0  0  0  0
  197.4110  173.5570  136.8580 C   0  0  1  0  0  3  0  0  0  0  0  0
  197.2930  175.4070  134.8760 C   0  0  0  0  0  2  0  0  0  0  0  0
  198.6220  174.9850  135.3550 C   0  0  0  0  0  2  0  0  0  0  0  0
  190.4120  177.4870  139.7680 C   0  0  0  0  0  2  0  0  0  0  0  0
  190.2850  177.2650  141.2600 C   0  0  0  0  0  2  0  0  0  0  0  0
  191.5940  177.6080  141.9520 C   0  0  0  0  0  2  0  0  0  0  0  0
  191.4990  177.3730  143.4560 C   0  0  0  0  0  2  0  0  0  0  0  0
  190.8160  178.5190  144.2000 C   0  0  1  0  0  3  0  0  0  0  0  0
  191.0260  179.7270  143.5320 O   0  0  0  0  0  1  0  0  0  0  0  0
  189.3800  178.2650  144.3070 N   0  0  0  0  0  2  0  0  0  0  0  0
  189.3710  177.9960  146.6250 O   0  0  0  0  0  0  0  0  0  0  0  0
  188.7120  177.9970  145.5480 C   0  0  0  0  0  0  0  0  0  0  0  0
  186.6880  177.3150  146.9700 C   0  0  1  0  0  3  0  0  0  0  0  0
  186.4270  178.7910  145.0950 C   0  0  2  0  0  3  0  0  0  0  0  0
  187.2510  177.5860  145.5760 C   0  0  1  0  0  0  0  0  0  0  0  0
  186.1220  179.5990  146.3530 C   0  0  0  0  0  2  0  0  0  0  0  0
  187.7140  176.3510  148.0730 Cl  0  0  0  0  0  0  0  0  0  0  0  0
  186.2910  178.6640  147.5420 C   0  0  0  0  0  2  0  0  0  0  0  0
  187.0650  176.3420  144.7070 C   0  0  0  0  0  1  0  0  0  0  0  0
  185.1060  178.4070  144.4370 C   0  0  0  0  0  2  0  0  0  0  0  0
  184.9960  179.0430  143.0620 C   0  0  0  0  0  2  0  0  0  0  0  0
  185.5670  178.1960  142.1130 O   0  0  0  0  0  1  0  0  0  0  0  0
  2 12  1  0  0  0  0
  3  6  1  1  0  0  0
  3 14  1  0  0  0  0
  5  7  1  6  0  0  0
  5 14  1  0  0  0  0
  6  1  1  0  0  0  0
  8  2  1  6  0  0  0
  8  5  1  0  0  0  0
  9 46  1  6  0  0  0
 11 10  1  1  0  0  0
 11  3  1  0  0  0  0
 11  8  1  0  0  0  0
 12 35  1  1  0  0  0
 12  7  1  0  0  0  0
 13 15  1  0  0  0  0
 13  9  1  0  0  0  0
 14 13  1  0  0  0  0
 14 15  1  0  0  0  0
 15  4  1  0  0  0  0
 15  9  1  0  0  0  0
 16 10  1  0  0  0  0
 16  1  1  0  0  0  0
 17  1  1  0  0  0  0
 18 17  1  0  0  0  0
 18 19  1  0  0  0  0
 19 20  1  0  0  0  0
 20 24  1  0  0  0  0
 21 22  2  0  0  0  0
 22 23  1  0  0  0  0
 22 20  1  0  0  0  0
 24 30  1  0  0  0  0
 25 28  2  0  0  0  0
 25 29  1  0  0  0  0
 26 31  1  0  0  0  0
 27 26  2  0  0  0  0
 29 31  1  0  0  0  0
 30 27  1  0  0  0  0
 30 25  1  0  0  0  0
 31 34  1  0  0  0  0
 34 33  2  0  0  0  0
 34 32  1  0  0  0  0
 35 36  1  0  0  0  0
 36 37  1  0  0  0  0
 37 39  1  0  0  0  0
 39 38  2  0  0  0  0
 40 43  1  0  0  0  0
 40 39  1  0  0  0  0
 41 43  1  0  0  0  0
 42 40  1  0  0  0  0
 42 43  1  0  0  0  0
 44 45  1  0  0  0  0
 44 42  1  0  0  0  0
 45 42  1  0  0  0  0
 46 47  1  0  0  0  0
 47 48  1  0  0  0  0
 48 49  1  0  0  0  0
 49 50  1  0  0  0  0
 50 52  1  0  0  0  0
 51 50  1  0  0  0  0
 52 54  1  0  0  0  0
 54 57  1  0  0  0  0
 54 53  2  0  0  0  0
 55 60  1  0  0  0  0
 55 59  1  0  0  0  0
 56 57  1  0  0  0  0
 56 58  1  0  0  0  0
 57 55  1  0  0  0  0
 58 60  1  0  0  0  0
 61 57  1  0  0  0  0
 62 56  1  0  0  0  0
 63 62  1  0  0  0  0
 64 63  1  0  0  0  0
M  END
>  <MODEL>
4

>  <REMARK>
 VINA RESULT:      -6.1      2.326      3.524
  Name = 
  21 active torsions:
  status: ('A' for Active; 'I' for Inactive)
    1  A    between atoms: C_1  and  N_27
    2  A    between atoms: C_1  and  C_59
    3  A    between atoms: C_2  and  C_12
    4  A    between atoms: C_2  and  C_22
    5  A    between atoms: C_3  and  N_23
    6  A    between atoms: C_3  and  C_49
    7  A    between atoms: N_4  and  C_49
    8  A    between atoms: C_8  and  C_44
    9  A    between atoms: C_9  and  C_35
   10  A    between atoms: C_9  and  C_54
   11  A    between atoms: N_11  and  C_20
   12  A    between atoms: C_17  and  C_43
   13  A    between atoms: CA_18  and  N_23
   14  A    between atoms: CA_18  and  C_42
   15  A    between atoms: CA_18  and  C_47
   16  A    between atoms: C_20  and  C_21
   17  A    between atoms: C_21  and  C_45
   18  A    between atoms: C_42  and  C_61
   19  A    between atoms: C_51  and  C_54
   20  A    between atoms: C_51  and  C_59
   21  A    between atoms: C_62  and  C_63
                            x       y       z     vdW  Elec       q    Type
                         _______ _______ _______ _____ _____    ______ ____

>  <TORSDO>
F 21

$$$$
=
 OpenBabel10222419123D

 64 72  0  0  1  0  0  0  0  0999 V2000
  181.1440  178.9130  140.4960 N   0  0  0  0  0  0  0  0  0  0  0  0
  183.3890  179.0240  145.1940 C   0  0  0  0  0  2  0  0  0  0  0  0
  182.7750  177.9450  142.0820 C   0  0  2  0  0  3  0  0  0  0  0  0
  184.0680  178.6770  139.2900 C   0  0  0  0  0  1  0  0  0  0  0  0
  184.4500  179.3830  143.1400 C   0  0  2  0  0  3  0  0  0  0  0  0
  181.8670  177.7020  140.8640 C   0  0  0  0  0  2  0  0  0  0  0  0
  185.3930  178.6410  143.9800 N   0  0  0  0  0  2  0  0  0  0  0  0
  183.1880  179.5690  143.8660 N   0  0  1  0  0  0  0  0  0  0  0  0
  186.2160  178.5450  140.4900 C   0  0  1  0  0  3  0  0  0  0  0  0
  181.0340  179.7480  142.7560 C   0  0  0  0  0  2  0  0  0  0  0  0
  182.1360  178.7790  143.2100 C   0  0  1  0  0  3  0  0  0  0  0  0
  184.6580  178.2200  145.1540 C   0  0  1  0  0  3  0  0  0  0  0  0
  185.1940  177.7460  141.2760 C   0  0  1  0  0  3  0  0  0  0  0  0
  184.1110  178.6190  141.8780 C   0  0  1  0  0  0  0  0  0  0  0  0
  184.7890  179.0420  140.5720 C   0  0  2  0  0  0  0  0  0  0  0  0
  180.2280  179.1900  141.5930 C   0  0  0  0  0  2  0  0  0  0  0  0
  180.3550  178.5830  139.3190 C   0  0  0  0  0  2  0  0  0  0  0  0
  179.3450  179.6850  139.0490 C   0  0  0  0  0  2  0  0  0  0  0  0
  179.2540  179.9160  137.6200 N   0  0  0  0  0  2  0  0  0  0  0  0
  180.6170  179.9860  137.1090 C   0  0  2  0  0  3  0  0  0  0  0  0
  180.7200  182.4030  136.5150 O   0  0  0  0  0  0  0  0  0  0  0  0
  181.1770  181.3590  137.3020 C   0  0  0  0  0  0  0  0  0  0  0  0
  182.0350  181.5780  138.1960 O   0  0  0  0  0  1  0  0  0  0  0  0
  180.7000  179.5430  135.6440 C   0  0  0  0  0  2  0  0  0  0  0  0
  181.9810  177.4780  136.1700 C   0  0  0  0  0  0  0  0  0  0  0  0
  179.4250  176.3260  136.7600 C   0  0  0  0  0  3  0  0  0  0  0  0
  179.4660  177.4260  135.9950 C   0  0  0  0  0  3  0  0  0  0  0  0
  183.0890  177.7970  135.7720 O   0  0  0  0  0  0  0  0  0  0  0  0
  181.8600  176.5440  137.3390 C   0  0  0  0  0  2  0  0  0  0  0  0
  180.7540  178.0270  135.4820 C   0  0  1  0  0  3  0  0  0  0  0  0
  180.6720  175.5900  137.1690 C   0  0  2  0  0  3  0  0  0  0  0  0
  179.9770  173.6120  135.7210 N   0  0  0  0  0  1  0  0  0  0  0  0
  182.1870  174.3180  135.8350 O   0  0  0  0  0  0  0  0  0  0  0  0
  181.0000  174.4670  136.2270 C   0  0  0  0  0  0  0  0  0  0  0  0
  185.4700  178.4780  146.4090 C   0  0  0  0  0  2  0  0  0  0  0  0
  186.8000  177.7550  146.3060 C   0  0  0  0  0  2  0  0  0  0  0  0
  187.4960  177.7330  147.5880 N   0  0  0  0  0  2  0  0  0  0  0  0
  189.5140  178.3530  148.5500 O   0  0  0  0  0  0  0  0  0  0  0  0
  188.9180  177.6130  147.7200 C   0  0  0  0  0  0  0  0  0  0  0  0
  189.7340  176.7800  146.7720 C   0  0  1  0  0  3  0  0  0  0  0  0
  191.9270  175.8260  146.6680 C   0  0  0  0  0  1  0  0  0  0  0  0
  190.3050  177.6400  145.6300 C   0  0  0  0  0  0  0  0  0  0  0  0
  191.1670  177.1410  146.8310 C   0  0  1  0  0  3  0  0  0  0  0  0
  189.8640  176.7050  144.4900 C   0  0  0  0  0  2  0  0  0  0  0  0
  191.2150  177.2940  144.4360 C   0  0  0  0  0  2  0  0  0  0  0  0
  187.1270  179.3190  141.4290 C   0  0  0  0  0  2  0  0  0  0  0  0
  188.3480  178.4770  141.7340 C   0  0  0  0  0  2  0  0  0  0  0  0
  189.1320  178.2130  140.4590 C   0  0  0  0  0  2  0  0  0  0  0  0
  190.1170  177.0640  140.6480 C   0  0  0  0  0  2  0  0  0  0  0  0
  191.4050  177.2400  139.8470 C   0  0  1  0  0  3  0  0  0  0  0  0
  192.5170  176.9760  140.6470 O   0  0  0  0  0  1  0  0  0  0  0  0
  191.4090  176.3370  138.6960 N   0  0  0  0  0  2  0  0  0  0  0  0
  193.3980  177.1420  137.7820 O   0  0  0  0  0  0  0  0  0  0  0  0
  192.4280  176.3410  137.6860 C   0  0  0  0  0  0  0  0  0  0  0  0
  193.6180  175.0360  135.8250 C   0  0  1  0  0  3  0  0  0  0  0  0
  191.6300  174.1670  136.8540 C   0  0  2  0  0  3  0  0  0  0  0  0
  192.2930  175.4900  136.4370 C   0  0  1  0  0  0  0  0  0  0  0  0
  192.7820  173.2430  137.2400 C   0  0  0  0  0  2  0  0  0  0  0  0
  194.9070  176.2710  135.7030 Cl  0  0  0  0  0  0  0  0  0  0  0  0
  194.0420  173.7960  136.5910 C   0  0  0  0  0  2  0  0  0  0  0  0
  191.4930  176.2620  135.3890 C   0  0  0  0  0  1  0  0  0  0  0  0
  190.8340  173.5020  135.7360 C   0  0  0  0  0  2  0  0  0  0  0  0
  189.5140  172.9730  136.2710 C   0  0  0  0  0  2  0  0  0  0  0  0
  188.7610  174.0320  136.7770 O   0  0  0  0  0  1  0  0  0  0  0  0
  1  6  1  0  0  0  0
  1 16  1  0  0  0  0
  3  6  1  6  0  0  0
  3 11  1  0  0  0  0
  4 15  1  0  0  0  0
  5  8  1  0  0  0  0
  5  7  1  1  0  0  0
  7 12  1  0  0  0  0
  8  2  1  1  0  0  0
  9 15  1  0  0  0  0
  9 13  1  0  0  0  0
  9 46  1  1  0  0  0
 11 10  1  6  0  0  0
 11  8  1  0  0  0  0
 12  2  1  0  0  0  0
 12 35  1  1  0  0  0
 13 14  1  0  0  0  0
 14  3  1  0  0  0  0
 14  5  1  0  0  0  0
 15 13  1  0  0  0  0
 15 14  1  0  0  0  0
 16 10  1  0  0  0  0
 17  1  1  0  0  0  0
 18 17  1  0  0  0  0
 19 18  1  0  0  0  0
 20 22  1  0  0  0  0
 20 19  1  0  0  0  0
 21 22  2  0  0  0  0
 22 23  1  0  0  0  0
 24 20  1  0  0  0  0
 25 29  1  0  0  0  0
 26 31  1  0  0  0  0
 27 26  2  0  0  0  0
 28 25  2  0  0  0  0
 30 24  1  0  0  0  0
 30 27  1  0  0  0  0
 30 25  1  0  0  0  0
 31 29  1  0  0  0  0
 32 34  1  0  0  0  0
 33 34  2  0  0  0  0
 34 31  1  0  0  0  0
 36 35  1  0  0  0  0
 36 37  1  0  0  0  0
 37 39  1  0  0  0  0
 39 38  2  0  0  0  0
 40 43  1  0  0  0  0
 40 39  1  0  0  0  0
 41 43  1  0  0  0  0
 42 40  1  0  0  0  0
 42 43  1  0  0  0  0
 44 42  1  0  0  0  0
 45 44  1  0  0  0  0
 45 42  1  0  0  0  0
 46 47  1  0  0  0  0
 48 49  1  0  0  0  0
 48 47  1  0  0  0  0
 50 51  1  0  0  0  0
 50 49  1  0  0  0  0
 52 50  1  0  0  0  0
 54 53  2  0  0  0  0
 54 52  1  0  0  0  0
 55 57  1  0  0  0  0
 55 60  1  0  0  0  0
 56 58  1  0  0  0  0
 57 56  1  0  0  0  0
 57 54  1  0  0  0  0
 59 55  1  0  0  0  0
 60 58  1  0  0  0  0
 61 57  1  0  0  0  0
 62 63  1  0  0  0  0
 62 56  1  0  0  0  0
 63 64  1  0  0  0  0
M  END
>  <MODEL>
5

>  <REMARK>
 VINA RESULT:      -6.1      2.914      8.515
  Name = 
  21 active torsions:
  status: ('A' for Active; 'I' for Inactive)
    1  A    between atoms: C_1  and  N_27
    2  A    between atoms: C_1  and  C_59
    3  A    between atoms: C_2  and  C_12
    4  A    between atoms: C_2  and  C_22
    5  A    between atoms: C_3  and  N_23
    6  A    between atoms: C_3  and  C_49
    7  A    between atoms: N_4  and  C_49
    8  A    between atoms: C_8  and  C_44
    9  A    between atoms: C_9  and  C_35
   10  A    between atoms: C_9  and  C_54
   11  A    between atoms: N_11  and  C_20
   12  A    between atoms: C_17  and  C_43
   13  A    between atoms: CA_18  and  N_23
   14  A    between atoms: CA_18  and  C_42
   15  A    between atoms: CA_18  and  C_47
   16  A    between atoms: C_20  and  C_21
   17  A    between atoms: C_21  and  C_45
   18  A    between atoms: C_42  and  C_61
   19  A    between atoms: C_51  and  C_54
   20  A    between atoms: C_51  and  C_59
   21  A    between atoms: C_62  and  C_63
                            x       y       z     vdW  Elec       q    Type
                         _______ _______ _______ _____ _____    ______ ____

>  <TORSDO>
F 21

$$$$
=
 OpenBabel10222419123D

 64 72  0  0  1  0  0  0  0  0999 V2000
  187.8620  178.6930  138.0760 N   0  0  0  0  0  0  0  0  0  0  0  0
  182.6970  179.0650  138.6290 C   0  0  0  0  0  2  0  0  0  0  0  0
  185.7840  177.8600  139.1240 C   0  0  2  0  0  3  0  0  0  0  0  0
  188.0240  178.5710  141.2410 C   0  0  0  0  0  1  0  0  0  0  0  0
  184.3010  179.4150  140.2970 C   0  0  2  0  0  3  0  0  0  0  0  0
  187.2210  177.5330  138.6820 C   0  0  0  0  0  2  0  0  0  0  0  0
  183.1630  178.7490  140.9360 N   0  0  0  0  0  2  0  0  0  0  0  0
  184.0410  179.5580  138.8590 N   0  0  1  0  0  0  0  0  0  0  0  0
  186.1770  178.5880  142.8730 C   0  0  1  0  0  3  0  0  0  0  0  0
  185.8070  179.5910  137.1900 C   0  0  0  0  0  2  0  0  0  0  0  0
  184.9700  178.6940  138.1160 C   0  0  1  0  0  3  0  0  0  0  0  0
  182.2790  178.3270  139.8690 C   0  0  1  0  0  3  0  0  0  0  0  0
  185.7370  177.7620  141.6800 C   0  0  1  0  0  3  0  0  0  0  0  0
  185.5670  178.5950  140.4260 C   0  0  1  0  0  0  0  0  0  0  0  0
  186.5940  179.0120  141.4810 C   0  0  2  0  0  0  0  0  0  0  0  0
  187.1430  178.9560  136.8380 C   0  0  0  0  0  2  0  0  0  0  0  0
  189.2170  178.2860  137.7350 C   0  0  0  0  0  2  0  0  0  0  0  0
  189.2320  177.6440  136.3590 C   0  0  0  0  0  2  0  0  0  0  0  0
  190.2650  176.6280  136.3120 N   0  0  0  0  0  2  0  0  0  0  0  0
  189.5940  175.3340  136.2590 C   0  0  2  0  0  3  0  0  0  0  0  0
  191.7110  174.0820  135.8630 O   0  0  0  0  0  0  0  0  0  0  0  0
  190.5500  174.2370  136.6020 C   0  0  0  0  0  0  0  0  0  0  0  0
  190.3220  173.4740  137.5770 O   0  0  0  0  0  1  0  0  0  0  0  0
  188.9220  175.0960  134.9030 C   0  0  0  0  0  2  0  0  0  0  0  0
  187.7290  172.9670  135.3820 C   0  0  0  0  0  0  0  0  0  0  0  0
  185.9640  174.5850  136.9550 C   0  0  0  0  0  3  0  0  0  0  0  0
  186.7160  175.1850  136.0210 C   0  0  0  0  0  3  0  0  0  0  0  0
  188.2930  172.2170  134.6020 O   0  0  0  0  0  0  0  0  0  0  0  0
  187.2180  172.4240  136.6840 C   0  0  0  0  0  2  0  0  0  0  0  0
  187.5580  174.4240  135.0240 C   0  0  1  0  0  3  0  0  0  0  0  0
  185.8940  173.0870  137.0820 C   0  0  2  0  0  3  0  0  0  0  0  0
  184.7030  171.1220  135.9810 N   0  0  0  0  0  1  0  0  0  0  0  0
  183.7640  173.2460  136.0200 O   0  0  0  0  0  0  0  0  0  0  0  0
  184.7390  172.5080  136.3170 C   0  0  0  0  0  0  0  0  0  0  0  0
  180.8400  178.6660  140.2090 C   0  0  0  0  0  2  0  0  0  0  0  0
  180.5510  180.1010  139.8110 C   0  0  0  0  0  2  0  0  0  0  0  0
  179.5750  180.1700  138.7300 N   0  0  0  0  0  2  0  0  0  0  0  0
  179.3820  180.8510  136.5210 O   0  0  0  0  0  0  0  0  0  0  0  0
  179.5740  181.1880  137.7210 C   0  0  0  0  0  0  0  0  0  0  0  0
  179.9830  182.6020  138.0230 C   0  0  1  0  0  3  0  0  0  0  0  0
  178.9340  184.6990  138.5060 C   0  0  0  0  0  1  0  0  0  0  0  0
  180.3670  183.3540  136.7350 C   0  0  0  0  0  0  0  0  0  0  0  0
  179.0110  183.5740  137.4770 C   0  0  1  0  0  3  0  0  0  0  0  0
  181.6960  183.9160  137.2700 C   0  0  0  0  0  2  0  0  0  0  0  0
  180.8190  184.8060  136.4860 C   0  0  0  0  0  2  0  0  0  0  0  0
  185.0280  179.4360  143.3900 C   0  0  0  0  0  2  0  0  0  0  0  0
  185.1700  179.5960  144.8890 C   0  0  0  0  0  2  0  0  0  0  0  0
  185.0590  178.2430  145.5720 C   0  0  0  0  0  2  0  0  0  0  0  0
  186.3800  177.4860  145.5080 C   0  0  0  0  0  2  0  0  0  0  0  0
  187.4120  177.9930  146.5140 C   0  0  1  0  0  3  0  0  0  0  0  0
  187.5820  177.0680  147.5460 O   0  0  0  0  0  1  0  0  0  0  0  0
  188.6940  178.2200  145.8480 N   0  0  0  0  0  2  0  0  0  0  0  0
  188.5350  176.3850  144.4170 O   0  0  0  0  0  0  0  0  0  0  0  0
  189.2120  177.3740  144.8110 C   0  0  0  0  0  0  0  0  0  0  0  0
  191.6960  176.7580  144.9830 C   0  0  1  0  0  3  0  0  0  0  0  0
  190.6400  177.0070  142.8410 C   0  0  2  0  0  3  0  0  0  0  0  0
  190.6160  177.5710  144.2710 C   0  0  1  0  0  0  0  0  0  0  0  0
  191.0110  175.5340  142.9950 C   0  0  0  0  0  2  0  0  0  0  0  0
  191.6250  176.7250  146.7700 Cl  0  0  0  0  0  0  0  0  0  0  0  0
  191.6770  175.3760  144.3550 C   0  0  0  0  0  2  0  0  0  0  0  0
  190.9760  179.0550  144.3400 C   0  0  0  0  0  1  0  0  0  0  0  0
  191.6720  177.6710  141.9370 C   0  0  0  0  0  2  0  0  0  0  0  0
  191.3030  177.4700  140.4770 C   0  0  0  0  0  2  0  0  0  0  0  0
  192.3410  176.8070  139.8230 O   0  0  0  0  0  1  0  0  0  0  0  0
  1  6  1  0  0  0  0
  2 12  1  0  0  0  0
  3  6  1  6  0  0  0
  3 14  1  0  0  0  0
  4 15  1  0  0  0  0
  5 14  1  0  0  0  0
  5  7  1  1  0  0  0
  8  2  1  1  0  0  0
  8  5  1  0  0  0  0
  9 46  1  6  0  0  0
 11 10  1  1  0  0  0
 11  8  1  0  0  0  0
 11  3  1  0  0  0  0
 12 35  1  1  0  0  0
 12  7  1  0  0  0  0
 13  9  1  0  0  0  0
 14 15  1  0  0  0  0
 14 13  1  0  0  0  0
 15 13  1  0  0  0  0
 15  9  1  0  0  0  0
 16 10  1  0  0  0  0
 16  1  1  0  0  0  0
 17  1  1  0  0  0  0
 18 17  1  0  0  0  0
 19 18  1  0  0  0  0
 20 19  1  0  0  0  0
 20 22  1  0  0  0  0
 21 22  2  0  0  0  0
 22 23  1  0  0  0  0
 24 30  1  0  0  0  0
 24 20  1  0  0  0  0
 25 29  1  0  0  0  0
 26 31  1  0  0  0  0
 27 26  2  0  0  0  0
 28 25  2  0  0  0  0
 29 31  1  0  0  0  0
 30 25  1  0  0  0  0
 30 27  1  0  0  0  0
 32 34  1  0  0  0  0
 33 34  2  0  0  0  0
 34 31  1  0  0  0  0
 36 35  1  0  0  0  0
 37 36  1  0  0  0  0
 38 39  2  0  0  0  0
 39 40  1  0  0  0  0
 39 37  1  0  0  0  0
 42 44  1  0  0  0  0
 42 43  1  0  0  0  0
 42 40  1  0  0  0  0
 43 40  1  0  0  0  0
 43 41  1  0  0  0  0
 45 42  1  0  0  0  0
 45 44  1  0  0  0  0
 46 47  1  0  0  0  0
 47 48  1  0  0  0  0
 49 48  1  0  0  0  0
 49 50  1  0  0  0  0
 50 51  1  0  0  0  0
 52 50  1  0  0  0  0
 53 54  2  0  0  0  0
 54 52  1  0  0  0  0
 55 59  1  0  0  0  0
 56 58  1  0  0  0  0
 56 57  1  0  0  0  0
 57 61  1  0  0  0  0
 57 54  1  0  0  0  0
 57 55  1  0  0  0  0
 58 60  1  0  0  0  0
 60 55  1  0  0  0  0
 62 56  1  0  0  0  0
 63 62  1  0  0  0  0
 64 63  1  0  0  0  0
M  END
>  <MODEL>
6

>  <REMARK>
 VINA RESULT:      -6.0      3.095      9.826
  Name = 
  21 active torsions:
  status: ('A' for Active; 'I' for Inactive)
    1  A    between atoms: C_1  and  N_27
    2  A    between atoms: C_1  and  C_59
    3  A    between atoms: C_2  and  C_12
    4  A    between atoms: C_2  and  C_22
    5  A    between atoms: C_3  and  N_23
    6  A    between atoms: C_3  and  C_49
    7  A    between atoms: N_4  and  C_49
    8  A    between atoms: C_8  and  C_44
    9  A    between atoms: C_9  and  C_35
   10  A    between atoms: C_9  and  C_54
   11  A    between atoms: N_11  and  C_20
   12  A    between atoms: C_17  and  C_43
   13  A    between atoms: CA_18  and  N_23
   14  A    between atoms: CA_18  and  C_42
   15  A    between atoms: CA_18  and  C_47
   16  A    between atoms: C_20  and  C_21
   17  A    between atoms: C_21  and  C_45
   18  A    between atoms: C_42  and  C_61
   19  A    between atoms: C_51  and  C_54
   20  A    between atoms: C_51  and  C_59
   21  A    between atoms: C_62  and  C_63
                            x       y       z     vdW  Elec       q    Type
                         _______ _______ _______ _____ _____    ______ ____

>  <TORSDO>
F 21

$$$$
=
 OpenBabel10222419123D

 64 72  0  0  1  0  0  0  0  0999 V2000
  188.0040  177.7230  135.8570 N   0  0  0  0  0  0  0  0  0  0  0  0
  183.0210  176.5300  136.7940 C   0  0  0  0  0  2  0  0  0  0  0  0
  186.3290  176.6430  137.3200 C   0  0  2  0  0  3  0  0  0  0  0  0
  188.1610  178.7040  138.8680 C   0  0  0  0  0  1  0  0  0  0  0  0
  184.3860  177.9150  138.0970 C   0  0  2  0  0  3  0  0  0  0  0  0
  187.7950  176.6820  136.8560 C   0  0  0  0  0  2  0  0  0  0  0  0
  183.5410  177.1590  139.0240 N   0  0  0  0  0  2  0  0  0  0  0  0
  184.1090  177.4850  136.7200 N   0  0  1  0  0  0  0  0  0  0  0  0
  186.4030  178.6440  140.5950 C   0  0  1  0  0  3  0  0  0  0  0  0
  185.7750  177.5500  134.9520 C   0  0  0  0  0  2  0  0  0  0  0  0
  185.2880  176.7830  136.1910 C   0  0  1  0  0  3  0  0  0  0  0  0
  182.8690  176.1450  138.2390 C   0  0  1  0  0  3  0  0  0  0  0  0
  186.2890  177.3770  139.7700 C   0  0  1  0  0  3  0  0  0  0  0  0
  185.8560  177.6480  138.3430 C   0  0  1  0  0  0  0  0  0  0  0  0
  186.6640  178.7020  139.1050 C   0  0  2  0  0  0  0  0  0  0  0  0
  187.2510  177.3140  134.6790 C   0  0  0  0  0  2  0  0  0  0  0  0
  189.4190  177.6980  135.5210 C   0  0  0  0  0  2  0  0  0  0  0  0
  190.1020  176.5530  136.2490 C   0  0  0  0  0  2  0  0  0  0  0  0
  190.6850  175.6450  135.2810 N   0  0  0  0  0  2  0  0  0  0  0  0
  191.8460  175.0300  135.9130 C   0  0  2  0  0  3  0  0  0  0  0  0
  190.5230  173.6250  137.4890 O   0  0  0  0  0  1  0  0  0  0  0  0
  191.4810  173.7000  136.4920 C   0  0  0  0  0  0  0  0  0  0  0  0
  192.0140  172.6470  136.0550 O   0  0  0  0  0  0  0  0  0  0  0  0
  192.4770  175.9490  136.9640 C   0  0  0  0  0  2  0  0  0  0  0  0
  194.6370  175.2640  137.9870 C   0  0  0  0  0  0  0  0  0  0  0  0
  195.4640  174.7110  135.3010 C   0  0  0  0  0  3  0  0  0  0  0  0
  194.4210  175.5320  135.4900 C   0  0  0  0  0  3  0  0  0  0  0  0
  194.4650  175.6360  139.1370 O   0  0  0  0  0  0  0  0  0  0  0  0
  195.4820  174.0520  137.7250 C   0  0  0  0  0  2  0  0  0  0  0  0
  193.9970  176.0270  136.8530 C   0  0  1  0  0  3  0  0  0  0  0  0
  196.3080  174.2150  136.4440 C   0  0  2  0  0  3  0  0  0  0  0  0
  198.0480  175.2600  137.9840 N   0  0  0  0  0  1  0  0  0  0  0  0
  198.0900  175.6090  135.6880 O   0  0  0  0  0  0  0  0  0  0  0  0
  197.5120  175.0810  136.6740 C   0  0  0  0  0  0  0  0  0  0  0  0
  181.3980  176.0810  138.6020 C   0  0  0  0  0  2  0  0  0  0  0  0
  180.7470  177.4200  138.3090 C   0  0  0  0  0  2  0  0  0  0  0  0
  180.8420  178.3210  139.4520 N   0  0  0  0  0  2  0  0  0  0  0  0
  179.5830  179.8790  140.6230 O   0  0  0  0  0  0  0  0  0  0  0  0
  180.1490  179.5720  139.5380 C   0  0  0  0  0  0  0  0  0  0  0  0
  179.9160  180.4340  138.3280 C   0  0  1  0  0  3  0  0  0  0  0  0
  180.7690  180.6530  136.1020 C   0  0  0  0  0  1  0  0  0  0  0  0
  180.6090  181.8000  138.4800 C   0  0  0  0  0  0  0  0  0  0  0  0
  181.1690  180.6590  137.5760 C   0  0  1  0  0  3  0  0  0  0  0  0
  179.3870  182.6440  138.0760 C   0  0  0  0  0  2  0  0  0  0  0  0
  180.7090  183.0150  137.5370 C   0  0  0  0  0  2  0  0  0  0  0  0
  185.0260  179.1850  140.9380 C   0  0  0  0  0  2  0  0  0  0  0  0
  184.5760  178.5870  142.2540 C   0  0  0  0  0  2  0  0  0  0  0  0
  185.7830  178.1930  143.0890 C   0  0  0  0  0  2  0  0  0  0  0  0
  185.5390  178.4640  144.5690 C   0  0  0  0  0  2  0  0  0  0  0  0
  186.7800  178.2430  145.4320 C   0  0  1  0  0  3  0  0  0  0  0  0
  186.6440  177.0800  146.1920 O   0  0  0  0  0  1  0  0  0  0  0  0
  187.9680  178.1360  144.5870 N   0  0  0  0  0  2  0  0  0  0  0  0
  189.3420  177.2320  146.2410 O   0  0  0  0  0  0  0  0  0  0  0  0
  189.2290  177.6320  145.0490 C   0  0  0  0  0  0  0  0  0  0  0  0
  191.6000  176.7630  144.5940 C   0  0  1  0  0  3  0  0  0  0  0  0
  190.0690  177.1530  142.7860 C   0  0  2  0  0  3  0  0  0  0  0  0
  190.4650  177.6940  144.1700 C   0  0  1  0  0  0  0  0  0  0  0  0
  190.3130  175.6480  142.8570 C   0  0  0  0  0  2  0  0  0  0  0  0
  191.9780  176.7090  146.3420 Cl  0  0  0  0  0  0  0  0  0  0  0  0
  191.2810  175.4010  144.0050 C   0  0  0  0  0  2  0  0  0  0  0  0
  190.9810  179.1310  144.1310 C   0  0  0  0  0  1  0  0  0  0  0  0
  190.9030  177.7230  141.6440 C   0  0  0  0  0  2  0  0  0  0  0  0
  191.0350  176.7020  140.5260 C   0  0  0  0  0  2  0  0  0  0  0  0
  189.8310  176.6210  139.8280 O   0  0  0  0  0  1  0  0  0  0  0  0
  1  6  1  0  0  0  0
  2 12  1  0  0  0  0
  3  6  1  6  0  0  0
  3 14  1  0  0  0  0
  4 15  1  0  0  0  0
  5 14  1  0  0  0  0
  5  7  1  1  0  0  0
  8  2  1  1  0  0  0
  8  5  1  0  0  0  0
  9 46  1  6  0  0  0
 11 10  1  6  0  0  0
 11  8  1  0  0  0  0
 11  3  1  0  0  0  0
 12 35  1  1  0  0  0
 12  7  1  0  0  0  0
 13  9  1  0  0  0  0
 14 15  1  0  0  0  0
 14 13  1  0  0  0  0
 15 13  1  0  0  0  0
 15  9  1  0  0  0  0
 16 10  1  0  0  0  0
 16  1  1  0  0  0  0
 17  1  1  0  0  0  0
 17 18  1  0  0  0  0
 19 20  1  0  0  0  0
 19 18  1  0  0  0  0
 20 22  1  0  0  0  0
 20 24  1  0  0  0  0
 22 21  1  0  0  0  0
 23 22  2  0  0  0  0
 25 28  2  0  0  0  0
 26 27  2  0  0  0  0
 26 31  1  0  0  0  0
 27 30  1  0  0  0  0
 29 25  1  0  0  0  0
 30 24  1  0  0  0  0
 30 25  1  0  0  0  0
 31 34  1  0  0  0  0
 31 29  1  0  0  0  0
 33 34  2  0  0  0  0
 34 32  1  0  0  0  0
 36 35  1  0  0  0  0
 36 37  1  0  0  0  0
 37 39  1  0  0  0  0
 39 38  2  0  0  0  0
 40 42  1  0  0  0  0
 40 39  1  0  0  0  0
 41 43  1  0  0  0  0
 43 40  1  0  0  0  0
 43 42  1  0  0  0  0
 44 42  1  0  0  0  0
 45 44  1  0  0  0  0
 45 42  1  0  0  0  0
 46 47  1  0  0  0  0
 47 48  1  0  0  0  0
 48 49  1  0  0  0  0
 49 50  1  0  0  0  0
 50 51  1  0  0  0  0
 52 54  1  0  0  0  0
 52 50  1  0  0  0  0
 54 53  2  0  0  0  0
 55 59  1  0  0  0  0
 56 58  1  0  0  0  0
 56 57  1  0  0  0  0
 57 55  1  0  0  0  0
 57 54  1  0  0  0  0
 58 60  1  0  0  0  0
 60 55  1  0  0  0  0
 61 57  1  0  0  0  0
 62 56  1  0  0  0  0
 63 62  1  0  0  0  0
 64 63  1  0  0  0  0
M  END
>  <MODEL>
7

>  <REMARK>
 VINA RESULT:      -5.9      2.762     10.209
  Name = 
  21 active torsions:
  status: ('A' for Active; 'I' for Inactive)
    1  A    between atoms: C_1  and  N_27
    2  A    between atoms: C_1  and  C_59
    3  A    between atoms: C_2  and  C_12
    4  A    between atoms: C_2  and  C_22
    5  A    between atoms: C_3  and  N_23
    6  A    between atoms: C_3  and  C_49
    7  A    between atoms: N_4  and  C_49
    8  A    between atoms: C_8  and  C_44
    9  A    between atoms: C_9  and  C_35
   10  A    between atoms: C_9  and  C_54
   11  A    between atoms: N_11  and  C_20
   12  A    between atoms: C_17  and  C_43
   13  A    between atoms: CA_18  and  N_23
   14  A    between atoms: CA_18  and  C_42
   15  A    between atoms: CA_18  and  C_47
   16  A    between atoms: C_20  and  C_21
   17  A    between atoms: C_21  and  C_45
   18  A    between atoms: C_42  and  C_61
   19  A    between atoms: C_51  and  C_54
   20  A    between atoms: C_51  and  C_59
   21  A    between atoms: C_62  and  C_63
                            x       y       z     vdW  Elec       q    Type
                         _______ _______ _______ _____ _____    ______ ____

>  <TORSDO>
F 21

$$$$
=
 OpenBabel10222419123D

 64 72  0  0  1  0  0  0  0  0999 V2000
  191.4340  177.1040  139.1720 N   0  0  0  0  0  0  0  0  0  0  0  0
  190.0510  173.2760  135.9220 C   0  0  0  0  0  2  0  0  0  0  0  0
  189.6960  175.5420  138.3640 C   0  0  2  0  0  3  0  0  0  0  0  0
  188.7430  178.5580  138.3370 C   0  0  0  0  0  1  0  0  0  0  0  0
  189.1610  175.4390  135.9780 C   0  0  2  0  0  3  0  0  0  0  0  0
  190.2130  176.3960  139.5350 C   0  0  0  0  0  2  0  0  0  0  0  0
  188.0500  174.5320  135.6790 N   0  0  0  0  0  2  0  0  0  0  0  0
  190.3880  174.6600  136.1880 N   0  0  1  0  0  0  0  0  0  0  0  0
  186.9820  177.7650  136.8050 C   0  0  1  0  0  3  0  0  0  0  0  0
  192.1860  175.3910  137.6500 C   0  0  0  0  0  2  0  0  0  0  0  0
  190.7850  174.7640  137.6000 C   0  0  1  0  0  3  0  0  0  0  0  0
  188.5520  173.1870  135.8740 C   0  0  1  0  0  3  0  0  0  0  0  0
  187.4840  176.5720  137.5950 C   0  0  1  0  0  3  0  0  0  0  0  0
  188.9170  176.2120  137.2570 C   0  0  1  0  0  0  0  0  0  0  0  0
  188.4530  177.6660  137.1460 C   0  0  2  0  0  0  0  0  0  0  0  0
  192.4540  176.0830  138.9760 C   0  0  0  0  0  2  0  0  0  0  0  0
  191.8090  177.9040  140.3280 C   0  0  0  0  0  2  0  0  0  0  0  0
  191.3060  177.2420  141.5990 C   0  0  0  0  0  2  0  0  0  0  0  0
  190.3150  178.0940  142.2260 N   0  0  0  0  0  2  0  0  0  0  0  0
  189.0290  177.4160  142.1080 C   0  0  2  0  0  3  0  0  0  0  0  0
  186.6460  178.1340  142.1830 O   0  0  0  0  0  1  0  0  0  0  0  0
  187.9480  178.4000  141.7950 C   0  0  0  0  0  0  0  0  0  0  0  0
  188.2190  179.4820  141.2120 O   0  0  0  0  0  0  0  0  0  0  0  0
  188.7010  176.5940  143.3580 C   0  0  0  0  0  2  0  0  0  0  0  0
  187.6750  177.3890  145.4790 C   0  0  0  0  0  0  0  0  0  0  0  0
  190.1140  176.5230  146.7080 C   0  0  0  0  0  3  0  0  0  0  0  0
  190.1120  176.7490  145.3870 C   0  0  0  0  0  3  0  0  0  0  0  0
  186.6860  177.9590  145.0470 O   0  0  0  0  0  0  0  0  0  0  0  0
  187.6120  176.7250  146.8240 C   0  0  0  0  0  2  0  0  0  0  0  0
  188.9400  177.3620  144.6560 C   0  0  1  0  0  3  0  0  0  0  0  0
  188.9380  176.8710  147.5800 C   0  0  2  0  0  3  0  0  0  0  0  0
  190.2950  178.6500  148.7990 N   0  0  0  0  0  1  0  0  0  0  0  0
  188.1100  179.0440  148.1140 O   0  0  0  0  0  0  0  0  0  0  0  0
  189.0720  178.2360  148.1920 C   0  0  0  0  0  0  0  0  0  0  0  0
  188.1260  172.2910  134.7260 C   0  0  0  0  0  2  0  0  0  0  0  0
  186.6130  172.3020  134.6120 C   0  0  0  0  0  2  0  0  0  0  0  0
  186.0650  170.9510  134.6520 N   0  0  0  0  0  2  0  0  0  0  0  0
  184.0320  169.8330  134.6340 O   0  0  0  0  0  0  0  0  0  0  0  0
  184.8040  170.6210  135.2470 C   0  0  0  0  0  0  0  0  0  0  0  0
  184.2960  171.3280  136.4720 C   0  0  1  0  0  3  0  0  0  0  0  0
  182.2000  172.0400  137.3840 C   0  0  0  0  0  1  0  0  0  0  0  0
  184.5000  172.8500  136.3570 C   0  0  0  0  0  0  0  0  0  0  0  0
  183.1130  172.1600  136.1650 C   0  0  1  0  0  3  0  0  0  0  0  0
  185.1430  173.0300  137.7440 C   0  0  0  0  0  2  0  0  0  0  0  0
  184.1360  174.0130  137.3010 C   0  0  0  0  0  2  0  0  0  0  0  0
  186.7210  177.3780  135.3590 C   0  0  0  0  0  2  0  0  0  0  0  0
  185.5140  176.4650  135.3040 C   0  0  0  0  0  2  0  0  0  0  0  0
  184.3220  177.1340  135.9690 C   0  0  0  0  0  2  0  0  0  0  0  0
  183.2180  177.4190  134.9560 C   0  0  0  0  0  2  0  0  0  0  0  0
  182.0810  178.2620  135.5300 C   0  0  1  0  0  3  0  0  0  0  0  0
  180.9770  178.2370  134.6760 O   0  0  0  0  0  1  0  0  0  0  0  0
  181.6910  177.7530  136.8440 N   0  0  0  0  0  2  0  0  0  0  0  0
  181.2170  179.8430  137.7650 O   0  0  0  0  0  0  0  0  0  0  0  0
  181.2780  178.5940  137.9310 C   0  0  0  0  0  0  0  0  0  0  0  0
  181.2140  176.5050  139.4200 C   0  0  1  0  0  3  0  0  0  0  0  0
  182.1440  178.5630  140.2340 C   0  0  2  0  0  3  0  0  0  0  0  0
  181.0380  178.0190  139.3160 C   0  0  1  0  0  0  0  0  0  0  0  0
  183.2900  177.5600  140.1230 C   0  0  0  0  0  2  0  0  0  0  0  0
  180.4870  175.5240  138.1130 Cl  0  0  0  0  0  0  0  0  0  0  0  0
  182.7000  176.2570  139.6040 C   0  0  0  0  0  2  0  0  0  0  0  0
  179.6310  178.3960  139.7770 C   0  0  0  0  0  1  0  0  0  0  0  0
  181.7310  178.6620  141.6990 C   0  0  0  0  0  2  0  0  0  0  0  0
  182.9570  178.6300  142.5960 C   0  0  0  0  0  2  0  0  0  0  0  0
  182.5670  178.8270  143.9200 O   0  0  0  0  0  1  0  0  0  0  0  0
  1  6  1  0  0  0  0
  1 17  1  0  0  0  0
  3  6  1  1  0  0  0
  5  7  1  1  0  0  0
  5  8  1  0  0  0  0
  5 14  1  0  0  0  0
  7 12  1  0  0  0  0
  8  2  1  1  0  0  0
  8 11  1  0  0  0  0
  9 46  1  6  0  0  0
  9 15  1  0  0  0  0
  9 13  1  0  0  0  0
 10 16  1  0  0  0  0
 11 10  1  6  0  0  0
 11  3  1  0  0  0  0
 12 35  1  6  0  0  0
 12  2  1  0  0  0  0
 14 13  1  0  0  0  0
 14  3  1  0  0  0  0
 15 14  1  0  0  0  0
 15 13  1  0  0  0  0
 15  4  1  0  0  0  0
 16  1  1  0  0  0  0
 17 18  1  0  0  0  0
 18 19  1  0  0  0  0
 20 19  1  0  0  0  0
 20 24  1  0  0  0  0
 22 20  1  0  0  0  0
 22 21  1  0  0  0  0
 23 22  2  0  0  0  0
 24 30  1  0  0  0  0
 25 29  1  0  0  0  0
 26 31  1  0  0  0  0
 27 26  2  0  0  0  0
 28 25  2  0  0  0  0
 29 31  1  0  0  0  0
 30 27  1  0  0  0  0
 30 25  1  0  0  0  0
 31 34  1  0  0  0  0
 33 34  2  0  0  0  0
 34 32  1  0  0  0  0
 36 37  1  0  0  0  0
 36 35  1  0  0  0  0
 37 39  1  0  0  0  0
 38 39  2  0  0  0  0
 39 40  1  0  0  0  0
 42 40  1  0  0  0  0
 42 45  1  0  0  0  0
 42 44  1  0  0  0  0
 43 42  1  0  0  0  0
 43 40  1  0  0  0  0
 43 41  1  0  0  0  0
 45 44  1  0  0  0  0
 47 46  1  0  0  0  0
 47 48  1  0  0  0  0
 49 50  1  0  0  0  0
 49 48  1  0  0  0  0
 50 52  1  0  0  0  0
 51 50  1  0  0  0  0
 52 54  1  0  0  0  0
 53 54  2  0  0  0  0
 54 57  1  0  0  0  0
 55 60  1  0  0  0  0
 56 62  1  0  0  0  0
 57 55  1  0  0  0  0
 57 61  1  0  0  0  0
 57 56  1  0  0  0  0
 58 56  1  0  0  0  0
 59 55  1  0  0  0  0
 60 58  1  0  0  0  0
 62 63  1  0  0  0  0
 63 64  1  0  0  0  0
M  END
>  <MODEL>
8

>  <REMARK>
 VINA RESULT:      -5.4      2.965      8.794
  Name = 
  21 active torsions:
  status: ('A' for Active; 'I' for Inactive)
    1  A    between atoms: C_1  and  N_27
    2  A    between atoms: C_1  and  C_59
    3  A    between atoms: C_2  and  C_12
    4  A    between atoms: C_2  and  C_22
    5  A    between atoms: C_3  and  N_23
    6  A    between atoms: C_3  and  C_49
    7  A    between atoms: N_4  and  C_49
    8  A    between atoms: C_8  and  C_44
    9  A    between atoms: C_9  and  C_35
   10  A    between atoms: C_9  and  C_54
   11  A    between atoms: N_11  and  C_20
   12  A    between atoms: C_17  and  C_43
   13  A    between atoms: CA_18  and  N_23
   14  A    between atoms: CA_18  and  C_42
   15  A    between atoms: CA_18  and  C_47
   16  A    between atoms: C_20  and  C_21
   17  A    between atoms: C_21  and  C_45
   18  A    between atoms: C_42  and  C_61
   19  A    between atoms: C_51  and  C_54
   20  A    between atoms: C_51  and  C_59
   21  A    between atoms: C_62  and  C_63
                            x       y       z     vdW  Elec       q    Type
                         _______ _______ _______ _____ _____    ______ ____

>  <TORSDO>
F 21

$$$$
=
 OpenBabel10222419123D

 64 72  0  0  1  0  0  0  0  0999 V2000
  188.6530  177.6570  136.0420 N   0  0  0  0  0  0  0  0  0  0  0  0
  183.5630  176.6650  136.5220 C   0  0  0  0  0  2  0  0  0  0  0  0
  186.8130  176.6270  137.3340 C   0  0  2  0  0  3  0  0  0  0  0  0
  188.5870  178.5820  139.0750 C   0  0  0  0  0  1  0  0  0  0  0  0
  184.8650  177.9680  137.9640 C   0  0  2  0  0  3  0  0  0  0  0  0
  188.3150  176.6100  136.9990 C   0  0  0  0  0  2  0  0  0  0  0  0
  183.9120  177.2350  138.8000 N   0  0  0  0  0  2  0  0  0  0  0  0
  184.6920  177.5730  136.5610 N   0  0  1  0  0  0  0  0  0  0  0  0
  186.6850  178.5700  140.6420 C   0  0  1  0  0  3  0  0  0  0  0  0
  186.5060  177.5950  134.9450 C   0  0  0  0  0  2  0  0  0  0  0  0
  185.8830  176.8300  136.1220 C   0  0  1  0  0  3  0  0  0  0  0  0
  183.2700  176.2630  137.9400 C   0  0  1  0  0  3  0  0  0  0  0  0
  186.5910  177.3220  139.7850 C   0  0  1  0  0  3  0  0  0  0  0  0
  186.2960  177.6350  138.3320 C   0  0  1  0  0  0  0  0  0  0  0  0
  187.0770  178.6410  139.1810 C   0  0  2  0  0  0  0  0  0  0  0  0
  187.9900  177.2990  134.7960 C   0  0  0  0  0  2  0  0  0  0  0  0
  190.0910  177.5760  135.8300 C   0  0  0  0  0  2  0  0  0  0  0  0
  190.5900  176.1900  136.2000 C   0  0  0  0  0  2  0  0  0  0  0  0
  191.1080  175.5330  135.0160 N   0  0  0  0  0  2  0  0  0  0  0  0
  192.1310  174.5940  135.4590 C   0  0  2  0  0  3  0  0  0  0  0  0
  192.4210  172.1250  135.3070 O   0  0  0  0  0  0  0  0  0  0  0  0
  191.5790  173.2050  135.5060 C   0  0  0  0  0  0  0  0  0  0  0  0
  190.3610  173.0120  135.7590 O   0  0  0  0  0  1  0  0  0  0  0  0
  192.7400  175.0060  136.8030 C   0  0  0  0  0  2  0  0  0  0  0  0
  194.9570  174.8120  137.9120 C   0  0  0  0  0  0  0  0  0  0  0  0
  195.9480  174.1920  135.2970 C   0  0  0  0  0  3  0  0  0  0  0  0
  194.7700  174.8240  135.3980 C   0  0  0  0  0  3  0  0  0  0  0  0
  194.6880  175.2440  139.0220 O   0  0  0  0  0  0  0  0  0  0  0  0
  196.0130  173.7550  137.7700 C   0  0  0  0  0  2  0  0  0  0  0  0
  194.2240  175.3480  136.7060 C   0  0  1  0  0  3  0  0  0  0  0  0
  196.8330  173.9560  136.4910 C   0  0  2  0  0  3  0  0  0  0  0  0
  199.0200  174.8360  137.4580 N   0  0  0  0  0  1  0  0  0  0  0  0
  197.7110  176.1280  136.0390 O   0  0  0  0  0  0  0  0  0  0  0  0
  197.8560  175.0420  136.6590 C   0  0  0  0  0  0  0  0  0  0  0  0
  181.7710  176.2570  138.1730 C   0  0  0  0  0  2  0  0  0  0  0  0
  181.2160  174.8810  137.8550 C   0  0  0  0  0  2  0  0  0  0  0  0
  180.4960  174.8760  136.5870 N   0  0  0  0  0  2  0  0  0  0  0  0
  179.3810  173.4280  135.1580 O   0  0  0  0  0  0  0  0  0  0  0  0
  180.4760  173.7610  135.6880 C   0  0  0  0  0  0  0  0  0  0  0  0
  181.6710  172.8660  135.5080 C   0  0  1  0  0  3  0  0  0  0  0  0
  182.1640  170.7050  134.6050 C   0  0  0  0  0  1  0  0  0  0  0  0
  182.0230  172.1430  136.8210 C   0  0  0  0  0  0  0  0  0  0  0  0
  181.3020  171.4400  135.6290 C   0  0  1  0  0  3  0  0  0  0  0  0
  183.5250  172.4780  136.7900 C   0  0  0  0  0  2  0  0  0  0  0  0
  183.1150  171.1130  137.1680 C   0  0  0  0  0  2  0  0  0  0  0  0
  185.3070  179.1650  140.8750 C   0  0  0  0  0  2  0  0  0  0  0  0
  184.6020  178.3670  141.9520 C   0  0  0  0  0  2  0  0  0  0  0  0
  185.6110  177.8590  142.9690 C   0  0  0  0  0  2  0  0  0  0  0  0
  185.4700  178.5970  144.2970 C   0  0  0  0  0  2  0  0  0  0  0  0
  186.6500  178.3670  145.2380 C   0  0  1  0  0  3  0  0  0  0  0  0
  186.4200  177.2520  146.0450 O   0  0  0  0  0  1  0  0  0  0  0  0
  187.8770  178.1670  144.4680 N   0  0  0  0  0  2  0  0  0  0  0  0
  189.2240  177.6830  146.3100 O   0  0  0  0  0  0  0  0  0  0  0  0
  189.1410  177.8370  145.0600 C   0  0  0  0  0  0  0  0  0  0  0  0
  191.3910  176.6900  144.6040 C   0  0  1  0  0  3  0  0  0  0  0  0
  189.9990  177.4240  142.7910 C   0  0  2  0  0  3  0  0  0  0  0  0
  190.4080  177.7970  144.2250 C   0  0  1  0  0  0  0  0  0  0  0  0
  190.0380  175.8990  142.7450 C   0  0  0  0  0  2  0  0  0  0  0  0
  191.6890  176.4500  146.3520 Cl  0  0  0  0  0  0  0  0  0  0  0  0
  190.9170  175.4340  143.8970 C   0  0  0  0  0  2  0  0  0  0  0  0
  191.1120  179.1500  144.3190 C   0  0  0  0  0  1  0  0  0  0  0  0
  190.9470  177.9620  141.7240 C   0  0  0  0  0  2  0  0  0  0  0  0
  191.3840  176.8430  140.7940 C   0  0  0  0  0  2  0  0  0  0  0  0
  192.4900  177.2610  140.0540 O   0  0  0  0  0  1  0  0  0  0  0  0
  1  6  1  0  0  0  0
  2 12  1  0  0  0  0
  3  6  1  6  0  0  0
  3 14  1  0  0  0  0
  4 15  1  0  0  0  0
  5 14  1  0  0  0  0
  5  7  1  1  0  0  0
  8  2  1  1  0  0  0
  8  5  1  0  0  0  0
  9 46  1  6  0  0  0
 11 10  1  6  0  0  0
 11  8  1  0  0  0  0
 11  3  1  0  0  0  0
 12 35  1  6  0  0  0
 12  7  1  0  0  0  0
 13  9  1  0  0  0  0
 14 15  1  0  0  0  0
 14 13  1  0  0  0  0
 15 13  1  0  0  0  0
 15  9  1  0  0  0  0
 16 10  1  0  0  0  0
 16  1  1  0  0  0  0
 17  1  1  0  0  0  0
 17 18  1  0  0  0  0
 19 20  1  0  0  0  0
 19 18  1  0  0  0  0
 20 22  1  0  0  0  0
 20 24  1  0  0  0  0
 21 22  2  0  0  0  0
 22 23  1  0  0  0  0
 25 28  2  0  0  0  0
 26 27  2  0  0  0  0
 26 31  1  0  0  0  0
 27 30  1  0  0  0  0
 29 25  1  0  0  0  0
 30 24  1  0  0  0  0
 30 25  1  0  0  0  0
 31 34  1  0  0  0  0
 31 29  1  0  0  0  0
 33 34  2  0  0  0  0
 34 32  1  0  0  0  0
 36 35  1  0  0  0  0
 37 36  1  0  0  0  0
 38 39  2  0  0  0  0
 39 37  1  0  0  0  0
 40 43  1  0  0  0  0
 40 39  1  0  0  0  0
 40 42  1  0  0  0  0
 41 43  1  0  0  0  0
 42 45  1  0  0  0  0
 43 42  1  0  0  0  0
 44 42  1  0  0  0  0
 44 45  1  0  0  0  0
 46 47  1  0  0  0  0
 47 48  1  0  0  0  0
 48 49  1  0  0  0  0
 49 50  1  0  0  0  0
 50 51  1  0  0  0  0
 52 54  1  0  0  0  0
 52 50  1  0  0  0  0
 54 53  2  0  0  0  0
 55 59  1  0  0  0  0
 56 57  1  0  0  0  0
 57 61  1  0  0  0  0
 57 55  1  0  0  0  0
 57 54  1  0  0  0  0
 58 56  1  0  0  0  0
 58 60  1  0  0  0  0
 60 55  1  0  0  0  0
 62 56  1  0  0  0  0
 63 62  1  0  0  0  0
 64 63  1  0  0  0  0
M  END
>  <MODEL>
9

>  <REMARK>
 VINA RESULT:      -5.3      2.401      9.727
  Name = 
  21 active torsions:
  status: ('A' for Active; 'I' for Inactive)
    1  A    between atoms: C_1  and  N_27
    2  A    between atoms: C_1  and  C_59
    3  A    between atoms: C_2  and  C_12
    4  A    between atoms: C_2  and  C_22
    5  A    between atoms: C_3  and  N_23
    6  A    between atoms: C_3  and  C_49
    7  A    between atoms: N_4  and  C_49
    8  A    between atoms: C_8  and  C_44
    9  A    between atoms: C_9  and  C_35
   10  A    between atoms: C_9  and  C_54
   11  A    between atoms: N_11  and  C_20
   12  A    between atoms: C_17  and  C_43
   13  A    between atoms: CA_18  and  N_23
   14  A    between atoms: CA_18  and  C_42
   15  A    between atoms: CA_18  and  C_47
   16  A    between atoms: C_20  and  C_21
   17  A    between atoms: C_21  and  C_45
   18  A    between atoms: C_42  and  C_61
   19  A    between atoms: C_51  and  C_54
   20  A    between atoms: C_51  and  C_59
   21  A    between atoms: C_62  and  C_63
                            x       y       z     vdW  Elec       q    Type
                         _______ _______ _______ _____ _____    ______ ____

>  <TORSDO>
F 21

$$$$
