=
 OpenBabel10222416323D

 32 33  0  0  1  0  0  0  0  0999 V2000
  188.6940  177.4860  145.3510 C   0  0  0  0  0  0  0  0  0  0  0  0
  192.0200  176.0910  146.1080 O   0  0  0  0  0  0  0  0  0  0  0  0
  190.8660  179.4610  143.7910 C   0  0  0  0  0  1  0  0  0  0  0  0
  186.5350  178.1710  143.6650 C   0  0  0  0  0  0  0  0  0  0  0  0
  188.9390  177.9100  144.0210 C   0  0  0  0  0  0  0  0  0  0  0  0
  188.6110  177.2160  148.4110 C   0  0  0  0  0  1  0  0  0  0  0  0
  191.2540  177.0860  144.1510 N   0  0  0  0  0  2  0  0  0  0  0  0
  189.7850  176.9050  147.5450 C   0  0  0  0  0  3  0  0  0  0  0  0
  190.3620  178.0550  143.5220 C   0  0  2  0  0  3  0  0  0  0  0  0
  187.8610  178.2670  143.1770 C   0  0  0  0  0  0  0  0  0  0  0  0
  186.3080  177.7520  144.9770 C   0  0  0  0  0  3  0  0  0  0  0  0
  187.3720  177.4090  145.8040 C   0  0  0  0  0  3  0  0  0  0  0  0
  189.8330  177.0400  146.2090 C   0  0  0  0  0  0  0  0  0  0  0  0
  191.0950  176.7140  145.5200 C   0  0  0  0  0  0  0  0  0  0  0  0
  185.3590  178.5020  142.8380 C   0  0  0  0  0  0  0  0  0  0  0  0
  185.1540  177.7930  141.7270 C   0  0  0  0  0  3  0  0  0  0  0  0
  183.9980  178.0420  140.8110 C   0  0  0  0  0  2  0  0  0  0  0  0
  184.6790  179.9890  139.6120 O   0  0  0  0  0  1  0  0  0  0  0  0
  184.4700  178.6140  139.4840 C   0  0  1  0  0  3  0  0  0  0  0  0
  185.7620  177.9310  139.0760 C   0  0  0  0  0  2  0  0  0  0  0  0
  187.1220  178.9090  137.1890 N   0  0  0  0  0  1  0  0  0  0  0  0
  186.0190  178.1220  137.6210 C   0  0  0  0  0  0  0  0  0  0  0  0
  185.2720  177.5680  136.7720 O   0  0  0  0  0  0  0  0  0  0  0  0
  184.4570  179.5240  143.1820 O   0  0  0  0  0  0  0  0  0  0  0  0
  182.1570  179.3370  143.4600 O   0  0  0  0  0  0  0  0  0  0  0  0
  183.3070  179.3830  143.9720 C   0  0  0  0  0  0  0  0  0  0  0  0
  183.4420  179.2710  145.3480 O   0  0  0  0  0  1  0  0  0  0  0  0
  187.1500  179.5620  141.2950 F   0  0  0  0  0  0  0  0  0  0  0  0
  188.1550  178.7420  141.7750 C   0  0  2  0  0  3  0  0  0  0  0  0
  188.4070  177.5770  140.8340 C   0  0  0  0  0  2  0  0  0  0  0  0
  189.4100  177.9110  139.9240 O   0  0  0  0  0  0  0  0  0  0  0  0
  190.3050  176.8430  139.9860 C   0  0  0  0  0  1  0  0  0  0  0  0
  1 12  1  0  0  0  0
  1 13  1  0  0  0  0
  4 11  1  0  0  0  0
  5  1  2  0  0  0  0
  7 14  1  0  0  0  0
  8  6  1  0  0  0  0
  9  3  1  1  0  0  0
  9  5  1  0  0  0  0
  9  7  1  0  0  0  0
 10  4  2  0  0  0  0
 10  5  1  0  0  0  0
 11 12  2  0  0  0  0
 13  8  2  0  0  0  0
 14  2  2  0  0  0  0
 14 13  1  0  0  0  0
 15 24  1  0  0  0  0
 15  4  1  0  0  0  0
 16 15  2  0  0  0  0
 17 16  1  0  0  0  0
 19 18  1  1  0  0  0
 19 17  1  0  0  0  0
 20 19  1  0  0  0  0
 21 22  1  0  0  0  0
 22 20  1  0  0  0  0
 23 22  2  0  0  0  0
 24 26  1  0  0  0  0
 25 26  2  0  0  0  0
 26 27  1  0  0  0  0
 29 28  1  6  0  0  0
 29 10  1  0  0  0  0
 30 29  1  0  0  0  0
 31 32  1  0  0  0  0
 31 30  1  0  0  0  0
M  END
>  <MODEL>
1

>  <REMARK>
 VINA RESULT:      -7.9      0.000      0.000
  Name = 
  10 active torsions:
  status: ('A' for Active; 'I' for Inactive)
    1  A    between atoms: C_1  and  C_11
    2  A    between atoms: C_1  and  O_30
    3  A    between atoms: C_3  and  C_5
    4  A    between atoms: C_3  and  C_8
    5  A    between atoms: O_4  and  C_24
    6  A    between atoms: C_5  and  C_25
    7  A    between atoms: C_12  and  C_25
    8  A    between atoms: C_20  and  C_29
    9  A    between atoms: C_24  and  C_29
   10  A    between atoms: C_26  and  O_30
                            x       y       z     vdW  Elec       q    Type
                         _______ _______ _______ _____ _____    ______ ____

>  <TORSDO>
F 10

$$$$
=
 OpenBabel10222416323D

 32 33  0  0  1  0  0  0  0  0999 V2000
  188.7660  177.5500  145.4860 C   0  0  0  0  0  0  0  0  0  0  0  0
  192.0580  176.1230  146.3280 O   0  0  0  0  0  0  0  0  0  0  0  0
  190.9850  179.3890  143.8290 C   0  0  0  0  0  1  0  0  0  0  0  0
  186.6260  178.1920  143.7600 C   0  0  0  0  0  0  0  0  0  0  0  0
  189.0240  177.8960  144.1360 C   0  0  0  0  0  0  0  0  0  0  0  0
  188.6710  177.4470  148.5570 C   0  0  0  0  0  1  0  0  0  0  0  0
  191.3190  177.0280  144.3180 N   0  0  0  0  0  2  0  0  0  0  0  0
  189.8390  177.0640  147.7120 C   0  0  0  0  0  3  0  0  0  0  0  0
  190.4500  177.9820  143.6350 C   0  0  2  0  0  3  0  0  0  0  0  0
  187.9550  178.2320  143.2710 C   0  0  0  0  0  0  0  0  0  0  0  0
  186.3870  177.8490  145.0910 C   0  0  0  0  0  3  0  0  0  0  0  0
  187.4410  177.5270  145.9390 C   0  0  0  0  0  3  0  0  0  0  0  0
  189.8930  177.1250  146.3710 C   0  0  0  0  0  0  0  0  0  0  0  0
  191.1480  176.7340  145.7050 C   0  0  0  0  0  0  0  0  0  0  0  0
  185.4600  178.5040  142.9120 C   0  0  0  0  0  0  0  0  0  0  0  0
  185.2830  177.7890  141.8000 C   0  0  0  0  0  3  0  0  0  0  0  0
  184.1390  178.0200  140.8640 C   0  0  0  0  0  2  0  0  0  0  0  0
  185.7220  178.5590  139.1610 O   0  0  0  0  0  1  0  0  0  0  0  0
  184.5310  178.9830  139.7540 C   0  0  1  0  0  3  0  0  0  0  0  0
  183.4240  179.0260  138.7160 C   0  0  0  0  0  2  0  0  0  0  0  0
  181.2310  179.9070  139.6000 N   0  0  0  0  0  1  0  0  0  0  0  0
  182.4920  180.1560  138.9920 C   0  0  0  0  0  0  0  0  0  0  0  0
  182.8300  181.3340  138.7060 O   0  0  0  0  0  0  0  0  0  0  0  0
  184.5380  179.5140  143.2380 O   0  0  0  0  0  0  0  0  0  0  0  0
  183.4640  179.2830  145.2870 O   0  0  0  0  0  1  0  0  0  0  0  0
  183.3920  179.3640  144.0320 C   0  0  0  0  0  0  0  0  0  0  0  0
  182.1470  179.3240  143.4200 O   0  0  0  0  0  0  0  0  0  0  0  0
  187.3420  179.5340  141.3600 F   0  0  0  0  0  0  0  0  0  0  0  0
  188.2630  178.6240  141.8470 C   0  0  2  0  0  3  0  0  0  0  0  0
  188.3580  177.4070  140.9420 C   0  0  0  0  0  2  0  0  0  0  0  0
  189.1860  177.6880  139.8560 O   0  0  0  0  0  0  0  0  0  0  0  0
  190.3150  176.8970  140.0650 C   0  0  0  0  0  1  0  0  0  0  0  0
  1 12  1  0  0  0  0
  1 13  1  0  0  0  0
  4 11  1  0  0  0  0
  5  1  2  0  0  0  0
  7 14  1  0  0  0  0
  8  6  1  0  0  0  0
  9  3  1  1  0  0  0
  9  5  1  0  0  0  0
  9  7  1  0  0  0  0
 10  4  2  0  0  0  0
 10  5  1  0  0  0  0
 11 12  2  0  0  0  0
 13  8  2  0  0  0  0
 14  2  2  0  0  0  0
 14 13  1  0  0  0  0
 15 24  1  0  0  0  0
 15  4  1  0  0  0  0
 16 15  2  0  0  0  0
 17 16  1  0  0  0  0
 19 18  1  6  0  0  0
 19 17  1  0  0  0  0
 20 22  1  0  0  0  0
 20 19  1  0  0  0  0
 22 21  1  0  0  0  0
 23 22  2  0  0  0  0
 24 26  1  0  0  0  0
 26 25  1  0  0  0  0
 27 26  2  0  0  0  0
 29 28  1  6  0  0  0
 29 10  1  0  0  0  0
 30 29  1  0  0  0  0
 31 32  1  0  0  0  0
 31 30  1  0  0  0  0
M  END
>  <MODEL>
2

>  <REMARK>
 VINA RESULT:      -7.8      1.407      1.815
  Name = 
  10 active torsions:
  status: ('A' for Active; 'I' for Inactive)
    1  A    between atoms: C_1  and  C_11
    2  A    between atoms: C_1  and  O_30
    3  A    between atoms: C_3  and  C_5
    4  A    between atoms: C_3  and  C_8
    5  A    between atoms: O_4  and  C_24
    6  A    between atoms: C_5  and  C_25
    7  A    between atoms: C_12  and  C_25
    8  A    between atoms: C_20  and  C_29
    9  A    between atoms: C_24  and  C_29
   10  A    between atoms: C_26  and  O_30
                            x       y       z     vdW  Elec       q    Type
                         _______ _______ _______ _____ _____    ______ ____

>  <TORSDO>
F 10

$$$$
=
 OpenBabel10222416323D

 32 33  0  0  1  0  0  0  0  0999 V2000
  187.5360  177.9390  145.3250 C   0  0  0  0  0  0  0  0  0  0  0  0
  190.1620  176.2760  147.3060 O   0  0  0  0  0  0  0  0  0  0  0  0
  190.3820  178.5360  143.7140 C   0  0  0  0  0  1  0  0  0  0  0  0
  185.9160  178.3260  143.0450 C   0  0  0  0  0  0  0  0  0  0  0  0
  188.0640  177.7010  144.0310 C   0  0  0  0  0  0  0  0  0  0  0  0
  186.9900  178.9970  148.1590 C   0  0  0  0  0  1  0  0  0  0  0  0
  189.9860  176.5080  145.0000 N   0  0  0  0  0  2  0  0  0  0  0  0
  188.1140  178.0970  147.7710 C   0  0  0  0  0  3  0  0  0  0  0  0
  189.5150  177.3000  143.8670 C   0  0  2  0  0  3  0  0  0  0  0  0
  187.2600  177.9070  142.8850 C   0  0  0  0  0  0  0  0  0  0  0  0
  185.4090  178.5550  144.3250 C   0  0  0  0  0  3  0  0  0  0  0  0
  186.2060  178.3580  145.4480 C   0  0  0  0  0  3  0  0  0  0  0  0
  188.3700  177.6470  146.5310 C   0  0  0  0  0  0  0  0  0  0  0  0
  189.5500  176.7870  146.3300 C   0  0  0  0  0  0  0  0  0  0  0  0
  185.0100  178.5370  141.9010 C   0  0  0  0  0  0  0  0  0  0  0  0
  183.8660  177.8530  141.8710 C   0  0  0  0  0  3  0  0  0  0  0  0
  182.8740  177.9840  140.7590 C   0  0  0  0  0  2  0  0  0  0  0  0
  180.4900  178.0880  140.7690 O   0  0  0  0  0  1  0  0  0  0  0  0
  181.6390  178.7420  141.2200 C   0  0  1  0  0  3  0  0  0  0  0  0
  181.6320  178.8120  142.7360 C   0  0  0  0  0  2  0  0  0  0  0  0
  179.4460  178.6070  143.9800 N   0  0  0  0  0  1  0  0  0  0  0  0
  180.3540  179.4000  143.2270 C   0  0  0  0  0  0  0  0  0  0  0  0
  180.0880  180.6090  142.9940 O   0  0  0  0  0  0  0  0  0  0  0  0
  185.3080  179.4310  140.8570 O   0  0  0  0  0  0  0  0  0  0  0  0
  185.4520  178.2350  138.8690 O   0  0  0  0  0  1  0  0  0  0  0  0
  185.0260  179.2400  139.4970 C   0  0  0  0  0  0  0  0  0  0  0  0
  184.2410  180.1730  138.8330 O   0  0  0  0  0  0  0  0  0  0  0  0
  188.6870  176.5660  141.5110 F   0  0  0  0  0  0  0  0  0  0  0  0
  187.8590  177.6740  141.5200 C   0  0  2  0  0  3  0  0  0  0  0  0
  188.5890  178.9060  141.0140 C   0  0  0  0  0  2  0  0  0  0  0  0
  188.4650  178.9950  139.6280 O   0  0  0  0  0  0  0  0  0  0  0  0
  189.5010  178.2020  139.1350 C   0  0  0  0  0  1  0  0  0  0  0  0
  1 12  1  0  0  0  0
  1 13  1  0  0  0  0
  4 11  1  0  0  0  0
  5  1  2  0  0  0  0
  7 14  1  0  0  0  0
  8  6  1  0  0  0  0
  9  3  1  1  0  0  0
  9  5  1  0  0  0  0
  9  7  1  0  0  0  0
 10  4  2  0  0  0  0
 10  5  1  0  0  0  0
 11 12  2  0  0  0  0
 13  8  2  0  0  0  0
 14 13  1  0  0  0  0
 14  2  2  0  0  0  0
 15  4  1  0  0  0  0
 16 15  2  0  0  0  0
 17 19  1  0  0  0  0
 17 16  1  0  0  0  0
 19 18  1  1  0  0  0
 19 20  1  0  0  0  0
 20 22  1  0  0  0  0
 22 21  1  0  0  0  0
 23 22  2  0  0  0  0
 24 15  1  0  0  0  0
 25 26  1  0  0  0  0
 26 24  1  0  0  0  0
 27 26  2  0  0  0  0
 29 28  1  1  0  0  0
 29 10  1  0  0  0  0
 30 29  1  0  0  0  0
 31 30  1  0  0  0  0
 32 31  1  0  0  0  0
M  END
>  <MODEL>
3

>  <REMARK>
 VINA RESULT:      -7.7      2.467      3.848
  Name = 
  10 active torsions:
  status: ('A' for Active; 'I' for Inactive)
    1  A    between atoms: C_1  and  C_11
    2  A    between atoms: C_1  and  O_30
    3  A    between atoms: C_3  and  C_5
    4  A    between atoms: C_3  and  C_8
    5  A    between atoms: O_4  and  C_24
    6  A    between atoms: C_5  and  C_25
    7  A    between atoms: C_12  and  C_25
    8  A    between atoms: C_20  and  C_29
    9  A    between atoms: C_24  and  C_29
   10  A    between atoms: C_26  and  O_30
                            x       y       z     vdW  Elec       q    Type
                         _______ _______ _______ _____ _____    ______ ____

>  <TORSDO>
F 10

$$$$
=
 OpenBabel10222416323D

 32 33  0  0  1  0  0  0  0  0999 V2000
  188.0720  177.6990  145.7560 C   0  0  0  0  0  0  0  0  0  0  0  0
  191.1550  176.2070  147.1170 O   0  0  0  0  0  0  0  0  0  0  0  0
  190.4910  178.5700  143.6480 C   0  0  0  0  0  1  0  0  0  0  0  0
  186.0090  178.0090  143.8530 C   0  0  0  0  0  0  0  0  0  0  0  0
  188.3510  177.5390  144.3750 C   0  0  0  0  0  0  0  0  0  0  0  0
  188.0180  178.6350  148.6830 C   0  0  0  0  0  1  0  0  0  0  0  0
  190.5100  176.4830  144.9010 N   0  0  0  0  0  2  0  0  0  0  0  0
  189.1080  177.8410  148.0470 C   0  0  0  0  0  3  0  0  0  0  0  0
  189.7670  177.2620  143.9160 C   0  0  2  0  0  3  0  0  0  0  0  0
  187.3230  177.7070  143.4170 C   0  0  0  0  0  0  0  0  0  0  0  0
  185.7490  178.1640  145.2160 C   0  0  0  0  0  3  0  0  0  0  0  0
  186.7650  178.0040  146.1520 C   0  0  0  0  0  3  0  0  0  0  0  0
  189.1470  177.4450  146.7630 C   0  0  0  0  0  0  0  0  0  0  0  0
  190.3260  176.6920  146.3010 C   0  0  0  0  0  0  0  0  0  0  0  0
  184.8820  178.1750  142.9170 C   0  0  0  0  0  0  0  0  0  0  0  0
  183.7500  178.7030  143.3830 C   0  0  0  0  0  3  0  0  0  0  0  0
  182.5430  178.9140  142.5260 C   0  0  0  0  0  2  0  0  0  0  0  0
  181.2210  178.8880  144.5130 O   0  0  0  0  0  1  0  0  0  0  0  0
  181.2910  178.3880  143.2100 C   0  0  1  0  0  3  0  0  0  0  0  0
  180.0700  178.8250  142.4230 C   0  0  0  0  0  2  0  0  0  0  0  0
  180.0240  178.1570  139.9900 N   0  0  0  0  0  1  0  0  0  0  0  0
  179.7580  177.8390  141.3500 C   0  0  0  0  0  0  0  0  0  0  0  0
  179.2780  176.7140  141.6500 O   0  0  0  0  0  0  0  0  0  0  0  0
  184.9650  177.8040  141.5620 O   0  0  0  0  0  0  0  0  0  0  0  0
  185.0410  179.7380  140.2740 O   0  0  0  0  0  1  0  0  0  0  0  0
  184.5730  178.5840  140.4650 C   0  0  0  0  0  0  0  0  0  0  0  0
  183.6610  178.0630  139.5570 O   0  0  0  0  0  0  0  0  0  0  0  0
  188.5380  176.5150  141.7360 F   0  0  0  0  0  0  0  0  0  0  0  0
  187.6570  177.5590  141.9530 C   0  0  2  0  0  3  0  0  0  0  0  0
  188.1910  178.8560  141.3700 C   0  0  0  0  0  2  0  0  0  0  0  0
  189.0000  178.5810  140.2680 O   0  0  0  0  0  0  0  0  0  0  0  0
  188.1020  178.2650  139.2480 C   0  0  0  0  0  1  0  0  0  0  0  0
  1 12  1  0  0  0  0
  1 13  1  0  0  0  0
  4 11  1  0  0  0  0
  5  1  2  0  0  0  0
  7 14  1  0  0  0  0
  8  6  1  0  0  0  0
  9  3  1  1  0  0  0
  9  5  1  0  0  0  0
  9  7  1  0  0  0  0
 10  4  2  0  0  0  0
 10  5  1  0  0  0  0
 11 12  2  0  0  0  0
 13  8  2  0  0  0  0
 14 13  1  0  0  0  0
 14  2  2  0  0  0  0
 15 16  2  0  0  0  0
 15  4  1  0  0  0  0
 17 19  1  0  0  0  0
 17 16  1  0  0  0  0
 19 18  1  1  0  0  0
 20 19  1  0  0  0  0
 21 22  1  0  0  0  0
 22 23  2  0  0  0  0
 22 20  1  0  0  0  0
 24 15  1  0  0  0  0
 25 26  1  0  0  0  0
 26 24  1  0  0  0  0
 27 26  2  0  0  0  0
 29 28  1  1  0  0  0
 29 10  1  0  0  0  0
 30 29  1  0  0  0  0
 31 30  1  0  0  0  0
 32 31  1  0  0  0  0
M  END
>  <MODEL>
4

>  <REMARK>
 VINA RESULT:      -7.5      2.254      3.545
  Name = 
  10 active torsions:
  status: ('A' for Active; 'I' for Inactive)
    1  A    between atoms: C_1  and  C_11
    2  A    between atoms: C_1  and  O_30
    3  A    between atoms: C_3  and  C_5
    4  A    between atoms: C_3  and  C_8
    5  A    between atoms: O_4  and  C_24
    6  A    between atoms: C_5  and  C_25
    7  A    between atoms: C_12  and  C_25
    8  A    between atoms: C_20  and  C_29
    9  A    between atoms: C_24  and  C_29
   10  A    between atoms: C_26  and  O_30
                            x       y       z     vdW  Elec       q    Type
                         _______ _______ _______ _____ _____    ______ ____

>  <TORSDO>
F 10

$$$$
=
 OpenBabel10222416323D

 32 33  0  0  1  0  0  0  0  0999 V2000
  190.2580  177.1240  140.1810 C   0  0  0  0  0  0  0  0  0  0  0  0
  193.8880  177.1760  139.5420 O   0  0  0  0  0  0  0  0  0  0  0  0
  191.6810  176.1960  143.0390 C   0  0  0  0  0  1  0  0  0  0  0  0
  187.8680  177.9940  141.4050 C   0  0  0  0  0  0  0  0  0  0  0  0
  190.2730  177.5740  141.5250 C   0  0  0  0  0  0  0  0  0  0  0  0
  190.4950  175.4640  137.6050 C   0  0  0  0  0  1  0  0  0  0  0  0
  192.7270  177.7410  141.4750 N   0  0  0  0  0  2  0  0  0  0  0  0
  191.6360  176.0400  138.3740 C   0  0  0  0  0  3  0  0  0  0  0  0
  191.5590  177.5300  142.3240 C   0  0  2  0  0  3  0  0  0  0  0  0
  189.0750  177.9980  142.1470 C   0  0  0  0  0  0  0  0  0  0  0  0
  187.8680  177.5490  140.0830 C   0  0  0  0  0  3  0  0  0  0  0  0
  189.0470  177.1260  139.4790 C   0  0  0  0  0  3  0  0  0  0  0  0
  191.5410  176.7490  139.5100 C   0  0  0  0  0  0  0  0  0  0  0  0
  192.7840  177.2130  140.1510 C   0  0  0  0  0  0  0  0  0  0  0  0
  186.5850  178.4450  141.9780 C   0  0  0  0  0  0  0  0  0  0  0  0
  186.1900  177.9080  143.1330 C   0  0  0  0  0  3  0  0  0  0  0  0
  184.9070  178.2860  143.8030 C   0  0  0  0  0  2  0  0  0  0  0  0
  183.9610  179.0030  145.8730 O   0  0  0  0  0  1  0  0  0  0  0  0
  185.1670  178.8750  145.1800 C   0  0  1  0  0  3  0  0  0  0  0  0
  186.1070  177.9620  145.9450 C   0  0  0  0  0  2  0  0  0  0  0  0
  187.4290  177.9250  148.0940 N   0  0  0  0  0  1  0  0  0  0  0  0
  186.5110  178.5890  147.2360 C   0  0  0  0  0  0  0  0  0  0  0  0
  186.0550  179.7180  147.5560 O   0  0  0  0  0  0  0  0  0  0  0  0
  185.7800  179.4150  141.3550 O   0  0  0  0  0  0  0  0  0  0  0  0
  184.9250  179.7530  139.2200 O   0  0  0  0  0  0  0  0  0  0  0  0
  184.8390  179.1850  140.3410 C   0  0  0  0  0  0  0  0  0  0  0  0
  183.8000  178.2950  140.5730 O   0  0  0  0  0  1  0  0  0  0  0  0
  190.1180  179.3750  143.8020 F   0  0  0  0  0  0  0  0  0  0  0  0
  189.1170  178.4440  143.5880 C   0  0  2  0  0  3  0  0  0  0  0  0
  189.2580  177.2630  144.5330 C   0  0  0  0  0  2  0  0  0  0  0  0
  189.6320  177.7120  145.7990 O   0  0  0  0  0  0  0  0  0  0  0  0
  190.4600  176.7040  146.2940 C   0  0  0  0  0  1  0  0  0  0  0  0
  1  5  1  0  0  0  0
  2 14  2  0  0  0  0
  4 15  1  0  0  0  0
  4 10  1  0  0  0  0
  5 10  2  0  0  0  0
  5  9  1  0  0  0  0
  6  8  1  0  0  0  0
  7  9  1  0  0  0  0
  8 13  2  0  0  0  0
  9  3  1  6  0  0  0
 10 29  1  0  0  0  0
 11  4  2  0  0  0  0
 12 11  1  0  0  0  0
 12  1  2  0  0  0  0
 13 14  1  0  0  0  0
 13  1  1  0  0  0  0
 14  7  1  0  0  0  0
 15 16  2  0  0  0  0
 16 17  1  0  0  0  0
 17 19  1  0  0  0  0
 19 18  1  1  0  0  0
 19 20  1  0  0  0  0
 20 22  1  0  0  0  0
 22 23  2  0  0  0  0
 22 21  1  0  0  0  0
 24 15  1  0  0  0  0
 25 26  2  0  0  0  0
 26 27  1  0  0  0  0
 26 24  1  0  0  0  0
 29 28  1  6  0  0  0
 29 30  1  0  0  0  0
 30 31  1  0  0  0  0
 31 32  1  0  0  0  0
M  END
>  <MODEL>
5

>  <REMARK>
 VINA RESULT:      -7.3      2.360      5.941
  Name = 
  10 active torsions:
  status: ('A' for Active; 'I' for Inactive)
    1  A    between atoms: C_1  and  C_11
    2  A    between atoms: C_1  and  O_30
    3  A    between atoms: C_3  and  C_5
    4  A    between atoms: C_3  and  C_8
    5  A    between atoms: O_4  and  C_24
    6  A    between atoms: C_5  and  C_25
    7  A    between atoms: C_12  and  C_25
    8  A    between atoms: C_20  and  C_29
    9  A    between atoms: C_24  and  C_29
   10  A    between atoms: C_26  and  O_30
                            x       y       z     vdW  Elec       q    Type
                         _______ _______ _______ _____ _____    ______ ____

>  <TORSDO>
F 10

$$$$
=
 OpenBabel10222416323D

 32 33  0  0  1  0  0  0  0  0999 V2000
  187.4590  177.9250  144.3790 C   0  0  0  0  0  0  0  0  0  0  0  0
  189.5100  176.4250  147.0480 O   0  0  0  0  0  0  0  0  0  0  0  0
  190.5240  179.1310  143.9320 C   0  0  0  0  0  1  0  0  0  0  0  0
  186.6680  178.3570  141.7030 C   0  0  0  0  0  0  0  0  0  0  0  0
  188.4290  177.9340  143.3450 C   0  0  0  0  0  0  0  0  0  0  0  0
  185.8000  178.5240  146.8960 C   0  0  0  0  0  1  0  0  0  0  0  0
  190.0890  176.9200  144.8520 N   0  0  0  0  0  2  0  0  0  0  0  0
  187.1330  177.8550  146.8750 C   0  0  0  0  0  3  0  0  0  0  0  0
  189.8960  177.7720  143.6820 C   0  0  2  0  0  3  0  0  0  0  0  0
  188.0380  178.1640  142.0040 C   0  0  0  0  0  0  0  0  0  0  0  0
  185.7240  178.3470  142.7310 C   0  0  0  0  0  3  0  0  0  0  0  0
  186.1130  178.1270  144.0470 C   0  0  0  0  0  3  0  0  0  0  0  0
  187.8710  177.6070  145.7800 C   0  0  0  0  0  0  0  0  0  0  0  0
  189.1840  176.9620  145.9550 C   0  0  0  0  0  0  0  0  0  0  0  0
  186.1820  178.5780  140.3280 C   0  0  0  0  0  0  0  0  0  0  0  0
  186.5530  177.7110  139.3840 C   0  0  0  0  0  3  0  0  0  0  0  0
  186.1250  177.8370  137.9570 C   0  0  0  0  0  2  0  0  0  0  0  0
  188.0150  179.1500  137.3300 O   0  0  0  0  0  1  0  0  0  0  0  0
  187.3280  177.9700  137.0380 C   0  0  1  0  0  3  0  0  0  0  0  0
  188.2440  176.7760  137.2370 C   0  0  0  0  0  2  0  0  0  0  0  0
  190.7480  176.7430  136.9270 N   0  0  0  0  0  1  0  0  0  0  0  0
  189.4490  176.8900  136.3680 C   0  0  0  0  0  0  0  0  0  0  0  0
  189.3160  177.0940  135.1330 O   0  0  0  0  0  0  0  0  0  0  0  0
  185.3460  179.6550  139.9850 O   0  0  0  0  0  0  0  0  0  0  0  0
  183.4470  180.4440  138.9010 O   0  0  0  0  0  0  0  0  0  0  0  0
  183.9920  179.5720  139.6290 C   0  0  0  0  0  0  0  0  0  0  0  0
  183.2410  178.4940  140.0740 O   0  0  0  0  0  1  0  0  0  0  0  0
  188.8370  179.1760  139.9890 F   0  0  0  0  0  0  0  0  0  0  0  0
  189.0970  178.1950  140.9300 C   0  0  2  0  0  3  0  0  0  0  0  0
  189.2620  176.8360  140.2710 C   0  0  0  0  0  2  0  0  0  0  0  0
  190.5220  176.3170  140.5670 O   0  0  0  0  0  0  0  0  0  0  0  0
  191.3950  177.3860  140.3670 C   0  0  0  0  0  1  0  0  0  0  0  0
  1 13  1  0  0  0  0
  4 10  2  0  0  0  0
  4 11  1  0  0  0  0
  5  9  1  0  0  0  0
  5  1  2  0  0  0  0
  7 14  1  0  0  0  0
  8  6  1  0  0  0  0
  9  3  1  1  0  0  0
  9  7  1  0  0  0  0
 10  5  1  0  0  0  0
 11 12  2  0  0  0  0
 12  1  1  0  0  0  0
 13 14  1  0  0  0  0
 13  8  2  0  0  0  0
 14  2  2  0  0  0  0
 15  4  1  0  0  0  0
 16 15  2  0  0  0  0
 17 16  1  0  0  0  0
 19 20  1  0  0  0  0
 19 18  1  1  0  0  0
 19 17  1  0  0  0  0
 22 21  1  0  0  0  0
 22 20  1  0  0  0  0
 23 22  2  0  0  0  0
 24 15  1  0  0  0  0
 25 26  2  0  0  0  0
 26 24  1  0  0  0  0
 26 27  1  0  0  0  0
 29 28  1  6  0  0  0
 29 10  1  0  0  0  0
 30 31  1  0  0  0  0
 30 29  1  0  0  0  0
 32 31  1  0  0  0  0
M  END
>  <MODEL>
6

>  <REMARK>
 VINA RESULT:      -7.0      2.053      2.938
  Name = 
  10 active torsions:
  status: ('A' for Active; 'I' for Inactive)
    1  A    between atoms: C_1  and  C_11
    2  A    between atoms: C_1  and  O_30
    3  A    between atoms: C_3  and  C_5
    4  A    between atoms: C_3  and  C_8
    5  A    between atoms: O_4  and  C_24
    6  A    between atoms: C_5  and  C_25
    7  A    between atoms: C_12  and  C_25
    8  A    between atoms: C_20  and  C_29
    9  A    between atoms: C_24  and  C_29
   10  A    between atoms: C_26  and  O_30
                            x       y       z     vdW  Elec       q    Type
                         _______ _______ _______ _____ _____    ______ ____

>  <TORSDO>
F 10

$$$$
=
 OpenBabel10222416323D

 32 33  0  0  1  0  0  0  0  0999 V2000
  187.2690  178.1750  140.0950 C   0  0  0  0  0  0  0  0  0  0  0  0
  188.9890  179.1580  136.9870 O   0  0  0  0  0  0  0  0  0  0  0  0
  190.0210  176.3130  139.9700 C   0  0  0  0  0  1  0  0  0  0  0  0
  186.9860  177.9480  142.8950 C   0  0  0  0  0  0  0  0  0  0  0  0
  188.4100  177.9550  140.9080 C   0  0  0  0  0  0  0  0  0  0  0  0
  185.0280  177.9490  138.0050 C   0  0  0  0  0  1  0  0  0  0  0  0
  189.8960  178.5600  139.0420 N   0  0  0  0  0  2  0  0  0  0  0  0
  186.4480  178.3020  137.7180 C   0  0  0  0  0  3  0  0  0  0  0  0
  189.7720  177.7800  140.2700 C   0  0  2  0  0  3  0  0  0  0  0  0
  188.2710  177.8270  142.3100 C   0  0  0  0  0  0  0  0  0  0  0  0
  185.8720  178.1650  142.0830 C   0  0  0  0  0  3  0  0  0  0  0  0
  186.0140  178.2830  140.7040 C   0  0  0  0  0  3  0  0  0  0  0  0
  187.4360  178.3830  138.6240 C   0  0  0  0  0  0  0  0  0  0  0  0
  188.7920  178.7150  138.1510 C   0  0  0  0  0  0  0  0  0  0  0  0
  186.7660  177.8510  144.3500 C   0  0  0  0  0  0  0  0  0  0  0  0
  187.8300  177.9060  145.1520 C   0  0  0  0  0  3  0  0  0  0  0  0
  187.7270  177.8150  146.6410 C   0  0  0  0  0  2  0  0  0  0  0  0
  188.9780  178.4500  148.5710 O   0  0  0  0  0  1  0  0  0  0  0  0
  189.0990  177.9110  147.2880 C   0  0  1  0  0  3  0  0  0  0  0  0
  189.7130  176.5250  147.3660 C   0  0  0  0  0  2  0  0  0  0  0  0
  191.6890  177.4820  146.1230 N   0  0  0  0  0  1  0  0  0  0  0  0
  191.1770  176.5850  147.1000 C   0  0  0  0  0  0  0  0  0  0  0  0
  191.9660  175.8550  147.7560 O   0  0  0  0  0  0  0  0  0  0  0  0
  185.4840  177.7110  144.9120 O   0  0  0  0  0  0  0  0  0  0  0  0
  184.4940  178.9090  146.6410 O   0  0  0  0  0  1  0  0  0  0  0  0
  184.6780  178.7470  145.4050 C   0  0  0  0  0  0  0  0  0  0  0  0
  184.0840  179.6260  144.5100 O   0  0  0  0  0  0  0  0  0  0  0  0
  190.5220  178.4430  142.8350 F   0  0  0  0  0  0  0  0  0  0  0  0
  189.4990  177.5650  143.1460 C   0  0  2  0  0  3  0  0  0  0  0  0
  189.9600  176.1230  143.0220 C   0  0  0  0  0  2  0  0  0  0  0  0
  191.3530  176.0670  143.0440 O   0  0  0  0  0  0  0  0  0  0  0  0
  191.6450  175.0030  143.8960 C   0  0  0  0  0  1  0  0  0  0  0  0
  1 12  2  0  0  0  0
  1  5  1  0  0  0  0
  2 14  2  0  0  0  0
  4 15  1  0  0  0  0
  5 10  2  0  0  0  0
  7  9  1  0  0  0  0
  8  6  1  0  0  0  0
  8 13  2  0  0  0  0
  9  3  1  6  0  0  0
  9  5  1  0  0  0  0
 10  4  1  0  0  0  0
 10 29  1  0  0  0  0
 11  4  2  0  0  0  0
 12 11  1  0  0  0  0
 13  1  1  0  0  0  0
 14 13  1  0  0  0  0
 14  7  1  0  0  0  0
 15 24  1  0  0  0  0
 15 16  2  0  0  0  0
 16 17  1  0  0  0  0
 17 19  1  0  0  0  0
 19 20  1  0  0  0  0
 19 18  1  1  0  0  0
 21 22  1  0  0  0  0
 22 20  1  0  0  0  0
 22 23  2  0  0  0  0
 24 26  1  0  0  0  0
 26 25  1  0  0  0  0
 27 26  2  0  0  0  0
 29 28  1  6  0  0  0
 30 31  1  0  0  0  0
 30 29  1  0  0  0  0
 31 32  1  0  0  0  0
M  END
>  <MODEL>
7

>  <REMARK>
 VINA RESULT:      -6.8      2.002      6.696
  Name = 
  10 active torsions:
  status: ('A' for Active; 'I' for Inactive)
    1  A    between atoms: C_1  and  C_11
    2  A    between atoms: C_1  and  O_30
    3  A    between atoms: C_3  and  C_5
    4  A    between atoms: C_3  and  C_8
    5  A    between atoms: O_4  and  C_24
    6  A    between atoms: C_5  and  C_25
    7  A    between atoms: C_12  and  C_25
    8  A    between atoms: C_20  and  C_29
    9  A    between atoms: C_24  and  C_29
   10  A    between atoms: C_26  and  O_30
                            x       y       z     vdW  Elec       q    Type
                         _______ _______ _______ _____ _____    ______ ____

>  <TORSDO>
F 10

$$$$
=
 OpenBabel10222416323D

 32 33  0  0  1  0  0  0  0  0999 V2000
  189.5060  177.4170  141.2090 C   0  0  0  0  0  0  0  0  0  0  0  0
  193.0690  177.5720  140.2790 O   0  0  0  0  0  0  0  0  0  0  0  0
  191.1460  175.9730  143.7140 C   0  0  0  0  0  1  0  0  0  0  0  0
  187.2450  178.0560  142.7740 C   0  0  0  0  0  0  0  0  0  0  0  0
  189.6430  177.6110  142.6060 C   0  0  0  0  0  0  0  0  0  0  0  0
  189.4920  176.2600  138.3610 C   0  0  0  0  0  1  0  0  0  0  0  0
  192.0870  177.7750  142.3760 N   0  0  0  0  0  2  0  0  0  0  0  0
  190.7050  176.6790  139.1210 C   0  0  0  0  0  3  0  0  0  0  0  0
  190.9900  177.4160  143.2700 C   0  0  2  0  0  3  0  0  0  0  0  0
  188.5100  177.9180  143.3970 C   0  0  0  0  0  0  0  0  0  0  0  0
  187.1250  177.8620  141.3970 C   0  0  0  0  0  3  0  0  0  0  0  0
  188.2400  177.5540  140.6260 C   0  0  0  0  0  3  0  0  0  0  0  0
  190.7200  177.1670  140.3730 C   0  0  0  0  0  0  0  0  0  0  0  0
  192.0220  177.5000  140.9770 C   0  0  0  0  0  0  0  0  0  0  0  0
  186.0240  178.3980  143.5280 C   0  0  0  0  0  0  0  0  0  0  0  0
  185.1580  179.2450  142.9690 C   0  0  0  0  0  3  0  0  0  0  0  0
  183.8900  179.6650  143.6420 C   0  0  0  0  0  2  0  0  0  0  0  0
  183.0000  178.2240  141.9610 O   0  0  0  0  0  1  0  0  0  0  0  0
  182.6790  179.2930  142.8020 C   0  0  1  0  0  3  0  0  0  0  0  0
  181.5350  178.9020  143.7180 C   0  0  0  0  0  2  0  0  0  0  0  0
  179.2050  178.4460  142.8620 N   0  0  0  0  0  1  0  0  0  0  0  0
  180.2350  179.3780  143.1660 C   0  0  0  0  0  0  0  0  0  0  0  0
  180.0400  180.6090  142.9880 O   0  0  0  0  0  0  0  0  0  0  0  0
  185.7450  177.8620  144.7970 O   0  0  0  0  0  0  0  0  0  0  0  0
  184.4430  178.2240  146.6890 O   0  0  0  0  0  1  0  0  0  0  0  0
  185.3920  178.5870  145.9440 C   0  0  0  0  0  0  0  0  0  0  0  0
  186.1170  179.7230  146.2750 O   0  0  0  0  0  0  0  0  0  0  0  0
  189.8370  178.7910  145.1850 F   0  0  0  0  0  0  0  0  0  0  0  0
  188.6820  178.0910  144.8850 C   0  0  2  0  0  3  0  0  0  0  0  0
  188.6500  176.7550  145.6090 C   0  0  0  0  0  2  0  0  0  0  0  0
  189.3350  176.8560  146.8190 O   0  0  0  0  0  0  0  0  0  0  0  0
  188.3780  177.3210  147.7210 C   0  0  0  0  0  1  0  0  0  0  0  0
  1  5  1  0  0  0  0
  2 14  2  0  0  0  0
  4 10  1  0  0  0  0
  4 15  1  0  0  0  0
  5  9  1  0  0  0  0
  5 10  2  0  0  0  0
  6  8  1  0  0  0  0
  7  9  1  0  0  0  0
  8 13  2  0  0  0  0
  9  3  1  6  0  0  0
 10 29  1  0  0  0  0
 11  4  2  0  0  0  0
 12  1  2  0  0  0  0
 12 11  1  0  0  0  0
 13 14  1  0  0  0  0
 13  1  1  0  0  0  0
 14  7  1  0  0  0  0
 15 24  1  0  0  0  0
 16 15  2  0  0  0  0
 16 17  1  0  0  0  0
 19 18  1  6  0  0  0
 19 17  1  0  0  0  0
 19 20  1  0  0  0  0
 21 22  1  0  0  0  0
 22 20  1  0  0  0  0
 23 22  2  0  0  0  0
 24 26  1  0  0  0  0
 26 27  2  0  0  0  0
 26 25  1  0  0  0  0
 29 28  1  6  0  0  0
 29 30  1  0  0  0  0
 30 31  1  0  0  0  0
 31 32  1  0  0  0  0
M  END
>  <MODEL>
8

>  <REMARK>
 VINA RESULT:      -6.6      2.664      5.237
  Name = 
  10 active torsions:
  status: ('A' for Active; 'I' for Inactive)
    1  A    between atoms: C_1  and  C_11
    2  A    between atoms: C_1  and  O_30
    3  A    between atoms: C_3  and  C_5
    4  A    between atoms: C_3  and  C_8
    5  A    between atoms: O_4  and  C_24
    6  A    between atoms: C_5  and  C_25
    7  A    between atoms: C_12  and  C_25
    8  A    between atoms: C_20  and  C_29
    9  A    between atoms: C_24  and  C_29
   10  A    between atoms: C_26  and  O_30
                            x       y       z     vdW  Elec       q    Type
                         _______ _______ _______ _____ _____    ______ ____

>  <TORSDO>
F 10

$$$$
=
 OpenBabel10222416323D

 32 33  0  0  1  0  0  0  0  0999 V2000
  187.1580  178.0520  143.1220 C   0  0  0  0  0  0  0  0  0  0  0  0
  186.3140  177.1400  146.5920 O   0  0  0  0  0  0  0  0  0  0  0  0
  189.9900  178.3510  144.8370 C   0  0  0  0  0  1  0  0  0  0  0  0
  188.4500  177.7130  140.6340 C   0  0  0  0  0  0  0  0  0  0  0  0
  188.4640  177.5030  143.0700 C   0  0  0  0  0  0  0  0  0  0  0  0
  184.6960  179.8050  143.6810 C   0  0  0  0  0  1  0  0  0  0  0  0
  188.2650  176.7280  145.3970 N   0  0  0  0  0  2  0  0  0  0  0  0
  185.3570  178.9000  144.6640 C   0  0  0  0  0  3  0  0  0  0  0  0
  189.1900  177.1550  144.3520 C   0  0  2  0  0  3  0  0  0  0  0  0
  189.1210  177.3440  141.8270 C   0  0  0  0  0  0  0  0  0  0  0  0
  187.1640  178.2520  140.7000 C   0  0  0  0  0  3  0  0  0  0  0  0
  186.5260  178.4120  141.9260 C   0  0  0  0  0  3  0  0  0  0  0  0
  186.4440  178.1450  144.4320 C   0  0  0  0  0  0  0  0  0  0  0  0
  186.9800  177.3330  145.5390 C   0  0  0  0  0  0  0  0  0  0  0  0
  189.0600  177.5540  139.3010 C   0  0  0  0  0  0  0  0  0  0  0  0
  189.7060  176.4180  139.0370 C   0  0  0  0  0  3  0  0  0  0  0  0
  190.3650  176.1490  137.7210 C   0  0  0  0  0  2  0  0  0  0  0  0
  190.4590  173.7680  137.5930 O   0  0  0  0  0  1  0  0  0  0  0  0
  191.2400  174.9080  137.7950 C   0  0  1  0  0  3  0  0  0  0  0  0
  192.3170  174.9920  136.7290 C   0  0  0  0  0  2  0  0  0  0  0  0
  194.4770  174.6920  137.9990 N   0  0  0  0  0  1  0  0  0  0  0  0
  193.5780  175.5440  137.3010 C   0  0  0  0  0  0  0  0  0  0  0  0
  193.8580  176.7610  137.1460 O   0  0  0  0  0  0  0  0  0  0  0  0
  188.9760  178.5480  138.3090 O   0  0  0  0  0  0  0  0  0  0  0  0
  186.8310  178.7770  137.4430 O   0  0  0  0  0  1  0  0  0  0  0  0
  188.0610  178.5840  137.2480 C   0  0  0  0  0  0  0  0  0  0  0  0
  188.5250  178.4220  135.9500 O   0  0  0  0  0  0  0  0  0  0  0  0
  190.6810  175.7810  142.7450 F   0  0  0  0  0  0  0  0  0  0  0  0
  190.5210  176.7840  141.8060 C   0  0  2  0  0  3  0  0  0  0  0  0
  191.5610  177.8760  141.9910 C   0  0  0  0  0  2  0  0  0  0  0  0
  192.1530  178.1780  140.7650 O   0  0  0  0  0  0  0  0  0  0  0  0
  193.0430  177.1280  140.5410 C   0  0  0  0  0  1  0  0  0  0  0  0
  1 13  1  0  0  0  0
  4 11  2  0  0  0  0
  4 10  1  0  0  0  0
  5  1  1  0  0  0  0
  5  9  1  0  0  0  0
  6  8  1  0  0  0  0
  7 14  1  0  0  0  0
  9  3  1  1  0  0  0
  9  7  1  0  0  0  0
 10  5  2  0  0  0  0
 11 12  1  0  0  0  0
 12  1  2  0  0  0  0
 13  8  2  0  0  0  0
 13 14  1  0  0  0  0
 14  2  2  0  0  0  0
 15  4  1  0  0  0  0
 16 15  2  0  0  0  0
 17 19  1  0  0  0  0
 17 16  1  0  0  0  0
 19 18  1  6  0  0  0
 20 22  1  0  0  0  0
 20 19  1  0  0  0  0
 22 21  1  0  0  0  0
 23 22  2  0  0  0  0
 24 15  1  0  0  0  0
 26 25  1  0  0  0  0
 26 24  1  0  0  0  0
 27 26  2  0  0  0  0
 29 10  1  0  0  0  0
 29 30  1  0  0  0  0
 29 28  1  1  0  0  0
 31 30  1  0  0  0  0
 32 31  1  0  0  0  0
M  END
>  <MODEL>
9

>  <REMARK>
 VINA RESULT:      -6.6      3.083      5.842
  Name = 
  10 active torsions:
  status: ('A' for Active; 'I' for Inactive)
    1  A    between atoms: C_1  and  C_11
    2  A    between atoms: C_1  and  O_30
    3  A    between atoms: C_3  and  C_5
    4  A    between atoms: C_3  and  C_8
    5  A    between atoms: O_4  and  C_24
    6  A    between atoms: C_5  and  C_25
    7  A    between atoms: C_12  and  C_25
    8  A    between atoms: C_20  and  C_29
    9  A    between atoms: C_24  and  C_29
   10  A    between atoms: C_26  and  O_30
                            x       y       z     vdW  Elec       q    Type
                         _______ _______ _______ _____ _____    ______ ____

>  <TORSDO>
F 10

$$$$
