=
 OpenBabel10222421233D

 39 43  0  0  1  0  0  0  0  0999 V2000
  186.1600  178.3450  139.3400 C   0  0  0  0  0  0  0  0  0  0  0  0
  185.1910  179.0830  140.0600 C   0  0  0  0  0  0  0  0  0  0  0  0
  183.5190  178.5050  138.3890 C   0  0  0  0  0  3  0  0  0  0  0  0
  185.7800  177.6860  138.1640 C   0  0  0  0  0  3  0  0  0  0  0  0
  183.8780  179.1620  139.5680 C   0  0  0  0  0  3  0  0  0  0  0  0
  184.4680  177.7610  137.6900 C   0  0  0  0  0  3  0  0  0  0  0  0
  188.0980  179.1950  140.4410 O   0  0  0  0  0  0  0  0  0  0  0  0
  187.5760  178.2640  139.7720 C   0  0  0  0  0  0  0  0  0  0  0  0
  188.3670  177.1300  139.4200 N   0  0  0  0  0  2  0  0  0  0  0  0
  190.7790  176.8280  138.8070 C   0  0  0  0  0  0  0  0  0  0  0  0
  190.0700  175.1290  134.8770 C   0  0  0  0  0  2  0  0  0  0  0  0
  189.7270  177.0660  139.7560 N   0  0  0  0  0  2  0  0  0  0  0  0
  190.5320  176.5030  137.4210 N   0  0  0  0  0  0  0  0  0  0  0  0
  188.9910  175.2920  135.9540 C   0  0  1  0  0  3  0  0  0  0  0  0
  191.6730  176.1040  136.5840 C   0  0  0  0  0  2  0  0  0  0  0  0
  191.2970  176.0170  135.1050 C   0  0  0  0  0  2  0  0  0  0  0  0
  189.1830  176.5220  136.8520 C   0  0  2  0  0  3  0  0  0  0  0  0
  191.9680  176.8650  139.2240 O   0  0  0  0  0  0  0  0  0  0  0  0
  187.7150  175.2580  135.3910 O   0  0  0  0  0  1  0  0  0  0  0  0
  189.3810  178.9120  136.9000 O   0  0  0  0  0  1  0  0  0  0  0  0
  188.9350  177.8440  136.1230 C   0  0  0  0  0  2  0  0  0  0  0  0
  185.5390  179.7120  141.2610 O   0  0  0  0  0  0  0  0  0  0  0  0
  184.3880  177.9500  142.5020 C   0  0  0  0  0  2  0  0  0  0  0  0
  185.2720  179.1700  142.5500 C   0  0  1  0  0  0  0  0  0  0  0  0
  185.8610  177.8140  142.8880 C   0  0  1  0  0  3  0  0  0  0  0  0
  184.9260  180.0540  143.5780 O   0  0  0  0  0  1  0  0  0  0  0  0
  187.2400  177.7860  145.0050 C   0  0  0  0  0  0  0  0  0  0  0  0
  190.7510  177.2690  144.7500 C   0  0  0  0  0  0  0  0  0  0  0  0
  185.9900  177.6550  144.3300 N   0  0  0  0  0  2  0  0  0  0  0  0
  191.0260  177.2490  143.3900 O   0  0  0  0  0  1  0  0  0  0  0  0
  189.4840  177.8770  145.2710 C   0  0  2  0  0  3  0  0  0  0  0  0
  187.3490  177.6920  146.7960 S   0  0  0  0  0  0  0  0  0  0  0  0
  190.0620  177.3800  147.5820 C   0  0  0  0  0  2  0  0  0  0  0  0
  189.0390  177.1200  146.4930 C   0  0  2  0  0  3  0  0  0  0  0  0
  188.3610  177.8380  144.3630 N   0  0  0  0  0  0  0  0  0  0  0  0
  191.6600  176.8130  145.6260 C   0  0  0  0  0  3  0  0  0  0  0  0
  191.4300  176.8100  147.1360 C   0  0  2  0  0  3  0  0  0  0  0  0
  192.7890  175.5310  148.3410 C   0  0  0  0  0  1  0  0  0  0  0  0
  191.5820  175.5140  147.6370 O   0  0  0  0  0  0  0  0  0  0  0  0
  1  8  1  0  0  0  0
  1  2  1  0  0  0  0
  2 22  1  0  0  0  0
  3  5  1  0  0  0  0
  4  1  2  0  0  0  0
  5  2  2  0  0  0  0
  6  4  1  0  0  0  0
  6  3  2  0  0  0  0
  8  7  2  0  0  0  0
  9 12  1  0  0  0  0
  9  8  1  0  0  0  0
 10 18  2  0  0  0  0
 10 12  1  0  0  0  0
 11 16  1  0  0  0  0
 11 14  1  0  0  0  0
 13 10  1  0  0  0  0
 14 19  1  6  0  0  0
 14 17  1  0  0  0  0
 15 13  1  0  0  0  0
 16 15  1  0  0  0  0
 17 21  1  6  0  0  0
 17 13  1  0  0  0  0
 21 20  1  0  0  0  0
 22 24  1  0  0  0  0
 23 24  1  0  0  0  0
 23 25  1  0  0  0  0
 24 25  1  0  0  0  0
 24 26  1  1  0  0  0
 25 29  1  1  0  0  0
 27 32  1  0  0  0  0
 28 31  1  0  0  0  0
 28 36  2  0  0  0  0
 29 27  1  0  0  0  0
 30 28  1  0  0  0  0
 31 35  1  6  0  0  0
 31 34  1  0  0  0  0
 34 32  1  0  0  0  0
 34 33  1  1  0  0  0
 35 27  2  0  0  0  0
 36 37  1  0  0  0  0
 37 33  1  0  0  0  0
 37 39  1  6  0  0  0
 39 38  1  0  0  0  0
M  END
>  <MODEL>
1

>  <REMARK>
 VINA RESULT:      -8.7      0.000      0.000
  Name = 
  7 active torsions:
  status: ('A' for Active; 'I' for Inactive)
    1  A    between atoms: N_3  and  C_19
    2  A    between atoms: C_5  and  C_9
    3  A    between atoms: O_8  and  C_13
    4  A    between atoms: O_8  and  C_15
    5  A    between atoms: N_12  and  N_26
    6  A    between atoms: C_31  and  C_33
    7  A    between atoms: C_38  and  O_39
                            x       y       z     vdW  Elec       q    Type
                         _______ _______ _______ _____ _____    ______ ____

>  <TORSDO>
F 7

$$$$
=
 OpenBabel10222421233D

 39 43  0  0  1  0  0  0  0  0999 V2000
  186.9410  176.0830  137.0940 C   0  0  0  0  0  0  0  0  0  0  0  0
  188.3220  175.7760  137.1020 C   0  0  0  0  0  0  0  0  0  0  0  0
  187.7930  173.4120  136.8700 C   0  0  0  0  0  3  0  0  0  0  0  0
  186.0120  175.0420  136.9550 C   0  0  0  0  0  3  0  0  0  0  0  0
  188.7330  174.4370  137.0000 C   0  0  0  0  0  3  0  0  0  0  0  0
  186.4330  173.7150  136.8410 C   0  0  0  0  0  3  0  0  0  0  0  0
  186.6600  178.3390  136.3720 O   0  0  0  0  0  0  0  0  0  0  0  0
  186.4350  177.4660  137.2520 C   0  0  0  0  0  0  0  0  0  0  0  0
  185.6940  177.8280  138.4170 N   0  0  0  0  0  2  0  0  0  0  0  0
  183.8910  179.5430  138.7220 C   0  0  0  0  0  0  0  0  0  0  0  0
  180.6190  177.0600  137.3200 C   0  0  0  0  0  2  0  0  0  0  0  0
  185.2680  179.1480  138.6220 N   0  0  0  0  0  2  0  0  0  0  0  0
  182.7910  178.6320  138.4940 N   0  0  0  0  0  0  0  0  0  0  0  0
  182.1020  176.7220  137.1280 C   0  0  1  0  0  3  0  0  0  0  0  0
  181.4280  179.1830  138.4470 C   0  0  0  0  0  2  0  0  0  0  0  0
  180.3660  178.0840  138.4300 C   0  0  0  0  0  2  0  0  0  0  0  0
  183.0070  177.2010  138.2710 C   0  0  2  0  0  3  0  0  0  0  0  0
  183.6410  180.7510  138.9800 O   0  0  0  0  0  0  0  0  0  0  0  0
  182.2740  175.3620  136.8690 O   0  0  0  0  0  1  0  0  0  0  0  0
  183.1970  177.1970  140.6630 O   0  0  0  0  0  1  0  0  0  0  0  0
  182.7950  176.4260  139.5720 C   0  0  0  0  0  2  0  0  0  0  0  0
  189.2670  176.8050  137.1950 O   0  0  0  0  0  0  0  0  0  0  0  0
  189.4420  178.4880  138.9570 C   0  0  0  0  0  2  0  0  0  0  0  0
  189.9260  177.1730  138.4030 C   0  0  1  0  0  0  0  0  0  0  0  0
  189.1140  177.1820  139.6830 C   0  0  1  0  0  3  0  0  0  0  0  0
  191.3170  177.0350  138.4610 O   0  0  0  0  0  1  0  0  0  0  0  0
  189.4680  176.8000  142.1560 C   0  0  0  0  0  0  0  0  0  0  0  0
  186.8010  177.5330  144.3950 C   0  0  0  0  0  0  0  0  0  0  0  0
  189.9800  177.0200  140.8420 N   0  0  0  0  0  2  0  0  0  0  0  0
  185.7230  177.8710  143.5900 O   0  0  0  0  0  1  0  0  0  0  0  0
  187.9630  176.7620  143.8420 C   0  0  2  0  0  3  0  0  0  0  0  0
  190.5620  176.4950  143.5460 S   0  0  0  0  0  0  0  0  0  0  0  0
  189.1220  176.7550  145.9820 C   0  0  0  0  0  2  0  0  0  0  0  0
  189.2230  177.2020  144.5370 C   0  0  2  0  0  3  0  0  0  0  0  0
  188.2130  176.9490  142.4320 N   0  0  0  0  0  0  0  0  0  0  0  0
  186.7800  177.8240  145.7050 C   0  0  0  0  0  3  0  0  0  0  0  0
  187.9280  177.4760  146.6520 C   0  0  2  0  0  3  0  0  0  0  0  0
  188.9680  178.1880  148.4810 C   0  0  0  0  0  1  0  0  0  0  0  0
  188.3800  178.6330  147.2940 O   0  0  0  0  0  0  0  0  0  0  0  0
  1  2  1  0  0  0  0
  1  8  1  0  0  0  0
  2 22  1  0  0  0  0
  3  5  1  0  0  0  0
  4  1  2  0  0  0  0
  5  2  2  0  0  0  0
  6  3  2  0  0  0  0
  6  4  1  0  0  0  0
  7  8  2  0  0  0  0
  8  9  1  0  0  0  0
  9 12  1  0  0  0  0
 10 18  2  0  0  0  0
 11 16  1  0  0  0  0
 12 10  1  0  0  0  0
 13 10  1  0  0  0  0
 14 19  1  1  0  0  0
 14 11  1  0  0  0  0
 14 17  1  0  0  0  0
 15 13  1  0  0  0  0
 16 15  1  0  0  0  0
 17 13  1  0  0  0  0
 17 21  1  1  0  0  0
 21 20  1  0  0  0  0
 22 24  1  0  0  0  0
 23 25  1  0  0  0  0
 24 26  1  1  0  0  0
 24 23  1  0  0  0  0
 24 25  1  0  0  0  0
 25 29  1  1  0  0  0
 27 35  2  0  0  0  0
 27 32  1  0  0  0  0
 28 36  2  0  0  0  0
 29 27  1  0  0  0  0
 30 28  1  0  0  0  0
 31 35  1  6  0  0  0
 31 28  1  0  0  0  0
 31 34  1  0  0  0  0
 32 34  1  0  0  0  0
 33 37  1  0  0  0  0
 34 33  1  1  0  0  0
 36 37  1  0  0  0  0
 37 39  1  6  0  0  0
 39 38  1  0  0  0  0
M  END
>  <MODEL>
2

>  <REMARK>
 VINA RESULT:      -8.3      2.687      6.080
  Name = 
  7 active torsions:
  status: ('A' for Active; 'I' for Inactive)
    1  A    between atoms: N_3  and  C_19
    2  A    between atoms: C_5  and  C_9
    3  A    between atoms: O_8  and  C_13
    4  A    between atoms: O_8  and  C_15
    5  A    between atoms: N_12  and  N_26
    6  A    between atoms: C_31  and  C_33
    7  A    between atoms: C_38  and  O_39
                            x       y       z     vdW  Elec       q    Type
                         _______ _______ _______ _____ _____    ______ ____

>  <TORSDO>
F 7

$$$$
=
 OpenBabel10222421233D

 39 43  0  0  1  0  0  0  0  0999 V2000
  184.9050  178.5720  139.0670 C   0  0  0  0  0  0  0  0  0  0  0  0
  184.3320  179.1910  140.2030 C   0  0  0  0  0  0  0  0  0  0  0  0
  182.1180  178.9070  139.2340 C   0  0  0  0  0  3  0  0  0  0  0  0
  184.0650  178.1160  138.0430 C   0  0  0  0  0  3  0  0  0  0  0  0
  182.9390  179.3610  140.2680 C   0  0  0  0  0  3  0  0  0  0  0  0
  182.6800  178.2790  138.1240 C   0  0  0  0  0  3  0  0  0  0  0  0
  187.1200  178.3110  139.9150 O   0  0  0  0  0  0  0  0  0  0  0  0
  186.3690  178.4090  138.9080 C   0  0  0  0  0  0  0  0  0  0  0  0
  186.9470  178.3730  137.6030 N   0  0  0  0  0  2  0  0  0  0  0  0
  189.0100  177.1660  136.8470 C   0  0  0  0  0  0  0  0  0  0  0  0
  187.1740  173.2510  136.4820 C   0  0  0  0  0  2  0  0  0  0  0  0
  188.3360  178.2930  137.4290 N   0  0  0  0  0  2  0  0  0  0  0  0
  188.3330  175.9390  136.4930 N   0  0  0  0  0  0  0  0  0  0  0  0
  186.5280  174.4430  137.1980 C   0  0  1  0  0  3  0  0  0  0  0  0
  189.1470  174.7900  136.0720 C   0  0  0  0  0  2  0  0  0  0  0  0
  188.2910  173.6530  135.5150 C   0  0  0  0  0  2  0  0  0  0  0  0
  186.8780  175.8070  136.5850 C   0  0  2  0  0  3  0  0  0  0  0  0
  190.2570  177.2470  136.6790 O   0  0  0  0  0  0  0  0  0  0  0  0
  185.1490  174.2680  137.3140 O   0  0  0  0  0  1  0  0  0  0  0  0
  185.1110  176.8420  135.3350 O   0  0  0  0  0  1  0  0  0  0  0  0
  186.2390  176.0300  135.2130 C   0  0  0  0  0  2  0  0  0  0  0  0
  185.1500  179.6140  141.2580 O   0  0  0  0  0  0  0  0  0  0  0  0
  184.1360  177.9370  142.7170 C   0  0  0  0  0  2  0  0  0  0  0  0
  185.0250  179.1480  142.5980 C   0  0  1  0  0  0  0  0  0  0  0  0
  185.6420  177.8070  142.9450 C   0  0  1  0  0  3  0  0  0  0  0  0
  184.7990  180.0930  143.6040 O   0  0  0  0  0  1  0  0  0  0  0  0
  187.2550  177.8200  144.8910 C   0  0  0  0  0  0  0  0  0  0  0  0
  190.6770  177.0630  144.2770 C   0  0  0  0  0  0  0  0  0  0  0  0
  185.9290  177.7280  144.3710 N   0  0  0  0  0  2  0  0  0  0  0  0
  190.7890  176.9430  142.8990 O   0  0  0  0  0  1  0  0  0  0  0  0
  189.5150  177.7820  144.8950 C   0  0  2  0  0  3  0  0  0  0  0  0
  187.5660  177.8280  146.6600 S   0  0  0  0  0  0  0  0  0  0  0  0
  190.3300  177.3900  147.1550 C   0  0  0  0  0  2  0  0  0  0  0  0
  189.1740  177.1320  146.2080 C   0  0  2  0  0  3  0  0  0  0  0  0
  188.2940  177.7600  144.1240 N   0  0  0  0  0  0  0  0  0  0  0  0
  191.6540  176.6040  145.0740 C   0  0  0  0  0  3  0  0  0  0  0  0
  191.6020  176.7080  146.5970 C   0  0  2  0  0  3  0  0  0  0  0  0
  192.6760  175.5900  148.1890 C   0  0  0  0  0  1  0  0  0  0  0  0
  191.7380  175.4370  147.1650 O   0  0  0  0  0  0  0  0  0  0  0  0
  1  2  1  0  0  0  0
  2  5  2  0  0  0  0
  2 22  1  0  0  0  0
  3  5  1  0  0  0  0
  4  6  1  0  0  0  0
  4  1  2  0  0  0  0
  6  3  2  0  0  0  0
  8  1  1  0  0  0  0
  8  7  2  0  0  0  0
  9  8  1  0  0  0  0
 10 12  1  0  0  0  0
 11 14  1  0  0  0  0
 12  9  1  0  0  0  0
 13 17  1  0  0  0  0
 13 10  1  0  0  0  0
 14 19  1  6  0  0  0
 15 13  1  0  0  0  0
 16 15  1  0  0  0  0
 16 11  1  0  0  0  0
 17 21  1  6  0  0  0
 17 14  1  0  0  0  0
 18 10  2  0  0  0  0
 21 20  1  0  0  0  0
 22 24  1  0  0  0  0
 23 25  1  0  0  0  0
 24 23  1  0  0  0  0
 24 25  1  0  0  0  0
 24 26  1  1  0  0  0
 25 29  1  1  0  0  0
 27 32  1  0  0  0  0
 28 31  1  0  0  0  0
 28 36  2  0  0  0  0
 29 27  1  0  0  0  0
 30 28  1  0  0  0  0
 31 35  1  6  0  0  0
 31 34  1  0  0  0  0
 34 32  1  0  0  0  0
 34 33  1  1  0  0  0
 35 27  2  0  0  0  0
 36 37  1  0  0  0  0
 37 33  1  0  0  0  0
 37 39  1  1  0  0  0
 39 38  1  0  0  0  0
M  END
>  <MODEL>
3

>  <REMARK>
 VINA RESULT:      -8.0      1.508      2.015
  Name = 
  7 active torsions:
  status: ('A' for Active; 'I' for Inactive)
    1  A    between atoms: N_3  and  C_19
    2  A    between atoms: C_5  and  C_9
    3  A    between atoms: O_8  and  C_13
    4  A    between atoms: O_8  and  C_15
    5  A    between atoms: N_12  and  N_26
    6  A    between atoms: C_31  and  C_33
    7  A    between atoms: C_38  and  O_39
                            x       y       z     vdW  Elec       q    Type
                         _______ _______ _______ _____ _____    ______ ____

>  <TORSDO>
F 7

$$$$
=
 OpenBabel10222421233D

 39 43  0  0  1  0  0  0  0  0999 V2000
  185.6410  178.9300  140.0130 C   0  0  0  0  0  0  0  0  0  0  0  0
  186.0090  179.0750  141.3720 C   0  0  0  0  0  0  0  0  0  0  0  0
  188.1680  178.0620  140.8870 C   0  0  0  0  0  3  0  0  0  0  0  0
  186.5560  178.3680  139.1140 C   0  0  0  0  0  3  0  0  0  0  0  0
  187.2720  178.6270  141.7960 C   0  0  0  0  0  3  0  0  0  0  0  0
  187.8140  177.9380  139.5450 C   0  0  0  0  0  3  0  0  0  0  0  0
  184.1370  180.4480  138.9520 O   0  0  0  0  0  0  0  0  0  0  0  0
  184.3060  179.3300  139.5080 C   0  0  0  0  0  0  0  0  0  0  0  0
  183.1920  178.4520  139.6580 N   0  0  0  0  0  2  0  0  0  0  0  0
  181.2570  178.3550  138.0670 C   0  0  0  0  0  0  0  0  0  0  0  0
  183.4110  176.4760  134.8010 C   0  0  0  0  0  2  0  0  0  0  0  0
  181.9060  178.8380  139.2530 N   0  0  0  0  0  2  0  0  0  0  0  0
  181.9170  177.5110  137.0950 N   0  0  0  0  0  0  0  0  0  0  0  0
  184.0820  177.1020  136.0290 C   0  0  1  0  0  3  0  0  0  0  0  0
  181.2190  177.2230  135.8340 C   0  0  0  0  0  2  0  0  0  0  0  0
  181.9310  176.1460  135.0170 C   0  0  0  0  0  2  0  0  0  0  0  0
  183.2630  176.9810  137.3210 C   0  0  2  0  0  3  0  0  0  0  0  0
  180.0710  178.7240  137.8520 O   0  0  0  0  0  0  0  0  0  0  0  0
  185.3790  176.6160  136.1920 O   0  0  0  0  0  1  0  0  0  0  0  0
  182.1190  175.4220  138.7420 O   0  0  0  0  0  1  0  0  0  0  0  0
  183.1840  175.5480  137.8500 C   0  0  0  0  0  2  0  0  0  0  0  0
  185.1270  179.6750  142.2780 O   0  0  0  0  0  0  0  0  0  0  0  0
  183.8620  178.5070  144.0120 C   0  0  0  0  0  2  0  0  0  0  0  0
  185.0630  179.3470  143.6620 C   0  0  1  0  0  0  0  0  0  0  0  0
  185.2640  177.8990  144.0610 C   0  0  1  0  0  3  0  0  0  0  0  0
  185.3070  180.3660  144.5900 O   0  0  0  0  0  1  0  0  0  0  0  0
  187.1030  177.8870  145.7940 C   0  0  0  0  0  0  0  0  0  0  0  0
  190.4210  177.1260  144.7590 C   0  0  0  0  0  0  0  0  0  0  0  0
  185.7230  177.8040  145.4400 N   0  0  0  0  0  2  0  0  0  0  0  0
  190.3630  177.0190  143.3760 O   0  0  0  0  0  1  0  0  0  0  0  0
  189.3470  177.8420  145.5210 C   0  0  2  0  0  3  0  0  0  0  0  0
  187.6280  177.8770  147.5120 S   0  0  0  0  0  0  0  0  0  0  0  0
  190.4300  177.4250  147.6600 C   0  0  0  0  0  2  0  0  0  0  0  0
  189.1660  177.1790  146.8600 C   0  0  2  0  0  3  0  0  0  0  0  0
  188.0400  177.8320  144.9050 N   0  0  0  0  0  0  0  0  0  0  0  0
  191.4860  176.6560  145.4260 C   0  0  0  0  0  3  0  0  0  0  0  0
  191.6220  176.7450  146.9450 C   0  0  2  0  0  3  0  0  0  0  0  0
  192.8060  175.6270  148.4570 C   0  0  0  0  0  1  0  0  0  0  0  0
  191.8200  175.4680  147.4800 O   0  0  0  0  0  0  0  0  0  0  0  0
  1  2  1  0  0  0  0
  2  5  2  0  0  0  0
  2 22  1  0  0  0  0
  3  5  1  0  0  0  0
  4  6  1  0  0  0  0
  4  1  2  0  0  0  0
  6  3  2  0  0  0  0
  7  8  2  0  0  0  0
  8  9  1  0  0  0  0
  8  1  1  0  0  0  0
 10 12  1  0  0  0  0
 11 16  1  0  0  0  0
 11 14  1  0  0  0  0
 12  9  1  0  0  0  0
 13 17  1  0  0  0  0
 13 10  1  0  0  0  0
 14 19  1  1  0  0  0
 14 17  1  0  0  0  0
 15 13  1  0  0  0  0
 16 15  1  0  0  0  0
 17 21  1  6  0  0  0
 18 10  2  0  0  0  0
 21 20  1  0  0  0  0
 22 24  1  0  0  0  0
 23 25  1  0  0  0  0
 24 23  1  0  0  0  0
 24 25  1  0  0  0  0
 24 26  1  1  0  0  0
 25 29  1  1  0  0  0
 27 32  1  0  0  0  0
 28 36  2  0  0  0  0
 29 27  1  0  0  0  0
 30 28  1  0  0  0  0
 31 28  1  6  0  0  0
 31 34  1  0  0  0  0
 34 32  1  0  0  0  0
 34 33  1  1  0  0  0
 35 31  1  0  0  0  0
 35 27  2  0  0  0  0
 36 37  1  0  0  0  0
 37 39  1  1  0  0  0
 37 33  1  0  0  0  0
 39 38  1  0  0  0  0
M  END
>  <MODEL>
4

>  <REMARK>
 VINA RESULT:      -8.0      3.025      4.918
  Name = 
  7 active torsions:
  status: ('A' for Active; 'I' for Inactive)
    1  A    between atoms: N_3  and  C_19
    2  A    between atoms: C_5  and  C_9
    3  A    between atoms: O_8  and  C_13
    4  A    between atoms: O_8  and  C_15
    5  A    between atoms: N_12  and  N_26
    6  A    between atoms: C_31  and  C_33
    7  A    between atoms: C_38  and  O_39
                            x       y       z     vdW  Elec       q    Type
                         _______ _______ _______ _____ _____    ______ ____

>  <TORSDO>
F 7

$$$$
=
 OpenBabel10222421233D

 39 43  0  0  1  0  0  0  0  0999 V2000
  187.1370  177.6930  136.7810 C   0  0  0  0  0  0  0  0  0  0  0  0
  188.2360  176.9250  137.2340 C   0  0  0  0  0  0  0  0  0  0  0  0
  189.2630  177.1070  135.0360 C   0  0  0  0  0  3  0  0  0  0  0  0
  187.1350  178.1670  135.4630 C   0  0  0  0  0  3  0  0  0  0  0  0
  189.2860  176.6320  136.3480 C   0  0  0  0  0  3  0  0  0  0  0  0
  188.1900  177.8800  134.5940 C   0  0  0  0  0  3  0  0  0  0  0  0
  185.9970  178.9650  138.4450 O   0  0  0  0  0  0  0  0  0  0  0  0
  185.9710  177.9930  137.6440 C   0  0  0  0  0  0  0  0  0  0  0  0
  184.8060  177.1720  137.5840 N   0  0  0  0  0  0  0  0  0  0  0  0
  182.6250  176.4780  138.6070 C   0  0  0  0  0  0  0  0  0  0  0  0
  181.7260  173.3370  135.7510 C   0  0  0  0  0  2  0  0  0  0  0  0
  183.7190  177.3930  138.4420 N   0  0  0  0  0  0  0  0  0  0  0  0
  182.4670  175.2850  137.8060 N   0  0  0  0  0  0  0  0  0  0  0  0
  182.8140  174.3990  135.5510 C   0  0  1  0  0  3  0  0  0  0  0  0
  181.2200  174.5170  137.9370 C   0  0  0  0  0  2  0  0  0  0  0  0
  181.2940  173.1750  137.2110 C   0  0  0  0  0  2  0  0  0  0  0  0
  183.4900  174.8550  136.8520 C   0  0  2  0  0  3  0  0  0  0  0  0
  181.7450  176.7600  139.4650 O   0  0  0  0  0  0  0  0  0  0  0  0
  183.7480  173.9840  134.6020 O   0  0  0  0  0  1  0  0  0  0  0  0
  185.6790  174.2590  137.6320 O   0  0  0  0  0  1  0  0  0  0  0  0
  184.3790  173.7790  137.4780 C   0  0  0  0  0  2  0  0  0  0  0  0
  188.2800  176.4790  138.5610 O   0  0  0  0  0  0  0  0  0  0  0  0
  189.6850  178.3060  139.3690 C   0  0  0  0  0  2  0  0  0  0  0  0
  189.2840  176.8590  139.4960 C   0  0  1  0  0  0  0  0  0  0  0  0
  188.9020  177.8320  140.5940 C   0  0  1  0  0  3  0  0  0  0  0  0
  190.3760  176.0030  139.6720 O   0  0  0  0  0  1  0  0  0  0  0  0
  189.3230  177.3270  143.0340 C   0  0  0  0  0  0  0  0  0  0  0  0
  186.6150  177.5970  145.3260 C   0  0  0  0  0  0  0  0  0  0  0  0
  189.7940  177.6920  141.7370 N   0  0  0  0  0  2  0  0  0  0  0  0
  185.4960  177.8640  144.5490 O   0  0  0  0  0  1  0  0  0  0  0  0
  187.8500  177.0040  144.7190 C   0  0  2  0  0  3  0  0  0  0  0  0
  190.4600  177.0560  144.3980 S   0  0  0  0  0  0  0  0  0  0  0  0
  189.0250  176.9850  146.8500 C   0  0  0  0  0  2  0  0  0  0  0  0
  189.0600  177.5370  145.4380 C   0  0  2  0  0  3  0  0  0  0  0  0
  188.0630  177.3130  143.3230 N   0  0  0  0  0  0  0  0  0  0  0  0
  186.5750  177.7950  146.6530 C   0  0  0  0  0  3  0  0  0  0  0  0
  187.7640  177.5180  147.5710 C   0  0  2  0  0  3  0  0  0  0  0  0
  189.4520  178.5580  148.5720 C   0  0  0  0  0  1  0  0  0  0  0  0
  188.0890  178.6730  148.2890 O   0  0  0  0  0  0  0  0  0  0  0  0
  1  2  1  0  0  0  0
  1  8  1  0  0  0  0
  2 22  1  0  0  0  0
  3  5  1  0  0  0  0
  4  1  2  0  0  0  0
  5  2  2  0  0  0  0
  6  3  2  0  0  0  0
  6  4  1  0  0  0  0
  8  7  2  0  0  0  0
  9  8  1  0  0  0  0
  9 12  2  0  0  0  0
 10 18  2  0  0  0  0
 11 16  1  0  0  0  0
 12 10  1  0  0  0  0
 13 15  1  0  0  0  0
 13 10  1  0  0  0  0
 14 19  1  6  0  0  0
 14 11  1  0  0  0  0
 14 17  1  0  0  0  0
 16 15  1  0  0  0  0
 17 21  1  1  0  0  0
 17 13  1  0  0  0  0
 21 20  1  0  0  0  0
 22 24  1  0  0  0  0
 23 24  1  0  0  0  0
 23 25  1  0  0  0  0
 24 26  1  1  0  0  0
 24 25  1  0  0  0  0
 25 29  1  1  0  0  0
 27 35  2  0  0  0  0
 27 32  1  0  0  0  0
 28 36  2  0  0  0  0
 29 27  1  0  0  0  0
 30 28  1  0  0  0  0
 31 35  1  6  0  0  0
 31 28  1  0  0  0  0
 31 34  1  0  0  0  0
 32 34  1  0  0  0  0
 33 37  1  0  0  0  0
 34 33  1  1  0  0  0
 36 37  1  0  0  0  0
 37 39  1  6  0  0  0
 39 38  1  0  0  0  0
M  END
>  <MODEL>
5

>  <REMARK>
 VINA RESULT:      -7.9      3.113      5.747
  Name = 
  7 active torsions:
  status: ('A' for Active; 'I' for Inactive)
    1  A    between atoms: N_3  and  C_19
    2  A    between atoms: C_5  and  C_9
    3  A    between atoms: O_8  and  C_13
    4  A    between atoms: O_8  and  C_15
    5  A    between atoms: N_12  and  N_26
    6  A    between atoms: C_31  and  C_33
    7  A    between atoms: C_38  and  O_39
                            x       y       z     vdW  Elec       q    Type
                         _______ _______ _______ _____ _____    ______ ____

>  <TORSDO>
F 7

$$$$
=
 OpenBabel10222421233D

 39 43  0  0  1  0  0  0  0  0999 V2000
  190.3350  177.3200  140.4310 C   0  0  0  0  0  0  0  0  0  0  0  0
  190.1410  176.8480  139.1110 C   0  0  0  0  0  0  0  0  0  0  0  0
  192.5520  176.8000  138.7810 C   0  0  0  0  0  3  0  0  0  0  0  0
  191.6410  177.5060  140.9040 C   0  0  0  0  0  3  0  0  0  0  0  0
  191.2580  176.6010  138.2950 C   0  0  0  0  0  3  0  0  0  0  0  0
  192.7440  177.2460  140.0870 C   0  0  0  0  0  3  0  0  0  0  0  0
  188.5500  178.7180  141.1720 O   0  0  0  0  0  0  0  0  0  0  0  0
  189.2030  177.6520  141.3280 C   0  0  0  0  0  0  0  0  0  0  0  0
  188.8490  176.7680  142.3900 N   0  0  0  0  0  2  0  0  0  0  0  0
  188.0370  177.3100  144.6990 C   0  0  0  0  0  0  0  0  0  0  0  0
  191.5800  175.9310  146.7930 C   0  0  0  0  0  2  0  0  0  0  0  0
  187.8290  177.0960  143.2940 N   0  0  0  0  0  2  0  0  0  0  0  0
  189.3080  177.0830  145.3510 N   0  0  0  0  0  0  0  0  0  0  0  0
  191.2730  175.6240  145.3230 C   0  0  1  0  0  3  0  0  0  0  0  0
  189.3620  177.1600  146.8190 C   0  0  0  0  0  2  0  0  0  0  0  0
  190.7970  177.1280  147.3420 C   0  0  0  0  0  2  0  0  0  0  0  0
  190.5140  176.7420  144.5940 C   0  0  2  0  0  3  0  0  0  0  0  0
  187.0490  177.6710  145.3930 O   0  0  0  0  0  0  0  0  0  0  0  0
  192.4310  175.2550  144.6380 O   0  0  0  0  0  1  0  0  0  0  0  0
  190.5410  179.0960  144.1330 O   0  0  0  0  0  1  0  0  0  0  0  0
  191.3630  177.9920  144.3610 C   0  0  0  0  0  2  0  0  0  0  0  0
  188.8460  176.6130  138.6340 O   0  0  0  0  0  0  0  0  0  0  0  0
  187.3400  177.2710  136.8270 C   0  0  0  0  0  2  0  0  0  0  0  0
  187.9830  177.6320  138.1410 C   0  0  1  0  0  0  0  0  0  0  0  0
  186.4950  177.3460  138.0990 C   0  0  1  0  0  3  0  0  0  0  0  0
  188.4380  178.9550  138.1810 O   0  0  0  0  0  1  0  0  0  0  0  0
  184.4960  178.7110  138.8240 C   0  0  0  0  0  0  0  0  0  0  0  0
  181.5350  177.0070  139.8210 C   0  0  0  0  0  0  0  0  0  0  0  0
  185.7330  178.5860  138.1230 N   0  0  0  0  0  2  0  0  0  0  0  0
  181.8630  175.6580  139.8120 O   0  0  0  0  0  1  0  0  0  0  0  0
  182.6040  178.0570  139.8750 C   0  0  2  0  0  3  0  0  0  0  0  0
  183.6340  180.2830  138.9260 S   0  0  0  0  0  0  0  0  0  0  0  0
  180.9800  179.8700  139.8530 C   0  0  0  0  0  2  0  0  0  0  0  0
  182.1490  179.2650  139.1000 C   0  0  2  0  0  3  0  0  0  0  0  0
  183.8710  177.6810  139.2940 N   0  0  0  0  0  0  0  0  0  0  0  0
  180.2490  177.3870  139.8630 C   0  0  0  0  0  3  0  0  0  0  0  0
  179.8150  178.8510  139.8820 C   0  0  2  0  0  3  0  0  0  0  0  0
  178.9310  177.9230  138.0680 C   0  0  0  0  0  1  0  0  0  0  0  0
  178.9470  179.1030  138.8160 O   0  0  0  0  0  0  0  0  0  0  0  0
  1  4  1  0  0  0  0
  1  8  1  0  0  0  0
  2  1  2  0  0  0  0
  3  6  1  0  0  0  0
  5  3  2  0  0  0  0
  5  2  1  0  0  0  0
  6  4  2  0  0  0  0
  7  8  2  0  0  0  0
  8  9  1  0  0  0  0
  9 12  1  0  0  0  0
 10 13  1  0  0  0  0
 10 18  2  0  0  0  0
 11 16  1  0  0  0  0
 12 10  1  0  0  0  0
 13 15  1  0  0  0  0
 14 19  1  6  0  0  0
 14 11  1  0  0  0  0
 15 16  1  0  0  0  0
 17 21  1  1  0  0  0
 17 14  1  0  0  0  0
 17 13  1  0  0  0  0
 20 21  1  0  0  0  0
 22  2  1  0  0  0  0
 23 25  1  0  0  0  0
 23 24  1  0  0  0  0
 24 26  1  1  0  0  0
 24 22  1  0  0  0  0
 25 29  1  6  0  0  0
 25 24  1  0  0  0  0
 27 32  1  0  0  0  0
 27 35  2  0  0  0  0
 28 36  2  0  0  0  0
 28 31  1  0  0  0  0
 29 27  1  0  0  0  0
 30 28  1  0  0  0  0
 31 35  1  6  0  0  0
 32 34  1  0  0  0  0
 33 37  1  0  0  0  0
 34 33  1  1  0  0  0
 34 31  1  0  0  0  0
 36 37  1  0  0  0  0
 37 39  1  6  0  0  0
 38 39  1  0  0  0  0
M  END
>  <MODEL>
6

>  <REMARK>
 VINA RESULT:      -7.5      3.019      8.974
  Name = 
  7 active torsions:
  status: ('A' for Active; 'I' for Inactive)
    1  A    between atoms: N_3  and  C_19
    2  A    between atoms: C_5  and  C_9
    3  A    between atoms: O_8  and  C_13
    4  A    between atoms: O_8  and  C_15
    5  A    between atoms: N_12  and  N_26
    6  A    between atoms: C_31  and  C_33
    7  A    between atoms: C_38  and  O_39
                            x       y       z     vdW  Elec       q    Type
                         _______ _______ _______ _____ _____    ______ ____

>  <TORSDO>
F 7

$$$$
=
 OpenBabel10222421233D

 39 43  0  0  1  0  0  0  0  0999 V2000
  186.9960  176.5540  136.3880 C   0  0  0  0  0  0  0  0  0  0  0  0
  188.2430  176.7260  137.0350 C   0  0  0  0  0  0  0  0  0  0  0  0
  188.9760  178.1740  135.2210 C   0  0  0  0  0  3  0  0  0  0  0  0
  186.7600  177.2130  135.1750 C   0  0  0  0  0  3  0  0  0  0  0  0
  189.2260  177.5310  136.4350 C   0  0  0  0  0  3  0  0  0  0  0  0
  187.7410  178.0210  134.5940 C   0  0  0  0  0  3  0  0  0  0  0  0
  186.1400  174.4450  137.1030 O   0  0  0  0  0  0  0  0  0  0  0  0
  185.9340  175.6770  136.9360 C   0  0  0  0  0  0  0  0  0  0  0  0
  184.6580  176.2220  137.2700 N   0  0  0  0  0  2  0  0  0  0  0  0
  182.6850  175.7710  138.7480 C   0  0  0  0  0  0  0  0  0  0  0  0
  183.4300  179.0020  141.5480 C   0  0  0  0  0  2  0  0  0  0  0  0
  183.6170  175.3990  137.7210 N   0  0  0  0  0  2  0  0  0  0  0  0
  182.8040  176.9900  139.5160 N   0  0  0  0  0  0  0  0  0  0  0  0
  184.4470  178.5060  140.5140 C   0  0  1  0  0  3  0  0  0  0  0  0
  181.9010  177.1840  140.6600 C   0  0  0  0  0  2  0  0  0  0  0  0
  181.9870  178.6020  141.2250 C   0  0  0  0  0  2  0  0  0  0  0  0
  183.8170  178.0010  139.2080 C   0  0  2  0  0  3  0  0  0  0  0  0
  181.7480  174.9700  139.0130 O   0  0  0  0  0  0  0  0  0  0  0  0
  185.4270  179.4690  140.2750 O   0  0  0  0  0  1  0  0  0  0  0  0
  182.3180  178.5880  137.4290 O   0  0  0  0  0  1  0  0  0  0  0  0
  183.2070  179.1200  138.3630 C   0  0  0  0  0  2  0  0  0  0  0  0
  188.4830  176.1120  138.2700 O   0  0  0  0  0  0  0  0  0  0  0  0
  189.4960  178.1120  139.2380 C   0  0  0  0  0  2  0  0  0  0  0  0
  189.3980  176.6090  139.2410 C   0  0  1  0  0  0  0  0  0  0  0  0
  188.8370  177.3890  140.4140 C   0  0  1  0  0  3  0  0  0  0  0  0
  190.6420  175.9800  139.3550 O   0  0  0  0  0  1  0  0  0  0  0  0
  189.3040  177.0590  142.8750 C   0  0  0  0  0  0  0  0  0  0  0  0
  186.6300  177.4550  145.1890 C   0  0  0  0  0  0  0  0  0  0  0  0
  189.7480  177.3380  141.5480 N   0  0  0  0  0  2  0  0  0  0  0  0
  185.4950  177.6540  144.4140 O   0  0  0  0  0  1  0  0  0  0  0  0
  187.8620  176.8350  144.6020 C   0  0  2  0  0  3  0  0  0  0  0  0
  190.4660  176.8950  144.2340 S   0  0  0  0  0  0  0  0  0  0  0  0
  189.0720  176.9760  146.7100 C   0  0  0  0  0  2  0  0  0  0  0  0
  189.0760  177.4300  145.2630 C   0  0  2  0  0  3  0  0  0  0  0  0
  188.0490  177.0500  143.1860 N   0  0  0  0  0  0  0  0  0  0  0  0
  186.6080  177.7430  146.4990 C   0  0  0  0  0  3  0  0  0  0  0  0
  187.8160  177.5430  147.4140 C   0  0  2  0  0  3  0  0  0  0  0  0
  189.2770  178.4730  148.8050 C   0  0  0  0  0  1  0  0  0  0  0  0
  188.1380  178.7480  148.0450 O   0  0  0  0  0  0  0  0  0  0  0  0
  1  8  1  0  0  0  0
  1  2  1  0  0  0  0
  2 22  1  0  0  0  0
  3  5  1  0  0  0  0
  4  1  2  0  0  0  0
  5  2  2  0  0  0  0
  6  4  1  0  0  0  0
  6  3  2  0  0  0  0
  8  7  2  0  0  0  0
  8  9  1  0  0  0  0
  9 12  1  0  0  0  0
 10 18  2  0  0  0  0
 10 13  1  0  0  0  0
 12 10  1  0  0  0  0
 13 15  1  0  0  0  0
 14 19  1  6  0  0  0
 14 11  1  0  0  0  0
 15 16  1  0  0  0  0
 16 11  1  0  0  0  0
 17 21  1  1  0  0  0
 17 13  1  0  0  0  0
 17 14  1  0  0  0  0
 20 21  1  0  0  0  0
 22 24  1  0  0  0  0
 23 24  1  0  0  0  0
 23 25  1  0  0  0  0
 24 26  1  1  0  0  0
 24 25  1  0  0  0  0
 25 29  1  1  0  0  0
 27 35  2  0  0  0  0
 27 32  1  0  0  0  0
 28 36  2  0  0  0  0
 29 27  1  0  0  0  0
 30 28  1  0  0  0  0
 31 35  1  6  0  0  0
 31 28  1  0  0  0  0
 31 34  1  0  0  0  0
 32 34  1  0  0  0  0
 33 37  1  0  0  0  0
 34 33  1  1  0  0  0
 36 37  1  0  0  0  0
 37 39  1  6  0  0  0
 39 38  1  0  0  0  0
M  END
>  <MODEL>
7

>  <REMARK>
 VINA RESULT:      -7.5      2.749      6.106
  Name = 
  7 active torsions:
  status: ('A' for Active; 'I' for Inactive)
    1  A    between atoms: N_3  and  C_19
    2  A    between atoms: C_5  and  C_9
    3  A    between atoms: O_8  and  C_13
    4  A    between atoms: O_8  and  C_15
    5  A    between atoms: N_12  and  N_26
    6  A    between atoms: C_31  and  C_33
    7  A    between atoms: C_38  and  O_39
                            x       y       z     vdW  Elec       q    Type
                         _______ _______ _______ _____ _____    ______ ____

>  <TORSDO>
F 7

$$$$
=
 OpenBabel10222421233D

 39 43  0  0  1  0  0  0  0  0999 V2000
  183.3640  178.7030  141.7250 C   0  0  0  0  0  0  0  0  0  0  0  0
  183.3150  179.2370  143.0340 C   0  0  0  0  0  0  0  0  0  0  0  0
  180.9070  178.8820  143.0820 C   0  0  0  0  0  3  0  0  0  0  0  0
  182.1800  178.2510  141.1270 C   0  0  0  0  0  3  0  0  0  0  0  0
  182.0790  179.3290  143.6960 C   0  0  0  0  0  3  0  0  0  0  0  0
  180.9580  178.3370  141.8000 C   0  0  0  0  0  3  0  0  0  0  0  0
  185.6990  178.2720  141.4990 O   0  0  0  0  0  0  0  0  0  0  0  0
  184.6230  178.6250  140.9470 C   0  0  0  0  0  0  0  0  0  0  0  0
  184.6300  178.9650  139.5610 N   0  0  0  0  0  2  0  0  0  0  0  0
  186.0440  178.1750  137.6470 C   0  0  0  0  0  0  0  0  0  0  0  0
  183.6110  174.7250  136.6400 C   0  0  0  0  0  2  0  0  0  0  0  0
  185.8220  178.9690  138.8240 N   0  0  0  0  0  2  0  0  0  0  0  0
  185.0990  177.1890  137.1720 N   0  0  0  0  0  0  0  0  0  0  0  0
  183.4750  175.5260  137.9400 C   0  0  1  0  0  3  0  0  0  0  0  0
  185.5050  176.3110  136.0660 C   0  0  0  0  0  2  0  0  0  0  0  0
  184.3350  175.4890  135.5270 C   0  0  0  0  0  2  0  0  0  0  0  0
  183.7810  177.0230  137.7890 C   0  0  2  0  0  3  0  0  0  0  0  0
  187.1340  178.3230  137.0320 O   0  0  0  0  0  0  0  0  0  0  0  0
  182.2300  175.3110  138.5320 O   0  0  0  0  0  1  0  0  0  0  0  0
  182.1540  178.7850  137.7600 O   0  0  0  0  0  1  0  0  0  0  0  0
  182.7210  177.7750  136.9830 C   0  0  0  0  0  2  0  0  0  0  0  0
  184.4930  179.6520  143.6660 O   0  0  0  0  0  0  0  0  0  0  0  0
  183.8050  178.4490  145.6770 C   0  0  0  0  0  2  0  0  0  0  0  0
  184.8340  179.3220  145.0080 C   0  0  1  0  0  0  0  0  0  0  0  0
  185.1780  177.8790  145.3200 C   0  0  1  0  0  3  0  0  0  0  0  0
  185.3050  180.3450  145.8380 O   0  0  0  0  0  1  0  0  0  0  0  0
  187.4380  177.8280  146.4500 C   0  0  0  0  0  0  0  0  0  0  0  0
  190.2880  176.9080  144.5280 C   0  0  0  0  0  0  0  0  0  0  0  0
  186.0120  177.7950  146.5110 N   0  0  0  0  0  2  0  0  0  0  0  0
  189.8290  176.7740  143.2250 O   0  0  0  0  0  1  0  0  0  0  0  0
  189.5040  177.6840  145.5430 C   0  0  2  0  0  3  0  0  0  0  0  0
  188.4370  177.8330  147.9430 S   0  0  0  0  0  0  0  0  0  0  0  0
  191.1450  177.2690  147.2920 C   0  0  0  0  0  2  0  0  0  0  0  0
  189.6960  177.0590  146.8990 C   0  0  2  0  0  3  0  0  0  0  0  0
  188.0760  177.7150  145.3310 N   0  0  0  0  0  0  0  0  0  0  0  0
  191.4840  176.4090  144.8750 C   0  0  0  0  0  3  0  0  0  0  0  0
  192.0550  176.5250  146.2870 C   0  0  2  0  0  3  0  0  0  0  0  0
  192.7750  175.4610  148.0990 C   0  0  0  0  0  1  0  0  0  0  0  0
  192.3570  175.2520  146.7830 O   0  0  0  0  0  0  0  0  0  0  0  0
  1  2  1  0  0  0  0
  2 22  1  0  0  0  0
  2  5  2  0  0  0  0
  3  5  1  0  0  0  0
  4  1  2  0  0  0  0
  4  6  1  0  0  0  0
  6  3  2  0  0  0  0
  8  7  2  0  0  0  0
  8  1  1  0  0  0  0
  9  8  1  0  0  0  0
 10 12  1  0  0  0  0
 11 14  1  0  0  0  0
 12  9  1  0  0  0  0
 13 10  1  0  0  0  0
 13 17  1  0  0  0  0
 14 19  1  6  0  0  0
 15 13  1  0  0  0  0
 16 15  1  0  0  0  0
 16 11  1  0  0  0  0
 17 21  1  6  0  0  0
 17 14  1  0  0  0  0
 18 10  2  0  0  0  0
 21 20  1  0  0  0  0
 22 24  1  0  0  0  0
 24 25  1  0  0  0  0
 24 23  1  0  0  0  0
 24 26  1  1  0  0  0
 25 23  1  0  0  0  0
 25 29  1  1  0  0  0
 27 29  1  0  0  0  0
 27 32  1  0  0  0  0
 28 36  2  0  0  0  0
 30 28  1  0  0  0  0
 31 28  1  6  0  0  0
 31 34  1  0  0  0  0
 34 33  1  1  0  0  0
 34 32  1  0  0  0  0
 35 31  1  0  0  0  0
 35 27  2  0  0  0  0
 36 37  1  0  0  0  0
 37 39  1  1  0  0  0
 37 33  1  0  0  0  0
 39 38  1  0  0  0  0
M  END
>  <MODEL>
8

>  <REMARK>
 VINA RESULT:      -7.4      2.832      4.085
  Name = 
  7 active torsions:
  status: ('A' for Active; 'I' for Inactive)
    1  A    between atoms: N_3  and  C_19
    2  A    between atoms: C_5  and  C_9
    3  A    between atoms: O_8  and  C_13
    4  A    between atoms: O_8  and  C_15
    5  A    between atoms: N_12  and  N_26
    6  A    between atoms: C_31  and  C_33
    7  A    between atoms: C_38  and  O_39
                            x       y       z     vdW  Elec       q    Type
                         _______ _______ _______ _____ _____    ______ ____

>  <TORSDO>
F 7

$$$$
=
 OpenBabel10222421233D

 39 43  0  0  1  0  0  0  0  0999 V2000
  189.9930  177.2490  141.4130 C   0  0  0  0  0  0  0  0  0  0  0  0
  189.3100  176.7470  142.5460 C   0  0  0  0  0  0  0  0  0  0  0  0
  191.4170  176.6370  143.7590 C   0  0  0  0  0  3  0  0  0  0  0  0
  191.3780  177.4510  141.4850 C   0  0  0  0  0  3  0  0  0  0  0  0
  190.0360  176.4360  143.7080 C   0  0  0  0  0  3  0  0  0  0  0  0
  192.0880  177.1500  142.6500 C   0  0  0  0  0  3  0  0  0  0  0  0
  188.5390  178.5440  140.0370 O   0  0  0  0  0  0  0  0  0  0  0  0
  189.3000  177.5460  140.1370 C   0  0  0  0  0  0  0  0  0  0  0  0
  189.4810  176.6910  139.0090 N   0  0  0  0  0  2  0  0  0  0  0  0
  189.2990  176.6150  136.5100 C   0  0  0  0  0  0  0  0  0  0  0  0
  193.5280  176.0270  135.7350 C   0  0  0  0  0  2  0  0  0  0  0  0
  188.7790  176.9120  137.8150 N   0  0  0  0  0  2  0  0  0  0  0  0
  190.6570  176.1730  136.2840 N   0  0  0  0  0  0  0  0  0  0  0  0
  192.9510  176.4550  137.0890 C   0  0  1  0  0  3  0  0  0  0  0  0
  191.1350  176.0710  134.8970 C   0  0  0  0  0  2  0  0  0  0  0  0
  192.4950  175.3790  134.8090 C   0  0  0  0  0  2  0  0  0  0  0  0
  191.5640  175.8700  137.3920 C   0  0  2  0  0  3  0  0  0  0  0  0
  188.5400  176.7910  135.5190 O   0  0  0  0  0  0  0  0  0  0  0  0
  193.8550  176.2000  138.1200 O   0  0  0  0  0  1  0  0  0  0  0  0
  190.3000  173.8410  137.5920 O   0  0  0  0  0  1  0  0  0  0  0  0
  191.5920  174.3640  137.6560 C   0  0  0  0  0  2  0  0  0  0  0  0
  187.9210  176.5800  142.5100 O   0  0  0  0  0  0  0  0  0  0  0  0
  187.2680  178.8130  143.2530 C   0  0  0  0  0  2  0  0  0  0  0  0
  187.0080  177.3300  143.3050 C   0  0  1  0  0  0  0  0  0  0  0  0
  186.0180  178.2310  142.5930 C   0  0  1  0  0  3  0  0  0  0  0  0
  186.7280  176.8690  144.5950 O   0  0  0  0  0  1  0  0  0  0  0  0
  183.5230  178.4870  142.9030 C   0  0  0  0  0  0  0  0  0  0  0  0
  181.5270  179.3090  140.0740 C   0  0  0  0  0  0  0  0  0  0  0  0
  184.8500  178.4710  143.4280 N   0  0  0  0  0  2  0  0  0  0  0  0
  182.3930  179.2870  138.9900 O   0  0  0  0  0  1  0  0  0  0  0  0
  181.8800  178.6140  141.3550 C   0  0  2  0  0  3  0  0  0  0  0  0
  182.0960  178.6780  143.9750 S   0  0  0  0  0  0  0  0  0  0  0  0
  179.7930  179.2730  142.4200 C   0  0  0  0  0  2  0  0  0  0  0  0
  181.3030  179.3850  142.5110 C   0  0  2  0  0  3  0  0  0  0  0  0
  183.2940  178.5060  141.6300 N   0  0  0  0  0  0  0  0  0  0  0  0
  180.3210  179.8870  139.9610 C   0  0  0  0  0  3  0  0  0  0  0  0
  179.3150  179.9430  141.1090 C   0  0  2  0  0  3  0  0  0  0  0  0
  178.9380  181.8930  140.1140 C   0  0  0  0  0  1  0  0  0  0  0  0
  178.9590  181.2700  141.3650 O   0  0  0  0  0  0  0  0  0  0  0  0
  1  4  2  0  0  0  0
  1  2  1  0  0  0  0
  2  5  2  0  0  0  0
  4  6  1  0  0  0  0
  5  3  1  0  0  0  0
  6  3  2  0  0  0  0
  7  8  2  0  0  0  0
  8  1  1  0  0  0  0
  9  8  1  0  0  0  0
 10 12  1  0  0  0  0
 11 14  1  0  0  0  0
 12  9  1  0  0  0  0
 13 10  1  0  0  0  0
 13 17  1  0  0  0  0
 14 17  1  0  0  0  0
 14 19  1  1  0  0  0
 15 13  1  0  0  0  0
 16 15  1  0  0  0  0
 16 11  1  0  0  0  0
 17 21  1  6  0  0  0
 18 10  2  0  0  0  0
 20 21  1  0  0  0  0
 22  2  1  0  0  0  0
 22 24  1  0  0  0  0
 23 24  1  0  0  0  0
 24 26  1  1  0  0  0
 25 23  1  0  0  0  0
 25 24  1  0  0  0  0
 25 29  1  1  0  0  0
 27 29  1  0  0  0  0
 27 32  1  0  0  0  0
 30 28  1  0  0  0  0
 31 28  1  6  0  0  0
 31 35  1  0  0  0  0
 31 34  1  0  0  0  0
 34 33  1  1  0  0  0
 34 32  1  0  0  0  0
 35 27  2  0  0  0  0
 36 28  2  0  0  0  0
 36 37  1  0  0  0  0
 37 39  1  1  0  0  0
 37 33  1  0  0  0  0
 38 39  1  0  0  0  0
M  END
>  <MODEL>
9

>  <REMARK>
 VINA RESULT:      -7.4      2.943      7.248
  Name = 
  7 active torsions:
  status: ('A' for Active; 'I' for Inactive)
    1  A    between atoms: N_3  and  C_19
    2  A    between atoms: C_5  and  C_9
    3  A    between atoms: O_8  and  C_13
    4  A    between atoms: O_8  and  C_15
    5  A    between atoms: N_12  and  N_26
    6  A    between atoms: C_31  and  C_33
    7  A    between atoms: C_38  and  O_39
                            x       y       z     vdW  Elec       q    Type
                         _______ _______ _______ _____ _____    ______ ____

>  <TORSDO>
F 7

$$$$
