=
 OpenBabel10222420063D

 27 29  0  0  1  0  0  0  0  0999 V2000
  191.2290  177.1090  140.4300 N   0  0  0  0  0  0  0  0  0  0  0  0
  191.5870  177.0550  139.1300 C   0  0  0  0  0  0  0  0  0  0  0  0
  190.5370  177.4230  138.2890 C   0  0  0  0  0  3  0  0  0  0  0  0
  189.1520  177.6840  141.6550 C   0  0  1  0  0  3  0  0  0  0  0  0
  188.1770  178.1630  138.9690 C   0  0  0  0  0  0  0  0  0  0  0  0
  186.9210  178.6060  142.4340 N   0  0  0  0  0  2  0  0  0  0  0  0
  189.9700  177.5020  140.4520 N   0  0  0  0  0  0  0  0  0  0  0  0
  189.5350  177.6950  139.2030 C   0  0  0  0  0  0  0  0  0  0  0  0
  187.3660  178.4550  140.1120 N   0  0  0  0  0  0  0  0  0  0  0  0
  187.7270  178.3640  137.7750 N   0  0  0  0  0  2  0  0  0  0  0  0
  187.7770  178.2680  141.3410 C   0  0  0  0  0  0  0  0  0  0  0  0
  192.8640  176.6720  138.7170 O   0  0  0  0  0  0  0  0  0  0  0  0
  193.1130  176.1770  137.4100 C   0  0  0  0  0  1  0  0  0  0  0  0
  189.0360  176.3740  142.4330 C   0  0  0  0  0  2  0  0  0  0  0  0
  190.1920  176.1870  143.4160 C   0  0  0  0  0  2  0  0  0  0  0  0
  191.3820  177.0930  145.3860 N   0  0  0  0  0  0  0  0  0  0  0  0
  189.0040  177.2890  145.3270 C   0  0  0  0  0  3  0  0  0  0  0  0
  188.4870  177.1180  147.7430 C   0  0  0  0  0  1  0  0  0  0  0  0
  190.2390  177.2840  144.4780 C   0  0  2  0  0  3  0  0  0  0  0  0
  189.3980  177.1590  146.5690 C   0  0  0  0  0  0  0  0  0  0  0  0
  190.7990  177.0460  146.6600 N   0  0  0  0  0  0  0  0  0  0  0  0
  185.5900  179.1620  142.2440 C   0  0  0  0  0  2  0  0  0  0  0  0
  184.5400  178.2060  142.7870 C   0  0  0  0  0  2  0  0  0  0  0  0
  182.5490  178.9490  144.0110 C   0  0  0  0  0  2  0  0  0  0  0  0
  183.8710  178.7670  144.0020 C   0  0  0  0  0  0  0  0  0  0  0  0
  184.7110  179.3690  145.0790 C   0  0  0  0  0  2  0  0  0  0  0  0
  185.4360  178.2850  145.8540 C   0  0  0  0  0  1  0  0  0  0  0  0
  1  7  1  0  0  0  0
  2  1  2  0  0  0  0
  3  2  1  0  0  0  0
  3  8  2  0  0  0  0
  4 14  1  6  0  0  0
  5  8  1  0  0  0  0
  5  9  1  0  0  0  0
  7  4  1  0  0  0  0
  8  7  1  0  0  0  0
  9 11  2  0  0  0  0
 10  5  2  0  0  0  0
 11  4  1  0  0  0  0
 11  6  1  0  0  0  0
 12  2  1  0  0  0  0
 13 12  1  0  0  0  0
 14 15  1  0  0  0  0
 16 21  2  0  0  0  0
 17 20  2  0  0  0  0
 19 15  1  6  0  0  0
 19 17  1  0  0  0  0
 19 16  1  0  0  0  0
 20 21  1  0  0  0  0
 20 18  1  0  0  0  0
 22  6  1  0  0  0  0
 22 23  1  0  0  0  0
 23 25  1  0  0  0  0
 25 24  2  0  0  0  0
 25 26  1  0  0  0  0
 26 27  1  0  0  0  0
M  END
>  <MODEL>
1

>  <REMARK>
 VINA RESULT:      -8.0      0.000      0.000
  Name = 
  8 active torsions:
  status: ('A' for Active; 'I' for Inactive)
    1  A    between atoms: C_3  and  O_10
    2  A    between atoms: C_6  and  C_23
    3  A    between atoms: N_8  and  C_24
    4  A    between atoms: C_9  and  C_25
    5  A    between atoms: C_14  and  C_24
    6  A    between atoms: C_14  and  C_25
    7  A    between atoms: C_17  and  C_18
    8  A    between atoms: C_18  and  C_23
                            x       y       z     vdW  Elec       q    Type
                         _______ _______ _______ _____ _____    ______ ____

>  <TORSDO>
F 8

$$$$
=
 OpenBabel10222420063D

 27 29  0  0  1  0  0  0  0  0999 V2000
  186.1730  178.4670  142.0340 N   0  0  0  0  0  0  0  0  0  0  0  0
  184.9290  178.9850  141.9820 C   0  0  0  0  0  0  0  0  0  0  0  0
  184.3610  179.0960  143.2510 C   0  0  0  0  0  3  0  0  0  0  0  0
  187.6610  177.6550  143.8440 C   0  0  1  0  0  3  0  0  0  0  0  0
  185.4260  178.4670  145.4990 C   0  0  0  0  0  0  0  0  0  0  0  0
  188.8780  177.2060  146.0240 N   0  0  0  0  0  2  0  0  0  0  0  0
  186.4260  178.2380  143.3090 N   0  0  0  0  0  0  0  0  0  0  0  0
  185.3750  178.5980  144.0500 C   0  0  0  0  0  0  0  0  0  0  0  0
  186.6460  178.0000  146.0830 N   0  0  0  0  0  0  0  0  0  0  0  0
  184.4290  178.8120  146.2440 N   0  0  0  0  0  2  0  0  0  0  0  0
  187.6830  177.6390  145.3700 C   0  0  0  0  0  0  0  0  0  0  0  0
  184.3170  179.3530  140.7830 O   0  0  0  0  0  0  0  0  0  0  0  0
  184.7720  178.8690  139.5280 C   0  0  0  0  0  1  0  0  0  0  0  0
  187.8940  176.2580  143.2700 C   0  0  0  0  0  2  0  0  0  0  0  0
  189.3170  176.0860  142.7400 C   0  0  0  0  0  2  0  0  0  0  0  0
  189.2430  177.3270  140.6010 N   0  0  0  0  0  0  0  0  0  0  0  0
  191.2940  177.3240  141.8230 C   0  0  0  0  0  3  0  0  0  0  0  0
  192.9190  177.4190  139.9570 C   0  0  0  0  0  1  0  0  0  0  0  0
  189.8020  177.3090  141.9630 C   0  0  2  0  0  3  0  0  0  0  0  0
  191.5530  177.3840  140.5410 C   0  0  0  0  0  0  0  0  0  0  0  0
  190.3720  177.3960  139.7720 N   0  0  0  0  0  0  0  0  0  0  0  0
  189.0010  177.1470  147.4730 C   0  0  0  0  0  2  0  0  0  0  0  0
  190.4370  177.4220  147.8880 C   0  0  0  0  0  2  0  0  0  0  0  0
  192.2110  175.7320  147.8060 C   0  0  0  0  0  2  0  0  0  0  0  0
  191.3960  176.5510  147.1400 C   0  0  0  0  0  0  0  0  0  0  0  0
  191.6230  176.8050  145.6870 C   0  0  0  0  0  2  0  0  0  0  0  0
  192.0550  175.5290  144.9870 C   0  0  0  0  0  1  0  0  0  0  0  0
  1  7  1  0  0  0  0
  2  1  2  0  0  0  0
  2  3  1  0  0  0  0
  3  8  2  0  0  0  0
  4 14  1  6  0  0  0
  4 11  1  0  0  0  0
  5  9  1  0  0  0  0
  5 10  2  0  0  0  0
  6 22  1  0  0  0  0
  7  4  1  0  0  0  0
  7  8  1  0  0  0  0
  8  5  1  0  0  0  0
 11  6  1  0  0  0  0
 11  9  2  0  0  0  0
 12  2  1  0  0  0  0
 13 12  1  0  0  0  0
 15 14  1  0  0  0  0
 16 19  1  0  0  0  0
 17 19  1  0  0  0  0
 18 20  1  0  0  0  0
 19 15  1  6  0  0  0
 20 17  2  0  0  0  0
 21 20  1  0  0  0  0
 21 16  2  0  0  0  0
 22 23  1  0  0  0  0
 25 24  2  0  0  0  0
 25 23  1  0  0  0  0
 26 25  1  0  0  0  0
 27 26  1  0  0  0  0
M  END
>  <MODEL>
2

>  <REMARK>
 VINA RESULT:      -7.9      2.624      6.714
  Name = 
  8 active torsions:
  status: ('A' for Active; 'I' for Inactive)
    1  A    between atoms: C_3  and  O_10
    2  A    between atoms: C_6  and  C_23
    3  A    between atoms: N_8  and  C_24
    4  A    between atoms: C_9  and  C_25
    5  A    between atoms: C_14  and  C_24
    6  A    between atoms: C_14  and  C_25
    7  A    between atoms: C_17  and  C_18
    8  A    between atoms: C_18  and  C_23
                            x       y       z     vdW  Elec       q    Type
                         _______ _______ _______ _____ _____    ______ ____

>  <TORSDO>
F 8

$$$$
=
 OpenBabel10222420063D

 27 29  0  0  1  0  0  0  0  0999 V2000
  190.9830  176.5520  145.3340 N   0  0  0  0  0  0  0  0  0  0  0  0
  191.3230  176.5060  146.6380 C   0  0  0  0  0  0  0  0  0  0  0  0
  190.2870  176.9510  147.4590 C   0  0  0  0  0  3  0  0  0  0  0  0
  188.9710  177.2600  144.0700 C   0  0  1  0  0  3  0  0  0  0  0  0
  187.9630  177.7610  146.7390 C   0  0  0  0  0  0  0  0  0  0  0  0
  186.6330  177.8390  143.2740 N   0  0  0  0  0  2  0  0  0  0  0  0
  189.7510  177.0200  145.2890 N   0  0  0  0  0  0  0  0  0  0  0  0
  189.3140  177.2640  146.5280 C   0  0  0  0  0  0  0  0  0  0  0  0
  187.1220  177.9170  145.5910 N   0  0  0  0  0  0  0  0  0  0  0  0
  187.5090  178.0030  147.9240 N   0  0  0  0  0  2  0  0  0  0  0  0
  187.5370  177.6850  144.3710 C   0  0  0  0  0  0  0  0  0  0  0  0
  192.5710  176.0590  147.0750 O   0  0  0  0  0  0  0  0  0  0  0  0
  192.8460  175.8180  148.4470 C   0  0  0  0  0  1  0  0  0  0  0  0
  189.6750  178.2750  143.1700 C   0  0  0  0  0  2  0  0  0  0  0  0
  190.4840  177.5960  142.0640 C   0  0  0  0  0  2  0  0  0  0  0  0
  190.3760  176.2520  139.9920 N   0  0  0  0  0  0  0  0  0  0  0  0
  189.0220  178.2130  140.1250 C   0  0  0  0  0  3  0  0  0  0  0  0
  189.0200  178.9100  137.7480 C   0  0  0  0  0  1  0  0  0  0  0  0
  189.6030  177.0880  140.9250 C   0  0  2  0  0  3  0  0  0  0  0  0
  189.3850  178.0200  138.8810 C   0  0  0  0  0  0  0  0  0  0  0  0
  190.1830  176.8670  138.7460 N   0  0  0  0  0  0  0  0  0  0  0  0
  185.2480  178.2460  143.4510 C   0  0  0  0  0  2  0  0  0  0  0  0
  184.5240  178.2360  142.1150 C   0  0  0  0  0  2  0  0  0  0  0  0
  182.2900  178.6800  141.2060 C   0  0  0  0  0  2  0  0  0  0  0  0
  183.0740  178.5710  142.2780 C   0  0  0  0  0  0  0  0  0  0  0  0
  182.5870  179.0470  143.6070 C   0  0  0  0  0  2  0  0  0  0  0  0
  181.1120  178.7290  143.7750 C   0  0  0  0  0  1  0  0  0  0  0  0
  1  2  2  0  0  0  0
  2 12  1  0  0  0  0
  2  3  1  0  0  0  0
  4 14  1  1  0  0  0
  4 11  1  0  0  0  0
  4  7  1  0  0  0  0
  5 10  2  0  0  0  0
  6 22  1  0  0  0  0
  6 11  1  0  0  0  0
  7  1  1  0  0  0  0
  7  8  1  0  0  0  0
  8  5  1  0  0  0  0
  8  3  2  0  0  0  0
  9  5  1  0  0  0  0
 11  9  2  0  0  0  0
 12 13  1  0  0  0  0
 15 14  1  0  0  0  0
 16 19  1  0  0  0  0
 17 19  1  0  0  0  0
 18 20  1  0  0  0  0
 19 15  1  1  0  0  0
 20 17  2  0  0  0  0
 21 20  1  0  0  0  0
 21 16  2  0  0  0  0
 23 25  1  0  0  0  0
 23 22  1  0  0  0  0
 24 25  2  0  0  0  0
 25 26  1  0  0  0  0
 26 27  1  0  0  0  0
M  END
>  <MODEL>
3

>  <REMARK>
 VINA RESULT:      -7.7      2.416      6.079
  Name = 
  8 active torsions:
  status: ('A' for Active; 'I' for Inactive)
    1  A    between atoms: C_3  and  O_10
    2  A    between atoms: C_6  and  C_23
    3  A    between atoms: N_8  and  C_24
    4  A    between atoms: C_9  and  C_25
    5  A    between atoms: C_14  and  C_24
    6  A    between atoms: C_14  and  C_25
    7  A    between atoms: C_17  and  C_18
    8  A    between atoms: C_18  and  C_23
                            x       y       z     vdW  Elec       q    Type
                         _______ _______ _______ _____ _____    ______ ____

>  <TORSDO>
F 8

$$$$
=
 OpenBabel10222420063D

 27 29  0  0  1  0  0  0  0  0999 V2000
  187.5010  178.1950  138.7140 N   0  0  0  0  0  0  0  0  0  0  0  0
  188.0330  178.3210  137.4810 C   0  0  0  0  0  0  0  0  0  0  0  0
  189.3800  177.9590  137.4600 C   0  0  0  0  0  3  0  0  0  0  0  0
  188.3590  177.4970  140.9330 C   0  0  1  0  0  3  0  0  0  0  0  0
  190.8010  177.1140  139.4210 C   0  0  0  0  0  0  0  0  0  0  0  0
  189.6190  176.4700  142.8800 N   0  0  0  0  0  2  0  0  0  0  0  0
  188.4720  177.7610  139.4940 N   0  0  0  0  0  0  0  0  0  0  0  0
  189.5920  177.6130  138.7820 C   0  0  0  0  0  0  0  0  0  0  0  0
  190.7210  176.7430  140.8010 N   0  0  0  0  0  0  0  0  0  0  0  0
  191.8990  176.9540  138.7590 N   0  0  0  0  0  2  0  0  0  0  0  0
  189.6320  176.8860  141.5130 C   0  0  0  0  0  0  0  0  0  0  0  0
  187.2930  178.7630  136.3840 O   0  0  0  0  0  0  0  0  0  0  0  0
  187.0510  177.9340  135.2570 C   0  0  0  0  0  1  0  0  0  0  0  0
  187.9580  178.7650  141.6860 C   0  0  0  0  0  2  0  0  0  0  0  0
  186.4400  178.9070  141.7990 C   0  0  0  0  0  2  0  0  0  0  0  0
  184.4390  178.3270  143.1320 N   0  0  0  0  0  0  0  0  0  0  0  0
  186.5790  178.0860  144.1620 C   0  0  0  0  0  3  0  0  0  0  0  0
  185.9980  178.6100  146.5120 C   0  0  0  0  0  1  0  0  0  0  0  0
  185.8450  177.9840  142.8600 C   0  0  2  0  0  3  0  0  0  0  0  0
  185.6930  178.4070  145.0720 C   0  0  0  0  0  0  0  0  0  0  0  0
  184.4070  178.5550  144.5150 N   0  0  0  0  0  0  0  0  0  0  0  0
  190.7790  175.8810  143.5310 C   0  0  0  0  0  2  0  0  0  0  0  0
  191.5230  176.9380  144.3320 C   0  0  0  0  0  2  0  0  0  0  0  0
  191.7800  176.2310  146.6660 C   0  0  0  0  0  2  0  0  0  0  0  0
  191.0950  176.9370  145.7650 C   0  0  0  0  0  0  0  0  0  0  0  0
  189.7570  177.4960  146.1220 C   0  0  0  0  0  2  0  0  0  0  0  0
  189.2670  176.9030  147.4300 C   0  0  0  0  0  1  0  0  0  0  0  0
  1  7  1  0  0  0  0
  2  1  2  0  0  0  0
  3  2  1  0  0  0  0
  3  8  2  0  0  0  0
  4 11  1  0  0  0  0
  4 14  1  1  0  0  0
  5  9  1  0  0  0  0
  6 22  1  0  0  0  0
  7  4  1  0  0  0  0
  8  5  1  0  0  0  0
  8  7  1  0  0  0  0
  9 11  2  0  0  0  0
 10  5  2  0  0  0  0
 11  6  1  0  0  0  0
 12  2  1  0  0  0  0
 13 12  1  0  0  0  0
 14 15  1  0  0  0  0
 16 21  2  0  0  0  0
 17 20  2  0  0  0  0
 19 15  1  6  0  0  0
 19 16  1  0  0  0  0
 19 17  1  0  0  0  0
 20 18  1  0  0  0  0
 21 20  1  0  0  0  0
 22 23  1  0  0  0  0
 23 25  1  0  0  0  0
 25 26  1  0  0  0  0
 25 24  2  0  0  0  0
 26 27  1  0  0  0  0
M  END
>  <MODEL>
4

>  <REMARK>
 VINA RESULT:      -7.7      2.120      5.016
  Name = 
  8 active torsions:
  status: ('A' for Active; 'I' for Inactive)
    1  A    between atoms: C_3  and  O_10
    2  A    between atoms: C_6  and  C_23
    3  A    between atoms: N_8  and  C_24
    4  A    between atoms: C_9  and  C_25
    5  A    between atoms: C_14  and  C_24
    6  A    between atoms: C_14  and  C_25
    7  A    between atoms: C_17  and  C_18
    8  A    between atoms: C_18  and  C_23
                            x       y       z     vdW  Elec       q    Type
                         _______ _______ _______ _____ _____    ______ ____

>  <TORSDO>
F 8

$$$$
=
 OpenBabel10222420063D

 27 29  0  0  1  0  0  0  0  0999 V2000
  189.4030  178.0080  142.8030 N   0  0  0  0  0  0  0  0  0  0  0  0
  190.5170  177.4330  142.3050 C   0  0  0  0  0  0  0  0  0  0  0  0
  190.3900  177.1530  140.9440 C   0  0  0  0  0  3  0  0  0  0  0  0
  187.1970  178.6550  141.8750 C   0  0  1  0  0  3  0  0  0  0  0  0
  188.3740  177.6330  139.4330 C   0  0  0  0  0  0  0  0  0  0  0  0
  185.2420  179.3640  140.4220 N   0  0  0  0  0  2  0  0  0  0  0  0
  188.5550  178.1060  141.7980 N   0  0  0  0  0  0  0  0  0  0  0  0
  189.1100  177.6090  140.6880 C   0  0  0  0  0  0  0  0  0  0  0  0
  187.0830  178.2510  139.4280 N   0  0  0  0  0  0  0  0  0  0  0  0
  188.8830  177.1650  138.3410 N   0  0  0  0  0  2  0  0  0  0  0  0
  186.5250  178.7380  140.5070 C   0  0  0  0  0  0  0  0  0  0  0  0
  191.6410  177.1680  143.0880 O   0  0  0  0  0  0  0  0  0  0  0  0
  191.6820  176.0810  144.0000 C   0  0  0  0  0  1  0  0  0  0  0  0
  186.3470  177.8590  142.8650 C   0  0  0  0  0  2  0  0  0  0  0  0
  185.6340  178.7670  143.8670 C   0  0  0  0  0  2  0  0  0  0  0  0
  184.7780  179.0080  146.1740 N   0  0  0  0  0  0  0  0  0  0  0  0
  186.7220  177.6650  145.8360 C   0  0  0  0  0  3  0  0  0  0  0  0
  187.9180  178.0760  147.9660 C   0  0  0  0  0  1  0  0  0  0  0  0
  185.4250  178.0920  145.2210 C   0  0  2  0  0  3  0  0  0  0  0  0
  186.7880  178.2350  147.0130 C   0  0  0  0  0  0  0  0  0  0  0  0
  185.6570  179.0360  147.2670 N   0  0  0  0  0  0  0  0  0  0  0  0
  184.5140  179.4890  139.1690 C   0  0  0  0  0  2  0  0  0  0  0  0
  183.0160  179.4870  139.4310 C   0  0  0  0  0  2  0  0  0  0  0  0
  182.7440  177.0790  139.8080 C   0  0  0  0  0  2  0  0  0  0  0  0
  182.6140  178.3210  140.2770 C   0  0  0  0  0  0  0  0  0  0  0  0
  181.8190  178.5660  141.5180 C   0  0  0  0  0  2  0  0  0  0  0  0
  180.5630  179.3540  141.1950 C   0  0  0  0  0  1  0  0  0  0  0  0
  2  1  2  0  0  0  0
  2 12  1  0  0  0  0
  3  2  1  0  0  0  0
  4 14  1  1  0  0  0
  5  8  1  0  0  0  0
  6 11  1  0  0  0  0
  7  4  1  0  0  0  0
  7  1  1  0  0  0  0
  8  3  2  0  0  0  0
  8  7  1  0  0  0  0
  9  5  1  0  0  0  0
  9 11  2  0  0  0  0
 10  5  2  0  0  0  0
 11  4  1  0  0  0  0
 12 13  1  0  0  0  0
 14 15  1  0  0  0  0
 16 21  2  0  0  0  0
 17 20  2  0  0  0  0
 19 15  1  6  0  0  0
 19 17  1  0  0  0  0
 19 16  1  0  0  0  0
 20 21  1  0  0  0  0
 20 18  1  0  0  0  0
 22 23  1  0  0  0  0
 22  6  1  0  0  0  0
 23 25  1  0  0  0  0
 24 25  2  0  0  0  0
 25 26  1  0  0  0  0
 27 26  1  0  0  0  0
M  END
>  <MODEL>
5

>  <REMARK>
 VINA RESULT:      -7.5      2.547      3.881
  Name = 
  8 active torsions:
  status: ('A' for Active; 'I' for Inactive)
    1  A    between atoms: C_3  and  O_10
    2  A    between atoms: C_6  and  C_23
    3  A    between atoms: N_8  and  C_24
    4  A    between atoms: C_9  and  C_25
    5  A    between atoms: C_14  and  C_24
    6  A    between atoms: C_14  and  C_25
    7  A    between atoms: C_17  and  C_18
    8  A    between atoms: C_18  and  C_23
                            x       y       z     vdW  Elec       q    Type
                         _______ _______ _______ _____ _____    ______ ____

>  <TORSDO>
F 8

$$$$
=
 OpenBabel10222420063D

 27 29  0  0  1  0  0  0  0  0999 V2000
  189.6810  177.2770  146.0230 N   0  0  0  0  0  0  0  0  0  0  0  0
  190.9470  176.8940  146.2890 C   0  0  0  0  0  0  0  0  0  0  0  0
  191.7000  176.7520  145.1240 C   0  0  0  0  0  3  0  0  0  0  0  0
  188.3910  177.7610  143.9620 C   0  0  1  0  0  3  0  0  0  0  0  0
  190.9340  177.1570  142.7100 C   0  0  0  0  0  0  0  0  0  0  0  0
  187.6020  178.3930  141.6350 N   0  0  0  0  0  2  0  0  0  0  0  0
  189.5950  177.3850  144.7110 N   0  0  0  0  0  0  0  0  0  0  0  0
  190.7700  177.0810  144.1540 C   0  0  0  0  0  0  0  0  0  0  0  0
  189.8200  177.6170  141.9360 N   0  0  0  0  0  0  0  0  0  0  0  0
  192.0580  176.8750  142.1410 N   0  0  0  0  0  2  0  0  0  0  0  0
  188.6610  177.9150  142.4670 C   0  0  0  0  0  0  0  0  0  0  0  0
  191.4090  176.6770  147.5880 O   0  0  0  0  0  0  0  0  0  0  0  0
  192.4270  175.7280  147.8740 C   0  0  0  0  0  1  0  0  0  0  0  0
  187.2600  176.7670  144.2220 C   0  0  0  0  0  2  0  0  0  0  0  0
  186.4360  177.1480  145.4530 C   0  0  0  0  0  2  0  0  0  0  0  0
  184.8500  178.7720  146.4350 N   0  0  0  0  0  0  0  0  0  0  0  0
  184.8930  178.5460  144.0590 C   0  0  0  0  0  3  0  0  0  0  0  0
  182.5170  179.0030  143.5300 C   0  0  0  0  0  1  0  0  0  0  0  0
  185.7390  178.4980  145.2950 C   0  0  2  0  0  3  0  0  0  0  0  0
  183.6790  178.8500  144.4450 C   0  0  0  0  0  0  0  0  0  0  0  0
  183.6000  179.0030  145.8430 N   0  0  0  0  0  0  0  0  0  0  0  0
  187.7530  178.5700  140.1990 C   0  0  0  0  0  2  0  0  0  0  0  0
  186.4100  178.4000  139.5060 C   0  0  0  0  0  2  0  0  0  0  0  0
  185.5110  177.6110  137.3650 C   0  0  0  0  0  2  0  0  0  0  0  0
  186.5810  177.9220  138.0990 C   0  0  0  0  0  0  0  0  0  0  0  0
  187.9440  177.5370  137.6250 C   0  0  0  0  0  2  0  0  0  0  0  0
  188.4800  178.5740  136.6560 C   0  0  0  0  0  1  0  0  0  0  0  0
  1  2  2  0  0  0  0
  2 12  1  0  0  0  0
  3  2  1  0  0  0  0
  4 14  1  6  0  0  0
  4  7  1  0  0  0  0
  5  8  1  0  0  0  0
  6 11  1  0  0  0  0
  7  1  1  0  0  0  0
  8  7  1  0  0  0  0
  8  3  2  0  0  0  0
  9 11  2  0  0  0  0
  9  5  1  0  0  0  0
 10  5  2  0  0  0  0
 11  4  1  0  0  0  0
 12 13  1  0  0  0  0
 14 15  1  0  0  0  0
 17 20  2  0  0  0  0
 17 19  1  0  0  0  0
 18 20  1  0  0  0  0
 19 15  1  1  0  0  0
 19 16  1  0  0  0  0
 20 21  1  0  0  0  0
 21 16  2  0  0  0  0
 22  6  1  0  0  0  0
 23 22  1  0  0  0  0
 24 25  2  0  0  0  0
 25 23  1  0  0  0  0
 26 25  1  0  0  0  0
 27 26  1  0  0  0  0
M  END
>  <MODEL>
6

>  <REMARK>
 VINA RESULT:      -7.5      2.692      6.098
  Name = 
  8 active torsions:
  status: ('A' for Active; 'I' for Inactive)
    1  A    between atoms: C_3  and  O_10
    2  A    between atoms: C_6  and  C_23
    3  A    between atoms: N_8  and  C_24
    4  A    between atoms: C_9  and  C_25
    5  A    between atoms: C_14  and  C_24
    6  A    between atoms: C_14  and  C_25
    7  A    between atoms: C_17  and  C_18
    8  A    between atoms: C_18  and  C_23
                            x       y       z     vdW  Elec       q    Type
                         _______ _______ _______ _____ _____    ______ ____

>  <TORSDO>
F 8

$$$$
=
 OpenBabel10222420063D

 27 29  0  0  1  0  0  0  0  0999 V2000
  187.4660  177.2140  144.4010 N   0  0  0  0  0  0  0  0  0  0  0  0
  186.2470  177.6920  144.7270 C   0  0  0  0  0  0  0  0  0  0  0  0
  185.6540  178.3670  143.6600 C   0  0  0  0  0  3  0  0  0  0  0  0
  188.8890  177.2760  142.3720 C   0  0  1  0  0  3  0  0  0  0  0  0
  186.6120  178.7180  141.3070 C   0  0  0  0  0  0  0  0  0  0  0  0
  189.8280  177.3830  140.0180 N   0  0  0  0  0  2  0  0  0  0  0  0
  187.6780  177.5650  143.1470 N   0  0  0  0  0  0  0  0  0  0  0  0
  186.6260  178.2470  142.6840 C   0  0  0  0  0  0  0  0  0  0  0  0
  187.7250  178.3750  140.4740 N   0  0  0  0  0  0  0  0  0  0  0  0
  185.6090  179.3750  140.8270 N   0  0  0  0  0  2  0  0  0  0  0  0
  188.7640  177.7110  140.9140 C   0  0  0  0  0  0  0  0  0  0  0  0
  185.6820  177.5120  145.9900 O   0  0  0  0  0  0  0  0  0  0  0  0
  185.4260  178.6030  146.8620 C   0  0  0  0  0  1  0  0  0  0  0  0
  190.1170  177.8990  143.0350 C   0  0  0  0  0  2  0  0  0  0  0  0
  190.8890  176.8840  143.8780 C   0  0  0  0  0  2  0  0  0  0  0  0
  191.7560  176.3450  146.1310 N   0  0  0  0  0  0  0  0  0  0  0  0
  190.0110  177.9660  145.9600 C   0  0  0  0  0  3  0  0  0  0  0  0
  188.8180  177.5560  148.0920 C   0  0  0  0  0  1  0  0  0  0  0  0
  191.2220  177.4140  145.2710 C   0  0  2  0  0  3  0  0  0  0  0  0
  189.8940  177.3190  147.0930 C   0  0  0  0  0  0  0  0  0  0  0  0
  190.9070  176.3520  147.2470 N   0  0  0  0  0  0  0  0  0  0  0  0
  189.8110  177.7560  138.6120 C   0  0  0  0  0  2  0  0  0  0  0  0
  189.5620  176.5310  137.7470 C   0  0  0  0  0  2  0  0  0  0  0  0
  187.4810  175.3460  137.2190 C   0  0  0  0  0  2  0  0  0  0  0  0
  188.1530  176.4970  137.2430 C   0  0  0  0  0  0  0  0  0  0  0  0
  187.6140  177.6880  136.5220 C   0  0  0  0  0  2  0  0  0  0  0  0
  186.4020  178.2430  137.2470 C   0  0  0  0  0  1  0  0  0  0  0  0
  1  2  2  0  0  0  0
  2 12  1  0  0  0  0
  3  2  1  0  0  0  0
  4 14  1  1  0  0  0
  4  7  1  0  0  0  0
  5  8  1  0  0  0  0
  6 11  1  0  0  0  0
  7  1  1  0  0  0  0
  8  7  1  0  0  0  0
  8  3  2  0  0  0  0
  9 11  2  0  0  0  0
  9  5  1  0  0  0  0
 10  5  2  0  0  0  0
 11  4  1  0  0  0  0
 12 13  1  0  0  0  0
 14 15  1  0  0  0  0
 16 21  2  0  0  0  0
 17 20  2  0  0  0  0
 19 15  1  6  0  0  0
 19 17  1  0  0  0  0
 19 16  1  0  0  0  0
 20 21  1  0  0  0  0
 20 18  1  0  0  0  0
 22  6  1  0  0  0  0
 23 22  1  0  0  0  0
 24 25  2  0  0  0  0
 25 23  1  0  0  0  0
 26 25  1  0  0  0  0
 26 27  1  0  0  0  0
M  END
>  <MODEL>
7

>  <REMARK>
 VINA RESULT:      -7.4      2.517      5.735
  Name = 
  8 active torsions:
  status: ('A' for Active; 'I' for Inactive)
    1  A    between atoms: C_3  and  O_10
    2  A    between atoms: C_6  and  C_23
    3  A    between atoms: N_8  and  C_24
    4  A    between atoms: C_9  and  C_25
    5  A    between atoms: C_14  and  C_24
    6  A    between atoms: C_14  and  C_25
    7  A    between atoms: C_17  and  C_18
    8  A    between atoms: C_18  and  C_23
                            x       y       z     vdW  Elec       q    Type
                         _______ _______ _______ _____ _____    ______ ____

>  <TORSDO>
F 8

$$$$
=
 OpenBabel10222420063D

 27 29  0  0  1  0  0  0  0  0999 V2000
  189.3460  177.0560  145.3860 N   0  0  0  0  0  0  0  0  0  0  0  0
  189.3620  177.1960  146.7270 C   0  0  0  0  0  0  0  0  0  0  0  0
  188.1690  177.7370  147.2060 C   0  0  0  0  0  3  0  0  0  0  0  0
  187.7100  177.5560  143.5900 C   0  0  1  0  0  3  0  0  0  0  0  0
  186.1020  178.4100  145.8440 C   0  0  0  0  0  0  0  0  0  0  0  0
  185.6440  177.9880  142.1840 N   0  0  0  0  0  2  0  0  0  0  0  0
  188.1700  177.4970  144.9820 N   0  0  0  0  0  0  0  0  0  0  0  0
  187.4540  177.9060  146.0340 C   0  0  0  0  0  0  0  0  0  0  0  0
  185.5650  178.3940  144.5170 N   0  0  0  0  0  0  0  0  0  0  0  0
  185.3830  178.8080  146.8400 N   0  0  0  0  0  2  0  0  0  0  0  0
  186.2550  178.0000  143.4760 C   0  0  0  0  0  0  0  0  0  0  0  0
  190.4590  176.8300  147.5080 O   0  0  0  0  0  0  0  0  0  0  0  0
  191.5560  176.1060  146.9700 C   0  0  0  0  0  1  0  0  0  0  0  0
  188.6300  178.4450  142.7540 C   0  0  0  0  0  2  0  0  0  0  0  0
  189.7370  177.6420  142.0710 C   0  0  0  0  0  2  0  0  0  0  0  0
  190.4230  176.4580  140.0120 N   0  0  0  0  0  0  0  0  0  0  0  0
  188.6550  178.0530  139.8500 C   0  0  0  0  0  3  0  0  0  0  0  0
  189.0330  178.8990  137.5530 C   0  0  0  0  0  1  0  0  0  0  0  0
  189.2840  177.0320  140.7470 C   0  0  2  0  0  3  0  0  0  0  0  0
  189.3270  178.0340  138.7260 C   0  0  0  0  0  0  0  0  0  0  0  0
  190.3810  177.1010  138.7660 N   0  0  0  0  0  0  0  0  0  0  0  0
  184.2650  178.3980  141.9650 C   0  0  0  0  0  2  0  0  0  0  0  0
  183.7650  177.8650  140.6320 C   0  0  0  0  0  2  0  0  0  0  0  0
  183.2150  179.7250  139.1320 C   0  0  0  0  0  2  0  0  0  0  0  0
  184.0980  178.8010  139.5130 C   0  0  0  0  0  0  0  0  0  0  0  0
  185.2890  178.5150  138.6590 C   0  0  0  0  0  2  0  0  0  0  0  0
  184.9610  177.4440  137.6350 C   0  0  0  0  0  1  0  0  0  0  0  0
  1  2  2  0  0  0  0
  2  3  1  0  0  0  0
  2 12  1  0  0  0  0
  4 14  1  6  0  0  0
  4  7  1  0  0  0  0
  5  8  1  0  0  0  0
  5 10  2  0  0  0  0
  6 11  1  0  0  0  0
  7  1  1  0  0  0  0
  7  8  1  0  0  0  0
  8  3  2  0  0  0  0
  9  5  1  0  0  0  0
 11  4  1  0  0  0  0
 11  9  2  0  0  0  0
 13 12  1  0  0  0  0
 15 14  1  0  0  0  0
 16 19  1  0  0  0  0
 17 19  1  0  0  0  0
 18 20  1  0  0  0  0
 19 15  1  1  0  0  0
 20 21  1  0  0  0  0
 20 17  2  0  0  0  0
 21 16  2  0  0  0  0
 22  6  1  0  0  0  0
 23 22  1  0  0  0  0
 24 25  2  0  0  0  0
 25 23  1  0  0  0  0
 26 25  1  0  0  0  0
 27 26  1  0  0  0  0
M  END
>  <MODEL>
8

>  <REMARK>
 VINA RESULT:      -7.4      2.791      6.339
  Name = 
  8 active torsions:
  status: ('A' for Active; 'I' for Inactive)
    1  A    between atoms: C_3  and  O_10
    2  A    between atoms: C_6  and  C_23
    3  A    between atoms: N_8  and  C_24
    4  A    between atoms: C_9  and  C_25
    5  A    between atoms: C_14  and  C_24
    6  A    between atoms: C_14  and  C_25
    7  A    between atoms: C_17  and  C_18
    8  A    between atoms: C_18  and  C_23
                            x       y       z     vdW  Elec       q    Type
                         _______ _______ _______ _____ _____    ______ ____

>  <TORSDO>
F 8

$$$$
=
 OpenBabel10222420063D

 27 29  0  0  1  0  0  0  0  0999 V2000
  188.7020  177.9220  145.8680 N   0  0  0  0  0  0  0  0  0  0  0  0
  189.5950  177.4480  146.7600 C   0  0  0  0  0  0  0  0  0  0  0  0
  190.6300  176.7510  146.1360 C   0  0  0  0  0  3  0  0  0  0  0  0
  188.4640  177.8240  143.4020 C   0  0  1  0  0  3  0  0  0  0  0  0
  190.9530  176.3570  143.6220 C   0  0  0  0  0  0  0  0  0  0  0  0
  188.8080  177.6730  140.8930 N   0  0  0  0  0  2  0  0  0  0  0  0
  189.1320  177.5480  144.6780 N   0  0  0  0  0  0  0  0  0  0  0  0
  190.2670  176.8550  144.8050 C   0  0  0  0  0  0  0  0  0  0  0  0
  190.4000  176.6860  142.3430 N   0  0  0  0  0  0  0  0  0  0  0  0
  192.0550  175.6890  143.7100 N   0  0  0  0  0  2  0  0  0  0  0  0
  189.2870  177.3600  142.2030 C   0  0  0  0  0  0  0  0  0  0  0  0
  189.4660  177.6510  148.1350 O   0  0  0  0  0  0  0  0  0  0  0  0
  188.2150  177.9500  148.7360 C   0  0  0  0  0  1  0  0  0  0  0  0
  187.0620  177.2170  143.3820 C   0  0  0  0  0  2  0  0  0  0  0  0
  186.3010  177.4900  144.6800 C   0  0  0  0  0  2  0  0  0  0  0  0
  184.7510  179.0030  145.8740 N   0  0  0  0  0  0  0  0  0  0  0  0
  184.4670  178.7410  143.5180 C   0  0  0  0  0  3  0  0  0  0  0  0
  182.0110  179.0030  143.3390 C   0  0  0  0  0  1  0  0  0  0  0  0
  185.4840  178.7790  144.6180 C   0  0  2  0  0  3  0  0  0  0  0  0
  183.3010  178.9570  144.0750 C   0  0  0  0  0  0  0  0  0  0  0  0
  183.4140  179.1260  145.4690 N   0  0  0  0  0  0  0  0  0  0  0  0
  189.5120  177.2730  139.6850 C   0  0  0  0  0  2  0  0  0  0  0  0
  189.2900  178.2990  138.5850 C   0  0  0  0  0  2  0  0  0  0  0  0
  189.0530  177.8800  136.1810 C   0  0  0  0  0  2  0  0  0  0  0  0
  188.5800  177.6970  137.4140 C   0  0  0  0  0  0  0  0  0  0  0  0
  187.2100  177.1350  137.6080 C   0  0  0  0  0  2  0  0  0  0  0  0
  186.2070  178.2520  137.8300 C   0  0  0  0  0  1  0  0  0  0  0  0
  1  2  2  0  0  0  0
  2 12  1  0  0  0  0
  3  2  1  0  0  0  0
  4 14  1  1  0  0  0
  4  7  1  0  0  0  0
  5 10  2  0  0  0  0
  5  8  1  0  0  0  0
  6 11  1  0  0  0  0
  7  8  1  0  0  0  0
  7  1  1  0  0  0  0
  8  3  2  0  0  0  0
  9  5  1  0  0  0  0
 11  9  2  0  0  0  0
 11  4  1  0  0  0  0
 12 13  1  0  0  0  0
 14 15  1  0  0  0  0
 17 20  2  0  0  0  0
 17 19  1  0  0  0  0
 18 20  1  0  0  0  0
 19 15  1  1  0  0  0
 19 16  1  0  0  0  0
 20 21  1  0  0  0  0
 21 16  2  0  0  0  0
 22  6  1  0  0  0  0
 23 22  1  0  0  0  0
 24 25  2  0  0  0  0
 25 26  1  0  0  0  0
 25 23  1  0  0  0  0
 26 27  1  0  0  0  0
M  END
>  <MODEL>
9

>  <REMARK>
 VINA RESULT:      -7.3      2.735      6.825
  Name = 
  8 active torsions:
  status: ('A' for Active; 'I' for Inactive)
    1  A    between atoms: C_3  and  O_10
    2  A    between atoms: C_6  and  C_23
    3  A    between atoms: N_8  and  C_24
    4  A    between atoms: C_9  and  C_25
    5  A    between atoms: C_14  and  C_24
    6  A    between atoms: C_14  and  C_25
    7  A    between atoms: C_17  and  C_18
    8  A    between atoms: C_18  and  C_23
                            x       y       z     vdW  Elec       q    Type
                         _______ _______ _______ _____ _____    ______ ____

>  <TORSDO>
F 8

$$$$
