=
 OpenBabel10222416083D

 26 26  0  0  1  0  0  0  0  0999 V2000
  189.0860  177.1310  142.7010 N   0  0  0  0  0  0  0  0  0  0  0  0
  188.3670  177.9410  141.9890 C   0  0  0  0  0  3  0  0  0  0  0  0
  184.3970  179.0300  143.1360 C   0  0  0  0  0  3  0  0  0  0  0  0
  186.3990  178.6430  140.0190 N   0  0  0  0  0  1  0  0  0  0  0  0
  183.8310  179.3580  140.8500 F   0  0  0  0  0  0  0  0  0  0  0  0
  187.0000  178.3100  142.3810 C   0  0  0  0  0  0  0  0  0  0  0  0
  186.0500  178.6540  141.4020 C   0  0  0  0  0  0  0  0  0  0  0  0
  186.6310  178.3290  143.7350 C   0  0  0  0  0  3  0  0  0  0  0  0
  184.7520  179.0150  141.7850 C   0  0  0  0  0  0  0  0  0  0  0  0
  185.3280  178.6730  144.1190 C   0  0  0  0  0  0  0  0  0  0  0  0
  185.6860  179.7280  146.2110 F   0  0  0  0  0  0  0  0  0  0  0  0
  183.5990  179.0220  145.6930 O   0  0  0  0  0  1  0  0  0  0  0  0
  184.9590  178.7370  145.5720 C   0  0  0  0  0  0  0  0  0  0  0  0
  185.2260  177.5280  146.1920 F   0  0  0  0  0  0  0  0  0  0  0  0
  190.4240  176.7520  142.3500 C   0  0  0  0  0  3  0  0  0  0  0  0
  191.4980  177.2930  142.8560 N   0  0  0  0  0  0  0  0  0  0  0  0
  191.6240  177.7430  145.2900 N   0  0  0  0  0  2  0  0  0  0  0  0
  191.3660  179.4840  143.7420 N   0  0  0  0  0  2  0  0  0  0  0  0
  191.5730  178.2250  143.9460 C   0  0  0  0  0  0  0  0  0  0  0  0
  191.8180  176.3360  145.6130 C   0  0  0  0  0  2  0  0  0  0  0  0
  191.2940  176.0290  147.0150 C   0  0  1  0  0  3  0  0  0  0  0  0
  192.3880  175.5870  147.9880 C   0  0  0  0  0  2  0  0  0  0  0  0
  192.9240  176.7140  148.7350 N   0  0  0  0  0  1  0  0  0  0  0  0
  190.4130  177.1490  147.5700 C   0  0  0  0  0  2  0  0  0  0  0  0
  188.1160  178.0270  147.8800 C   0  0  0  0  0  1  0  0  0  0  0  0
  188.9350  176.7890  147.5810 C   0  0  0  0  0  2  0  0  0  0  0  0
  2  6  1  0  0  0  0
  2  1  2  0  0  0  0
  3 10  1  0  0  0  0
  4  7  1  0  0  0  0
  5  9  1  0  0  0  0
  6  8  1  0  0  0  0
  7  9  1  0  0  0  0
  7  6  2  0  0  0  0
  8 10  2  0  0  0  0
  9  3  2  0  0  0  0
 10 13  1  0  0  0  0
 13 12  1  0  0  0  0
 13 14  1  0  0  0  0
 13 11  1  0  0  0  0
 15  1  1  0  0  0  0
 15 16  2  0  0  0  0
 16 19  1  0  0  0  0
 17 20  1  0  0  0  0
 18 19  2  0  0  0  0
 19 17  1  0  0  0  0
 21 20  1  6  0  0  0
 21 24  1  0  0  0  0
 21 22  1  0  0  0  0
 22 23  1  0  0  0  0
 24 26  1  0  0  0  0
 26 25  1  0  0  0  0
M  END
>  <MODEL>
1

>  <REMARK>
 VINA RESULT:      -7.8      0.000      0.000
  Name = 
  9 active torsions:
  status: ('A' for Active; 'I' for Inactive)
    1  A    between atoms: C_3  and  C_24
    2  A    between atoms: N_5  and  C_17
    3  A    between atoms: C_6  and  C_18
    4  A    between atoms: C_6  and  C_24
    5  A    between atoms: C_7  and  N_10
    6  A    between atoms: C_13  and  C_21
    7  A    between atoms: C_17  and  C_24
    8  A    between atoms: C_19  and  C_22
    9  A    between atoms: C_23  and  N_26
                            x       y       z     vdW  Elec       q    Type
                         _______ _______ _______ _____ _____    ______ ____

>  <TORSDO>
F 9

$$$$
=
 OpenBabel10222416083D

 26 26  0  0  1  0  0  0  0  0999 V2000
  190.3800  178.3970  143.9950 N   0  0  0  0  0  0  0  0  0  0  0  0
  190.0260  177.5970  144.9500 C   0  0  0  0  0  3  0  0  0  0  0  0
  186.4890  178.2600  147.2550 C   0  0  0  0  0  3  0  0  0  0  0  0
  190.0580  177.3540  147.8120 N   0  0  0  0  0  1  0  0  0  0  0  0
  187.7020  177.7890  149.2450 F   0  0  0  0  0  0  0  0  0  0  0  0
  188.8120  177.8310  145.7450 C   0  0  0  0  0  0  0  0  0  0  0  0
  188.8460  177.7040  147.1460 C   0  0  0  0  0  0  0  0  0  0  0  0
  187.6070  178.1750  145.1140 C   0  0  0  0  0  3  0  0  0  0  0  0
  187.6820  177.9180  147.8950 C   0  0  0  0  0  0  0  0  0  0  0  0
  186.4460  178.4070  145.8630 C   0  0  0  0  0  0  0  0  0  0  0  0
  184.8670  177.7700  144.2140 F   0  0  0  0  0  0  0  0  0  0  0  0
  184.1200  178.7500  146.1130 O   0  0  0  0  0  1  0  0  0  0  0  0
  185.1510  178.7270  145.1740 C   0  0  0  0  0  0  0  0  0  0  0  0
  185.2280  179.9610  144.5530 F   0  0  0  0  0  0  0  0  0  0  0  0
  191.5560  178.1980  143.1970 C   0  0  0  0  0  3  0  0  0  0  0  0
  191.6900  177.2530  142.3090 N   0  0  0  0  0  0  0  0  0  0  0  0
  189.9710  176.6450  140.6300 N   0  0  0  0  0  2  0  0  0  0  0  0
  190.2400  175.4050  142.6010 N   0  0  0  0  0  2  0  0  0  0  0  0
  190.6770  176.3520  141.8370 C   0  0  0  0  0  0  0  0  0  0  0  0
  190.3700  177.7160  139.7280 C   0  0  0  0  0  2  0  0  0  0  0  0
  189.1460  178.4770  139.2200 C   0  0  1  0  0  3  0  0  0  0  0  0
  189.0270  178.4860  137.6950 C   0  0  0  0  0  2  0  0  0  0  0  0
  189.4040  177.2020  137.1240 N   0  0  0  0  0  1  0  0  0  0  0  0
  187.8570  178.0470  139.9200 C   0  0  0  0  0  2  0  0  0  0  0  0
  186.2040  179.0080  141.4970 C   0  0  0  0  0  1  0  0  0  0  0  0
  187.6720  178.7080  141.2770 C   0  0  0  0  0  2  0  0  0  0  0  0
  1  2  2  0  0  0  0
  2  6  1  0  0  0  0
  3  9  1  0  0  0  0
  6  7  1  0  0  0  0
  7  4  1  0  0  0  0
  7  9  2  0  0  0  0
  8  6  2  0  0  0  0
  8 10  1  0  0  0  0
  9  5  1  0  0  0  0
 10  3  2  0  0  0  0
 11 13  1  0  0  0  0
 13 10  1  0  0  0  0
 13 12  1  0  0  0  0
 14 13  1  0  0  0  0
 15  1  1  0  0  0  0
 16 15  2  0  0  0  0
 17 19  1  0  0  0  0
 19 16  1  0  0  0  0
 19 18  2  0  0  0  0
 20 17  1  0  0  0  0
 21 22  1  6  0  0  0
 21 20  1  0  0  0  0
 21 24  1  0  0  0  0
 23 22  1  0  0  0  0
 24 26  1  0  0  0  0
 26 25  1  0  0  0  0
M  END
>  <MODEL>
2

>  <REMARK>
 VINA RESULT:      -7.3      2.190      5.975
  Name = 
  9 active torsions:
  status: ('A' for Active; 'I' for Inactive)
    1  A    between atoms: C_3  and  C_24
    2  A    between atoms: N_5  and  C_17
    3  A    between atoms: C_6  and  C_18
    4  A    between atoms: C_6  and  C_24
    5  A    between atoms: C_7  and  N_10
    6  A    between atoms: C_13  and  C_21
    7  A    between atoms: C_17  and  C_24
    8  A    between atoms: C_19  and  C_22
    9  A    between atoms: C_23  and  N_26
                            x       y       z     vdW  Elec       q    Type
                         _______ _______ _______ _____ _____    ______ ____

>  <TORSDO>
F 9

$$$$
=
 OpenBabel10222416083D

 26 26  0  0  1  0  0  0  0  0999 V2000
  189.9620  176.5030  142.3510 N   0  0  0  0  0  0  0  0  0  0  0  0
  190.0790  177.1580  141.2390 C   0  0  0  0  0  3  0  0  0  0  0  0
  186.6840  178.1890  138.8580 C   0  0  0  0  0  3  0  0  0  0  0  0
  190.0890  176.7500  138.3960 N   0  0  0  0  0  1  0  0  0  0  0  0
  187.8360  177.4630  136.9080 F   0  0  0  0  0  0  0  0  0  0  0  0
  188.9110  177.5070  140.4190 C   0  0  0  0  0  0  0  0  0  0  0  0
  188.9350  177.3020  139.0270 C   0  0  0  0  0  0  0  0  0  0  0  0
  187.7640  178.0530  141.0150 C   0  0  0  0  0  3  0  0  0  0  0  0
  187.8200  177.6470  138.2520 C   0  0  0  0  0  0  0  0  0  0  0  0
  186.6410  178.3810  140.2440 C   0  0  0  0  0  0  0  0  0  0  0  0
  185.8220  179.8070  141.9500 F   0  0  0  0  0  0  0  0  0  0  0  0
  184.7700  179.7950  139.9460 O   0  0  0  0  0  1  0  0  0  0  0  0
  185.4390  179.0090  140.8860 C   0  0  0  0  0  0  0  0  0  0  0  0
  184.5780  178.0330  141.3560 F   0  0  0  0  0  0  0  0  0  0  0  0
  191.0800  176.1490  143.1770 C   0  0  0  0  0  3  0  0  0  0  0  0
  191.6050  176.9330  144.0780 N   0  0  0  0  0  0  0  0  0  0  0  0
  190.0730  178.2320  145.5290 N   0  0  0  0  0  2  0  0  0  0  0  0
  191.3920  179.2840  143.9020 N   0  0  0  0  0  2  0  0  0  0  0  0
  191.0980  178.1960  144.5350 C   0  0  0  0  0  0  0  0  0  0  0  0
  189.6530  177.0490  146.2670 C   0  0  0  0  0  2  0  0  0  0  0  0
  188.1700  177.1360  146.6240 C   0  0  1  0  0  3  0  0  0  0  0  0
  187.9190  177.5290  148.0820 C   0  0  0  0  0  2  0  0  0  0  0  0
  189.0020  178.3460  148.6060 N   0  0  0  0  0  1  0  0  0  0  0  0
  187.3750  177.9830  145.6290 C   0  0  0  0  0  2  0  0  0  0  0  0
  185.1590  178.9380  145.0650 C   0  0  0  0  0  1  0  0  0  0  0  0
  186.0560  178.4810  146.1970 C   0  0  0  0  0  2  0  0  0  0  0  0
  1 15  1  0  0  0  0
  2  1  2  0  0  0  0
  3 10  1  0  0  0  0
  4  7  1  0  0  0  0
  5  9  1  0  0  0  0
  6  8  1  0  0  0  0
  6  2  1  0  0  0  0
  7  6  2  0  0  0  0
  9  3  2  0  0  0  0
  9  7  1  0  0  0  0
 10 13  1  0  0  0  0
 10  8  2  0  0  0  0
 12 13  1  0  0  0  0
 13 14  1  0  0  0  0
 13 11  1  0  0  0  0
 15 16  2  0  0  0  0
 16 19  1  0  0  0  0
 17 20  1  0  0  0  0
 18 19  2  0  0  0  0
 19 17  1  0  0  0  0
 20 21  1  0  0  0  0
 21 24  1  6  0  0  0
 21 22  1  0  0  0  0
 22 23  1  0  0  0  0
 24 26  1  0  0  0  0
 25 26  1  0  0  0  0
M  END
>  <MODEL>
3

>  <REMARK>
 VINA RESULT:      -7.1      2.580      3.756
  Name = 
  9 active torsions:
  status: ('A' for Active; 'I' for Inactive)
    1  A    between atoms: C_3  and  C_24
    2  A    between atoms: N_5  and  C_17
    3  A    between atoms: C_6  and  C_18
    4  A    between atoms: C_6  and  C_24
    5  A    between atoms: C_7  and  N_10
    6  A    between atoms: C_13  and  C_21
    7  A    between atoms: C_17  and  C_24
    8  A    between atoms: C_19  and  C_22
    9  A    between atoms: C_23  and  N_26
                            x       y       z     vdW  Elec       q    Type
                         _______ _______ _______ _____ _____    ______ ____

>  <TORSDO>
F 9

$$$$
=
 OpenBabel10222416083D

 26 26  0  0  1  0  0  0  0  0999 V2000
  188.8150  176.2230  143.3530 N   0  0  0  0  0  0  0  0  0  0  0  0
  188.4570  176.7270  144.4920 C   0  0  0  0  0  3  0  0  0  0  0  0
  184.7210  178.7430  144.9760 C   0  0  0  0  0  3  0  0  0  0  0  0
  187.5450  177.5460  147.0890 N   0  0  0  0  0  1  0  0  0  0  0  0
  185.0840  178.8460  147.3240 F   0  0  0  0  0  0  0  0  0  0  0  0
  187.1750  177.4260  144.6600 C   0  0  0  0  0  0  0  0  0  0  0  0
  186.7430  177.8170  145.9400 C   0  0  0  0  0  0  0  0  0  0  0  0
  186.3680  177.7030  143.5460 C   0  0  0  0  0  3  0  0  0  0  0  0
  185.5150  178.4730  146.0920 C   0  0  0  0  0  0  0  0  0  0  0  0
  185.1480  178.3750  143.6950 C   0  0  0  0  0  0  0  0  0  0  0  0
  184.2080  177.4920  141.7060 F   0  0  0  0  0  0  0  0  0  0  0  0
  182.9830  178.9460  142.9340 O   0  0  0  0  0  1  0  0  0  0  0  0
  184.2700  178.6230  142.5020 C   0  0  0  0  0  0  0  0  0  0  0  0
  184.7700  179.6670  141.7440 F   0  0  0  0  0  0  0  0  0  0  0  0
  190.0570  175.5320  143.1550 C   0  0  0  0  0  3  0  0  0  0  0  0
  191.0940  176.0430  142.5520 N   0  0  0  0  0  0  0  0  0  0  0  0
  191.0810  177.7460  140.7520 N   0  0  0  0  0  2  0  0  0  0  0  0
  191.8160  178.2680  142.9150 N   0  0  0  0  0  2  0  0  0  0  0  0
  191.2700  177.4020  142.1250 C   0  0  0  0  0  0  0  0  0  0  0  0
  190.5070  176.8230  139.7830 C   0  0  0  0  0  2  0  0  0  0  0  0
  189.2070  177.3840  139.2080 C   0  0  1  0  0  3  0  0  0  0  0  0
  188.3170  178.0510  140.2590 C   0  0  0  0  0  2  0  0  0  0  0  0
  187.0690  178.5210  139.6790 N   0  0  0  0  0  1  0  0  0  0  0  0
  189.4410  178.2600  137.9760 C   0  0  0  0  0  2  0  0  0  0  0  0
  188.2100  176.4310  136.8450 C   0  0  0  0  0  1  0  0  0  0  0  0
  189.2670  177.5020  136.6700 C   0  0  0  0  0  2  0  0  0  0  0  0
  1  2  2  0  0  0  0
  2  6  1  0  0  0  0
  3  9  1  0  0  0  0
  6  7  1  0  0  0  0
  7  9  2  0  0  0  0
  7  4  1  0  0  0  0
  8 10  1  0  0  0  0
  8  6  2  0  0  0  0
  9  5  1  0  0  0  0
 10  3  2  0  0  0  0
 11 13  1  0  0  0  0
 13 12  1  0  0  0  0
 13 10  1  0  0  0  0
 14 13  1  0  0  0  0
 15  1  1  0  0  0  0
 16 15  2  0  0  0  0
 17 19  1  0  0  0  0
 19 16  1  0  0  0  0
 19 18  2  0  0  0  0
 20 17  1  0  0  0  0
 21 24  1  6  0  0  0
 21 20  1  0  0  0  0
 21 22  1  0  0  0  0
 23 22  1  0  0  0  0
 26 25  1  0  0  0  0
 26 24  1  0  0  0  0
M  END
>  <MODEL>
4

>  <REMARK>
 VINA RESULT:      -7.0      2.468      5.889
  Name = 
  9 active torsions:
  status: ('A' for Active; 'I' for Inactive)
    1  A    between atoms: C_3  and  C_24
    2  A    between atoms: N_5  and  C_17
    3  A    between atoms: C_6  and  C_18
    4  A    between atoms: C_6  and  C_24
    5  A    between atoms: C_7  and  N_10
    6  A    between atoms: C_13  and  C_21
    7  A    between atoms: C_17  and  C_24
    8  A    between atoms: C_19  and  C_22
    9  A    between atoms: C_23  and  N_26
                            x       y       z     vdW  Elec       q    Type
                         _______ _______ _______ _____ _____    ______ ____

>  <TORSDO>
F 9

$$$$
=
 OpenBabel10222416083D

 26 26  0  0  1  0  0  0  0  0999 V2000
  190.2810  178.4030  143.9980 N   0  0  0  0  0  0  0  0  0  0  0  0
  189.9770  177.6790  145.0290 C   0  0  0  0  0  3  0  0  0  0  0  0
  186.3710  178.2990  147.2360 C   0  0  0  0  0  3  0  0  0  0  0  0
  189.9360  177.4420  147.8910 N   0  0  0  0  0  1  0  0  0  0  0  0
  187.5360  177.8480  149.2590 F   0  0  0  0  0  0  0  0  0  0  0  0
  188.7390  177.8980  145.7900 C   0  0  0  0  0  0  0  0  0  0  0  0
  188.7380  177.7740  147.1910 C   0  0  0  0  0  0  0  0  0  0  0  0
  187.5470  178.2240  145.1260 C   0  0  0  0  0  3  0  0  0  0  0  0
  187.5510  177.9740  147.9080 C   0  0  0  0  0  0  0  0  0  0  0  0
  186.3640  178.4420  145.8430 C   0  0  0  0  0  0  0  0  0  0  0  0
  184.8470  177.7910  144.1420 F   0  0  0  0  0  0  0  0  0  0  0  0
  184.0250  178.7370  146.0260 O   0  0  0  0  0  1  0  0  0  0  0  0
  185.0840  178.7430  145.1180 C   0  0  0  0  0  0  0  0  0  0  0  0
  185.1540  179.9860  144.5120 F   0  0  0  0  0  0  0  0  0  0  0  0
  191.4790  178.2150  143.2300 C   0  0  0  0  0  3  0  0  0  0  0  0
  191.6710  177.2300  142.3970 N   0  0  0  0  0  0  0  0  0  0  0  0
  190.0360  176.4370  140.7120 N   0  0  0  0  0  2  0  0  0  0  0  0
  190.2760  175.3560  142.7770 N   0  0  0  0  0  2  0  0  0  0  0  0
  190.7070  176.2590  141.9600 C   0  0  0  0  0  0  0  0  0  0  0  0
  190.4310  177.4530  139.7450 C   0  0  0  0  0  2  0  0  0  0  0  0
  189.8570  177.1350  138.3650 C   0  0  1  0  0  3  0  0  0  0  0  0
  188.8770  178.1940  137.8580 C   0  0  0  0  0  2  0  0  0  0  0  0
  187.9680  178.6260  138.9090 N   0  0  0  0  0  1  0  0  0  0  0  0
  190.9420  176.7830  137.3460 C   0  0  0  0  0  2  0  0  0  0  0  0
  192.4460  174.8350  137.6310 C   0  0  0  0  0  1  0  0  0  0  0  0
  192.2250  176.2880  137.9940 C   0  0  0  0  0  2  0  0  0  0  0  0
  1  2  2  0  0  0  0
  2  6  1  0  0  0  0
  3  9  1  0  0  0  0
  6  7  1  0  0  0  0
  7  4  1  0  0  0  0
  7  9  2  0  0  0  0
  8  6  2  0  0  0  0
  8 10  1  0  0  0  0
  9  5  1  0  0  0  0
 10  3  2  0  0  0  0
 11 13  1  0  0  0  0
 13 10  1  0  0  0  0
 13 12  1  0  0  0  0
 14 13  1  0  0  0  0
 15  1  1  0  0  0  0
 16 15  2  0  0  0  0
 17 19  1  0  0  0  0
 19 16  1  0  0  0  0
 19 18  2  0  0  0  0
 20 17  1  0  0  0  0
 21 24  1  6  0  0  0
 21 20  1  0  0  0  0
 22 21  1  0  0  0  0
 22 23  1  0  0  0  0
 24 26  1  0  0  0  0
 25 26  1  0  0  0  0
M  END
>  <MODEL>
5

>  <REMARK>
 VINA RESULT:      -7.0      2.680      6.474
  Name = 
  9 active torsions:
  status: ('A' for Active; 'I' for Inactive)
    1  A    between atoms: C_3  and  C_24
    2  A    between atoms: N_5  and  C_17
    3  A    between atoms: C_6  and  C_18
    4  A    between atoms: C_6  and  C_24
    5  A    between atoms: C_7  and  N_10
    6  A    between atoms: C_13  and  C_21
    7  A    between atoms: C_17  and  C_24
    8  A    between atoms: C_19  and  C_22
    9  A    between atoms: C_23  and  N_26
                            x       y       z     vdW  Elec       q    Type
                         _______ _______ _______ _____ _____    ______ ____

>  <TORSDO>
F 9

$$$$
=
 OpenBabel10222416083D

 26 26  0  0  1  0  0  0  0  0999 V2000
  189.4500  176.6890  143.1350 N   0  0  0  0  0  0  0  0  0  0  0  0
  189.7150  176.9600  144.3750 C   0  0  0  0  0  3  0  0  0  0  0  0
  186.6760  178.2530  147.0860 C   0  0  0  0  0  3  0  0  0  0  0  0
  190.1600  176.9410  147.2120 N   0  0  0  0  0  1  0  0  0  0  0  0
  188.1180  177.7870  148.9180 F   0  0  0  0  0  0  0  0  0  0  0  0
  188.6730  177.4100  145.3080 C   0  0  0  0  0  0  0  0  0  0  0  0
  188.9080  177.3900  146.6950 C   0  0  0  0  0  0  0  0  0  0  0  0
  187.4330  177.8560  144.8260 C   0  0  0  0  0  3  0  0  0  0  0  0
  187.9060  177.8110  147.5790 C   0  0  0  0  0  0  0  0  0  0  0  0
  186.4360  178.2940  145.7070 C   0  0  0  0  0  0  0  0  0  0  0  0
  184.6850  177.8780  144.1650 F   0  0  0  0  0  0  0  0  0  0  0  0
  184.1600  178.6820  146.2150 O   0  0  0  0  0  1  0  0  0  0  0  0
  185.0970  178.7220  145.1820 C   0  0  0  0  0  0  0  0  0  0  0  0
  185.1650  180.0120  144.6830 F   0  0  0  0  0  0  0  0  0  0  0  0
  190.4410  176.2450  142.1980 C   0  0  0  0  0  3  0  0  0  0  0  0
  190.4190  176.5160  140.9220 N   0  0  0  0  0  0  0  0  0  0  0  0
  189.8010  177.7830  138.8840 N   0  0  0  0  0  2  0  0  0  0  0  0
  188.6320  178.0680  140.8950 N   0  0  0  0  0  2  0  0  0  0  0  0
  189.5330  177.4150  140.2380 C   0  0  0  0  0  0  0  0  0  0  0  0
  190.8210  177.1260  138.0790 C   0  0  0  0  0  2  0  0  0  0  0  0
  190.2680  176.7600  136.7020 C   0  0  1  0  0  3  0  0  0  0  0  0
  190.2190  175.2520  136.4500 C   0  0  0  0  0  2  0  0  0  0  0  0
  190.4520  174.4990  137.6730 N   0  0  0  0  0  1  0  0  0  0  0  0
  188.9450  177.4630  136.3960 C   0  0  0  0  0  2  0  0  0  0  0  0
  186.7960  176.5450  137.2210 C   0  0  0  0  0  1  0  0  0  0  0  0
  187.8130  176.4910  136.1000 C   0  0  0  0  0  2  0  0  0  0  0  0
  1  2  2  0  0  0  0
  2  6  1  0  0  0  0
  3  9  1  0  0  0  0
  6  7  1  0  0  0  0
  7  4  1  0  0  0  0
  7  9  2  0  0  0  0
  8  6  2  0  0  0  0
  8 10  1  0  0  0  0
  9  5  1  0  0  0  0
 10  3  2  0  0  0  0
 11 13  1  0  0  0  0
 13 10  1  0  0  0  0
 13 12  1  0  0  0  0
 14 13  1  0  0  0  0
 15  1  1  0  0  0  0
 16 15  2  0  0  0  0
 17 19  1  0  0  0  0
 19 18  2  0  0  0  0
 19 16  1  0  0  0  0
 20 17  1  0  0  0  0
 21 24  1  1  0  0  0
 21 20  1  0  0  0  0
 22 21  1  0  0  0  0
 22 23  1  0  0  0  0
 26 24  1  0  0  0  0
 26 25  1  0  0  0  0
M  END
>  <MODEL>
6

>  <REMARK>
 VINA RESULT:      -6.8      3.339      6.810
  Name = 
  9 active torsions:
  status: ('A' for Active; 'I' for Inactive)
    1  A    between atoms: C_3  and  C_24
    2  A    between atoms: N_5  and  C_17
    3  A    between atoms: C_6  and  C_18
    4  A    between atoms: C_6  and  C_24
    5  A    between atoms: C_7  and  N_10
    6  A    between atoms: C_13  and  C_21
    7  A    between atoms: C_17  and  C_24
    8  A    between atoms: C_19  and  C_22
    9  A    between atoms: C_23  and  N_26
                            x       y       z     vdW  Elec       q    Type
                         _______ _______ _______ _____ _____    ______ ____

>  <TORSDO>
F 9

$$$$
=
 OpenBabel10222416083D

 26 26  0  0  1  0  0  0  0  0999 V2000
  188.8080  177.8910  142.7310 N   0  0  0  0  0  0  0  0  0  0  0  0
  187.9500  177.6740  143.6780 C   0  0  0  0  0  3  0  0  0  0  0  0
  189.1790  177.1890  147.7420 C   0  0  0  0  0  3  0  0  0  0  0  0
  186.2290  178.4410  145.8460 N   0  0  0  0  0  1  0  0  0  0  0  0
  187.1110  178.1060  148.4730 F   0  0  0  0  0  0  0  0  0  0  0  0
  188.3690  177.5020  145.0770 C   0  0  0  0  0  0  0  0  0  0  0  0
  187.5130  177.8870  146.1250 C   0  0  0  0  0  0  0  0  0  0  0  0
  189.6270  176.9610  145.3780 C   0  0  0  0  0  3  0  0  0  0  0  0
  187.9250  177.7300  147.4550 C   0  0  0  0  0  0  0  0  0  0  0  0
  190.0330  176.7860  146.7080 C   0  0  0  0  0  0  0  0  0  0  0  0
  192.1430  176.1230  145.8570 F   0  0  0  0  0  0  0  0  0  0  0  0
  192.0560  177.1270  147.8830 O   0  0  0  0  0  1  0  0  0  0  0  0
  191.4010  176.2500  147.0180 C   0  0  0  0  0  0  0  0  0  0  0  0
  191.3070  175.0070  147.6180 F   0  0  0  0  0  0  0  0  0  0  0  0
  188.4340  178.0660  141.3570 C   0  0  0  0  0  3  0  0  0  0  0  0
  189.2350  177.8680  140.3470 N   0  0  0  0  0  0  0  0  0  0  0  0
  190.9180  176.3050  139.4170 N   0  0  0  0  0  2  0  0  0  0  0  0
  191.3240  177.4940  141.3950 N   0  0  0  0  0  2  0  0  0  0  0  0
  190.5510  177.2950  140.3790 C   0  0  0  0  0  0  0  0  0  0  0  0
  190.0910  175.9890  138.2600 C   0  0  0  0  0  2  0  0  0  0  0  0
  190.5780  176.7480  137.0270 C   0  0  1  0  0  3  0  0  0  0  0  0
  191.5280  175.9310  136.1480 C   0  0  0  0  0  2  0  0  0  0  0  0
  191.3080  174.5020  136.3110 N   0  0  0  0  0  1  0  0  0  0  0  0
  189.4330  177.3860  136.2410 C   0  0  0  0  0  2  0  0  0  0  0  0
  187.3550  178.6140  136.8050 C   0  0  0  0  0  1  0  0  0  0  0  0
  188.8660  178.6220  136.9210 C   0  0  0  0  0  2  0  0  0  0  0  0
  1  2  2  0  0  0  0
  2  6  1  0  0  0  0
  4  7  1  0  0  0  0
  6  8  2  0  0  0  0
  6  7  1  0  0  0  0
  7  9  2  0  0  0  0
  8 10  1  0  0  0  0
  9  3  1  0  0  0  0
  9  5  1  0  0  0  0
 10 13  1  0  0  0  0
 10  3  2  0  0  0  0
 11 13  1  0  0  0  0
 13 14  1  0  0  0  0
 13 12  1  0  0  0  0
 15  1  1  0  0  0  0
 16 19  1  0  0  0  0
 16 15  2  0  0  0  0
 17 19  1  0  0  0  0
 19 18  2  0  0  0  0
 20 17  1  0  0  0  0
 21 22  1  6  0  0  0
 21 20  1  0  0  0  0
 22 23  1  0  0  0  0
 24 26  1  0  0  0  0
 24 21  1  0  0  0  0
 25 26  1  0  0  0  0
M  END
>  <MODEL>
7

>  <REMARK>
 VINA RESULT:      -6.7      4.249      7.392
  Name = 
  9 active torsions:
  status: ('A' for Active; 'I' for Inactive)
    1  A    between atoms: C_3  and  C_24
    2  A    between atoms: N_5  and  C_17
    3  A    between atoms: C_6  and  C_18
    4  A    between atoms: C_6  and  C_24
    5  A    between atoms: C_7  and  N_10
    6  A    between atoms: C_13  and  C_21
    7  A    between atoms: C_17  and  C_24
    8  A    between atoms: C_19  and  C_22
    9  A    between atoms: C_23  and  N_26
                            x       y       z     vdW  Elec       q    Type
                         _______ _______ _______ _____ _____    ______ ____

>  <TORSDO>
F 9

$$$$
=
 OpenBabel10222416083D

 26 26  0  0  1  0  0  0  0  0999 V2000
  189.5600  177.3960  143.1400 N   0  0  0  0  0  0  0  0  0  0  0  0
  189.3280  176.8900  144.3100 C   0  0  0  0  0  3  0  0  0  0  0  0
  186.2300  178.3940  146.8400 C   0  0  0  0  0  3  0  0  0  0  0  0
  189.6380  176.9250  147.1650 N   0  0  0  0  0  1  0  0  0  0  0  0
  187.5610  177.9110  148.7510 F   0  0  0  0  0  0  0  0  0  0  0  0
  188.2660  177.4130  145.1820 C   0  0  0  0  0  0  0  0  0  0  0  0
  188.4340  177.4190  146.5780 C   0  0  0  0  0  0  0  0  0  0  0  0
  187.0730  177.9030  144.6300 C   0  0  0  0  0  3  0  0  0  0  0  0
  187.4130  177.9090  147.4020 C   0  0  0  0  0  0  0  0  0  0  0  0
  186.0580  178.4100  145.4510 C   0  0  0  0  0  0  0  0  0  0  0  0
  184.3160  177.9880  143.9000 F   0  0  0  0  0  0  0  0  0  0  0  0
  183.8060  179.0040  145.8570 O   0  0  0  0  0  1  0  0  0  0  0  0
  184.7660  178.8860  144.8520 C   0  0  0  0  0  0  0  0  0  0  0  0
  184.9410  180.1180  144.2460 F   0  0  0  0  0  0  0  0  0  0  0  0
  190.5850  176.9090  142.2620 C   0  0  0  0  0  3  0  0  0  0  0  0
  190.4650  176.8270  140.9660 N   0  0  0  0  0  0  0  0  0  0  0  0
  189.2770  176.9290  138.7930 N   0  0  0  0  0  2  0  0  0  0  0  0
  188.6810  178.3320  140.5730 N   0  0  0  0  0  2  0  0  0  0  0  0
  189.3960  177.3400  140.1560 C   0  0  0  0  0  0  0  0  0  0  0  0
  190.0670  175.8450  138.2280 C   0  0  0  0  0  2  0  0  0  0  0  0
  191.1900  176.3970  137.3510 C   0  0  1  0  0  3  0  0  0  0  0  0
  192.5610  175.7990  137.6740 C   0  0  0  0  0  2  0  0  0  0  0  0
  193.6300  176.7540  137.4240 N   0  0  0  0  0  1  0  0  0  0  0  0
  190.8490  176.3470  135.8610 C   0  0  0  0  0  2  0  0  0  0  0  0
  190.6440  174.0590  134.9300 C   0  0  0  0  0  1  0  0  0  0  0  0
  189.8790  175.2280  135.5140 C   0  0  0  0  0  2  0  0  0  0  0  0
  1  2  2  0  0  0  0
  2  6  1  0  0  0  0
  3  9  1  0  0  0  0
  6  7  1  0  0  0  0
  7  4  1  0  0  0  0
  7  9  2  0  0  0  0
  8  6  2  0  0  0  0
  8 10  1  0  0  0  0
  9  5  1  0  0  0  0
 10  3  2  0  0  0  0
 11 13  1  0  0  0  0
 13 10  1  0  0  0  0
 13 12  1  0  0  0  0
 14 13  1  0  0  0  0
 15  1  1  0  0  0  0
 16 15  2  0  0  0  0
 17 19  1  0  0  0  0
 19 18  2  0  0  0  0
 19 16  1  0  0  0  0
 20 17  1  0  0  0  0
 21 24  1  6  0  0  0
 21 22  1  0  0  0  0
 21 20  1  0  0  0  0
 23 22  1  0  0  0  0
 25 26  1  0  0  0  0
 26 24  1  0  0  0  0
M  END
>  <MODEL>
8

>  <REMARK>
 VINA RESULT:      -6.7      3.609      6.884
  Name = 
  9 active torsions:
  status: ('A' for Active; 'I' for Inactive)
    1  A    between atoms: C_3  and  C_24
    2  A    between atoms: N_5  and  C_17
    3  A    between atoms: C_6  and  C_18
    4  A    between atoms: C_6  and  C_24
    5  A    between atoms: C_7  and  N_10
    6  A    between atoms: C_13  and  C_21
    7  A    between atoms: C_17  and  C_24
    8  A    between atoms: C_19  and  C_22
    9  A    between atoms: C_23  and  N_26
                            x       y       z     vdW  Elec       q    Type
                         _______ _______ _______ _____ _____    ______ ____

>  <TORSDO>
F 9

$$$$
=
 OpenBabel10222416083D

 26 26  0  0  1  0  0  0  0  0999 V2000
  184.9880  178.9570  140.6720 N   0  0  0  0  0  0  0  0  0  0  0  0
  184.4240  179.0030  141.8370 C   0  0  0  0  0  3  0  0  0  0  0  0
  186.4560  177.7110  145.3670 C   0  0  0  0  0  3  0  0  0  0  0  0
  183.1610  179.1600  144.4120 N   0  0  0  0  0  1  0  0  0  0  0  0
  184.5610  178.3100  146.6730 F   0  0  0  0  0  0  0  0  0  0  0  0
  185.1190  178.5540  143.0520 C   0  0  0  0  0  0  0  0  0  0  0  0
  184.4850  178.6410  144.3050 C   0  0  0  0  0  0  0  0  0  0  0  0
  186.4220  178.0410  142.9740 C   0  0  0  0  0  3  0  0  0  0  0  0
  185.1590  178.2210  145.4580 C   0  0  0  0  0  0  0  0  0  0  0  0
  187.0910  177.6020  144.1240 C   0  0  0  0  0  0  0  0  0  0  0  0
  188.9720  176.7530  145.2900 F   0  0  0  0  0  0  0  0  0  0  0  0
  188.5440  175.9790  143.2060 O   0  0  0  0  0  1  0  0  0  0  0  0
  188.5030  177.1010  144.0350 C   0  0  0  0  0  0  0  0  0  0  0  0
  189.3300  178.0800  143.5130 F   0  0  0  0  0  0  0  0  0  0  0  0
  184.3410  179.3900  139.4670 C   0  0  0  0  0  3  0  0  0  0  0  0
  184.3350  178.7130  138.3520 N   0  0  0  0  0  0  0  0  0  0  0  0
  186.0860  177.1570  137.5440 N   0  0  0  0  0  2  0  0  0  0  0  0
  184.0050  176.3710  138.2800 N   0  0  0  0  0  2  0  0  0  0  0  0
  184.8080  177.3740  138.1440 C   0  0  0  0  0  0  0  0  0  0  0  0
  187.0410  178.2330  137.3190 C   0  0  0  0  0  2  0  0  0  0  0  0
  188.4520  177.7900  137.7030 C   0  0  1  0  0  3  0  0  0  0  0  0
  189.4000  177.6810  136.5070 C   0  0  0  0  0  2  0  0  0  0  0  0
  190.3920  176.6360  136.7070 N   0  0  0  0  0  1  0  0  0  0  0  0
  189.0310  178.6110  138.8550 C   0  0  0  0  0  2  0  0  0  0  0  0
  190.3040  177.0650  140.3160 C   0  0  0  0  0  1  0  0  0  0  0  0
  189.0230  177.8620  140.1780 C   0  0  0  0  0  2  0  0  0  0  0  0
  1  2  2  0  0  0  0
  2  6  1  0  0  0  0
  3  9  1  0  0  0  0
  6  7  1  0  0  0  0
  7  4  1  0  0  0  0
  7  9  2  0  0  0  0
  8  6  2  0  0  0  0
  8 10  1  0  0  0  0
  9  5  1  0  0  0  0
 10  3  2  0  0  0  0
 12 13  1  0  0  0  0
 13 10  1  0  0  0  0
 13 11  1  0  0  0  0
 14 13  1  0  0  0  0
 15  1  1  0  0  0  0
 16 15  2  0  0  0  0
 17 19  1  0  0  0  0
 19 18  2  0  0  0  0
 19 16  1  0  0  0  0
 20 17  1  0  0  0  0
 20 21  1  0  0  0  0
 21 22  1  6  0  0  0
 21 24  1  0  0  0  0
 22 23  1  0  0  0  0
 24 26  1  0  0  0  0
 26 25  1  0  0  0  0
M  END
>  <MODEL>
9

>  <REMARK>
 VINA RESULT:      -6.7      4.432      7.160
  Name = 
  9 active torsions:
  status: ('A' for Active; 'I' for Inactive)
    1  A    between atoms: C_3  and  C_24
    2  A    between atoms: N_5  and  C_17
    3  A    between atoms: C_6  and  C_18
    4  A    between atoms: C_6  and  C_24
    5  A    between atoms: C_7  and  N_10
    6  A    between atoms: C_13  and  C_21
    7  A    between atoms: C_17  and  C_24
    8  A    between atoms: C_19  and  C_22
    9  A    between atoms: C_23  and  N_26
                            x       y       z     vdW  Elec       q    Type
                         _______ _______ _______ _____ _____    ______ ____

>  <TORSDO>
F 9

$$$$
