=
 OpenBabel10222420223D

 47 53  0  0  1  0  0  0  0  0999 V2000
  183.4490  177.6900  138.5980 C   0  0  2  0  0  3  0  0  0  0  0  0
  183.0300  178.3220  141.0020 C   0  0  0  0  0  3  0  0  0  0  0  0
  185.6780  178.1800  142.6100 C   0  0  0  0  0  3  0  0  0  0  0  0
  186.9180  178.0900  136.5020 S   0  0  0  0  0  0  0  0  0  0  0  0
  186.9430  178.7720  138.2110 C   0  0  1  0  0  3  0  0  0  0  0  0
  183.7620  178.4050  139.8940 C   0  0  0  0  0  0  0  0  0  0  0  0
  187.5110  178.0010  140.4780 O   0  0  0  0  0  0  0  0  0  0  0  0
  188.3950  177.4880  141.4370 C   0  0  0  0  0  0  0  0  0  0  0  0
  185.5430  178.8650  138.5820 N   0  0  0  0  0  0  0  0  0  0  0  0
  190.6050  176.6300  141.9960 C   0  0  0  0  0  3  0  0  0  0  0  0
  185.0210  179.0820  139.8530 N   0  0  0  0  0  2  0  0  0  0  0  0
  184.6890  178.0450  137.8420 C   0  0  0  0  0  0  0  0  0  0  0  0
  187.9940  177.3050  142.7860 C   0  0  0  0  0  0  0  0  0  0  0  0
  187.6960  177.7660  139.0830 C   0  0  0  0  0  2  0  0  0  0  0  0
  185.2320  177.4910  136.7770 C   0  0  0  0  0  0  0  0  0  0  0  0
  186.6360  177.5700  143.2980 C   0  0  0  0  0  3  0  0  0  0  0  0
  189.7050  177.1430  141.0620 C   0  0  0  0  0  3  0  0  0  0  0  0
  183.4300  178.9990  142.1950 N   0  0  0  0  0  2  0  0  0  0  0  0
  188.9090  176.7830  143.7090 C   0  0  0  0  0  3  0  0  0  0  0  0
  190.2110  176.4480  143.3280 C   0  0  0  0  0  0  0  0  0  0  0  0
  184.3060  178.3850  143.1840 C   0  0  2  0  0  3  0  0  0  0  0  0
  186.0020  174.3510  135.2060 C   0  0  0  0  0  3  0  0  0  0  0  0
  185.3020  175.3690  135.6190 C   0  0  0  0  0  0  0  0  0  0  0  0
  184.6070  176.3920  136.0340 C   0  0  0  0  0  3  0  0  0  0  0  0
  188.1770  170.4170  136.0980 C   0  0  0  0  0  1  0  0  0  0  0  0
  187.4640  171.3900  135.2690 N   0  0  0  0  0  0  0  0  0  0  0  0
  188.3670  172.4410  134.7640 C   0  0  2  0  0  3  0  0  0  0  0  0
  186.5330  172.0730  136.1740 C   0  0  1  0  0  3  0  0  0  0  0  0
  186.8500  173.5780  136.1680 C   0  0  1  0  0  3  0  0  0  0  0  0
  189.7490  171.9970  134.5940 N   0  0  0  0  0  1  0  0  0  0  0  0
  188.2770  173.6310  135.6930 C   0  0  0  0  0  2  0  0  0  0  0  0
  184.9110  170.2600  135.4150 C   0  0  0  0  0  2  0  0  0  0  0  0
  185.0640  171.7100  135.8950 C   0  0  0  0  0  3  0  0  0  0  0  0
  182.5650  170.8900  135.7070 O   0  0  0  0  0  0  0  0  0  0  0  0
  184.2030  171.9570  137.1450 C   0  0  0  0  0  2  0  0  0  0  0  0
  183.4350  169.8240  135.3960 C   0  0  0  0  0  2  0  0  0  0  0  0
  182.8390  171.2570  137.0390 C   0  0  0  0  0  2  0  0  0  0  0  0
  184.3480  179.2490  144.4040 C   0  0  0  0  0  0  0  0  0  0  0  0
  184.6010  180.4780  144.2790 O   0  0  0  0  0  0  0  0  0  0  0  0
  185.2140  178.6100  146.6200 C   0  0  0  0  0  1  0  0  0  0  0  0
  184.1630  178.6840  145.6690 O   0  0  0  0  0  0  0  0  0  0  0  0
  182.2410  178.3120  137.9110 C   0  0  0  0  0  2  0  0  0  0  0  0
  180.9600  177.6960  138.4400 C   0  0  0  0  0  1  0  0  0  0  0  0
  191.0870  175.9380  144.2900 O   0  0  0  0  0  0  0  0  0  0  0  0
  191.6290  176.7330  145.3350 C   0  0  2  0  0  3  0  0  0  0  0  0
  192.0060  175.8700  146.4730 C   0  0  0  0  0  2  0  0  0  0  0  0
  190.8140  176.6170  146.4770 O   0  0  0  0  0  0  0  0  0  0  0  0
  1 42  1  6  0  0  0
  1  6  1  0  0  0  0
  2 18  1  0  0  0  0
  3 21  1  0  0  0  0
  3 16  2  0  0  0  0
  4 15  1  0  0  0  0
  4  5  1  0  0  0  0
  5  9  1  0  0  0  0
  5 14  1  1  0  0  0
  6  2  2  0  0  0  0
  7  8  1  0  0  0  0
  8 13  1  0  0  0  0
  9 11  1  0  0  0  0
 10 20  2  0  0  0  0
 11  6  1  0  0  0  0
 12  9  1  0  0  0  0
 12  1  1  0  0  0  0
 13 16  1  0  0  0  0
 13 19  2  0  0  0  0
 14  7  1  0  0  0  0
 15 12  2  0  0  0  0
 17  8  2  0  0  0  0
 17 10  1  0  0  0  0
 18 21  1  0  0  0  0
 20 19  1  0  0  0  0
 20 44  1  0  0  0  0
 21 38  1  1  0  0  0
 22 23  2  0  0  0  0
 23 24  2  0  0  0  0
 24 15  1  0  0  0  0
 26 25  1  0  0  0  0
 26 28  1  0  0  0  0
 27 30  1  1  0  0  0
 27 26  1  0  0  0  0
 27 31  1  0  0  0  0
 28 33  1  6  0  0  0
 29 22  1  6  0  0  0
 29 28  1  0  0  0  0
 31 29  1  0  0  0  0
 32 33  1  0  0  0  0
 33 35  1  0  0  0  0
 34 37  1  0  0  0  0
 36 32  1  0  0  0  0
 36 34  1  0  0  0  0
 37 35  1  0  0  0  0
 38 41  1  0  0  0  0
 39 38  2  0  0  0  0
 41 40  1  0  0  0  0
 42 43  1  0  0  0  0
 45 44  1  6  0  0  0
 45 46  1  0  0  0  0
 45 47  1  0  0  0  0
 46 47  1  0  0  0  0
M  END
>  <MODEL>
1

>  <REMARK>
 VINA RESULT:      -8.1      0.000      0.000
  Name = 
  8 active torsions:
  status: ('A' for Active; 'I' for Inactive)
    1  A    between atoms: C_1  and  C_28
    2  A    between atoms: C_16  and  O_44
    3  A    between atoms: C_18  and  C_19
    4  A    between atoms: C_20  and  C_26
    5  A    between atoms: C_22  and  O_32
    6  A    between atoms: C_22  and  C_45
    7  A    between atoms: C_31  and  C_43
    8  A    between atoms: C_42  and  O_44
                            x       y       z     vdW  Elec       q    Type
                         _______ _______ _______ _____ _____    ______ ____

>  <TORSDO>
F 8

$$$$
=
 OpenBabel10222420223D

 47 53  0  0  1  0  0  0  0  0999 V2000
  184.5930  177.7280  142.4930 C   0  0  2  0  0  3  0  0  0  0  0  0
  186.7620  177.8210  143.7750 C   0  0  0  0  0  3  0  0  0  0  0  0
  189.1580  177.7120  141.8090 C   0  0  0  0  0  3  0  0  0  0  0  0
  183.9190  178.9730  138.6750 S   0  0  0  0  0  0  0  0  0  0  0  0
  185.6060  179.3070  139.3290 C   0  0  1  0  0  3  0  0  0  0  0  0
  186.0030  178.2110  142.7540 C   0  0  0  0  0  0  0  0  0  0  0  0
  187.7980  178.1890  139.3880 O   0  0  0  0  0  0  0  0  0  0  0  0
  188.9250  177.6180  138.7810 C   0  0  0  0  0  0  0  0  0  0  0  0
  185.4740  179.1430  140.7660 N   0  0  0  0  0  0  0  0  0  0  0  0
  190.0970  176.9600  136.7490 C   0  0  0  0  0  3  0  0  0  0  0  0
  186.4990  179.0400  141.7000 N   0  0  0  0  0  2  0  0  0  0  0  0
  184.3760  178.3800  141.1650 C   0  0  0  0  0  0  0  0  0  0  0  0
  190.0090  177.1260  139.5520 C   0  0  0  0  0  0  0  0  0  0  0  0
  186.5380  178.2560  138.7230 C   0  0  0  0  0  2  0  0  0  0  0  0
  183.5020  178.1190  140.2150 C   0  0  0  0  0  0  0  0  0  0  0  0
  190.0460  177.1080  141.0280 C   0  0  0  0  0  3  0  0  0  0  0  0
  188.9880  177.5240  137.3800 C   0  0  0  0  0  3  0  0  0  0  0  0
  188.1010  178.2990  143.9150 N   0  0  0  0  0  2  0  0  0  0  0  0
  191.1120  176.5570  138.9030 C   0  0  0  0  0  3  0  0  0  0  0  0
  191.1670  176.4730  137.5100 C   0  0  0  0  0  0  0  0  0  0  0  0
  189.2380  177.6220  143.3060 C   0  0  2  0  0  3  0  0  0  0  0  0
  182.0460  175.3090  138.5110 C   0  0  0  0  0  3  0  0  0  0  0  0
  182.2420  176.2090  139.4310 C   0  0  0  0  0  0  0  0  0  0  0  0
  182.4420  177.1140  140.3500 C   0  0  0  0  0  3  0  0  0  0  0  0
  184.1470  173.3280  134.9510 C   0  0  0  0  0  1  0  0  0  0  0  0
  183.2060  174.2350  135.6100 N   0  0  0  0  0  0  0  0  0  0  0  0
  183.8630  175.4840  136.0390 C   0  0  2  0  0  3  0  0  0  0  0  0
  182.8030  173.5570  136.8470 C   0  0  1  0  0  3  0  0  0  0  0  0
  183.1780  174.4470  138.0450 C   0  0  1  0  0  3  0  0  0  0  0  0
  185.0040  175.8630  135.2090 N   0  0  0  0  0  1  0  0  0  0  0  0
  184.2580  175.3370  137.4920 C   0  0  0  0  0  2  0  0  0  0  0  0
  180.6000  173.5900  135.5660 C   0  0  0  0  0  2  0  0  0  0  0  0
  181.3400  173.0850  136.8120 C   0  0  0  0  0  3  0  0  0  0  0  0
  178.9310  172.0610  136.4930 O   0  0  0  0  0  0  0  0  0  0  0  0
  181.2680  171.5510  136.8960 C   0  0  0  0  0  2  0  0  0  0  0  0
  179.2340  172.9010  135.4010 C   0  0  0  0  0  2  0  0  0  0  0  0
  179.8850  171.0260  136.4810 C   0  0  0  0  0  2  0  0  0  0  0  0
  190.5040  178.2310  143.8220 C   0  0  0  0  0  0  0  0  0  0  0  0
  190.7690  179.4300  143.5390 O   0  0  0  0  0  0  0  0  0  0  0  0
  191.6070  176.0790  144.2870 C   0  0  0  0  0  1  0  0  0  0  0  0
  191.4020  177.4560  144.5610 O   0  0  0  0  0  0  0  0  0  0  0  0
  183.6210  178.3100  143.5100 C   0  0  0  0  0  2  0  0  0  0  0  0
  184.1670  179.6050  144.0800 C   0  0  0  0  0  1  0  0  0  0  0  0
  192.2950  175.9030  136.9100 O   0  0  0  0  0  0  0  0  0  0  0  0
  193.6150  176.3650  137.1600 C   0  0  2  0  0  3  0  0  0  0  0  0
  194.5920  175.3940  136.6270 C   0  0  0  0  0  2  0  0  0  0  0  0
  194.2770  175.4480  137.9970 O   0  0  0  0  0  0  0  0  0  0  0  0
  1  6  1  0  0  0  0
  1 42  1  1  0  0  0
  2 18  1  0  0  0  0
  3 21  1  0  0  0  0
  4  5  1  0  0  0  0
  4 15  1  0  0  0  0
  5 14  1  6  0  0  0
  5  9  1  0  0  0  0
  6  2  2  0  0  0  0
  8  7  1  0  0  0  0
  8 13  1  0  0  0  0
  9 12  1  0  0  0  0
  9 11  1  0  0  0  0
 10 17  1  0  0  0  0
 10 20  2  0  0  0  0
 11  6  1  0  0  0  0
 12  1  1  0  0  0  0
 13 16  1  0  0  0  0
 14  7  1  0  0  0  0
 15 24  1  0  0  0  0
 15 12  2  0  0  0  0
 16  3  2  0  0  0  0
 17  8  2  0  0  0  0
 19 13  2  0  0  0  0
 20 19  1  0  0  0  0
 21 38  1  1  0  0  0
 21 18  1  0  0  0  0
 22 23  2  0  0  0  0
 23 24  2  0  0  0  0
 25 26  1  0  0  0  0
 26 27  1  0  0  0  0
 26 28  1  0  0  0  0
 27 30  1  6  0  0  0
 27 31  1  0  0  0  0
 28 33  1  6  0  0  0
 28 29  1  0  0  0  0
 29 22  1  6  0  0  0
 31 29  1  0  0  0  0
 32 33  1  0  0  0  0
 33 35  1  0  0  0  0
 36 32  1  0  0  0  0
 36 34  1  0  0  0  0
 37 34  1  0  0  0  0
 37 35  1  0  0  0  0
 38 41  1  0  0  0  0
 39 38  2  0  0  0  0
 40 41  1  0  0  0  0
 42 43  1  0  0  0  0
 44 20  1  0  0  0  0
 45 44  1  6  0  0  0
 45 47  1  0  0  0  0
 46 45  1  0  0  0  0
 46 47  1  0  0  0  0
M  END
>  <MODEL>
2

>  <REMARK>
 VINA RESULT:      -7.6      3.031      5.175
  Name = 
  8 active torsions:
  status: ('A' for Active; 'I' for Inactive)
    1  A    between atoms: C_1  and  C_28
    2  A    between atoms: C_16  and  O_44
    3  A    between atoms: C_18  and  C_19
    4  A    between atoms: C_20  and  C_26
    5  A    between atoms: C_22  and  O_32
    6  A    between atoms: C_22  and  C_45
    7  A    between atoms: C_31  and  C_43
    8  A    between atoms: C_42  and  O_44
                            x       y       z     vdW  Elec       q    Type
                         _______ _______ _______ _____ _____    ______ ____

>  <TORSDO>
F 8

$$$$
=
 OpenBabel10222420223D

 47 53  0  0  1  0  0  0  0  0999 V2000
  189.1280  174.9670  137.6600 C   0  0  2  0  0  3  0  0  0  0  0  0
  187.3800  173.3670  136.8020 C   0  0  0  0  0  3  0  0  0  0  0  0
  184.5670  174.6500  137.0360 C   0  0  0  0  0  3  0  0  0  0  0  0
  188.9430  179.0350  137.7230 S   0  0  0  0  0  0  0  0  0  0  0  0
  187.5240  178.1920  136.9100 C   0  0  1  0  0  3  0  0  0  0  0  0
  187.8930  174.5930  136.8710 C   0  0  0  0  0  0  0  0  0  0  0  0
  185.3100  177.3200  137.5400 O   0  0  0  0  0  0  0  0  0  0  0  0
  184.0110  177.4610  138.0460 C   0  0  0  0  0  0  0  0  0  0  0  0
  187.9980  176.8400  136.6700 N   0  0  0  0  0  0  0  0  0  0  0  0
  182.2970  178.8800  139.0390 C   0  0  0  0  0  3  0  0  0  0  0  0
  187.2390  175.7330  136.3080 N   0  0  0  0  0  2  0  0  0  0  0  0
  189.0720  176.4500  137.4730 C   0  0  0  0  0  0  0  0  0  0  0  0
  183.1110  176.3650  138.0850 C   0  0  0  0  0  0  0  0  0  0  0  0
  186.3600  178.2160  137.9010 C   0  0  0  0  0  2  0  0  0  0  0  0
  189.6420  177.4230  138.1540 C   0  0  0  0  0  0  0  0  0  0  0  0
  183.4490  174.9910  137.6660 C   0  0  0  0  0  3  0  0  0  0  0  0
  183.5850  178.7110  138.5290 C   0  0  0  0  0  3  0  0  0  0  0  0
  186.1810  173.1170  136.0670 N   0  0  0  0  0  2  0  0  0  0  0  0
  181.8250  176.5510  138.6060 C   0  0  0  0  0  3  0  0  0  0  0  0
  181.4080  177.7980  139.0790 C   0  0  0  0  0  0  0  0  0  0  0  0
  184.8600  173.2240  136.6700 C   0  0  2  0  0  3  0  0  0  0  0  0
  189.8650  177.4920  141.7410 C   0  0  0  0  0  3  0  0  0  0  0  0
  190.2270  177.3400  140.4990 C   0  0  0  0  0  0  0  0  0  0  0  0
  190.5840  177.1900  139.2530 C   0  0  0  0  0  3  0  0  0  0  0  0
  186.3500  177.5640  144.6810 C   0  0  0  0  0  1  0  0  0  0  0  0
  187.4800  178.1230  143.9380 N   0  0  0  0  0  0  0  0  0  0  0  0
  187.0920  178.5220  142.5730 C   0  0  2  0  0  3  0  0  0  0  0  0
  188.4280  177.0160  143.7700 C   0  0  1  0  0  3  0  0  0  0  0  0
  188.6560  176.7820  142.2670 C   0  0  1  0  0  3  0  0  0  0  0  0
  185.6900  178.9150  142.4510 N   0  0  0  0  0  1  0  0  0  0  0  0
  187.4340  177.3880  141.6320 C   0  0  0  0  0  2  0  0  0  0  0  0
  189.4200  177.1410  146.1140 C   0  0  0  0  0  2  0  0  0  0  0  0
  189.7060  177.1990  144.6080 C   0  0  0  0  0  3  0  0  0  0  0  0
  191.8660  177.1710  146.1190 O   0  0  0  0  0  0  0  0  0  0  0  0
  190.7590  176.1480  144.2180 C   0  0  0  0  0  2  0  0  0  0  0  0
  190.7200  177.0550  146.9340 C   0  0  0  0  0  2  0  0  0  0  0  0
  191.8730  176.0470  145.2720 C   0  0  0  0  0  2  0  0  0  0  0  0
  183.8410  172.6840  135.7170 C   0  0  0  0  0  0  0  0  0  0  0  0
  183.6660  173.2640  134.6110 O   0  0  0  0  0  0  0  0  0  0  0  0
  183.6130  170.2830  136.2190 C   0  0  0  0  0  1  0  0  0  0  0  0
  183.0590  171.5830  136.0770 O   0  0  0  0  0  0  0  0  0  0  0  0
  190.3850  174.4200  136.9960 C   0  0  0  0  0  2  0  0  0  0  0  0
  190.5250  174.9790  135.5930 C   0  0  0  0  0  1  0  0  0  0  0  0
  180.1100  177.9320  139.5810 O   0  0  0  0  0  0  0  0  0  0  0  0
  179.7310  177.4620  140.8670 C   0  0  2  0  0  3  0  0  0  0  0  0
  179.1480  178.5710  141.6510 C   0  0  0  0  0  2  0  0  0  0  0  0
  180.4750  178.1450  141.8480 O   0  0  0  0  0  0  0  0  0  0  0  0
  1 42  1  6  0  0  0
  2  6  2  0  0  0  0
  3 16  2  0  0  0  0
  4 15  1  0  0  0  0
  5  4  1  0  0  0  0
  5 14  1  1  0  0  0
  6  1  1  0  0  0  0
  7 14  1  0  0  0  0
  7  8  1  0  0  0  0
  8 13  2  0  0  0  0
  8 17  1  0  0  0  0
  9  5  1  0  0  0  0
  9 12  1  0  0  0  0
 10 20  1  0  0  0  0
 11  9  1  0  0  0  0
 11  6  1  0  0  0  0
 12  1  1  0  0  0  0
 12 15  2  0  0  0  0
 13 19  1  0  0  0  0
 15 24  1  0  0  0  0
 16 13  1  0  0  0  0
 17 10  2  0  0  0  0
 18 21  1  0  0  0  0
 18  2  1  0  0  0  0
 19 20  2  0  0  0  0
 20 44  1  0  0  0  0
 21 38  1  6  0  0  0
 21  3  1  0  0  0  0
 23 22  2  0  0  0  0
 24 23  2  0  0  0  0
 26 25  1  0  0  0  0
 27 30  1  1  0  0  0
 27 26  1  0  0  0  0
 28 26  1  0  0  0  0
 28 33  1  1  0  0  0
 29 22  1  6  0  0  0
 29 28  1  0  0  0  0
 31 29  1  0  0  0  0
 31 27  1  0  0  0  0
 32 36  1  0  0  0  0
 33 32  1  0  0  0  0
 34 36  1  0  0  0  0
 35 33  1  0  0  0  0
 35 37  1  0  0  0  0
 37 34  1  0  0  0  0
 38 41  1  0  0  0  0
 39 38  2  0  0  0  0
 41 40  1  0  0  0  0
 43 42  1  0  0  0  0
 45 44  1  6  0  0  0
 45 46  1  0  0  0  0
 45 47  1  0  0  0  0
 46 47  1  0  0  0  0
M  END
>  <MODEL>
3

>  <REMARK>
 VINA RESULT:      -7.5      2.422      9.434
  Name = 
  8 active torsions:
  status: ('A' for Active; 'I' for Inactive)
    1  A    between atoms: C_1  and  C_28
    2  A    between atoms: C_16  and  O_44
    3  A    between atoms: C_18  and  C_19
    4  A    between atoms: C_20  and  C_26
    5  A    between atoms: C_22  and  O_32
    6  A    between atoms: C_22  and  C_45
    7  A    between atoms: C_31  and  C_43
    8  A    between atoms: C_42  and  O_44
                            x       y       z     vdW  Elec       q    Type
                         _______ _______ _______ _____ _____    ______ ____

>  <TORSDO>
F 8

$$$$
=
 OpenBabel10222420223D

 47 53  0  0  1  0  0  0  0  0999 V2000
  185.0950  177.3310  138.4190 C   0  0  2  0  0  3  0  0  0  0  0  0
  183.8330  177.9480  140.5120 C   0  0  0  0  0  3  0  0  0  0  0  0
  185.8070  178.2680  142.8820 C   0  0  0  0  0  3  0  0  0  0  0  0
  188.9620  178.2250  137.5060 S   0  0  0  0  0  0  0  0  0  0  0  0
  188.3340  178.9450  139.0790 C   0  0  1  0  0  3  0  0  0  0  0  0
  184.8660  178.1180  139.6910 C   0  0  0  0  0  0  0  0  0  0  0  0
  188.2390  178.3300  141.4600 O   0  0  0  0  0  0  0  0  0  0  0  0
  188.8270  177.9870  142.6860 C   0  0  0  0  0  0  0  0  0  0  0  0
  186.8910  178.8230  138.9800 N   0  0  0  0  0  0  0  0  0  0  0  0
  190.8340  177.5050  143.9790 C   0  0  0  0  0  3  0  0  0  0  0  0
  185.9590  178.9860  140.0000 N   0  0  0  0  0  2  0  0  0  0  0  0
  186.4500  177.8600  138.0710 C   0  0  0  0  0  0  0  0  0  0  0  0
  188.0410  177.7770  143.8480 C   0  0  0  0  0  0  0  0  0  0  0  0
  188.8980  178.0930  140.2180 C   0  0  0  0  0  2  0  0  0  0  0  0
  187.3820  177.3730  137.2770 C   0  0  0  0  0  0  0  0  0  0  0  0
  186.5660  177.8340  143.8820 C   0  0  0  0  0  3  0  0  0  0  0  0
  190.2230  177.8450  142.7720 C   0  0  0  0  0  3  0  0  0  0  0  0
  183.7230  178.7090  141.7160 N   0  0  0  0  0  2  0  0  0  0  0  0
  188.6710  177.4290  145.0490 C   0  0  0  0  0  3  0  0  0  0  0  0
  190.0590  177.2960  145.1260 C   0  0  0  0  0  0  0  0  0  0  0  0
  184.3090  178.2660  142.9750 C   0  0  2  0  0  3  0  0  0  0  0  0
  189.2180  174.9640  135.3410 C   0  0  0  0  0  3  0  0  0  0  0  0
  188.2050  175.5640  135.8990 C   0  0  0  0  0  0  0  0  0  0  0  0
  187.1950  176.1710  136.4590 C   0  0  0  0  0  3  0  0  0  0  0  0
  193.2560  172.7990  135.4450 C   0  0  0  0  0  1  0  0  0  0  0  0
  192.0850  173.4100  134.8150 N   0  0  0  0  0  0  0  0  0  0  0  0
  192.2240  174.8740  134.7100 C   0  0  2  0  0  3  0  0  0  0  0  0
  190.9730  173.1850  135.7460 C   0  0  1  0  0  3  0  0  0  0  0  0
  190.3960  174.5480  136.1670 C   0  0  1  0  0  3  0  0  0  0  0  0
  193.6080  175.3270  134.5990 N   0  0  0  0  0  1  0  0  0  0  0  0
  191.5270  175.5030  135.8970 C   0  0  0  0  0  2  0  0  0  0  0  0
  190.5800  170.8070  134.9200 C   0  0  0  0  0  2  0  0  0  0  0  0
  189.9460  172.1750  135.2080 C   0  0  0  0  0  3  0  0  0  0  0  0
  188.2120  170.2840  134.5970 O   0  0  0  0  0  0  0  0  0  0  0  0
  188.7710  172.0280  136.1890 C   0  0  0  0  0  2  0  0  0  0  0  0
  189.5110  169.7350  134.6410 C   0  0  0  0  0  2  0  0  0  0  0  0
  187.9380  170.7720  135.8900 C   0  0  0  0  0  2  0  0  0  0  0  0
  183.8290  179.1560  144.0780 C   0  0  0  0  0  0  0  0  0  0  0  0
  183.7090  180.3920  143.8620 O   0  0  0  0  0  0  0  0  0  0  0  0
  184.5300  178.6800  146.3900 C   0  0  0  0  0  1  0  0  0  0  0  0
  183.5720  178.6240  145.3440 O   0  0  0  0  0  0  0  0  0  0  0  0
  184.1000  177.7360  137.3410 C   0  0  0  0  0  2  0  0  0  0  0  0
  183.2890  176.5350  136.8940 C   0  0  0  0  0  1  0  0  0  0  0  0
  190.6390  176.9550  146.3520 O   0  0  0  0  0  0  0  0  0  0  0  0
  191.9000  176.3070  146.4520 C   0  0  2  0  0  3  0  0  0  0  0  0
  191.8620  175.3110  147.5420 C   0  0  0  0  0  2  0  0  0  0  0  0
  192.4580  176.5720  147.7170 O   0  0  0  0  0  0  0  0  0  0  0  0
  1 42  1  6  0  0  0
  1  6  1  0  0  0  0
  2 18  1  0  0  0  0
  3 21  1  0  0  0  0
  3 16  2  0  0  0  0
  4  5  1  0  0  0  0
  5 14  1  1  0  0  0
  6 11  1  0  0  0  0
  6  2  2  0  0  0  0
  7  8  1  0  0  0  0
  8 17  2  0  0  0  0
  8 13  1  0  0  0  0
  9  5  1  0  0  0  0
  9 11  1  0  0  0  0
 10 20  2  0  0  0  0
 12  1  1  0  0  0  0
 12  9  1  0  0  0  0
 13 16  1  0  0  0  0
 13 19  2  0  0  0  0
 14  7  1  0  0  0  0
 15  4  1  0  0  0  0
 15 12  2  0  0  0  0
 17 10  1  0  0  0  0
 18 21  1  0  0  0  0
 19 20  1  0  0  0  0
 20 44  1  0  0  0  0
 21 38  1  1  0  0  0
 22 23  2  0  0  0  0
 23 24  2  0  0  0  0
 24 15  1  0  0  0  0
 26 25  1  0  0  0  0
 26 28  1  0  0  0  0
 27 30  1  1  0  0  0
 27 26  1  0  0  0  0
 27 31  1  0  0  0  0
 28 33  1  6  0  0  0
 28 29  1  0  0  0  0
 29 22  1  6  0  0  0
 31 29  1  0  0  0  0
 32 33  1  0  0  0  0
 33 35  1  0  0  0  0
 34 36  1  0  0  0  0
 34 37  1  0  0  0  0
 36 32  1  0  0  0  0
 37 35  1  0  0  0  0
 38 41  1  0  0  0  0
 39 38  2  0  0  0  0
 41 40  1  0  0  0  0
 43 42  1  0  0  0  0
 45 44  1  1  0  0  0
 45 46  1  0  0  0  0
 45 47  1  0  0  0  0
 46 47  1  0  0  0  0
M  END
>  <MODEL>
4

>  <REMARK>
 VINA RESULT:      -6.9      2.231      3.034
  Name = 
  8 active torsions:
  status: ('A' for Active; 'I' for Inactive)
    1  A    between atoms: C_1  and  C_28
    2  A    between atoms: C_16  and  O_44
    3  A    between atoms: C_18  and  C_19
    4  A    between atoms: C_20  and  C_26
    5  A    between atoms: C_22  and  O_32
    6  A    between atoms: C_22  and  C_45
    7  A    between atoms: C_31  and  C_43
    8  A    between atoms: C_42  and  O_44
                            x       y       z     vdW  Elec       q    Type
                         _______ _______ _______ _____ _____    ______ ____

>  <TORSDO>
F 8

$$$$
=
 OpenBabel10222420223D

 47 53  0  0  1  0  0  0  0  0999 V2000
  190.2620  175.0090  137.7670 C   0  0  2  0  0  3  0  0  0  0  0  0
  189.1130  172.9990  136.7690 C   0  0  0  0  0  3  0  0  0  0  0  0
  186.0640  173.5220  136.5570 C   0  0  0  0  0  3  0  0  0  0  0  0
  189.0520  178.8930  137.5910 S   0  0  0  0  0  0  0  0  0  0  0  0
  188.0230  177.7010  136.6410 C   0  0  1  0  0  3  0  0  0  0  0  0
  189.2860  174.3170  136.8420 C   0  0  0  0  0  0  0  0  0  0  0  0
  186.0320  176.3020  137.0140 O   0  0  0  0  0  0  0  0  0  0  0  0
  184.6810  176.1140  137.3340 C   0  0  0  0  0  0  0  0  0  0  0  0
  188.8500  176.5120  136.5380 N   0  0  0  0  0  0  0  0  0  0  0  0
  182.5420  177.0620  138.0130 C   0  0  0  0  0  3  0  0  0  0  0  0
  188.4540  175.2410  136.1360 N   0  0  0  0  0  2  0  0  0  0  0  0
  189.8620  176.4240  137.4970 C   0  0  0  0  0  0  0  0  0  0  0  0
  184.0890  174.8240  137.3100 C   0  0  0  0  0  0  0  0  0  0  0  0
  186.7600  177.4420  137.4650 C   0  0  0  0  0  2  0  0  0  0  0  0
  190.0660  177.5220  138.1960 C   0  0  0  0  0  0  0  0  0  0  0  0
  184.8180  173.5750  137.0130 C   0  0  0  0  0  3  0  0  0  0  0  0
  183.8900  177.2200  137.6900 C   0  0  0  0  0  3  0  0  0  0  0  0
  188.1330  172.4380  135.8940 N   0  0  0  0  0  2  0  0  0  0  0  0
  182.7370  174.6830  137.6430 C   0  0  0  0  0  3  0  0  0  0  0  0
  181.9570  175.7890  137.9900 C   0  0  0  0  0  0  0  0  0  0  0  0
  186.7550  172.2120  136.3090 C   0  0  2  0  0  3  0  0  0  0  0  0
  189.7590  177.8620  141.7610 C   0  0  0  0  0  3  0  0  0  0  0  0
  190.3170  177.7090  140.5940 C   0  0  0  0  0  0  0  0  0  0  0  0
  190.8690  177.5560  139.4220 C   0  0  0  0  0  3  0  0  0  0  0  0
  186.3180  177.1390  144.7000 C   0  0  0  0  0  1  0  0  0  0  0  0
  187.3630  177.9170  144.0350 N   0  0  0  0  0  0  0  0  0  0  0  0
  186.9050  178.4480  142.7370 C   0  0  2  0  0  3  0  0  0  0  0  0
  188.4270  176.9580  143.7140 C   0  0  1  0  0  3  0  0  0  0  0  0
  188.6490  176.9540  142.1920 C   0  0  1  0  0  3  0  0  0  0  0  0
  185.4650  178.6900  142.6760 N   0  0  0  0  0  1  0  0  0  0  0  0
  187.3540  177.4950  141.6500 C   0  0  0  0  0  2  0  0  0  0  0  0
  189.3710  177.2750  146.0600 C   0  0  0  0  0  2  0  0  0  0  0  0
  189.6910  177.1730  144.5630 C   0  0  0  0  0  3  0  0  0  0  0  0
  191.8150  177.2100  146.1260 O   0  0  0  0  0  0  0  0  0  0  0  0
  190.7090  176.0490  144.3050 C   0  0  0  0  0  2  0  0  0  0  0  0
  190.6470  177.2200  146.9180 C   0  0  0  0  0  2  0  0  0  0  0  0
  191.7940  176.0080  145.3920 C   0  0  0  0  0  2  0  0  0  0  0  0
  186.0510  171.4140  135.2580 C   0  0  0  0  0  0  0  0  0  0  0  0
  186.7020  170.5600  134.5970 O   0  0  0  0  0  0  0  0  0  0  0  0
  183.7570  170.6010  134.8780 C   0  0  0  0  0  1  0  0  0  0  0  0
  184.7030  171.6550  134.9800 O   0  0  0  0  0  0  0  0  0  0  0  0
  191.6970  174.7910  137.3070 C   0  0  0  0  0  2  0  0  0  0  0  0
  191.8420  175.1570  135.8430 C   0  0  0  0  0  1  0  0  0  0  0  0
  180.6090  175.5950  138.3070 O   0  0  0  0  0  0  0  0  0  0  0  0
  180.1620  174.5470  139.1560 C   0  0  2  0  0  3  0  0  0  0  0  0
  179.0400  175.0250  139.9890 C   0  0  0  0  0  2  0  0  0  0  0  0
  180.3470  174.9260  140.4980 O   0  0  0  0  0  0  0  0  0  0  0  0
  1 42  1  6  0  0  0
  2  6  2  0  0  0  0
  3 16  2  0  0  0  0
  4 15  1  0  0  0  0
  5 14  1  1  0  0  0
  5  4  1  0  0  0  0
  6  1  1  0  0  0  0
  7  8  1  0  0  0  0
  7 14  1  0  0  0  0
  8 17  1  0  0  0  0
  9  5  1  0  0  0  0
  9 12  1  0  0  0  0
 11  9  1  0  0  0  0
 11  6  1  0  0  0  0
 12  1  1  0  0  0  0
 12 15  2  0  0  0  0
 13  8  2  0  0  0  0
 13 19  1  0  0  0  0
 15 24  1  0  0  0  0
 16 13  1  0  0  0  0
 17 10  2  0  0  0  0
 18 21  1  0  0  0  0
 18  2  1  0  0  0  0
 19 20  2  0  0  0  0
 20 10  1  0  0  0  0
 20 44  1  0  0  0  0
 21 38  1  6  0  0  0
 21  3  1  0  0  0  0
 23 22  2  0  0  0  0
 24 23  2  0  0  0  0
 26 25  1  0  0  0  0
 27 30  1  1  0  0  0
 27 26  1  0  0  0  0
 28 26  1  0  0  0  0
 28 33  1  1  0  0  0
 29 22  1  1  0  0  0
 29 28  1  0  0  0  0
 31 29  1  0  0  0  0
 31 27  1  0  0  0  0
 32 36  1  0  0  0  0
 33 32  1  0  0  0  0
 34 36  1  0  0  0  0
 35 33  1  0  0  0  0
 35 37  1  0  0  0  0
 37 34  1  0  0  0  0
 39 38  2  0  0  0  0
 40 41  1  0  0  0  0
 41 38  1  0  0  0  0
 43 42  1  0  0  0  0
 45 44  1  6  0  0  0
 45 46  1  0  0  0  0
 45 47  1  0  0  0  0
 46 47  1  0  0  0  0
M  END
>  <MODEL>
5

>  <REMARK>
 VINA RESULT:      -6.8      2.667      9.859
  Name = 
  8 active torsions:
  status: ('A' for Active; 'I' for Inactive)
    1  A    between atoms: C_1  and  C_28
    2  A    between atoms: C_16  and  O_44
    3  A    between atoms: C_18  and  C_19
    4  A    between atoms: C_20  and  C_26
    5  A    between atoms: C_22  and  O_32
    6  A    between atoms: C_22  and  C_45
    7  A    between atoms: C_31  and  C_43
    8  A    between atoms: C_42  and  O_44
                            x       y       z     vdW  Elec       q    Type
                         _______ _______ _______ _____ _____    ______ ____

>  <TORSDO>
F 8

$$$$
=
 OpenBabel10222420223D

 47 53  0  0  1  0  0  0  0  0999 V2000
  192.0960  176.6190  137.9560 C   0  0  2  0  0  3  0  0  0  0  0  0
  190.7640  177.5850  139.8660 C   0  0  0  0  0  3  0  0  0  0  0  0
  187.7360  177.4760  139.2050 C   0  0  0  0  0  3  0  0  0  0  0  0
  190.8840  173.8180  135.2600 S   0  0  0  0  0  0  0  0  0  0  0  0
  189.6800  174.2000  136.5980 C   0  0  1  0  0  3  0  0  0  0  0  0
  190.9510  176.6430  138.9440 C   0  0  0  0  0  0  0  0  0  0  0  0
  187.8040  175.7460  136.9820 O   0  0  0  0  0  0  0  0  0  0  0  0
  186.5450  176.2820  136.6770 C   0  0  0  0  0  0  0  0  0  0  0  0
  190.4670  174.8910  137.6040 N   0  0  0  0  0  0  0  0  0  0  0  0
  184.5910  176.3300  135.2240 C   0  0  0  0  0  3  0  0  0  0  0  0
  189.9950  175.6090  138.6970 N   0  0  0  0  0  2  0  0  0  0  0  0
  191.6520  175.4550  137.1280 C   0  0  0  0  0  0  0  0  0  0  0  0
  185.9590  177.2920  137.4820 C   0  0  0  0  0  0  0  0  0  0  0  0
  188.6110  175.1110  135.9920 C   0  0  0  0  0  2  0  0  0  0  0  0
  191.9960  175.0880  135.9100 C   0  0  0  0  0  0  0  0  0  0  0  0
  186.6090  177.9110  138.6530 C   0  0  0  0  0  3  0  0  0  0  0  0
  185.8450  175.8150  135.5510 C   0  0  0  0  0  3  0  0  0  0  0  0
  189.6260  177.5480  140.7280 N   0  0  0  0  0  2  0  0  0  0  0  0
  184.7020  177.8030  137.1360 C   0  0  0  0  0  3  0  0  0  0  0  0
  184.0110  177.3290  136.0180 C   0  0  0  0  0  0  0  0  0  0  0  0
  188.3600  178.1780  140.3770 C   0  0  2  0  0  3  0  0  0  0  0  0
  195.5610  175.2460  135.4830 C   0  0  0  0  0  3  0  0  0  0  0  0
  194.2990  175.5090  135.3020 C   0  0  0  0  0  0  0  0  0  0  0  0
  193.0320  175.7700  135.1280 C   0  0  0  0  0  3  0  0  0  0  0  0
  195.8850  171.1880  137.5870 C   0  0  0  0  0  1  0  0  0  0  0  0
  195.3920  172.5510  137.3850 N   0  0  0  0  0  0  0  0  0  0  0  0
  194.3020  172.5950  136.3930 C   0  0  2  0  0  3  0  0  0  0  0  0
  196.5070  173.2880  136.7790 C   0  0  1  0  0  3  0  0  0  0  0  0
  196.0550  173.8340  135.4130 C   0  0  1  0  0  3  0  0  0  0  0  0
  193.5150  171.3660  136.3300 N   0  0  0  0  0  1  0  0  0  0  0  0
  194.8990  172.9430  135.0480 C   0  0  0  0  0  2  0  0  0  0  0  0
  196.4060  174.3490  139.0930 C   0  0  0  0  0  2  0  0  0  0  0  0
  197.1170  174.3280  137.7330 C   0  0  0  0  0  3  0  0  0  0  0  0
  198.2940  175.8370  139.5480 O   0  0  0  0  0  0  0  0  0  0  0  0
  198.6230  174.0700  137.9170 C   0  0  0  0  0  2  0  0  0  0  0  0
  197.1810  175.1890  140.1240 C   0  0  0  0  0  2  0  0  0  0  0  0
  199.1800  174.8230  139.1350 C   0  0  0  0  0  2  0  0  0  0  0  0
  187.4560  178.1590  141.5680 C   0  0  0  0  0  0  0  0  0  0  0  0
  186.6080  179.0800  141.7110 O   0  0  0  0  0  0  0  0  0  0  0  0
  187.5020  177.4420  143.9240 C   0  0  0  0  0  1  0  0  0  0  0  0
  187.5940  177.1600  142.5360 O   0  0  0  0  0  0  0  0  0  0  0  0
  193.4070  176.2770  138.6500 C   0  0  0  0  0  2  0  0  0  0  0  0
  193.6750  177.2510  139.7810 C   0  0  0  0  0  1  0  0  0  0  0  0
  182.7550  177.8660  135.7200 O   0  0  0  0  0  0  0  0  0  0  0  0
  181.7290  178.0070  136.6920 C   0  0  2  0  0  3  0  0  0  0  0  0
  180.5910  178.7490  136.1120 C   0  0  0  0  0  2  0  0  0  0  0  0
  181.5250  179.3740  136.9580 O   0  0  0  0  0  0  0  0  0  0  0  0
  1 42  1  1  0  0  0
  1  6  1  0  0  0  0
  2 18  1  0  0  0  0
  3 21  1  0  0  0  0
  4 15  1  0  0  0  0
  4  5  1  0  0  0  0
  5 14  1  6  0  0  0
  5  9  1  0  0  0  0
  6  2  2  0  0  0  0
  8  7  1  0  0  0  0
  8 13  1  0  0  0  0
  9 11  1  0  0  0  0
 10 17  1  0  0  0  0
 10 20  2  0  0  0  0
 11  6  1  0  0  0  0
 12  9  1  0  0  0  0
 12  1  1  0  0  0  0
 13 16  1  0  0  0  0
 14  7  1  0  0  0  0
 15 12  2  0  0  0  0
 16  3  2  0  0  0  0
 17  8  2  0  0  0  0
 19 13  2  0  0  0  0
 20 19  1  0  0  0  0
 21 18  1  0  0  0  0
 21 38  1  1  0  0  0
 23 22  2  0  0  0  0
 24 23  2  0  0  0  0
 24 15  1  0  0  0  0
 26 25  1  0  0  0  0
 27 30  1  6  0  0  0
 27 26  1  0  0  0  0
 28 26  1  0  0  0  0
 28 33  1  1  0  0  0
 29 22  1  1  0  0  0
 29 28  1  0  0  0  0
 31 29  1  0  0  0  0
 31 27  1  0  0  0  0
 32 36  1  0  0  0  0
 33 35  1  0  0  0  0
 33 32  1  0  0  0  0
 34 36  1  0  0  0  0
 35 37  1  0  0  0  0
 37 34  1  0  0  0  0
 38 39  2  0  0  0  0
 38 41  1  0  0  0  0
 41 40  1  0  0  0  0
 42 43  1  0  0  0  0
 44 20  1  0  0  0  0
 45 44  1  6  0  0  0
 45 47  1  0  0  0  0
 46 45  1  0  0  0  0
 46 47  1  0  0  0  0
M  END
>  <MODEL>
6

>  <REMARK>
 VINA RESULT:      -6.3      5.068      9.282
  Name = 
  8 active torsions:
  status: ('A' for Active; 'I' for Inactive)
    1  A    between atoms: C_1  and  C_28
    2  A    between atoms: C_16  and  O_44
    3  A    between atoms: C_18  and  C_19
    4  A    between atoms: C_20  and  C_26
    5  A    between atoms: C_22  and  O_32
    6  A    between atoms: C_22  and  C_45
    7  A    between atoms: C_31  and  C_43
    8  A    between atoms: C_42  and  O_44
                            x       y       z     vdW  Elec       q    Type
                         _______ _______ _______ _____ _____    ______ ____

>  <TORSDO>
F 8

$$$$
=
 OpenBabel10222420223D

 47 53  0  0  1  0  0  0  0  0999 V2000
  186.1760  177.8490  138.6720 C   0  0  2  0  0  3  0  0  0  0  0  0
  188.0770  177.9000  140.3270 C   0  0  0  0  0  3  0  0  0  0  0  0
  190.6160  176.6480  139.0600 C   0  0  0  0  0  3  0  0  0  0  0  0
  186.4310  177.8810  134.6070 S   0  0  0  0  0  0  0  0  0  0  0  0
  188.0310  178.0490  135.5010 C   0  0  1  0  0  3  0  0  0  0  0  0
  187.6100  178.0830  139.0940 C   0  0  0  0  0  0  0  0  0  0  0  0
  189.8060  176.5780  136.3620 O   0  0  0  0  0  0  0  0  0  0  0  0
  190.8130  175.6150  136.2090 C   0  0  0  0  0  0  0  0  0  0  0  0
  187.6500  178.3990  136.8580 N   0  0  0  0  0  0  0  0  0  0  0  0
  192.0490  174.0940  134.7620 C   0  0  0  0  0  3  0  0  0  0  0  0
  188.4610  178.3950  137.9880 N   0  0  0  0  0  2  0  0  0  0  0  0
  186.3400  178.0590  137.2000 C   0  0  0  0  0  0  0  0  0  0  0  0
  191.5990  175.1880  137.3110 C   0  0  0  0  0  0  0  0  0  0  0  0
  188.7230  176.6860  135.4410 C   0  0  0  0  0  2  0  0  0  0  0  0
  185.5770  177.6900  136.1910 C   0  0  0  0  0  0  0  0  0  0  0  0
  191.4120  175.6490  138.7000 C   0  0  0  0  0  3  0  0  0  0  0  0
  191.0530  175.0540  134.9430 C   0  0  0  0  0  3  0  0  0  0  0  0
  189.4590  178.1040  140.6220 N   0  0  0  0  0  2  0  0  0  0  0  0
  192.5900  174.2180  137.1120 C   0  0  0  0  0  3  0  0  0  0  0  0
  192.8240  173.6710  135.8490 C   0  0  0  0  0  0  0  0  0  0  0  0
  190.4490  177.0410  140.4990 C   0  0  2  0  0  3  0  0  0  0  0  0
  184.0010  174.4660  135.9980 C   0  0  0  0  0  3  0  0  0  0  0  0
  184.1360  175.7470  136.1820 C   0  0  0  0  0  0  0  0  0  0  0  0
  184.2780  177.0320  136.3640 C   0  0  0  0  0  3  0  0  0  0  0  0
  186.6800  170.7580  135.7060 C   0  0  0  0  0  1  0  0  0  0  0  0
  185.8860  171.8750  135.1920 N   0  0  0  0  0  0  0  0  0  0  0  0
  186.6520  173.1360  135.1950 C   0  0  2  0  0  3  0  0  0  0  0  0
  184.8030  172.0700  136.1630 C   0  0  1  0  0  3  0  0  0  0  0  0
  184.8890  173.5010  136.7210 C   0  0  1  0  0  3  0  0  0  0  0  0
  188.0930  172.9480  135.0430 N   0  0  0  0  0  1  0  0  0  0  0  0
  186.3210  173.8880  136.4650 C   0  0  0  0  0  2  0  0  0  0  0  0
  183.4200  170.2190  135.0900 C   0  0  0  0  0  2  0  0  0  0  0  0
  183.4280  171.6640  135.6050 C   0  0  0  0  0  3  0  0  0  0  0  0
  181.0410  170.7670  134.9350 O   0  0  0  0  0  0  0  0  0  0  0  0
  182.3360  171.8630  136.6690 C   0  0  0  0  0  2  0  0  0  0  0  0
  181.9910  169.7350  134.7850 C   0  0  0  0  0  2  0  0  0  0  0  0
  181.0430  171.1210  136.2980 C   0  0  0  0  0  2  0  0  0  0  0  0
  191.7410  177.5050  141.0920 C   0  0  0  0  0  0  0  0  0  0  0  0
  192.6700  177.8770  140.3260 O   0  0  0  0  0  0  0  0  0  0  0  0
  191.2900  176.5030  143.2970 C   0  0  0  0  0  1  0  0  0  0  0  0
  191.9290  177.4700  142.4770 O   0  0  0  0  0  0  0  0  0  0  0  0
  185.2590  178.9240  139.2380 C   0  0  0  0  0  2  0  0  0  0  0  0
  184.2950  178.3200  140.2410 C   0  0  0  0  0  1  0  0  0  0  0  0
  193.8310  172.7110  135.7030 O   0  0  0  0  0  0  0  0  0  0  0  0
  193.8620  171.5080  136.4570 C   0  0  2  0  0  3  0  0  0  0  0  0
  194.6320  170.4810  135.7260 C   0  0  0  0  0  2  0  0  0  0  0  0
  193.2250  170.4860  135.7270 O   0  0  0  0  0  0  0  0  0  0  0  0
  1  6  1  0  0  0  0
  1 42  1  1  0  0  0
  2 18  1  0  0  0  0
  3 21  1  0  0  0  0
  4  5  1  0  0  0  0
  4 15  1  0  0  0  0
  5 14  1  1  0  0  0
  5  9  1  0  0  0  0
  6  2  2  0  0  0  0
  8  7  1  0  0  0  0
  8 13  1  0  0  0  0
  9 12  1  0  0  0  0
  9 11  1  0  0  0  0
 10 17  1  0  0  0  0
 10 20  2  0  0  0  0
 11  6  1  0  0  0  0
 12  1  1  0  0  0  0
 13 16  1  0  0  0  0
 14  7  1  0  0  0  0
 15 24  1  0  0  0  0
 15 12  2  0  0  0  0
 16  3  2  0  0  0  0
 17  8  2  0  0  0  0
 19 13  2  0  0  0  0
 20 19  1  0  0  0  0
 21 18  1  0  0  0  0
 21 38  1  6  0  0  0
 22 23  2  0  0  0  0
 23 24  2  0  0  0  0
 26 27  1  0  0  0  0
 26 25  1  0  0  0  0
 26 28  1  0  0  0  0
 27 30  1  1  0  0  0
 27 31  1  0  0  0  0
 28 33  1  6  0  0  0
 28 29  1  0  0  0  0
 29 22  1  6  0  0  0
 31 29  1  0  0  0  0
 32 33  1  0  0  0  0
 33 35  1  0  0  0  0
 34 37  1  0  0  0  0
 36 34  1  0  0  0  0
 36 32  1  0  0  0  0
 37 35  1  0  0  0  0
 38 41  1  0  0  0  0
 39 38  2  0  0  0  0
 41 40  1  0  0  0  0
 42 43  1  0  0  0  0
 44 20  1  0  0  0  0
 45 44  1  6  0  0  0
 46 47  1  0  0  0  0
 46 45  1  0  0  0  0
 47 45  1  0  0  0  0
M  END
>  <MODEL>
7

>  <REMARK>
 VINA RESULT:      -6.0      3.385      5.638
  Name = 
  8 active torsions:
  status: ('A' for Active; 'I' for Inactive)
    1  A    between atoms: C_1  and  C_28
    2  A    between atoms: C_16  and  O_44
    3  A    between atoms: C_18  and  C_19
    4  A    between atoms: C_20  and  C_26
    5  A    between atoms: C_22  and  O_32
    6  A    between atoms: C_22  and  C_45
    7  A    between atoms: C_31  and  C_43
    8  A    between atoms: C_42  and  O_44
                            x       y       z     vdW  Elec       q    Type
                         _______ _______ _______ _____ _____    ______ ____

>  <TORSDO>
F 8

$$$$
=
 OpenBabel10222420223D

 47 53  0  0  1  0  0  0  0  0999 V2000
  184.5820  177.5730  141.8430 C   0  0  2  0  0  3  0  0  0  0  0  0
  186.6230  177.8620  143.2930 C   0  0  0  0  0  3  0  0  0  0  0  0
  189.1870  177.6940  141.5560 C   0  0  0  0  0  3  0  0  0  0  0  0
  184.2070  178.4740  137.8890 S   0  0  0  0  0  0  0  0  0  0  0  0
  185.8170  178.9310  138.6550 C   0  0  1  0  0  3  0  0  0  0  0  0
  185.9450  178.1350  142.1810 C   0  0  0  0  0  0  0  0  0  0  0  0
  188.0320  177.9150  138.9950 O   0  0  0  0  0  0  0  0  0  0  0  0
  189.2270  177.3440  138.5370 C   0  0  0  0  0  0  0  0  0  0  0  0
  185.5630  178.8800  140.0840 N   0  0  0  0  0  0  0  0  0  0  0  0
  190.5970  176.5740  136.6760 C   0  0  0  0  0  3  0  0  0  0  0  0
  186.5040  178.8960  141.1070 N   0  0  0  0  0  2  0  0  0  0  0  0
  184.4610  178.1060  140.4510 C   0  0  0  0  0  0  0  0  0  0  0  0
  190.2550  176.9630  139.4380 C   0  0  0  0  0  0  0  0  0  0  0  0
  186.8350  177.8750  138.2220 C   0  0  0  0  0  2  0  0  0  0  0  0
  183.6840  177.7320  139.4540 C   0  0  0  0  0  0  0  0  0  0  0  0
  190.1610  177.0670  140.9070 C   0  0  0  0  0  3  0  0  0  0  0  0
  189.4170  177.1400  137.1600 C   0  0  0  0  0  3  0  0  0  0  0  0
  187.9270  178.4050  143.5060 N   0  0  0  0  0  2  0  0  0  0  0  0
  191.4300  176.3900  138.9360 C   0  0  0  0  0  3  0  0  0  0  0  0
  191.6120  176.1960  137.5640 C   0  0  0  0  0  0  0  0  0  0  0  0
  189.1370  177.7300  143.0560 C   0  0  2  0  0  3  0  0  0  0  0  0
  180.2600  177.2700  140.4460 C   0  0  0  0  0  3  0  0  0  0  0  0
  181.4540  176.9810  140.0140 C   0  0  0  0  0  0  0  0  0  0  0  0
  182.6530  176.6970  139.5830 C   0  0  0  0  0  3  0  0  0  0  0  0
  179.4470  181.7720  140.1670 C   0  0  0  0  0  1  0  0  0  0  0  0
  180.1800  180.5700  140.5700 N   0  0  0  0  0  0  0  0  0  0  0  0
  181.0570  180.0800  139.4900 C   0  0  2  0  0  3  0  0  0  0  0  0
  179.1610  179.5300  140.7530 C   0  0  1  0  0  3  0  0  0  0  0  0
  179.4670  178.3630  139.7980 C   0  0  1  0  0  3  0  0  0  0  0  0
  181.5330  181.1320  138.5960 N   0  0  0  0  0  1  0  0  0  0  0  0
  180.3170  179.0000  138.7320 C   0  0  0  0  0  2  0  0  0  0  0  0
  180.0650  178.1770  142.7140 C   0  0  0  0  0  2  0  0  0  0  0  0
  178.9730  179.1400  142.2290 C   0  0  0  0  0  3  0  0  0  0  0  0
  178.9310  178.6740  144.8240 O   0  0  0  0  0  0  0  0  0  0  0  0
  178.9310  180.3960  143.1150 C   0  0  0  0  0  2  0  0  0  0  0  0
  180.0290  178.0040  144.2430 C   0  0  0  0  0  2  0  0  0  0  0  0
  179.1330  180.0490  144.5980 C   0  0  0  0  0  2  0  0  0  0  0  0
  190.3300  178.4310  143.6250 C   0  0  0  0  0  0  0  0  0  0  0  0
  190.3820  179.6890  143.5810 O   0  0  0  0  0  0  0  0  0  0  0  0
  191.3570  177.1460  145.4580 C   0  0  0  0  0  1  0  0  0  0  0  0
  191.3940  177.6900  144.1470 O   0  0  0  0  0  0  0  0  0  0  0  0
  183.5040  178.1950  142.7190 C   0  0  0  0  0  2  0  0  0  0  0  0
  184.0720  179.3580  143.5090 C   0  0  0  0  0  1  0  0  0  0  0  0
  192.8070  175.6270  137.1140 O   0  0  0  0  0  0  0  0  0  0  0  0
  193.5290  176.1340  136.0000 C   0  0  2  0  0  3  0  0  0  0  0  0
  194.9150  175.6240  136.0300 C   0  0  0  0  0  2  0  0  0  0  0  0
  194.5980  176.9250  136.4610 O   0  0  0  0  0  0  0  0  0  0  0  0
  1  6  1  0  0  0  0
  1 42  1  1  0  0  0
  2 18  1  0  0  0  0
  3 21  1  0  0  0  0
  4  5  1  0  0  0  0
  4 15  1  0  0  0  0
  5 14  1  1  0  0  0
  5  9  1  0  0  0  0
  6  2  2  0  0  0  0
  8  7  1  0  0  0  0
  8 13  1  0  0  0  0
  9 12  1  0  0  0  0
  9 11  1  0  0  0  0
 10 17  1  0  0  0  0
 10 20  2  0  0  0  0
 11  6  1  0  0  0  0
 12  1  1  0  0  0  0
 13 16  1  0  0  0  0
 14  7  1  0  0  0  0
 15 24  1  0  0  0  0
 15 12  2  0  0  0  0
 16  3  2  0  0  0  0
 17  8  2  0  0  0  0
 19 13  2  0  0  0  0
 20 19  1  0  0  0  0
 21 18  1  0  0  0  0
 21 38  1  6  0  0  0
 23 22  2  0  0  0  0
 24 23  2  0  0  0  0
 25 26  1  0  0  0  0
 26 28  1  0  0  0  0
 27 30  1  6  0  0  0
 27 26  1  0  0  0  0
 28 33  1  1  0  0  0
 29 22  1  1  0  0  0
 29 28  1  0  0  0  0
 31 27  1  0  0  0  0
 31 29  1  0  0  0  0
 32 36  1  0  0  0  0
 33 32  1  0  0  0  0
 33 35  1  0  0  0  0
 35 37  1  0  0  0  0
 36 34  1  0  0  0  0
 37 34  1  0  0  0  0
 38 41  1  0  0  0  0
 39 38  2  0  0  0  0
 41 40  1  0  0  0  0
 42 43  1  0  0  0  0
 44 20  1  0  0  0  0
 45 46  1  0  0  0  0
 45 47  1  0  0  0  0
 45 44  1  1  0  0  0
 46 47  1  0  0  0  0
M  END
>  <MODEL>
8

>  <REMARK>
 VINA RESULT:      -5.6      4.228      7.856
  Name = 
  8 active torsions:
  status: ('A' for Active; 'I' for Inactive)
    1  A    between atoms: C_1  and  C_28
    2  A    between atoms: C_16  and  O_44
    3  A    between atoms: C_18  and  C_19
    4  A    between atoms: C_20  and  C_26
    5  A    between atoms: C_22  and  O_32
    6  A    between atoms: C_22  and  C_45
    7  A    between atoms: C_31  and  C_43
    8  A    between atoms: C_42  and  O_44
                            x       y       z     vdW  Elec       q    Type
                         _______ _______ _______ _____ _____    ______ ____

>  <TORSDO>
F 8

$$$$
=
 OpenBabel10222420223D

 47 53  0  0  1  0  0  0  0  0999 V2000
  184.3150  177.8780  142.7040 C   0  0  2  0  0  3  0  0  0  0  0  0
  186.6300  177.8010  143.6990 C   0  0  0  0  0  3  0  0  0  0  0  0
  188.7490  177.7080  141.4370 C   0  0  0  0  0  3  0  0  0  0  0  0
  183.2270  179.3790  139.0780 S   0  0  0  0  0  0  0  0  0  0  0  0
  184.9980  179.6010  139.5270 C   0  0  1  0  0  3  0  0  0  0  0  0
  185.7680  178.2840  142.8070 C   0  0  0  0  0  0  0  0  0  0  0  0
  187.1210  178.3890  139.2410 O   0  0  0  0  0  0  0  0  0  0  0  0
  188.1320  177.8080  138.4640 C   0  0  0  0  0  0  0  0  0  0  0  0
  185.0400  179.3570  140.9580 N   0  0  0  0  0  0  0  0  0  0  0  0
  189.0030  177.2250  136.2640 C   0  0  0  0  0  3  0  0  0  0  0  0
  186.1690  179.1530  141.7450 N   0  0  0  0  0  2  0  0  0  0  0  0
  183.9640  178.6180  141.4530 C   0  0  0  0  0  0  0  0  0  0  0  0
  189.2790  177.2240  139.0610 C   0  0  0  0  0  0  0  0  0  0  0  0
  185.7920  178.5500  138.7500 C   0  0  0  0  0  2  0  0  0  0  0  0
  182.9650  178.4530  140.6110 C   0  0  0  0  0  0  0  0  0  0  0  0
  189.5000  177.1150  140.5160 C   0  0  0  0  0  3  0  0  0  0  0  0
  188.0120  177.7960  137.0630 C   0  0  0  0  0  3  0  0  0  0  0  0
  187.9980  178.2110  143.6910 N   0  0  0  0  0  2  0  0  0  0  0  0
  190.2600  176.6490  138.2440 C   0  0  0  0  0  3  0  0  0  0  0  0
  190.1350  176.6470  136.8530 C   0  0  0  0  0  0  0  0  0  0  0  0
  189.0140  177.5250  142.9030 C   0  0  2  0  0  3  0  0  0  0  0  0
  180.4330  176.6140  138.8430 C   0  0  0  0  0  3  0  0  0  0  0  0
  181.1550  177.0480  139.8360 C   0  0  0  0  0  0  0  0  0  0  0  0
  181.8820  177.4880  140.8260 C   0  0  0  0  0  3  0  0  0  0  0  0
  183.5730  177.1170  135.5430 C   0  0  0  0  0  1  0  0  0  0  0  0
  182.8890  177.4420  136.7960 N   0  0  0  0  0  0  0  0  0  0  0  0
  183.3600  176.5970  137.9090 C   0  0  2  0  0  3  0  0  0  0  0  0
  181.4850  177.0710  136.5870 C   0  0  1  0  0  3  0  0  0  0  0  0
  181.0880  176.0180  137.6360 C   0  0  1  0  0  3  0  0  0  0  0  0
  184.7430  176.1480  137.7630 N   0  0  0  0  0  1  0  0  0  0  0  0
  182.4090  175.4290  138.0530 C   0  0  0  0  0  2  0  0  0  0  0  0
  181.3430  179.6090  136.4130 C   0  0  0  0  0  2  0  0  0  0  0  0
  180.5570  178.2950  136.5000 C   0  0  0  0  0  3  0  0  0  0  0  0
  179.0690  180.4170  136.0170 O   0  0  0  0  0  0  0  0  0  0  0  0
  179.5990  178.1590  135.3050 C   0  0  0  0  0  2  0  0  0  0  0  0
  180.4270  180.7950  136.0590 C   0  0  0  0  0  2  0  0  0  0  0  0
  178.9380  179.5010  134.9560 C   0  0  0  0  0  2  0  0  0  0  0  0
  190.3630  178.0460  143.2840 C   0  0  0  0  0  0  0  0  0  0  0  0
  190.5050  179.2780  143.5110 O   0  0  0  0  0  0  0  0  0  0  0  0
  191.3100  175.7930  143.5920 C   0  0  0  0  0  1  0  0  0  0  0  0
  191.4600  177.1810  143.3330 O   0  0  0  0  0  0  0  0  0  0  0  0
  183.5090  178.4390  143.8680 C   0  0  0  0  0  2  0  0  0  0  0  0
  183.7950  179.9180  144.0430 C   0  0  0  0  0  1  0  0  0  0  0  0
  191.1470  176.0670  136.0830 O   0  0  0  0  0  0  0  0  0  0  0  0
  192.4910  175.9620  136.5320 C   0  0  2  0  0  3  0  0  0  0  0  0
  193.2710  175.1410  135.5840 C   0  0  0  0  0  2  0  0  0  0  0  0
  192.7890  174.6120  136.7950 O   0  0  0  0  0  0  0  0  0  0  0  0
  1  6  1  0  0  0  0
  1 42  1  1  0  0  0
  3 21  1  0  0  0  0
  4  5  1  0  0  0  0
  4 15  1  0  0  0  0
  5 14  1  6  0  0  0
  5  9  1  0  0  0  0
  6  2  2  0  0  0  0
  8 13  1  0  0  0  0
  8  7  1  0  0  0  0
  9 12  1  0  0  0  0
  9 11  1  0  0  0  0
 10 20  2  0  0  0  0
 10 17  1  0  0  0  0
 11  6  1  0  0  0  0
 12  1  1  0  0  0  0
 13 16  1  0  0  0  0
 14  7  1  0  0  0  0
 15 24  1  0  0  0  0
 15 12  2  0  0  0  0
 16  3  2  0  0  0  0
 17  8  2  0  0  0  0
 18  2  1  0  0  0  0
 19 13  2  0  0  0  0
 20 19  1  0  0  0  0
 21 38  1  1  0  0  0
 21 18  1  0  0  0  0
 22 23  2  0  0  0  0
 23 24  2  0  0  0  0
 25 26  1  0  0  0  0
 26 27  1  0  0  0  0
 27 30  1  6  0  0  0
 27 31  1  0  0  0  0
 28 33  1  1  0  0  0
 28 26  1  0  0  0  0
 28 29  1  0  0  0  0
 29 31  1  0  0  0  0
 29 22  1  1  0  0  0
 32 33  1  0  0  0  0
 34 36  1  0  0  0  0
 35 33  1  0  0  0  0
 36 32  1  0  0  0  0
 37 35  1  0  0  0  0
 37 34  1  0  0  0  0
 38 41  1  0  0  0  0
 38 39  2  0  0  0  0
 41 40  1  0  0  0  0
 42 43  1  0  0  0  0
 44 20  1  0  0  0  0
 45 44  1  6  0  0  0
 45 47  1  0  0  0  0
 46 45  1  0  0  0  0
 46 47  1  0  0  0  0
M  END
>  <MODEL>
9

>  <REMARK>
 VINA RESULT:      -5.4      3.724      6.576
  Name = 
  8 active torsions:
  status: ('A' for Active; 'I' for Inactive)
    1  A    between atoms: C_1  and  C_28
    2  A    between atoms: C_16  and  O_44
    3  A    between atoms: C_18  and  C_19
    4  A    between atoms: C_20  and  C_26
    5  A    between atoms: C_22  and  O_32
    6  A    between atoms: C_22  and  C_45
    7  A    between atoms: C_31  and  C_43
    8  A    between atoms: C_42  and  O_44
                            x       y       z     vdW  Elec       q    Type
                         _______ _______ _______ _____ _____    ______ ____

>  <TORSDO>
F 8

$$$$
