=
 OpenBabel10222419283D

 42 48  0  0  1  0  0  0  0  0999 V2000
  185.7830  178.4880  141.3590 C   0  0  0  0  0  0  0  0  0  0  0  0
  187.7380  177.7190  142.5900 C   0  0  0  0  0  0  0  0  0  0  0  0
  184.9910  178.3740  142.5280 C   0  0  0  0  0  0  0  0  0  0  0  0
  182.8830  179.0000  143.7350 C   0  0  0  0  0  3  0  0  0  0  0  0
  185.2540  178.9480  140.1220 N   0  0  0  0  0  0  0  0  0  0  0  0
  187.1420  178.1600  141.4030 C   0  0  0  0  0  3  0  0  0  0  0  0
  181.3090  178.8980  142.2820 C   0  0  0  0  0  0  0  0  0  0  0  0
  183.5390  178.6920  142.5970 C   0  0  0  0  0  0  0  0  0  0  0  0
  180.1750  178.9340  141.3830 C   0  0  0  0  0  3  0  0  0  0  0  0
  182.1850  178.4740  140.3190 C   0  0  0  0  0  0  0  0  0  0  0  0
  182.4820  178.6170  141.5980 C   0  0  0  0  0  0  0  0  0  0  0  0
  185.6160  177.9510  143.7160 C   0  0  0  0  0  3  0  0  0  0  0  0
  183.1350  178.3030  139.1880 C   0  0  0  0  0  2  0  0  0  0  0  0
  186.9720  177.6250  143.7490 C   0  0  0  0  0  3  0  0  0  0  0  0
  184.1820  179.4120  139.2580 C   0  0  2  0  0  3  0  0  0  0  0  0
  185.3920  179.1870  138.6810 N   0  0  0  0  0  0  0  0  0  0  0  0
  181.4640  179.1590  143.5310 N   0  0  0  0  0  0  0  0  0  0  0  0
  180.7190  178.6710  140.1810 C   0  0  0  0  0  3  0  0  0  0  0  0
  190.0350  178.5960  142.9610 C   0  0  0  0  0  1  0  0  0  0  0  0
  189.1920  177.3730  142.6440 C   0  0  1  0  0  3  0  0  0  0  0  0
  189.4240  176.3350  143.6320 N   0  0  0  0  0  2  0  0  0  0  0  0
  190.6090  176.9280  145.7110 C   0  0  0  0  0  0  0  0  0  0  0  0
  190.6060  176.6700  144.3060 N   0  0  0  0  0  2  0  0  0  0  0  0
  191.7200  177.2200  146.3020 N   0  0  0  0  0  2  0  0  0  0  0  0
  189.3410  176.8850  146.4960 C   0  0  0  0  0  2  0  0  0  0  0  0
  189.4780  177.6470  147.7990 C   0  0  0  0  0  2  0  0  0  0  0  0
  188.1370  178.2530  148.2030 C   0  0  0  0  0  2  0  0  0  0  0  0
  187.0590  177.9090  147.1870 C   0  0  0  0  0  2  0  0  0  0  0  0
  185.9090  178.8580  147.2880 C   0  0  0  0  0  0  0  0  0  0  0  0
  184.6010  178.4270  146.9370 N   0  0  0  0  0  1  0  0  0  0  0  0
  186.0920  180.0340  147.6970 O   0  0  0  0  0  0  0  0  0  0  0  0
  185.5640  177.8750  138.0510 C   0  0  0  0  0  2  0  0  0  0  0  0
  186.7260  177.9180  137.0770 C   0  0  0  0  0  2  0  0  0  0  0  0
  188.0140  178.2570  137.8090 C   0  0  0  0  0  2  0  0  0  0  0  0
  190.0240  177.3080  138.9230 C   0  0  0  0  0  2  0  0  0  0  0  0
  189.1400  175.9910  136.8130 S   0  0  0  0  0  0  0  0  0  0  0  0
  190.8480  176.1090  138.9270 N   0  0  2  0  0  0  0  0  0  0  0  0
  191.8160  175.6720  136.7910 N   0  0  0  0  0  2  0  0  0  0  0  0
  192.2290  176.5510  138.9480 C   0  0  0  0  0  2  0  0  0  0  0  0
  190.6630  175.4270  137.6430 C   0  0  2  0  0  3  0  0  0  0  0  0
  192.8850  176.0100  137.7070 C   0  0  0  0  0  2  0  0  0  0  0  0
  188.7160  176.9850  138.2510 C   0  0  2  0  0  3  0  0  0  0  0  0
  1  6  2  0  0  0  0
  1  3  1  0  0  0  0
  2 20  1  0  0  0  0
  2 14  2  0  0  0  0
  3  8  1  0  0  0  0
  3 12  2  0  0  0  0
  5  1  1  0  0  0  0
  6  2  1  0  0  0  0
  7 17  2  0  0  0  0
  8  4  2  0  0  0  0
  9  7  1  0  0  0  0
 10 11  2  0  0  0  0
 11  7  1  0  0  0  0
 11  8  1  0  0  0  0
 12 14  1  0  0  0  0
 13 10  1  0  0  0  0
 15 13  1  6  0  0  0
 15  5  1  0  0  0  0
 16 15  1  0  0  0  0
 16  5  1  0  0  0  0
 17  4  1  0  0  0  0
 18 10  1  0  0  0  0
 18  9  2  0  0  0  0
 20 19  1  1  0  0  0
 20 21  1  0  0  0  0
 21 23  1  0  0  0  0
 22 24  2  0  0  0  0
 22 25  1  0  0  0  0
 23 22  1  0  0  0  0
 25 26  1  0  0  0  0
 26 27  1  0  0  0  0
 28 29  1  0  0  0  0
 28 27  1  0  0  0  0
 29 31  2  0  0  0  0
 30 29  1  0  0  0  0
 32 16  1  0  0  0  0
 33 34  1  0  0  0  0
 33 32  1  0  0  0  0
 36 40  1  0  0  0  0
 36 42  1  0  0  0  0
 37 35  1  6  0  0  0
 37 39  1  0  0  0  0
 38 41  1  0  0  0  0
 40 38  1  6  0  0  0
 40 37  1  0  0  0  0
 41 39  1  0  0  0  0
 42 34  1  6  0  0  0
 42 35  1  0  0  0  0
M  END
>  <MODEL>
1

>  <REMARK>
 VINA RESULT:      -9.4      0.000      0.000
  Name = 
  12 active torsions:
  status: ('A' for Active; 'I' for Inactive)
    1  A    between atoms: C_1  and  C_10
    2  A    between atoms: C_1  and  C_34
    3  A    between atoms: C_2  and  C_11
    4  A    between atoms: C_2  and  C_16
    5  A    between atoms: C_4  and  C_10
    6  A    between atoms: C_6  and  C_30
    7  A    between atoms: C_8  and  C_40
    8  A    between atoms: C_11  and  C_38
    9  A    between atoms: N_12  and  N_24
   10  A    between atoms: C_16  and  N_39
   11  A    between atoms: N_24  and  C_30
   12  A    between atoms: C_34  and  C_40
                            x       y       z     vdW  Elec       q    Type
                         _______ _______ _______ _____ _____    ______ ____

>  <TORSDO>
F 12

$$$$
=
 OpenBabel10222419283D

 42 48  0  0  1  0  0  0  0  0999 V2000
  186.9960  177.5510  143.7660 C   0  0  0  0  0  0  0  0  0  0  0  0
  184.8240  178.5850  143.3860 C   0  0  0  0  0  0  0  0  0  0  0  0
  186.8890  177.8180  145.1530 C   0  0  0  0  0  0  0  0  0  0  0  0
  187.6740  177.3070  147.4800 C   0  0  0  0  0  3  0  0  0  0  0  0
  188.1150  176.8780  143.2020 N   0  0  0  0  0  0  0  0  0  0  0  0
  185.9660  177.9370  142.9020 C   0  0  0  0  0  3  0  0  0  0  0  0
  189.8070  177.1110  147.3630 C   0  0  0  0  0  0  0  0  0  0  0  0
  187.9220  177.4550  146.1620 C   0  0  0  0  0  0  0  0  0  0  0  0
  191.2370  176.8860  147.4020 C   0  0  0  0  0  3  0  0  0  0  0  0
  190.4160  177.2520  145.2630 C   0  0  0  0  0  0  0  0  0  0  0  0
  189.3690  177.3280  146.0650 C   0  0  0  0  0  0  0  0  0  0  0  0
  185.7230  178.4490  145.6220 C   0  0  0  0  0  3  0  0  0  0  0  0
  190.4140  177.2800  143.7770 C   0  0  0  0  0  2  0  0  0  0  0  0
  184.7030  178.8320  144.7510 C   0  0  0  0  0  3  0  0  0  0  0  0
  189.4180  176.2390  143.2700 C   0  0  2  0  0  3  0  0  0  0  0  0
  188.8770  176.4190  142.0360 N   0  0  0  0  0  0  0  0  0  0  0  0
  188.8730  177.0590  148.2450 N   0  0  0  0  0  0  0  0  0  0  0  0
  191.6040  176.9760  146.1110 C   0  0  0  0  0  3  0  0  0  0  0  0
  183.8630  178.3350  141.1070 C   0  0  0  0  0  1  0  0  0  0  0  0
  183.7180  178.9940  142.4670 C   0  0  1  0  0  3  0  0  0  0  0  0
  182.4310  178.6610  143.0510 N   0  0  0  0  0  2  0  0  0  0  0  0
  180.4730  179.7360  142.0080 C   0  0  0  0  0  0  0  0  0  0  0  0
  181.6030  179.7790  142.8790 N   0  0  0  0  0  2  0  0  0  0  0  0
  179.7230  180.7810  141.8850 N   0  0  0  0  0  2  0  0  0  0  0  0
  180.1630  178.5050  141.2220 C   0  0  0  0  0  2  0  0  0  0  0  0
  179.9170  178.8350  139.7630 C   0  0  0  0  0  2  0  0  0  0  0  0
  181.1300  178.4500  138.9210 C   0  0  0  0  0  2  0  0  0  0  0  0
  181.4010  179.4960  137.8500 C   0  0  0  0  0  2  0  0  0  0  0  0
  181.9660  180.7410  138.4530 C   0  0  0  0  0  0  0  0  0  0  0  0
  181.1510  181.8990  138.5830 N   0  0  0  0  0  1  0  0  0  0  0  0
  183.1570  180.7650  138.8590 O   0  0  0  0  0  0  0  0  0  0  0  0
  189.3130  177.6190  141.3180 C   0  0  0  0  0  2  0  0  0  0  0  0
  188.9860  177.4850  139.8430 C   0  0  0  0  0  2  0  0  0  0  0  0
  187.6860  178.2050  139.5230 C   0  0  0  0  0  2  0  0  0  0  0  0
  185.8180  178.0580  137.8890 C   0  0  0  0  0  2  0  0  0  0  0  0
  187.7860  176.3300  137.5550 S   0  0  0  0  0  0  0  0  0  0  0  0
  185.4760  177.4240  136.6250 N   0  0  2  0  0  0  0  0  0  0  0  0
  185.5560  175.0430  136.7580 N   0  0  0  0  0  2  0  0  0  0  0  0
  184.1210  176.9250  136.7630 C   0  0  0  0  0  2  0  0  0  0  0  0
  186.3260  176.2420  136.4640 C   0  0  2  0  0  3  0  0  0  0  0  0
  184.1760  175.4350  136.5570 C   0  0  0  0  0  2  0  0  0  0  0  0
  187.3120  177.9880  138.0670 C   0  0  2  0  0  3  0  0  0  0  0  0
  1  3  1  0  0  0  0
  2 14  2  0  0  0  0
  3 12  2  0  0  0  0
  3  8  1  0  0  0  0
  4 17  1  0  0  0  0
  5 15  1  0  0  0  0
  5  1  1  0  0  0  0
  6  2  1  0  0  0  0
  6  1  2  0  0  0  0
  7  9  1  0  0  0  0
  7 17  2  0  0  0  0
  8  4  2  0  0  0  0
 10 11  2  0  0  0  0
 10 18  1  0  0  0  0
 11  8  1  0  0  0  0
 11  7  1  0  0  0  0
 13 10  1  0  0  0  0
 14 12  1  0  0  0  0
 15 13  1  6  0  0  0
 16  5  1  0  0  0  0
 16 15  1  0  0  0  0
 18  9  2  0  0  0  0
 20 19  1  6  0  0  0
 20 21  1  0  0  0  0
 20  2  1  0  0  0  0
 22 23  1  0  0  0  0
 23 21  1  0  0  0  0
 24 22  2  0  0  0  0
 25 22  1  0  0  0  0
 26 25  1  0  0  0  0
 27 26  1  0  0  0  0
 28 29  1  0  0  0  0
 28 27  1  0  0  0  0
 29 30  1  0  0  0  0
 29 31  2  0  0  0  0
 32 16  1  0  0  0  0
 33 32  1  0  0  0  0
 34 33  1  0  0  0  0
 35 42  1  0  0  0  0
 36 42  1  0  0  0  0
 37 39  1  1  0  0  0
 37 35  1  0  0  0  0
 40 37  1  0  0  0  0
 40 38  1  1  0  0  0
 40 36  1  0  0  0  0
 41 38  1  0  0  0  0
 41 39  1  0  0  0  0
 42 34  1  1  0  0  0
M  END
>  <MODEL>
2

>  <REMARK>
 VINA RESULT:      -9.1      2.660      7.873
  Name = 
  12 active torsions:
  status: ('A' for Active; 'I' for Inactive)
    1  A    between atoms: C_1  and  C_10
    2  A    between atoms: C_1  and  C_34
    3  A    between atoms: C_2  and  C_11
    4  A    between atoms: C_2  and  C_16
    5  A    between atoms: C_4  and  C_10
    6  A    between atoms: C_6  and  C_30
    7  A    between atoms: C_8  and  C_40
    8  A    between atoms: C_11  and  C_38
    9  A    between atoms: N_12  and  N_24
   10  A    between atoms: C_16  and  N_39
   11  A    between atoms: N_24  and  C_30
   12  A    between atoms: C_34  and  C_40
                            x       y       z     vdW  Elec       q    Type
                         _______ _______ _______ _____ _____    ______ ____

>  <TORSDO>
F 12

$$$$
=
 OpenBabel10222419283D

 42 48  0  0  1  0  0  0  0  0999 V2000
  186.9080  177.5490  143.7190 C   0  0  0  0  0  0  0  0  0  0  0  0
  184.7470  178.6200  143.3860 C   0  0  0  0  0  0  0  0  0  0  0  0
  186.8490  177.8400  145.1040 C   0  0  0  0  0  0  0  0  0  0  0  0
  187.6930  177.3510  147.4150 C   0  0  0  0  0  3  0  0  0  0  0  0
  187.9960  176.8450  143.1330 N   0  0  0  0  0  0  0  0  0  0  0  0
  185.8600  177.9420  142.8790 C   0  0  0  0  0  3  0  0  0  0  0  0
  189.8180  177.1100  147.2370 C   0  0  0  0  0  0  0  0  0  0  0  0
  187.9040  177.4730  146.0880 C   0  0  0  0  0  0  0  0  0  0  0  0
  191.2430  176.8570  147.2380 C   0  0  0  0  0  3  0  0  0  0  0  0
  190.3650  177.2060  145.1180 C   0  0  0  0  0  0  0  0  0  0  0  0
  189.3450  177.3150  145.9490 C   0  0  0  0  0  0  0  0  0  0  0  0
  185.7100  178.5020  145.5970 C   0  0  0  0  0  3  0  0  0  0  0  0
  190.3190  177.2100  143.6320 C   0  0  0  0  0  2  0  0  0  0  0  0
  184.6710  178.8910  144.7500 C   0  0  0  0  0  3  0  0  0  0  0  0
  189.2880  176.1810  143.1730 C   0  0  2  0  0  3  0  0  0  0  0  0
  188.7140  176.3520  141.9520 N   0  0  0  0  0  0  0  0  0  0  0  0
  188.9100  177.0910  148.1470 N   0  0  0  0  0  0  0  0  0  0  0  0
  191.5730  176.9190  145.9340 C   0  0  0  0  0  3  0  0  0  0  0  0
  183.7720  178.4390  141.1070 C   0  0  0  0  0  1  0  0  0  0  0  0
  183.6210  179.0370  142.4940 C   0  0  1  0  0  3  0  0  0  0  0  0
  182.3490  178.6440  143.0740 N   0  0  0  0  0  2  0  0  0  0  0  0
  180.3540  179.8080  142.2130 C   0  0  0  0  0  0  0  0  0  0  0  0
  181.5180  179.7720  143.0380 N   0  0  0  0  0  2  0  0  0  0  0  0
  179.6030  180.8590  142.2160 N   0  0  0  0  0  2  0  0  0  0  0  0
  180.0080  178.6530  141.3320 C   0  0  0  0  0  2  0  0  0  0  0  0
  180.1820  179.0100  139.8690 C   0  0  0  0  0  2  0  0  0  0  0  0
  180.3450  177.7450  139.0310 C   0  0  0  0  0  2  0  0  0  0  0  0
  180.7740  176.5720  139.8980 C   0  0  0  0  0  2  0  0  0  0  0  0
  181.5800  175.5920  139.1080 C   0  0  0  0  0  0  0  0  0  0  0  0
  180.9250  174.6260  138.2980 N   0  0  0  0  0  1  0  0  0  0  0  0
  182.8380  175.6280  139.1470 O   0  0  0  0  0  0  0  0  0  0  0  0
  189.1510  177.5320  141.2020 C   0  0  0  0  0  2  0  0  0  0  0  0
  188.4990  177.5430  139.8320 C   0  0  0  0  0  2  0  0  0  0  0  0
  189.2900  178.4250  138.8800 C   0  0  0  0  0  2  0  0  0  0  0  0
  188.5430  176.6850  137.2690 C   0  0  0  0  0  2  0  0  0  0  0  0
  191.1030  176.6450  137.9080 S   0  0  0  0  0  0  0  0  0  0  0  0
  189.0830  175.6850  136.3610 N   0  0  2  0  0  0  0  0  0  0  0  0
  190.4260  174.0700  137.4920 N   0  0  0  0  0  2  0  0  0  0  0  0
  188.2960  174.4820  136.5480 C   0  0  0  0  0  2  0  0  0  0  0  0
  190.4390  175.3530  136.8060 C   0  0  2  0  0  3  0  0  0  0  0  0
  189.2410  173.4010  136.9970 C   0  0  0  0  0  2  0  0  0  0  0  0
  189.6410  177.6530  137.6200 C   0  0  2  0  0  3  0  0  0  0  0  0
  1  3  1  0  0  0  0
  2 14  2  0  0  0  0
  3 12  2  0  0  0  0
  3  8  1  0  0  0  0
  4 17  1  0  0  0  0
  5 15  1  0  0  0  0
  5  1  1  0  0  0  0
  6  2  1  0  0  0  0
  6  1  2  0  0  0  0
  7  9  1  0  0  0  0
  7 17  2  0  0  0  0
  8  4  2  0  0  0  0
 10 18  1  0  0  0  0
 10 11  2  0  0  0  0
 11  8  1  0  0  0  0
 11  7  1  0  0  0  0
 13 10  1  0  0  0  0
 14 12  1  0  0  0  0
 15 13  1  6  0  0  0
 16  5  1  0  0  0  0
 16 15  1  0  0  0  0
 18  9  2  0  0  0  0
 20 19  1  6  0  0  0
 20 21  1  0  0  0  0
 20  2  1  0  0  0  0
 22 24  2  0  0  0  0
 22 23  1  0  0  0  0
 23 21  1  0  0  0  0
 25 22  1  0  0  0  0
 26 25  1  0  0  0  0
 27 26  1  0  0  0  0
 27 28  1  0  0  0  0
 29 31  2  0  0  0  0
 29 28  1  0  0  0  0
 30 29  1  0  0  0  0
 32 16  1  0  0  0  0
 33 32  1  0  0  0  0
 34 33  1  0  0  0  0
 35 42  1  0  0  0  0
 37 39  1  1  0  0  0
 37 40  1  0  0  0  0
 37 35  1  0  0  0  0
 39 41  1  0  0  0  0
 40 38  1  1  0  0  0
 40 36  1  0  0  0  0
 41 38  1  0  0  0  0
 42 36  1  0  0  0  0
 42 34  1  1  0  0  0
M  END
>  <MODEL>
3

>  <REMARK>
 VINA RESULT:      -9.1      2.615      7.553
  Name = 
  12 active torsions:
  status: ('A' for Active; 'I' for Inactive)
    1  A    between atoms: C_1  and  C_10
    2  A    between atoms: C_1  and  C_34
    3  A    between atoms: C_2  and  C_11
    4  A    between atoms: C_2  and  C_16
    5  A    between atoms: C_4  and  C_10
    6  A    between atoms: C_6  and  C_30
    7  A    between atoms: C_8  and  C_40
    8  A    between atoms: C_11  and  C_38
    9  A    between atoms: N_12  and  N_24
   10  A    between atoms: C_16  and  N_39
   11  A    between atoms: N_24  and  C_30
   12  A    between atoms: C_34  and  C_40
                            x       y       z     vdW  Elec       q    Type
                         _______ _______ _______ _____ _____    ______ ____

>  <TORSDO>
F 12

$$$$
=
 OpenBabel10222419283D

 42 48  0  0  1  0  0  0  0  0999 V2000
  186.2890  178.4400  141.4080 C   0  0  0  0  0  0  0  0  0  0  0  0
  188.5310  177.5650  141.7770 C   0  0  0  0  0  0  0  0  0  0  0  0
  185.9910  178.2840  142.7840 C   0  0  0  0  0  0  0  0  0  0  0  0
  184.5190  178.8930  144.7210 C   0  0  0  0  0  3  0  0  0  0  0  0
  185.3520  178.9770  140.4810 N   0  0  0  0  0  0  0  0  0  0  0  0
  187.5500  178.0800  140.9220 C   0  0  0  0  0  3  0  0  0  0  0  0
  182.5110  178.9030  143.9680 C   0  0  0  0  0  0  0  0  0  0  0  0
  184.6860  178.6310  143.4090 C   0  0  0  0  0  0  0  0  0  0  0  0
  181.1240  179.0120  143.5660 C   0  0  0  0  0  3  0  0  0  0  0  0
  182.5660  178.5630  141.8040 C   0  0  0  0  0  0  0  0  0  0  0  0
  183.3290  178.6310  142.8810 C   0  0  0  0  0  0  0  0  0  0  0  0
  186.9990  177.7850  143.6300 C   0  0  0  0  0  3  0  0  0  0  0  0
  183.0140  178.4290  140.3920 C   0  0  0  0  0  2  0  0  0  0  0  0
  188.2530  177.4270  143.1350 C   0  0  0  0  0  3  0  0  0  0  0  0
  184.0540  179.5090  140.1050 C   0  0  2  0  0  3  0  0  0  0  0  0
  184.9480  179.2870  139.1060 N   0  0  0  0  0  0  0  0  0  0  0  0
  183.1350  179.0950  145.0750 N   0  0  0  0  0  0  0  0  0  0  0  0
  181.1660  178.8000  142.2380 C   0  0  0  0  0  3  0  0  0  0  0  0
  190.1840  177.8750  139.9470 C   0  0  0  0  0  1  0  0  0  0  0  0
  189.8820  177.1830  141.2650 C   0  0  1  0  0  3  0  0  0  0  0  0
  190.9020  177.5080  142.2460 N   0  0  0  0  0  2  0  0  0  0  0  0
  191.6830  175.9860  144.0210 C   0  0  0  0  0  0  0  0  0  0  0  0
  191.4880  176.2980  142.6410 N   0  0  0  0  0  2  0  0  0  0  0  0
  192.2130  174.8550  144.3490 N   0  0  0  0  0  2  0  0  0  0  0  0
  191.3010  176.9610  145.0840 C   0  0  0  0  0  2  0  0  0  0  0  0
  191.5360  176.3840  146.4660 C   0  0  0  0  0  2  0  0  0  0  0  0
  190.4630  176.8740  147.4340 C   0  0  0  0  0  2  0  0  0  0  0  0
  189.2990  177.5010  146.6820 C   0  0  0  0  0  2  0  0  0  0  0  0
  188.1990  177.8770  147.6200 C   0  0  0  0  0  0  0  0  0  0  0  0
  186.8540  177.9020  147.1620 N   0  0  0  0  0  1  0  0  0  0  0  0
  188.4570  178.1590  148.8200 O   0  0  0  0  0  0  0  0  0  0  0  0
  184.8160  178.0070  138.4060 C   0  0  0  0  0  2  0  0  0  0  0  0
  185.9360  177.8540  137.3950 C   0  0  0  0  0  2  0  0  0  0  0  0
  185.4610  177.0420  136.2010 C   0  0  0  0  0  2  0  0  0  0  0  0
  187.1860  175.2510  136.2260 C   0  0  0  0  0  2  0  0  0  0  0  0
  187.9970  177.6270  135.4110 S   0  0  0  0  0  0  0  0  0  0  0  0
  188.5380  174.9850  135.7610 N   0  0  2  0  0  0  0  0  0  0  0  0
  190.1200  176.5310  136.6560 N   0  0  0  0  0  2  0  0  0  0  0  0
  189.2380  174.3450  136.8590 C   0  0  0  0  0  2  0  0  0  0  0  0
  189.2090  176.2720  135.5530 C   0  0  2  0  0  3  0  0  0  0  0  0
  190.4070  175.2250  137.2110 C   0  0  0  0  0  2  0  0  0  0  0  0
  186.6480  176.4380  135.4710 C   0  0  2  0  0  3  0  0  0  0  0  0
  1  3  1  0  0  0  0
  2 14  2  0  0  0  0
  3  8  1  0  0  0  0
  3 12  2  0  0  0  0
  4 17  1  0  0  0  0
  5  1  1  0  0  0  0
  6  1  2  0  0  0  0
  6  2  1  0  0  0  0
  7 17  2  0  0  0  0
  8  4  2  0  0  0  0
  9  7  1  0  0  0  0
 10 18  1  0  0  0  0
 10 11  2  0  0  0  0
 11  8  1  0  0  0  0
 11  7  1  0  0  0  0
 13 10  1  0  0  0  0
 14 12  1  0  0  0  0
 15 13  1  6  0  0  0
 15  5  1  0  0  0  0
 16 15  1  0  0  0  0
 16  5  1  0  0  0  0
 18  9  2  0  0  0  0
 20 19  1  6  0  0  0
 20  2  1  0  0  0  0
 20 21  1  0  0  0  0
 21 23  1  0  0  0  0
 22 24  2  0  0  0  0
 22 25  1  0  0  0  0
 23 22  1  0  0  0  0
 25 26  1  0  0  0  0
 26 27  1  0  0  0  0
 28 27  1  0  0  0  0
 28 29  1  0  0  0  0
 29 31  2  0  0  0  0
 30 29  1  0  0  0  0
 32 16  1  0  0  0  0
 33 32  1  0  0  0  0
 34 33  1  0  0  0  0
 36 42  1  0  0  0  0
 37 35  1  1  0  0  0
 37 39  1  0  0  0  0
 38 41  1  0  0  0  0
 39 41  1  0  0  0  0
 40 36  1  1  0  0  0
 40 37  1  0  0  0  0
 40 38  1  0  0  0  0
 42 34  1  1  0  0  0
 42 35  1  0  0  0  0
M  END
>  <MODEL>
4

>  <REMARK>
 VINA RESULT:      -8.9      1.636      2.324
  Name = 
  12 active torsions:
  status: ('A' for Active; 'I' for Inactive)
    1  A    between atoms: C_1  and  C_10
    2  A    between atoms: C_1  and  C_34
    3  A    between atoms: C_2  and  C_11
    4  A    between atoms: C_2  and  C_16
    5  A    between atoms: C_4  and  C_10
    6  A    between atoms: C_6  and  C_30
    7  A    between atoms: C_8  and  C_40
    8  A    between atoms: C_11  and  C_38
    9  A    between atoms: N_12  and  N_24
   10  A    between atoms: C_16  and  N_39
   11  A    between atoms: N_24  and  C_30
   12  A    between atoms: C_34  and  C_40
                            x       y       z     vdW  Elec       q    Type
                         _______ _______ _______ _____ _____    ______ ____

>  <TORSDO>
F 12

$$$$
=
 OpenBabel10222419283D

 42 48  0  0  1  0  0  0  0  0999 V2000
  187.3530  177.4600  143.3730 C   0  0  0  0  0  0  0  0  0  0  0  0
  185.2660  178.5190  142.7020 C   0  0  0  0  0  0  0  0  0  0  0  0
  187.0800  177.7610  144.7300 C   0  0  0  0  0  0  0  0  0  0  0  0
  187.5590  177.2930  147.1470 C   0  0  0  0  0  3  0  0  0  0  0  0
  188.5210  176.7550  142.9680 N   0  0  0  0  0  0  0  0  0  0  0  0
  186.4460  177.8410  142.3780 C   0  0  0  0  0  3  0  0  0  0  0  0
  189.6860  177.0600  147.3010 C   0  0  0  0  0  0  0  0  0  0  0  0
  187.9710  177.4060  145.8680 C   0  0  0  0  0  0  0  0  0  0  0  0
  191.0950  176.8130  147.5240 C   0  0  0  0  0  3  0  0  0  0  0  0
  190.5540  177.1420  145.2920 C   0  0  0  0  0  0  0  0  0  0  0  0
  189.4170  177.2530  145.9550 C   0  0  0  0  0  0  0  0  0  0  0  0
  185.8760  178.4220  145.0350 C   0  0  0  0  0  3  0  0  0  0  0  0
  190.7370  177.1340  143.8160 C   0  0  0  0  0  2  0  0  0  0  0  0
  184.9800  178.8000  144.0360 C   0  0  0  0  0  3  0  0  0  0  0  0
  189.7930  176.0980  143.2120 C   0  0  2  0  0  3  0  0  0  0  0  0
  189.4130  176.2560  141.9160 N   0  0  0  0  0  0  0  0  0  0  0  0
  188.6490  177.0450  148.0600 N   0  0  0  0  0  0  0  0  0  0  0  0
  191.6220  176.8670  146.2870 C   0  0  0  0  0  3  0  0  0  0  0  0
  184.9910  179.1730  140.3200 C   0  0  0  0  0  1  0  0  0  0  0  0
  184.2900  178.9240  141.6430 C   0  0  1  0  0  3  0  0  0  0  0  0
  183.2680  177.9040  141.4860 N   0  0  0  0  0  2  0  0  0  0  0  0
  182.3340  176.8280  139.4740 C   0  0  0  0  0  0  0  0  0  0  0  0
  183.4410  177.3460  140.2120 N   0  0  0  0  0  2  0  0  0  0  0  0
  182.5290  176.3340  138.2960 N   0  0  0  0  0  2  0  0  0  0  0  0
  180.9610  176.8300  140.0590 C   0  0  0  0  0  2  0  0  0  0  0  0
  180.2110  178.0940  139.6890 C   0  0  0  0  0  2  0  0  0  0  0  0
  179.8140  178.8610  140.9480 C   0  0  0  0  0  2  0  0  0  0  0  0
  179.6340  177.9150  142.1250 C   0  0  0  0  0  2  0  0  0  0  0  0
  179.9280  178.6090  143.4150 C   0  0  0  0  0  0  0  0  0  0  0  0
  178.9310  178.6780  144.4260 N   0  0  0  0  0  1  0  0  0  0  0  0
  181.0590  179.1220  143.6160 O   0  0  0  0  0  0  0  0  0  0  0  0
  189.9570  177.4320  141.2320 C   0  0  0  0  0  2  0  0  0  0  0  0
  189.7860  177.2820  139.7330 C   0  0  0  0  0  2  0  0  0  0  0  0
  188.7640  178.2820  139.2170 C   0  0  0  0  0  2  0  0  0  0  0  0
  187.0550  178.2130  137.4130 C   0  0  0  0  0  2  0  0  0  0  0  0
  188.9420  176.3710  137.2890 S   0  0  0  0  0  0  0  0  0  0  0  0
  186.7980  177.5790  136.1290 N   0  0  2  0  0  0  0  0  0  0  0  0
  186.7280  175.2000  136.2960 N   0  0  0  0  0  2  0  0  0  0  0  0
  185.4100  177.1590  136.1410 C   0  0  0  0  0  2  0  0  0  0  0  0
  187.5910  176.3480  136.0640 C   0  0  2  0  0  3  0  0  0  0  0  0
  185.3990  175.6650  135.9590 C   0  0  0  0  0  2  0  0  0  0  0  0
  188.5180  178.0620  137.7340 C   0  0  2  0  0  3  0  0  0  0  0  0
  1  3  1  0  0  0  0
  2 14  2  0  0  0  0
  3 12  2  0  0  0  0
  3  8  1  0  0  0  0
  4 17  1  0  0  0  0
  5 15  1  0  0  0  0
  5  1  1  0  0  0  0
  6  2  1  0  0  0  0
  6  1  2  0  0  0  0
  7  9  1  0  0  0  0
  7 17  2  0  0  0  0
  8 11  1  0  0  0  0
  8  4  2  0  0  0  0
 10 11  2  0  0  0  0
 10 18  1  0  0  0  0
 11  7  1  0  0  0  0
 13 10  1  0  0  0  0
 14 12  1  0  0  0  0
 15 13  1  6  0  0  0
 16  5  1  0  0  0  0
 16 15  1  0  0  0  0
 18  9  2  0  0  0  0
 20 19  1  6  0  0  0
 20  2  1  0  0  0  0
 21 20  1  0  0  0  0
 22 25  1  0  0  0  0
 22 23  1  0  0  0  0
 23 21  1  0  0  0  0
 24 22  2  0  0  0  0
 26 25  1  0  0  0  0
 26 27  1  0  0  0  0
 27 28  1  0  0  0  0
 28 29  1  0  0  0  0
 29 31  2  0  0  0  0
 29 30  1  0  0  0  0
 32 16  1  0  0  0  0
 33 32  1  0  0  0  0
 34 33  1  0  0  0  0
 35 42  1  0  0  0  0
 36 42  1  0  0  0  0
 37 39  1  1  0  0  0
 37 35  1  0  0  0  0
 40 37  1  0  0  0  0
 40 38  1  1  0  0  0
 40 36  1  0  0  0  0
 41 39  1  0  0  0  0
 41 38  1  0  0  0  0
 42 34  1  1  0  0  0
M  END
>  <MODEL>
5

>  <REMARK>
 VINA RESULT:      -8.8      2.303      7.290
  Name = 
  12 active torsions:
  status: ('A' for Active; 'I' for Inactive)
    1  A    between atoms: C_1  and  C_10
    2  A    between atoms: C_1  and  C_34
    3  A    between atoms: C_2  and  C_11
    4  A    between atoms: C_2  and  C_16
    5  A    between atoms: C_4  and  C_10
    6  A    between atoms: C_6  and  C_30
    7  A    between atoms: C_8  and  C_40
    8  A    between atoms: C_11  and  C_38
    9  A    between atoms: N_12  and  N_24
   10  A    between atoms: C_16  and  N_39
   11  A    between atoms: N_24  and  C_30
   12  A    between atoms: C_34  and  C_40
                            x       y       z     vdW  Elec       q    Type
                         _______ _______ _______ _____ _____    ______ ____

>  <TORSDO>
F 12

$$$$
=
 OpenBabel10222419283D

 42 48  0  0  1  0  0  0  0  0999 V2000
  186.2590  178.4570  141.3260 C   0  0  0  0  0  0  0  0  0  0  0  0
  188.4970  177.5710  141.6930 C   0  0  0  0  0  0  0  0  0  0  0  0
  185.9600  178.2960  142.7010 C   0  0  0  0  0  0  0  0  0  0  0  0
  184.4890  178.9030  144.6400 C   0  0  0  0  0  3  0  0  0  0  0  0
  185.3250  179.0010  140.4010 N   0  0  0  0  0  0  0  0  0  0  0  0
  187.5190  178.0940  140.8400 C   0  0  0  0  0  3  0  0  0  0  0  0
  182.4810  178.9240  143.8840 C   0  0  0  0  0  0  0  0  0  0  0  0
  184.6550  178.6460  143.3260 C   0  0  0  0  0  0  0  0  0  0  0  0
  181.0950  179.0400  143.4820 C   0  0  0  0  0  3  0  0  0  0  0  0
  182.5370  178.5930  141.7200 C   0  0  0  0  0  0  0  0  0  0  0  0
  183.2980  178.6540  142.7970 C   0  0  0  0  0  0  0  0  0  0  0  0
  186.9650  177.7900  143.5460 C   0  0  0  0  0  3  0  0  0  0  0  0
  182.9850  178.4630  140.3080 C   0  0  0  0  0  2  0  0  0  0  0  0
  188.2180  177.4290  143.0510 C   0  0  0  0  0  3  0  0  0  0  0  0
  184.0290  179.5400  140.0260 C   0  0  2  0  0  3  0  0  0  0  0  0
  184.9230  179.3190  139.0260 N   0  0  0  0  0  0  0  0  0  0  0  0
  183.1050  179.1090  144.9930 N   0  0  0  0  0  0  0  0  0  0  0  0
  181.1370  178.8330  142.1530 C   0  0  0  0  0  3  0  0  0  0  0  0
  190.1490  177.8760  139.8610 C   0  0  0  0  0  1  0  0  0  0  0  0
  189.8480  177.1870  141.1800 C   0  0  1  0  0  3  0  0  0  0  0  0
  190.8690  177.5120  142.1600 N   0  0  0  0  0  2  0  0  0  0  0  0
  191.5760  176.0390  144.0060 C   0  0  0  0  0  0  0  0  0  0  0  0
  191.4020  176.2980  142.6130 N   0  0  0  0  0  2  0  0  0  0  0  0
  192.0570  174.9020  144.3870 N   0  0  0  0  0  2  0  0  0  0  0  0
  191.2290  177.0750  145.0230 C   0  0  0  0  0  2  0  0  0  0  0  0
  191.5700  176.6040  146.4230 C   0  0  0  0  0  2  0  0  0  0  0  0
  190.3610  176.7530  147.3410 C   0  0  0  0  0  2  0  0  0  0  0  0
  189.1270  177.1630  146.5510 C   0  0  0  0  0  2  0  0  0  0  0  0
  188.0760  177.7180  147.4560 C   0  0  0  0  0  0  0  0  0  0  0  0
  188.3480  177.8830  148.8420 N   0  0  0  0  0  1  0  0  0  0  0  0
  186.9540  178.0530  146.9950 O   0  0  0  0  0  0  0  0  0  0  0  0
  184.7880  178.0420  138.3210 C   0  0  0  0  0  2  0  0  0  0  0  0
  185.9150  177.8830  137.3190 C   0  0  0  0  0  2  0  0  0  0  0  0
  185.5660  176.8110  136.3000 C   0  0  0  0  0  2  0  0  0  0  0  0
  185.1070  174.5460  137.2180 C   0  0  0  0  0  2  0  0  0  0  0  0
  183.2680  175.5330  135.6030 S   0  0  0  0  0  0  0  0  0  0  0  0
  184.0340  173.5700  137.3220 N   0  0  2  0  0  0  0  0  0  0  0  0
  183.2390  172.8710  135.1830 N   0  0  0  0  0  2  0  0  0  0  0  0
  184.6140  172.2770  137.0140 C   0  0  0  0  0  2  0  0  0  0  0  0
  183.0680  173.8410  136.2540 C   0  0  2  0  0  3  0  0  0  0  0  0
  183.8840  171.7390  135.8130 C   0  0  0  0  0  2  0  0  0  0  0  0
  184.5050  175.8790  136.8620 C   0  0  2  0  0  3  0  0  0  0  0  0
  1  3  1  0  0  0  0
  2 14  2  0  0  0  0
  3  8  1  0  0  0  0
  3 12  2  0  0  0  0
  4 17  1  0  0  0  0
  5  1  1  0  0  0  0
  6  1  2  0  0  0  0
  6  2  1  0  0  0  0
  7 17  2  0  0  0  0
  8  4  2  0  0  0  0
  9  7  1  0  0  0  0
 10 18  1  0  0  0  0
 10 11  2  0  0  0  0
 11  8  1  0  0  0  0
 11  7  1  0  0  0  0
 13 10  1  0  0  0  0
 14 12  1  0  0  0  0
 15 13  1  6  0  0  0
 15  5  1  0  0  0  0
 16 15  1  0  0  0  0
 16  5  1  0  0  0  0
 18  9  2  0  0  0  0
 20 19  1  6  0  0  0
 20  2  1  0  0  0  0
 20 21  1  0  0  0  0
 21 23  1  0  0  0  0
 22 24  2  0  0  0  0
 22 25  1  0  0  0  0
 23 22  1  0  0  0  0
 25 26  1  0  0  0  0
 26 27  1  0  0  0  0
 28 27  1  0  0  0  0
 28 29  1  0  0  0  0
 29 30  1  0  0  0  0
 31 29  2  0  0  0  0
 32 16  1  0  0  0  0
 33 32  1  0  0  0  0
 34 33  1  0  0  0  0
 35 37  1  0  0  0  0
 36 40  1  0  0  0  0
 36 42  1  0  0  0  0
 37 39  1  6  0  0  0
 38 41  1  0  0  0  0
 40 38  1  6  0  0  0
 40 37  1  0  0  0  0
 41 39  1  0  0  0  0
 42 34  1  6  0  0  0
 42 35  1  0  0  0  0
M  END
>  <MODEL>
6

>  <REMARK>
 VINA RESULT:      -8.7      2.772      3.830
  Name = 
  12 active torsions:
  status: ('A' for Active; 'I' for Inactive)
    1  A    between atoms: C_1  and  C_10
    2  A    between atoms: C_1  and  C_34
    3  A    between atoms: C_2  and  C_11
    4  A    between atoms: C_2  and  C_16
    5  A    between atoms: C_4  and  C_10
    6  A    between atoms: C_6  and  C_30
    7  A    between atoms: C_8  and  C_40
    8  A    between atoms: C_11  and  C_38
    9  A    between atoms: N_12  and  N_24
   10  A    between atoms: C_16  and  N_39
   11  A    between atoms: N_24  and  C_30
   12  A    between atoms: C_34  and  C_40
                            x       y       z     vdW  Elec       q    Type
                         _______ _______ _______ _____ _____    ______ ____

>  <TORSDO>
F 12

$$$$
=
 OpenBabel10222419283D

 42 48  0  0  1  0  0  0  0  0999 V2000
  187.0650  177.3900  143.6840 C   0  0  0  0  0  0  0  0  0  0  0  0
  184.8620  178.3120  143.2070 C   0  0  0  0  0  0  0  0  0  0  0  0
  186.9190  177.7270  145.0520 C   0  0  0  0  0  0  0  0  0  0  0  0
  187.6760  177.3750  147.4180 C   0  0  0  0  0  3  0  0  0  0  0  0
  188.2210  176.7340  143.1790 N   0  0  0  0  0  0  0  0  0  0  0  0
  186.0390  177.6860  142.7810 C   0  0  0  0  0  3  0  0  0  0  0  0
  189.8170  177.2600  147.3510 C   0  0  0  0  0  0  0  0  0  0  0  0
  187.9440  177.4620  146.0990 C   0  0  0  0  0  0  0  0  0  0  0  0
  191.2530  177.0960  147.4290 C   0  0  0  0  0  3  0  0  0  0  0  0
  190.4630  177.3130  145.2590 C   0  0  0  0  0  0  0  0  0  0  0  0
  189.3970  177.3880  146.0360 C   0  0  0  0  0  0  0  0  0  0  0  0
  185.7190  178.3350  145.4640 C   0  0  0  0  0  3  0  0  0  0  0  0
  190.4900  177.2600  143.7730 C   0  0  0  0  0  2  0  0  0  0  0  0
  184.7030  178.6280  144.5550 C   0  0  0  0  0  3  0  0  0  0  0  0
  189.5470  176.1540  143.3060 C   0  0  2  0  0  3  0  0  0  0  0  0
  189.0250  176.2440  142.0540 N   0  0  0  0  0  0  0  0  0  0  0  0
  188.8670  177.2180  148.2170 N   0  0  0  0  0  0  0  0  0  0  0  0
  191.6430  177.1320  146.1420 C   0  0  0  0  0  3  0  0  0  0  0  0
  182.6450  179.4010  142.9270 C   0  0  0  0  0  1  0  0  0  0  0  0
  183.7600  178.6260  142.2470 C   0  0  1  0  0  3  0  0  0  0  0  0
  184.2760  179.3770  141.1180 N   0  0  0  0  0  2  0  0  0  0  0  0
  183.3230  179.1810  138.8530 C   0  0  0  0  0  0  0  0  0  0  0  0
  184.0140  178.6190  139.9690 N   0  0  0  0  0  2  0  0  0  0  0  0
  183.1110  178.4570  137.8040 N   0  0  0  0  0  2  0  0  0  0  0  0
  182.8230  180.5870  138.8950 C   0  0  0  0  0  2  0  0  0  0  0  0
  181.5550  180.7420  138.0790 C   0  0  0  0  0  2  0  0  0  0  0  0
  181.0000  182.1560  138.2270 C   0  0  0  0  0  2  0  0  0  0  0  0
  180.6590  182.7490  136.8680 C   0  0  0  0  0  2  0  0  0  0  0  0
  181.2760  184.1010  136.7070 C   0  0  0  0  0  0  0  0  0  0  0  0
  182.3050  184.5200  137.5940 N   0  0  0  0  0  1  0  0  0  0  0  0
  180.8980  184.8650  135.7820 O   0  0  0  0  0  0  0  0  0  0  0  0
  189.4270  177.4200  141.2790 C   0  0  0  0  0  2  0  0  0  0  0  0
  189.1320  177.1960  139.8090 C   0  0  0  0  0  2  0  0  0  0  0  0
  190.3920  177.3930  138.9820 C   0  0  0  0  0  2  0  0  0  0  0  0
  189.0550  178.1910  137.0440 C   0  0  0  0  0  2  0  0  0  0  0  0
  189.3530  175.5760  137.2450 S   0  0  0  0  0  0  0  0  0  0  0  0
  188.4760  177.7070  135.8000 N   0  0  2  0  0  0  0  0  0  0  0  0
  186.9130  175.9400  136.1590 N   0  0  0  0  0  2  0  0  0  0  0  0
  187.1360  178.2550  135.7220 C   0  0  0  0  0  2  0  0  0  0  0  0
  188.3120  176.2550  135.9100 C   0  0  2  0  0  3  0  0  0  0  0  0
  186.1850  177.0900  135.6660 C   0  0  0  0  0  2  0  0  0  0  0  0
  190.0870  177.1970  137.5070 C   0  0  2  0  0  3  0  0  0  0  0  0
  1  3  1  0  0  0  0
  2 14  2  0  0  0  0
  3 12  2  0  0  0  0
  3  8  1  0  0  0  0
  4 17  1  0  0  0  0
  5 15  1  0  0  0  0
  5  1  1  0  0  0  0
  6  2  1  0  0  0  0
  6  1  2  0  0  0  0
  7  9  1  0  0  0  0
  7 17  2  0  0  0  0
  8  4  2  0  0  0  0
 10 11  2  0  0  0  0
 10 18  1  0  0  0  0
 11  8  1  0  0  0  0
 11  7  1  0  0  0  0
 13 10  1  0  0  0  0
 14 12  1  0  0  0  0
 15 13  1  6  0  0  0
 16  5  1  0  0  0  0
 16 15  1  0  0  0  0
 18  9  2  0  0  0  0
 20 19  1  1  0  0  0
 20  2  1  0  0  0  0
 21 20  1  0  0  0  0
 22 25  1  0  0  0  0
 22 23  1  0  0  0  0
 23 21  1  0  0  0  0
 24 22  2  0  0  0  0
 26 27  1  0  0  0  0
 26 25  1  0  0  0  0
 28 27  1  0  0  0  0
 29 28  1  0  0  0  0
 29 30  1  0  0  0  0
 31 29  2  0  0  0  0
 32 16  1  0  0  0  0
 33 32  1  0  0  0  0
 34 33  1  0  0  0  0
 35 42  1  0  0  0  0
 36 42  1  0  0  0  0
 37 39  1  1  0  0  0
 37 40  1  0  0  0  0
 37 35  1  0  0  0  0
 40 38  1  1  0  0  0
 40 36  1  0  0  0  0
 41 39  1  0  0  0  0
 41 38  1  0  0  0  0
 42 34  1  1  0  0  0
M  END
>  <MODEL>
7

>  <REMARK>
 VINA RESULT:      -8.7      3.200      8.034
  Name = 
  12 active torsions:
  status: ('A' for Active; 'I' for Inactive)
    1  A    between atoms: C_1  and  C_10
    2  A    between atoms: C_1  and  C_34
    3  A    between atoms: C_2  and  C_11
    4  A    between atoms: C_2  and  C_16
    5  A    between atoms: C_4  and  C_10
    6  A    between atoms: C_6  and  C_30
    7  A    between atoms: C_8  and  C_40
    8  A    between atoms: C_11  and  C_38
    9  A    between atoms: N_12  and  N_24
   10  A    between atoms: C_16  and  N_39
   11  A    between atoms: N_24  and  C_30
   12  A    between atoms: C_34  and  C_40
                            x       y       z     vdW  Elec       q    Type
                         _______ _______ _______ _____ _____    ______ ____

>  <TORSDO>
F 12

$$$$
=
 OpenBabel10222419283D

 42 48  0  0  1  0  0  0  0  0999 V2000
  188.8780  177.9940  140.5560 C   0  0  0  0  0  0  0  0  0  0  0  0
  189.9580  177.5930  142.7020 C   0  0  0  0  0  0  0  0  0  0  0  0
  187.6350  178.1830  141.2070 C   0  0  0  0  0  0  0  0  0  0  0  0
  185.2960  179.0830  141.0990 C   0  0  0  0  0  3  0  0  0  0  0  0
  189.0260  178.1090  139.1460 N   0  0  0  0  0  0  0  0  0  0  0  0
  190.0210  177.7020  141.3080 C   0  0  0  0  0  3  0  0  0  0  0  0
  184.5540  178.5890  139.1480 C   0  0  0  0  0  0  0  0  0  0  0  0
  186.3570  178.4940  140.5100 C   0  0  0  0  0  0  0  0  0  0  0  0
  183.9650  178.3770  137.8420 C   0  0  0  0  0  3  0  0  0  0  0  0
  186.1710  177.6740  137.9870 C   0  0  0  0  0  0  0  0  0  0  0  0
  185.8690  178.1490  139.1820 C   0  0  0  0  0  0  0  0  0  0  0  0
  187.5980  178.0920  142.6110 C   0  0  0  0  0  3  0  0  0  0  0  0
  187.5050  177.2210  137.5110 C   0  0  0  0  0  2  0  0  0  0  0  0
  188.7430  177.7980  143.3510 C   0  0  0  0  0  3  0  0  0  0  0  0
  188.5250  178.3200  137.7990 C   0  0  2  0  0  3  0  0  0  0  0  0
  189.8310  177.9630  137.9280 N   0  0  0  0  0  0  0  0  0  0  0  0
  184.1530  179.1690  140.2220 N   0  0  0  0  0  0  0  0  0  0  0  0
  184.9620  177.8140  137.1360 C   0  0  0  0  0  3  0  0  0  0  0  0
  191.7050  178.5340  144.1980 C   0  0  0  0  0  1  0  0  0  0  0  0
  191.1780  177.2870  143.5110 C   0  0  1  0  0  3  0  0  0  0  0  0
  190.8840  176.2590  144.4930 N   0  0  0  0  0  2  0  0  0  0  0  0
  191.2420  176.5980  146.9080 C   0  0  0  0  0  0  0  0  0  0  0  0
  191.7450  176.4730  145.5780 N   0  0  0  0  0  2  0  0  0  0  0  0
  192.0670  176.7800  147.8860 N   0  0  0  0  0  2  0  0  0  0  0  0
  189.7750  176.5430  147.1770 C   0  0  0  0  0  2  0  0  0  0  0  0
  189.1320  177.9020  146.9820 C   0  0  0  0  0  2  0  0  0  0  0  0
  187.7090  177.8980  147.5320 C   0  0  0  0  0  2  0  0  0  0  0  0
  186.6900  177.8500  146.4030 C   0  0  0  0  0  2  0  0  0  0  0  0
  185.6680  178.9280  146.5620 C   0  0  0  0  0  0  0  0  0  0  0  0
  184.5570  178.9880  145.6770 N   0  0  0  0  0  1  0  0  0  0  0  0
  185.7790  179.7770  147.4850 O   0  0  0  0  0  0  0  0  0  0  0  0
  190.1180  176.5340  137.7820 C   0  0  0  0  0  2  0  0  0  0  0  0
  191.3660  176.3420  136.9420 C   0  0  0  0  0  2  0  0  0  0  0  0
  192.5210  175.8770  137.8140 C   0  0  0  0  0  2  0  0  0  0  0  0
  194.4300  174.2880  137.9310 C   0  0  0  0  0  2  0  0  0  0  0  0
  194.4440  175.9640  135.8920 S   0  0  0  0  0  0  0  0  0  0  0  0
  195.5440  173.8070  137.1300 N   0  0  2  0  0  0  0  0  0  0  0  0
  197.0360  175.5630  136.5110 N   0  0  0  0  0  2  0  0  0  0  0  0
  196.6990  173.7610  138.0060 C   0  0  0  0  0  2  0  0  0  0  0  0
  195.8480  174.8220  136.1170 C   0  0  2  0  0  3  0  0  0  0  0  0
  197.7360  174.6790  137.4190 C   0  0  0  0  0  2  0  0  0  0  0  0
  193.4490  174.9750  137.0180 C   0  0  2  0  0  3  0  0  0  0  0  0
  1  3  2  0  0  0  0
  1  6  1  0  0  0  0
  2 14  1  0  0  0  0
  2 20  1  0  0  0  0
  3 12  1  0  0  0  0
  5  1  1  0  0  0  0
  6  2  2  0  0  0  0
  7 11  1  0  0  0  0
  7 17  1  0  0  0  0
  8  4  1  0  0  0  0
  8  3  1  0  0  0  0
  9  7  2  0  0  0  0
 10 11  1  0  0  0  0
 11  8  2  0  0  0  0
 12 14  2  0  0  0  0
 13 10  1  0  0  0  0
 15 13  1  6  0  0  0
 15 16  1  0  0  0  0
 15  5  1  0  0  0  0
 16  5  1  0  0  0  0
 17  4  2  0  0  0  0
 18  9  1  0  0  0  0
 18 10  2  0  0  0  0
 20 19  1  1  0  0  0
 20 21  1  0  0  0  0
 21 23  1  0  0  0  0
 22 25  1  0  0  0  0
 22 24  2  0  0  0  0
 23 22  1  0  0  0  0
 26 25  1  0  0  0  0
 26 27  1  0  0  0  0
 28 29  1  0  0  0  0
 28 27  1  0  0  0  0
 29 31  2  0  0  0  0
 30 29  1  0  0  0  0
 32 16  1  0  0  0  0
 33 32  1  0  0  0  0
 33 34  1  0  0  0  0
 36 42  1  0  0  0  0
 37 35  1  1  0  0  0
 37 39  1  0  0  0  0
 38 41  1  0  0  0  0
 40 36  1  1  0  0  0
 40 38  1  0  0  0  0
 40 37  1  0  0  0  0
 41 39  1  0  0  0  0
 42 34  1  1  0  0  0
 42 35  1  0  0  0  0
M  END
>  <MODEL>
8

>  <REMARK>
 VINA RESULT:      -8.6      2.148      3.807
  Name = 
  12 active torsions:
  status: ('A' for Active; 'I' for Inactive)
    1  A    between atoms: C_1  and  C_10
    2  A    between atoms: C_1  and  C_34
    3  A    between atoms: C_2  and  C_11
    4  A    between atoms: C_2  and  C_16
    5  A    between atoms: C_4  and  C_10
    6  A    between atoms: C_6  and  C_30
    7  A    between atoms: C_8  and  C_40
    8  A    between atoms: C_11  and  C_38
    9  A    between atoms: N_12  and  N_24
   10  A    between atoms: C_16  and  N_39
   11  A    between atoms: N_24  and  C_30
   12  A    between atoms: C_34  and  C_40
                            x       y       z     vdW  Elec       q    Type
                         _______ _______ _______ _____ _____    ______ ____

>  <TORSDO>
F 12

$$$$
=
 OpenBabel10222419283D

 42 48  0  0  1  0  0  0  0  0999 V2000
  186.7560  178.2750  142.0170 C   0  0  0  0  0  0  0  0  0  0  0  0
  188.9520  177.3760  142.5640 C   0  0  0  0  0  0  0  0  0  0  0  0
  186.3660  178.1720  143.3750 C   0  0  0  0  0  0  0  0  0  0  0  0
  184.7820  178.8750  145.1890 C   0  0  0  0  0  3  0  0  0  0  0  0
  185.8920  178.7930  141.0130 N   0  0  0  0  0  0  0  0  0  0  0  0
  188.0390  177.8760  141.6290 C   0  0  0  0  0  3  0  0  0  0  0  0
  182.8280  178.8910  144.3050 C   0  0  0  0  0  0  0  0  0  0  0  0
  185.0290  178.5630  143.9000 C   0  0  0  0  0  0  0  0  0  0  0  0
  181.4730  179.0090  143.8090 C   0  0  0  0  0  3  0  0  0  0  0  0
  183.0180  178.4730  142.1630 C   0  0  0  0  0  0  0  0  0  0  0  0
  183.7100  178.5670  143.2840 C   0  0  0  0  0  0  0  0  0  0  0  0
  187.3070  177.6880  144.3030 C   0  0  0  0  0  3  0  0  0  0  0  0
  183.5550  178.2810  140.7890 C   0  0  0  0  0  2  0  0  0  0  0  0
  188.5830  177.2910  143.9040 C   0  0  0  0  0  3  0  0  0  0  0  0
  184.6310  179.3330  140.5340 C   0  0  2  0  0  3  0  0  0  0  0  0
  185.5840  179.0610  139.6040 N   0  0  0  0  0  0  0  0  0  0  0  0
  183.3820  179.1120  145.4440 N   0  0  0  0  0  0  0  0  0  0  0  0
  181.5970  178.7490  142.4940 C   0  0  0  0  0  3  0  0  0  0  0  0
  190.7730  175.7230  142.9240 C   0  0  0  0  0  1  0  0  0  0  0  0
  190.3270  176.9540  142.1550 C   0  0  1  0  0  3  0  0  0  0  0  0
  190.3690  176.6960  140.7270 N   0  0  0  0  0  2  0  0  0  0  0  0
  192.1590  176.6310  139.0330 C   0  0  0  0  0  0  0  0  0  0  0  0
  191.6350  177.0960  140.2770 N   0  0  0  0  0  2  0  0  0  0  0  0
  193.3240  177.0330  138.6430 N   0  0  0  0  0  2  0  0  0  0  0  0
  191.3870  175.6690  138.1920 C   0  0  0  0  0  2  0  0  0  0  0  0
  190.7710  176.3630  136.9930 C   0  0  0  0  0  2  0  0  0  0  0  0
  189.2870  176.6200  137.2350 C   0  0  0  0  0  2  0  0  0  0  0  0
  188.7810  177.7510  136.3510 C   0  0  0  0  0  2  0  0  0  0  0  0
  188.4700  178.9640  137.1660 C   0  0  0  0  0  0  0  0  0  0  0  0
  189.0420  179.1160  138.4580 N   0  0  0  0  0  1  0  0  0  0  0  0
  187.7130  179.8590  136.7070 O   0  0  0  0  0  0  0  0  0  0  0  0
  185.4750  177.7590  138.9420 C   0  0  0  0  0  2  0  0  0  0  0  0
  185.0420  177.9470  137.5000 C   0  0  0  0  0  2  0  0  0  0  0  0
  183.6690  177.3360  137.2780 C   0  0  0  0  0  2  0  0  0  0  0  0
  183.8940  174.8670  137.4640 C   0  0  0  0  0  2  0  0  0  0  0  0
  185.3250  176.0200  135.5690 S   0  0  0  0  0  0  0  0  0  0  0  0
  184.4450  173.7300  136.7430 N   0  0  2  0  0  0  0  0  0  0  0  0
  186.7990  173.9260  136.4100 N   0  0  0  0  0  2  0  0  0  0  0  0
  185.1190  172.9010  137.7230 C   0  0  0  0  0  2  0  0  0  0  0  0
  185.4920  174.2250  135.8450 C   0  0  2  0  0  3  0  0  0  0  0  0
  186.5650  172.8200  137.3130 C   0  0  0  0  0  2  0  0  0  0  0  0
  183.7940  176.0300  136.5130 C   0  0  2  0  0  3  0  0  0  0  0  0
  1  3  1  0  0  0  0
  2 14  2  0  0  0  0
  3  8  1  0  0  0  0
  3 12  2  0  0  0  0
  4 17  1  0  0  0  0
  5  1  1  0  0  0  0
  6  1  2  0  0  0  0
  6  2  1  0  0  0  0
  7 17  2  0  0  0  0
  8  4  2  0  0  0  0
  9  7  1  0  0  0  0
 10 18  1  0  0  0  0
 10 11  2  0  0  0  0
 11  8  1  0  0  0  0
 11  7  1  0  0  0  0
 13 10  1  0  0  0  0
 14 12  1  0  0  0  0
 15 13  1  6  0  0  0
 15  5  1  0  0  0  0
 16 15  1  0  0  0  0
 16  5  1  0  0  0  0
 18  9  2  0  0  0  0
 20  2  1  0  0  0  0
 20 19  1  1  0  0  0
 21 20  1  0  0  0  0
 22 23  1  0  0  0  0
 23 21  1  0  0  0  0
 24 22  2  0  0  0  0
 25 22  1  0  0  0  0
 26 27  1  0  0  0  0
 26 25  1  0  0  0  0
 28 29  1  0  0  0  0
 28 27  1  0  0  0  0
 29 30  1  0  0  0  0
 31 29  2  0  0  0  0
 32 16  1  0  0  0  0
 33 32  1  0  0  0  0
 34 33  1  0  0  0  0
 36 42  1  0  0  0  0
 37 35  1  1  0  0  0
 37 39  1  0  0  0  0
 38 41  1  0  0  0  0
 40 36  1  1  0  0  0
 40 38  1  0  0  0  0
 40 37  1  0  0  0  0
 41 39  1  0  0  0  0
 42 34  1  1  0  0  0
 42 35  1  0  0  0  0
M  END
>  <MODEL>
9

>  <REMARK>
 VINA RESULT:      -8.6      2.915      5.596
  Name = 
  12 active torsions:
  status: ('A' for Active; 'I' for Inactive)
    1  A    between atoms: C_1  and  C_10
    2  A    between atoms: C_1  and  C_34
    3  A    between atoms: C_2  and  C_11
    4  A    between atoms: C_2  and  C_16
    5  A    between atoms: C_4  and  C_10
    6  A    between atoms: C_6  and  C_30
    7  A    between atoms: C_8  and  C_40
    8  A    between atoms: C_11  and  C_38
    9  A    between atoms: N_12  and  N_24
   10  A    between atoms: C_16  and  N_39
   11  A    between atoms: N_24  and  C_30
   12  A    between atoms: C_34  and  C_40
                            x       y       z     vdW  Elec       q    Type
                         _______ _______ _______ _____ _____    ______ ____

>  <TORSDO>
F 12

$$$$
