=
 OpenBabel10222415283D

 31 33  0  0  1  0  0  0  0  0999 V2000
  188.8810  176.5130  144.0320 C   0  0  2  0  0  3  0  0  0  0  0  0
  188.8540  177.2400  146.4240 C   0  0  0  0  0  2  0  0  0  0  0  0
  186.4920  177.0530  144.7300 C   0  0  0  0  0  2  0  0  0  0  0  0
  187.4940  176.9800  143.5870 C   0  0  0  0  0  2  0  0  0  0  0  0
  186.7080  178.3450  145.5090 C   0  0  2  0  0  3  0  0  0  0  0  0
  187.6880  178.1980  146.6770 C   0  0  0  0  0  2  0  0  0  0  0  0
  189.5200  177.4650  145.0700 C   0  0  1  0  0  3  0  0  0  0  0  0
  191.2650  179.3370  143.9450 C   0  0  0  0  0  1  0  0  0  0  0  0
  191.6130  178.2940  145.9360 O   0  0  0  0  0  0  0  0  0  0  0  0
  191.0480  177.2820  145.2240 C   0  0  2  0  0  0  0  0  0  0  0  0
  191.9580  178.2300  144.5920 N   0  0  0  0  0  0  0  0  0  0  0  0
  191.6270  175.9210  145.6380 C   0  0  0  0  0  2  0  0  0  0  0  0
  191.4540  175.5900  147.1190 C   0  0  0  0  0  2  0  0  0  0  0  0
  192.8030  176.7900  148.6820 O   0  0  0  0  0  1  0  0  0  0  0  0
  192.7810  175.6660  147.8550 C   0  0  0  0  0  2  0  0  0  0  0  0
  189.8450  177.3450  141.8330 N   0  0  0  0  0  2  0  0  0  0  0  0
  189.7220  176.3050  142.8110 C   0  0  0  0  0  0  0  0  0  0  0  0
  190.3300  175.2110  142.6640 O   0  0  0  0  0  0  0  0  0  0  0  0
  189.8620  177.1230  139.3480 C   0  0  0  0  0  0  0  0  0  0  0  0
  191.9390  177.1930  140.6250 C   0  0  0  0  0  3  0  0  0  0  0  0
  192.0250  176.9340  138.2310 C   0  0  0  0  0  3  0  0  0  0  0  0
  190.5420  177.2040  140.5890 C   0  0  0  0  0  0  0  0  0  0  0  0
  190.6290  176.9680  138.1600 C   0  0  0  0  0  0  0  0  0  0  0  0
  192.6790  177.0560  139.4550 C   0  0  0  0  0  3  0  0  0  0  0  0
  187.7790  178.4050  139.2570 N   0  0  0  0  0  2  0  0  0  0  0  0
  188.3860  177.2670  139.3450 C   0  0  0  0  0  3  0  0  0  0  0  0
  190.0140  176.8130  136.8060 C   0  0  0  0  0  2  0  0  0  0  0  0
  190.9880  176.1260  135.8660 C   0  0  0  0  0  1  0  0  0  0  0  0
  185.2900  179.3180  147.1730 O   0  0  0  0  0  1  0  0  0  0  0  0
  185.4060  178.8900  145.9940 C   0  0  0  0  0  0  0  0  0  0  0  0
  184.3150  178.9250  145.1370 O   0  0  0  0  0  0  0  0  0  0  0  0
  1 17  1  6  0  0  0
  1  7  1  0  0  0  0
  2  6  1  0  0  0  0
  3  5  1  0  0  0  0
  4  1  1  0  0  0  0
  4  3  1  0  0  0  0
  5 30  1  1  0  0  0
  5  6  1  0  0  0  0
  7 10  1  0  0  0  0
  7  2  1  1  0  0  0
  8 11  1  0  0  0  0
 10 12  1  1  0  0  0
 10  9  1  0  0  0  0
 11 10  1  0  0  0  0
 11  9  1  0  0  0  0
 12 13  1  0  0  0  0
 13 15  1  0  0  0  0
 15 14  1  0  0  0  0
 16 17  1  0  0  0  0
 18 17  2  0  0  0  0
 19 22  1  0  0  0  0
 21 24  2  0  0  0  0
 22 20  2  0  0  0  0
 22 16  1  0  0  0  0
 23 21  1  0  0  0  0
 23 19  2  0  0  0  0
 24 20  1  0  0  0  0
 25 26  2  0  0  0  0
 26 19  1  0  0  0  0
 27 23  1  0  0  0  0
 28 27  1  0  0  0  0
 30 29  1  0  0  0  0
 31 30  2  0  0  0  0
M  END
>  <MODEL>
1

>  <REMARK>
 VINA RESULT:      -8.2      0.000      0.000
  Name = 
  9 active torsions:
  status: ('A' for Active; 'I' for Inactive)
    1  A    between atoms: C_2  and  C_28
    2  A    between atoms: C_3  and  C_7
    3  A    between atoms: C_3  and  C_9
    4  A    between atoms: C_4  and  C_19
    5  A    between atoms: N_5  and  C_15
    6  A    between atoms: C_9  and  C_18
    7  A    between atoms: C_14  and  C_22
    8  A    between atoms: C_18  and  C_27
    9  A    between atoms: C_21  and  C_25
                            x       y       z     vdW  Elec       q    Type
                         _______ _______ _______ _____ _____    ______ ____

>  <TORSDO>
F 9

$$$$
=
 OpenBabel10222415283D

 31 33  0  0  1  0  0  0  0  0999 V2000
  188.1320  177.3610  143.1630 C   0  0  2  0  0  3  0  0  0  0  0  0
  188.6250  176.9620  145.5810 C   0  0  0  0  0  2  0  0  0  0  0  0
  186.0270  177.7670  144.5390 C   0  0  0  0  0  2  0  0  0  0  0  0
  186.8010  178.1070  143.2730 C   0  0  0  0  0  2  0  0  0  0  0  0
  186.6000  178.5580  145.7090 C   0  0  2  0  0  3  0  0  0  0  0  0
  187.7120  177.8190  146.4600 C   0  0  0  0  0  2  0  0  0  0  0  0
  189.0940  177.6940  144.3270 C   0  0  1  0  0  3  0  0  0  0  0  0
  190.9980  179.7050  143.9470 C   0  0  0  0  0  1  0  0  0  0  0  0
  191.4010  177.7450  145.0290 O   0  0  0  0  0  0  0  0  0  0  0  0
  190.5660  177.3150  144.0440 C   0  0  2  0  0  0  0  0  0  0  0  0
  191.5490  178.3630  143.7940 N   0  0  0  0  0  0  0  0  0  0  0  0
  190.9270  175.8920  143.5920 C   0  0  0  0  0  2  0  0  0  0  0  0
  192.2570  175.3780  144.1410 C   0  0  0  0  0  2  0  0  0  0  0  0
  192.4070  175.2140  146.5180 O   0  0  0  0  0  1  0  0  0  0  0  0
  192.0430  174.5100  145.3690 C   0  0  0  0  0  2  0  0  0  0  0  0
  189.0050  176.5460  140.9210 N   0  0  0  0  0  2  0  0  0  0  0  0
  188.7120  177.6300  141.8090 C   0  0  0  0  0  0  0  0  0  0  0  0
  188.9220  178.8220  141.4590 O   0  0  0  0  0  0  0  0  0  0  0  0
  188.9360  177.0350  138.4750 C   0  0  0  0  0  0  0  0  0  0  0  0
  191.0390  176.5410  139.6070 C   0  0  0  0  0  3  0  0  0  0  0  0
  191.0380  176.9610  137.2340 C   0  0  0  0  0  3  0  0  0  0  0  0
  189.6510  176.6960  139.6510 C   0  0  0  0  0  0  0  0  0  0  0  0
  189.6520  177.1490  137.2510 C   0  0  0  0  0  0  0  0  0  0  0  0
  191.7300  176.6690  138.4060 C   0  0  0  0  0  3  0  0  0  0  0  0
  186.9900  178.5090  138.6530 N   0  0  0  0  0  2  0  0  0  0  0  0
  187.4840  177.3160  138.5920 C   0  0  0  0  0  3  0  0  0  0  0  0
  188.9900  177.4430  135.9420 C   0  0  0  0  0  2  0  0  0  0  0  0
  188.6630  176.1480  135.2210 C   0  0  0  0  0  1  0  0  0  0  0  0
  185.7630  179.7230  147.6250 O   0  0  0  0  0  1  0  0  0  0  0  0
  185.5170  178.9580  146.6540 C   0  0  0  0  0  0  0  0  0  0  0  0
  184.2280  178.4810  146.4610 O   0  0  0  0  0  0  0  0  0  0  0  0
  1 17  1  6  0  0  0
  1  4  1  0  0  0  0
  1  7  1  0  0  0  0
  2  6  1  0  0  0  0
  3  5  1  0  0  0  0
  4  3  1  0  0  0  0
  5  6  1  0  0  0  0
  5 30  1  1  0  0  0
  7  2  1  1  0  0  0
 10 12  1  6  0  0  0
 10  7  1  0  0  0  0
 10  9  1  0  0  0  0
 11  8  1  0  0  0  0
 11 10  1  0  0  0  0
 11  9  1  0  0  0  0
 12 13  1  0  0  0  0
 13 15  1  0  0  0  0
 15 14  1  0  0  0  0
 16 17  1  0  0  0  0
 18 17  2  0  0  0  0
 19 26  1  0  0  0  0
 19 22  1  0  0  0  0
 20 22  2  0  0  0  0
 21 23  1  0  0  0  0
 21 24  2  0  0  0  0
 22 16  1  0  0  0  0
 23 19  2  0  0  0  0
 24 20  1  0  0  0  0
 26 25  2  0  0  0  0
 27 23  1  0  0  0  0
 28 27  1  0  0  0  0
 30 29  1  0  0  0  0
 31 30  2  0  0  0  0
M  END
>  <MODEL>
2

>  <REMARK>
 VINA RESULT:      -6.9      1.440      1.681
  Name = 
  9 active torsions:
  status: ('A' for Active; 'I' for Inactive)
    1  A    between atoms: C_2  and  C_28
    2  A    between atoms: C_3  and  C_7
    3  A    between atoms: C_3  and  C_9
    4  A    between atoms: C_4  and  C_19
    5  A    between atoms: N_5  and  C_15
    6  A    between atoms: C_9  and  C_18
    7  A    between atoms: C_14  and  C_22
    8  A    between atoms: C_18  and  C_27
    9  A    between atoms: C_21  and  C_25
                            x       y       z     vdW  Elec       q    Type
                         _______ _______ _______ _____ _____    ______ ____

>  <TORSDO>
F 9

$$$$
=
 OpenBabel10222415283D

 31 33  0  0  1  0  0  0  0  0999 V2000
  191.1530  176.3120  138.7330 C   0  0  2  0  0  3  0  0  0  0  0  0
  190.9300  175.6180  136.3420 C   0  0  0  0  0  2  0  0  0  0  0  0
  193.4670  175.9400  137.7360 C   0  0  0  0  0  2  0  0  0  0  0  0
  192.6370  176.6800  138.7750 C   0  0  0  0  0  2  0  0  0  0  0  0
  193.3070  176.6230  136.3830 C   0  0  2  0  0  3  0  0  0  0  0  0
  192.1590  176.0550  135.5430 C   0  0  0  0  0  2  0  0  0  0  0  0
  190.4980  176.6550  137.3750 C   0  0  1  0  0  3  0  0  0  0  0  0
  189.1750  179.1020  137.1040 C   0  0  0  0  0  1  0  0  0  0  0  0
  188.4190  177.1340  136.2490 O   0  0  0  0  0  0  0  0  0  0  0  0
  188.9530  176.7030  137.4240 C   0  0  2  0  0  0  0  0  0  0  0  0
  188.2650  177.9860  137.3350 N   0  0  0  0  0  0  0  0  0  0  0  0
  188.1580  175.5170  137.9930 C   0  0  0  0  0  2  0  0  0  0  0  0
  187.5470  174.6050  136.9320 C   0  0  0  0  0  2  0  0  0  0  0  0
  185.4780  175.7810  137.1250 O   0  0  0  0  0  1  0  0  0  0  0  0
  186.0400  174.5040  137.0990 C   0  0  0  0  0  2  0  0  0  0  0  0
  190.1770  176.1840  141.0750 N   0  0  0  0  0  2  0  0  0  0  0  0
  190.4760  176.9530  139.9050 C   0  0  0  0  0  0  0  0  0  0  0  0
  190.1890  178.1790  139.8510 O   0  0  0  0  0  0  0  0  0  0  0  0
  190.0270  176.8000  143.4880 C   0  0  0  0  0  0  0  0  0  0  0  0
  188.1270  177.0980  141.9870 C   0  0  0  0  0  3  0  0  0  0  0  0
  187.9020  177.6720  144.3160 C   0  0  0  0  0  3  0  0  0  0  0  0
  189.4440  176.6810  142.2020 C   0  0  0  0  0  0  0  0  0  0  0  0
  189.2250  177.2880  144.5570 C   0  0  0  0  0  0  0  0  0  0  0  0
  187.3570  177.5870  143.0380 C   0  0  0  0  0  3  0  0  0  0  0  0
  191.8920  175.3150  144.0400 N   0  0  0  0  0  2  0  0  0  0  0  0
  191.4650  176.4680  143.6420 C   0  0  0  0  0  3  0  0  0  0  0  0
  189.7190  177.3980  145.9640 C   0  0  0  0  0  2  0  0  0  0  0  0
  188.5490  177.3770  146.9310 C   0  0  0  0  0  1  0  0  0  0  0  0
  195.0250  175.4740  135.1770 O   0  0  0  0  0  0  0  0  0  0  0  0
  194.5840  176.5710  135.6130 C   0  0  0  0  0  0  0  0  0  0  0  0
  195.2910  177.7410  135.3760 O   0  0  0  0  0  1  0  0  0  0  0  0
  1  4  1  0  0  0  0
  1 17  1  1  0  0  0
  3  4  1  0  0  0  0
  5 30  1  6  0  0  0
  5  3  1  0  0  0  0
  6  2  1  0  0  0  0
  6  5  1  0  0  0  0
  7  2  1  6  0  0  0
  7 10  1  0  0  0  0
  7  1  1  0  0  0  0
  8 11  1  0  0  0  0
  9 11  1  0  0  0  0
  9 10  1  0  0  0  0
 10 12  1  1  0  0  0
 11 10  1  0  0  0  0
 13 15  1  0  0  0  0
 13 12  1  0  0  0  0
 15 14  1  0  0  0  0
 16 22  1  0  0  0  0
 17 16  1  0  0  0  0
 18 17  2  0  0  0  0
 19 26  1  0  0  0  0
 19 23  1  0  0  0  0
 20 22  1  0  0  0  0
 20 24  2  0  0  0  0
 21 23  2  0  0  0  0
 22 19  2  0  0  0  0
 23 27  1  0  0  0  0
 24 21  1  0  0  0  0
 26 25  2  0  0  0  0
 27 28  1  0  0  0  0
 29 30  2  0  0  0  0
 31 30  1  0  0  0  0
M  END
>  <MODEL>
3

>  <REMARK>
 VINA RESULT:      -6.2      3.484      9.201
  Name = 
  9 active torsions:
  status: ('A' for Active; 'I' for Inactive)
    1  A    between atoms: C_2  and  C_28
    2  A    between atoms: C_3  and  C_7
    3  A    between atoms: C_3  and  C_9
    4  A    between atoms: C_4  and  C_19
    5  A    between atoms: N_5  and  C_15
    6  A    between atoms: C_9  and  C_18
    7  A    between atoms: C_14  and  C_22
    8  A    between atoms: C_18  and  C_27
    9  A    between atoms: C_21  and  C_25
                            x       y       z     vdW  Elec       q    Type
                         _______ _______ _______ _____ _____    ______ ____

>  <TORSDO>
F 9

$$$$
=
 OpenBabel10222415283D

 31 33  0  0  1  0  0  0  0  0999 V2000
  184.2210  179.3950  140.9660 C   0  0  2  0  0  3  0  0  0  0  0  0
  182.4600  179.1770  142.7270 C   0  0  0  0  0  2  0  0  0  0  0  0
  185.3050  179.4870  143.2700 C   0  0  0  0  0  2  0  0  0  0  0  0
  185.4770  179.1330  141.8000 C   0  0  0  0  0  2  0  0  0  0  0  0
  184.5640  178.3580  143.9780 C   0  0  2  0  0  3  0  0  0  0  0  0
  183.0430  178.5380  143.9890 C   0  0  0  0  0  2  0  0  0  0  0  0
  183.0100  178.5610  141.4440 C   0  0  1  0  0  3  0  0  0  0  0  0
  182.6050  176.1780  140.0410 C   0  0  0  0  0  1  0  0  0  0  0  0
  180.9330  177.5460  140.7560 O   0  0  0  0  0  0  0  0  0  0  0  0
  181.8710  178.4670  140.4030 C   0  0  2  0  0  0  0  0  0  0  0  0
  181.6930  177.2410  139.6340 N   0  0  0  0  0  0  0  0  0  0  0  0
  181.2160  179.7430  139.8530 C   0  0  0  0  0  2  0  0  0  0  0  0
  179.7220  179.8590  140.1490 C   0  0  0  0  0  2  0  0  0  0  0  0
  179.6830  181.0020  142.2450 O   0  0  0  0  0  1  0  0  0  0  0  0
  179.4090  181.1500  140.8850 C   0  0  0  0  0  2  0  0  0  0  0  0
  185.1010  177.9360  139.0830 N   0  0  0  0  0  2  0  0  0  0  0  0
  184.5620  179.1870  139.5240 C   0  0  0  0  0  0  0  0  0  0  0  0
  184.3530  180.1210  138.7040 O   0  0  0  0  0  0  0  0  0  0  0  0
  186.9230  177.6940  137.3950 C   0  0  0  0  0  0  0  0  0  0  0  0
  184.5850  177.3570  136.7880 C   0  0  0  0  0  3  0  0  0  0  0  0
  186.2910  177.1500  135.1000 C   0  0  0  0  0  3  0  0  0  0  0  0
  185.5500  177.6770  137.7460 C   0  0  0  0  0  0  0  0  0  0  0  0
  187.2820  177.4420  136.0420 C   0  0  0  0  0  0  0  0  0  0  0  0
  184.9500  177.0980  135.4710 C   0  0  0  0  0  3  0  0  0  0  0  0
  188.5880  179.0090  138.6130 N   0  0  0  0  0  2  0  0  0  0  0  0
  187.9210  177.9120  138.4710 C   0  0  0  0  0  3  0  0  0  0  0  0
  188.6940  177.4930  135.5490 C   0  0  0  0  0  2  0  0  0  0  0  0
  189.2470  176.0870  135.4050 C   0  0  0  0  0  1  0  0  0  0  0  0
  186.1710  177.6080  145.5850 O   0  0  0  0  0  0  0  0  0  0  0  0
  185.0730  178.1870  145.3700 C   0  0  0  0  0  0  0  0  0  0  0  0
  184.3290  178.6710  146.4370 O   0  0  0  0  0  1  0  0  0  0  0  0
  1 17  1  6  0  0  0
  1  7  1  0  0  0  0
  1  4  1  0  0  0  0
  2  6  1  0  0  0  0
  3  5  1  0  0  0  0
  4  3  1  0  0  0  0
  5  6  1  0  0  0  0
  5 30  1  1  0  0  0
  7  2  1  1  0  0  0
 10 12  1  6  0  0  0
 10  9  1  0  0  0  0
 10  7  1  0  0  0  0
 11  8  1  0  0  0  0
 11 10  1  0  0  0  0
 11  9  1  0  0  0  0
 12 13  1  0  0  0  0
 13 15  1  0  0  0  0
 15 14  1  0  0  0  0
 16 17  1  0  0  0  0
 18 17  2  0  0  0  0
 19 22  1  0  0  0  0
 19 26  1  0  0  0  0
 20 22  2  0  0  0  0
 21 24  2  0  0  0  0
 21 23  1  0  0  0  0
 22 16  1  0  0  0  0
 23 19  2  0  0  0  0
 24 20  1  0  0  0  0
 26 25  2  0  0  0  0
 27 23  1  0  0  0  0
 28 27  1  0  0  0  0
 30 29  2  0  0  0  0
 30 31  1  0  0  0  0
M  END
>  <MODEL>
4

>  <REMARK>
 VINA RESULT:      -6.1      4.586      7.956
  Name = 
  9 active torsions:
  status: ('A' for Active; 'I' for Inactive)
    1  A    between atoms: C_2  and  C_28
    2  A    between atoms: C_3  and  C_7
    3  A    between atoms: C_3  and  C_9
    4  A    between atoms: C_4  and  C_19
    5  A    between atoms: N_5  and  C_15
    6  A    between atoms: C_9  and  C_18
    7  A    between atoms: C_14  and  C_22
    8  A    between atoms: C_18  and  C_27
    9  A    between atoms: C_21  and  C_25
                            x       y       z     vdW  Elec       q    Type
                         _______ _______ _______ _____ _____    ______ ____

>  <TORSDO>
F 9

$$$$
=
 OpenBabel10222415283D

 31 33  0  0  1  0  0  0  0  0999 V2000
  189.2100  177.9200  141.6320 C   0  0  2  0  0  3  0  0  0  0  0  0
  191.7020  177.8590  141.8250 C   0  0  0  0  0  2  0  0  0  0  0  0
  190.2410  177.7650  139.3080 C   0  0  0  0  0  2  0  0  0  0  0  0
  189.0350  177.4570  140.1840 C   0  0  0  0  0  2  0  0  0  0  0  0
  191.3180  176.7140  139.5440 C   0  0  2  0  0  3  0  0  0  0  0  0
  192.3100  177.0920  140.6490 C   0  0  0  0  0  2  0  0  0  0  0  0
  190.4060  177.2330  142.3320 C   0  0  1  0  0  3  0  0  0  0  0  0
  191.6110  175.2480  143.8880 C   0  0  0  0  0  1  0  0  0  0  0  0
  191.6120  177.4630  144.4080 O   0  0  0  0  0  0  0  0  0  0  0  0
  190.3670  177.3360  143.8740 C   0  0  2  0  0  0  0  0  0  0  0  0
  190.9500  176.2740  144.6860 N   0  0  0  0  0  0  0  0  0  0  0  0
  189.3690  178.2800  144.5630 C   0  0  0  0  0  2  0  0  0  0  0  0
  189.4050  178.2250  146.0890 C   0  0  0  0  0  2  0  0  0  0  0  0
  188.3520  177.2680  148.0060 O   0  0  0  0  0  1  0  0  0  0  0  0
  188.1900  177.4980  146.6390 C   0  0  0  0  0  2  0  0  0  0  0  0
  186.9140  178.7630  142.3160 N   0  0  0  0  0  2  0  0  0  0  0  0
  187.9080  177.7330  142.3470 C   0  0  0  0  0  0  0  0  0  0  0  0
  187.6960  176.6530  142.9600 O   0  0  0  0  0  0  0  0  0  0  0  0
  184.4220  178.6860  142.4040 C   0  0  0  0  0  0  0  0  0  0  0  0
  185.7600  178.6610  144.4430 C   0  0  0  0  0  3  0  0  0  0  0  0
  183.3560  178.6290  144.6010 C   0  0  0  0  0  3  0  0  0  0  0  0
  185.6830  178.7180  143.0490 C   0  0  0  0  0  0  0  0  0  0  0  0
  183.2480  178.6590  143.2070 C   0  0  0  0  0  0  0  0  0  0  0  0
  184.6040  178.6200  145.2170 C   0  0  0  0  0  3  0  0  0  0  0  0
  184.5600  179.6470  140.1580 N   0  0  0  0  0  2  0  0  0  0  0  0
  184.3910  178.6190  140.9230 C   0  0  0  0  0  3  0  0  0  0  0  0
  181.8660  178.6830  142.6340 C   0  0  0  0  0  2  0  0  0  0  0  0
  180.8380  178.6200  143.7490 C   0  0  0  0  0  1  0  0  0  0  0  0
  191.4910  175.7640  137.3530 O   0  0  0  0  0  0  0  0  0  0  0  0
  192.0480  176.4160  138.2770 C   0  0  0  0  0  0  0  0  0  0  0  0
  193.3530  176.8600  138.1160 O   0  0  0  0  0  1  0  0  0  0  0  0
  1  7  1  0  0  0  0
  1 17  1  1  0  0  0
  3  5  1  0  0  0  0
  3  4  1  0  0  0  0
  4  1  1  0  0  0  0
  5 30  1  6  0  0  0
  5  6  1  0  0  0  0
  6  2  1  0  0  0  0
  7  2  1  6  0  0  0
  7 10  1  0  0  0  0
  8 11  1  0  0  0  0
  9 11  1  0  0  0  0
 10  9  1  0  0  0  0
 10 12  1  1  0  0  0
 10 11  1  0  0  0  0
 12 13  1  0  0  0  0
 13 15  1  0  0  0  0
 15 14  1  0  0  0  0
 16 17  1  0  0  0  0
 16 22  1  0  0  0  0
 17 18  2  0  0  0  0
 19 22  2  0  0  0  0
 19 23  1  0  0  0  0
 20 24  2  0  0  0  0
 21 24  1  0  0  0  0
 22 20  1  0  0  0  0
 23 21  2  0  0  0  0
 25 26  2  0  0  0  0
 26 19  1  0  0  0  0
 27 23  1  0  0  0  0
 27 28  1  0  0  0  0
 29 30  2  0  0  0  0
 31 30  1  0  0  0  0
M  END
>  <MODEL>
5

>  <REMARK>
 VINA RESULT:      -6.1      2.830      6.902
  Name = 
  9 active torsions:
  status: ('A' for Active; 'I' for Inactive)
    1  A    between atoms: C_2  and  C_28
    2  A    between atoms: C_3  and  C_7
    3  A    between atoms: C_3  and  C_9
    4  A    between atoms: C_4  and  C_19
    5  A    between atoms: N_5  and  C_15
    6  A    between atoms: C_9  and  C_18
    7  A    between atoms: C_14  and  C_22
    8  A    between atoms: C_18  and  C_27
    9  A    between atoms: C_21  and  C_25
                            x       y       z     vdW  Elec       q    Type
                         _______ _______ _______ _____ _____    ______ ____

>  <TORSDO>
F 9

$$$$
=
 OpenBabel10222415283D

 31 33  0  0  1  0  0  0  0  0999 V2000
  187.9540  177.5160  142.6830 C   0  0  2  0  0  3  0  0  0  0  0  0
  188.9540  177.0080  144.9180 C   0  0  0  0  0  2  0  0  0  0  0  0
  186.1240  177.5190  144.4550 C   0  0  0  0  0  2  0  0  0  0  0  0
  186.5890  178.0580  143.1100 C   0  0  0  0  0  2  0  0  0  0  0  0
  186.8130  178.2920  145.5740 C   0  0  2  0  0  3  0  0  0  0  0  0
  188.1320  177.6610  146.0300 C   0  0  0  0  0  2  0  0  0  0  0  0
  189.0770  177.8900  143.6790 C   0  0  1  0  0  3  0  0  0  0  0  0
  190.9950  179.8610  144.1800 C   0  0  0  0  0  1  0  0  0  0  0  0
  191.4430  177.6330  144.0700 O   0  0  0  0  0  0  0  0  0  0  0  0
  190.5000  177.7420  143.0950 C   0  0  2  0  0  0  0  0  0  0  0  0
  191.4850  178.7960  143.3120 N   0  0  0  0  0  0  0  0  0  0  0  0
  190.7700  176.7540  141.9490 C   0  0  0  0  0  2  0  0  0  0  0  0
  192.2300  176.6910  141.5070 C   0  0  0  0  0  2  0  0  0  0  0  0
  193.7150  177.2660  139.7280 O   0  0  0  0  0  1  0  0  0  0  0  0
  192.4710  177.5620  140.2860 C   0  0  0  0  0  2  0  0  0  0  0  0
  188.0760  177.0480  140.1900 N   0  0  0  0  0  2  0  0  0  0  0  0
  188.2220  177.9640  141.2800 C   0  0  0  0  0  0  0  0  0  0  0  0
  188.5600  179.1600  141.0740 O   0  0  0  0  0  0  0  0  0  0  0  0
  187.4250  177.7580  137.8880 C   0  0  0  0  0  0  0  0  0  0  0  0
  189.7500  177.2890  138.4560 C   0  0  0  0  0  3  0  0  0  0  0  0
  189.1840  177.9280  136.2030 C   0  0  0  0  0  3  0  0  0  0  0  0
  188.4050  177.3550  138.8290 C   0  0  0  0  0  0  0  0  0  0  0  0
  187.8340  178.0290  136.5530 C   0  0  0  0  0  0  0  0  0  0  0  0
  190.1400  177.5710  137.1500 C   0  0  0  0  0  3  0  0  0  0  0  0
  185.5690  179.0560  138.8160 N   0  0  0  0  0  2  0  0  0  0  0  0
  186.0300  177.9380  138.3600 C   0  0  0  0  0  3  0  0  0  0  0  0
  186.8770  178.4030  135.4660 C   0  0  0  0  0  2  0  0  0  0  0  0
  186.4850  177.1720  134.6680 C   0  0  0  0  0  1  0  0  0  0  0  0
  186.3440  178.4700  147.9140 O   0  0  0  0  0  1  0  0  0  0  0  0
  185.8940  178.4640  146.7370 C   0  0  0  0  0  0  0  0  0  0  0  0
  184.5320  178.6190  146.5190 O   0  0  0  0  0  0  0  0  0  0  0  0
  1 17  1  6  0  0  0
  1  4  1  0  0  0  0
  1  7  1  0  0  0  0
  2  6  1  0  0  0  0
  3  5  1  0  0  0  0
  4  3  1  0  0  0  0
  5  6  1  0  0  0  0
  5 30  1  1  0  0  0
  7  2  1  1  0  0  0
 10 12  1  6  0  0  0
 10 11  1  0  0  0  0
 10  7  1  0  0  0  0
 10  9  1  0  0  0  0
 11  9  1  0  0  0  0
 11  8  1  0  0  0  0
 13 12  1  0  0  0  0
 14 15  1  0  0  0  0
 15 13  1  0  0  0  0
 16 17  1  0  0  0  0
 18 17  2  0  0  0  0
 19 26  1  0  0  0  0
 19 22  1  0  0  0  0
 20 22  2  0  0  0  0
 21 23  1  0  0  0  0
 21 24  2  0  0  0  0
 22 16  1  0  0  0  0
 23 19  2  0  0  0  0
 24 20  1  0  0  0  0
 26 25  2  0  0  0  0
 27 23  1  0  0  0  0
 28 27  1  0  0  0  0
 30 29  1  0  0  0  0
 31 30  2  0  0  0  0
M  END
>  <MODEL>
6

>  <REMARK>
 VINA RESULT:      -5.9      2.090      3.435
  Name = 
  9 active torsions:
  status: ('A' for Active; 'I' for Inactive)
    1  A    between atoms: C_2  and  C_28
    2  A    between atoms: C_3  and  C_7
    3  A    between atoms: C_3  and  C_9
    4  A    between atoms: C_4  and  C_19
    5  A    between atoms: N_5  and  C_15
    6  A    between atoms: C_9  and  C_18
    7  A    between atoms: C_14  and  C_22
    8  A    between atoms: C_18  and  C_27
    9  A    between atoms: C_21  and  C_25
                            x       y       z     vdW  Elec       q    Type
                         _______ _______ _______ _____ _____    ______ ____

>  <TORSDO>
F 9

$$$$
=
 OpenBabel10222415283D

 31 33  0  0  1  0  0  0  0  0999 V2000
  182.0460  179.0220  139.5510 C   0  0  2  0  0  3  0  0  0  0  0  0
  179.5860  179.3890  139.2960 C   0  0  0  0  0  2  0  0  0  0  0  0
  181.6350  180.9340  137.9190 C   0  0  0  0  0  2  0  0  0  0  0  0
  182.5820  180.3180  138.9390 C   0  0  0  0  0  2  0  0  0  0  0  0
  180.5370  181.7000  138.6480 C   0  0  2  0  0  3  0  0  0  0  0  0
  179.2980  180.8510  138.9500 C   0  0  0  0  0  2  0  0  0  0  0  0
  180.7150  179.2340  140.3110 C   0  0  1  0  0  3  0  0  0  0  0  0
  180.4570  179.7540  143.0450 C   0  0  0  0  0  1  0  0  0  0  0  0
  179.1640  178.2790  141.8920 O   0  0  0  0  0  0  0  0  0  0  0  0
  180.3640  178.0830  141.2820 C   0  0  2  0  0  0  0  0  0  0  0  0
  180.2810  178.3450  142.7140 N   0  0  0  0  0  0  0  0  0  0  0  0
  180.5320  176.6200  140.8440 C   0  0  0  0  0  2  0  0  0  0  0  0
  179.2720  175.9980  140.2440 C   0  0  0  0  0  2  0  0  0  0  0  0
  180.7420  175.9600  138.3620 O   0  0  0  0  0  1  0  0  0  0  0  0
  179.5450  175.4400  138.8570 C   0  0  0  0  0  2  0  0  0  0  0  0
  183.9390  179.2440  141.2300 N   0  0  0  0  0  2  0  0  0  0  0  0
  183.1270  178.4160  140.3910 C   0  0  0  0  0  0  0  0  0  0  0  0
  183.2990  177.1680  140.3600 O   0  0  0  0  0  0  0  0  0  0  0  0
  184.9660  178.4940  143.3760 C   0  0  0  0  0  0  0  0  0  0  0  0
  186.2560  178.5430  141.3070 C   0  0  0  0  0  3  0  0  0  0  0  0
  187.3210  177.8500  143.3540 C   0  0  0  0  0  3  0  0  0  0  0  0
  185.0590  178.7720  141.9900 C   0  0  0  0  0  0  0  0  0  0  0  0
  186.1290  178.0430  144.0600 C   0  0  0  0  0  0  0  0  0  0  0  0
  187.3840  178.0880  141.9840 C   0  0  0  0  0  3  0  0  0  0  0  0
  183.4300  179.3800  145.0630 N   0  0  0  0  0  2  0  0  0  0  0  0
  183.6430  178.6280  144.0340 C   0  0  0  0  0  3  0  0  0  0  0  0
  186.1610  177.7780  145.5310 C   0  0  0  0  0  2  0  0  0  0  0  0
  187.5830  177.8860  146.0510 C   0  0  0  0  0  1  0  0  0  0  0  0
  178.9600  183.0980  137.5150 O   0  0  0  0  0  0  0  0  0  0  0  0
  180.1520  182.9210  137.8830 C   0  0  0  0  0  0  0  0  0  0  0  0
  181.1150  183.8720  137.5760 O   0  0  0  0  0  1  0  0  0  0  0  0
  1  7  1  0  0  0  0
  1 17  1  1  0  0  0
  3  5  1  0  0  0  0
  3  4  1  0  0  0  0
  4  1  1  0  0  0  0
  5 30  1  6  0  0  0
  5  6  1  0  0  0  0
  6  2  1  0  0  0  0
  7  2  1  6  0  0  0
  7 10  1  0  0  0  0
  9 11  1  0  0  0  0
 10 12  1  6  0  0  0
 10  9  1  0  0  0  0
 10 11  1  0  0  0  0
 11  8  1  0  0  0  0
 13 12  1  0  0  0  0
 14 15  1  0  0  0  0
 15 13  1  0  0  0  0
 16 22  1  0  0  0  0
 17 16  1  0  0  0  0
 18 17  2  0  0  0  0
 19 26  1  0  0  0  0
 19 23  1  0  0  0  0
 20 24  2  0  0  0  0
 20 22  1  0  0  0  0
 21 23  2  0  0  0  0
 22 19  2  0  0  0  0
 23 27  1  0  0  0  0
 24 21  1  0  0  0  0
 26 25  2  0  0  0  0
 27 28  1  0  0  0  0
 29 30  2  0  0  0  0
 31 30  1  0  0  0  0
M  END
>  <MODEL>
7

>  <REMARK>
 VINA RESULT:      -5.9      6.682     10.107
  Name = 
  9 active torsions:
  status: ('A' for Active; 'I' for Inactive)
    1  A    between atoms: C_2  and  C_28
    2  A    between atoms: C_3  and  C_7
    3  A    between atoms: C_3  and  C_9
    4  A    between atoms: C_4  and  C_19
    5  A    between atoms: N_5  and  C_15
    6  A    between atoms: C_9  and  C_18
    7  A    between atoms: C_14  and  C_22
    8  A    between atoms: C_18  and  C_27
    9  A    between atoms: C_21  and  C_25
                            x       y       z     vdW  Elec       q    Type
                         _______ _______ _______ _____ _____    ______ ____

>  <TORSDO>
F 9

$$$$
=
 OpenBabel10222415283D

 31 33  0  0  1  0  0  0  0  0999 V2000
  188.5590  178.4350  140.7080 C   0  0  2  0  0  3  0  0  0  0  0  0
  190.7360  177.2580  140.3510 C   0  0  0  0  0  2  0  0  0  0  0  0
  188.7880  177.7950  138.2530 C   0  0  0  0  0  2  0  0  0  0  0  0
  187.8370  178.0780  139.4070 C   0  0  0  0  0  2  0  0  0  0  0  0
  189.3250  176.3740  138.3780 C   0  0  2  0  0  3  0  0  0  0  0  0
  190.6280  176.2820  139.1790 C   0  0  0  0  0  2  0  0  0  0  0  0
  189.4740  177.2930  141.2080 C   0  0  1  0  0  3  0  0  0  0  0  0
  188.3050  175.6260  143.1230 C   0  0  0  0  0  1  0  0  0  0  0  0
  190.4780  176.2990  143.1640 O   0  0  0  0  0  0  0  0  0  0  0  0
  189.8790  177.4280  142.6940 C   0  0  2  0  0  0  0  0  0  0  0  0
  189.2310  176.5930  143.7000 N   0  0  0  0  0  0  0  0  0  0  0  0
  190.6060  178.6880  143.1890 C   0  0  0  0  0  2  0  0  0  0  0  0
  191.7780  178.4080  144.1280 C   0  0  0  0  0  2  0  0  0  0  0  0
  191.8710  177.1110  146.1300 O   0  0  0  0  0  1  0  0  0  0  0  0
  191.3040  178.2530  145.5630 C   0  0  0  0  0  2  0  0  0  0  0  0
  186.5330  177.9500  142.1610 N   0  0  0  0  0  2  0  0  0  0  0  0
  187.5360  178.8680  141.7110 C   0  0  0  0  0  0  0  0  0  0  0  0
  187.5790  180.0430  142.1630 O   0  0  0  0  0  0  0  0  0  0  0  0
  184.1560  178.5960  142.5570 C   0  0  0  0  0  0  0  0  0  0  0  0
  185.7090  178.2940  144.4120 C   0  0  0  0  0  3  0  0  0  0  0  0
  183.4380  178.9620  144.8620 C   0  0  0  0  0  3  0  0  0  0  0  0
  185.4550  178.2990  143.0380 C   0  0  0  0  0  0  0  0  0  0  0  0
  183.1460  178.9490  143.4940 C   0  0  0  0  0  0  0  0  0  0  0  0
  184.7090  178.6270  145.3210 C   0  0  0  0  0  3  0  0  0  0  0  0
  184.1960  179.3780  140.2380 N   0  0  0  0  0  2  0  0  0  0  0  0
  183.8980  178.4640  141.1010 C   0  0  0  0  0  3  0  0  0  0  0  0
  181.7590  179.3390  143.0930 C   0  0  0  0  0  2  0  0  0  0  0  0
  180.7430  178.6280  143.9690 C   0  0  0  0  0  1  0  0  0  0  0  0
  190.6430  175.6990  136.4980 O   0  0  0  0  0  1  0  0  0  0  0  0
  189.5030  175.7580  137.0310 C   0  0  0  0  0  0  0  0  0  0  0  0
  188.4010  175.2460  136.3590 O   0  0  0  0  0  0  0  0  0  0  0  0
  1  7  1  0  0  0  0
  1 17  1  1  0  0  0
  3  5  1  0  0  0  0
  3  4  1  0  0  0  0
  4  1  1  0  0  0  0
  5 30  1  6  0  0  0
  5  6  1  0  0  0  0
  6  2  1  0  0  0  0
  7  2  1  6  0  0  0
  7 10  1  0  0  0  0
  8 11  1  0  0  0  0
  9 11  1  0  0  0  0
 10  9  1  0  0  0  0
 10 12  1  1  0  0  0
 10 11  1  0  0  0  0
 12 13  1  0  0  0  0
 13 15  1  0  0  0  0
 15 14  1  0  0  0  0
 16 22  1  0  0  0  0
 17 16  1  0  0  0  0
 17 18  2  0  0  0  0
 19 22  2  0  0  0  0
 19 23  1  0  0  0  0
 20 24  2  0  0  0  0
 21 24  1  0  0  0  0
 22 20  1  0  0  0  0
 23 21  2  0  0  0  0
 25 26  2  0  0  0  0
 26 19  1  0  0  0  0
 27 23  1  0  0  0  0
 27 28  1  0  0  0  0
 29 30  1  0  0  0  0
 31 30  2  0  0  0  0
M  END
>  <MODEL>
8

>  <REMARK>
 VINA RESULT:      -5.8      2.940      7.124
  Name = 
  9 active torsions:
  status: ('A' for Active; 'I' for Inactive)
    1  A    between atoms: C_2  and  C_28
    2  A    between atoms: C_3  and  C_7
    3  A    between atoms: C_3  and  C_9
    4  A    between atoms: C_4  and  C_19
    5  A    between atoms: N_5  and  C_15
    6  A    between atoms: C_9  and  C_18
    7  A    between atoms: C_14  and  C_22
    8  A    between atoms: C_18  and  C_27
    9  A    between atoms: C_21  and  C_25
                            x       y       z     vdW  Elec       q    Type
                         _______ _______ _______ _____ _____    ______ ____

>  <TORSDO>
F 9

$$$$
=
 OpenBabel10222415283D

 31 33  0  0  1  0  0  0  0  0999 V2000
  182.8840  179.3930  139.2200 C   0  0  2  0  0  3  0  0  0  0  0  0
  182.4860  178.6620  136.8620 C   0  0  0  0  0  2  0  0  0  0  0  0
  181.4340  181.1150  138.0280 C   0  0  0  0  0  2  0  0  0  0  0  0
  181.8120  180.4760  139.3560 C   0  0  0  0  0  2  0  0  0  0  0  0
  180.4600  180.2040  137.2890 C   0  0  2  0  0  3  0  0  0  0  0  0
  181.1490  179.2040  136.3540 C   0  0  0  0  0  2  0  0  0  0  0  0
  182.4280  178.2200  138.3210 C   0  0  1  0  0  3  0  0  0  0  0  0
  181.2700  175.9220  139.4140 C   0  0  0  0  0  1  0  0  0  0  0  0
  182.8070  175.9100  137.7360 O   0  0  0  0  0  0  0  0  0  0  0  0
  183.2770  176.9390  138.4930 C   0  0  2  0  0  0  0  0  0  0  0  0
  182.6870  175.7570  139.1110 N   0  0  0  0  0  0  0  0  0  0  0  0
  184.8110  177.0120  138.4380 C   0  0  0  0  0  2  0  0  0  0  0  0
  185.4020  176.7500  137.0540 C   0  0  0  0  0  2  0  0  0  0  0  0
  186.6690  178.6400  137.7770 O   0  0  0  0  0  1  0  0  0  0  0  0
  186.4020  177.8280  136.6740 C   0  0  0  0  0  2  0  0  0  0  0  0
  184.5840  179.3530  141.1060 N   0  0  0  0  0  2  0  0  0  0  0  0
  183.3040  178.9700  140.5930 C   0  0  0  0  0  0  0  0  0  0  0  0
  182.5090  178.2870  141.2930 O   0  0  0  0  0  0  0  0  0  0  0  0
  186.3580  178.2440  142.4660 C   0  0  0  0  0  0  0  0  0  0  0  0
  184.3800  179.2090  143.5150 C   0  0  0  0  0  3  0  0  0  0  0  0
  186.0340  178.1130  144.8820 C   0  0  0  0  0  3  0  0  0  0  0  0
  185.1140  178.9140  142.3640 C   0  0  0  0  0  0  0  0  0  0  0  0
  186.8040  177.8270  143.7510 C   0  0  0  0  0  0  0  0  0  0  0  0
  184.8330  178.8090  144.7690 C   0  0  0  0  0  3  0  0  0  0  0  0
  188.2530  178.7170  140.9910 N   0  0  0  0  0  2  0  0  0  0  0  0
  187.1640  178.0650  141.2330 C   0  0  0  0  0  3  0  0  0  0  0  0
  188.0700  177.0610  143.9680 C   0  0  0  0  0  2  0  0  0  0  0  0
  189.0400  177.8810  144.7990 C   0  0  0  0  0  1  0  0  0  0  0  0
  179.0860  180.6550  135.3830 O   0  0  0  0  0  0  0  0  0  0  0  0
  179.4580  181.0100  136.5330 C   0  0  0  0  0  0  0  0  0  0  0  0
  178.9310  182.1610  137.1030 O   0  0  0  0  0  1  0  0  0  0  0  0
  1  4  1  0  0  0  0
  1 17  1  1  0  0  0
  3  4  1  0  0  0  0
  5 30  1  6  0  0  0
  5  3  1  0  0  0  0
  6  2  1  0  0  0  0
  6  5  1  0  0  0  0
  7  2  1  6  0  0  0
  7 10  1  0  0  0  0
  7  1  1  0  0  0  0
  9 10  1  0  0  0  0
  9 11  1  0  0  0  0
 10 12  1  1  0  0  0
 10 11  1  0  0  0  0
 11  8  1  0  0  0  0
 13 12  1  0  0  0  0
 15 13  1  0  0  0  0
 15 14  1  0  0  0  0
 16 22  1  0  0  0  0
 17 16  1  0  0  0  0
 17 18  2  0  0  0  0
 19 23  1  0  0  0  0
 20 24  2  0  0  0  0
 22 19  2  0  0  0  0
 22 20  1  0  0  0  0
 23 27  1  0  0  0  0
 23 21  2  0  0  0  0
 24 21  1  0  0  0  0
 25 26  2  0  0  0  0
 26 19  1  0  0  0  0
 27 28  1  0  0  0  0
 29 30  2  0  0  0  0
 30 31  1  0  0  0  0
M  END
>  <MODEL>
9

>  <REMARK>
 VINA RESULT:      -5.7      5.880      9.602
  Name = 
  9 active torsions:
  status: ('A' for Active; 'I' for Inactive)
    1  A    between atoms: C_2  and  C_28
    2  A    between atoms: C_3  and  C_7
    3  A    between atoms: C_3  and  C_9
    4  A    between atoms: C_4  and  C_19
    5  A    between atoms: N_5  and  C_15
    6  A    between atoms: C_9  and  C_18
    7  A    between atoms: C_14  and  C_22
    8  A    between atoms: C_18  and  C_27
    9  A    between atoms: C_21  and  C_25
                            x       y       z     vdW  Elec       q    Type
                         _______ _______ _______ _____ _____    ______ ____

>  <TORSDO>
F 9

$$$$
