=
 OpenBabel10222420173D

 27 29  0  0  1  0  0  0  0  0999 V2000
  184.7050  179.0970  142.5970 C   0  0  0  0  0  2  0  0  0  0  0  0
  188.6870  176.6520  137.6350 C   0  0  0  0  0  0  0  0  0  0  0  0
  187.2590  178.4230  139.8300 N   0  0  0  0  0  0  0  0  0  0  0  0
  185.3240  178.9170  141.2310 C   0  0  0  0  0  0  0  0  0  0  0  0
  184.4960  179.2660  140.1080 N   0  0  0  0  0  2  0  0  0  0  0  0
  188.6030  177.7200  142.1990 N   0  0  0  0  0  0  0  0  0  0  0  0
  184.9380  178.5950  145.1120 C   0  0  0  0  0  1  0  0  0  0  0  0
  184.7760  177.6160  138.3310 C   0  0  0  0  0  2  0  0  0  0  0  0
  188.9140  179.1540  137.5060 C   0  0  0  0  0  1  0  0  0  0  0  0
  186.7480  178.1650  143.5930 N   0  0  0  0  0  0  0  0  0  0  0  0
  186.6070  178.5120  141.1050 C   0  0  0  0  0  0  0  0  0  0  0  0
  185.5280  178.5760  143.7490 C   0  0  0  0  0  0  0  0  0  0  0  0
  189.2480  177.6450  140.9220 C   0  0  0  0  0  0  0  0  0  0  0  0
  187.4550  176.5110  137.2030 C   0  0  0  0  0  0  0  0  0  0  0  0
  187.3740  178.1290  142.3110 C   0  0  0  0  0  0  0  0  0  0  0  0
  189.1170  177.9050  138.3510 C   0  0  1  0  0  3  0  0  0  0  0  0
  188.4920  178.0280  139.7110 C   0  0  0  0  0  0  0  0  0  0  0  0
  190.4420  177.2530  140.8410 O   0  0  0  0  0  0  0  0  0  0  0  0
  185.2190  177.4410  136.8860 C   0  0  1  0  0  3  0  0  0  0  0  0
  184.8070  179.0890  138.6950 C   0  0  0  0  0  2  0  0  0  0  0  0
  186.2370  176.3540  136.7600 C   0  0  0  0  0  3  0  0  0  0  0  0
  190.5220  175.4580  138.5220 F   0  0  0  0  0  0  0  0  0  0  0  0
  190.4040  175.7520  136.2900 F   0  0  0  0  0  0  0  0  0  0  0  0
  189.0050  174.3190  137.3120 F   0  0  0  0  0  0  0  0  0  0  0  0
  189.6640  175.5280  137.4380 C   0  0  0  0  0  0  0  0  0  0  0  0
  184.0220  177.1810  135.9770 C   0  0  0  0  0  2  0  0  0  0  0  0
  182.9100  176.6050  136.7190 N   0  0  0  0  0  1  0  0  0  0  0  0
  1 12  1  0  0  0  0
  2 16  1  0  0  0  0
  3 11  1  0  0  0  0
  4  1  1  0  0  0  0
  5  4  1  0  0  0  0
  6 15  2  0  0  0  0
  8 20  1  0  0  0  0
 10 12  2  0  0  0  0
 11  4  2  0  0  0  0
 11 15  1  0  0  0  0
 12  7  1  0  0  0  0
 13  6  1  0  0  0  0
 14  2  2  0  0  0  0
 15 10  1  0  0  0  0
 16  9  1  6  0  0  0
 16 17  1  0  0  0  0
 17  3  2  0  0  0  0
 17 13  1  0  0  0  0
 18 13  2  0  0  0  0
 19 26  1  6  0  0  0
 19  8  1  0  0  0  0
 20  5  1  0  0  0  0
 21 19  1  0  0  0  0
 21 14  2  0  0  0  0
 23 25  1  0  0  0  0
 24 25  1  0  0  0  0
 25  2  1  0  0  0  0
 25 22  1  0  0  0  0
 26 27  1  0  0  0  0
M  END
>  <MODEL>
1

>  <REMARK>
 VINA RESULT:      -7.5      0.000      0.000
  Name = 
  2 active torsions:
  status: ('A' for Active; 'I' for Inactive)
    1  A    between atoms: C_2  and  C_26
    2  A    between atoms: C_18  and  C_24
                            x       y       z     vdW  Elec       q    Type
                         _______ _______ _______ _____ _____    ______ ____

>  <TORSDO>
F 2

$$$$
=
 OpenBabel10222420173D

 27 29  0  0  1  0  0  0  0  0999 V2000
  184.9760  178.6810  141.2670 C   0  0  0  0  0  2  0  0  0  0  0  0
  190.8990  177.0300  144.2080 C   0  0  0  0  0  0  0  0  0  0  0  0
  188.3240  178.4970  143.1080 N   0  0  0  0  0  0  0  0  0  0  0  0
  186.4610  178.6270  141.5390 C   0  0  0  0  0  0  0  0  0  0  0  0
  187.3220  178.8350  140.4050 N   0  0  0  0  0  2  0  0  0  0  0  0
  186.4060  178.0190  145.1090 N   0  0  0  0  0  0  0  0  0  0  0  0
  182.6290  178.2020  142.2140 C   0  0  0  0  0  1  0  0  0  0  0  0
  189.1990  177.2790  140.4980 C   0  0  0  0  0  2  0  0  0  0  0  0
  190.9430  179.5330  143.9690 C   0  0  0  0  0  1  0  0  0  0  0  0
  184.5730  178.1150  143.6230 N   0  0  0  0  0  0  0  0  0  0  0  0
  186.9240  178.4560  142.7960 C   0  0  0  0  0  0  0  0  0  0  0  0
  184.0960  178.3010  142.4310 C   0  0  0  0  0  0  0  0  0  0  0  0
  187.8060  178.0730  145.4120 C   0  0  0  0  0  0  0  0  0  0  0  0
  191.0170  176.6770  142.9490 C   0  0  0  0  0  0  0  0  0  0  0  0
  185.9700  178.2030  143.8990 C   0  0  0  0  0  0  0  0  0  0  0  0
  190.2450  178.3310  144.5880 C   0  0  1  0  0  3  0  0  0  0  0  0
  188.7680  178.3280  144.3190 C   0  0  0  0  0  0  0  0  0  0  0  0
  188.2020  177.8990  146.5940 O   0  0  0  0  0  0  0  0  0  0  0  0
  190.7170  177.2000  140.5820 C   0  0  1  0  0  3  0  0  0  0  0  0
  188.7750  178.7300  140.3720 C   0  0  0  0  0  2  0  0  0  0  0  0
  191.1520  176.3110  141.7020 C   0  0  0  0  0  3  0  0  0  0  0  0
  192.0500  175.0260  144.6980 F   0  0  0  0  0  0  0  0  0  0  0  0
  190.3230  175.6290  146.0170 F   0  0  0  0  0  0  0  0  0  0  0  0
  192.2700  176.7480  146.1300 F   0  0  0  0  0  0  0  0  0  0  0  0
  191.3940  176.0990  145.2780 C   0  0  0  0  0  0  0  0  0  0  0  0
  191.3130  176.7410  139.2540 C   0  0  0  0  0  2  0  0  0  0  0  0
  190.5610  175.6280  138.6940 N   0  0  0  0  0  1  0  0  0  0  0  0
  1  4  1  0  0  0  0
  1 12  1  0  0  0  0
  2 16  1  0  0  0  0
  2 25  1  0  0  0  0
  3 17  2  0  0  0  0
  4 11  2  0  0  0  0
  5  4  1  0  0  0  0
  6 13  1  0  0  0  0
  7 12  1  0  0  0  0
  8 19  1  0  0  0  0
 10 15  1  0  0  0  0
 11  3  1  0  0  0  0
 11 15  1  0  0  0  0
 12 10  2  0  0  0  0
 13 18  2  0  0  0  0
 14  2  2  0  0  0  0
 15  6  2  0  0  0  0
 16  9  1  6  0  0  0
 17 16  1  0  0  0  0
 17 13  1  0  0  0  0
 19 26  1  6  0  0  0
 19 21  1  0  0  0  0
 20  5  1  0  0  0  0
 20  8  1  0  0  0  0
 21 14  2  0  0  0  0
 22 25  1  0  0  0  0
 25 23  1  0  0  0  0
 25 24  1  0  0  0  0
 27 26  1  0  0  0  0
M  END
>  <MODEL>
2

>  <REMARK>
 VINA RESULT:      -7.1      3.901      5.732
  Name = 
  2 active torsions:
  status: ('A' for Active; 'I' for Inactive)
    1  A    between atoms: C_2  and  C_26
    2  A    between atoms: C_18  and  C_24
                            x       y       z     vdW  Elec       q    Type
                         _______ _______ _______ _____ _____    ______ ____

>  <TORSDO>
F 2

$$$$
=
 OpenBabel10222420173D

 27 29  0  0  1  0  0  0  0  0999 V2000
  184.6740  178.8890  142.9680 C   0  0  0  0  0  2  0  0  0  0  0  0
  190.8760  176.7760  144.8440 C   0  0  0  0  0  0  0  0  0  0  0  0
  188.2740  178.4440  144.1820 N   0  0  0  0  0  0  0  0  0  0  0  0
  186.1740  178.7110  142.9700 C   0  0  0  0  0  0  0  0  0  0  0  0
  186.8290  178.8280  141.6940 N   0  0  0  0  0  2  0  0  0  0  0  0
  186.7180  178.1610  146.5080 N   0  0  0  0  0  0  0  0  0  0  0  0
  182.5070  178.6280  144.3340 C   0  0  0  0  0  1  0  0  0  0  0  0
  188.5580  177.1180  141.4940 C   0  0  0  0  0  2  0  0  0  0  0  0
  191.0820  179.2630  144.5270 C   0  0  0  0  0  1  0  0  0  0  0  0
  184.6600  178.3940  145.3740 N   0  0  0  0  0  0  0  0  0  0  0  0
  186.8420  178.5190  144.1280 C   0  0  0  0  0  0  0  0  0  0  0  0
  183.9910  178.6030  144.2820 C   0  0  0  0  0  0  0  0  0  0  0  0
  188.1490  178.0990  146.5530 C   0  0  0  0  0  0  0  0  0  0  0  0
  190.7350  176.3970  143.5950 C   0  0  0  0  0  0  0  0  0  0  0  0
  186.0870  178.3640  145.3910 C   0  0  0  0  0  0  0  0  0  0  0  0
  190.4120  178.1340  145.2970 C   0  0  1  0  0  3  0  0  0  0  0  0
  188.9150  178.2540  145.2980 C   0  0  0  0  0  0  0  0  0  0  0  0
  188.7380  177.9080  147.6490 O   0  0  0  0  0  0  0  0  0  0  0  0
  190.0540  176.9100  141.3070 C   0  0  1  0  0  3  0  0  0  0  0  0
  188.2380  178.5980  141.4040 C   0  0  0  0  0  2  0  0  0  0  0  0
  190.6100  176.0030  142.3560 C   0  0  0  0  0  3  0  0  0  0  0  0
  190.4930  175.3300  146.6720 F   0  0  0  0  0  0  0  0  0  0  0  0
  192.4310  176.4780  146.5930 F   0  0  0  0  0  0  0  0  0  0  0  0
  192.0840  174.7570  145.1880 F   0  0  0  0  0  0  0  0  0  0  0  0
  191.4790  175.8210  145.8340 C   0  0  0  0  0  0  0  0  0  0  0  0
  190.3590  176.3820  139.9070 C   0  0  0  0  0  2  0  0  0  0  0  0
  191.5260  177.0390  139.3380 N   0  0  0  0  0  1  0  0  0  0  0  0
  1  4  1  0  0  0  0
  1 12  1  0  0  0  0
  2 16  1  0  0  0  0
  2 25  1  0  0  0  0
  3 17  2  0  0  0  0
  4 11  2  0  0  0  0
  5  4  1  0  0  0  0
  6 13  1  0  0  0  0
 10 15  1  0  0  0  0
 11  3  1  0  0  0  0
 11 15  1  0  0  0  0
 12  7  1  0  0  0  0
 12 10  2  0  0  0  0
 13 18  2  0  0  0  0
 14  2  2  0  0  0  0
 15  6  2  0  0  0  0
 16  9  1  6  0  0  0
 16 17  1  0  0  0  0
 17 13  1  0  0  0  0
 19 26  1  6  0  0  0
 19  8  1  0  0  0  0
 19 21  1  0  0  0  0
 20  8  1  0  0  0  0
 20  5  1  0  0  0  0
 21 14  2  0  0  0  0
 24 25  1  0  0  0  0
 25 23  1  0  0  0  0
 25 22  1  0  0  0  0
 27 26  1  0  0  0  0
M  END
>  <MODEL>
3

>  <REMARK>
 VINA RESULT:      -7.0      4.438      6.135
  Name = 
  2 active torsions:
  status: ('A' for Active; 'I' for Inactive)
    1  A    between atoms: C_2  and  C_26
    2  A    between atoms: C_18  and  C_24
                            x       y       z     vdW  Elec       q    Type
                         _______ _______ _______ _____ _____    ______ ____

>  <TORSDO>
F 2

$$$$
=
 OpenBabel10222420173D

 27 29  0  0  1  0  0  0  0  0999 V2000
  185.7740  178.5930  143.3470 C   0  0  0  0  0  2  0  0  0  0  0  0
  188.3820  176.8700  137.2900 C   0  0  0  0  0  0  0  0  0  0  0  0
  187.5860  178.3080  139.9900 N   0  0  0  0  0  0  0  0  0  0  0  0
  186.0520  178.6130  141.8620 C   0  0  0  0  0  0  0  0  0  0  0  0
  185.0060  179.1400  141.0270 N   0  0  0  0  0  2  0  0  0  0  0  0
  189.4010  177.2340  141.8520 N   0  0  0  0  0  0  0  0  0  0  0  0
  186.5520  177.7110  145.6380 C   0  0  0  0  0  1  0  0  0  0  0  0
  184.7880  177.7760  139.0160 C   0  0  0  0  0  2  0  0  0  0  0  0
  188.6980  179.3590  137.4740 C   0  0  0  0  0  1  0  0  0  0  0  0
  187.9410  177.4900  143.6910 N   0  0  0  0  0  0  0  0  0  0  0  0
  187.2500  178.2120  141.3820 C   0  0  0  0  0  0  0  0  0  0  0  0
  186.8110  177.8900  144.1860 C   0  0  0  0  0  0  0  0  0  0  0  0
  189.7320  177.3450  140.4610 C   0  0  0  0  0  0  0  0  0  0  0  0
  187.0780  176.8150  137.1440 C   0  0  0  0  0  0  0  0  0  0  0  0
  188.2530  177.6390  142.3060 C   0  0  0  0  0  0  0  0  0  0  0  0
  189.0270  177.9930  138.0580 C   0  0  1  0  0  3  0  0  0  0  0  0
  188.7380  177.9180  139.5300 C   0  0  0  0  0  0  0  0  0  0  0  0
  190.8540  176.9510  140.0470 O   0  0  0  0  0  0  0  0  0  0  0  0
  184.8790  177.8150  137.4970 C   0  0  1  0  0  3  0  0  0  0  0  0
  184.9760  179.1750  139.5700 C   0  0  0  0  0  2  0  0  0  0  0  0
  185.7840  176.7450  136.9800 C   0  0  0  0  0  3  0  0  0  0  0  0
  188.9510  174.5790  137.3470 F   0  0  0  0  0  0  0  0  0  0  0  0
  190.5690  176.0800  136.8870 F   0  0  0  0  0  0  0  0  0  0  0  0
  188.9850  175.6270  135.3560 F   0  0  0  0  0  0  0  0  0  0  0  0
  189.2310  175.7750  136.7090 C   0  0  0  0  0  0  0  0  0  0  0  0
  183.4930  177.7140  136.8660 C   0  0  0  0  0  2  0  0  0  0  0  0
  182.4500  177.7040  137.8810 N   0  0  0  0  0  1  0  0  0  0  0  0
  1 12  1  0  0  0  0
  2 16  1  0  0  0  0
  3 11  1  0  0  0  0
  4  1  1  0  0  0  0
  5  4  1  0  0  0  0
  6 15  2  0  0  0  0
  8 20  1  0  0  0  0
 10 12  2  0  0  0  0
 11  4  2  0  0  0  0
 11 15  1  0  0  0  0
 12  7  1  0  0  0  0
 13  6  1  0  0  0  0
 14  2  2  0  0  0  0
 15 10  1  0  0  0  0
 16  9  1  6  0  0  0
 16 17  1  0  0  0  0
 17  3  2  0  0  0  0
 17 13  1  0  0  0  0
 18 13  2  0  0  0  0
 19 26  1  6  0  0  0
 19  8  1  0  0  0  0
 20  5  1  0  0  0  0
 21 14  2  0  0  0  0
 21 19  1  0  0  0  0
 24 25  1  0  0  0  0
 25 23  1  0  0  0  0
 25  2  1  0  0  0  0
 25 22  1  0  0  0  0
 26 27  1  0  0  0  0
M  END
>  <MODEL>
4

>  <REMARK>
 VINA RESULT:      -6.9      0.977      1.135
  Name = 
  2 active torsions:
  status: ('A' for Active; 'I' for Inactive)
    1  A    between atoms: C_2  and  C_26
    2  A    between atoms: C_18  and  C_24
                            x       y       z     vdW  Elec       q    Type
                         _______ _______ _______ _____ _____    ______ ____

>  <TORSDO>
F 2

$$$$
=
 OpenBabel10222420173D

 27 29  0  0  1  0  0  0  0  0999 V2000
  184.4250  178.8330  145.4220 C   0  0  0  0  0  2  0  0  0  0  0  0
  183.5420  177.9210  138.7250 C   0  0  0  0  0  0  0  0  0  0  0  0
  184.1100  179.0650  141.6160 N   0  0  0  0  0  0  0  0  0  0  0  0
  183.8330  178.9540  144.0370 C   0  0  0  0  0  0  0  0  0  0  0  0
  182.4240  179.2370  143.9720 N   0  0  0  0  0  2  0  0  0  0  0  0
  186.8110  178.4090  142.0500 N   0  0  0  0  0  0  0  0  0  0  0  0
  186.4820  178.1080  146.7910 C   0  0  0  0  0  1  0  0  0  0  0  0
  181.3950  177.9070  142.2040 C   0  0  0  0  0  2  0  0  0  0  0  0
  183.4370  180.4080  139.0830 C   0  0  0  0  0  1  0  0  0  0  0  0
  186.5850  178.2680  144.3960 N   0  0  0  0  0  0  0  0  0  0  0  0
  184.6190  178.8590  142.9430 C   0  0  0  0  0  0  0  0  0  0  0  0
  185.8620  178.3770  145.4680 C   0  0  0  0  0  0  0  0  0  0  0  0
  186.2960  178.6270  140.7300 C   0  0  0  0  0  0  0  0  0  0  0  0
  182.4100  177.5610  139.2850 C   0  0  0  0  0  0  0  0  0  0  0  0
  186.0500  178.5200  143.0970 C   0  0  0  0  0  0  0  0  0  0  0  0
  184.2800  179.1460  139.1930 C   0  0  1  0  0  3  0  0  0  0  0  0
  184.8680  178.9700  140.5640 C   0  0  0  0  0  0  0  0  0  0  0  0
  187.0560  178.5210  139.7310 O   0  0  0  0  0  0  0  0  0  0  0  0
  180.6270  178.0030  140.8940 C   0  0  1  0  0  3  0  0  0  0  0  0
  181.5920  179.2980  142.7770 C   0  0  0  0  0  2  0  0  0  0  0  0
  181.2790  177.1900  139.8230 C   0  0  0  0  0  3  0  0  0  0  0  0
  185.4810  177.2880  137.5340 F   0  0  0  0  0  0  0  0  0  0  0  0
  183.5220  177.4040  136.4230 F   0  0  0  0  0  0  0  0  0  0  0  0
  183.8960  175.7290  137.8760 F   0  0  0  0  0  0  0  0  0  0  0  0
  184.1170  177.0710  137.6280 C   0  0  0  0  0  0  0  0  0  0  0  0
  179.1700  177.5900  141.0850 C   0  0  0  0  0  2  0  0  0  0  0  0
  179.0240  176.1430  141.0700 N   0  0  0  0  0  1  0  0  0  0  0  0
  1 12  1  0  0  0  0
  2 16  1  0  0  0  0
  2 14  2  0  0  0  0
  3 11  1  0  0  0  0
  4  1  1  0  0  0  0
  5  4  1  0  0  0  0
  6 15  2  0  0  0  0
  8 20  1  0  0  0  0
 10 12  2  0  0  0  0
 11 15  1  0  0  0  0
 11  4  2  0  0  0  0
 12  7  1  0  0  0  0
 13  6  1  0  0  0  0
 14 21  2  0  0  0  0
 15 10  1  0  0  0  0
 16  9  1  1  0  0  0
 16 17  1  0  0  0  0
 17 13  1  0  0  0  0
 17  3  2  0  0  0  0
 18 13  2  0  0  0  0
 19 26  1  1  0  0  0
 19  8  1  0  0  0  0
 20  5  1  0  0  0  0
 21 19  1  0  0  0  0
 22 25  1  0  0  0  0
 23 25  1  0  0  0  0
 25 24  1  0  0  0  0
 25  2  1  0  0  0  0
 27 26  1  0  0  0  0
M  END
>  <MODEL>
5

>  <REMARK>
 VINA RESULT:      -6.9      3.228      4.650
  Name = 
  2 active torsions:
  status: ('A' for Active; 'I' for Inactive)
    1  A    between atoms: C_2  and  C_26
    2  A    between atoms: C_18  and  C_24
                            x       y       z     vdW  Elec       q    Type
                         _______ _______ _______ _____ _____    ______ ____

>  <TORSDO>
F 2

$$$$
=
 OpenBabel10222420173D

 27 29  0  0  1  0  0  0  0  0999 V2000
  189.8660  177.6330  139.6370 C   0  0  0  0  0  2  0  0  0  0  0  0
  183.0560  177.8810  139.7640 C   0  0  0  0  0  0  0  0  0  0  0  0
  186.1360  178.4040  139.2820 N   0  0  0  0  0  0  0  0  0  0  0  0
  188.4670  178.1160  139.9400 C   0  0  0  0  0  0  0  0  0  0  0  0
  188.3090  178.8870  141.1450 N   0  0  0  0  0  2  0  0  0  0  0  0
  186.7240  176.7860  137.0570 N   0  0  0  0  0  0  0  0  0  0  0  0
  191.2980  176.0710  138.1740 C   0  0  0  0  0  1  0  0  0  0  0  0
  186.2560  178.2250  142.2850 C   0  0  0  0  0  2  0  0  0  0  0  0
  183.7990  180.1830  139.0770 C   0  0  0  0  0  1  0  0  0  0  0  0
  188.9830  176.4620  137.6660 N   0  0  0  0  0  0  0  0  0  0  0  0
  187.4560  177.8780  139.0770 C   0  0  0  0  0  0  0  0  0  0  0  0
  189.9810  176.6950  138.4620 C   0  0  0  0  0  0  0  0  0  0  0  0
  185.4120  177.3250  137.2650 C   0  0  0  0  0  0  0  0  0  0  0  0
  183.4350  177.8840  141.0210 C   0  0  0  0  0  0  0  0  0  0  0  0
  187.6950  177.0360  137.8840 C   0  0  0  0  0  0  0  0  0  0  0  0
  183.7870  178.7010  138.7350 C   0  0  1  0  0  3  0  0  0  0  0  0
  185.1620  178.1690  138.4520 C   0  0  0  0  0  0  0  0  0  0  0  0
  184.4910  177.0730  136.4460 O   0  0  0  0  0  0  0  0  0  0  0  0
  184.9090  178.7380  142.7710 C   0  0  1  0  0  3  0  0  0  0  0  0
  187.0630  179.3780  141.7180 C   0  0  0  0  0  2  0  0  0  0  0  0
  183.7910  177.8780  142.2780 C   0  0  0  0  0  3  0  0  0  0  0  0
  180.7310  177.4950  139.9210 F   0  0  0  0  0  0  0  0  0  0  0  0
  182.1120  175.7180  139.7790 F   0  0  0  0  0  0  0  0  0  0  0  0
  181.7530  177.0120  137.9750 F   0  0  0  0  0  0  0  0  0  0  0  0
  181.8980  177.0170  139.3510 C   0  0  0  0  0  0  0  0  0  0  0  0
  184.8850  178.8500  144.2930 C   0  0  0  0  0  2  0  0  0  0  0  0
  183.5270  179.0030  144.7900 N   0  0  0  0  0  1  0  0  0  0  0  0
  1  4  1  0  0  0  0
  2 14  2  0  0  0  0
  4  5  1  0  0  0  0
  5 20  1  0  0  0  0
  6 13  1  0  0  0  0
  6 15  2  0  0  0  0
  7 12  1  0  0  0  0
  8 19  1  0  0  0  0
 10 15  1  0  0  0  0
 10 12  2  0  0  0  0
 11  3  1  0  0  0  0
 11  4  2  0  0  0  0
 12  1  1  0  0  0  0
 13 17  1  0  0  0  0
 14 21  2  0  0  0  0
 15 11  1  0  0  0  0
 16  9  1  1  0  0  0
 16  2  1  0  0  0  0
 17 16  1  0  0  0  0
 17  3  2  0  0  0  0
 18 13  2  0  0  0  0
 19 26  1  1  0  0  0
 20  8  1  0  0  0  0
 21 19  1  0  0  0  0
 24 25  1  0  0  0  0
 25  2  1  0  0  0  0
 25 23  1  0  0  0  0
 25 22  1  0  0  0  0
 26 27  1  0  0  0  0
M  END
>  <MODEL>
6

>  <REMARK>
 VINA RESULT:      -6.4      3.520      6.381
  Name = 
  2 active torsions:
  status: ('A' for Active; 'I' for Inactive)
    1  A    between atoms: C_2  and  C_26
    2  A    between atoms: C_18  and  C_24
                            x       y       z     vdW  Elec       q    Type
                         _______ _______ _______ _____ _____    ______ ____

>  <TORSDO>
F 2

$$$$
=
 OpenBabel10222420173D

 27 29  0  0  1  0  0  0  0  0999 V2000
  185.7410  171.7210  135.8820 C   0  0  0  0  0  2  0  0  0  0  0  0
  189.1470  177.3640  137.6190 C   0  0  0  0  0  0  0  0  0  0  0  0
  187.4270  175.1430  136.1690 N   0  0  0  0  0  0  0  0  0  0  0  0
  186.7910  172.8070  135.8700 C   0  0  0  0  0  0  0  0  0  0  0  0
  188.0860  172.4340  135.3650 N   0  0  0  0  0  2  0  0  0  0  0  0
  184.8420  175.5540  137.2020 N   0  0  0  0  0  0  0  0  0  0  0  0
  183.4090  171.0360  136.7330 C   0  0  0  0  0  1  0  0  0  0  0  0
  189.8310  173.4280  136.7490 C   0  0  0  0  0  2  0  0  0  0  0  0
  188.8520  177.4990  135.1250 C   0  0  0  0  0  1  0  0  0  0  0  0
  184.1910  173.2980  136.9510 N   0  0  0  0  0  0  0  0  0  0  0  0
  186.4850  174.0640  136.2580 C   0  0  0  0  0  0  0  0  0  0  0  0
  184.4460  172.0870  136.5630 C   0  0  0  0  0  0  0  0  0  0  0  0
  185.7870  176.6270  137.0990 C   0  0  0  0  0  0  0  0  0  0  0  0
  190.0190  176.3850  137.6940 C   0  0  0  0  0  0  0  0  0  0  0  0
  185.1420  174.3520  136.8090 C   0  0  0  0  0  0  0  0  0  0  0  0
  188.1650  177.4380  136.4810 C   0  0  1  0  0  3  0  0  0  0  0  0
  187.1300  176.3520  136.5480 C   0  0  0  0  0  0  0  0  0  0  0  0
  185.4690  177.7850  137.4800 O   0  0  0  0  0  0  0  0  0  0  0  0
  191.0180  174.3800  136.7220 C   0  0  1  0  0  3  0  0  0  0  0  0
  189.2920  173.2510  135.3430 C   0  0  0  0  0  2  0  0  0  0  0  0
  190.9000  175.4250  137.7840 C   0  0  0  0  0  3  0  0  0  0  0  0
  187.9130  178.3200  139.3920 F   0  0  0  0  0  0  0  0  0  0  0  0
  189.2350  179.6610  138.1520 F   0  0  0  0  0  0  0  0  0  0  0  0
  190.1510  178.2060  139.6020 F   0  0  0  0  0  0  0  0  0  0  0  0
  189.1130  178.3990  138.7070 C   0  0  0  0  0  0  0  0  0  0  0  0
  192.3330  173.6160  136.8480 C   0  0  0  0  0  2  0  0  0  0  0  0
  193.3050  174.3620  137.6330 N   0  0  0  0  0  1  0  0  0  0  0  0
  1 12  1  0  0  0  0
  2 14  2  0  0  0  0
  2 25  1  0  0  0  0
  3 11  1  0  0  0  0
  3 17  2  0  0  0  0
  4  1  1  0  0  0  0
  4 11  2  0  0  0  0
  5  4  1  0  0  0  0
 11 15  1  0  0  0  0
 12  7  1  0  0  0  0
 12 10  2  0  0  0  0
 13  6  1  0  0  0  0
 13 18  2  0  0  0  0
 14 21  2  0  0  0  0
 15 10  1  0  0  0  0
 15  6  2  0  0  0  0
 16  9  1  6  0  0  0
 16 17  1  0  0  0  0
 16  2  1  0  0  0  0
 17 13  1  0  0  0  0
 19  8  1  0  0  0  0
 19 26  1  1  0  0  0
 19 21  1  0  0  0  0
 20  5  1  0  0  0  0
 20  8  1  0  0  0  0
 23 25  1  0  0  0  0
 25 22  1  0  0  0  0
 25 24  1  0  0  0  0
 26 27  1  0  0  0  0
M  END
>  <MODEL>
7

>  <REMARK>
 VINA RESULT:      -5.6      4.033      6.809
  Name = 
  2 active torsions:
  status: ('A' for Active; 'I' for Inactive)
    1  A    between atoms: C_2  and  C_26
    2  A    between atoms: C_18  and  C_24
                            x       y       z     vdW  Elec       q    Type
                         _______ _______ _______ _____ _____    ______ ____

>  <TORSDO>
F 2

$$$$
=
 OpenBabel10222420173D

 27 29  0  0  1  0  0  0  0  0999 V2000
  186.6350  178.2200  145.2880 C   0  0  0  0  0  2  0  0  0  0  0  0
  183.2620  179.0900  139.4290 C   0  0  0  0  0  0  0  0  0  0  0  0
  184.4260  178.0300  142.1700 N   0  0  0  0  0  0  0  0  0  0  0  0
  186.1820  178.0020  143.8630 C   0  0  0  0  0  0  0  0  0  0  0  0
  187.1400  177.3930  142.9780 N   0  0  0  0  0  2  0  0  0  0  0  0
  182.8080  179.2980  144.0900 N   0  0  0  0  0  0  0  0  0  0  0  0
  186.1030  179.3740  147.5280 C   0  0  0  0  0  1  0  0  0  0  0  0
  187.0670  178.4900  140.8000 C   0  0  0  0  0  2  0  0  0  0  0  0
  183.0610  176.6400  139.9610 C   0  0  0  0  0  1  0  0  0  0  0  0
  184.4850  179.3120  145.7530 N   0  0  0  0  0  0  0  0  0  0  0  0
  184.9220  178.3120  143.4870 C   0  0  0  0  0  0  0  0  0  0  0  0
  185.6800  179.0030  146.1530 C   0  0  0  0  0  0  0  0  0  0  0  0
  182.3180  179.0020  142.7760 C   0  0  0  0  0  0  0  0  0  0  0  0
  184.5360  179.1530  139.1180 C   0  0  0  0  0  0  0  0  0  0  0  0
  184.0160  178.9790  144.4470 C   0  0  0  0  0  0  0  0  0  0  0  0
  182.7550  178.0630  140.4050 C   0  0  1  0  0  3  0  0  0  0  0  0
  183.2140  178.3340  141.8090 C   0  0  0  0  0  0  0  0  0  0  0  0
  181.1410  179.3150  142.4570 O   0  0  0  0  0  0  0  0  0  0  0  0
  186.7970  178.2530  139.3220 C   0  0  1  0  0  3  0  0  0  0  0  0
  186.9970  177.1710  141.5450 C   0  0  0  0  0  2  0  0  0  0  0  0
  185.7980  179.2280  138.7890 C   0  0  0  0  0  3  0  0  0  0  0  0
  181.9320  179.6590  137.5620 F   0  0  0  0  0  0  0  0  0  0  0  0
  182.9320  181.3160  138.7190 F   0  0  0  0  0  0  0  0  0  0  0  0
  181.1790  180.2220  139.6070 F   0  0  0  0  0  0  0  0  0  0  0  0
  182.3110  180.0830  138.8240 C   0  0  0  0  0  0  0  0  0  0  0  0
  188.0930  178.3010  138.5170 C   0  0  0  0  0  2  0  0  0  0  0  0
  187.9080  179.0040  137.2570 N   0  0  0  0  0  1  0  0  0  0  0  0
  1 12  1  0  0  0  0
  2 16  1  0  0  0  0
  3 11  1  0  0  0  0
  4  1  1  0  0  0  0
  5  4  1  0  0  0  0
  6 15  2  0  0  0  0
  8 20  1  0  0  0  0
 10 12  2  0  0  0  0
 11  4  2  0  0  0  0
 11 15  1  0  0  0  0
 12  7  1  0  0  0  0
 13  6  1  0  0  0  0
 14  2  2  0  0  0  0
 15 10  1  0  0  0  0
 16  9  1  6  0  0  0
 16 17  1  0  0  0  0
 17  3  2  0  0  0  0
 17 13  1  0  0  0  0
 18 13  2  0  0  0  0
 19 26  1  6  0  0  0
 19  8  1  0  0  0  0
 20  5  1  0  0  0  0
 21 14  2  0  0  0  0
 21 19  1  0  0  0  0
 22 25  1  0  0  0  0
 23 25  1  0  0  0  0
 25  2  1  0  0  0  0
 25 24  1  0  0  0  0
 27 26  1  0  0  0  0
M  END
>  <MODEL>
8

>  <REMARK>
 VINA RESULT:      -5.6      4.197      5.898
  Name = 
  2 active torsions:
  status: ('A' for Active; 'I' for Inactive)
    1  A    between atoms: C_2  and  C_26
    2  A    between atoms: C_18  and  C_24
                            x       y       z     vdW  Elec       q    Type
                         _______ _______ _______ _____ _____    ______ ____

>  <TORSDO>
F 2

$$$$
=
 OpenBabel10222420173D

 27 29  0  0  1  0  0  0  0  0999 V2000
  181.9260  174.3910  137.4940 C   0  0  0  0  0  2  0  0  0  0  0  0
  188.0230  177.4120  137.8840 C   0  0  0  0  0  0  0  0  0  0  0  0
  185.0560  176.5700  137.1950 N   0  0  0  0  0  0  0  0  0  0  0  0
  183.2960  174.8850  137.0900 C   0  0  0  0  0  0  0  0  0  0  0  0
  183.9720  174.1220  136.0750 N   0  0  0  0  0  2  0  0  0  0  0  0
  183.5490  177.7960  139.2300 N   0  0  0  0  0  0  0  0  0  0  0  0
  180.0200  174.5980  139.2130 C   0  0  0  0  0  1  0  0  0  0  0  0
  186.3340  173.9020  136.6430 C   0  0  0  0  0  2  0  0  0  0  0  0
  186.9920  178.2540  135.7500 C   0  0  0  0  0  1  0  0  0  0  0  0
  181.8320  176.1750  139.1790 N   0  0  0  0  0  0  0  0  0  0  0  0
  183.8030  176.0170  137.6240 C   0  0  0  0  0  0  0  0  0  0  0  0
  181.3060  175.1040  138.6690 C   0  0  0  0  0  0  0  0  0  0  0  0
  184.7960  178.3460  138.7860 C   0  0  0  0  0  0  0  0  0  0  0  0
  188.2650  176.1660  137.5460 C   0  0  0  0  0  0  0  0  0  0  0  0
  183.0620  176.7150  138.6970 C   0  0  0  0  0  0  0  0  0  0  0  0
  186.8820  178.1730  137.2650 C   0  0  1  0  0  3  0  0  0  0  0  0
  185.5440  177.6590  137.7130 C   0  0  0  0  0  0  0  0  0  0  0  0
  185.2430  179.3990  139.3140 O   0  0  0  0  0  0  0  0  0  0  0  0
  187.7420  174.2240  136.1610 C   0  0  1  0  0  3  0  0  0  0  0  0
  185.3300  174.3180  135.5850 C   0  0  0  0  0  2  0  0  0  0  0  0
  188.5280  174.9300  137.2190 C   0  0  0  0  0  3  0  0  0  0  0  0
  188.2280  178.0500  140.1490 F   0  0  0  0  0  0  0  0  0  0  0  0
  189.1350  179.3780  138.5690 F   0  0  0  0  0  0  0  0  0  0  0  0
  190.0880  177.4020  139.0620 F   0  0  0  0  0  0  0  0  0  0  0  0
  188.8820  178.0660  138.9290 C   0  0  0  0  0  0  0  0  0  0  0  0
  188.4600  172.9620  135.6940 C   0  0  0  0  0  2  0  0  0  0  0  0
  187.8780  171.7700  136.2930 N   0  0  0  0  0  1  0  0  0  0  0  0
  1 12  1  0  0  0  0
  2 25  1  0  0  0  0
  3 11  1  0  0  0  0
  3 17  2  0  0  0  0
  4  1  1  0  0  0  0
  4 11  2  0  0  0  0
  5  4  1  0  0  0  0
 11 15  1  0  0  0  0
 12 10  2  0  0  0  0
 12  7  1  0  0  0  0
 13  6  1  0  0  0  0
 13 18  2  0  0  0  0
 14  2  2  0  0  0  0
 15 10  1  0  0  0  0
 15  6  2  0  0  0  0
 16  9  1  6  0  0  0
 16 17  1  0  0  0  0
 16  2  1  0  0  0  0
 17 13  1  0  0  0  0
 19 26  1  1  0  0  0
 19  8  1  0  0  0  0
 19 21  1  0  0  0  0
 20  5  1  0  0  0  0
 20  8  1  0  0  0  0
 21 14  2  0  0  0  0
 23 25  1  0  0  0  0
 25 24  1  0  0  0  0
 25 22  1  0  0  0  0
 26 27  1  0  0  0  0
M  END
>  <MODEL>
9

>  <REMARK>
 VINA RESULT:      -5.6      3.219      5.205
  Name = 
  2 active torsions:
  status: ('A' for Active; 'I' for Inactive)
    1  A    between atoms: C_2  and  C_26
    2  A    between atoms: C_18  and  C_24
                            x       y       z     vdW  Elec       q    Type
                         _______ _______ _______ _____ _____    ______ ____

>  <TORSDO>
F 2

$$$$
